
 OpenBabel03272505243D

 28 30  0  0  1  0  0  0  0  0999 V2000
   37.1060   19.2310   32.2650 C   0  0  0  0  0  0  0  0  0  0  0  0
   37.2910   20.6400   32.2890 C   0  0  0  0  0  0  0  0  0  0  0  0
   36.1790   21.4620   32.0750 C   0  0  0  0  0  0  0  0  0  0  0  0
   34.9860   20.8740   31.8550 N   0  0  0  0  0  0  0  0  0  0  0  0
   34.8140   19.5310   31.8330 C   0  0  0  0  0  0  0  0  0  0  0  0
   35.8750   18.7130   32.0390 N   0  0  0  0  0  0  0  0  0  0  0  0
   36.2970   22.8680   32.0900 N   0  0  0  0  0  0  0  0  0  0  0  0
   35.5360   23.6530   31.3010 C   0  0  0  0  0  0  0  0  0  0  0  0
   35.6610   25.0400   31.3250 C   0  0  0  0  0  0  0  0  0  0  0  0
   36.6060   25.6060   32.1990 C   0  0  0  0  0  0  0  0  0  0  0  0
   36.7490   26.8440   32.2500 O   0  0  0  0  0  0  0  0  0  0  0  0
   37.3660   24.7950   32.9890 N   0  0  0  0  0  0  0  0  0  0  0  0
   37.1690   23.4720   32.8910 C   0  0  0  0  0  0  0  0  0  0  0  0
   37.8930   22.7640   33.6430 O   0  0  0  0  0  0  0  0  0  0  0  0
   37.9330   18.5500   32.4260 H   0  0  0  0  0  0  0  0  0  0  0  0
   38.2900   20.9240   32.4610 H   0  0  0  0  0  0  0  0  0  0  0  0
   33.8140   19.1520   31.6490 H   0  0  0  0  0  0  0  0  0  0  0  0
   34.8310   23.1450   30.6570 H   0  0  0  0  0  0  0  0  0  0  0  0
   35.0380   25.6410   30.6840 H   0  0  0  0  0  0  0  0  0  0  0  0
   37.7630   25.9510   35.1360 C   0  0  2  0  0  3  0  0  0  0  0  0
   38.3460   25.3560   33.8950 C   0  0  2  0  0  3  0  0  0  0  0  0
   39.0630   26.3660   33.2460 O   0  0  0  0  0  0  0  0  0  0  0  0
   39.7080   26.9720   34.3490 C   0  0  0  0  0  2  0  0  0  0  0  0
   38.4690   27.3120   35.1800 C   0  0  2  0  0  3  0  0  0  0  0  0
   38.1400   25.3000   36.3080 O   0  0  0  0  0  0  0  0  0  0  0  0
   38.8160   24.6140   36.1750 H   0  0  0  0  0  0  0  0  0  0  0  0
   38.7680   27.7160   36.4600 O   0  0  0  0  0  0  0  0  0  0  0  0
   38.2770   28.5760   36.6390 H   0  0  0  0  0  0  0  0  0  0  0  0
  1  2  1  0  0  0  0
  1 15  1  0  0  0  0
  2 16  1  0  0  0  0
  3  7  1  0  0  0  0
  3  2  2  0  0  0  0
  4  3  1  0  0  0  0
  5  4  2  0  0  0  0
  5  6  1  0  0  0  0
  6  1  2  0  0  0  0
  7 13  1  0  0  0  0
  8  9  2  0  0  0  0
  8  7  1  0  0  0  0
  9 10  1  0  0  0  0
 10 11  2  0  0  0  0
 10 12  1  0  0  0  0
 13 12  1  0  0  0  0
 13 14  2  0  0  0  0
 17  5  1  0  0  0  0
 18  8  1  0  0  0  0
 19  9  1  0  0  0  0
 20 24  1  0  0  0  0
 20 25  1  1  0  0  0
 21 12  1  6  0  0  0
 21 20  1  0  0  0  0
 22 21  1  0  0  0  0
 22 23  1  0  0  0  0
 23 24  1  0  0  0  0
 24 27  1  1  0  0  0
 26 25  1  0  0  0  0
 27 28  1  0  0  0  0
M  END
>  <minimizedAffinity>
-5.56788588

$$$$

 OpenBabel03272505243D

 28 30  0  0  1  0  0  0  0  0999 V2000
   36.6840   28.3820   32.9920 C   0  0  0  0  0  0  0  0  0  0  0  0
   36.7030   26.9690   33.1400 C   0  0  0  0  0  0  0  0  0  0  0  0
   36.6010   26.1760   31.9910 C   0  0  0  0  0  0  0  0  0  0  0  0
   36.4880   26.7960   30.8000 N   0  0  0  0  0  0  0  0  0  0  0  0
   36.4710   28.1430   30.6620 C   0  0  0  0  0  0  0  0  0  0  0  0
   36.5700   28.9320   31.7590 N   0  0  0  0  0  0  0  0  0  0  0  0
   36.6170   24.7680   32.0720 N   0  0  0  0  0  0  0  0  0  0  0  0
   35.9090   24.0000   31.2200 C   0  0  0  0  0  0  0  0  0  0  0  0
   35.9340   22.6090   31.3090 C   0  0  0  0  0  0  0  0  0  0  0  0
   36.7200   22.0230   32.3170 C   0  0  0  0  0  0  0  0  0  0  0  0
   36.7680   20.7820   32.4300 O   0  0  0  0  0  0  0  0  0  0  0  0
   37.4290   22.8180   33.1680 N   0  0  0  0  0  0  0  0  0  0  0  0
   37.3390   24.1450   32.9990 C   0  0  0  0  0  0  0  0  0  0  0  0
   38.0130   24.8370   33.8080 O   0  0  0  0  0  0  0  0  0  0  0  0
   36.7620   29.0410   33.8480 H   0  0  0  0  0  0  0  0  0  0  0  0
   36.7840   26.6580   34.1430 H   0  0  0  0  0  0  0  0  0  0  0  0
   36.3780   28.5480   29.6600 H   0  0  0  0  0  0  0  0  0  0  0  0
   35.3290   24.5230   30.4720 H   0  0  0  0  0  0  0  0  0  0  0  0
   35.3580   22.0220   30.6140 H   0  0  0  0  0  0  0  0  0  0  0  0
   37.7910   22.5630   35.5990 C   0  0  2  0  0  3  0  0  0  0  0  0
   38.2440   22.2340   34.2130 C   0  0  2  0  0  3  0  0  0  0  0  0
   39.5620   22.6830   34.0880 O   0  0  0  0  0  0  0  0  0  0  0  0
   40.0920   22.2750   35.3340 C   0  0  0  0  0  2  0  0  0  0  0  0
   39.1080   23.0050   36.2510 C   0  0  2  0  0  3  0  0  0  0  0  0
   37.3670   21.4580   36.3340 O   0  0  0  0  0  0  0  0  0  0  0  0
   37.5220   20.6080   35.8880 H   0  0  0  0  0  0  0  0  0  0  0  0
   39.2060   22.6200   37.5670 O   0  0  0  0  0  0  0  0  0  0  0  0
   39.2800   23.4520   38.1310 H   0  0  0  0  0  0  0  0  0  0  0  0
  1  2  1  0  0  0  0
  1 15  1  0  0  0  0
  2 16  1  0  0  0  0
  3  7  1  0  0  0  0
  3  2  2  0  0  0  0
  4  3  1  0  0  0  0
  5  4  2  0  0  0  0
  5  6  1  0  0  0  0
  6  1  2  0  0  0  0
  7 13  1  0  0  0  0
  8  9  2  0  0  0  0
  8  7  1  0  0  0  0
  9 10  1  0  0  0  0
 10 11  2  0  0  0  0
 10 12  1  0  0  0  0
 13 12  1  0  0  0  0
 13 14  2  0  0  0  0
 17  5  1  0  0  0  0
 18  8  1  0  0  0  0
 19  9  1  0  0  0  0
 20 24  1  0  0  0  0
 20 25  1  1  0  0  0
 21 12  1  6  0  0  0
 21 20  1  0  0  0  0
 22 21  1  0  0  0  0
 22 23  1  0  0  0  0
 23 24  1  0  0  0  0
 24 27  1  1  0  0  0
 26 25  1  0  0  0  0
 27 28  1  0  0  0  0
M  END
>  <minimizedAffinity>
-5.48763418

$$$$

 OpenBabel03272505243D

 28 30  0  0  1  0  0  0  0  0999 V2000
   36.2020   29.1070   32.4400 C   0  0  0  0  0  0  0  0  0  0  0  0
   36.4890   27.8390   33.0130 C   0  0  0  0  0  0  0  0  0  0  0  0
   36.8720   26.7940   32.1640 C   0  0  0  0  0  0  0  0  0  0  0  0
   36.9480   27.0460   30.8420 N   0  0  0  0  0  0  0  0  0  0  0  0
   36.6740   28.2560   30.2990 C   0  0  0  0  0  0  0  0  0  0  0  0
   36.3020   29.2840   31.1010 N   0  0  0  0  0  0  0  0  0  0  0  0
   37.1730   25.5130   32.6720 N   0  0  0  0  0  0  0  0  0  0  0  0
   36.9030   24.3920   31.9750 C   0  0  0  0  0  0  0  0  0  0  0  0
   37.2060   23.1320   32.4870 C   0  0  0  0  0  0  0  0  0  0  0  0
   37.8040   23.0580   33.7570 C   0  0  0  0  0  0  0  0  0  0  0  0
   38.0910   21.9500   34.2510 O   0  0  0  0  0  0  0  0  0  0  0  0
   38.0690   24.2050   34.4460 N   0  0  0  0  0  0  0  0  0  0  0  0
   37.7400   25.3680   33.8660 C   0  0  0  0  0  0  0  0  0  0  0  0
   38.0070   26.3990   34.5400 O   0  0  0  0  0  0  0  0  0  0  0  0
   35.9020   29.9490   33.0520 H   0  0  0  0  0  0  0  0  0  0  0  0
   36.3650   27.8190   34.0590 H   0  0  0  0  0  0  0  0  0  0  0  0
   36.7650   28.3600   29.2230 H   0  0  0  0  0  0  0  0  0  0  0  0
   36.4440   24.5290   31.0060 H   0  0  0  0  0  0  0  0  0  0  0  0
   36.9800   22.2530   31.9060 H   0  0  0  0  0  0  0  0  0  0  0  0
   39.7680   23.1310   35.8830 C   0  0  2  0  0  3  0  0  0  0  0  0
   38.6840   24.1510   35.7560 C   0  0  2  0  0  3  0  0  0  0  0  0
   37.7160   23.8530   36.7190 O   0  0  0  0  0  0  0  0  0  0  0  0
   38.5400   23.5410   37.8250 C   0  0  0  0  0  2  0  0  0  0  0  0
   39.3680   22.4240   37.1850 C   0  0  2  0  0  3  0  0  0  0  0  0
   41.0290   23.6700   36.1270 O   0  0  0  0  0  0  0  0  0  0  0  0
   41.0210   24.6290   36.2900 H   0  0  0  0  0  0  0  0  0  0  0  0
   40.4520   22.0500   37.9430 O   0  0  0  0  0  0  0  0  0  0  0  0
   40.4390   21.0470   38.0340 H   0  0  0  0  0  0  0  0  0  0  0  0
  1  2  1  0  0  0  0
  1 15  1  0  0  0  0
  2 16  1  0  0  0  0
  3  7  1  0  0  0  0
  3  2  2  0  0  0  0
  4  3  1  0  0  0  0
  5  4  2  0  0  0  0
  5  6  1  0  0  0  0
  6  1  2  0  0  0  0
  7 13  1  0  0  0  0
  8  9  2  0  0  0  0
  8  7  1  0  0  0  0
  9 10  1  0  0  0  0
 10 11  2  0  0  0  0
 10 12  1  0  0  0  0
 13 12  1  0  0  0  0
 13 14  2  0  0  0  0
 17  5  1  0  0  0  0
 18  8  1  0  0  0  0
 19  9  1  0  0  0  0
 20 25  1  1  0  0  0
 20 24  1  0  0  0  0
 21 12  1  6  0  0  0
 21 20  1  0  0  0  0
 21 22  1  0  0  0  0
 22 23  1  0  0  0  0
 24 23  1  0  0  0  0
 24 27  1  1  0  0  0
 25 26  1  0  0  0  0
 27 28  1  0  0  0  0
M  END
>  <minimizedAffinity>
-5.48173761

$$$$

 OpenBabel03272505243D

 28 30  0  0  1  0  0  0  0  0999 V2000
   39.8140   27.5800   30.0690 C   0  0  0  0  0  0  0  0  0  0  0  0
   39.7820   27.0760   31.3980 C   0  0  0  0  0  0  0  0  0  0  0  0
   38.6310   27.2870   32.1650 C   0  0  0  0  0  0  0  0  0  0  0  0
   37.6080   27.9620   31.6020 N   0  0  0  0  0  0  0  0  0  0  0  0
   37.6410   28.4410   30.3360 C   0  0  0  0  0  0  0  0  0  0  0  0
   38.7450   28.2470   29.5730 N   0  0  0  0  0  0  0  0  0  0  0  0
   38.5360   26.8090   33.4880 N   0  0  0  0  0  0  0  0  0  0  0  0
   37.8490   27.4760   34.4370 C   0  0  0  0  0  0  0  0  0  0  0  0
   37.7630   26.9930   35.7410 C   0  0  0  0  0  0  0  0  0  0  0  0
   38.4140   25.7850   36.0460 C   0  0  0  0  0  0  0  0  0  0  0  0
   38.3620   25.3190   37.2010 O   0  0  0  0  0  0  0  0  0  0  0  0
   39.1040   25.1250   35.0720 N   0  0  0  0  0  0  0  0  0  0  0  0
   39.1270   25.6730   33.8480 C   0  0  0  0  0  0  0  0  0  0  0  0
   39.7750   25.0260   32.9820 O   0  0  0  0  0  0  0  0  0  0  0  0
   40.6790   27.4420   29.4340 H   0  0  0  0  0  0  0  0  0  0  0  0
   40.6720   26.5870   31.6770 H   0  0  0  0  0  0  0  0  0  0  0  0
   36.7670   28.9700   29.9720 H   0  0  0  0  0  0  0  0  0  0  0  0
   37.3740   28.3970   34.1270 H   0  0  0  0  0  0  0  0  0  0  0  0
   37.2050   27.5470   36.4780 H   0  0  0  0  0  0  0  0  0  0  0  0
   39.1990   23.1190   36.5090 C   0  0  2  0  0  3  0  0  0  0  0  0
   39.7830   23.8810   35.3640 C   0  0  2  0  0  3  0  0  0  0  0  0
   41.1220   24.1360   35.6730 O   0  0  0  0  0  0  0  0  0  0  0  0
   41.5030   22.8870   36.2180 C   0  0  0  0  0  2  0  0  0  0  0  0
   40.4550   22.7930   37.3290 C   0  0  2  0  0  3  0  0  0  0  0  0
   38.6600   21.8840   36.1530 O   0  0  0  0  0  0  0  0  0  0  0  0
   38.8300   21.6340   35.2290 H   0  0  0  0  0  0  0  0  0  0  0  0
   40.3990   21.5530   37.9190 O   0  0  0  0  0  0  0  0  0  0  0  0
   40.4430   21.6790   38.9170 H   0  0  0  0  0  0  0  0  0  0  0  0
  1  2  1  0  0  0  0
  2 16  1  0  0  0  0
  2  3  2  0  0  0  0
  3  7  1  0  0  0  0
  4  3  1  0  0  0  0
  5  4  2  0  0  0  0
  6  1  2  0  0  0  0
  6  5  1  0  0  0  0
  7 13  1  0  0  0  0
  7  8  1  0  0  0  0
  8  9  2  0  0  0  0
  9 10  1  0  0  0  0
  9 19  1  0  0  0  0
 10 11  2  0  0  0  0
 12 10  1  0  0  0  0
 13 12  1  0  0  0  0
 14 13  2  0  0  0  0
 15  1  1  0  0  0  0
 17  5  1  0  0  0  0
 18  8  1  0  0  0  0
 20 25  1  6  0  0  0
 20 24  1  0  0  0  0
 21 12  1  1  0  0  0
 21 22  1  0  0  0  0
 21 20  1  0  0  0  0
 22 23  1  0  0  0  0
 23 24  1  0  0  0  0
 24 27  1  6  0  0  0
 26 25  1  0  0  0  0
 27 28  1  0  0  0  0
M  END
>  <minimizedAffinity>
-5.42458248

$$$$

 OpenBabel03272505243D

 28 30  0  0  1  0  0  0  0  0999 V2000
   37.8640   23.9570   37.9560 C   0  0  0  0  0  0  0  0  0  0  0  0
   38.1010   24.7770   36.8200 C   0  0  0  0  0  0  0  0  0  0  0  0
   39.2480   24.5400   36.0540 C   0  0  0  0  0  0  0  0  0  0  0  0
   40.0720   23.5430   36.4340 N   0  0  0  0  0  0  0  0  0  0  0  0
   39.8430   22.7630   37.5170 C   0  0  0  0  0  0  0  0  0  0  0  0
   38.7380   22.9720   38.2750 N   0  0  0  0  0  0  0  0  0  0  0  0
   39.5370   25.3170   34.9130 N   0  0  0  0  0  0  0  0  0  0  0  0
   40.8040   25.6050   34.5520 C   0  0  0  0  0  0  0  0  0  0  0  0
   41.0770   26.3740   33.4230 C   0  0  0  0  0  0  0  0  0  0  0  0
   39.9920   26.8450   32.6630 C   0  0  0  0  0  0  0  0  0  0  0  0
   40.1940   27.5370   31.6450 O   0  0  0  0  0  0  0  0  0  0  0  0
   38.7180   26.5420   33.0440 N   0  0  0  0  0  0  0  0  0  0  0  0
   38.5620   25.7960   34.1470 C   0  0  0  0  0  0  0  0  0  0  0  0
   37.3670   25.5410   34.4570 O   0  0  0  0  0  0  0  0  0  0  0  0
   36.9920   24.0970   38.5830 H   0  0  0  0  0  0  0  0  0  0  0  0
   37.3620   25.5140   36.6800 H   0  0  0  0  0  0  0  0  0  0  0  0
   40.5640   21.9840   37.7420 H   0  0  0  0  0  0  0  0  0  0  0  0
   41.5840   25.2070   35.1860 H   0  0  0  0  0  0  0  0  0  0  0  0
   42.1000   26.5870   33.1600 H   0  0  0  0  0  0  0  0  0  0  0  0
   37.6720   26.7230   30.8130 C   0  0  2  0  0  3  0  0  0  0  0  0
   37.5870   27.0180   32.2760 C   0  0  2  0  0  3  0  0  0  0  0  0
   37.4730   28.4040   32.4150 O   0  0  0  0  0  0  0  0  0  0  0  0
   36.5540   28.6920   31.3790 C   0  0  0  0  0  2  0  0  0  0  0  0
   37.3350   28.0920   30.2080 C   0  0  2  0  0  3  0  0  0  0  0  0
   36.6810   25.8600   30.3500 O   0  0  0  0  0  0  0  0  0  0  0  0
   36.0030   25.6500   31.0150 H   0  0  0  0  0  0  0  0  0  0  0  0
   36.5940   27.9970   29.0540 O   0  0  0  0  0  0  0  0  0  0  0  0
   37.1290   28.4040   28.3050 H   0  0  0  0  0  0  0  0  0  0  0  0
  1  6  1  0  0  0  0
  1 15  1  0  0  0  0
  2  1  2  0  0  0  0
  3  4  2  0  0  0  0
  3  2  1  0  0  0  0
  4  5  1  0  0  0  0
  5 17  1  0  0  0  0
  5  6  2  0  0  0  0
  7  3  1  0  0  0  0
  8  7  1  0  0  0  0
  8 18  1  0  0  0  0
  9  8  2  0  0  0  0
 10 12  1  0  0  0  0
 10  9  1  0  0  0  0
 11 10  2  0  0  0  0
 12 13  1  0  0  0  0
 13 14  2  0  0  0  0
 13  7  1  0  0  0  0
 16  2  1  0  0  0  0
 19  9  1  0  0  0  0
 20 25  1  6  0  0  0
 20 21  1  0  0  0  0
 21 22  1  0  0  0  0
 21 12  1  1  0  0  0
 23 22  1  0  0  0  0
 24 27  1  6  0  0  0
 24 20  1  0  0  0  0
 24 23  1  0  0  0  0
 25 26  1  0  0  0  0
 28 27  1  0  0  0  0
M  END
>  <minimizedAffinity>
-5.41424322

$$$$

 OpenBabel03272505243D

 28 30  0  0  1  0  0  0  0  0999 V2000
   35.9950   25.8520   31.3640 C   0  0  0  0  0  0  0  0  0  0  0  0
   37.1960   25.4720   32.0210 C   0  0  0  0  0  0  0  0  0  0  0  0
   37.8520   26.4200   32.8130 C   0  0  0  0  0  0  0  0  0  0  0  0
   37.3090   27.6500   32.9130 N   0  0  0  0  0  0  0  0  0  0  0  0
   36.1640   28.0100   32.2860 C   0  0  0  0  0  0  0  0  0  0  0  0
   35.5090   27.1080   31.5130 N   0  0  0  0  0  0  0  0  0  0  0  0
   39.0470   26.1030   33.4940 N   0  0  0  0  0  0  0  0  0  0  0  0
   40.0160   27.0190   33.6900 C   0  0  0  0  0  0  0  0  0  0  0  0
   41.1920   26.6940   34.3640 C   0  0  0  0  0  0  0  0  0  0  0  0
   41.3430   25.3790   34.8380 C   0  0  0  0  0  0  0  0  0  0  0  0
   42.3800   25.0470   35.4450 O   0  0  0  0  0  0  0  0  0  0  0  0
   40.3500   24.4670   34.6290 N   0  0  0  0  0  0  0  0  0  0  0  0
   39.2570   24.8800   33.9690 C   0  0  0  0  0  0  0  0  0  0  0  0
   38.3670   24.0030   33.8030 O   0  0  0  0  0  0  0  0  0  0  0  0
   35.4470   25.1570   30.7400 H   0  0  0  0  0  0  0  0  0  0  0  0
   37.4810   24.4780   31.8210 H   0  0  0  0  0  0  0  0  0  0  0  0
   35.8050   29.0230   32.4290 H   0  0  0  0  0  0  0  0  0  0  0  0
   39.8270   28.0090   33.2980 H   0  0  0  0  0  0  0  0  0  0  0  0
   41.9480   27.4470   34.5070 H   0  0  0  0  0  0  0  0  0  0  0  0
   40.1890   22.9380   36.5620 C   0  0  2  0  0  3  0  0  0  0  0  0
   40.4860   23.1080   35.1070 C   0  0  2  0  0  3  0  0  0  0  0  0
   41.7930   22.6620   34.8940 O   0  0  0  0  0  0  0  0  0  0  0  0
   41.7980   21.4910   35.6880 C   0  0  0  0  0  2  0  0  0  0  0  0
   41.4020   22.1210   37.0250 C   0  0  2  0  0  3  0  0  0  0  0  0
   39.0800   22.1350   36.8250 O   0  0  0  0  0  0  0  0  0  0  0  0
   38.7120   21.7050   36.0340 H   0  0  0  0  0  0  0  0  0  0  0  0
   41.0830   21.1930   37.9890 O   0  0  0  0  0  0  0  0  0  0  0  0
   41.6010   21.4170   38.8220 H   0  0  0  0  0  0  0  0  0  0  0  0
  1  6  2  0  0  0  0
  1  2  1  0  0  0  0
  2  3  2  0  0  0  0
  3  4  1  0  0  0  0
  3  7  1  0  0  0  0
  5 17  1  0  0  0  0
  5  4  2  0  0  0  0
  6  5  1  0  0  0  0
  7  8  1  0  0  0  0
  7 13  1  0  0  0  0
  8  9  2  0  0  0  0
  9 19  1  0  0  0  0
  9 10  1  0  0  0  0
 10 11  2  0  0  0  0
 12 10  1  0  0  0  0
 13 12  1  0  0  0  0
 14 13  2  0  0  0  0
 15  1  1  0  0  0  0
 16  2  1  0  0  0  0
 18  8  1  0  0  0  0
 20 25  1  6  0  0  0
 20 24  1  0  0  0  0
 21 12  1  1  0  0  0
 21 20  1  0  0  0  0
 22 21  1  0  0  0  0
 22 23  1  0  0  0  0
 23 24  1  0  0  0  0
 24 27  1  1  0  0  0
 26 25  1  0  0  0  0
 27 28  1  0  0  0  0
M  END
>  <minimizedAffinity>
-5.38234043

$$$$

 OpenBabel03272505243D

 28 30  0  0  1  0  0  0  0  0999 V2000
   34.8120   20.5410   31.9410 C   0  0  0  0  0  0  0  0  0  0  0  0
   35.2990   21.8400   32.2490 C   0  0  0  0  0  0  0  0  0  0  0  0
   36.6820   22.0320   32.3350 C   0  0  0  0  0  0  0  0  0  0  0  0
   37.4850   20.9700   32.1200 N   0  0  0  0  0  0  0  0  0  0  0  0
   37.0180   19.7330   31.8260 C   0  0  0  0  0  0  0  0  0  0  0  0
   35.6820   19.5230   31.7360 N   0  0  0  0  0  0  0  0  0  0  0  0
   37.2280   23.2980   32.6340 N   0  0  0  0  0  0  0  0  0  0  0  0
   38.3650   23.4310   33.3450 C   0  0  0  0  0  0  0  0  0  0  0  0
   38.8940   24.6870   33.6340 C   0  0  0  0  0  0  0  0  0  0  0  0
   38.2080   25.8200   33.1630 C   0  0  0  0  0  0  0  0  0  0  0  0
   38.6490   26.9620   33.4010 O   0  0  0  0  0  0  0  0  0  0  0  0
   37.0590   25.6640   32.4450 N   0  0  0  0  0  0  0  0  0  0  0  0
   36.6330   24.4120   32.2200 C   0  0  0  0  0  0  0  0  0  0  0  0
   35.5690   24.3200   31.5510 O   0  0  0  0  0  0  0  0  0  0  0  0
   33.7510   20.3390   31.8620 H   0  0  0  0  0  0  0  0  0  0  0  0
   34.5310   22.5460   32.3990 H   0  0  0  0  0  0  0  0  0  0  0  0
   37.7440   18.9420   31.6690 H   0  0  0  0  0  0  0  0  0  0  0  0
   38.8360   22.5140   33.6720 H   0  0  0  0  0  0  0  0  0  0  0  0
   39.8060   24.7620   34.2040 H   0  0  0  0  0  0  0  0  0  0  0  0
   37.0340   27.5530   30.8540 C   0  0  2  0  0  3  0  0  0  0  0  0
   36.3370   26.8170   31.9510 C   0  0  2  0  0  3  0  0  0  0  0  0
   36.1280   27.7240   32.9940 O   0  0  0  0  0  0  0  0  0  0  0  0
   35.7170   28.8640   32.2650 C   0  0  0  0  0  2  0  0  0  0  0  0
   36.9360   29.0020   31.3500 C   0  0  2  0  0  3  0  0  0  0  0  0
   36.3570   27.5320   29.6360 O   0  0  0  0  0  0  0  0  0  0  0  0
   35.4710   27.1350   29.6880 H   0  0  0  0  0  0  0  0  0  0  0  0
   36.7480   29.9030   30.3290 O   0  0  0  0  0  0  0  0  0  0  0  0
   37.5330   30.5340   30.3210 H   0  0  0  0  0  0  0  0  0  0  0  0
  1  2  1  0  0  0  0
  2  3  2  0  0  0  0
  2 16  1  0  0  0  0
  3  7  1  0  0  0  0
  4  3  1  0  0  0  0
  5  4  2  0  0  0  0
  6  5  1  0  0  0  0
  6  1  2  0  0  0  0
  7  8  1  0  0  0  0
  8  9  2  0  0  0  0
  8 18  1  0  0  0  0
  9 19  1  0  0  0  0
 10 11  2  0  0  0  0
 10  9  1  0  0  0  0
 12 10  1  0  0  0  0
 13 12  1  0  0  0  0
 13  7  1  0  0  0  0
 14 13  2  0  0  0  0
 15  1  1  0  0  0  0
 17  5  1  0  0  0  0
 20 25  1  6  0  0  0
 20 24  1  0  0  0  0
 20 21  1  0  0  0  0
 21 12  1  1  0  0  0
 21 22  1  0  0  0  0
 23 22  1  0  0  0  0
 24 27  1  6  0  0  0
 24 23  1  0  0  0  0
 25 26  1  0  0  0  0
 28 27  1  0  0  0  0
M  END
>  <minimizedAffinity>
-5.24377155

$$$$

 OpenBabel03272505243D

 28 30  0  0  1  0  0  0  0  0999 V2000
   36.1060   29.6490   30.8230 C   0  0  0  0  0  0  0  0  0  0  0  0
   35.4900   29.7570   32.1000 C   0  0  0  0  0  0  0  0  0  0  0  0
   35.5960   30.9680   32.7920 C   0  0  0  0  0  0  0  0  0  0  0  0
   36.2800   31.9740   32.2100 N   0  0  0  0  0  0  0  0  0  0  0  0
   36.8650   31.8690   30.9940 C   0  0  0  0  0  0  0  0  0  0  0  0
   36.7760   30.7060   30.3030 N   0  0  0  0  0  0  0  0  0  0  0  0
   35.0040   31.1390   34.0610 N   0  0  0  0  0  0  0  0  0  0  0  0
   35.5630   31.9200   35.0060 C   0  0  0  0  0  0  0  0  0  0  0  0
   34.9690   32.0810   36.2560 C   0  0  0  0  0  0  0  0  0  0  0  0
   33.7630   31.4040   36.5090 C   0  0  0  0  0  0  0  0  0  0  0  0
   33.1990   31.5210   37.6150 O   0  0  0  0  0  0  0  0  0  0  0  0
   33.2130   30.6180   35.5390 N   0  0  0  0  0  0  0  0  0  0  0  0
   33.8630   30.5300   34.3690 C   0  0  0  0  0  0  0  0  0  0  0  0
   33.3150   29.7940   33.5050 O   0  0  0  0  0  0  0  0  0  0  0  0
   36.0540   28.7350   30.2460 H   0  0  0  0  0  0  0  0  0  0  0  0
   35.0110   28.8700   32.4040 H   0  0  0  0  0  0  0  0  0  0  0  0
   37.3920   32.7350   30.6090 H   0  0  0  0  0  0  0  0  0  0  0  0
   36.4900   32.4090   34.7370 H   0  0  0  0  0  0  0  0  0  0  0  0
   35.4390   32.7130   36.9910 H   0  0  0  0  0  0  0  0  0  0  0  0
   32.1120   28.4240   35.8170 C   0  0  2  0  0  3  0  0  0  0  0  0
   31.9720   29.9120   35.7790 C   0  0  2  0  0  3  0  0  0  0  0  0
   31.0530   30.2180   34.7710 O   0  0  0  0  0  0  0  0  0  0  0  0
   30.0760   29.2230   35.0040 C   0  0  0  0  0  2  0  0  0  0  0  0
   30.9730   27.9890   34.8860 C   0  0  2  0  0  3  0  0  0  0  0  0
   31.8150   27.8580   37.0550 O   0  0  0  0  0  0  0  0  0  0  0  0
   31.4520   28.4910   37.6980 H   0  0  0  0  0  0  0  0  0  0  0  0
   30.3600   26.8300   35.3000 O   0  0  0  0  0  0  0  0  0  0  0  0
   30.4830   26.1370   34.5800 H   0  0  0  0  0  0  0  0  0  0  0  0
  1  2  1  0  0  0  0
  2 16  1  0  0  0  0
  2  3  2  0  0  0  0
  3  7  1  0  0  0  0
  4  3  1  0  0  0  0
  5  4  2  0  0  0  0
  6  1  2  0  0  0  0
  6  5  1  0  0  0  0
  7 13  1  0  0  0  0
  7  8  1  0  0  0  0
  8  9  2  0  0  0  0
  9 10  1  0  0  0  0
  9 19  1  0  0  0  0
 10 11  2  0  0  0  0
 12 10  1  0  0  0  0
 13 12  1  0  0  0  0
 14 13  2  0  0  0  0
 15  1  1  0  0  0  0
 17  5  1  0  0  0  0
 18  8  1  0  0  0  0
 20 25  1  1  0  0  0
 21 12  1  6  0  0  0
 21 20  1  0  0  0  0
 22 23  1  0  0  0  0
 22 21  1  0  0  0  0
 24 23  1  0  0  0  0
 24 27  1  1  0  0  0
 24 20  1  0  0  0  0
 25 26  1  0  0  0  0
 28 27  1  0  0  0  0
M  END
>  <minimizedAffinity>
-5.14618969

$$$$

 OpenBabel03272505243D

 28 30  0  0  1  0  0  0  0  0999 V2000
   36.0440   26.7680   31.1850 C   0  0  0  0  0  0  0  0  0  0  0  0
   36.9740   26.1040   32.0310 C   0  0  0  0  0  0  0  0  0  0  0  0
   38.2690   26.6250   32.1380 C   0  0  0  0  0  0  0  0  0  0  0  0
   38.5680   27.7330   31.4310 N   0  0  0  0  0  0  0  0  0  0  0  0
   37.6790   28.3640   30.6260 C   0  0  0  0  0  0  0  0  0  0  0  0
   36.4190   27.8790   30.5070 N   0  0  0  0  0  0  0  0  0  0  0  0
   39.2360   26.0150   32.9630 N   0  0  0  0  0  0  0  0  0  0  0  0
   40.5450   26.0150   32.6430 C   0  0  0  0  0  0  0  0  0  0  0  0
   41.4910   25.4080   33.4660 C   0  0  0  0  0  0  0  0  0  0  0  0
   41.0440   24.7920   34.6480 C   0  0  0  0  0  0  0  0  0  0  0  0
   41.8600   24.2380   35.4120 O   0  0  0  0  0  0  0  0  0  0  0  0
   39.7160   24.8030   34.9550 N   0  0  0  0  0  0  0  0  0  0  0  0
   38.8860   25.4140   34.0970 C   0  0  0  0  0  0  0  0  0  0  0  0
   37.6690   25.4000   34.4250 O   0  0  0  0  0  0  0  0  0  0  0  0
   35.0300   26.4070   31.0680 H   0  0  0  0  0  0  0  0  0  0  0  0
   36.5740   25.2480   32.4960 H   0  0  0  0  0  0  0  0  0  0  0  0
   38.0150   29.2500   30.0990 H   0  0  0  0  0  0  0  0  0  0  0  0
   40.8120   26.5090   31.7180 H   0  0  0  0  0  0  0  0  0  0  0  0
   42.5310   25.4250   33.1840 H   0  0  0  0  0  0  0  0  0  0  0  0
   38.4660   22.9130   35.9380 C   0  0  2  0  0  3  0  0  0  0  0  0
   39.2340   24.1740   36.1670 C   0  0  2  0  0  3  0  0  0  0  0  0
   38.3940   25.0550   36.8530 O   0  0  0  0  0  0  0  0  0  0  0  0
   37.8050   24.1720   37.7880 C   0  0  0  0  0  2  0  0  0  0  0  0
   37.2230   23.1540   36.8050 C   0  0  2  0  0  3  0  0  0  0  0  0
   39.0710   21.7750   36.4680 O   0  0  0  0  0  0  0  0  0  0  0  0
   39.8570   21.9650   37.0080 H   0  0  0  0  0  0  0  0  0  0  0  0
   36.7690   22.0090   37.4160 O   0  0  0  0  0  0  0  0  0  0  0  0
   35.8350   21.8290   37.0860 H   0  0  0  0  0  0  0  0  0  0  0  0
  1  2  1  0  0  0  0
  2  3  2  0  0  0  0
  2 16  1  0  0  0  0
  3  7  1  0  0  0  0
  4  3  1  0  0  0  0
  5  4  2  0  0  0  0
  6  5  1  0  0  0  0
  6  1  2  0  0  0  0
  7 13  1  0  0  0  0
  8  7  1  0  0  0  0
  8  9  2  0  0  0  0
  9 10  1  0  0  0  0
 10 12  1  0  0  0  0
 10 11  2  0  0  0  0
 13 14  2  0  0  0  0
 13 12  1  0  0  0  0
 15  1  1  0  0  0  0
 17  5  1  0  0  0  0
 18  8  1  0  0  0  0
 19  9  1  0  0  0  0
 20 21  1  0  0  0  0
 20 25  1  1  0  0  0
 20 24  1  0  0  0  0
 21 12  1  6  0  0  0
 21 22  1  0  0  0  0
 22 23  1  0  0  0  0
 24 27  1  1  0  0  0
 24 23  1  0  0  0  0
 25 26  1  0  0  0  0
 28 27  1  0  0  0  0
M  END
>  <minimizedAffinity>
-5.12331772

$$$$
