
 OpenBabel03272505243D

 28 30  0  0  1  0  0  0  0  0999 V2000
   36.4110   29.1280   50.7430 C   0  0  0  0  0  0  0  0  0  0  0  0
   36.5880   29.3570   49.3520 C   0  0  0  0  0  0  0  0  0  0  0  0
   35.4870   29.7800   48.5990 C   0  0  0  0  0  0  0  0  0  0  0  0
   34.3100   29.9480   49.2350 N   0  0  0  0  0  0  0  0  0  0  0  0
   34.1440   29.7300   50.5610 C   0  0  0  0  0  0  0  0  0  0  0  0
   35.1960   29.3210   51.3120 N   0  0  0  0  0  0  0  0  0  0  0  0
   35.5990   30.0270   47.2150 N   0  0  0  0  0  0  0  0  0  0  0  0
   34.5810   29.7870   46.3660 C   0  0  0  0  0  0  0  0  0  0  0  0
   34.7030   30.0360   45.0010 C   0  0  0  0  0  0  0  0  0  0  0  0
   35.9250   30.5460   44.5270 C   0  0  0  0  0  0  0  0  0  0  0  0
   36.0750   30.7820   43.3110 O   0  0  0  0  0  0  0  0  0  0  0  0
   36.9430   30.7820   45.4020 N   0  0  0  0  0  0  0  0  0  0  0  0
   36.7240   30.5100   46.6970 C   0  0  0  0  0  0  0  0  0  0  0  0
   37.6940   30.7470   47.4670 O   0  0  0  0  0  0  0  0  0  0  0  0
   37.2310   28.8010   51.3710 H   0  0  0  0  0  0  0  0  0  0  0  0
   37.5690   29.1630   49.0220 H   0  0  0  0  0  0  0  0  0  0  0  0
   33.1580   29.8940   50.9820 H   0  0  0  0  0  0  0  0  0  0  0  0
   33.6730   29.3960   46.8050 H   0  0  0  0  0  0  0  0  0  0  0  0
   33.8710   29.8350   44.3470 H   0  0  0  0  0  0  0  0  0  0  0  0
   39.3710   30.3940   45.1580 C   0  0  2  0  0  0  0  0  0  0  0  0
   38.2090   31.3070   44.9350 C   0  0  2  0  0  0  0  0  0  0  0  0
   38.4920   32.5090   45.5910 O   0  0  0  0  0  0  0  0  0  0  0  0
   39.8530   32.6750   45.2470 C   0  0  0  0  0  0  0  0  0  0  0  0
   40.3910   31.3490   45.7910 C   0  0  2  0  0  0  0  0  0  0  0  0
   39.9680   29.9390   43.9850 O   0  0  0  0  0  0  0  0  0  0  0  0
   39.6210   30.3590   43.1800 H   0  0  0  0  0  0  0  0  0  0  0  0
   41.6820   31.0860   45.4000 O   0  0  0  0  0  0  0  0  0  0  0  0
   42.2140   30.8450   46.2200 H   0  0  0  0  0  0  0  0  0  0  0  0
  1  6  1  0  0  0  0
  1 15  1  0  0  0  0
  2  1  2  0  0  0  0
  3  4  2  0  0  0  0
  3  2  1  0  0  0  0
  4  5  1  0  0  0  0
  5 17  1  0  0  0  0
  5  6  2  0  0  0  0
  7  3  1  0  0  0  0
  8 18  1  0  0  0  0
  8  7  1  0  0  0  0
  9  8  2  0  0  0  0
 10  9  1  0  0  0  0
 10 12  1  0  0  0  0
 11 10  2  0  0  0  0
 12 13  1  0  0  0  0
 13  7  1  0  0  0  0
 13 14  2  0  0  0  0
 16  2  1  0  0  0  0
 19  9  1  0  0  0  0
 20 25  1  6  0  0  0
 20 24  1  0  0  0  0
 21 20  1  0  0  0  0
 21 12  1  1  0  0  0
 21 22  1  0  0  0  0
 23 22  1  0  0  0  0
 23 24  1  0  0  0  0
 24 27  1  6  0  0  0
 26 25  1  0  0  0  0
 27 28  1  0  0  0  0
M  END
>  <minimizedAffinity>
-5.87449837

>  <minimizedRMSD>
4.2347827

$$$$
