
 OpenBabel03272505243D

 28 30  0  0  1  0  0  0  0  0999 V2000
   36.5470   29.2160   50.6800 C   0  0  0  0  0  0  0  0  0  0  0  0
   36.6950   29.4250   49.2820 C   0  0  0  0  0  0  0  0  0  0  0  0
   35.5620   29.7660   48.5340 C   0  0  0  0  0  0  0  0  0  0  0  0
   34.3850   29.8790   49.1810 N   0  0  0  0  0  0  0  0  0  0  0  0
   34.2470   29.6800   50.5140 C   0  0  0  0  0  0  0  0  0  0  0  0
   35.3300   29.3490   51.2590 N   0  0  0  0  0  0  0  0  0  0  0  0
   35.6440   29.9900   47.1440 N   0  0  0  0  0  0  0  0  0  0  0  0
   34.6310   29.6730   46.3130 C   0  0  0  0  0  0  0  0  0  0  0  0
   34.7240   29.8990   44.9410 C   0  0  0  0  0  0  0  0  0  0  0  0
   35.9080   30.4700   44.4420 C   0  0  0  0  0  0  0  0  0  0  0  0
   36.0300   30.6880   43.2200 O   0  0  0  0  0  0  0  0  0  0  0  0
   36.9200   30.7840   45.2990 N   0  0  0  0  0  0  0  0  0  0  0  0
   36.7330   30.5270   46.6020 C   0  0  0  0  0  0  0  0  0  0  0  0
   37.6950   30.8370   47.3540 O   0  0  0  0  0  0  0  0  0  0  0  0
   37.3920   28.9510   51.3040 H   0  0  0  0  0  0  0  0  0  0  0  0
   37.6820   29.2820   48.9430 H   0  0  0  0  0  0  0  0  0  0  0  0
   33.2580   29.7950   50.9430 H   0  0  0  0  0  0  0  0  0  0  0  0
   33.7530   29.2390   46.7720 H   0  0  0  0  0  0  0  0  0  0  0  0
   33.8970   29.6360   44.3020 H   0  0  0  0  0  0  0  0  0  0  0  0
   39.3810   30.6130   45.1760 C   0  0  2  0  0  3  0  0  0  0  0  0
   38.1480   31.3710   44.8050 C   0  0  2  0  0  3  0  0  0  0  0  0
   38.2890   32.6670   45.3140 O   0  0  0  0  0  0  0  0  0  0  0  0
   39.6400   32.9240   44.9900 C   0  0  0  0  0  2  0  0  0  0  0  0
   40.2790   31.7350   45.7110 C   0  0  2  0  0  3  0  0  0  0  0  0
   40.0670   30.0800   44.0860 O   0  0  0  0  0  0  0  0  0  0  0  0
   39.7140   30.3620   43.2250 H   0  0  0  0  0  0  0  0  0  0  0  0
   41.6050   31.5550   45.3940 O   0  0  0  0  0  0  0  0  0  0  0  0
   42.1230   31.4710   46.2530 H   0  0  0  0  0  0  0  0  0  0  0  0
  1  6  1  0  0  0  0
  1 15  1  0  0  0  0
  2  1  2  0  0  0  0
  3  4  2  0  0  0  0
  3  2  1  0  0  0  0
  4  5  1  0  0  0  0
  5 17  1  0  0  0  0
  5  6  2  0  0  0  0
  7  3  1  0  0  0  0
  8 18  1  0  0  0  0
  8  7  1  0  0  0  0
  9  8  2  0  0  0  0
 10  9  1  0  0  0  0
 10 12  1  0  0  0  0
 11 10  2  0  0  0  0
 12 13  1  0  0  0  0
 13  7  1  0  0  0  0
 13 14  2  0  0  0  0
 16  2  1  0  0  0  0
 19  9  1  0  0  0  0
 20 25  1  6  0  0  0
 20 24  1  0  0  0  0
 21 20  1  0  0  0  0
 21 12  1  1  0  0  0
 21 22  1  0  0  0  0
 23 22  1  0  0  0  0
 23 24  1  0  0  0  0
 24 27  1  6  0  0  0
 26 25  1  0  0  0  0
 27 28  1  0  0  0  0
M  END
>  <minimizedAffinity>
-5.75468349

>  <minimizedRMSD>
4.40946007

$$$$
