
 OpenBabel03272510113D

 35 38  0  0  1  0  0  0  0  0999 V2000
   29.9310   27.7600   46.9210 C   0  0  0  0  0  0  0  0  0  0  0  0
   30.1480   27.7790   48.2530 C   0  0  0  0  0  0  0  0  0  0  0  0
   31.3750   27.6250   48.8530 C   0  0  0  0  0  0  0  0  0  0  0  0
   32.4850   27.4370   48.0790 C   0  0  0  0  0  0  0  0  0  0  0  0
   32.2740   27.4150   46.6940 C   0  0  0  0  0  0  0  0  0  0  0  0
   31.0430   27.5710   46.1630 N   0  0  0  0  0  0  0  0  0  0  0  0
   29.3280   27.9230   48.9460 H   0  0  0  0  0  0  0  0  0  0  0  0
   31.5480   27.6410   49.9180 H   0  0  0  0  0  0  0  0  0  0  0  0
   33.0850   27.2720   45.9870 H   0  0  0  0  0  0  0  0  0  0  0  0
   27.4760   28.3090   46.9910 C   0  0  0  0  0  0  0  0  0  0  0  0
   28.6380   27.9220   46.3060 C   0  0  0  0  0  0  0  0  0  0  0  0
   28.5040   27.6870   44.9480 C   0  0  0  0  0  0  0  0  0  0  0  0
   27.2760   27.8390   44.3530 N   0  0  0  0  0  0  0  0  0  0  0  0
   26.2030   28.2140   45.0760 C   0  0  0  0  0  0  0  0  0  0  0  0
   26.2940   28.4500   46.3920 N   0  0  0  0  0  0  0  0  0  0  0  0
   27.5580   28.4970   48.0490 H   0  0  0  0  0  0  0  0  0  0  0  0
   29.3740   27.3830   44.3640 H   0  0  0  0  0  0  0  0  0  0  0  0
   25.3270   28.2800   44.4330 H   0  0  0  0  0  0  0  0  0  0  0  0
   33.8030   27.2640   48.5090 O   0  0  0  0  0  0  0  0  0  0  0  0
   34.6100   28.3450   48.8330 C   0  0  0  0  0  0  0  0  0  0  0  0
   35.3590   28.1670   49.9920 C   0  0  0  0  0  0  0  0  0  0  0  0
   36.1190   29.3200   50.2020 C   0  0  0  0  0  0  0  0  0  0  0  0
   35.8020   30.1300   49.1790 N   0  0  0  0  0  0  0  0  0  0  0  0
   34.9270   29.5730   48.3810 N   0  0  0  0  0  0  0  0  0  0  0  0
   35.4750   27.3630   50.7330 H   0  0  0  0  0  0  0  0  0  0  0  0
   36.8320   29.6490   50.9440 H   0  0  0  0  0  0  0  0  0  0  0  0
   37.2050   31.5220   47.7000 C   0  0  1  0  0  3  0  0  0  0  0  0
   36.2960   31.4810   48.8810 C   0  0  2  0  0  3  0  0  0  0  0  0
   36.9740   32.0200   49.9380 O   0  0  0  0  0  0  0  0  0  0  0  0
   38.3240   31.9540   49.7250 C   0  0  0  0  0  2  0  0  0  0  0  0
   38.5660   31.5110   48.3160 C   0  0  2  0  0  3  0  0  0  0  0  0
   37.0060   30.4580   46.8210 O   0  0  0  0  0  0  0  0  0  0  0  0
   36.5790   30.7920   46.0020 H   0  0  0  0  0  0  0  0  0  0  0  0
   39.4060   32.4080   47.6300 O   0  0  0  0  0  0  0  0  0  0  0  0
   40.3190   32.0750   47.5840 H   0  0  0  0  0  0  0  0  0  0  0  0
  1  2  1  0  0  0  0
  2  3  2  0  0  0  0
  2  7  1  0  0  0  0
  3  8  1  0  0  0  0
  4 19  1  0  0  0  0
  4  3  1  0  0  0  0
  5  4  2  0  0  0  0
  6  5  1  0  0  0  0
  6  1  2  0  0  0  0
  9  5  1  0  0  0  0
 10 16  1  0  0  0  0
 11  1  1  0  0  0  0
 11 10  2  0  0  0  0
 12 11  1  0  0  0  0
 13 12  2  0  0  0  0
 13 14  1  0  0  0  0
 14 15  2  0  0  0  0
 15 10  1  0  0  0  0
 17 12  1  0  0  0  0
 18 14  1  0  0  0  0
 19 20  1  0  0  0  0
 20 21  1  0  0  0  0
 21 22  2  0  0  0  0
 21 25  1  0  0  0  0
 22 26  1  0  0  0  0
 23 22  1  0  0  0  0
 24 20  2  0  0  0  0
 24 23  1  0  0  0  0
 27 32  1  6  0  0  0
 27 31  1  0  0  0  0
 27 28  1  0  0  0  0
 28 23  1  1  0  0  0
 28 29  1  0  0  0  0
 30 29  1  0  0  0  0
 31 34  1  6  0  0  0
 31 30  1  0  0  0  0
 33 32  1  0  0  0  0
 35 34  1  0  0  0  0
M  END
>  <minimizedAffinity>
-4.9095335

>  <minimizedRMSD>
4.58857298

$$$$
