
 OpenBabel03272505243D

 28 30  0  0  1  0  0  0  0  0999 V2000
   36.4430   29.1660   50.9530 C   0  0  0  0  0  0  0  0  0  0  0  0
   36.7650   29.4110   49.5900 C   0  0  0  0  0  0  0  0  0  0  0  0
   35.7440   29.8190   48.7260 C   0  0  0  0  0  0  0  0  0  0  0  0
   34.5020   29.9600   49.2310 N   0  0  0  0  0  0  0  0  0  0  0  0
   34.1980   29.7260   50.5300 C   0  0  0  0  0  0  0  0  0  0  0  0
   35.1710   29.3300   51.3880 N   0  0  0  0  0  0  0  0  0  0  0  0
   36.0000   30.0820   47.3640 N   0  0  0  0  0  0  0  0  0  0  0  0
   35.0850   29.8310   46.4070 C   0  0  0  0  0  0  0  0  0  0  0  0
   35.3500   30.0940   45.0650 C   0  0  0  0  0  0  0  0  0  0  0  0
   36.6050   30.6320   44.7300 C   0  0  0  0  0  0  0  0  0  0  0  0
   36.8810   30.8820   43.5400 O   0  0  0  0  0  0  0  0  0  0  0  0
   37.5170   30.8790   45.7130 N   0  0  0  0  0  0  0  0  0  0  0  0
   37.1650   30.5910   46.9740 C   0  0  0  0  0  0  0  0  0  0  0  0
   38.0410   30.8390   47.8460 O   0  0  0  0  0  0  0  0  0  0  0  0
   37.1960   28.8490   51.6630 H   0  0  0  0  0  0  0  0  0  0  0  0
   37.7800   29.2380   49.3670 H   0  0  0  0  0  0  0  0  0  0  0  0
   33.1690   29.8670   50.8430 H   0  0  0  0  0  0  0  0  0  0  0  0
   34.1430   29.4180   46.7430 H   0  0  0  0  0  0  0  0  0  0  0  0
   34.5970   29.8840   44.3230 H   0  0  0  0  0  0  0  0  0  0  0  0
   38.8220   32.9160   45.2130 C   0  0  2  0  0  3  0  0  0  0  0  0
   38.8160   31.4320   45.3890 C   0  0  2  0  0  3  0  0  0  0  0  0
   39.2840   30.8710   44.1970 O   0  0  0  0  0  0  0  0  0  0  0  0
   40.3580   31.7430   43.9070 C   0  0  0  0  0  2  0  0  0  0  0  0
   39.5840   33.0620   43.8900 C   0  0  2  0  0  3  0  0  0  0  0  0
   39.5890   33.5960   46.1580 O   0  0  0  0  0  0  0  0  0  0  0  0
   40.1050   33.0100   46.7380 H   0  0  0  0  0  0  0  0  0  0  0  0
   40.3980   34.1700   43.8620 O   0  0  0  0  0  0  0  0  0  0  0  0
   40.0820   34.7720   43.1190 H   0  0  0  0  0  0  0  0  0  0  0  0
  1  6  1  0  0  0  0
  1 15  1  0  0  0  0
  2  1  2  0  0  0  0
  3  4  2  0  0  0  0
  3  2  1  0  0  0  0
  4  5  1  0  0  0  0
  5 17  1  0  0  0  0
  5  6  2  0  0  0  0
  7  3  1  0  0  0  0
  8 18  1  0  0  0  0
  8  7  1  0  0  0  0
  9  8  2  0  0  0  0
 10  9  1  0  0  0  0
 10 12  1  0  0  0  0
 11 10  2  0  0  0  0
 12 13  1  0  0  0  0
 13  7  1  0  0  0  0
 13 14  2  0  0  0  0
 16  2  1  0  0  0  0
 19  9  1  0  0  0  0
 20 21  1  0  0  0  0
 20 25  1  1  0  0  0
 21 12  1  6  0  0  0
 22 21  1  0  0  0  0
 23 22  1  0  0  0  0
 24 27  1  1  0  0  0
 24 23  1  0  0  0  0
 24 20  1  0  0  0  0
 25 26  1  0  0  0  0
 28 27  1  0  0  0  0
M  END
>  <minimizedAffinity>
-5.44679928

>  <minimizedRMSD>
3.76903844

$$$$
