
 OpenBabel03272503293D

 34 36  0  0  1  0  0  0  0  0999 V2000
   34.5530   29.4980   47.1690 C   0  0  0  0  0  0  0  0  0  0  0  0
   35.3640   29.9430   46.1040 C   0  0  0  0  0  0  0  0  0  0  0  0
   34.7030   30.3580   44.9440 C   0  0  0  0  0  0  0  0  0  0  0  0
   33.3330   30.3010   44.9300 N   0  0  0  0  0  0  0  0  0  0  0  0
   32.6100   29.8730   45.9640 C   0  0  0  0  0  0  0  0  0  0  0  0
   33.2170   29.4690   47.0870 N   0  0  0  0  0  0  0  0  0  0  0  0
   36.4470   29.9740   46.1520 H   0  0  0  0  0  0  0  0  0  0  0  0
   35.2660   30.7160   44.0740 H   0  0  0  0  0  0  0  0  0  0  0  0
   35.2310   29.0760   48.3640 N   0  0  0  0  0  0  0  0  0  0  0  0
   36.6000   29.3410   48.7220 C   0  0  0  0  0  0  0  0  0  0  0  0
   36.5550   29.3410   50.2430 C   0  0  2  0  0  0  0  0  0  0  0  0
   35.1040   29.1840   50.6120 C   0  0  0  0  0  0  0  0  0  0  0  0
   34.6740   28.3070   49.4360 C   0  0  0  0  0  0  0  0  0  0  0  0
   36.8510   30.3810   48.4250 H   0  0  0  0  0  0  0  0  0  0  0  0
   37.2360   28.5650   48.2900 H   0  0  0  0  0  0  0  0  0  0  0  0
   37.0800   28.4240   50.6180 H   0  0  0  0  0  0  0  0  0  0  0  0
   34.5710   30.1450   50.4930 H   0  0  0  0  0  0  0  0  0  0  0  0
   34.9510   28.6800   51.5750 H   0  0  0  0  0  0  0  0  0  0  0  0
   35.1340   27.3120   49.5310 H   0  0  0  0  0  0  0  0  0  0  0  0
   33.5860   28.2490   49.3490 H   0  0  0  0  0  0  0  0  0  0  0  0
   37.1780   30.5560   50.8400 C   0  0  0  0  0  0  0  0  0  0  0  0
   36.4210   31.6500   50.4130 F   0  0  0  0  0  0  0  0  0  0  0  0
   38.4270   30.7120   50.2560 F   0  0  0  0  0  0  0  0  0  0  0  0
   37.2970   30.5120   52.1990 F   0  0  0  0  0  0  0  0  0  0  0  0
   30.8260   29.8270   45.8870 S   0  0  0  0  0  0  0  0  0  0  0  0
   29.8130   29.2720   43.4810 C   0  0  2  0  0  3  0  0  0  0  0  0
   30.3840   28.5220   44.6940 C   0  0  2  0  0  3  0  0  0  0  0  0
   29.2190   27.8950   45.1310 O   0  0  0  0  0  0  0  0  0  0  0  0
   28.3250   28.9390   45.2510 C   0  0  0  0  0  2  0  0  0  0  0  0
   28.6530   29.9740   44.1950 C   0  0  2  0  0  3  0  0  0  0  0  0
   29.3600   28.3400   42.5520 O   0  0  0  0  0  0  0  0  0  0  0  0
   28.9760   28.7700   41.7590 H   0  0  0  0  0  0  0  0  0  0  0  0
   27.6020   30.2660   43.3580 O   0  0  0  0  0  0  0  0  0  0  0  0
   26.7930   30.3710   43.9240 H   0  0  0  0  0  0  0  0  0  0  0  0
  1  9  1  0  0  0  0
  2  7  1  0  0  0  0
  2  1  2  0  0  0  0
  3  2  1  0  0  0  0
  4  3  2  0  0  0  0
  4  5  1  0  0  0  0
  5  6  2  0  0  0  0
  6  1  1  0  0  0  0
  8  3  1  0  0  0  0
  9 10  1  0  0  0  0
  9 13  1  0  0  0  0
 10 11  1  0  0  0  0
 11 12  1  0  0  0  0
 11 16  1  1  0  0  0
 11 21  1  0  0  0  0
 12 18  1  0  0  0  0
 13 19  1  0  0  0  0
 13 12  1  0  0  0  0
 14 10  1  0  0  0  0
 15 10  1  0  0  0  0
 17 12  1  0  0  0  0
 20 13  1  0  0  0  0
 21 24  1  0  0  0  0
 22 21  1  0  0  0  0
 23 21  1  0  0  0  0
 25  5  1  0  0  0  0
 26 31  1  6  0  0  0
 26 30  1  0  0  0  0
 26 27  1  0  0  0  0
 27 28  1  0  0  0  0
 27 25  1  1  0  0  0
 28 29  1  0  0  0  0
 30 33  1  6  0  0  0
 30 29  1  0  0  0  0
 32 31  1  0  0  0  0
 33 34  1  0  0  0  0
M  END
>  <minimizedAffinity>
-5.00390577

>  <minimizedRMSD>
3.89304638

$$$$
