
 OpenBabel03272502263D

 40 43  0  0  1  0  0  0  0  0999 V2000
   37.6650   30.4020   51.0560 C   0  0  0  0  0  0  0  0  0  0  0  0
   38.2100   30.8510   49.8420 C   0  0  0  0  0  0  0  0  0  0  0  0
   37.5790   30.4670   48.6810 C   0  0  0  0  0  0  0  0  0  0  0  0
   36.4880   29.6930   48.7820 N   0  0  0  0  0  0  0  0  0  0  0  0
   35.9730   29.2680   49.9460 C   0  0  0  0  0  0  0  0  0  0  0  0
   36.5630   29.6240   51.0850 N   0  0  0  0  0  0  0  0  0  0  0  0
   38.1290   30.6790   51.9970 H   0  0  0  0  0  0  0  0  0  0  0  0
   39.0780   31.4650   49.8050 H   0  0  0  0  0  0  0  0  0  0  0  0
   38.0260   30.8720   47.3610 C   0  0  0  0  0  0  0  0  0  0  0  0
   37.4870   30.3070   46.2090 C   0  0  0  0  0  0  0  0  0  0  0  0
   37.8720   30.6660   44.9500 C   0  0  0  0  0  0  0  0  0  0  0  0
   38.8270   31.6200   44.8010 N   0  0  0  0  0  0  0  0  0  0  0  0
   39.3370   32.1540   45.9120 C   0  0  0  0  0  0  0  0  0  0  0  0
   38.9750   31.8180   47.1620 N   0  0  0  0  0  0  0  0  0  0  0  0
   36.7230   29.5430   46.2950 H   0  0  0  0  0  0  0  0  0  0  0  0
   37.4300   30.2050   44.0720 H   0  0  0  0  0  0  0  0  0  0  0  0
   40.3840   33.2020   45.7780 C   0  0  0  0  0  0  0  0  0  0  0  0
   40.3790   33.9530   46.9640 F   0  0  0  0  0  0  0  0  0  0  0  0
   41.6080   32.6590   45.5420 F   0  0  0  0  0  0  0  0  0  0  0  0
   40.0740   34.1170   44.7860 F   0  0  0  0  0  0  0  0  0  0  0  0
   34.8350   28.4700   49.8740 O   0  0  0  0  0  0  0  0  0  0  0  0
   33.5970   26.8790   46.8040 N   0  0  0  0  0  0  0  0  0  0  0  0
   34.1830   26.9620   48.0070 C   0  0  0  0  0  0  0  0  0  0  0  0
   34.2760   28.1730   48.6500 C   0  0  0  0  0  0  0  0  0  0  0  0
   33.7480   29.2800   48.0140 C   0  0  0  0  0  0  0  0  0  0  0  0
   33.7100   30.4840   48.4140 O   0  0  0  0  0  0  0  0  0  0  0  0
   33.1670   29.1710   46.8040 N   0  0  0  0  0  0  0  0  0  0  0  0
   33.0890   27.9460   46.1890 C   0  0  0  0  0  0  0  0  0  0  0  0
   32.5540   27.7650   45.0570 O   0  0  0  0  0  0  0  0  0  0  0  0
   33.5590   25.9160   46.3640 H   0  0  0  0  0  0  0  0  0  0  0  0
   34.6160   26.1350   48.5590 H   0  0  0  0  0  0  0  0  0  0  0  0
   33.0910   30.4930   44.6870 C   0  0  1  0  0  0  0  0  0  0  0  0
   32.5890   30.2310   46.0420 C   0  0  1  0  0  0  0  0  0  0  0  0
   31.2270   30.0940   45.8290 O   0  0  0  0  0  0  0  0  0  0  0  0
   30.8810   31.1170   44.9860 C   0  0  0  0  0  0  0  0  0  0  0  0
   32.1680   31.6950   44.3830 C   0  0  2  0  0  0  0  0  0  0  0  0
   34.4220   30.8830   44.6030 O   0  0  0  0  0  0  0  0  0  0  0  0
   34.4330   31.8750   44.6370 H   0  0  0  0  0  0  0  0  0  0  0  0
   32.0290   31.8560   42.9990 O   0  0  0  0  0  0  0  0  0  0  0  0
   31.0670   31.9280   42.7740 H   0  0  0  0  0  0  0  0  0  0  0  0
  1  6  1  0  0  0  0
  1  7  1  0  0  0  0
  2  1  2  0  0  0  0
  3  4  2  0  0  0  0
  3  2  1  0  0  0  0
  4  5  1  0  0  0  0
  5  6  2  0  0  0  0
  8  2  1  0  0  0  0
  9  3  1  0  0  0  0
 10 15  1  0  0  0  0
 10  9  2  0  0  0  0
 11 10  1  0  0  0  0
 12 11  2  0  0  0  0
 12 13  1  0  0  0  0
 13 14  2  0  0  0  0
 14  9  1  0  0  0  0
 16 11  1  0  0  0  0
 17 13  1  0  0  0  0
 17 18  1  0  0  0  0
 19 17  1  0  0  0  0
 20 17  1  0  0  0  0
 21  5  1  0  0  0  0
 22 23  1  0  0  0  0
 23 31  1  0  0  0  0
 23 24  2  0  0  0  0
 24 21  1  0  0  0  0
 25 26  2  0  0  0  0
 25 24  1  0  0  0  0
 27 25  1  0  0  0  0
 28 22  1  0  0  0  0
 28 27  1  0  0  0  0
 29 28  2  0  0  0  0
 30 22  1  0  0  0  0
 32 37  1  1  0  0  0
 32 33  1  0  0  0  0
 33 27  1  6  0  0  0
 34 33  1  0  0  0  0
 35 34  1  0  0  0  0
 36 39  1  6  0  0  0
 36 32  1  0  0  0  0
 36 35  1  0  0  0  0
 37 38  1  0  0  0  0
 40 39  1  0  0  0  0
M  END
>  <minimizedAffinity>
-6.76273394

>  <minimizedRMSD>
1.17605495

$$$$
