
 OpenBabel03272507593D

 39 42  0  0  1  0  0  0  0  0999 V2000
   36.8890   31.2800   48.5880 C   0  0  0  0  0  0  0  0  0  0  0  0
   37.0720   32.1530   49.6520 C   0  0  0  0  0  0  0  0  0  0  0  0
   37.9900   33.2000   49.5050 C   0  0  0  0  0  0  0  0  0  0  0  0
   38.6980   33.3570   48.3240 C   0  0  0  0  0  0  0  0  0  0  0  0
   38.4860   32.4660   47.2900 C   0  0  0  0  0  0  0  0  0  0  0  0
   37.6030   31.4790   47.4620 N   0  0  0  0  0  0  0  0  0  0  0  0
   36.6400   32.2450   50.6340 H   0  0  0  0  0  0  0  0  0  0  0  0
   38.2460   33.9570   50.2280 H   0  0  0  0  0  0  0  0  0  0  0  0
   39.4220   34.1350   48.1330 H   0  0  0  0  0  0  0  0  0  0  0  0
   35.1960   28.3390   50.1850 C   0  0  0  0  0  0  0  0  0  0  0  0
   36.1710   29.3420   49.9120 C   0  0  0  0  0  0  0  0  0  0  0  0
   35.9200   30.2580   48.8870 C   0  0  0  0  0  0  0  0  0  0  0  0
   34.7470   30.1340   48.2030 N   0  0  0  0  0  0  0  0  0  0  0  0
   33.8390   29.1600   48.4930 C   0  0  0  0  0  0  0  0  0  0  0  0
   34.0630   28.2740   49.4720 N   0  0  0  0  0  0  0  0  0  0  0  0
   32.7060   29.2410   47.6460 N   0  0  0  0  0  0  0  0  0  0  0  0
   35.3750   27.6270   50.9720 H   0  0  0  0  0  0  0  0  0  0  0  0
   32.4910   28.2750   47.2970 H   0  0  0  0  0  0  0  0  0  0  0  0
   32.1980   30.1330   47.4300 H   0  0  0  0  0  0  0  0  0  0  0  0
   37.4030   29.3640   50.7320 C   0  0  0  0  0  0  0  0  0  0  0  0
   38.5010   29.8070   49.9880 F   0  0  0  0  0  0  0  0  0  0  0  0
   37.2420   30.2000   51.7790 F   0  0  0  0  0  0  0  0  0  0  0  0
   37.7540   28.1100   51.2290 F   0  0  0  0  0  0  0  0  0  0  0  0
   39.1820   32.5640   46.0140 C   0  0  0  0  0  0  0  0  0  0  0  0
   40.5390   32.6960   45.8300 C   0  0  0  0  0  0  0  0  0  0  0  0
   40.8210   32.7540   44.4730 C   0  0  0  0  0  0  0  0  0  0  0  0
   39.5900   32.6530   43.8680 N   0  0  0  0  0  0  0  0  0  0  0  0
   38.6550   32.5430   44.7860 N   0  0  0  0  0  0  0  0  0  0  0  0
   41.3250   32.7500   46.5980 H   0  0  0  0  0  0  0  0  0  0  0  0
   41.8060   32.8580   44.0430 H   0  0  0  0  0  0  0  0  0  0  0  0
   39.4880   31.2930   41.8430 C   0  0  1  0  0  0  0  0  0  0  0  0
   39.4200   32.6720   42.4140 C   0  0  1  0  0  0  0  0  0  0  0  0
   38.2220   33.2500   42.0780 O   0  0  0  0  0  0  0  0  0  0  0  0
   37.3150   32.2400   41.8460 C   0  0  0  0  0  0  0  0  0  0  0  0
   38.1450   31.1920   41.1320 C   0  0  2  0  0  0  0  0  0  0  0  0
   40.5650   31.1350   40.9800 O   0  0  0  0  0  0  0  0  0  0  0  0
   40.6850   31.9730   40.4670 H   0  0  0  0  0  0  0  0  0  0  0  0
   37.5750   29.9510   41.3310 O   0  0  0  0  0  0  0  0  0  0  0  0
   38.2510   29.3170   41.6770 H   0  0  0  0  0  0  0  0  0  0  0  0
  1 12  1  0  0  0  0
  1  2  1  0  0  0  0
  2  7  1  0  0  0  0
  3  2  2  0  0  0  0
  3  8  1  0  0  0  0
  4  3  1  0  0  0  0
  5  6  1  0  0  0  0
  5  4  2  0  0  0  0
  6  1  2  0  0  0  0
  9  4  1  0  0  0  0
 10 17  1  0  0  0  0
 11 10  1  0  0  0  0
 11 20  1  0  0  0  0
 12 11  2  0  0  0  0
 13 14  2  0  0  0  0
 13 12  1  0  0  0  0
 14 15  1  0  0  0  0
 15 10  2  0  0  0  0
 16 14  1  0  0  0  0
 18 16  1  0  0  0  0
 19 16  1  0  0  0  0
 20 23  1  0  0  0  0
 20 22  1  0  0  0  0
 21 20  1  0  0  0  0
 24  5  1  0  0  0  0
 25 24  1  0  0  0  0
 25 29  1  0  0  0  0
 26 25  2  0  0  0  0
 27 26  1  0  0  0  0
 27 28  1  0  0  0  0
 28 24  2  0  0  0  0
 30 26  1  0  0  0  0
 31 36  1  6  0  0  0
 31 32  1  0  0  0  0
 32 27  1  1  0  0  0
 33 32  1  0  0  0  0
 34 33  1  0  0  0  0
 35 38  1  1  0  0  0
 35 31  1  0  0  0  0
 35 34  1  0  0  0  0
 37 36  1  0  0  0  0
 38 39  1  0  0  0  0
M  END
>  <minimizedAffinity>
-7.42310524

>  <minimizedRMSD>
2.71715355

$$$$
