
 OpenBabel03272503463D

 24 25  0  0  1  0  0  0  0  0999 V2000
   35.3590   29.8330   46.7730 O   0  0  0  0  0  0  0  0  0  0  0  0
   34.0920   29.9980   47.6040 P   0  0  2  0  0  0  0  0  0  0  0  0
   33.0890   31.0290   46.7320 O   0  0  0  0  0  0  0  0  0  0  0  0
   32.5180   30.4960   46.1080 H   0  0  0  0  0  0  0  0  0  0  0  0
   34.4060   30.6470   49.1580 O   0  0  0  0  0  0  0  0  0  0  0  0
   35.6340   30.5100   49.7820 C   0  0  0  0  0  0  0  0  0  0  0  0
   35.9730   29.4930   50.7010 C   0  0  0  0  0  0  0  0  0  0  0  0
   37.2500   29.4920   51.2420 C   0  0  0  0  0  0  0  0  0  0  0  0
   38.1180   30.4710   50.8620 N   0  0  0  0  0  0  0  0  0  0  0  0
   37.7690   31.4390   49.9770 C   0  0  0  0  0  0  0  0  0  0  0  0
   36.5200   31.4570   49.4350 N   0  0  0  0  0  0  0  0  0  0  0  0
   35.1860   28.7800   50.9120 H   0  0  0  0  0  0  0  0  0  0  0  0
   37.4880   28.7120   51.9370 H   0  0  0  0  0  0  0  0  0  0  0  0
   38.5020   32.1840   49.7180 H   0  0  0  0  0  0  0  0  0  0  0  0
   33.3440   28.4990   47.8620 O   0  0  0  0  0  0  0  0  0  0  0  0
   33.1040   27.3440   45.8650 C   0  0  1  0  0  0  0  0  0  0  0  0
   33.9160   27.4840   47.1500 C   0  0  2  0  0  0  0  0  0  0  0  0
   33.8140   26.2410   47.7370 O   0  0  0  0  0  0  0  0  0  0  0  0
   34.0610   25.3670   46.6850 C   0  0  0  0  0  0  0  0  0  0  0  0
   33.4560   25.9500   45.4410 C   0  0  2  0  0  0  0  0  0  0  0  0
   31.7490   27.5260   46.1380 O   0  0  0  0  0  0  0  0  0  0  0  0
   31.2660   27.8230   45.3140 H   0  0  0  0  0  0  0  0  0  0  0  0
   34.3890   25.9990   44.4150 O   0  0  0  0  0  0  0  0  0  0  0  0
   34.6350   25.1320   44.0480 H   0  0  0  0  0  0  0  0  0  0  0  0
  2  1  2  6  0  0  0
  2 15  1  0  0  0  0
  2  5  1  0  0  0  0
  3  2  1  0  0  0  0
  4  3  1  0  0  0  0
  5  6  1  0  0  0  0
  6  7  1  0  0  0  0
  7 12  1  0  0  0  0
  7  8  2  0  0  0  0
  8 13  1  0  0  0  0
  9  8  1  0  0  0  0
 10  9  2  0  0  0  0
 11  6  2  0  0  0  0
 11 10  1  0  0  0  0
 14 10  1  0  0  0  0
 16 21  1  1  0  0  0
 16 17  1  0  0  0  0
 17 18  1  0  0  0  0
 17 15  1  1  0  0  0
 19 18  1  0  0  0  0
 20 23  1  6  0  0  0
 20 16  1  0  0  0  0
 20 19  1  0  0  0  0
 22 21  1  0  0  0  0
 24 23  1  0  0  0  0
M  END
>  <minimizedAffinity>
-4.15659142

>  <minimizedRMSD>
1.74370337

$$$$
