
 OpenBabel03272508263D

 38 41  0  0  1  0  0  0  0  0999 V2000
   33.8150   28.9060   47.2180 C   0  0  2  0  0  0  0  0  0  0  0  0
   34.5200   28.1370   48.3220 C   0  0  2  0  0  0  0  0  0  0  0  0
   33.6020   27.9940   49.3170 O   0  0  0  0  0  0  0  0  0  0  0  0
   32.3380   28.0760   48.8250 C   0  0  0  0  0  0  0  0  0  0  0  0
   32.4250   28.2690   47.3260 C   0  0  1  0  0  0  0  0  0  0  0  0
   33.7300   29.9790   47.4300 H   0  0  0  0  0  0  0  0  0  0  0  0
   34.7860   27.1450   47.9450 H   0  0  0  0  0  0  0  0  0  0  0  0
   31.8410   27.0900   48.9890 H   0  0  0  0  0  0  0  0  0  0  0  0
   31.7110   28.8550   49.3210 H   0  0  0  0  0  0  0  0  0  0  0  0
   32.4640   27.3110   46.7960 H   0  0  0  0  0  0  0  0  0  0  0  0
   35.6170   30.3720   49.0190 C   0  0  1  0  0  0  0  0  0  0  0  0
   35.6960   28.9560   48.7510 C   0  0  1  0  0  0  0  0  0  0  0  0
   35.8760   29.3860   50.1690 C   0  0  0  0  0  0  0  0  0  0  0  0
   34.7110   30.9610   49.2500 H   0  0  0  0  0  0  0  0  0  0  0  0
   36.6500   28.5970   48.2670 H   0  0  0  0  0  0  0  0  0  0  0  0
   36.8670   29.3760   50.6400 H   0  0  0  0  0  0  0  0  0  0  0  0
   35.0520   29.0910   50.8290 H   0  0  0  0  0  0  0  0  0  0  0  0
   36.8080   31.2870   48.7870 C   0  0  0  0  0  0  0  0  0  0  0  0
   37.0560   32.2850   49.7320 C   0  0  0  0  0  0  0  0  0  0  0  0
   38.1340   33.1000   49.4640 C   0  0  0  0  0  0  0  0  0  0  0  0
   38.8940   32.9200   48.3370 N   0  0  0  0  0  0  0  0  0  0  0  0
   38.6200   31.9390   47.4420 C   0  0  0  0  0  0  0  0  0  0  0  0
   37.5630   31.1120   47.6720 N   0  0  0  0  0  0  0  0  0  0  0  0
   36.4330   32.3890   50.6010 H   0  0  0  0  0  0  0  0  0  0  0  0
   38.3770   33.8980   50.1670 H   0  0  0  0  0  0  0  0  0  0  0  0
   39.2150   31.7920   46.5510 H   0  0  0  0  0  0  0  0  0  0  0  0
   34.3630   28.7170   45.9650 O   0  0  0  0  0  0  0  0  0  0  0  0
   35.0170   27.9830   46.0200 H   0  0  0  0  0  0  0  0  0  0  0  0
   31.4530   29.0710   46.7970 O   0  0  0  0  0  0  0  0  0  0  0  0
   30.7810   29.2830   44.5520 C   0  0  2  0  0  3  0  0  0  0  0  0
   30.6920   28.4730   45.8130 C   0  0  1  0  0  3  0  0  0  0  0  0
   31.2380   27.2280   45.5470 O   0  0  0  0  0  0  0  0  0  0  0  0
   31.2190   27.0190   44.1970 C   0  0  0  0  0  2  0  0  0  0  0  0
   30.6220   28.2000   43.5040 C   0  0  2  0  0  3  0  0  0  0  0  0
   31.9990   29.9340   44.4040 O   0  0  0  0  0  0  0  0  0  0  0  0
   32.7460   29.5030   44.8560 H   0  0  0  0  0  0  0  0  0  0  0  0
   31.2720   28.5320   42.3200 O   0  0  0  0  0  0  0  0  0  0  0  0
   32.0280   29.1470   42.4750 H   0  0  0  0  0  0  0  0  0  0  0  0
  1  5  1  0  0  0  0
  1  6  1  1  0  0  0
  1  2  1  0  0  0  0
  2  7  1  6  0  0  0
  2 12  1  0  0  0  0
  2  3  1  0  0  0  0
  4  8  1  0  0  0  0
  4  3  1  0  0  0  0
  4  9  1  0  0  0  0
  5 10  1  6  0  0  0
  5  4  1  0  0  0  0
 11 14  1  6  0  0  0
 11 13  1  0  0  0  0
 12 15  1  6  0  0  0
 12 11  1  0  0  0  0
 12 13  1  0  0  0  0
 13 16  1  0  0  0  0
 13 17  1  0  0  0  0
 18 11  1  0  0  0  0
 18 19  1  0  0  0  0
 19 24  1  0  0  0  0
 20 19  2  0  0  0  0
 20 25  1  0  0  0  0
 21 20  1  0  0  0  0
 22 23  1  0  0  0  0
 22 21  2  0  0  0  0
 23 18  2  0  0  0  0
 26 22  1  0  0  0  0
 27 28  1  0  0  0  0
 27  1  1  0  0  0  0
 29  5  1  0  0  0  0
 30 35  1  6  0  0  0
 30 31  1  0  0  0  0
 31 29  1  1  0  0  0
 32 31  1  0  0  0  0
 33 32  1  0  0  0  0
 34 37  1  6  0  0  0
 34 33  1  0  0  0  0
 34 30  1  0  0  0  0
 35 36  1  0  0  0  0
 37 38  1  0  0  0  0
M  END
>  <minimizedAffinity>
-4.76724815

>  <minimizedRMSD>
0.406095266

$$$$
