
 OpenBabel03272508263D

 38 41  0  0  1  0  0  0  0  0999 V2000
   33.8070   28.8530   47.2140 C   0  0  2  0  0  0  0  0  0  0  0  0
   34.5080   28.0990   48.3320 C   0  0  2  0  0  0  0  0  0  0  0  0
   33.5800   27.9540   49.3180 O   0  0  0  0  0  0  0  0  0  0  0  0
   32.3210   28.0200   48.8110 C   0  0  0  0  0  0  0  0  0  0  0  0
   32.4230   28.2030   47.3120 C   0  0  1  0  0  0  0  0  0  0  0  0
   33.7090   29.9270   47.4170 H   0  0  0  0  0  0  0  0  0  0  0  0
   34.7880   27.1080   47.9650 H   0  0  0  0  0  0  0  0  0  0  0  0
   31.8330   27.0300   48.9760 H   0  0  0  0  0  0  0  0  0  0  0  0
   31.6800   28.7950   49.2940 H   0  0  0  0  0  0  0  0  0  0  0  0
   32.4770   27.2410   46.7890 H   0  0  0  0  0  0  0  0  0  0  0  0
   35.5820   30.3570   48.9920 C   0  0  1  0  0  0  0  0  0  0  0  0
   35.6700   28.9340   48.7670 C   0  0  1  0  0  0  0  0  0  0  0  0
   35.8110   29.4050   50.1770 C   0  0  0  0  0  0  0  0  0  0  0  0
   34.6690   30.9500   49.1810 H   0  0  0  0  0  0  0  0  0  0  0  0
   36.6370   28.5630   48.3200 H   0  0  0  0  0  0  0  0  0  0  0  0
   36.7890   29.4120   50.6750 H   0  0  0  0  0  0  0  0  0  0  0  0
   34.9700   29.1280   50.8230 H   0  0  0  0  0  0  0  0  0  0  0  0
   36.7760   31.2680   48.7660 C   0  0  0  0  0  0  0  0  0  0  0  0
   37.0320   32.2570   49.7180 C   0  0  0  0  0  0  0  0  0  0  0  0
   38.1120   33.0690   49.4560 C   0  0  0  0  0  0  0  0  0  0  0  0
   38.8690   32.8950   48.3250 N   0  0  0  0  0  0  0  0  0  0  0  0
   38.5890   31.9220   47.4230 C   0  0  0  0  0  0  0  0  0  0  0  0
   37.5280   31.0990   47.6470 N   0  0  0  0  0  0  0  0  0  0  0  0
   36.4110   32.3560   50.5890 H   0  0  0  0  0  0  0  0  0  0  0  0
   38.3620   33.8590   50.1640 H   0  0  0  0  0  0  0  0  0  0  0  0
   39.1820   31.7800   46.5290 H   0  0  0  0  0  0  0  0  0  0  0  0
   34.3710   28.6610   45.9690 O   0  0  0  0  0  0  0  0  0  0  0  0
   35.0320   27.9350   46.0360 H   0  0  0  0  0  0  0  0  0  0  0  0
   31.4480   28.9910   46.7660 O   0  0  0  0  0  0  0  0  0  0  0  0
   29.1830   29.5720   46.5050 C   0  0  2  0  0  3  0  0  0  0  0  0
   30.1620   28.5340   46.9730 C   0  0  1  0  0  3  0  0  0  0  0  0
   29.9770   27.4070   46.1900 O   0  0  0  0  0  0  0  0  0  0  0  0
   28.7300   27.4550   45.6360 C   0  0  0  0  0  2  0  0  0  0  0  0
   28.0240   28.6980   46.0710 C   0  0  2  0  0  3  0  0  0  0  0  0
   29.6540   30.3280   45.4380 O   0  0  0  0  0  0  0  0  0  0  0  0
   30.3110   29.8760   44.8820 H   0  0  0  0  0  0  0  0  0  0  0  0
   27.2820   29.2940   45.0570 O   0  0  0  0  0  0  0  0  0  0  0  0
   27.8250   29.9240   44.5250 H   0  0  0  0  0  0  0  0  0  0  0  0
  1  5  1  0  0  0  0
  1  6  1  1  0  0  0
  1  2  1  0  0  0  0
  2  7  1  6  0  0  0
  2 12  1  0  0  0  0
  2  3  1  0  0  0  0
  4  8  1  0  0  0  0
  4  9  1  0  0  0  0
  4  3  1  0  0  0  0
  5 10  1  6  0  0  0
  5  4  1  0  0  0  0
 11 14  1  6  0  0  0
 11 13  1  0  0  0  0
 12 15  1  6  0  0  0
 12 11  1  0  0  0  0
 12 13  1  0  0  0  0
 13 16  1  0  0  0  0
 13 17  1  0  0  0  0
 18 11  1  0  0  0  0
 18 19  1  0  0  0  0
 19 24  1  0  0  0  0
 20 19  2  0  0  0  0
 20 25  1  0  0  0  0
 21 20  1  0  0  0  0
 22 23  1  0  0  0  0
 22 21  2  0  0  0  0
 23 18  2  0  0  0  0
 26 22  1  0  0  0  0
 27 28  1  0  0  0  0
 27  1  1  0  0  0  0
 29  5  1  0  0  0  0
 30 35  1  6  0  0  0
 30 31  1  0  0  0  0
 31 29  1  6  0  0  0
 32 31  1  0  0  0  0
 33 34  1  0  0  0  0
 33 32  1  0  0  0  0
 34 37  1  6  0  0  0
 34 30  1  0  0  0  0
 36 35  1  0  0  0  0
 38 37  1  0  0  0  0
M  END
>  <minimizedAffinity>
-5.25869179

>  <minimizedRMSD>
1.91441011

$$$$
