
 OpenBabel03272509453D

 19 20  0  0  1  0  0  0  0  0999 V2000
   35.1770   28.9750   48.0270 O   0  0  0  0  0  0  0  0  0  0  0  0
   36.8560   31.5400   49.9850 C   0  0  0  0  0  0  0  0  0  0  0  0
   37.4300   30.7110   50.9770 C   0  0  0  0  0  0  0  0  0  0  0  0
   37.2170   29.3310   50.9280 C   0  0  0  0  0  0  0  0  0  0  0  0
   36.4470   28.8530   49.8970 N   0  0  0  0  0  0  0  0  0  0  0  0
   35.9120   29.6690   48.9660 C   0  0  0  0  0  0  0  0  0  0  0  0
   36.1210   31.0070   49.0170 N   0  0  0  0  0  0  0  0  0  0  0  0
   37.0070   32.6120   50.0050 H   0  0  0  0  0  0  0  0  0  0  0  0
   38.0350   31.1640   51.7710 H   0  0  0  0  0  0  0  0  0  0  0  0
   37.6340   28.6800   51.6560 H   0  0  0  0  0  0  0  0  0  0  0  0
   34.3070   29.9210   45.9520 C   0  0  2  0  0  3  0  0  0  0  0  0
   34.1240   29.7060   47.4180 C   0  0  1  0  0  3  0  0  0  0  0  0
   32.9930   28.9030   47.5220 O   0  0  0  0  0  0  0  0  0  0  0  0
   33.2570   27.8940   46.5970 C   0  0  0  0  0  2  0  0  0  0  0  0
   33.6180   28.6860   45.3600 C   0  0  2  0  0  3  0  0  0  0  0  0
   35.6240   30.0250   45.5530 O   0  0  0  0  0  0  0  0  0  0  0  0
   35.6950   30.8330   44.9540 H   0  0  0  0  0  0  0  0  0  0  0  0
   34.5290   27.9620   44.5890 O   0  0  0  0  0  0  0  0  0  0  0  0
   34.8930   27.1940   45.1330 H   0  0  0  0  0  0  0  0  0  0  0  0
  1  6  1  0  0  0  0
  2  8  1  0  0  0  0
  2  3  1  0  0  0  0
  3  9  1  0  0  0  0
  4  3  2  0  0  0  0
  4 10  1  0  0  0  0
  5  4  1  0  0  0  0
  6  7  1  0  0  0  0
  6  5  2  0  0  0  0
  7  2  2  0  0  0  0
 11 16  1  1  0  0  0
 11 12  1  0  0  0  0
 12 13  1  0  0  0  0
 12  1  1  6  0  0  0
 14 13  1  0  0  0  0
 15 18  1  6  0  0  0
 15 11  1  0  0  0  0
 15 14  1  0  0  0  0
 17 16  1  0  0  0  0
 18 19  1  0  0  0  0
M  END
>  <minimizedAffinity>
-3.62011719

>  <minimizedRMSD>
4.09110022

$$$$
