
 OpenBabel03272509183D

 33 35  0  0  1  0  0  0  0  0999 V2000
   37.0830   31.2120   46.5530 C   0  0  0  0  0  0  0  0  0  0  0  0
   37.1690   31.2210   47.9470 C   0  0  0  0  0  0  0  0  0  0  0  0
   38.2160   31.9870   48.4530 C   0  0  0  0  0  0  0  0  0  0  0  0
   39.0870   32.6730   47.6000 C   0  0  0  0  0  0  0  0  0  0  0  0
   38.9120   32.5970   46.2260 C   0  0  0  0  0  0  0  0  0  0  0  0
   37.8940   31.8540   45.6900 C   0  0  0  0  0  0  0  0  0  0  0  0
   38.3100   32.0150   49.5310 H   0  0  0  0  0  0  0  0  0  0  0  0
   39.8590   33.2340   48.1010 H   0  0  0  0  0  0  0  0  0  0  0  0
   39.6540   33.1730   45.7160 H   0  0  0  0  0  0  0  0  0  0  0  0
   34.9140   30.4590   48.5250 C   0  0  0  0  0  0  0  0  0  0  0  0
   36.2700   30.5140   48.8100 C   0  0  0  0  0  0  0  0  0  0  0  0
   36.7050   29.8540   49.9650 C   0  0  0  0  0  0  0  0  0  0  0  0
   35.7830   29.2060   50.7290 N   0  0  0  0  0  0  0  0  0  0  0  0
   34.4760   29.1820   50.4100 C   0  0  0  0  0  0  0  0  0  0  0  0
   34.0450   29.8050   49.3130 N   0  0  0  0  0  0  0  0  0  0  0  0
   34.4840   30.9380   47.6530 H   0  0  0  0  0  0  0  0  0  0  0  0
   33.9010   28.6200   51.1350 H   0  0  0  0  0  0  0  0  0  0  0  0
   38.1470   29.8690   50.3380 C   0  0  0  0  0  0  0  0  0  0  0  0
   38.2680   30.1490   51.4070 H   0  0  0  0  0  0  0  0  0  0  0  0
   38.6440   30.6500   49.7330 H   0  0  0  0  0  0  0  0  0  0  0  0
   38.6150   28.8930   50.1090 H   0  0  0  0  0  0  0  0  0  0  0  0
   36.0440   30.4560   45.9700 O   0  0  0  0  0  0  0  0  0  0  0  0
   36.1170   29.4360   45.9500 H   0  0  0  0  0  0  0  0  0  0  0  0
   37.7410   31.7930   44.3290 O   0  0  0  0  0  0  0  0  0  0  0  0
   39.1930   29.9050   44.2360 C   0  0  1  0  0  3  0  0  0  0  0  0
   38.4440   30.9670   43.4510 C   0  0  1  0  0  3  0  0  0  0  0  0
   37.4570   30.2220   42.7550 O   0  0  0  0  0  0  0  0  0  0  0  0
   38.2850   29.2590   42.1580 C   0  0  0  0  0  2  0  0  0  0  0  0
   38.9870   28.6800   43.3850 C   0  0  1  0  0  3  0  0  0  0  0  0
   40.5330   30.1850   44.4040 O   0  0  0  0  0  0  0  0  0  0  0  0
   40.7560   31.1230   44.1180 H   0  0  0  0  0  0  0  0  0  0  0  0
   40.1900   28.0690   43.0380 O   0  0  0  0  0  0  0  0  0  0  0  0
   40.0870   27.7900   42.0930 H   0  0  0  0  0  0  0  0  0  0  0  0
  1  2  1  0  0  0  0
  2  3  2  0  0  0  0
  2 11  1  0  0  0  0
  3  7  1  0  0  0  0
  4  8  1  0  0  0  0
  4  3  1  0  0  0  0
  5  4  2  0  0  0  0
  6  5  1  0  0  0  0
  6  1  2  0  0  0  0
  9  5  1  0  0  0  0
 10 11  2  0  0  0  0
 10 15  1  0  0  0  0
 11 12  1  0  0  0  0
 12 18  1  0  0  0  0
 12 13  2  0  0  0  0
 14 13  1  0  0  0  0
 14 17  1  0  0  0  0
 15 14  2  0  0  0  0
 16 10  1  0  0  0  0
 18 19  1  0  0  0  0
 20 18  1  0  0  0  0
 21 18  1  0  0  0  0
 22  1  1  0  0  0  0
 23 22  1  0  0  0  0
 24  6  1  0  0  0  0
 25 30  1  6  0  0  0
 26 25  1  0  0  0  0
 26 24  1  1  0  0  0
 27 26  1  0  0  0  0
 28 27  1  0  0  0  0
 28 29  1  0  0  0  0
 29 32  1  6  0  0  0
 29 25  1  0  0  0  0
 31 30  1  0  0  0  0
 33 32  1  0  0  0  0
M  END
>  <minimizedAffinity>
-5.89831591

>  <minimizedRMSD>
4.09640741

$$$$
