
 OpenBabel03272503483D

 24 25  0  0  1  0  0  0  0  0999 V2000
   39.9550   27.2100   34.1440 O   0  0  0  0  0  0  0  0  0  0  0  0
   38.6580   26.8840   34.8750 P   0  0  2  0  0  0  0  0  0  0  0  0
   38.7980   27.5650   36.4070 O   0  0  0  0  0  0  0  0  0  0  0  0
   38.4610   28.5070   36.3900 H   0  0  0  0  0  0  0  0  0  0  0  0
   38.3790   25.1980   34.9970 O   0  0  0  0  0  0  0  0  0  0  0  0
   38.6490   24.4860   36.1530 C   0  0  0  0  0  0  0  0  0  0  0  0
   39.6530   23.5040   36.2920 C   0  0  0  0  0  0  0  0  0  0  0  0
   39.7990   22.8770   37.5200 C   0  0  0  0  0  0  0  0  0  0  0  0
   38.9650   23.2370   38.5360 N   0  0  0  0  0  0  0  0  0  0  0  0
   38.0060   24.1840   38.3790 C   0  0  0  0  0  0  0  0  0  0  0  0
   37.8470   24.8110   37.1800 N   0  0  0  0  0  0  0  0  0  0  0  0
   40.2430   23.3170   35.4030 H   0  0  0  0  0  0  0  0  0  0  0  0
   40.5670   22.1350   37.6050 H   0  0  0  0  0  0  0  0  0  0  0  0
   37.3800   24.4230   39.2220 H   0  0  0  0  0  0  0  0  0  0  0  0
   37.3240   27.5230   34.0470 O   0  0  0  0  0  0  0  0  0  0  0  0
   36.3870   28.1310   32.0140 C   0  0  1  0  0  3  0  0  0  0  0  0
   37.2490   27.1070   32.7490 C   0  0  2  0  0  3  0  0  0  0  0  0
   36.5740   25.9200   32.5630 O   0  0  0  0  0  0  0  0  0  0  0  0
   36.2660   25.9320   31.2080 C   0  0  0  0  0  2  0  0  0  0  0  0
   35.9510   27.3460   30.8140 C   0  0  2  0  0  3  0  0  0  0  0  0
   35.3340   28.5400   32.8330 O   0  0  0  0  0  0  0  0  0  0  0  0
   35.0100   29.4440   32.5560 H   0  0  0  0  0  0  0  0  0  0  0  0
   36.7030   27.7300   29.7120 O   0  0  0  0  0  0  0  0  0  0  0  0
   36.4470   27.2990   28.8770 H   0  0  0  0  0  0  0  0  0  0  0  0
  2  1  2  6  0  0  0
  2  5  1  0  0  0  0
  2  3  1  0  0  0  0
  4  3  1  0  0  0  0
  5  6  1  0  0  0  0
  6  7  2  0  0  0  0
  6 11  1  0  0  0  0
  7  8  1  0  0  0  0
  8 13  1  0  0  0  0
  8  9  2  0  0  0  0
 10  9  1  0  0  0  0
 10 14  1  0  0  0  0
 11 10  2  0  0  0  0
 12  7  1  0  0  0  0
 15  2  1  0  0  0  0
 16 17  1  0  0  0  0
 16 21  1  1  0  0  0
 17 15  1  1  0  0  0
 18 17  1  0  0  0  0
 19 18  1  0  0  0  0
 20 23  1  6  0  0  0
 20 19  1  0  0  0  0
 20 16  1  0  0  0  0
 22 21  1  0  0  0  0
 24 23  1  0  0  0  0
M  END
>  <minimizedAffinity>
-5.02960587

$$$$

 OpenBabel03272503483D

 24 25  0  0  1  0  0  0  0  0999 V2000
   40.9530   26.7820   34.9500 O   0  0  0  0  0  0  0  0  0  0  0  0
   39.4630   26.7190   34.6360 P   0  0  2  0  0  0  0  0  0  0  0  0
   38.7110   27.7720   35.7110 O   0  0  0  0  0  0  0  0  0  0  0  0
   38.6760   28.6900   35.3160 H   0  0  0  0  0  0  0  0  0  0  0  0
   38.8230   25.1380   34.8060 O   0  0  0  0  0  0  0  0  0  0  0  0
   38.8890   24.4380   35.9980 C   0  0  0  0  0  0  0  0  0  0  0  0
   39.7780   23.3770   36.2740 C   0  0  0  0  0  0  0  0  0  0  0  0
   39.7200   22.7740   37.5220 C   0  0  0  0  0  0  0  0  0  0  0  0
   38.8090   23.2350   38.4240 N   0  0  0  0  0  0  0  0  0  0  0  0
   37.9640   24.2570   38.1360 C   0  0  0  0  0  0  0  0  0  0  0  0
   38.0050   24.8610   36.9160 N   0  0  0  0  0  0  0  0  0  0  0  0
   40.4490   23.1140   35.4660 H   0  0  0  0  0  0  0  0  0  0  0  0
   40.4030   21.9710   37.7120 H   0  0  0  0  0  0  0  0  0  0  0  0
   37.2670   24.5740   38.8940 H   0  0  0  0  0  0  0  0  0  0  0  0
   39.1670   27.1770   33.0310 O   0  0  0  0  0  0  0  0  0  0  0  0
   37.8120   27.2160   31.1490 C   0  0  1  0  0  3  0  0  0  0  0  0
   37.8600   27.0270   32.6630 C   0  0  2  0  0  3  0  0  0  0  0  0
   37.0120   28.0030   33.1410 O   0  0  0  0  0  0  0  0  0  0  0  0
   35.8960   27.8900   32.3210 C   0  0  0  0  0  2  0  0  0  0  0  0
   36.3650   27.5470   30.9370 C   0  0  2  0  0  3  0  0  0  0  0  0
   38.6850   28.2350   30.7690 O   0  0  0  0  0  0  0  0  0  0  0  0
   38.9610   28.1180   29.8160 H   0  0  0  0  0  0  0  0  0  0  0  0
   35.7000   26.4300   30.4530 O   0  0  0  0  0  0  0  0  0  0  0  0
   34.7610   26.5770   30.2420 H   0  0  0  0  0  0  0  0  0  0  0  0
  2  5  1  0  0  0  0
  2  1  2  1  0  0  0
  2  3  1  0  0  0  0
  4  3  1  0  0  0  0
  5  6  1  0  0  0  0
  6  7  2  0  0  0  0
  6 11  1  0  0  0  0
  7  8  1  0  0  0  0
  8 13  1  0  0  0  0
  8  9  2  0  0  0  0
 10  9  1  0  0  0  0
 10 14  1  0  0  0  0
 11 10  2  0  0  0  0
 12  7  1  0  0  0  0
 15  2  1  0  0  0  0
 16 21  1  1  0  0  0
 16 17  1  0  0  0  0
 17 15  1  1  0  0  0
 17 18  1  0  0  0  0
 19 18  1  0  0  0  0
 20 23  1  1  0  0  0
 20 16  1  0  0  0  0
 20 19  1  0  0  0  0
 22 21  1  0  0  0  0
 24 23  1  0  0  0  0
M  END
>  <minimizedAffinity>
-4.7737298

$$$$

 OpenBabel03272503483D

 24 25  0  0  1  0  0  0  0  0999 V2000
   40.2500   26.7540   34.7890 O   0  0  0  0  0  0  0  0  0  0  0  0
   38.7420   26.8270   34.9970 P   0  0  2  0  0  0  0  0  0  0  0  0
   38.4960   27.8820   36.2840 O   0  0  0  0  0  0  0  0  0  0  0  0
   38.4170   28.8190   35.9420 H   0  0  0  0  0  0  0  0  0  0  0  0
   38.0520   25.2970   35.3420 O   0  0  0  0  0  0  0  0  0  0  0  0
   38.5500   24.4670   36.3310 C   0  0  0  0  0  0  0  0  0  0  0  0
   38.0400   24.3630   37.6420 C   0  0  0  0  0  0  0  0  0  0  0  0
   38.6520   23.4810   38.5210 C   0  0  0  0  0  0  0  0  0  0  0  0
   39.7170   22.7560   38.0770 N   0  0  0  0  0  0  0  0  0  0  0  0
   40.1900   22.8730   36.8100 C   0  0  0  0  0  0  0  0  0  0  0  0
   39.6030   23.7340   35.9330 N   0  0  0  0  0  0  0  0  0  0  0  0
   37.1900   24.9980   37.8600 H   0  0  0  0  0  0  0  0  0  0  0  0
   38.2500   23.4160   39.5120 H   0  0  0  0  0  0  0  0  0  0  0  0
   41.0350   22.2710   36.5220 H   0  0  0  0  0  0  0  0  0  0  0  0
   37.9690   27.3880   33.5960 O   0  0  0  0  0  0  0  0  0  0  0  0
   38.1810   25.8620   31.8620 C   0  0  1  0  0  3  0  0  0  0  0  0
   37.2620   26.4160   32.9480 C   0  0  2  0  0  3  0  0  0  0  0  0
   36.1670   26.8720   32.2470 O   0  0  0  0  0  0  0  0  0  0  0  0
   35.8890   25.8310   31.3700 C   0  0  0  0  0  2  0  0  0  0  0  0
   37.1920   25.2300   30.9300 C   0  0  2  0  0  3  0  0  0  0  0  0
   38.9150   26.9000   31.2870 O   0  0  0  0  0  0  0  0  0  0  0  0
   39.7590   26.5460   30.8840 H   0  0  0  0  0  0  0  0  0  0  0  0
   37.1910   23.8550   31.1190 O   0  0  0  0  0  0  0  0  0  0  0  0
   36.6080   23.3630   30.5140 H   0  0  0  0  0  0  0  0  0  0  0  0
  2  1  2  6  0  0  0
  2  5  1  0  0  0  0
  2  3  1  0  0  0  0
  4  3  1  0  0  0  0
  5  6  1  0  0  0  0
  6  7  1  0  0  0  0
  7 12  1  0  0  0  0
  7  8  2  0  0  0  0
  8 13  1  0  0  0  0
  9  8  1  0  0  0  0
 10  9  2  0  0  0  0
 11  6  2  0  0  0  0
 11 10  1  0  0  0  0
 14 10  1  0  0  0  0
 15  2  1  0  0  0  0
 16 21  1  6  0  0  0
 16 17  1  0  0  0  0
 17 15  1  6  0  0  0
 18 17  1  0  0  0  0
 19 18  1  0  0  0  0
 20 23  1  1  0  0  0
 20 19  1  0  0  0  0
 20 16  1  0  0  0  0
 22 21  1  0  0  0  0
 24 23  1  0  0  0  0
M  END
>  <minimizedAffinity>
-4.71040392

$$$$

 OpenBabel03272503483D

 24 25  0  0  1  0  0  0  0  0999 V2000
   36.9890   27.7590   34.9530 O   0  0  0  0  0  0  0  0  0  0  0  0
   37.9910   26.6120   34.9960 P   0  0  2  0  0  0  0  0  0  0  0  0
   39.3870   27.2340   35.7000 O   0  0  0  0  0  0  0  0  0  0  0  0
   39.3400   27.1280   36.6930 H   0  0  0  0  0  0  0  0  0  0  0  0
   38.3390   25.9860   33.4390 O   0  0  0  0  0  0  0  0  0  0  0  0
   37.3810   25.3550   32.6650 C   0  0  0  0  0  0  0  0  0  0  0  0
   36.3790   26.0060   31.9130 C   0  0  0  0  0  0  0  0  0  0  0  0
   35.4890   25.2300   31.1860 C   0  0  0  0  0  0  0  0  0  0  0  0
   35.6220   23.8750   31.2310 N   0  0  0  0  0  0  0  0  0  0  0  0
   36.5940   23.2710   31.9610 C   0  0  0  0  0  0  0  0  0  0  0  0
   37.4770   24.0150   32.6820 N   0  0  0  0  0  0  0  0  0  0  0  0
   36.3900   27.0880   31.9690 H   0  0  0  0  0  0  0  0  0  0  0  0
   34.7370   25.7440   30.6220 H   0  0  0  0  0  0  0  0  0  0  0  0
   36.6440   22.1950   31.9530 H   0  0  0  0  0  0  0  0  0  0  0  0
   37.3820   25.3150   35.9000 O   0  0  0  0  0  0  0  0  0  0  0  0
   38.8590   23.5320   36.0430 C   0  0  1  0  0  3  0  0  0  0  0  0
   38.3060   24.7690   36.7450 C   0  0  2  0  0  3  0  0  0  0  0  0
   37.7870   24.2720   37.9220 O   0  0  0  0  0  0  0  0  0  0  0  0
   38.7890   23.4280   38.3850 C   0  0  0  0  0  2  0  0  0  0  0  0
   39.4240   22.7620   37.1990 C   0  0  2  0  0  3  0  0  0  0  0  0
   37.8320   22.8680   35.3720 O   0  0  0  0  0  0  0  0  0  0  0  0
   38.2040   22.3220   34.6220 H   0  0  0  0  0  0  0  0  0  0  0  0
   40.8030   22.9150   37.2270 O   0  0  0  0  0  0  0  0  0  0  0  0
   41.2530   22.4030   37.9230 H   0  0  0  0  0  0  0  0  0  0  0  0
  2  1  2  6  0  0  0
  2  3  1  0  0  0  0
  2 15  1  0  0  0  0
  3  4  1  0  0  0  0
  5  2  1  0  0  0  0
  6 11  1  0  0  0  0
  6  5  1  0  0  0  0
  7 12  1  0  0  0  0
  7  6  2  0  0  0  0
  8  9  2  0  0  0  0
  8  7  1  0  0  0  0
  9 10  1  0  0  0  0
 10 11  2  0  0  0  0
 13  8  1  0  0  0  0
 14 10  1  0  0  0  0
 16 21  1  1  0  0  0
 16 17  1  0  0  0  0
 16 20  1  0  0  0  0
 17 15  1  6  0  0  0
 17 18  1  0  0  0  0
 18 19  1  0  0  0  0
 20 23  1  1  0  0  0
 20 19  1  0  0  0  0
 22 21  1  0  0  0  0
 23 24  1  0  0  0  0
M  END
>  <minimizedAffinity>
-4.55980492

$$$$

 OpenBabel03272503483D

 24 25  0  0  1  0  0  0  0  0999 V2000
   36.8010   24.0370   32.3760 O   0  0  0  0  0  0  0  0  0  0  0  0
   37.7970   23.2710   33.2390 P   0  0  2  0  0  0  0  0  0  0  0  0
   39.1450   22.9990   32.2690 O   0  0  0  0  0  0  0  0  0  0  0  0
   39.7810   23.7660   32.3510 H   0  0  0  0  0  0  0  0  0  0  0  0
   37.1650   21.7850   33.8100 O   0  0  0  0  0  0  0  0  0  0  0  0
   36.6660   20.8170   32.9560 C   0  0  0  0  0  0  0  0  0  0  0  0
   35.5450   19.9990   33.2150 C   0  0  0  0  0  0  0  0  0  0  0  0
   35.1680   19.0720   32.2550 C   0  0  0  0  0  0  0  0  0  0  0  0
   35.8970   18.9930   31.1060 N   0  0  0  0  0  0  0  0  0  0  0  0
   36.9710   19.7910   30.8790 C   0  0  0  0  0  0  0  0  0  0  0  0
   37.3570   20.7070   31.8100 N   0  0  0  0  0  0  0  0  0  0  0  0
   35.0600   20.1680   34.1680 H   0  0  0  0  0  0  0  0  0  0  0  0
   34.3150   18.4600   32.4700 H   0  0  0  0  0  0  0  0  0  0  0  0
   37.5040   19.6790   29.9500 H   0  0  0  0  0  0  0  0  0  0  0  0
   38.2130   24.1670   34.6170 O   0  0  0  0  0  0  0  0  0  0  0  0
   37.8300   24.1680   36.9040 C   0  0  1  0  0  3  0  0  0  0  0  0
   38.4060   23.3910   35.7230 C   0  0  2  0  0  3  0  0  0  0  0  0
   39.7260   23.2010   36.0700 O   0  0  0  0  0  0  0  0  0  0  0  0
   39.6550   22.7780   37.3910 C   0  0  0  0  0  2  0  0  0  0  0  0
   38.5310   23.5160   38.0580 C   0  0  2  0  0  3  0  0  0  0  0  0
   38.1160   25.5260   36.7640 O   0  0  0  0  0  0  0  0  0  0  0  0
   37.4540   26.0740   37.2720 H   0  0  0  0  0  0  0  0  0  0  0  0
   37.6650   22.6320   38.6870 O   0  0  0  0  0  0  0  0  0  0  0  0
   38.0300   22.2020   39.4800 H   0  0  0  0  0  0  0  0  0  0  0  0
  2  1  2  6  0  0  0
  2  5  1  0  0  0  0
  2 15  1  0  0  0  0
  3  4  1  0  0  0  0
  3  2  1  0  0  0  0
  6  7  1  0  0  0  0
  6  5  1  0  0  0  0
  7 12  1  0  0  0  0
  8 13  1  0  0  0  0
  8  7  2  0  0  0  0
  9  8  1  0  0  0  0
 10  9  2  0  0  0  0
 10 11  1  0  0  0  0
 11  6  2  0  0  0  0
 14 10  1  0  0  0  0
 16 21  1  6  0  0  0
 16 20  1  0  0  0  0
 17 15  1  6  0  0  0
 17 18  1  0  0  0  0
 17 16  1  0  0  0  0
 18 19  1  0  0  0  0
 19 20  1  0  0  0  0
 20 23  1  6  0  0  0
 21 22  1  0  0  0  0
 23 24  1  0  0  0  0
M  END
>  <minimizedAffinity>
-4.42663527

$$$$

 OpenBabel03272503483D

 24 25  0  0  1  0  0  0  0  0999 V2000
   36.7660   27.0720   34.8430 O   0  0  0  0  0  0  0  0  0  0  0  0
   38.2640   26.7940   34.8460 P   0  0  2  0  0  0  0  0  0  0  0  0
   38.8900   27.6070   36.1790 O   0  0  0  0  0  0  0  0  0  0  0  0
   38.8570   27.0140   36.9830 H   0  0  0  0  0  0  0  0  0  0  0  0
   39.0330   27.3260   33.4100 O   0  0  0  0  0  0  0  0  0  0  0  0
   40.3300   26.9660   33.0890 C   0  0  0  0  0  0  0  0  0  0  0  0
   40.7520   26.4590   31.8410 C   0  0  0  0  0  0  0  0  0  0  0  0
   42.0930   26.1440   31.6750 C   0  0  0  0  0  0  0  0  0  0  0  0
   42.9400   26.3390   32.7250 N   0  0  0  0  0  0  0  0  0  0  0  0
   42.5120   26.8270   33.9160 C   0  0  0  0  0  0  0  0  0  0  0  0
   41.1990   27.1420   34.0980 N   0  0  0  0  0  0  0  0  0  0  0  0
   39.9720   26.3560   31.0970 H   0  0  0  0  0  0  0  0  0  0  0  0
   42.3930   25.7610   30.7210 H   0  0  0  0  0  0  0  0  0  0  0  0
   43.2330   26.9570   34.7050 H   0  0  0  0  0  0  0  0  0  0  0  0
   38.5670   25.1300   34.9540 O   0  0  0  0  0  0  0  0  0  0  0  0
   38.7970   23.1920   36.2090 C   0  0  1  0  0  3  0  0  0  0  0  0
   38.8540   24.7180   36.2240 C   0  0  2  0  0  3  0  0  0  0  0  0
   37.9150   25.0700   37.1690 O   0  0  0  0  0  0  0  0  0  0  0  0
   38.1880   24.2150   38.2300 C   0  0  0  0  0  2  0  0  0  0  0  0
   38.6040   22.8880   37.6640 C   0  0  2  0  0  3  0  0  0  0  0  0
   37.7440   22.7650   35.3990 O   0  0  0  0  0  0  0  0  0  0  0  0
   37.9170   21.8380   35.0660 H   0  0  0  0  0  0  0  0  0  0  0  0
   39.8090   22.4740   38.2140 O   0  0  0  0  0  0  0  0  0  0  0  0
   39.7590   22.2090   39.1490 H   0  0  0  0  0  0  0  0  0  0  0  0
  2  1  2  6  0  0  0
  2 15  1  0  0  0  0
  2  3  1  0  0  0  0
  3  4  1  0  0  0  0
  5  2  1  0  0  0  0
  6  5  1  0  0  0  0
  6 11  1  0  0  0  0
  7  6  2  0  0  0  0
  8  7  1  0  0  0  0
  8  9  2  0  0  0  0
  9 10  1  0  0  0  0
 10 11  2  0  0  0  0
 10 14  1  0  0  0  0
 12  7  1  0  0  0  0
 13  8  1  0  0  0  0
 16 21  1  6  0  0  0
 16 17  1  0  0  0  0
 16 20  1  0  0  0  0
 17 15  1  6  0  0  0
 17 18  1  0  0  0  0
 18 19  1  0  0  0  0
 20 23  1  1  0  0  0
 20 19  1  0  0  0  0
 22 21  1  0  0  0  0
 23 24  1  0  0  0  0
M  END
>  <minimizedAffinity>
-4.38443279

$$$$

 OpenBabel03272503483D

 24 25  0  0  1  0  0  0  0  0999 V2000
   36.8660   27.4890   34.7950 O   0  0  0  0  0  0  0  0  0  0  0  0
   38.0090   26.6630   35.3730 P   0  0  2  0  0  0  0  0  0  0  0  0
   38.7760   27.6470   36.5020 O   0  0  0  0  0  0  0  0  0  0  0  0
   38.3440   27.5340   37.3970 H   0  0  0  0  0  0  0  0  0  0  0  0
   39.1230   26.1550   34.1740 O   0  0  0  0  0  0  0  0  0  0  0  0
   38.9350   26.4230   32.8290 C   0  0  0  0  0  0  0  0  0  0  0  0
   39.6070   27.4220   32.0940 C   0  0  0  0  0  0  0  0  0  0  0  0
   39.3070   27.5660   30.7470 C   0  0  0  0  0  0  0  0  0  0  0  0
   38.3770   26.7360   30.1970 N   0  0  0  0  0  0  0  0  0  0  0  0
   37.7430   25.7820   30.9240 C   0  0  0  0  0  0  0  0  0  0  0  0
   38.0240   25.6250   32.2470 N   0  0  0  0  0  0  0  0  0  0  0  0
   40.3220   28.0090   32.6580 H   0  0  0  0  0  0  0  0  0  0  0  0
   39.8280   28.3300   30.2070 H   0  0  0  0  0  0  0  0  0  0  0  0
   37.0180   25.1590   30.4280 H   0  0  0  0  0  0  0  0  0  0  0  0
   37.4220   25.2490   36.1000 O   0  0  0  0  0  0  0  0  0  0  0  0
   38.9320   23.5000   36.3040 C   0  0  1  0  0  3  0  0  0  0  0  0
   38.2960   24.7030   36.9960 C   0  0  2  0  0  3  0  0  0  0  0  0
   37.7070   24.1610   38.1180 O   0  0  0  0  0  0  0  0  0  0  0  0
   38.6950   23.3300   38.6310 C   0  0  0  0  0  2  0  0  0  0  0  0
   39.4320   22.7130   37.4770 C   0  0  2  0  0  3  0  0  0  0  0  0
   37.9740   22.8310   35.5420 O   0  0  0  0  0  0  0  0  0  0  0  0
   38.4140   22.3140   34.8080 H   0  0  0  0  0  0  0  0  0  0  0  0
   40.8000   22.8990   37.6100 O   0  0  0  0  0  0  0  0  0  0  0  0
   41.2130   22.3790   38.3230 H   0  0  0  0  0  0  0  0  0  0  0  0
  2  1  2  6  0  0  0
  2 15  1  0  0  0  0
  2  3  1  0  0  0  0
  3  4  1  0  0  0  0
  5  2  1  0  0  0  0
  6  5  1  0  0  0  0
  7 12  1  0  0  0  0
  7  6  2  0  0  0  0
  8  7  1  0  0  0  0
  9  8  2  0  0  0  0
  9 10  1  0  0  0  0
 10 11  2  0  0  0  0
 11  6  1  0  0  0  0
 13  8  1  0  0  0  0
 14 10  1  0  0  0  0
 16 21  1  1  0  0  0
 16 17  1  0  0  0  0
 16 20  1  0  0  0  0
 17 15  1  6  0  0  0
 17 18  1  0  0  0  0
 18 19  1  0  0  0  0
 20 23  1  1  0  0  0
 20 19  1  0  0  0  0
 22 21  1  0  0  0  0
 23 24  1  0  0  0  0
M  END
>  <minimizedAffinity>
-4.35393286

$$$$

 OpenBabel03272503483D

 24 25  0  0  1  0  0  0  0  0999 V2000
   35.0740   24.8310   30.8680 O   0  0  0  0  0  0  0  0  0  0  0  0
   36.4740   24.6300   31.4350 P   0  0  2  0  0  0  0  0  0  0  0  0
   37.4960   24.4490   30.1110 O   0  0  0  0  0  0  0  0  0  0  0  0
   37.8270   25.3440   29.8150 H   0  0  0  0  0  0  0  0  0  0  0  0
   36.5780   23.2610   32.4590 O   0  0  0  0  0  0  0  0  0  0  0  0
   36.2330   21.9900   32.0320 C   0  0  0  0  0  0  0  0  0  0  0  0
   35.1540   21.2270   32.5280 C   0  0  0  0  0  0  0  0  0  0  0  0
   34.9380   19.9650   31.9940 C   0  0  0  0  0  0  0  0  0  0  0  0
   35.7750   19.5210   31.0160 N   0  0  0  0  0  0  0  0  0  0  0  0
   36.8060   20.2730   30.5540 C   0  0  0  0  0  0  0  0  0  0  0  0
   37.0360   21.5140   31.0660 N   0  0  0  0  0  0  0  0  0  0  0  0
   34.5700   21.7030   33.3060 H   0  0  0  0  0  0  0  0  0  0  0  0
   34.1140   19.4020   32.3840 H   0  0  0  0  0  0  0  0  0  0  0  0
   37.4320   19.8630   29.7790 H   0  0  0  0  0  0  0  0  0  0  0  0
   36.9360   25.9600   32.3800 O   0  0  0  0  0  0  0  0  0  0  0  0
   37.2830   27.8700   31.1100 C   0  0  1  0  0  3  0  0  0  0  0  0
   36.3110   27.1190   32.0160 C   0  0  2  0  0  3  0  0  0  0  0  0
   36.0840   27.9990   33.0520 O   0  0  0  0  0  0  0  0  0  0  0  0
   35.8560   29.2080   32.4050 C   0  0  0  0  0  2  0  0  0  0  0  0
   36.7540   29.2700   31.2040 C   0  0  2  0  0  3  0  0  0  0  0  0
   38.5850   27.7270   31.5880 O   0  0  0  0  0  0  0  0  0  0  0  0
   39.2430   27.8560   30.8470 H   0  0  0  0  0  0  0  0  0  0  0  0
   36.0270   29.5680   30.0600 O   0  0  0  0  0  0  0  0  0  0  0  0
   35.6890   30.4800   30.0200 H   0  0  0  0  0  0  0  0  0  0  0  0
  2  1  2  6  0  0  0
  2 15  1  0  0  0  0
  2  5  1  0  0  0  0
  3  2  1  0  0  0  0
  4  3  1  0  0  0  0
  6  5  1  0  0  0  0
  6  7  1  0  0  0  0
  7 12  1  0  0  0  0
  8 13  1  0  0  0  0
  8  7  2  0  0  0  0
  9  8  1  0  0  0  0
 10  9  2  0  0  0  0
 10 11  1  0  0  0  0
 11  6  2  0  0  0  0
 14 10  1  0  0  0  0
 16 20  1  0  0  0  0
 16 21  1  1  0  0  0
 16 17  1  0  0  0  0
 17 15  1  1  0  0  0
 17 18  1  0  0  0  0
 19 18  1  0  0  0  0
 20 23  1  6  0  0  0
 20 19  1  0  0  0  0
 22 21  1  0  0  0  0
 24 23  1  0  0  0  0
M  END
>  <minimizedAffinity>
-4.34781313

$$$$

 OpenBabel03272503483D

 24 25  0  0  1  0  0  0  0  0999 V2000
   38.5860   21.1650   32.9480 O   0  0  0  0  0  0  0  0  0  0  0  0
   37.4100   21.9960   33.4470 P   0  0  2  0  0  0  0  0  0  0  0  0
   36.3620   20.9190   34.2020 O   0  0  0  0  0  0  0  0  0  0  0  0
   36.6080   20.8280   35.1670 H   0  0  0  0  0  0  0  0  0  0  0  0
   36.6040   22.8210   32.1800 O   0  0  0  0  0  0  0  0  0  0  0  0
   37.0640   24.0230   31.6720 C   0  0  0  0  0  0  0  0  0  0  0  0
   38.2960   24.2140   31.0110 C   0  0  0  0  0  0  0  0  0  0  0  0
   38.6130   25.4850   30.5570 C   0  0  0  0  0  0  0  0  0  0  0  0
   37.7200   26.4920   30.7700 N   0  0  0  0  0  0  0  0  0  0  0  0
   36.5410   26.2860   31.4080 C   0  0  0  0  0  0  0  0  0  0  0  0
   36.2110   25.0440   31.8620 N   0  0  0  0  0  0  0  0  0  0  0  0
   38.9080   23.3260   30.9100 H   0  0  0  0  0  0  0  0  0  0  0  0
   39.5530   25.6090   30.0580 H   0  0  0  0  0  0  0  0  0  0  0  0
   35.8790   27.1250   31.5450 H   0  0  0  0  0  0  0  0  0  0  0  0
   37.9350   23.1910   34.5290 O   0  0  0  0  0  0  0  0  0  0  0  0
   38.0400   23.6680   36.7970 C   0  0  1  0  0  3  0  0  0  0  0  0
   38.4230   22.6800   35.6980 C   0  0  2  0  0  3  0  0  0  0  0  0
   39.7980   22.6250   35.7720 O   0  0  0  0  0  0  0  0  0  0  0  0
   40.0420   22.4940   37.1340 C   0  0  0  0  0  2  0  0  0  0  0  0
   39.0210   23.3100   37.8720 C   0  0  2  0  0  3  0  0  0  0  0  0
   38.1700   24.9740   36.3260 O   0  0  0  0  0  0  0  0  0  0  0  0
   37.5820   25.5910   36.8480 H   0  0  0  0  0  0  0  0  0  0  0  0
   38.3870   22.5470   38.8420 O   0  0  0  0  0  0  0  0  0  0  0  0
   38.9460   22.3140   39.6040 H   0  0  0  0  0  0  0  0  0  0  0  0
  2  1  2  6  0  0  0
  2  3  1  0  0  0  0
  2 15  1  0  0  0  0
  3  4  1  0  0  0  0
  5  2  1  0  0  0  0
  6 11  1  0  0  0  0
  6  5  1  0  0  0  0
  7  6  2  0  0  0  0
  8  9  2  0  0  0  0
  8  7  1  0  0  0  0
  9 10  1  0  0  0  0
 10 14  1  0  0  0  0
 10 11  2  0  0  0  0
 12  7  1  0  0  0  0
 13  8  1  0  0  0  0
 16 21  1  6  0  0  0
 16 20  1  0  0  0  0
 17 15  1  6  0  0  0
 17 18  1  0  0  0  0
 17 16  1  0  0  0  0
 18 19  1  0  0  0  0
 19 20  1  0  0  0  0
 20 23  1  1  0  0  0
 21 22  1  0  0  0  0
 23 24  1  0  0  0  0
M  END
>  <minimizedAffinity>
-4.27693176

$$$$
