
 OpenBabel03272504563D

 33 35  0  0  1  0  0  0  0  0999 V2000
   37.0900   31.7240   48.5880 C   0  0  1  0  0  0  0  0  0  0  0  0
   36.4510   30.8140   47.6630 C   0  0  0  0  0  0  0  0  0  0  0  0
   37.3120   30.2850   48.7550 C   0  0  2  0  0  0  0  0  0  0  0  0
   36.5390   32.2040   49.4700 H   0  0  0  0  0  0  0  0  0  0  0  0
   35.4170   31.0840   47.6260 H   0  0  0  0  0  0  0  0  0  0  0  0
   36.8850   30.7700   46.6410 H   0  0  0  0  0  0  0  0  0  0  0  0
   38.0840   29.6560   48.3520 H   0  0  0  0  0  0  0  0  0  0  0  0
   38.2720   32.5450   48.1600 C   0  0  0  0  0  0  0  0  0  0  0  0
   38.7230   33.5080   49.0940 C   0  0  0  0  0  0  0  0  0  0  0  0
   39.7970   34.2590   48.6760 C   0  0  0  0  0  0  0  0  0  0  0  0
   40.3450   34.0410   47.4350 N   0  0  0  0  0  0  0  0  0  0  0  0
   39.8740   33.1050   46.5780 C   0  0  0  0  0  0  0  0  0  0  0  0
   38.8060   32.3410   46.9660 N   0  0  0  0  0  0  0  0  0  0  0  0
   40.4190   32.8790   45.3060 N   0  0  0  0  0  0  0  0  0  0  0  0
   38.2880   33.6720   50.0650 H   0  0  0  0  0  0  0  0  0  0  0  0
   40.2560   35.0330   49.2710 H   0  0  0  0  0  0  0  0  0  0  0  0
   39.9720   33.6630   44.7560 H   0  0  0  0  0  0  0  0  0  0  0  0
   41.0600   32.0700   45.2510 H   0  0  0  0  0  0  0  0  0  0  0  0
   36.6330   29.6960   49.8300 O   0  0  0  0  0  0  0  0  0  0  0  0
   34.5650   28.2920   50.4450 O   0  0  0  0  0  0  0  0  0  0  0  0
   35.1240   29.1610   49.3600 P   0  0  1  0  0  0  0  0  0  0  0  0
   34.0530   30.4980   49.2440 O   0  0  0  0  0  0  0  0  0  0  0  0
   33.3670   30.5080   49.9220 H   0  0  0  0  0  0  0  0  0  0  0  0
   35.2670   28.3690   47.8820 O   0  0  0  0  0  0  0  0  0  0  0  0
   33.2660   27.1310   48.1470 C   0  0  1  0  0  3  0  0  0  0  0  0
   34.0650   28.0470   47.2910 C   0  0  1  0  0  3  0  0  0  0  0  0
   33.2930   29.1410   46.9700 O   0  0  0  0  0  0  0  0  0  0  0  0
   31.9640   28.7880   47.1080 C   0  0  0  0  0  2  0  0  0  0  0  0
   31.8940   27.7390   48.1870 C   0  0  2  0  0  3  0  0  0  0  0  0
   33.1320   25.8500   47.5700 O   0  0  0  0  0  0  0  0  0  0  0  0
   34.0280   25.4220   47.5420 H   0  0  0  0  0  0  0  0  0  0  0  0
   31.6650   28.3370   49.4250 O   0  0  0  0  0  0  0  0  0  0  0  0
   30.7190   28.1290   49.6940 H   0  0  0  0  0  0  0  0  0  0  0  0
  1  3  1  0  0  0  0
  1  4  1  1  0  0  0
  2  1  1  0  0  0  0
  2  3  1  0  0  0  0
  3  7  1  6  0  0  0
  3 19  1  0  0  0  0
  5  2  1  0  0  0  0
  6  2  1  0  0  0  0
  8  1  1  0  0  0  0
  8  9  1  0  0  0  0
  9 15  1  0  0  0  0
 10  9  2  0  0  0  0
 10 16  1  0  0  0  0
 11 10  1  0  0  0  0
 12 13  1  0  0  0  0
 12 11  2  0  0  0  0
 13  8  2  0  0  0  0
 14 12  1  0  0  0  0
 17 14  1  0  0  0  0
 18 14  1  0  0  0  0
 21 19  1  0  0  0  0
 21 20  2  1  0  0  0
 22 21  1  0  0  0  0
 22 23  1  0  0  0  0
 24 21  1  0  0  0  0
 25 30  1  6  0  0  0
 25 29  1  0  0  0  0
 26 24  1  1  0  0  0
 26 25  1  0  0  0  0
 27 28  1  0  0  0  0
 27 26  1  0  0  0  0
 28 29  1  0  0  0  0
 29 32  1  1  0  0  0
 31 30  1  0  0  0  0
 32 33  1  0  0  0  0
M  END
>  <minimizedAffinity>
-4.74558926

>  <minimizedRMSD>
0.555876791

$$$$
