
 OpenBabel03272501043D

 30 32  0  0  1  0  0  0  0  0999 V2000
   39.0470   32.5400   47.7450 C   0  0  2  0  0  0  0  0  0  0  0  0
   38.0020   32.6410   48.8480 C   0  0  2  0  0  0  0  0  0  0  0  0
   38.7850   33.2820   49.9240 C   0  0  0  0  0  0  0  0  0  0  0  0
   39.6010   34.2190   49.2980 O   0  0  0  0  0  0  0  0  0  0  0  0
   39.6850   33.9290   47.9720 C   0  0  0  0  0  0  0  0  0  0  0  0
   39.8030   31.7740   47.9550 H   0  0  0  0  0  0  0  0  0  0  0  0
   37.2250   33.3260   48.4090 H   0  0  0  0  0  0  0  0  0  0  0  0
   38.1030   33.7650   50.6540 H   0  0  0  0  0  0  0  0  0  0  0  0
   39.4200   32.4960   50.3950 H   0  0  0  0  0  0  0  0  0  0  0  0
   39.1040   34.6530   47.3730 H   0  0  0  0  0  0  0  0  0  0  0  0
   40.7220   33.8920   47.5940 H   0  0  0  0  0  0  0  0  0  0  0  0
   37.2380   29.2920   50.4140 C   0  0  0  0  0  0  0  0  0  0  0  0
   37.8980   30.5240   50.1980 C   0  0  0  0  0  0  0  0  0  0  0  0
   37.3900   31.3640   49.1710 C   0  0  0  0  0  0  0  0  0  0  0  0
   36.3040   30.9240   48.4670 N   0  0  0  0  0  0  0  0  0  0  0  0
   35.7070   29.7580   48.6960 C   0  0  0  0  0  0  0  0  0  0  0  0
   36.1630   28.9220   49.6730 N   0  0  0  0  0  0  0  0  0  0  0  0
   37.5990   28.6230   51.1930 H   0  0  0  0  0  0  0  0  0  0  0  0
   38.7530   30.8200   50.7880 H   0  0  0  0  0  0  0  0  0  0  0  0
   34.8590   29.5520   48.0550 H   0  0  0  0  0  0  0  0  0  0  0  0
   38.4710   32.4930   46.4980 O   0  0  0  0  0  0  0  0  0  0  0  0
   37.5990   31.1000   44.8020 C   0  0  2  0  0  0  0  0  0  0  0  0
   38.7050   31.3660   45.7570 C   0  0  1  0  0  0  0  0  0  0  0  0
   39.7120   31.7550   44.7460 O   0  0  0  0  0  0  0  0  0  0  0  0
   39.0570   32.7490   44.0220 C   0  0  0  0  0  0  0  0  0  0  0  0
   37.5820   32.4410   44.0390 C   0  0  1  0  0  0  0  0  0  0  0  0
   36.3770   30.9510   45.3820 O   0  0  0  0  0  0  0  0  0  0  0  0
   35.8800   30.1700   45.0810 H   0  0  0  0  0  0  0  0  0  0  0  0
   37.0420   32.2920   42.7870 O   0  0  0  0  0  0  0  0  0  0  0  0
   36.3190   32.9550   42.6490 H   0  0  0  0  0  0  0  0  0  0  0  0
  1  6  1  1  0  0  0
  1  5  1  0  0  0  0
  1  2  1  0  0  0  0
  2  7  1  6  0  0  0
  2 14  1  0  0  0  0
  2  3  1  0  0  0  0
  3  9  1  0  0  0  0
  3  8  1  0  0  0  0
  4  3  1  0  0  0  0
  5  4  1  0  0  0  0
 10  5  1  0  0  0  0
 11  5  1  0  0  0  0
 12 18  1  0  0  0  0
 13 12  1  0  0  0  0
 13 19  1  0  0  0  0
 14 13  2  0  0  0  0
 15 16  2  0  0  0  0
 15 14  1  0  0  0  0
 16 17  1  0  0  0  0
 17 12  2  0  0  0  0
 20 16  1  0  0  0  0
 21  1  1  0  0  0  0
 22 27  1  1  0  0  0
 22 23  1  0  0  0  0
 23 21  1  1  0  0  0
 24 23  1  0  0  0  0
 25 26  1  0  0  0  0
 25 24  1  0  0  0  0
 26 29  1  6  0  0  0
 26 22  1  0  0  0  0
 28 27  1  0  0  0  0
 30 29  1  0  0  0  0
M  END
>  <minimizedAffinity>
-5.40188694

>  <minimizedRMSD>
2.25766778

$$$$
