
 OpenBabel03272509193D

 33 35  0  0  1  0  0  0  0  0999 V2000
   39.0190   25.1070   33.7330 C   0  0  0  0  0  0  0  0  0  0  0  0
   39.1110   26.4440   33.3370 C   0  0  0  0  0  0  0  0  0  0  0  0
   40.2290   27.1130   33.8290 C   0  0  0  0  0  0  0  0  0  0  0  0
   41.1570   26.4630   34.6490 C   0  0  0  0  0  0  0  0  0  0  0  0
   40.9700   25.1290   34.9830 C   0  0  0  0  0  0  0  0  0  0  0  0
   39.8840   24.4370   34.5190 C   0  0  0  0  0  0  0  0  0  0  0  0
   40.3300   28.1500   33.5390 H   0  0  0  0  0  0  0  0  0  0  0  0
   41.9820   27.0770   34.9700 H   0  0  0  0  0  0  0  0  0  0  0  0
   41.7620   24.7800   35.6110 H   0  0  0  0  0  0  0  0  0  0  0  0
   38.3180   27.1160   31.1190 C   0  0  0  0  0  0  0  0  0  0  0  0
   38.1530   27.0980   32.4960 C   0  0  0  0  0  0  0  0  0  0  0  0
   37.0230   27.7430   33.0110 C   0  0  0  0  0  0  0  0  0  0  0  0
   36.1640   28.3410   32.1400 N   0  0  0  0  0  0  0  0  0  0  0  0
   36.3680   28.3310   30.8100 C   0  0  0  0  0  0  0  0  0  0  0  0
   37.4390   27.7210   30.3030 N   0  0  0  0  0  0  0  0  0  0  0  0
   39.1610   26.6420   30.6290 H   0  0  0  0  0  0  0  0  0  0  0  0
   35.5810   28.8550   30.2840 H   0  0  0  0  0  0  0  0  0  0  0  0
   36.7780   27.7670   34.4800 C   0  0  0  0  0  0  0  0  0  0  0  0
   36.5460   28.8010   34.8160 H   0  0  0  0  0  0  0  0  0  0  0  0
   37.7120   27.4580   34.9830 H   0  0  0  0  0  0  0  0  0  0  0  0
   35.9780   27.0530   34.7490 H   0  0  0  0  0  0  0  0  0  0  0  0
   37.9100   24.3660   33.2720 O   0  0  0  0  0  0  0  0  0  0  0  0
   36.9910   24.5290   33.6870 H   0  0  0  0  0  0  0  0  0  0  0  0
   39.7200   23.1200   34.8620 O   0  0  0  0  0  0  0  0  0  0  0  0
   39.6530   22.8680   37.2320 C   0  0  1  0  0  3  0  0  0  0  0  0
   38.9440   22.6260   35.9110 C   0  0  1  0  0  3  0  0  0  0  0  0
   37.8150   23.4820   35.9880 O   0  0  0  0  0  0  0  0  0  0  0  0
   37.3040   23.0680   37.2270 C   0  0  0  0  0  2  0  0  0  0  0  0
   38.5180   23.2880   38.1270 C   0  0  1  0  0  3  0  0  0  0  0  0
   40.3020   21.7540   37.7220 O   0  0  0  0  0  0  0  0  0  0  0  0
   40.3310   21.0120   37.0450 H   0  0  0  0  0  0  0  0  0  0  0  0
   38.4390   22.5090   39.2810 O   0  0  0  0  0  0  0  0  0  0  0  0
   37.4730   22.3520   39.4320 H   0  0  0  0  0  0  0  0  0  0  0  0
  1  6  1  0  0  0  0
  2  1  2  0  0  0  0
  2  3  1  0  0  0  0
  3  4  2  0  0  0  0
  4  8  1  0  0  0  0
  4  5  1  0  0  0  0
  5  9  1  0  0  0  0
  6 24  1  0  0  0  0
  6  5  2  0  0  0  0
  7  3  1  0  0  0  0
 10 11  1  0  0  0  0
 11 12  2  0  0  0  0
 11  2  1  0  0  0  0
 12 18  1  0  0  0  0
 13 12  1  0  0  0  0
 14 13  2  0  0  0  0
 15 14  1  0  0  0  0
 15 10  2  0  0  0  0
 16 10  1  0  0  0  0
 17 14  1  0  0  0  0
 18 21  1  0  0  0  0
 18 19  1  0  0  0  0
 18 20  1  0  0  0  0
 22 23  1  0  0  0  0
 22  1  1  0  0  0  0
 25 30  1  1  0  0  0
 25 29  1  0  0  0  0
 26 24  1  6  0  0  0
 26 27  1  0  0  0  0
 26 25  1  0  0  0  0
 27 28  1  0  0  0  0
 28 29  1  0  0  0  0
 29 32  1  1  0  0  0
 31 30  1  0  0  0  0
 32 33  1  0  0  0  0
M  END
>  <minimizedAffinity>
-6.22455931

$$$$

 OpenBabel03272509193D

 33 35  0  0  1  0  0  0  0  0999 V2000
   39.0340   25.0880   33.7300 C   0  0  0  0  0  0  0  0  0  0  0  0
   39.1270   26.4210   33.3220 C   0  0  0  0  0  0  0  0  0  0  0  0
   40.2380   27.0970   33.8200 C   0  0  0  0  0  0  0  0  0  0  0  0
   41.1590   26.4570   34.6560 C   0  0  0  0  0  0  0  0  0  0  0  0
   40.9720   25.1250   35.0000 C   0  0  0  0  0  0  0  0  0  0  0  0
   39.8920   24.4270   34.5310 C   0  0  0  0  0  0  0  0  0  0  0  0
   40.3390   28.1320   33.5230 H   0  0  0  0  0  0  0  0  0  0  0  0
   41.9790   27.0760   34.9800 H   0  0  0  0  0  0  0  0  0  0  0  0
   41.7570   24.7850   35.6400 H   0  0  0  0  0  0  0  0  0  0  0  0
   37.0760   27.7210   32.9980 C   0  0  0  0  0  0  0  0  0  0  0  0
   38.1770   27.0660   32.4660 C   0  0  0  0  0  0  0  0  0  0  0  0
   38.3060   27.0680   31.0720 C   0  0  0  0  0  0  0  0  0  0  0  0
   37.3560   27.7050   30.3330 N   0  0  0  0  0  0  0  0  0  0  0  0
   36.3050   28.3260   30.8980 C   0  0  0  0  0  0  0  0  0  0  0  0
   36.1670   28.3340   32.2240 N   0  0  0  0  0  0  0  0  0  0  0  0
   36.8930   27.7730   34.0660 H   0  0  0  0  0  0  0  0  0  0  0  0
   35.6610   28.7730   30.1520 H   0  0  0  0  0  0  0  0  0  0  0  0
   39.4620   26.3860   30.4260 C   0  0  0  0  0  0  0  0  0  0  0  0
   39.1100   25.7270   29.6010 H   0  0  0  0  0  0  0  0  0  0  0  0
   39.9390   25.7380   31.1850 H   0  0  0  0  0  0  0  0  0  0  0  0
   40.2030   27.1280   30.0780 H   0  0  0  0  0  0  0  0  0  0  0  0
   37.9320   24.3400   33.2630 O   0  0  0  0  0  0  0  0  0  0  0  0
   37.0080   24.5050   33.6670 H   0  0  0  0  0  0  0  0  0  0  0  0
   39.7280   23.1120   34.8840 O   0  0  0  0  0  0  0  0  0  0  0  0
   39.6560   22.8740   37.2550 C   0  0  1  0  0  3  0  0  0  0  0  0
   38.9480   22.6270   35.9340 C   0  0  1  0  0  3  0  0  0  0  0  0
   37.8220   23.4870   36.0040 O   0  0  0  0  0  0  0  0  0  0  0  0
   37.3070   23.0810   37.2440 C   0  0  0  0  0  2  0  0  0  0  0  0
   38.5200   23.3020   38.1460 C   0  0  1  0  0  3  0  0  0  0  0  0
   40.3000   21.7600   37.7520 O   0  0  0  0  0  0  0  0  0  0  0  0
   40.3280   21.0150   37.0800 H   0  0  0  0  0  0  0  0  0  0  0  0
   38.4360   22.5290   39.3040 O   0  0  0  0  0  0  0  0  0  0  0  0
   37.4690   22.3760   39.4540 H   0  0  0  0  0  0  0  0  0  0  0  0
  1  6  1  0  0  0  0
  2  1  2  0  0  0  0
  2  3  1  0  0  0  0
  3  4  2  0  0  0  0
  4  8  1  0  0  0  0
  4  5  1  0  0  0  0
  5  9  1  0  0  0  0
  6 24  1  0  0  0  0
  6  5  2  0  0  0  0
  7  3  1  0  0  0  0
 10 16  1  0  0  0  0
 11 10  1  0  0  0  0
 11  2  1  0  0  0  0
 12 11  2  0  0  0  0
 13 14  2  0  0  0  0
 13 12  1  0  0  0  0
 14 15  1  0  0  0  0
 15 10  2  0  0  0  0
 17 14  1  0  0  0  0
 18 12  1  0  0  0  0
 18 20  1  0  0  0  0
 19 18  1  0  0  0  0
 21 18  1  0  0  0  0
 22 23  1  0  0  0  0
 22  1  1  0  0  0  0
 25 30  1  1  0  0  0
 25 29  1  0  0  0  0
 26 24  1  6  0  0  0
 26 27  1  0  0  0  0
 26 25  1  0  0  0  0
 27 28  1  0  0  0  0
 28 29  1  0  0  0  0
 29 32  1  1  0  0  0
 31 30  1  0  0  0  0
 32 33  1  0  0  0  0
M  END
>  <minimizedAffinity>
-5.9721961

$$$$

 OpenBabel03272509193D

 33 35  0  0  1  0  0  0  0  0999 V2000
   38.0730   25.0660   34.2630 C   0  0  0  0  0  0  0  0  0  0  0  0
   38.7830   25.2270   35.4560 C   0  0  0  0  0  0  0  0  0  0  0  0
   38.7150   26.5080   35.9960 C   0  0  0  0  0  0  0  0  0  0  0  0
   37.9860   27.5210   35.3640 C   0  0  0  0  0  0  0  0  0  0  0  0
   37.3150   27.2540   34.1790 C   0  0  0  0  0  0  0  0  0  0  0  0
   37.3590   26.0070   33.6160 C   0  0  0  0  0  0  0  0  0  0  0  0
   39.2530   26.6650   36.9210 H   0  0  0  0  0  0  0  0  0  0  0  0
   38.0020   28.4720   35.8710 H   0  0  0  0  0  0  0  0  0  0  0  0
   36.8080   28.1260   33.8250 H   0  0  0  0  0  0  0  0  0  0  0  0
   40.8060   23.8610   35.6640 C   0  0  0  0  0  0  0  0  0  0  0  0
   39.5260   24.1810   36.0930 C   0  0  0  0  0  0  0  0  0  0  0  0
   39.0100   23.4410   37.1640 C   0  0  0  0  0  0  0  0  0  0  0  0
   39.7850   22.4640   37.7110 N   0  0  0  0  0  0  0  0  0  0  0  0
   41.0210   22.1910   37.2570 C   0  0  0  0  0  0  0  0  0  0  0  0
   41.5290   22.8870   36.2390 N   0  0  0  0  0  0  0  0  0  0  0  0
   41.2890   24.3800   34.8430 H   0  0  0  0  0  0  0  0  0  0  0  0
   41.4800   21.3850   37.8150 H   0  0  0  0  0  0  0  0  0  0  0  0
   37.6430   23.7270   37.6810 C   0  0  0  0  0  0  0  0  0  0  0  0
   37.0610   22.7840   37.7790 H   0  0  0  0  0  0  0  0  0  0  0  0
   37.1250   24.3580   36.9360 H   0  0  0  0  0  0  0  0  0  0  0  0
   37.7000   24.2800   38.6360 H   0  0  0  0  0  0  0  0  0  0  0  0
   38.0990   23.7920   33.6570 O   0  0  0  0  0  0  0  0  0  0  0  0
   38.9430   23.4840   33.1700 H   0  0  0  0  0  0  0  0  0  0  0  0
   36.6880   25.7660   32.4440 O   0  0  0  0  0  0  0  0  0  0  0  0
   37.2720   27.2520   30.6730 C   0  0  1  0  0  3  0  0  0  0  0  0
   37.2250   25.8130   31.1570 C   0  0  1  0  0  3  0  0  0  0  0  0
   38.5950   25.4750   31.3010 O   0  0  0  0  0  0  0  0  0  0  0  0
   39.0530   25.8470   30.0290 C   0  0  0  0  0  2  0  0  0  0  0  0
   38.6060   27.3070   29.9780 C   0  0  1  0  0  3  0  0  0  0  0  0
   36.2390   27.5800   29.8190 O   0  0  0  0  0  0  0  0  0  0  0  0
   35.5400   26.8600   29.7860 H   0  0  0  0  0  0  0  0  0  0  0  0
   38.4980   27.7570   28.6630 O   0  0  0  0  0  0  0  0  0  0  0  0
   39.1210   27.1960   28.1350 H   0  0  0  0  0  0  0  0  0  0  0  0
  1  2  1  0  0  0  0
  2  3  2  0  0  0  0
  2 11  1  0  0  0  0
  3  7  1  0  0  0  0
  4  8  1  0  0  0  0
  4  3  1  0  0  0  0
  5  4  2  0  0  0  0
  6  5  1  0  0  0  0
  6  1  2  0  0  0  0
  9  5  1  0  0  0  0
 10 11  2  0  0  0  0
 10 15  1  0  0  0  0
 11 12  1  0  0  0  0
 12 18  1  0  0  0  0
 12 13  2  0  0  0  0
 14 13  1  0  0  0  0
 14 17  1  0  0  0  0
 15 14  2  0  0  0  0
 16 10  1  0  0  0  0
 18 19  1  0  0  0  0
 18 21  1  0  0  0  0
 20 18  1  0  0  0  0
 22  1  1  0  0  0  0
 23 22  1  0  0  0  0
 24  6  1  0  0  0  0
 25 30  1  6  0  0  0
 25 26  1  0  0  0  0
 26 27  1  0  0  0  0
 26 24  1  1  0  0  0
 28 27  1  0  0  0  0
 29 32  1  6  0  0  0
 29 28  1  0  0  0  0
 29 25  1  0  0  0  0
 31 30  1  0  0  0  0
 33 32  1  0  0  0  0
M  END
>  <minimizedAffinity>
-5.81668854

$$$$

 OpenBabel03272509193D

 33 35  0  0  1  0  0  0  0  0999 V2000
   37.7430   23.1590   32.9500 C   0  0  0  0  0  0  0  0  0  0  0  0
   37.1140   22.9030   31.7290 C   0  0  0  0  0  0  0  0  0  0  0  0
   36.4960   24.0130   31.1590 C   0  0  0  0  0  0  0  0  0  0  0  0
   36.5260   25.2620   31.7900 C   0  0  0  0  0  0  0  0  0  0  0  0
   37.1810   25.4060   33.0040 C   0  0  0  0  0  0  0  0  0  0  0  0
   37.8000   24.3390   33.5970 C   0  0  0  0  0  0  0  0  0  0  0  0
   35.9990   23.8490   30.2120 H   0  0  0  0  0  0  0  0  0  0  0  0
   36.0160   26.0480   31.2580 H   0  0  0  0  0  0  0  0  0  0  0  0
   37.1150   26.4140   33.3540 H   0  0  0  0  0  0  0  0  0  0  0  0
   38.0990   21.2470   30.2170 C   0  0  0  0  0  0  0  0  0  0  0  0
   37.0900   21.6200   31.0930 C   0  0  0  0  0  0  0  0  0  0  0  0
   36.0660   20.6930   31.3170 C   0  0  0  0  0  0  0  0  0  0  0  0
   36.1210   19.4960   30.6690 N   0  0  0  0  0  0  0  0  0  0  0  0
   37.1230   19.1820   29.8270 C   0  0  0  0  0  0  0  0  0  0  0  0
   38.1060   20.0530   29.6040 N   0  0  0  0  0  0  0  0  0  0  0  0
   38.9340   21.8990   29.9820 H   0  0  0  0  0  0  0  0  0  0  0  0
   36.9940   18.1910   29.4100 H   0  0  0  0  0  0  0  0  0  0  0  0
   34.9480   21.0210   32.2440 C   0  0  0  0  0  0  0  0  0  0  0  0
   33.9690   20.7970   31.7650 H   0  0  0  0  0  0  0  0  0  0  0  0
   34.9790   22.1090   32.4380 H   0  0  0  0  0  0  0  0  0  0  0  0
   35.0730   20.4860   33.2030 H   0  0  0  0  0  0  0  0  0  0  0  0
   38.3910   22.0790   33.5870 O   0  0  0  0  0  0  0  0  0  0  0  0
   37.8300   21.3620   34.0510 H   0  0  0  0  0  0  0  0  0  0  0  0
   38.4420   24.5060   34.7980 O   0  0  0  0  0  0  0  0  0  0  0  0
   38.9500   23.0960   36.6510 C   0  0  1  0  0  3  0  0  0  0  0  0
   37.9800   24.0970   36.0490 C   0  0  1  0  0  3  0  0  0  0  0  0
   38.1140   25.2280   36.8950 O   0  0  0  0  0  0  0  0  0  0  0  0
   37.9100   24.6060   38.1350 C   0  0  0  0  0  2  0  0  0  0  0  0
   38.9870   23.5230   38.0940 C   0  0  1  0  0  3  0  0  0  0  0  0
   38.5410   21.7850   36.5200 O   0  0  0  0  0  0  0  0  0  0  0  0
   37.7490   21.7010   35.9070 H   0  0  0  0  0  0  0  0  0  0  0  0
   38.6850   22.4760   38.9640 O   0  0  0  0  0  0  0  0  0  0  0  0
   38.1140   22.8710   39.6700 H   0  0  0  0  0  0  0  0  0  0  0  0
  1 22  1  0  0  0  0
  1  6  1  0  0  0  0
  2  1  2  0  0  0  0
  3  2  1  0  0  0  0
  3  4  2  0  0  0  0
  4  5  1  0  0  0  0
  5  9  1  0  0  0  0
  5  6  2  0  0  0  0
  6 24  1  0  0  0  0
  7  3  1  0  0  0  0
  8  4  1  0  0  0  0
 10 11  1  0  0  0  0
 11 12  2  0  0  0  0
 11  2  1  0  0  0  0
 12 18  1  0  0  0  0
 13 12  1  0  0  0  0
 14 13  2  0  0  0  0
 15 14  1  0  0  0  0
 15 10  2  0  0  0  0
 16 10  1  0  0  0  0
 17 14  1  0  0  0  0
 18 20  1  0  0  0  0
 18 21  1  0  0  0  0
 19 18  1  0  0  0  0
 22 23  1  0  0  0  0
 25 30  1  1  0  0  0
 25 29  1  0  0  0  0
 26 24  1  6  0  0  0
 26 25  1  0  0  0  0
 26 27  1  0  0  0  0
 27 28  1  0  0  0  0
 29 28  1  0  0  0  0
 29 32  1  1  0  0  0
 31 30  1  0  0  0  0
 32 33  1  0  0  0  0
M  END
>  <minimizedAffinity>
-5.74413824

$$$$

 OpenBabel03272509193D

 33 35  0  0  1  0  0  0  0  0999 V2000
   37.5080   25.7370   33.0130 C   0  0  0  0  0  0  0  0  0  0  0  0
   36.7280   26.2040   31.9530 C   0  0  0  0  0  0  0  0  0  0  0  0
   36.1770   25.2000   31.1600 C   0  0  0  0  0  0  0  0  0  0  0  0
   36.4120   23.8490   31.4390 C   0  0  0  0  0  0  0  0  0  0  0  0
   37.2050   23.4930   32.5210 C   0  0  0  0  0  0  0  0  0  0  0  0
   37.7650   24.4520   33.3230 C   0  0  0  0  0  0  0  0  0  0  0  0
   35.5660   25.5280   30.3300 H   0  0  0  0  0  0  0  0  0  0  0  0
   35.9360   23.1600   30.7610 H   0  0  0  0  0  0  0  0  0  0  0  0
   37.2870   22.4310   32.5980 H   0  0  0  0  0  0  0  0  0  0  0  0
   35.3780   28.2340   32.1900 C   0  0  0  0  0  0  0  0  0  0  0  0
   36.4950   27.5900   31.6780 C   0  0  0  0  0  0  0  0  0  0  0  0
   37.3660   28.3550   30.8930 C   0  0  0  0  0  0  0  0  0  0  0  0
   37.0670   29.6660   30.6820 N   0  0  0  0  0  0  0  0  0  0  0  0
   35.9690   30.2440   31.2010 C   0  0  0  0  0  0  0  0  0  0  0  0
   35.1290   29.5310   31.9510 N   0  0  0  0  0  0  0  0  0  0  0  0
   34.6480   27.7240   32.8100 H   0  0  0  0  0  0  0  0  0  0  0  0
   35.9020   31.2890   30.9240 H   0  0  0  0  0  0  0  0  0  0  0  0
   38.5860   27.7340   30.3080 C   0  0  0  0  0  0  0  0  0  0  0  0
   38.6630   27.9770   29.2250 H   0  0  0  0  0  0  0  0  0  0  0  0
   38.4820   26.6370   30.3940 H   0  0  0  0  0  0  0  0  0  0  0  0
   39.4860   28.0490   30.8690 H   0  0  0  0  0  0  0  0  0  0  0  0
   38.1000   26.7000   33.8590 O   0  0  0  0  0  0  0  0  0  0  0  0
   38.9080   27.2310   33.5270 H   0  0  0  0  0  0  0  0  0  0  0  0
   38.5450   24.0760   34.3860 O   0  0  0  0  0  0  0  0  0  0  0  0
   39.2420   23.0350   36.4140 C   0  0  1  0  0  3  0  0  0  0  0  0
   38.0950   23.6590   35.6390 C   0  0  1  0  0  3  0  0  0  0  0  0
   37.8220   24.8480   36.3630 O   0  0  0  0  0  0  0  0  0  0  0  0
   37.6790   24.3010   37.6470 C   0  0  0  0  0  2  0  0  0  0  0  0
   39.0150   23.5760   37.8010 C   0  0  1  0  0  3  0  0  0  0  0  0
   39.2320   21.6560   36.3990 O   0  0  0  0  0  0  0  0  0  0  0  0
   38.5600   21.2960   35.7440 H   0  0  0  0  0  0  0  0  0  0  0  0
   38.9340   22.5630   38.7560 O   0  0  0  0  0  0  0  0  0  0  0  0
   38.2080   22.8350   39.3730 H   0  0  0  0  0  0  0  0  0  0  0  0
  1  6  1  0  0  0  0
  1 22  1  0  0  0  0
  2  1  2  0  0  0  0
  3  4  2  0  0  0  0
  3  2  1  0  0  0  0
  4  5  1  0  0  0  0
  5  9  1  0  0  0  0
  5  6  2  0  0  0  0
  6 24  1  0  0  0  0
  7  3  1  0  0  0  0
  8  4  1  0  0  0  0
 10 16  1  0  0  0  0
 11  2  1  0  0  0  0
 11 10  2  0  0  0  0
 12 11  1  0  0  0  0
 13 12  2  0  0  0  0
 13 14  1  0  0  0  0
 14 15  2  0  0  0  0
 15 10  1  0  0  0  0
 17 14  1  0  0  0  0
 18 20  1  0  0  0  0
 18 21  1  0  0  0  0
 18 12  1  0  0  0  0
 19 18  1  0  0  0  0
 23 22  1  0  0  0  0
 25 30  1  1  0  0  0
 25 29  1  0  0  0  0
 26 24  1  6  0  0  0
 26 27  1  0  0  0  0
 26 25  1  0  0  0  0
 27 28  1  0  0  0  0
 28 29  1  0  0  0  0
 29 32  1  1  0  0  0
 31 30  1  0  0  0  0
 32 33  1  0  0  0  0
M  END
>  <minimizedAffinity>
-5.57018185

$$$$

 OpenBabel03272509193D

 33 35  0  0  1  0  0  0  0  0999 V2000
   37.3270   23.0410   32.1050 C   0  0  0  0  0  0  0  0  0  0  0  0
   36.2250   22.3120   31.6550 C   0  0  0  0  0  0  0  0  0  0  0  0
   35.1770   23.0930   31.1730 C   0  0  0  0  0  0  0  0  0  0  0  0
   35.2640   24.4890   31.1590 C   0  0  0  0  0  0  0  0  0  0  0  0
   36.4090   25.1150   31.6320 C   0  0  0  0  0  0  0  0  0  0  0  0
   37.4590   24.3810   32.1140 C   0  0  0  0  0  0  0  0  0  0  0  0
   34.3080   22.5580   30.8150 H   0  0  0  0  0  0  0  0  0  0  0  0
   34.3960   24.9910   30.7640 H   0  0  0  0  0  0  0  0  0  0  0  0
   36.3200   26.1780   31.5540 H   0  0  0  0  0  0  0  0  0  0  0  0
   36.3980   20.1450   30.5240 C   0  0  0  0  0  0  0  0  0  0  0  0
   36.1480   20.8810   31.6730 C   0  0  0  0  0  0  0  0  0  0  0  0
   35.8210   20.1640   32.8300 C   0  0  0  0  0  0  0  0  0  0  0  0
   35.7690   18.8060   32.7590 N   0  0  0  0  0  0  0  0  0  0  0  0
   36.0210   18.1370   31.6180 C   0  0  0  0  0  0  0  0  0  0  0  0
   36.3340   18.8040   30.5080 N   0  0  0  0  0  0  0  0  0  0  0  0
   36.6600   20.6130   29.5820 H   0  0  0  0  0  0  0  0  0  0  0  0
   35.9310   17.0670   31.7580 H   0  0  0  0  0  0  0  0  0  0  0  0
   35.5380   20.8850   34.1020 C   0  0  0  0  0  0  0  0  0  0  0  0
   34.5940   20.5100   34.5570 H   0  0  0  0  0  0  0  0  0  0  0  0
   35.3870   21.9520   33.8600 H   0  0  0  0  0  0  0  0  0  0  0  0
   36.3960   20.7970   34.7940 H   0  0  0  0  0  0  0  0  0  0  0  0
   38.4270   22.3140   32.6090 O   0  0  0  0  0  0  0  0  0  0  0  0
   38.3620   21.8830   33.5330 H   0  0  0  0  0  0  0  0  0  0  0  0
   38.5810   25.0220   32.5760 O   0  0  0  0  0  0  0  0  0  0  0  0
   38.7770   26.8180   34.1320 C   0  0  1  0  0  3  0  0  0  0  0  0
   38.8770   25.3200   33.9060 C   0  0  1  0  0  3  0  0  0  0  0  0
   37.7940   24.8050   34.6640 O   0  0  0  0  0  0  0  0  0  0  0  0
   38.0680   25.4210   35.8940 C   0  0  0  0  0  2  0  0  0  0  0  0
   38.1070   26.8900   35.4770 C   0  0  1  0  0  3  0  0  0  0  0  0
   40.0000   27.4570   34.1380 O   0  0  0  0  0  0  0  0  0  0  0  0
   40.7390   26.8490   33.8330 H   0  0  0  0  0  0  0  0  0  0  0  0
   38.8330   27.6550   36.3890 O   0  0  0  0  0  0  0  0  0  0  0  0
   38.7730   27.1720   37.2520 H   0  0  0  0  0  0  0  0  0  0  0  0
  1  6  1  0  0  0  0
  1 22  1  0  0  0  0
  2 11  1  0  0  0  0
  2  1  2  0  0  0  0
  3  2  1  0  0  0  0
  4  3  2  0  0  0  0
  4  5  1  0  0  0  0
  5  6  2  0  0  0  0
  6 24  1  0  0  0  0
  7  3  1  0  0  0  0
  8  4  1  0  0  0  0
  9  5  1  0  0  0  0
 10 11  1  0  0  0  0
 11 12  2  0  0  0  0
 12 18  1  0  0  0  0
 13 12  1  0  0  0  0
 14 17  1  0  0  0  0
 14 13  2  0  0  0  0
 15 10  2  0  0  0  0
 15 14  1  0  0  0  0
 16 10  1  0  0  0  0
 18 19  1  0  0  0  0
 18 21  1  0  0  0  0
 20 18  1  0  0  0  0
 22 23  1  0  0  0  0
 25 30  1  1  0  0  0
 25 29  1  0  0  0  0
 26 24  1  6  0  0  0
 26 25  1  0  0  0  0
 26 27  1  0  0  0  0
 27 28  1  0  0  0  0
 29 28  1  0  0  0  0
 29 32  1  1  0  0  0
 31 30  1  0  0  0  0
 32 33  1  0  0  0  0
M  END
>  <minimizedAffinity>
-5.38304663

$$$$

 OpenBabel03272509193D

 33 35  0  0  1  0  0  0  0  0999 V2000
   38.3510   24.4000   32.7840 C   0  0  0  0  0  0  0  0  0  0  0  0
   37.6980   24.7860   31.6110 C   0  0  0  0  0  0  0  0  0  0  0  0
   37.3140   23.7270   30.7920 C   0  0  0  0  0  0  0  0  0  0  0  0
   37.5810   22.4010   31.1530 C   0  0  0  0  0  0  0  0  0  0  0  0
   38.2380   22.1280   32.3450 C   0  0  0  0  0  0  0  0  0  0  0  0
   38.6310   23.1430   33.1750 C   0  0  0  0  0  0  0  0  0  0  0  0
   36.8050   23.9920   29.8750 H   0  0  0  0  0  0  0  0  0  0  0  0
   37.2390   21.6640   30.4450 H   0  0  0  0  0  0  0  0  0  0  0  0
   38.3650   21.0750   32.4750 H   0  0  0  0  0  0  0  0  0  0  0  0
   36.2310   26.7480   31.6060 C   0  0  0  0  0  0  0  0  0  0  0  0
   37.4300   26.1470   31.2520 C   0  0  0  0  0  0  0  0  0  0  0  0
   38.3470   26.9280   30.5390 C   0  0  0  0  0  0  0  0  0  0  0  0
   38.0110   28.2120   30.2390 N   0  0  0  0  0  0  0  0  0  0  0  0
   36.8330   28.7500   30.6050 C   0  0  0  0  0  0  0  0  0  0  0  0
   35.9480   28.0210   31.2850 N   0  0  0  0  0  0  0  0  0  0  0  0
   35.4600   26.2230   32.1590 H   0  0  0  0  0  0  0  0  0  0  0  0
   36.7470   29.7780   30.2780 H   0  0  0  0  0  0  0  0  0  0  0  0
   39.6560   26.3520   30.1240 C   0  0  0  0  0  0  0  0  0  0  0  0
   39.8460   26.5590   29.0470 H   0  0  0  0  0  0  0  0  0  0  0  0
   39.5970   25.2550   30.2440 H   0  0  0  0  0  0  0  0  0  0  0  0
   40.4680   26.7350   30.7690 H   0  0  0  0  0  0  0  0  0  0  0  0
   38.7690   25.4230   33.6620 O   0  0  0  0  0  0  0  0  0  0  0  0
   39.5850   25.9890   33.4200 H   0  0  0  0  0  0  0  0  0  0  0  0
   39.2790   22.8480   34.3480 O   0  0  0  0  0  0  0  0  0  0  0  0
   39.6850   22.7140   36.6930 C   0  0  1  0  0  3  0  0  0  0  0  0
   38.6820   22.5300   35.5680 C   0  0  1  0  0  3  0  0  0  0  0  0
   37.7320   23.5560   35.8080 O   0  0  0  0  0  0  0  0  0  0  0  0
   37.4430   23.2830   37.1530 C   0  0  0  0  0  2  0  0  0  0  0  0
   38.8400   23.3460   37.7670 C   0  0  1  0  0  3  0  0  0  0  0  0
   40.2540   21.5330   37.1230 O   0  0  0  0  0  0  0  0  0  0  0  0
   40.0290   20.7670   36.5130 H   0  0  0  0  0  0  0  0  0  0  0  0
   38.8980   22.6400   38.9680 O   0  0  0  0  0  0  0  0  0  0  0  0
   37.9740   22.6450   39.3260 H   0  0  0  0  0  0  0  0  0  0  0  0
  1  6  1  0  0  0  0
  1 22  1  0  0  0  0
  2  1  2  0  0  0  0
  3  4  2  0  0  0  0
  3  2  1  0  0  0  0
  4  5  1  0  0  0  0
  5  9  1  0  0  0  0
  5  6  2  0  0  0  0
  6 24  1  0  0  0  0
  7  3  1  0  0  0  0
  8  4  1  0  0  0  0
 10 16  1  0  0  0  0
 11 10  2  0  0  0  0
 11  2  1  0  0  0  0
 12 11  1  0  0  0  0
 13 12  2  0  0  0  0
 13 14  1  0  0  0  0
 14 15  2  0  0  0  0
 15 10  1  0  0  0  0
 17 14  1  0  0  0  0
 18 20  1  0  0  0  0
 18 12  1  0  0  0  0
 18 21  1  0  0  0  0
 19 18  1  0  0  0  0
 23 22  1  0  0  0  0
 25 30  1  1  0  0  0
 25 29  1  0  0  0  0
 26 24  1  6  0  0  0
 26 27  1  0  0  0  0
 26 25  1  0  0  0  0
 27 28  1  0  0  0  0
 28 29  1  0  0  0  0
 29 32  1  1  0  0  0
 31 30  1  0  0  0  0
 32 33  1  0  0  0  0
M  END
>  <minimizedAffinity>
-5.36039972

$$$$

 OpenBabel03272509193D

 33 35  0  0  1  0  0  0  0  0999 V2000
   36.0380   28.9390   33.3910 C   0  0  0  0  0  0  0  0  0  0  0  0
   35.4310   30.1940   33.4910 C   0  0  0  0  0  0  0  0  0  0  0  0
   35.3390   30.8850   32.2850 C   0  0  0  0  0  0  0  0  0  0  0  0
   35.8280   30.3320   31.0960 C   0  0  0  0  0  0  0  0  0  0  0  0
   36.4140   29.0740   31.1090 C   0  0  0  0  0  0  0  0  0  0  0  0
   36.5230   28.3640   32.2750 C   0  0  0  0  0  0  0  0  0  0  0  0
   34.8730   31.8600   32.3280 H   0  0  0  0  0  0  0  0  0  0  0  0
   35.7020   30.9540   30.2260 H   0  0  0  0  0  0  0  0  0  0  0  0
   36.7330   28.7940   30.1280 H   0  0  0  0  0  0  0  0  0  0  0  0
   35.7410   31.5600   35.5010 C   0  0  0  0  0  0  0  0  0  0  0  0
   34.9350   30.7490   34.7150 C   0  0  0  0  0  0  0  0  0  0  0  0
   33.6350   30.5080   35.1740 C   0  0  0  0  0  0  0  0  0  0  0  0
   33.2450   31.0760   36.3480 N   0  0  0  0  0  0  0  0  0  0  0  0
   34.0660   31.8550   37.0750 C   0  0  0  0  0  0  0  0  0  0  0  0
   35.3070   32.0960   36.6530 N   0  0  0  0  0  0  0  0  0  0  0  0
   36.7610   31.8040   35.2260 H   0  0  0  0  0  0  0  0  0  0  0  0
   33.5810   32.2130   37.9740 H   0  0  0  0  0  0  0  0  0  0  0  0
   32.7100   29.6470   34.3850 C   0  0  0  0  0  0  0  0  0  0  0  0
   32.2350   28.8860   35.0420 H   0  0  0  0  0  0  0  0  0  0  0  0
   33.3120   29.1060   33.6320 H   0  0  0  0  0  0  0  0  0  0  0  0
   31.9610   30.2670   33.8590 H   0  0  0  0  0  0  0  0  0  0  0  0
   36.1660   28.1820   34.5750 O   0  0  0  0  0  0  0  0  0  0  0  0
   36.8730   28.4450   35.2650 H   0  0  0  0  0  0  0  0  0  0  0  0
   37.1070   27.1230   32.2620 O   0  0  0  0  0  0  0  0  0  0  0  0
   38.3710   25.8730   30.6740 C   0  0  1  0  0  3  0  0  0  0  0  0
   36.9980   26.1660   31.2530 C   0  0  1  0  0  3  0  0  0  0  0  0
   36.6580   24.9550   31.9100 O   0  0  0  0  0  0  0  0  0  0  0  0
   36.8760   24.0580   30.8530 C   0  0  0  0  0  2  0  0  0  0  0  0
   38.3270   24.3790   30.4980 C   0  0  1  0  0  3  0  0  0  0  0  0
   38.6140   26.5180   29.4790 O   0  0  0  0  0  0  0  0  0  0  0  0
   37.9050   27.1990   29.2730 H   0  0  0  0  0  0  0  0  0  0  0  0
   38.6250   23.9910   29.1920 O   0  0  0  0  0  0  0  0  0  0  0  0
   37.9980   23.2540   28.9820 H   0  0  0  0  0  0  0  0  0  0  0  0
  1  2  1  0  0  0  0
  1 22  1  0  0  0  0
  2 11  1  0  0  0  0
  3  7  1  0  0  0  0
  3  2  2  0  0  0  0
  4  5  2  0  0  0  0
  4  3  1  0  0  0  0
  5  6  1  0  0  0  0
  6  1  2  0  0  0  0
  8  4  1  0  0  0  0
  9  5  1  0  0  0  0
 10 15  1  0  0  0  0
 11 12  1  0  0  0  0
 11 10  2  0  0  0  0
 12 13  2  0  0  0  0
 13 14  1  0  0  0  0
 14 17  1  0  0  0  0
 15 14  2  0  0  0  0
 16 10  1  0  0  0  0
 18 19  1  0  0  0  0
 18 12  1  0  0  0  0
 20 18  1  0  0  0  0
 21 18  1  0  0  0  0
 22 23  1  0  0  0  0
 24  6  1  0  0  0  0
 25 30  1  6  0  0  0
 25 26  1  0  0  0  0
 26 27  1  0  0  0  0
 26 24  1  1  0  0  0
 28 27  1  0  0  0  0
 29 32  1  6  0  0  0
 29 25  1  0  0  0  0
 29 28  1  0  0  0  0
 31 30  1  0  0  0  0
 33 32  1  0  0  0  0
M  END
>  <minimizedAffinity>
-5.32268572

$$$$

 OpenBabel03272509193D

 33 35  0  0  1  0  0  0  0  0999 V2000
   36.3500   25.0680   31.5940 C   0  0  0  0  0  0  0  0  0  0  0  0
   36.9060   26.2420   32.1090 C   0  0  0  0  0  0  0  0  0  0  0  0
   37.8290   26.0400   33.1320 C   0  0  0  0  0  0  0  0  0  0  0  0
   38.1430   24.7510   33.5780 C   0  0  0  0  0  0  0  0  0  0  0  0
   37.5320   23.6500   32.9950 C   0  0  0  0  0  0  0  0  0  0  0  0
   36.6190   23.8090   31.9870 C   0  0  0  0  0  0  0  0  0  0  0  0
   38.2780   26.9300   33.5530 H   0  0  0  0  0  0  0  0  0  0  0  0
   38.8700   24.7140   34.3720 H   0  0  0  0  0  0  0  0  0  0  0  0
   37.8770   22.7430   33.4430 H   0  0  0  0  0  0  0  0  0  0  0  0
   35.5110   28.2540   32.1970 C   0  0  0  0  0  0  0  0  0  0  0  0
   36.5750   27.5570   31.6450 C   0  0  0  0  0  0  0  0  0  0  0  0
   37.2960   28.1940   30.6280 C   0  0  0  0  0  0  0  0  0  0  0  0
   36.9120   29.4440   30.2470 N   0  0  0  0  0  0  0  0  0  0  0  0
   35.8700   30.0790   30.8150 C   0  0  0  0  0  0  0  0  0  0  0  0
   35.1750   29.4870   31.7850 N   0  0  0  0  0  0  0  0  0  0  0  0
   34.8960   27.8420   32.9900 H   0  0  0  0  0  0  0  0  0  0  0  0
   35.7200   31.0590   30.3810 H   0  0  0  0  0  0  0  0  0  0  0  0
   38.4520   27.5090   29.9860 C   0  0  0  0  0  0  0  0  0  0  0  0
   38.3690   27.5660   28.8790 H   0  0  0  0  0  0  0  0  0  0  0  0
   38.4090   26.4410   30.2670 H   0  0  0  0  0  0  0  0  0  0  0  0
   39.4040   27.9340   30.3540 H   0  0  0  0  0  0  0  0  0  0  0  0
   35.4060   25.1970   30.5540 O   0  0  0  0  0  0  0  0  0  0  0  0
   34.4610   25.5230   30.7720 H   0  0  0  0  0  0  0  0  0  0  0  0
   36.0270   22.7050   31.4280 O   0  0  0  0  0  0  0  0  0  0  0  0
   35.1850   20.8410   32.6520 C   0  0  1  0  0  3  0  0  0  0  0  0
   36.2850   21.3730   31.7490 C   0  0  1  0  0  3  0  0  0  0  0  0
   36.0970   20.6450   30.5460 O   0  0  0  0  0  0  0  0  0  0  0  0
   36.0890   19.3440   31.0700 C   0  0  0  0  0  2  0  0  0  0  0  0
   34.9700   19.4560   32.1030 C   0  0  1  0  0  3  0  0  0  0  0  0
   35.5350   20.8100   33.9860 O   0  0  0  0  0  0  0  0  0  0  0  0
   36.3990   21.2930   34.1570 H   0  0  0  0  0  0  0  0  0  0  0  0
   35.0870   18.4740   33.0850 O   0  0  0  0  0  0  0  0  0  0  0  0
   35.5750   17.7250   32.6580 H   0  0  0  0  0  0  0  0  0  0  0  0
  1  6  2  0  0  0  0
  1  2  1  0  0  0  0
  2  3  2  0  0  0  0
  3  7  1  0  0  0  0
  3  4  1  0  0  0  0
  4  8  1  0  0  0  0
  5  9  1  0  0  0  0
  5  4  2  0  0  0  0
  6  5  1  0  0  0  0
 10 16  1  0  0  0  0
 11  2  1  0  0  0  0
 11 10  2  0  0  0  0
 12 11  1  0  0  0  0
 13 12  2  0  0  0  0
 13 14  1  0  0  0  0
 14 15  2  0  0  0  0
 15 10  1  0  0  0  0
 17 14  1  0  0  0  0
 18 20  1  0  0  0  0
 18 21  1  0  0  0  0
 18 12  1  0  0  0  0
 19 18  1  0  0  0  0
 22 23  1  0  0  0  0
 22  1  1  0  0  0  0
 24  6  1  0  0  0  0
 25 30  1  1  0  0  0
 26 24  1  6  0  0  0
 26 25  1  0  0  0  0
 27 28  1  0  0  0  0
 27 26  1  0  0  0  0
 28 29  1  0  0  0  0
 29 25  1  0  0  0  0
 29 32  1  1  0  0  0
 30 31  1  0  0  0  0
 33 32  1  0  0  0  0
M  END
>  <minimizedAffinity>
-5.26049709

$$$$
