
 OpenBabel03272503483D

 37 39  0  0  1  0  0  0  0  0999 V2000
   33.1740   27.2870   45.8660 C   0  0  1  0  0  0  0  0  0  0  0  0
   33.9180   27.4550   47.2120 C   0  0  2  0  0  0  0  0  0  0  0  0
   33.7740   26.2410   47.8030 O   0  0  0  0  0  0  0  0  0  0  0  0
   34.0500   25.3290   46.7980 C   0  0  0  0  0  0  0  0  0  0  0  0
   33.5520   25.8920   45.4940 C   0  0  2  0  0  0  0  0  0  0  0  0
   33.6020   28.0490   45.1800 H   0  0  0  0  0  0  0  0  0  0  0  0
   34.9890   27.6780   46.9480 H   0  0  0  0  0  0  0  0  0  0  0  0
   35.1340   25.1310   46.8270 H   0  0  0  0  0  0  0  0  0  0  0  0
   33.4440   24.4200   47.0240 H   0  0  0  0  0  0  0  0  0  0  0  0
   32.7260   25.2830   45.0610 H   0  0  0  0  0  0  0  0  0  0  0  0
   31.8180   27.4950   46.0360 O   0  0  0  0  0  0  0  0  0  0  0  0
   31.4940   28.1190   45.3260 H   0  0  0  0  0  0  0  0  0  0  0  0
   33.2990   28.5120   47.8130 O   0  0  0  0  0  0  0  0  0  0  0  0
   35.3540   29.7980   46.7730 O   0  0  0  0  0  0  0  0  0  0  0  0
   34.0920   29.9810   47.6040 P   0  0  1  0  0  0  0  0  0  0  0  0
   33.1200   31.0380   46.7070 O   0  0  0  0  0  0  0  0  0  0  0  0
   32.3700   31.2960   47.3240 H   0  0  0  0  0  0  0  0  0  0  0  0
   34.3910   30.6070   49.1620 O   0  0  0  0  0  0  0  0  0  0  0  0
   35.6210   30.4920   49.7790 C   0  0  0  0  0  0  0  0  0  0  0  0
   35.9600   29.4790   50.7000 C   0  0  0  0  0  0  0  0  0  0  0  0
   37.2420   29.4930   51.2410 C   0  0  0  0  0  0  0  0  0  0  0  0
   38.0980   30.4800   50.8560 N   0  0  0  0  0  0  0  0  0  0  0  0
   37.7470   31.4480   49.9650 C   0  0  0  0  0  0  0  0  0  0  0  0
   36.4970   31.4480   49.4240 N   0  0  0  0  0  0  0  0  0  0  0  0
   35.2120   28.7540   50.9300 H   0  0  0  0  0  0  0  0  0  0  0  0
   37.5200   28.7270   51.9460 H   0  0  0  0  0  0  0  0  0  0  0  0
   38.4850   32.1970   49.7100 H   0  0  0  0  0  0  0  0  0  0  0  0
   34.5640   25.8930   44.5480 O   0  0  0  0  0  0  0  0  0  0  0  0
   36.4290   24.4610   44.0230 C   0  0  2  0  0  0  0  0  0  0  0  0
   34.9420   24.6260   44.1160 C   0  0  2  0  0  0  0  0  0  0  0  0
   34.3710   24.2510   42.9220 O   0  0  0  0  0  0  0  0  0  0  0  0
   35.3750   24.0120   42.0090 C   0  0  0  0  0  0  0  0  0  0  0  0
   36.5650   23.5560   42.8130 C   0  0  1  0  0  0  0  0  0  0  0  0
   36.9810   23.7670   45.0920 O   0  0  0  0  0  0  0  0  0  0  0  0
   36.4370   23.9490   45.9090 H   0  0  0  0  0  0  0  0  0  0  0  0
   37.7730   23.8460   42.1820 O   0  0  0  0  0  0  0  0  0  0  0  0
   38.3550   24.3620   42.7960 H   0  0  0  0  0  0  0  0  0  0  0  0
  1  6  1  6  0  0  0
  1 11  1  0  0  0  0
  1  2  1  0  0  0  0
  2  7  1  6  0  0  0
  2  3  1  0  0  0  0
  2 13  1  0  0  0  0
  4  8  1  0  0  0  0
  4  9  1  0  0  0  0
  4  3  1  0  0  0  0
  5 10  1  6  0  0  0
  5  1  1  0  0  0  0
  5  4  1  0  0  0  0
 12 11  1  0  0  0  0
 15 14  2  6  0  0  0
 15 13  1  0  0  0  0
 15 18  1  0  0  0  0
 16 17  1  0  0  0  0
 16 15  1  0  0  0  0
 18 19  1  0  0  0  0
 19 20  1  0  0  0  0
 20 25  1  0  0  0  0
 20 21  2  0  0  0  0
 21 26  1  0  0  0  0
 22 21  1  0  0  0  0
 23 22  2  0  0  0  0
 24 19  2  0  0  0  0
 24 23  1  0  0  0  0
 27 23  1  0  0  0  0
 28  5  1  0  0  0  0
 29 30  1  0  0  0  0
 29 34  1  1  0  0  0
 30 28  1  6  0  0  0
 31 30  1  0  0  0  0
 32 33  1  0  0  0  0
 32 31  1  0  0  0  0
 33 36  1  6  0  0  0
 33 29  1  0  0  0  0
 34 35  1  0  0  0  0
 36 37  1  0  0  0  0
M  END
>  <minimizedAffinity>
-4.20438719

>  <minimizedRMSD>
1.23324049

$$$$
