
 OpenBabel03272506413D

 32 34  0  0  1  0  0  0  0  0999 V2000
   32.2380   28.1620   47.5510 C   0  0  2  0  0  0  0  0  0  0  0  0
   33.5020   28.1420   48.3830 C   0  0  1  0  0  0  0  0  0  0  0  0
   34.0820   26.9110   48.2400 O   0  0  0  0  0  0  0  0  0  0  0  0
   33.4280   26.2190   47.2450 C   0  0  0  0  0  0  0  0  0  0  0  0
   32.6770   27.2530   46.4260 C   0  0  1  0  0  0  0  0  0  0  0  0
   31.3970   27.6680   48.0670 H   0  0  0  0  0  0  0  0  0  0  0  0
   33.3050   28.3330   49.4460 H   0  0  0  0  0  0  0  0  0  0  0  0
   34.2050   25.6870   46.6590 H   0  0  0  0  0  0  0  0  0  0  0  0
   32.7020   25.5260   47.7100 H   0  0  0  0  0  0  0  0  0  0  0  0
   33.3160   27.7650   45.6940 H   0  0  0  0  0  0  0  0  0  0  0  0
   31.9330   29.4470   47.1260 O   0  0  0  0  0  0  0  0  0  0  0  0
   31.1750   29.7560   47.6950 H   0  0  0  0  0  0  0  0  0  0  0  0
   34.6260   29.3840   47.6460 S   0  0  0  0  0  0  0  0  0  0  0  0
   37.2460   29.2550   50.6180 C   0  0  0  0  0  0  0  0  0  0  0  0
   37.6650   30.5820   50.7850 C   0  0  0  0  0  0  0  0  0  0  0  0
   37.1130   31.5460   49.9450 C   0  0  0  0  0  0  0  0  0  0  0  0
   36.2040   31.1760   49.0080 N   0  0  0  0  0  0  0  0  0  0  0  0
   35.8240   29.8750   48.8800 C   0  0  0  0  0  0  0  0  0  0  0  0
   36.3370   28.9230   49.6750 N   0  0  0  0  0  0  0  0  0  0  0  0
   37.6810   28.5240   51.2760 H   0  0  0  0  0  0  0  0  0  0  0  0
   38.3880   30.9000   51.5250 H   0  0  0  0  0  0  0  0  0  0  0  0
   37.3500   32.5900   49.9700 H   0  0  0  0  0  0  0  0  0  0  0  0
   31.6040   26.6860   45.7530 O   0  0  0  0  0  0  0  0  0  0  0  0
   30.0840   27.9240   44.3540 C   0  0  2  0  0  3  0  0  0  0  0  0
   31.4310   27.2130   44.4820 C   0  0  2  0  0  3  0  0  0  0  0  0
   31.4540   26.2280   43.5320 O   0  0  0  0  0  0  0  0  0  0  0  0
   30.4190   26.4190   42.6340 C   0  0  0  0  0  2  0  0  0  0  0  0
   29.9450   27.8570   42.8320 C   0  0  1  0  0  3  0  0  0  0  0  0
   30.1800   29.2500   44.7710 O   0  0  0  0  0  0  0  0  0  0  0  0
   30.9970   29.6020   44.3000 H   0  0  0  0  0  0  0  0  0  0  0  0
   28.6640   28.0780   42.4030 O   0  0  0  0  0  0  0  0  0  0  0  0
   28.7400   28.6940   41.6070 H   0  0  0  0  0  0  0  0  0  0  0  0
  1  6  1  1  0  0  0
  1  2  1  0  0  0  0
  2  7  1  1  0  0  0
  3  2  1  0  0  0  0
  4  9  1  0  0  0  0
  4  3  1  0  0  0  0
  5 10  1  6  0  0  0
  5  4  1  0  0  0  0
  5  1  1  0  0  0  0
  8  4  1  0  0  0  0
 11  1  1  0  0  0  0
 11 12  1  0  0  0  0
 13  2  1  0  0  0  0
 13 18  1  0  0  0  0
 14 15  1  0  0  0  0
 14 20  1  0  0  0  0
 15 21  1  0  0  0  0
 16 22  1  0  0  0  0
 16 15  2  0  0  0  0
 17 16  1  0  0  0  0
 18 17  2  0  0  0  0
 18 19  1  0  0  0  0
 19 14  2  0  0  0  0
 23  5  1  0  0  0  0
 24 25  1  0  0  0  0
 24 29  1  6  0  0  0
 25 23  1  1  0  0  0
 26 25  1  0  0  0  0
 27 28  1  0  0  0  0
 27 26  1  0  0  0  0
 28 31  1  1  0  0  0
 28 24  1  0  0  0  0
 30 29  1  0  0  0  0
 32 31  1  0  0  0  0
M  END
>  <minimizedAffinity>
-3.81251717

>  <minimizedRMSD>
1.33543348

$$$$
