
 OpenBabel03272506413D

 32 34  0  0  1  0  0  0  0  0999 V2000
   32.3830   28.3380   47.5710 C   0  0  2  0  0  0  0  0  0  0  0  0
   33.6600   28.3480   48.3830 C   0  0  1  0  0  0  0  0  0  0  0  0
   34.2110   27.0970   48.3190 O   0  0  0  0  0  0  0  0  0  0  0  0
   33.5250   26.3520   47.3860 C   0  0  0  0  0  0  0  0  0  0  0  0
   32.7830   27.3420   46.5070 C   0  0  1  0  0  0  0  0  0  0  0  0
   31.5410   27.9000   48.1340 H   0  0  0  0  0  0  0  0  0  0  0  0
   33.4850   28.6180   49.4330 H   0  0  0  0  0  0  0  0  0  0  0  0
   34.2810   25.7620   46.8270 H   0  0  0  0  0  0  0  0  0  0  0  0
   32.7920   25.7090   47.9100 H   0  0  0  0  0  0  0  0  0  0  0  0
   33.4200   27.7860   45.7300 H   0  0  0  0  0  0  0  0  0  0  0  0
   32.0980   29.5960   47.0610 O   0  0  0  0  0  0  0  0  0  0  0  0
   31.3570   29.9620   47.6190 H   0  0  0  0  0  0  0  0  0  0  0  0
   34.7970   29.5090   47.5430 S   0  0  0  0  0  0  0  0  0  0  0  0
   37.3880   29.4800   50.5430 C   0  0  0  0  0  0  0  0  0  0  0  0
   37.9980   30.7400   50.5030 C   0  0  0  0  0  0  0  0  0  0  0  0
   37.5890   31.6260   49.5090 C   0  0  0  0  0  0  0  0  0  0  0  0
   36.6300   31.2470   48.6280 N   0  0  0  0  0  0  0  0  0  0  0  0
   36.0620   30.0120   48.7030 C   0  0  0  0  0  0  0  0  0  0  0  0
   36.4350   29.1360   49.6500 N   0  0  0  0  0  0  0  0  0  0  0  0
   37.7150   28.8080   51.3180 H   0  0  0  0  0  0  0  0  0  0  0  0
   38.7640   31.0640   51.1950 H   0  0  0  0  0  0  0  0  0  0  0  0
   37.9760   32.6150   49.3710 H   0  0  0  0  0  0  0  0  0  0  0  0
   31.6870   26.7540   45.8930 O   0  0  0  0  0  0  0  0  0  0  0  0
   30.2810   27.9630   44.3570 C   0  0  2  0  0  3  0  0  0  0  0  0
   31.5480   27.1350   44.5670 C   0  0  2  0  0  3  0  0  0  0  0  0
   31.4510   26.0430   43.7460 O   0  0  0  0  0  0  0  0  0  0  0  0
   30.4260   26.2300   42.8360 C   0  0  0  0  0  2  0  0  0  0  0  0
   30.1090   27.7250   42.8560 C   0  0  1  0  0  3  0  0  0  0  0  0
   30.5220   29.3120   44.6050 O   0  0  0  0  0  0  0  0  0  0  0  0
   31.3630   29.5150   44.0910 H   0  0  0  0  0  0  0  0  0  0  0  0
   28.8510   28.0250   42.4090 O   0  0  0  0  0  0  0  0  0  0  0  0
   28.9760   28.5260   41.5410 H   0  0  0  0  0  0  0  0  0  0  0  0
  1  6  1  1  0  0  0
  1  2  1  0  0  0  0
  2  7  1  1  0  0  0
  3  2  1  0  0  0  0
  4  9  1  0  0  0  0
  4  3  1  0  0  0  0
  5 10  1  6  0  0  0
  5  4  1  0  0  0  0
  5  1  1  0  0  0  0
  8  4  1  0  0  0  0
 11  1  1  0  0  0  0
 11 12  1  0  0  0  0
 13  2  1  0  0  0  0
 13 18  1  0  0  0  0
 14 20  1  0  0  0  0
 15 14  1  0  0  0  0
 15 21  1  0  0  0  0
 16 15  2  0  0  0  0
 17 18  2  0  0  0  0
 17 16  1  0  0  0  0
 18 19  1  0  0  0  0
 19 14  2  0  0  0  0
 22 16  1  0  0  0  0
 23  5  1  0  0  0  0
 24 25  1  0  0  0  0
 24 29  1  6  0  0  0
 25 23  1  1  0  0  0
 26 25  1  0  0  0  0
 27 28  1  0  0  0  0
 27 26  1  0  0  0  0
 28 31  1  1  0  0  0
 28 24  1  0  0  0  0
 30 29  1  0  0  0  0
 32 31  1  0  0  0  0
M  END
>  <minimizedAffinity>
-3.80733514

>  <minimizedRMSD>
0.518729627

$$$$
