
 OpenBabel03272500043D

 29 31  0  0  1  0  0  0  0  0999 V2000
   35.9600   29.3140   49.3400 C   0  0  0  0  0  0  0  0  0  0  0  0
   35.9840   30.3850   48.4110 C   0  0  0  0  0  0  0  0  0  0  0  0
   35.0480   30.3920   47.3890 C   0  0  0  0  0  0  0  0  0  0  0  0
   34.1480   29.3720   47.3250 N   0  0  0  0  0  0  0  0  0  0  0  0
   34.1440   28.3690   48.2140 C   0  0  0  0  0  0  0  0  0  0  0  0
   35.0460   28.3320   49.2250 N   0  0  0  0  0  0  0  0  0  0  0  0
   36.6690   29.2530   50.1630 H   0  0  0  0  0  0  0  0  0  0  0  0
   35.0660   31.1940   46.6950 H   0  0  0  0  0  0  0  0  0  0  0  0
   36.9820   31.3970   48.5890 N   0  0  0  0  0  0  0  0  0  0  0  0
   36.9610   32.2320   49.6300 C   0  0  0  0  0  0  0  0  0  0  0  0
   37.9520   33.2040   49.7670 C   0  0  0  0  0  0  0  0  0  0  0  0
   38.8890   33.1980   48.7660 C   0  0  0  0  0  0  0  0  0  0  0  0
   39.8030   34.0750   48.8700 O   0  0  0  0  0  0  0  0  0  0  0  0
   38.9390   32.3720   47.7050 N   0  0  0  0  0  0  0  0  0  0  0  0
   37.9420   31.4490   47.6360 C   0  0  0  0  0  0  0  0  0  0  0  0
   37.9780   30.6670   46.6450 O   0  0  0  0  0  0  0  0  0  0  0  0
   36.1830   32.1530   50.3590 H   0  0  0  0  0  0  0  0  0  0  0  0
   37.9840   33.9020   50.5840 H   0  0  0  0  0  0  0  0  0  0  0  0
   39.6890   32.4370   46.9890 H   0  0  0  0  0  0  0  0  0  0  0  0
   33.2230   27.3190   48.1540 O   0  0  0  0  0  0  0  0  0  0  0  0
   31.1260   27.8900   47.0580 C   0  0  1  0  0  0  0  0  0  0  0  0
   32.4200   27.1020   47.0140 C   0  0  2  0  0  0  0  0  0  0  0  0
   31.8970   25.7970   47.1700 O   0  0  0  0  0  0  0  0  0  0  0  0
   31.2240   25.9540   48.3960 C   0  0  0  0  0  0  0  0  0  0  0  0
   30.4540   27.2510   48.2790 C   0  0  1  0  0  0  0  0  0  0  0  0
   31.3030   29.2460   47.1920 O   0  0  0  0  0  0  0  0  0  0  0  0
   32.0750   29.4890   47.7300 H   0  0  0  0  0  0  0  0  0  0  0  0
   30.6420   28.0630   49.3740 O   0  0  0  0  0  0  0  0  0  0  0  0
   31.1970   27.6450   50.0930 H   0  0  0  0  0  0  0  0  0  0  0  0
  1  7  1  0  0  0  0
  2  9  1  0  0  0  0
  2  1  2  0  0  0  0
  3  2  1  0  0  0  0
  4  3  2  0  0  0  0
  4  5  1  0  0  0  0
  5  6  2  0  0  0  0
  6  1  1  0  0  0  0
  8  3  1  0  0  0  0
  9 10  1  0  0  0  0
 10 11  2  0  0  0  0
 10 17  1  0  0  0  0
 11 18  1  0  0  0  0
 12 13  2  0  0  0  0
 12 11  1  0  0  0  0
 14 12  1  0  0  0  0
 15 14  1  0  0  0  0
 15  9  1  0  0  0  0
 16 15  2  0  0  0  0
 19 14  1  0  0  0  0
 20  5  1  0  0  0  0
 21 26  1  1  0  0  0
 21 25  1  0  0  0  0
 22 21  1  0  0  0  0
 22 23  1  0  0  0  0
 22 20  1  1  0  0  0
 23 24  1  0  0  0  0
 25 24  1  0  0  0  0
 25 28  1  1  0  0  0
 26 27  1  0  0  0  0
 28 29  1  0  0  0  0
M  END
>  <minimizedAffinity>
-5.66295815

>  <minimizedRMSD>
0.764748693

$$$$
