
 OpenBabel03272506423D

 32 34  0  0  1  0  0  0  0  0999 V2000
   32.2430   28.1520   47.6150 C   0  0  2  0  0  0  0  0  0  0  0  0
   33.5230   28.1500   48.4220 C   0  0  1  0  0  0  0  0  0  0  0  0
   34.0950   26.9120   48.3030 O   0  0  0  0  0  0  0  0  0  0  0  0
   33.4180   26.1950   47.3420 C   0  0  0  0  0  0  0  0  0  0  0  0
   32.6550   27.2080   46.5090 C   0  0  1  0  0  0  0  0  0  0  0  0
   31.4110   27.6770   48.1630 H   0  0  0  0  0  0  0  0  0  0  0  0
   33.3480   28.3720   49.4830 H   0  0  0  0  0  0  0  0  0  0  0  0
   34.1810   25.6420   46.7570 H   0  0  0  0  0  0  0  0  0  0  0  0
   32.6980   25.5190   47.8420 H   0  0  0  0  0  0  0  0  0  0  0  0
   33.2810   27.6950   45.7490 H   0  0  0  0  0  0  0  0  0  0  0  0
   31.9350   29.4250   47.1590 O   0  0  0  0  0  0  0  0  0  0  0  0
   31.1900   29.7540   47.7340 H   0  0  0  0  0  0  0  0  0  0  0  0
   34.6370   29.3640   47.6270 S   0  0  0  0  0  0  0  0  0  0  0  0
   37.2880   29.3050   50.5740 C   0  0  0  0  0  0  0  0  0  0  0  0
   37.7540   30.6240   50.6640 C   0  0  0  0  0  0  0  0  0  0  0  0
   37.2260   31.5590   49.7780 C   0  0  0  0  0  0  0  0  0  0  0  0
   36.2940   31.1710   48.8720 N   0  0  0  0  0  0  0  0  0  0  0  0
   35.8670   29.8790   48.8190 C   0  0  0  0  0  0  0  0  0  0  0  0
   36.3570   28.9550   49.6610 N   0  0  0  0  0  0  0  0  0  0  0  0
   37.7050   28.5960   51.2670 H   0  0  0  0  0  0  0  0  0  0  0  0
   38.4970   30.9560   51.3770 H   0  0  0  0  0  0  0  0  0  0  0  0
   37.4990   32.5940   49.7430 H   0  0  0  0  0  0  0  0  0  0  0  0
   31.5660   26.6280   45.8740 O   0  0  0  0  0  0  0  0  0  0  0  0
   30.0250   27.8430   44.4790 C   0  0  2  0  0  3  0  0  0  0  0  0
   31.3680   27.1210   44.5940 C   0  0  2  0  0  3  0  0  0  0  0  0
   31.3570   26.1100   43.6700 O   0  0  0  0  0  0  0  0  0  0  0  0
   30.3020   26.2860   42.7940 C   0  0  0  0  0  2  0  0  0  0  0  0
   29.8480   27.7360   42.9640 C   0  0  1  0  0  3  0  0  0  0  0  0
   30.1460   29.1780   44.8560 O   0  0  0  0  0  0  0  0  0  0  0  0
   30.9540   29.5080   44.3550 H   0  0  0  0  0  0  0  0  0  0  0  0
   28.5590   27.9570   42.5600 O   0  0  0  0  0  0  0  0  0  0  0  0
   28.6210   28.5500   41.7460 H   0  0  0  0  0  0  0  0  0  0  0  0
  1  6  1  1  0  0  0
  1  2  1  0  0  0  0
  2  7  1  1  0  0  0
  3  2  1  0  0  0  0
  4  9  1  0  0  0  0
  4  3  1  0  0  0  0
  5 10  1  6  0  0  0
  5  4  1  0  0  0  0
  5  1  1  0  0  0  0
  8  4  1  0  0  0  0
 11  1  1  0  0  0  0
 11 12  1  0  0  0  0
 13  2  1  0  0  0  0
 13 18  1  0  0  0  0
 14 15  1  0  0  0  0
 14 20  1  0  0  0  0
 15 21  1  0  0  0  0
 16 15  2  0  0  0  0
 17 16  1  0  0  0  0
 18 17  2  0  0  0  0
 18 19  1  0  0  0  0
 19 14  2  0  0  0  0
 22 16  1  0  0  0  0
 23  5  1  0  0  0  0
 24 25  1  0  0  0  0
 24 29  1  6  0  0  0
 25 23  1  1  0  0  0
 26 25  1  0  0  0  0
 27 28  1  0  0  0  0
 27 26  1  0  0  0  0
 28 31  1  1  0  0  0
 28 24  1  0  0  0  0
 30 29  1  0  0  0  0
 32 31  1  0  0  0  0
M  END
>  <minimizedAffinity>
-3.83214235

>  <minimizedRMSD>
0.966719568

$$$$
