
 OpenBabel03272507323D

 36 39  0  0  1  0  0  0  0  0999 V2000
   35.8250   29.1390   49.8050 C   0  0  0  0  0  0  0  0  0  0  0  0
   34.8110   29.6510   50.5850 C   0  0  0  0  0  0  0  0  0  0  0  0
   33.6040   29.1180   50.1060 C   0  0  0  0  0  0  0  0  0  0  0  0
   33.9670   28.3070   49.0550 C   0  0  0  0  0  0  0  0  0  0  0  0
   35.2740   28.3510   48.9140 O   0  0  0  0  0  0  0  0  0  0  0  0
   34.7820   30.3350   51.4330 H   0  0  0  0  0  0  0  0  0  0  0  0
   32.5770   29.2700   50.4450 H   0  0  0  0  0  0  0  0  0  0  0  0
   37.2190   29.4850   50.0250 C   0  0  0  0  0  0  0  0  0  0  0  0
   37.8660   28.8760   50.8900 O   0  0  0  0  0  0  0  0  0  0  0  0
   37.7690   30.5310   49.2090 C   0  0  0  0  0  0  0  0  0  0  0  0
   38.1130   31.7110   49.8460 C   0  0  0  0  0  0  0  0  0  0  0  0
   38.6500   32.7520   49.0820 C   0  0  0  0  0  0  0  0  0  0  0  0
   38.8080   32.5450   47.7340 N   0  0  0  0  0  0  0  0  0  0  0  0
   38.4650   31.3940   47.1530 C   0  0  0  0  0  0  0  0  0  0  0  0
   37.9490   30.3890   47.8780 N   0  0  0  0  0  0  0  0  0  0  0  0
   38.0100   31.9250   50.9000 H   0  0  0  0  0  0  0  0  0  0  0  0
   38.9270   33.6800   49.5400 H   0  0  0  0  0  0  0  0  0  0  0  0
   38.6290   31.3290   46.0800 H   0  0  0  0  0  0  0  0  0  0  0  0
   33.0530   27.5200   48.2270 C   0  0  0  0  0  0  0  0  0  0  0  0
   31.8290   27.4510   48.5780 O   0  0  0  0  0  0  0  0  0  0  0  0
   33.5520   26.8100   47.0040 C   0  0  1  0  0  0  0  0  0  0  0  0
   33.8000   25.2840   47.3350 C   0  0  0  0  0  0  0  0  0  0  0  0
   32.7650   25.7450   46.3780 C   0  0  2  0  0  0  0  0  0  0  0  0
   34.5250   27.2240   46.6250 H   0  0  0  0  0  0  0  0  0  0  0  0
   33.4270   24.9150   48.2880 H   0  0  0  0  0  0  0  0  0  0  0  0
   34.7020   24.8290   46.9370 H   0  0  0  0  0  0  0  0  0  0  0  0
   31.7000   25.6910   46.6800 H   0  0  0  0  0  0  0  0  0  0  0  0
   31.8120   24.6750   44.3490 C   0  0  2  0  0  3  0  0  0  0  0  0
   32.9470   25.5530   44.8950 C   0  0  2  0  0  3  0  0  0  0  0  0
   34.0370   24.7730   44.5730 O   0  0  0  0  0  0  0  0  0  0  0  0
   33.8550   24.3860   43.2650 C   0  0  0  0  0  2  0  0  0  0  0  0
   32.3790   24.4730   42.9380 C   0  0  1  0  0  3  0  0  0  0  0  0
   30.5960   25.3080   44.3430 O   0  0  0  0  0  0  0  0  0  0  0  0
   30.1630   25.1110   45.2220 H   0  0  0  0  0  0  0  0  0  0  0  0
   31.8740   23.3620   42.3090 O   0  0  0  0  0  0  0  0  0  0  0  0
   31.1910   23.6000   41.6050 H   0  0  0  0  0  0  0  0  0  0  0  0
  1  8  1  0  0  0  0
  1  2  2  0  0  0  0
  2  6  1  0  0  0  0
  3  7  1  0  0  0  0
  3  2  1  0  0  0  0
  4  3  2  0  0  0  0
  5  4  1  0  0  0  0
  5  1  1  0  0  0  0
  8  9  2  0  0  0  0
 10 11  1  0  0  0  0
 10  8  1  0  0  0  0
 11 16  1  0  0  0  0
 12 17  1  0  0  0  0
 12 11  2  0  0  0  0
 13 12  1  0  0  0  0
 14 13  2  0  0  0  0
 14 15  1  0  0  0  0
 15 10  2  0  0  0  0
 18 14  1  0  0  0  0
 19 20  2  0  0  0  0
 19  4  1  0  0  0  0
 21 24  1  6  0  0  0
 21 22  1  0  0  0  0
 21 19  1  0  0  0  0
 22 25  1  0  0  0  0
 23 27  1  1  0  0  0
 23 21  1  0  0  0  0
 23 22  1  0  0  0  0
 26 22  1  0  0  0  0
 28 33  1  6  0  0  0
 28 29  1  0  0  0  0
 29 30  1  1  0  0  0
 29 23  1  0  0  0  0
 31 30  1  0  0  0  0
 32 35  1  1  0  0  0
 32 31  1  0  0  0  0
 32 28  1  0  0  0  0
 33 34  1  0  0  0  0
 36 35  1  0  0  0  0
M  END
>  <minimizedAffinity>
-4.87728596

>  <minimizedRMSD>
0.0598494709

$$$$
