
 OpenBabel03272507333D

 36 39  0  0  1  0  0  0  0  0999 V2000
   35.8530   29.1610   49.8180 C   0  0  0  0  0  0  0  0  0  0  0  0
   34.8320   29.6470   50.6060 C   0  0  0  0  0  0  0  0  0  0  0  0
   33.6330   29.1040   50.1200 C   0  0  0  0  0  0  0  0  0  0  0  0
   34.0070   28.3130   49.0570 C   0  0  0  0  0  0  0  0  0  0  0  0
   35.3130   28.3780   48.9160 O   0  0  0  0  0  0  0  0  0  0  0  0
   34.7930   30.3190   51.4630 H   0  0  0  0  0  0  0  0  0  0  0  0
   32.6030   29.2370   50.4610 H   0  0  0  0  0  0  0  0  0  0  0  0
   37.2420   29.5240   50.0430 C   0  0  0  0  0  0  0  0  0  0  0  0
   37.8870   28.9380   50.9250 O   0  0  0  0  0  0  0  0  0  0  0  0
   37.7890   30.5590   49.2110 C   0  0  0  0  0  0  0  0  0  0  0  0
   38.1390   31.7460   49.8310 C   0  0  0  0  0  0  0  0  0  0  0  0
   38.6740   32.7760   49.0510 C   0  0  0  0  0  0  0  0  0  0  0  0
   38.8230   32.5520   47.7040 N   0  0  0  0  0  0  0  0  0  0  0  0
   38.4760   31.3940   47.1400 C   0  0  0  0  0  0  0  0  0  0  0  0
   37.9610   30.3990   47.8800 N   0  0  0  0  0  0  0  0  0  0  0  0
   38.0420   31.9740   50.8820 H   0  0  0  0  0  0  0  0  0  0  0  0
   38.9550   33.7090   49.4950 H   0  0  0  0  0  0  0  0  0  0  0  0
   38.6340   31.3150   46.0670 H   0  0  0  0  0  0  0  0  0  0  0  0
   33.1040   27.5250   48.2180 C   0  0  0  0  0  0  0  0  0  0  0  0
   31.8760   27.4520   48.5560 O   0  0  0  0  0  0  0  0  0  0  0  0
   33.6180   26.8170   47.0000 C   0  0  1  0  0  0  0  0  0  0  0  0
   33.8160   25.2810   47.3180 C   0  0  0  0  0  0  0  0  0  0  0  0
   32.8210   25.7810   46.3390 C   0  0  2  0  0  0  0  0  0  0  0  0
   34.6120   27.2100   46.6540 H   0  0  0  0  0  0  0  0  0  0  0  0
   33.4070   24.9100   48.2550 H   0  0  0  0  0  0  0  0  0  0  0  0
   34.7160   24.8070   46.9390 H   0  0  0  0  0  0  0  0  0  0  0  0
   31.7460   25.7510   46.6100 H   0  0  0  0  0  0  0  0  0  0  0  0
   34.5440   25.5990   44.5600 C   0  0  2  0  0  0  0  0  0  0  0  0
   33.0390   25.6030   44.8590 C   0  0  2  0  0  0  0  0  0  0  0  0
   32.6430   26.6910   44.1110 O   0  0  0  0  0  0  0  0  0  0  0  0
   33.2340   26.5410   42.8780 C   0  0  0  0  0  0  0  0  0  0  0  0
   34.4430   25.6410   43.0300 C   0  0  1  0  0  0  0  0  0  0  0  0
   35.1810   24.4740   45.0150 O   0  0  0  0  0  0  0  0  0  0  0  0
   35.4890   24.6730   45.9450 H   0  0  0  0  0  0  0  0  0  0  0  0
   35.5810   26.1170   42.4280 O   0  0  0  0  0  0  0  0  0  0  0  0
   36.1260   25.3800   42.0060 H   0  0  0  0  0  0  0  0  0  0  0  0
  1  8  1  0  0  0  0
  1  2  2  0  0  0  0
  2  6  1  0  0  0  0
  3  7  1  0  0  0  0
  3  2  1  0  0  0  0
  4  3  2  0  0  0  0
  5  4  1  0  0  0  0
  5  1  1  0  0  0  0
  8  9  2  0  0  0  0
 10 11  1  0  0  0  0
 10  8  1  0  0  0  0
 11 16  1  0  0  0  0
 12 17  1  0  0  0  0
 12 11  2  0  0  0  0
 13 12  1  0  0  0  0
 14 13  2  0  0  0  0
 14 15  1  0  0  0  0
 15 10  2  0  0  0  0
 18 14  1  0  0  0  0
 19 20  2  0  0  0  0
 19  4  1  0  0  0  0
 21 24  1  6  0  0  0
 21 22  1  0  0  0  0
 21 19  1  0  0  0  0
 22 25  1  0  0  0  0
 23 27  1  1  0  0  0
 23 21  1  0  0  0  0
 23 22  1  0  0  0  0
 26 22  1  0  0  0  0
 28 29  1  0  0  0  0
 28 33  1  6  0  0  0
 29 30  1  6  0  0  0
 29 23  1  0  0  0  0
 31 32  1  0  0  0  0
 31 30  1  0  0  0  0
 32 35  1  6  0  0  0
 32 28  1  0  0  0  0
 33 34  1  0  0  0  0
 36 35  1  0  0  0  0
M  END
>  <minimizedAffinity>
-5.00106382

>  <minimizedRMSD>
0.485842675

$$$$
