
 OpenBabel03272507323D

 36 39  0  0  1  0  0  0  0  0999 V2000
   35.8600   29.1500   49.8060 C   0  0  0  0  0  0  0  0  0  0  0  0
   34.8090   29.6230   50.5610 C   0  0  0  0  0  0  0  0  0  0  0  0
   33.6340   29.0530   50.0500 C   0  0  0  0  0  0  0  0  0  0  0  0
   34.0510   28.2590   49.0050 C   0  0  0  0  0  0  0  0  0  0  0  0
   35.3590   28.3470   48.8980 O   0  0  0  0  0  0  0  0  0  0  0  0
   34.7360   30.3030   51.4110 H   0  0  0  0  0  0  0  0  0  0  0  0
   32.5930   29.1700   50.3620 H   0  0  0  0  0  0  0  0  0  0  0  0
   37.2360   29.5400   50.0630 C   0  0  0  0  0  0  0  0  0  0  0  0
   37.8660   28.9780   50.9700 O   0  0  0  0  0  0  0  0  0  0  0  0
   37.7870   30.5740   49.2320 C   0  0  0  0  0  0  0  0  0  0  0  0
   38.1210   31.7670   49.8510 C   0  0  0  0  0  0  0  0  0  0  0  0
   38.6590   32.7970   49.0720 C   0  0  0  0  0  0  0  0  0  0  0  0
   38.8270   32.5660   47.7280 N   0  0  0  0  0  0  0  0  0  0  0  0
   38.4940   31.4030   47.1660 C   0  0  0  0  0  0  0  0  0  0  0  0
   37.9770   30.4090   47.9050 N   0  0  0  0  0  0  0  0  0  0  0  0
   38.0090   32.0000   50.8990 H   0  0  0  0  0  0  0  0  0  0  0  0
   38.9280   33.7330   49.5140 H   0  0  0  0  0  0  0  0  0  0  0  0
   38.6670   31.3190   46.0950 H   0  0  0  0  0  0  0  0  0  0  0  0
   33.1850   27.4460   48.1510 C   0  0  0  0  0  0  0  0  0  0  0  0
   31.9350   27.4260   48.4030 O   0  0  0  0  0  0  0  0  0  0  0  0
   33.7610   26.6540   47.0150 C   0  0  1  0  0  0  0  0  0  0  0  0
   33.7620   25.1160   47.3820 C   0  0  0  0  0  0  0  0  0  0  0  0
   32.9440   25.6840   46.2830 C   0  0  2  0  0  0  0  0  0  0  0  0
   34.8230   26.9350   46.7820 H   0  0  0  0  0  0  0  0  0  0  0  0
   33.2110   24.8160   48.2710 H   0  0  0  0  0  0  0  0  0  0  0  0
   34.6470   24.5430   47.1210 H   0  0  0  0  0  0  0  0  0  0  0  0
   31.8480   25.7700   46.4260 H   0  0  0  0  0  0  0  0  0  0  0  0
   33.5340   23.9380   44.6190 C   0  0  2  0  0  3  0  0  0  0  0  0
   33.3120   25.4400   44.8430 C   0  0  2  0  0  3  0  0  0  0  0  0
   34.5570   25.9250   44.5060 O   0  0  0  0  0  0  0  0  0  0  0  0
   34.8970   25.3140   43.3210 C   0  0  0  0  0  2  0  0  0  0  0  0
   34.1010   24.0310   43.1950 C   0  0  1  0  0  3  0  0  0  0  0  0
   32.3770   23.2070   44.6780 O   0  0  0  0  0  0  0  0  0  0  0  0
   32.2620   22.9240   45.6300 H   0  0  0  0  0  0  0  0  0  0  0  0
   34.8480   22.9360   42.8410 O   0  0  0  0  0  0  0  0  0  0  0  0
   34.3510   22.3240   42.2100 H   0  0  0  0  0  0  0  0  0  0  0  0
  1  8  1  0  0  0  0
  1  2  2  0  0  0  0
  2  6  1  0  0  0  0
  3  7  1  0  0  0  0
  3  2  1  0  0  0  0
  4  3  2  0  0  0  0
  5  4  1  0  0  0  0
  5  1  1  0  0  0  0
  8  9  2  0  0  0  0
 10 11  1  0  0  0  0
 10  8  1  0  0  0  0
 11 16  1  0  0  0  0
 12 17  1  0  0  0  0
 12 11  2  0  0  0  0
 13 12  1  0  0  0  0
 14 13  2  0  0  0  0
 14 15  1  0  0  0  0
 15 10  2  0  0  0  0
 18 14  1  0  0  0  0
 19 20  2  0  0  0  0
 19  4  1  0  0  0  0
 21 24  1  6  0  0  0
 21 22  1  0  0  0  0
 21 19  1  0  0  0  0
 22 25  1  0  0  0  0
 23 27  1  1  0  0  0
 23 21  1  0  0  0  0
 23 22  1  0  0  0  0
 26 22  1  0  0  0  0
 28 33  1  6  0  0  0
 28 29  1  0  0  0  0
 29 30  1  1  0  0  0
 29 23  1  0  0  0  0
 31 30  1  0  0  0  0
 32 35  1  1  0  0  0
 32 31  1  0  0  0  0
 32 28  1  0  0  0  0
 33 34  1  0  0  0  0
 36 35  1  0  0  0  0
M  END
>  <minimizedAffinity>
-4.93926525

>  <minimizedRMSD>
0.324712276

$$$$
