
 OpenBabel03272508583D

 40 43  0  0  1  0  0  0  0  0999 V2000
   38.3650   31.8620   44.4790 C   0  0  0  0  0  0  0  0  0  0  0  0
   37.2860   32.4570   44.3860 O   0  0  0  0  0  0  0  0  0  0  0  0
   38.9300   31.5430   45.7830 N   0  0  0  0  0  0  0  0  0  0  0  0
   39.9020   31.2340   45.9330 H   0  0  0  0  0  0  0  0  0  0  0  0
   39.1430   31.4420   43.2950 C   0  0  0  0  0  0  0  0  0  0  0  0
   40.2460   30.6500   43.4580 C   0  0  0  0  0  0  0  0  0  0  0  0
   40.9510   30.2790   42.3320 C   0  0  0  0  0  0  0  0  0  0  0  0
   40.4960   30.7320   41.1060 C   0  0  0  0  0  0  0  0  0  0  0  0
   39.3760   31.5360   40.9280 C   0  0  0  0  0  0  0  0  0  0  0  0
   38.7400   31.8590   42.0640 N   0  0  0  0  0  0  0  0  0  0  0  0
   40.5850   30.3070   44.4210 H   0  0  0  0  0  0  0  0  0  0  0  0
   41.8240   29.6550   42.4270 H   0  0  0  0  0  0  0  0  0  0  0  0
   41.0930   30.4050   40.2670 H   0  0  0  0  0  0  0  0  0  0  0  0
   38.9560   31.9710   39.6100 C   0  0  0  0  0  0  0  0  0  0  0  0
   39.2350   33.1340   39.2430 O   0  0  0  0  0  0  0  0  0  0  0  0
   38.2380   31.2010   38.6600 N   0  0  0  0  0  0  0  0  0  0  0  0
   37.5930   29.9860   39.1160 C   0  0  0  0  0  3  0  0  0  0  0  0
   37.5880   29.9290   40.2040 H   0  0  0  0  0  0  0  0  0  0  0  0
   38.3800   28.8260   38.5450 C   0  0  0  0  0  3  0  0  0  0  0  0
   37.7070   27.9400   38.4630 H   0  0  0  0  0  0  0  0  0  0  0  0
   38.8810   29.1610   37.2270 N   0  0  0  0  0  0  0  0  0  0  0  0
   38.9370   28.3180   36.6220 H   0  0  0  0  0  0  0  0  0  0  0  0
   37.9430   30.0930   36.5830 C   0  0  0  0  0  2  0  0  0  0  0  0
   38.0560   31.4720   37.2480 C   0  0  0  0  0  2  0  0  0  0  0  0
   38.4340   31.0590   48.1710 C   0  0  2  0  0  0  0  0  0  0  0  0
   38.6780   32.5220   48.0680 C   0  0  0  0  0  0  0  0  0  0  0  0
   38.0700   31.6690   46.9350 C   0  0  1  0  0  0  0  0  0  0  0  0
   39.3470   30.4390   48.2650 H   0  0  0  0  0  0  0  0  0  0  0  0
   38.0230   33.1930   48.6380 H   0  0  0  0  0  0  0  0  0  0  0  0
   39.7090   32.8580   47.9510 H   0  0  0  0  0  0  0  0  0  0  0  0
   37.0070   31.9330   46.7510 H   0  0  0  0  0  0  0  0  0  0  0  0
   35.0590   30.2410   49.5090 C   0  0  0  0  0  0  0  0  0  0  0  0
   35.3950   29.5570   50.7260 C   0  0  0  0  0  0  0  0  0  0  0  0
   36.7980   29.3990   51.0660 C   0  0  0  0  0  0  0  0  0  0  0  0
   37.7500   29.9050   50.2190 N   0  0  0  0  0  0  0  0  0  0  0  0
   37.3460   30.5440   49.0820 C   0  0  0  0  0  0  0  0  0  0  0  0
   36.0220   30.7280   48.6990 N   0  0  0  0  0  0  0  0  0  0  0  0
   34.0140   30.3260   49.3130 H   0  0  0  0  0  0  0  0  0  0  0  0
   34.6470   29.1620   51.3820 H   0  0  0  0  0  0  0  0  0  0  0  0
   37.0330   28.8920   51.9680 H   0  0  0  0  0  0  0  0  0  0  0  0
  1  3  1  0  0  0  0
  2  1  2  0  0  0  0
  3  4  1  0  0  0  0
  3 27  1  0  0  0  0
  5  6  1  0  0  0  0
  5  1  1  0  0  0  0
  6 11  1  0  0  0  0
  7 12  1  0  0  0  0
  7  6  2  0  0  0  0
  8  7  1  0  0  0  0
  9  8  2  0  0  0  0
  9 10  1  0  0  0  0
 10  5  2  0  0  0  0
 13  8  1  0  0  0  0
 14  9  1  0  0  0  0
 15 14  2  0  0  0  0
 16 17  1  0  0  0  0
 16 14  1  0  0  0  0
 17 18  1  0  0  0  0
 19 17  1  0  0  0  0
 20 19  1  0  0  0  0
 21 19  1  0  0  0  0
 22 21  1  0  0  0  0
 23 21  1  0  0  0  0
 23 24  1  0  0  0  0
 24 16  1  0  0  0  0
 25 28  1  6  0  0  0
 25 36  1  0  0  0  0
 26 25  1  0  0  0  0
 26 29  1  0  0  0  0
 27 31  1  6  0  0  0
 27 26  1  0  0  0  0
 27 25  1  0  0  0  0
 30 26  1  0  0  0  0
 32 33  1  0  0  0  0
 33 34  2  0  0  0  0
 33 39  1  0  0  0  0
 34 40  1  0  0  0  0
 35 34  1  0  0  0  0
 36 35  2  0  0  0  0
 37 36  1  0  0  0  0
 37 32  2  0  0  0  0
 38 32  1  0  0  0  0
M  END
>  <minimizedAffinity>
-5.04430771

>  <minimizedRMSD>
1.09522915

$$$$
