
 OpenBabel03272503253D

 32 34  0  0  1  0  0  0  0  0999 V2000
   36.6650   30.1100   49.0080 N   0  0  0  0  0  0  0  0  0  0  0  0
   37.1270   31.4770   48.8670 C   0  0  1  0  0  0  0  0  0  0  0  0
   37.7400   31.7180   50.2440 C   0  0  0  0  0  0  0  0  0  0  0  0
   37.3700   30.4950   51.0990 C   0  0  0  0  0  0  0  0  0  0  0  0
   37.4510   29.4240   50.0130 C   0  0  0  0  0  0  0  0  0  0  0  0
   36.2560   32.1350   48.7100 H   0  0  0  0  0  0  0  0  0  0  0  0
   37.2870   32.6280   50.7040 H   0  0  0  0  0  0  0  0  0  0  0  0
   38.8320   31.7610   50.1600 H   0  0  0  0  0  0  0  0  0  0  0  0
   38.0870   30.3330   51.8980 H   0  0  0  0  0  0  0  0  0  0  0  0
   36.3090   30.5340   51.4140 H   0  0  0  0  0  0  0  0  0  0  0  0
   36.9950   28.4950   50.3560 H   0  0  0  0  0  0  0  0  0  0  0  0
   38.5080   29.3070   49.6780 H   0  0  0  0  0  0  0  0  0  0  0  0
   38.0750   31.6900   47.7900 C   0  0  0  0  0  0  0  0  0  0  0  0
   39.1270   32.2520   48.0240 O   0  0  0  0  0  0  0  0  0  0  0  0
   38.4190   31.5540   46.4280 N   0  0  0  0  0  0  0  0  0  0  0  0
   39.3860   30.5800   45.9760 C   0  0  0  0  0  0  0  0  0  0  0  0
   38.9760   29.9890   45.1050 H   0  0  0  0  0  0  0  0  0  0  0  0
   40.5460   31.3710   45.3520 C   0  0  0  0  0  0  0  0  0  0  0  0
   41.4490   30.7430   45.2360 H   0  0  0  0  0  0  0  0  0  0  0  0
   40.0570   31.8530   44.0750 N   0  0  0  0  0  0  0  0  0  0  0  0
   39.6770   31.0890   43.4830 H   0  0  0  0  0  0  0  0  0  0  0  0
   39.0220   32.8140   44.3800 C   0  0  0  0  0  0  0  0  0  0  0  0
   37.9440   32.2720   45.2540 C   0  0  0  0  0  0  0  0  0  0  0  0
   35.5900   29.5510   48.2610 C   0  0  0  0  0  0  0  0  0  0  0  0
   35.1780   30.1780   47.0960 C   0  0  0  0  0  0  0  0  0  0  0  0
   34.1380   29.6690   46.3330 C   0  0  0  0  0  0  0  0  0  0  0  0
   33.5550   28.5070   46.8190 N   0  0  0  0  0  0  0  0  0  0  0  0
   33.9660   27.9120   47.9490 C   0  0  0  0  0  0  0  0  0  0  0  0
   34.9850   28.4480   48.6580 N   0  0  0  0  0  0  0  0  0  0  0  0
   35.6220   31.0830   46.7060 H   0  0  0  0  0  0  0  0  0  0  0  0
   33.8090   30.1520   45.4230 H   0  0  0  0  0  0  0  0  0  0  0  0
   33.4630   27.0050   48.2690 H   0  0  0  0  0  0  0  0  0  0  0  0
  1  5  1  0  0  0  0
  2  6  1  6  0  0  0
  2  1  1  0  0  0  0
  2  3  1  0  0  0  0
  3  7  1  0  0  0  0
  3  4  1  0  0  0  0
  4 10  1  0  0  0  0
  4  9  1  0  0  0  0
  5 11  1  0  0  0  0
  5  4  1  0  0  0  0
  8  3  1  0  0  0  0
 12  5  1  0  0  0  0
 13 14  2  0  0  0  0
 13  2  1  0  0  0  0
 15 13  1  0  0  0  0
 16 15  1  0  0  0  0
 17 16  1  0  0  0  0
 18 16  1  0  0  0  0
 19 18  1  0  0  0  0
 20 22  1  0  0  0  0
 20 18  1  0  0  0  0
 21 20  1  0  0  0  0
 22 23  1  0  0  0  0
 23 15  1  0  0  0  0
 24 29  1  0  0  0  0
 24  1  1  0  0  0  0
 25 24  2  0  0  0  0
 26 27  2  0  0  0  0
 26 25  1  0  0  0  0
 27 28  1  0  0  0  0
 28 32  1  0  0  0  0
 28 29  2  0  0  0  0
 30 25  1  0  0  0  0
 31 26  1  0  0  0  0
M  END
>  <minimizedAffinity>
-5.72668839

>  <minimizedRMSD>
1.28905571

$$$$
