
 OpenBabel03272508583D

 40 43  0  0  1  0  0  0  0  0999 V2000
   38.3760   31.8460   44.5230 C   0  0  0  0  0  0  0  0  0  0  0  0
   37.2980   32.4410   44.4170 O   0  0  0  0  0  0  0  0  0  0  0  0
   38.9280   31.5330   45.8340 N   0  0  0  0  0  0  0  0  0  0  0  0
   39.8990   31.2250   45.9950 H   0  0  0  0  0  0  0  0  0  0  0  0
   39.1650   31.4190   43.3490 C   0  0  0  0  0  0  0  0  0  0  0  0
   40.2680   30.6310   43.5270 C   0  0  0  0  0  0  0  0  0  0  0  0
   40.9830   30.2540   42.4090 C   0  0  0  0  0  0  0  0  0  0  0  0
   40.5380   30.6980   41.1760 C   0  0  0  0  0  0  0  0  0  0  0  0
   39.4180   31.4990   40.9840 C   0  0  0  0  0  0  0  0  0  0  0  0
   38.7720   31.8280   42.1120 N   0  0  0  0  0  0  0  0  0  0  0  0
   40.5990   30.2950   44.4940 H   0  0  0  0  0  0  0  0  0  0  0  0
   41.8570   29.6330   42.5150 H   0  0  0  0  0  0  0  0  0  0  0  0
   41.1430   30.3670   40.3450 H   0  0  0  0  0  0  0  0  0  0  0  0
   39.0080   31.9240   39.6590 C   0  0  0  0  0  0  0  0  0  0  0  0
   39.1740   33.1210   39.3340 O   0  0  0  0  0  0  0  0  0  0  0  0
   38.4190   31.1090   38.6600 N   0  0  0  0  0  0  0  0  0  0  0  0
   37.6060   29.9880   39.0860 C   0  0  0  0  0  3  0  0  0  0  0  0
   37.3950   30.0400   40.1540 H   0  0  0  0  0  0  0  0  0  0  0  0
   38.3900   28.7310   38.7790 C   0  0  0  0  0  3  0  0  0  0  0  0
   37.6750   27.8840   38.6460 H   0  0  0  0  0  0  0  0  0  0  0  0
   39.1510   28.9000   37.5580 N   0  0  0  0  0  0  0  0  0  0  0  0
   39.2510   28.0000   37.0500 H   0  0  0  0  0  0  0  0  0  0  0  0
   38.4270   29.8200   36.6680 C   0  0  0  0  0  2  0  0  0  0  0  0
   38.5240   31.2480   37.2200 C   0  0  0  0  0  2  0  0  0  0  0  0
   38.4180   31.0770   48.2250 C   0  0  2  0  0  0  0  0  0  0  0  0
   38.6470   32.5410   48.1030 C   0  0  0  0  0  0  0  0  0  0  0  0
   38.0580   31.6660   46.9770 C   0  0  1  0  0  0  0  0  0  0  0  0
   39.3380   30.4690   48.3340 H   0  0  0  0  0  0  0  0  0  0  0  0
   37.9790   33.2130   48.6590 H   0  0  0  0  0  0  0  0  0  0  0  0
   39.6740   32.8870   47.9890 H   0  0  0  0  0  0  0  0  0  0  0  0
   36.9930   31.9140   46.7810 H   0  0  0  0  0  0  0  0  0  0  0  0
   35.0430   30.2210   49.5390 C   0  0  0  0  0  0  0  0  0  0  0  0
   35.3760   29.5750   50.7760 C   0  0  0  0  0  0  0  0  0  0  0  0
   36.7780   29.4560   51.1390 C   0  0  0  0  0  0  0  0  0  0  0  0
   37.7300   29.9610   50.2930 N   0  0  0  0  0  0  0  0  0  0  0  0
   37.3290   30.5620   49.1340 C   0  0  0  0  0  0  0  0  0  0  0  0
   36.0060   30.7080   48.7290 N   0  0  0  0  0  0  0  0  0  0  0  0
   33.9990   30.2790   49.3260 H   0  0  0  0  0  0  0  0  0  0  0  0
   34.6280   29.1820   51.4330 H   0  0  0  0  0  0  0  0  0  0  0  0
   37.0110   28.9770   52.0570 H   0  0  0  0  0  0  0  0  0  0  0  0
  1  3  1  0  0  0  0
  2  1  2  0  0  0  0
  3  4  1  0  0  0  0
  3 27  1  0  0  0  0
  5  6  1  0  0  0  0
  5  1  1  0  0  0  0
  6 11  1  0  0  0  0
  7 12  1  0  0  0  0
  7  6  2  0  0  0  0
  8  7  1  0  0  0  0
  9  8  2  0  0  0  0
  9 10  1  0  0  0  0
 10  5  2  0  0  0  0
 13  8  1  0  0  0  0
 14  9  1  0  0  0  0
 15 14  2  0  0  0  0
 16 17  1  0  0  0  0
 16 14  1  0  0  0  0
 17 18  1  0  0  0  0
 19 17  1  0  0  0  0
 20 19  1  0  0  0  0
 21 19  1  0  0  0  0
 22 21  1  0  0  0  0
 23 24  1  0  0  0  0
 23 21  1  0  0  0  0
 24 16  1  0  0  0  0
 25 28  1  6  0  0  0
 25 36  1  0  0  0  0
 26 25  1  0  0  0  0
 26 29  1  0  0  0  0
 27 31  1  6  0  0  0
 27 26  1  0  0  0  0
 27 25  1  0  0  0  0
 30 26  1  0  0  0  0
 32 33  1  0  0  0  0
 33 34  2  0  0  0  0
 33 39  1  0  0  0  0
 34 40  1  0  0  0  0
 35 34  1  0  0  0  0
 36 35  2  0  0  0  0
 37 36  1  0  0  0  0
 37 32  2  0  0  0  0
 38 32  1  0  0  0  0
M  END
>  <minimizedAffinity>
-5.07475567

>  <minimizedRMSD>
0.971378386

$$$$
