
 OpenBabel03272508583D

 40 43  0  0  1  0  0  0  0  0999 V2000
   38.3630   31.8630   44.4740 C   0  0  0  0  0  0  0  0  0  0  0  0
   37.2910   32.4720   44.3890 O   0  0  0  0  0  0  0  0  0  0  0  0
   38.9290   31.5290   45.7730 N   0  0  0  0  0  0  0  0  0  0  0  0
   39.8980   31.2070   45.9180 H   0  0  0  0  0  0  0  0  0  0  0  0
   39.1310   31.4400   43.2840 C   0  0  0  0  0  0  0  0  0  0  0  0
   40.2340   30.6470   43.4390 C   0  0  0  0  0  0  0  0  0  0  0  0
   40.9290   30.2730   42.3080 C   0  0  0  0  0  0  0  0  0  0  0  0
   40.4660   30.7260   41.0850 C   0  0  0  0  0  0  0  0  0  0  0  0
   39.3450   31.5310   40.9150 C   0  0  0  0  0  0  0  0  0  0  0  0
   38.7190   31.8560   42.0560 N   0  0  0  0  0  0  0  0  0  0  0  0
   40.5800   30.3050   44.3990 H   0  0  0  0  0  0  0  0  0  0  0  0
   41.8030   29.6490   42.3960 H   0  0  0  0  0  0  0  0  0  0  0  0
   41.0550   30.3970   40.2410 H   0  0  0  0  0  0  0  0  0  0  0  0
   38.9150   31.9650   39.6000 C   0  0  0  0  0  0  0  0  0  0  0  0
   39.3780   33.0320   39.1370 O   0  0  0  0  0  0  0  0  0  0  0  0
   37.9960   31.2960   38.7530 N   0  0  0  0  0  0  0  0  0  0  0  0
   37.1930   32.0950   37.8520 C   0  0  0  0  0  3  0  0  0  0  0  0
   37.5520   33.1220   37.8120 H   0  0  0  0  0  0  0  0  0  0  0  0
   35.7750   32.0670   38.3820 C   0  0  0  0  0  3  0  0  0  0  0  0
   35.0710   32.2470   37.5350 H   0  0  0  0  0  0  0  0  0  0  0  0
   35.4850   30.7760   38.9690 N   0  0  0  0  0  0  0  0  0  0  0  0
   34.4820   30.5280   38.8540 H   0  0  0  0  0  0  0  0  0  0  0  0
   36.2660   29.7460   38.2690 C   0  0  0  0  0  2  0  0  0  0  0  0
   37.7440   29.8700   38.6630 C   0  0  0  0  0  2  0  0  0  0  0  0
   38.4400   31.0430   48.1620 C   0  0  2  0  0  0  0  0  0  0  0  0
   38.6960   32.5040   48.0620 C   0  0  0  0  0  0  0  0  0  0  0  0
   38.0760   31.6590   46.9290 C   0  0  1  0  0  0  0  0  0  0  0  0
   39.3490   30.4150   48.2500 H   0  0  0  0  0  0  0  0  0  0  0  0
   38.0490   33.1790   48.6370 H   0  0  0  0  0  0  0  0  0  0  0  0
   39.7290   32.8320   47.9410 H   0  0  0  0  0  0  0  0  0  0  0  0
   37.0130   31.9310   46.7510 H   0  0  0  0  0  0  0  0  0  0  0  0
   35.0660   30.2380   49.5090 C   0  0  0  0  0  0  0  0  0  0  0  0
   35.4010   29.5570   50.7270 C   0  0  0  0  0  0  0  0  0  0  0  0
   36.8050   29.3970   51.0660 C   0  0  0  0  0  0  0  0  0  0  0  0
   37.7560   29.8980   50.2160 N   0  0  0  0  0  0  0  0  0  0  0  0
   37.3520   30.5340   49.0760 C   0  0  0  0  0  0  0  0  0  0  0  0
   36.0280   30.7190   48.6950 N   0  0  0  0  0  0  0  0  0  0  0  0
   34.0200   30.3240   49.3130 H   0  0  0  0  0  0  0  0  0  0  0  0
   34.6540   29.1670   51.3860 H   0  0  0  0  0  0  0  0  0  0  0  0
   37.0400   28.8930   51.9690 H   0  0  0  0  0  0  0  0  0  0  0  0
  1  3  1  0  0  0  0
  2  1  2  0  0  0  0
  3  4  1  0  0  0  0
  3 27  1  0  0  0  0
  5  6  1  0  0  0  0
  5  1  1  0  0  0  0
  6 11  1  0  0  0  0
  7 12  1  0  0  0  0
  7  6  2  0  0  0  0
  8  7  1  0  0  0  0
  9  8  2  0  0  0  0
  9 10  1  0  0  0  0
 10  5  2  0  0  0  0
 13  8  1  0  0  0  0
 14  9  1  0  0  0  0
 15 14  2  0  0  0  0
 16 14  1  0  0  0  0
 17 19  1  0  0  0  0
 17 16  1  0  0  0  0
 18 17  1  0  0  0  0
 19 21  1  0  0  0  0
 20 19  1  0  0  0  0
 22 21  1  0  0  0  0
 23 24  1  0  0  0  0
 23 21  1  0  0  0  0
 24 16  1  0  0  0  0
 25 28  1  6  0  0  0
 25 36  1  0  0  0  0
 26 25  1  0  0  0  0
 26 29  1  0  0  0  0
 27 31  1  6  0  0  0
 27 26  1  0  0  0  0
 27 25  1  0  0  0  0
 30 26  1  0  0  0  0
 32 33  1  0  0  0  0
 33 34  2  0  0  0  0
 33 39  1  0  0  0  0
 34 40  1  0  0  0  0
 35 34  1  0  0  0  0
 36 35  2  0  0  0  0
 37 36  1  0  0  0  0
 37 32  2  0  0  0  0
 38 32  1  0  0  0  0
M  END
>  <minimizedAffinity>
-5.00225258

>  <minimizedRMSD>
1.21431601

$$$$
