
 OpenBabel03272508583D

 40 43  0  0  1  0  0  0  0  0999 V2000
   38.3570   31.8890   44.5060 C   0  0  0  0  0  0  0  0  0  0  0  0
   37.2650   32.4600   44.4100 O   0  0  0  0  0  0  0  0  0  0  0  0
   38.9300   31.5900   45.8110 N   0  0  0  0  0  0  0  0  0  0  0  0
   39.9090   31.3040   45.9620 H   0  0  0  0  0  0  0  0  0  0  0  0
   39.1440   31.4800   43.3230 C   0  0  0  0  0  0  0  0  0  0  0  0
   40.1290   30.5420   43.4590 C   0  0  0  0  0  0  0  0  0  0  0  0
   40.8460   30.1860   42.3360 C   0  0  0  0  0  0  0  0  0  0  0  0
   40.5230   30.8020   41.1400 C   0  0  0  0  0  0  0  0  0  0  0  0
   39.5230   31.7560   40.9900 C   0  0  0  0  0  0  0  0  0  0  0  0
   38.8670   32.0550   42.1210 N   0  0  0  0  0  0  0  0  0  0  0  0
   40.3670   30.0730   44.3990 H   0  0  0  0  0  0  0  0  0  0  0  0
   41.6290   29.4490   42.4100 H   0  0  0  0  0  0  0  0  0  0  0  0
   41.1220   30.4780   40.3010 H   0  0  0  0  0  0  0  0  0  0  0  0
   39.2360   32.3580   39.7020 C   0  0  0  0  0  0  0  0  0  0  0  0
   38.6910   33.4840   39.6720 O   0  0  0  0  0  0  0  0  0  0  0  0
   39.5110   31.7940   38.4300 N   0  0  0  0  0  0  0  0  0  0  0  0
   40.7960   32.0780   37.8230 C   0  0  0  0  0  3  0  0  0  0  0  0
   41.4720   32.5480   38.5370 H   0  0  0  0  0  0  0  0  0  0  0  0
   40.5380   33.0180   36.6650 C   0  0  0  0  0  3  0  0  0  0  0  0
   41.3580   32.9010   35.9170 H   0  0  0  0  0  0  0  0  0  0  0  0
   39.2740   32.7000   36.0330 N   0  0  0  0  0  0  0  0  0  0  0  0
   39.3010   32.9080   35.0150 H   0  0  0  0  0  0  0  0  0  0  0  0
   39.0200   31.2590   36.1720 C   0  0  0  0  0  2  0  0  0  0  0  0
   38.6550   30.9420   37.6280 C   0  0  0  0  0  2  0  0  0  0  0  0
   38.4340   31.0870   48.1950 C   0  0  2  0  0  0  0  0  0  0  0  0
   38.6700   32.5520   48.1020 C   0  0  0  0  0  0  0  0  0  0  0  0
   38.0680   31.7030   46.9620 C   0  0  1  0  0  0  0  0  0  0  0  0
   39.3510   30.4710   48.2850 H   0  0  0  0  0  0  0  0  0  0  0  0
   38.0100   33.2150   48.6760 H   0  0  0  0  0  0  0  0  0  0  0  0
   39.6980   32.8950   47.9880 H   0  0  0  0  0  0  0  0  0  0  0  0
   37.0030   31.9610   46.7790 H   0  0  0  0  0  0  0  0  0  0  0  0
   35.0630   30.2300   49.5190 C   0  0  0  0  0  0  0  0  0  0  0  0
   35.4010   29.5480   50.7360 C   0  0  0  0  0  0  0  0  0  0  0  0
   36.8050   29.4050   51.0810 C   0  0  0  0  0  0  0  0  0  0  0  0
   37.7540   29.9230   50.2390 N   0  0  0  0  0  0  0  0  0  0  0  0
   37.3480   30.5590   49.1000 C   0  0  0  0  0  0  0  0  0  0  0  0
   36.0230   30.7280   48.7130 N   0  0  0  0  0  0  0  0  0  0  0  0
   34.0180   30.3030   49.3180 H   0  0  0  0  0  0  0  0  0  0  0  0
   34.6560   29.1440   51.3890 H   0  0  0  0  0  0  0  0  0  0  0  0
   37.0420   28.8990   51.9830 H   0  0  0  0  0  0  0  0  0  0  0  0
  1  3  1  0  0  0  0
  2  1  2  0  0  0  0
  3  4  1  0  0  0  0
  3 27  1  0  0  0  0
  5  6  1  0  0  0  0
  5  1  1  0  0  0  0
  6 11  1  0  0  0  0
  7 12  1  0  0  0  0
  7  6  2  0  0  0  0
  8  7  1  0  0  0  0
  9  8  2  0  0  0  0
  9 10  1  0  0  0  0
 10  5  2  0  0  0  0
 13  8  1  0  0  0  0
 14  9  1  0  0  0  0
 15 14  2  0  0  0  0
 16 14  1  0  0  0  0
 17 16  1  0  0  0  0
 17 18  1  0  0  0  0
 19 17  1  0  0  0  0
 20 19  1  0  0  0  0
 21 23  1  0  0  0  0
 21 19  1  0  0  0  0
 22 21  1  0  0  0  0
 23 24  1  0  0  0  0
 24 16  1  0  0  0  0
 25 28  1  6  0  0  0
 25 36  1  0  0  0  0
 26 25  1  0  0  0  0
 26 29  1  0  0  0  0
 27 31  1  6  0  0  0
 27 26  1  0  0  0  0
 27 25  1  0  0  0  0
 30 26  1  0  0  0  0
 32 33  1  0  0  0  0
 33 34  2  0  0  0  0
 33 39  1  0  0  0  0
 34 40  1  0  0  0  0
 35 34  1  0  0  0  0
 36 35  2  0  0  0  0
 37 36  1  0  0  0  0
 37 32  2  0  0  0  0
 38 32  1  0  0  0  0
M  END
>  <minimizedAffinity>
-5.1808815

>  <minimizedRMSD>
0.192269206

$$$$
