
 OpenBabel03272507313D

 29 31  0  0  0  0  0  0  0  0999 V2000
   35.7340   29.1340   49.8240 C   0  0  0  0  0  0  0  0  0  0  0  0
   34.8770   29.6560   50.7640 C   0  0  0  0  0  0  0  0  0  0  0  0
   33.5890   29.2250   50.4080 C   0  0  0  0  0  0  0  0  0  0  0  0
   33.7660   28.4620   49.2610 C   0  0  0  0  0  0  0  0  0  0  0  0
   35.0230   28.4430   48.9680 O   0  0  0  0  0  0  0  0  0  0  0  0
   35.0500   30.2780   51.6320 H   0  0  0  0  0  0  0  0  0  0  0  0
   32.6430   29.4160   50.8850 H   0  0  0  0  0  0  0  0  0  0  0  0
   32.6590   27.8140   48.5500 C   0  0  0  0  0  0  0  0  0  0  0  0
   31.4780   27.8680   48.9810 O   0  0  0  0  0  0  0  0  0  0  0  0
   32.8130   27.0870   47.3450 N   0  0  0  0  0  0  0  0  0  0  0  0
   33.9420   26.2150   47.4260 C   0  0  0  0  0  3  0  0  0  0  0  0
   34.9170   26.7660   47.5650 H   0  0  0  0  0  0  0  0  0  0  0  0
   34.0770   25.5420   46.0540 C   0  0  0  0  0  3  0  0  0  0  0  0
   34.8650   24.7710   46.1530 H   0  0  0  0  0  0  0  0  0  0  0  0
   32.8600   24.8720   45.7120 N   0  0  0  0  0  0  0  0  0  0  0  0
   32.7810   24.0260   46.3220 H   0  0  0  0  0  0  0  0  0  0  0  0
   31.6660   25.6520   45.8260 C   0  0  0  0  0  2  0  0  0  0  0  0
   32.0290   27.1120   46.1270 C   0  0  0  0  0  2  0  0  0  0  0  0
   37.1650   29.3740   49.8730 C   0  0  0  0  0  0  0  0  0  0  0  0
   37.8700   28.6620   50.6210 O   0  0  0  0  0  0  0  0  0  0  0  0
   37.6850   30.4370   49.0400 C   0  0  0  0  0  0  0  0  0  0  0  0
   38.0970   31.5950   49.6980 C   0  0  0  0  0  0  0  0  0  0  0  0
   38.6070   32.6440   48.9190 C   0  0  0  0  0  0  0  0  0  0  0  0
   38.6690   32.4730   47.5610 N   0  0  0  0  0  0  0  0  0  0  0  0
   38.2560   31.3310   46.9630 C   0  0  0  0  0  0  0  0  0  0  0  0
   37.7730   30.3360   47.7010 N   0  0  0  0  0  0  0  0  0  0  0  0
   38.0690   31.7750   50.7580 H   0  0  0  0  0  0  0  0  0  0  0  0
   38.9360   33.5550   49.3970 H   0  0  0  0  0  0  0  0  0  0  0  0
   38.3610   31.3300   45.8860 H   0  0  0  0  0  0  0  0  0  0  0  0
  1 19  1  0  0  0  0
  1  2  2  0  0  0  0
  2  6  1  0  0  0  0
  3  2  1  0  0  0  0
  3  7  1  0  0  0  0
  4  3  2  0  0  0  0
  5  4  1  0  0  0  0
  5  1  1  0  0  0  0
  8  9  2  0  0  0  0
  8  4  1  0  0  0  0
 10 11  1  0  0  0  0
 10  8  1  0  0  0  0
 11 12  1  0  0  0  0
 13 14  1  0  0  0  0
 13 11  1  0  0  0  0
 15 17  1  0  0  0  0
 15 13  1  0  0  0  0
 15 16  1  0  0  0  0
 17 18  1  0  0  0  0
 18 10  1  0  0  0  0
 19 20  2  0  0  0  0
 21 22  1  0  0  0  0
 21 19  1  0  0  0  0
 22 27  1  0  0  0  0
 23 28  1  0  0  0  0
 23 22  2  0  0  0  0
 24 23  1  0  0  0  0
 25 24  2  0  0  0  0
 25 26  1  0  0  0  0
 26 21  2  0  0  0  0
 29 25  1  0  0  0  0
M  END
>  <minimizedAffinity>
-5.00406599

>  <minimizedRMSD>
1.66596055

$$$$
