
 OpenBabel03272508583D

 40 43  0  0  1  0  0  0  0  0999 V2000
   38.3590   31.8860   44.5070 C   0  0  0  0  0  0  0  0  0  0  0  0
   37.2690   32.4600   44.4110 O   0  0  0  0  0  0  0  0  0  0  0  0
   38.9300   31.5840   45.8120 N   0  0  0  0  0  0  0  0  0  0  0  0
   39.9080   31.2940   45.9640 H   0  0  0  0  0  0  0  0  0  0  0  0
   39.1460   31.4760   43.3240 C   0  0  0  0  0  0  0  0  0  0  0  0
   40.1300   30.5360   43.4610 C   0  0  0  0  0  0  0  0  0  0  0  0
   40.8460   30.1780   42.3380 C   0  0  0  0  0  0  0  0  0  0  0  0
   40.5240   30.7940   41.1420 C   0  0  0  0  0  0  0  0  0  0  0  0
   39.5250   31.7500   40.9910 C   0  0  0  0  0  0  0  0  0  0  0  0
   38.8700   32.0500   42.1220 N   0  0  0  0  0  0  0  0  0  0  0  0
   40.3670   30.0670   44.4010 H   0  0  0  0  0  0  0  0  0  0  0  0
   41.6280   29.4410   42.4120 H   0  0  0  0  0  0  0  0  0  0  0  0
   41.1220   30.4690   40.3030 H   0  0  0  0  0  0  0  0  0  0  0  0
   39.2390   32.3520   39.7030 C   0  0  0  0  0  0  0  0  0  0  0  0
   38.6750   33.4680   39.6730 O   0  0  0  0  0  0  0  0  0  0  0  0
   39.5350   31.7970   38.4320 N   0  0  0  0  0  0  0  0  0  0  0  0
   40.9120   31.8210   37.9830 C   0  0  0  0  0  3  0  0  0  0  0  0
   41.5840   32.1010   38.7940 H   0  0  0  0  0  0  0  0  0  0  0  0
   40.9980   32.8450   36.8710 C   0  0  0  0  0  3  0  0  0  0  0  0
   41.8550   32.5850   36.2070 H   0  0  0  0  0  0  0  0  0  0  0  0
   39.7770   32.8370   36.0890 N   0  0  0  0  0  0  0  0  0  0  0  0
   39.9660   33.0800   35.0970 H   0  0  0  0  0  0  0  0  0  0  0  0
   39.2090   31.4810   36.1030 C   0  0  0  0  0  2  0  0  0  0  0  0
   38.6170   31.1890   37.4880 C   0  0  0  0  0  2  0  0  0  0  0  0
   38.4330   31.0840   48.1970 C   0  0  2  0  0  0  0  0  0  0  0  0
   38.6680   32.5490   48.1020 C   0  0  0  0  0  0  0  0  0  0  0  0
   38.0670   31.6980   46.9630 C   0  0  1  0  0  0  0  0  0  0  0  0
   39.3500   30.4690   48.2880 H   0  0  0  0  0  0  0  0  0  0  0  0
   38.0080   33.2130   48.6740 H   0  0  0  0  0  0  0  0  0  0  0  0
   39.6970   32.8920   47.9880 H   0  0  0  0  0  0  0  0  0  0  0  0
   37.0020   31.9560   46.7780 H   0  0  0  0  0  0  0  0  0  0  0  0
   35.0620   30.2300   49.5210 C   0  0  0  0  0  0  0  0  0  0  0  0
   35.4000   29.5480   50.7380 C   0  0  0  0  0  0  0  0  0  0  0  0
   36.8030   29.4050   51.0840 C   0  0  0  0  0  0  0  0  0  0  0  0
   37.7530   29.9220   50.2410 N   0  0  0  0  0  0  0  0  0  0  0  0
   37.3470   30.5570   49.1030 C   0  0  0  0  0  0  0  0  0  0  0  0
   36.0220   30.7280   48.7150 N   0  0  0  0  0  0  0  0  0  0  0  0
   34.0170   30.3050   49.3210 H   0  0  0  0  0  0  0  0  0  0  0  0
   34.6530   29.1460   51.3920 H   0  0  0  0  0  0  0  0  0  0  0  0
   37.0400   28.8990   51.9860 H   0  0  0  0  0  0  0  0  0  0  0  0
  1  3  1  0  0  0  0
  2  1  2  0  0  0  0
  3  4  1  0  0  0  0
  3 27  1  0  0  0  0
  5  6  1  0  0  0  0
  5  1  1  0  0  0  0
  6 11  1  0  0  0  0
  7 12  1  0  0  0  0
  7  6  2  0  0  0  0
  8  7  1  0  0  0  0
  9  8  2  0  0  0  0
  9 10  1  0  0  0  0
 10  5  2  0  0  0  0
 13  8  1  0  0  0  0
 14  9  1  0  0  0  0
 15 14  2  0  0  0  0
 16 14  1  0  0  0  0
 17 16  1  0  0  0  0
 17 18  1  0  0  0  0
 19 17  1  0  0  0  0
 20 19  1  0  0  0  0
 21 23  1  0  0  0  0
 21 19  1  0  0  0  0
 22 21  1  0  0  0  0
 23 24  1  0  0  0  0
 24 16  1  0  0  0  0
 25 28  1  6  0  0  0
 25 36  1  0  0  0  0
 26 25  1  0  0  0  0
 26 29  1  0  0  0  0
 27 31  1  6  0  0  0
 27 26  1  0  0  0  0
 27 25  1  0  0  0  0
 30 26  1  0  0  0  0
 32 33  1  0  0  0  0
 33 34  2  0  0  0  0
 33 39  1  0  0  0  0
 34 40  1  0  0  0  0
 35 34  1  0  0  0  0
 36 35  2  0  0  0  0
 37 36  1  0  0  0  0
 37 32  2  0  0  0  0
 38 32  1  0  0  0  0
M  END
>  <minimizedAffinity>
-5.20919418

>  <minimizedRMSD>
0.217736155

$$$$
