
 OpenBabel03272508423D

 20 21  0  0  0  0  0  0  0  0999 V2000
   34.1650   28.9280   47.5000 C   0  0  0  0  0  0  0  0  0  0  0  0
   34.2200   27.6750   47.7000 O   0  0  0  0  0  0  0  0  0  0  0  0
   34.9250   29.6870   48.4370 N   0  0  0  0  0  0  0  0  0  0  0  0
   36.1830   30.2510   47.9860 C   0  0  0  0  0  3  0  0  0  0  0  0
   36.0850   31.3510   47.8330 H   0  0  0  0  0  0  0  0  0  0  0  0
   37.1720   30.0710   49.1300 C   0  0  0  0  0  3  0  0  0  0  0  0
   38.1200   29.7080   48.6670 H   0  0  0  0  0  0  0  0  0  0  0  0
   36.7350   29.0160   50.0030 N   0  0  0  0  0  0  0  0  0  0  0  0
   37.4630   28.5660   50.5520 H   0  0  0  0  0  0  0  0  0  0  0  0
   35.5280   29.3300   50.7250 C   0  0  0  0  0  2  0  0  0  0  0  0
   34.5120   29.9230   49.8100 C   0  0  0  0  0  2  0  0  0  0  0  0
   31.3090   30.0780   45.5750 C   0  0  0  0  0  0  0  0  0  0  0  0
   31.8810   30.6470   44.4310 C   0  0  0  0  0  0  0  0  0  0  0  0
   33.2830   30.6320   44.3260 C   0  0  0  0  0  0  0  0  0  0  0  0
   33.9750   30.0670   45.3410 N   0  0  0  0  0  0  0  0  0  0  0  0
   33.4030   29.5300   46.4230 C   0  0  0  0  0  0  0  0  0  0  0  0
   32.0670   29.5310   46.5480 N   0  0  0  0  0  0  0  0  0  0  0  0
   30.2350   30.0490   45.7340 H   0  0  0  0  0  0  0  0  0  0  0  0
   31.2270   31.0690   43.6870 H   0  0  0  0  0  0  0  0  0  0  0  0
   33.7350   31.0690   43.4460 H   0  0  0  0  0  0  0  0  0  0  0  0
  1  2  2  0  0  0  0
  1  3  1  0  0  0  0
  3 11  1  0  0  0  0
  4  3  1  0  0  0  0
  4  6  1  0  0  0  0
  5  4  1  0  0  0  0
  6  8  1  0  0  0  0
  7  6  1  0  0  0  0
  8  9  1  0  0  0  0
  8 10  1  0  0  0  0
 11 10  1  0  0  0  0
 12 18  1  0  0  0  0
 12 17  1  0  0  0  0
 13 12  2  0  0  0  0
 14 13  1  0  0  0  0
 14 15  2  0  0  0  0
 15 16  1  0  0  0  0
 16 17  2  0  0  0  0
 16  1  1  0  0  0  0
 19 13  1  0  0  0  0
 20 14  1  0  0  0  0
M  END
>  <minimizedAffinity>
-3.37393045

>  <minimizedRMSD>
5.31306124

$$$$
