
 OpenBabel03272508583D

 40 43  0  0  1  0  0  0  0  0999 V2000
   38.3610   31.8680   44.4780 C   0  0  0  0  0  0  0  0  0  0  0  0
   37.2820   32.4640   44.3890 O   0  0  0  0  0  0  0  0  0  0  0  0
   38.9290   31.5470   45.7800 N   0  0  0  0  0  0  0  0  0  0  0  0
   39.9010   31.2370   45.9280 H   0  0  0  0  0  0  0  0  0  0  0  0
   39.1360   31.4480   43.2920 C   0  0  0  0  0  0  0  0  0  0  0  0
   40.2340   30.6480   43.4500 C   0  0  0  0  0  0  0  0  0  0  0  0
   40.9360   30.2780   42.3220 C   0  0  0  0  0  0  0  0  0  0  0  0
   40.4840   30.7410   41.0990 C   0  0  0  0  0  0  0  0  0  0  0  0
   39.3700   31.5540   40.9250 C   0  0  0  0  0  0  0  0  0  0  0  0
   38.7360   31.8750   42.0630 N   0  0  0  0  0  0  0  0  0  0  0  0
   40.5700   30.2980   44.4110 H   0  0  0  0  0  0  0  0  0  0  0  0
   41.8050   29.6480   42.4130 H   0  0  0  0  0  0  0  0  0  0  0  0
   41.0790   30.4150   40.2580 H   0  0  0  0  0  0  0  0  0  0  0  0
   38.9530   31.9990   39.6100 C   0  0  0  0  0  0  0  0  0  0  0  0
   39.2730   33.1490   39.2340 O   0  0  0  0  0  0  0  0  0  0  0  0
   38.1950   31.2530   38.6720 N   0  0  0  0  0  0  0  0  0  0  0  0
   37.8760   31.8760   37.4040 C   0  0  0  0  0  3  0  0  0  0  0  0
   38.4450   32.7950   37.2650 H   0  0  0  0  0  0  0  0  0  0  0  0
   36.3950   32.1870   37.4240 C   0  0  0  0  0  3  0  0  0  0  0  0
   36.0200   32.2220   36.3730 H   0  0  0  0  0  0  0  0  0  0  0  0
   35.6770   31.1570   38.1460 N   0  0  0  0  0  0  0  0  0  0  0  0
   34.7210   31.0260   37.7610 H   0  0  0  0  0  0  0  0  0  0  0  0
   36.3850   29.8790   37.9870 C   0  0  0  0  0  2  0  0  0  0  0  0
   37.6780   29.9060   38.8140 C   0  0  0  0  0  2  0  0  0  0  0  0
   38.4370   31.0580   48.1680 C   0  0  2  0  0  0  0  0  0  0  0  0
   38.6850   32.5200   48.0690 C   0  0  0  0  0  0  0  0  0  0  0  0
   38.0720   31.6720   46.9340 C   0  0  1  0  0  0  0  0  0  0  0  0
   39.3490   30.4350   48.2580 H   0  0  0  0  0  0  0  0  0  0  0  0
   38.0330   33.1920   48.6420 H   0  0  0  0  0  0  0  0  0  0  0  0
   39.7160   32.8540   47.9500 H   0  0  0  0  0  0  0  0  0  0  0  0
   37.0090   31.9390   46.7530 H   0  0  0  0  0  0  0  0  0  0  0  0
   35.0630   30.2390   49.5080 C   0  0  0  0  0  0  0  0  0  0  0  0
   35.3990   29.5560   50.7250 C   0  0  0  0  0  0  0  0  0  0  0  0
   36.8020   29.3990   51.0650 C   0  0  0  0  0  0  0  0  0  0  0  0
   37.7540   29.9050   50.2180 N   0  0  0  0  0  0  0  0  0  0  0  0
   37.3490   30.5430   49.0790 C   0  0  0  0  0  0  0  0  0  0  0  0
   36.0250   30.7260   48.6970 N   0  0  0  0  0  0  0  0  0  0  0  0
   34.0180   30.3240   49.3120 H   0  0  0  0  0  0  0  0  0  0  0  0
   34.6520   29.1620   51.3820 H   0  0  0  0  0  0  0  0  0  0  0  0
   37.0380   28.8930   51.9670 H   0  0  0  0  0  0  0  0  0  0  0  0
  1  3  1  0  0  0  0
  2  1  2  0  0  0  0
  3  4  1  0  0  0  0
  3 27  1  0  0  0  0
  5  6  1  0  0  0  0
  5  1  1  0  0  0  0
  6 11  1  0  0  0  0
  7 12  1  0  0  0  0
  7  6  2  0  0  0  0
  8  7  1  0  0  0  0
  9  8  2  0  0  0  0
  9 10  1  0  0  0  0
 10  5  2  0  0  0  0
 13  8  1  0  0  0  0
 14  9  1  0  0  0  0
 15 14  2  0  0  0  0
 16 24  1  0  0  0  0
 16 14  1  0  0  0  0
 17 19  1  0  0  0  0
 17 16  1  0  0  0  0
 18 17  1  0  0  0  0
 19 21  1  0  0  0  0
 20 19  1  0  0  0  0
 22 21  1  0  0  0  0
 23 21  1  0  0  0  0
 23 24  1  0  0  0  0
 25 28  1  6  0  0  0
 25 36  1  0  0  0  0
 26 25  1  0  0  0  0
 26 29  1  0  0  0  0
 27 31  1  6  0  0  0
 27 26  1  0  0  0  0
 27 25  1  0  0  0  0
 30 26  1  0  0  0  0
 32 33  1  0  0  0  0
 33 34  2  0  0  0  0
 33 39  1  0  0  0  0
 34 40  1  0  0  0  0
 35 34  1  0  0  0  0
 36 35  2  0  0  0  0
 37 36  1  0  0  0  0
 37 32  2  0  0  0  0
 38 32  1  0  0  0  0
M  END
>  <minimizedAffinity>
-5.01174307

>  <minimizedRMSD>
0.95090127

$$$$
