
 OpenBabel03272508583D

 40 43  0  0  1  0  0  0  0  0999 V2000
   38.3680   31.8860   44.5000 C   0  0  0  0  0  0  0  0  0  0  0  0
   37.2810   32.4650   44.4040 O   0  0  0  0  0  0  0  0  0  0  0  0
   38.9360   31.5790   45.8060 N   0  0  0  0  0  0  0  0  0  0  0  0
   39.9120   31.2840   45.9590 H   0  0  0  0  0  0  0  0  0  0  0  0
   39.1550   31.4730   43.3180 C   0  0  0  0  0  0  0  0  0  0  0  0
   40.1440   30.5400   43.4590 C   0  0  0  0  0  0  0  0  0  0  0  0
   40.8600   30.1800   42.3360 C   0  0  0  0  0  0  0  0  0  0  0  0
   40.5310   30.7860   41.1370 C   0  0  0  0  0  0  0  0  0  0  0  0
   39.5260   31.7350   40.9820 C   0  0  0  0  0  0  0  0  0  0  0  0
   38.8720   32.0380   42.1130 N   0  0  0  0  0  0  0  0  0  0  0  0
   40.3860   30.0780   44.4010 H   0  0  0  0  0  0  0  0  0  0  0  0
   41.6460   29.4470   42.4130 H   0  0  0  0  0  0  0  0  0  0  0  0
   41.1290   30.4590   40.2990 H   0  0  0  0  0  0  0  0  0  0  0  0
   39.2340   32.3270   39.6910 C   0  0  0  0  0  0  0  0  0  0  0  0
   38.5130   33.3490   39.6480 O   0  0  0  0  0  0  0  0  0  0  0  0
   39.6860   31.8610   38.4310 N   0  0  0  0  0  0  0  0  0  0  0  0
   38.6930   31.4770   37.4480 C   0  0  0  0  0  3  0  0  0  0  0  0
   37.6960   31.7910   37.7570 H   0  0  0  0  0  0  0  0  0  0  0  0
   38.7450   29.9690   37.3340 C   0  0  0  0  0  3  0  0  0  0  0  0
   38.3730   29.6730   36.3230 H   0  0  0  0  0  0  0  0  0  0  0  0
   40.1060   29.5010   37.4930 N   0  0  0  0  0  0  0  0  0  0  0  0
   40.2750   28.6430   36.9320 H   0  0  0  0  0  0  0  0  0  0  0  0
   41.0270   30.5310   36.9950 C   0  0  0  0  0  2  0  0  0  0  0  0
   41.0550   31.7090   37.9760 C   0  0  0  0  0  2  0  0  0  0  0  0
   38.4350   31.0820   48.1900 C   0  0  2  0  0  0  0  0  0  0  0  0
   38.6740   32.5470   48.0950 C   0  0  0  0  0  0  0  0  0  0  0  0
   38.0720   31.6970   46.9560 C   0  0  1  0  0  0  0  0  0  0  0  0
   39.3510   30.4650   48.2840 H   0  0  0  0  0  0  0  0  0  0  0  0
   38.0140   33.2130   48.6660 H   0  0  0  0  0  0  0  0  0  0  0  0
   39.7030   32.8870   47.9820 H   0  0  0  0  0  0  0  0  0  0  0  0
   37.0080   31.9560   46.7700 H   0  0  0  0  0  0  0  0  0  0  0  0
   35.0600   30.2390   49.5130 C   0  0  0  0  0  0  0  0  0  0  0  0
   35.3950   29.5560   50.7300 C   0  0  0  0  0  0  0  0  0  0  0  0
   36.7980   29.4080   51.0770 C   0  0  0  0  0  0  0  0  0  0  0  0
   37.7500   29.9220   50.2350 N   0  0  0  0  0  0  0  0  0  0  0  0
   37.3460   30.5590   49.0960 C   0  0  0  0  0  0  0  0  0  0  0  0
   36.0230   30.7340   48.7070 N   0  0  0  0  0  0  0  0  0  0  0  0
   34.0150   30.3170   49.3120 H   0  0  0  0  0  0  0  0  0  0  0  0
   34.6470   29.1560   51.3830 H   0  0  0  0  0  0  0  0  0  0  0  0
   37.0320   28.9020   51.9790 H   0  0  0  0  0  0  0  0  0  0  0  0
  1  3  1  0  0  0  0
  2  1  2  0  0  0  0
  3  4  1  0  0  0  0
  3 27  1  0  0  0  0
  5  6  1  0  0  0  0
  5  1  1  0  0  0  0
  6 11  1  0  0  0  0
  7 12  1  0  0  0  0
  7  6  2  0  0  0  0
  8  7  1  0  0  0  0
  9  8  2  0  0  0  0
  9 10  1  0  0  0  0
 10  5  2  0  0  0  0
 13  8  1  0  0  0  0
 14  9  1  0  0  0  0
 15 14  2  0  0  0  0
 16 14  1  0  0  0  0
 17 18  1  0  0  0  0
 17 16  1  0  0  0  0
 19 17  1  0  0  0  0
 19 21  1  0  0  0  0
 20 19  1  0  0  0  0
 22 21  1  0  0  0  0
 23 21  1  0  0  0  0
 23 24  1  0  0  0  0
 24 16  1  0  0  0  0
 25 28  1  6  0  0  0
 25 36  1  0  0  0  0
 26 25  1  0  0  0  0
 26 29  1  0  0  0  0
 27 31  1  6  0  0  0
 27 26  1  0  0  0  0
 27 25  1  0  0  0  0
 30 26  1  0  0  0  0
 32 33  1  0  0  0  0
 33 34  2  0  0  0  0
 33 39  1  0  0  0  0
 34 40  1  0  0  0  0
 35 34  1  0  0  0  0
 36 35  2  0  0  0  0
 37 36  1  0  0  0  0
 37 32  2  0  0  0  0
 38 32  1  0  0  0  0
M  END
>  <minimizedAffinity>
-5.22001314

>  <minimizedRMSD>
0.487637877

$$$$
