
 OpenBabel03272508583D

 40 43  0  0  1  0  0  0  0  0999 V2000
   38.3620   31.8670   44.4810 C   0  0  0  0  0  0  0  0  0  0  0  0
   37.2820   32.4600   44.3900 O   0  0  0  0  0  0  0  0  0  0  0  0
   38.9290   31.5480   45.7830 N   0  0  0  0  0  0  0  0  0  0  0  0
   39.9020   31.2410   45.9320 H   0  0  0  0  0  0  0  0  0  0  0  0
   39.1390   31.4480   43.2950 C   0  0  0  0  0  0  0  0  0  0  0  0
   40.2230   30.6300   43.4530 C   0  0  0  0  0  0  0  0  0  0  0  0
   40.9280   30.2610   42.3260 C   0  0  0  0  0  0  0  0  0  0  0  0
   40.4920   30.7430   41.1050 C   0  0  0  0  0  0  0  0  0  0  0  0
   39.3910   31.5740   40.9320 C   0  0  0  0  0  0  0  0  0  0  0  0
   38.7540   31.8930   42.0680 N   0  0  0  0  0  0  0  0  0  0  0  0
   40.5480   30.2650   44.4130 H   0  0  0  0  0  0  0  0  0  0  0  0
   41.7870   29.6180   42.4170 H   0  0  0  0  0  0  0  0  0  0  0  0
   41.0880   30.4170   40.2640 H   0  0  0  0  0  0  0  0  0  0  0  0
   38.9900   32.0390   39.6180 C   0  0  0  0  0  0  0  0  0  0  0  0
   39.1880   33.2370   39.3170 O   0  0  0  0  0  0  0  0  0  0  0  0
   38.3750   31.2620   38.6040 N   0  0  0  0  0  0  0  0  0  0  0  0
   38.3470   31.7980   37.2580 C   0  0  0  0  0  3  0  0  0  0  0  0
   38.9930   32.6700   37.1700 H   0  0  0  0  0  0  0  0  0  0  0  0
   36.9140   32.1880   36.9690 C   0  0  0  0  0  3  0  0  0  0  0  0
   36.7490   32.1590   35.8650 H   0  0  0  0  0  0  0  0  0  0  0  0
   36.0030   31.2600   37.6050 N   0  0  0  0  0  0  0  0  0  0  0  0
   35.1300   31.1500   37.0500 H   0  0  0  0  0  0  0  0  0  0  0  0
   36.6390   29.9370   37.6750 C   0  0  0  0  0  2  0  0  0  0  0  0
   37.7490   29.9600   38.7340 C   0  0  0  0  0  2  0  0  0  0  0  0
   38.4350   31.0590   48.1710 C   0  0  2  0  0  0  0  0  0  0  0  0
   38.6810   32.5220   48.0720 C   0  0  0  0  0  0  0  0  0  0  0  0
   38.0710   31.6730   46.9370 C   0  0  1  0  0  0  0  0  0  0  0  0
   39.3480   30.4380   48.2620 H   0  0  0  0  0  0  0  0  0  0  0  0
   38.0270   33.1930   48.6440 H   0  0  0  0  0  0  0  0  0  0  0  0
   39.7120   32.8570   47.9540 H   0  0  0  0  0  0  0  0  0  0  0  0
   37.0070   31.9370   46.7540 H   0  0  0  0  0  0  0  0  0  0  0  0
   35.0610   30.2360   49.5090 C   0  0  0  0  0  0  0  0  0  0  0  0
   35.3970   29.5530   50.7260 C   0  0  0  0  0  0  0  0  0  0  0  0
   36.8010   29.3980   51.0670 C   0  0  0  0  0  0  0  0  0  0  0  0
   37.7520   29.9060   50.2200 N   0  0  0  0  0  0  0  0  0  0  0  0
   37.3480   30.5430   49.0820 C   0  0  0  0  0  0  0  0  0  0  0  0
   36.0230   30.7240   48.6980 N   0  0  0  0  0  0  0  0  0  0  0  0
   34.0160   30.3190   49.3120 H   0  0  0  0  0  0  0  0  0  0  0  0
   34.6500   29.1590   51.3820 H   0  0  0  0  0  0  0  0  0  0  0  0
   37.0370   28.8920   51.9690 H   0  0  0  0  0  0  0  0  0  0  0  0
  1  3  1  0  0  0  0
  2  1  2  0  0  0  0
  3  4  1  0  0  0  0
  3 27  1  0  0  0  0
  5  6  1  0  0  0  0
  5  1  1  0  0  0  0
  6 11  1  0  0  0  0
  7 12  1  0  0  0  0
  7  6  2  0  0  0  0
  8  7  1  0  0  0  0
  9  8  2  0  0  0  0
  9 10  1  0  0  0  0
 10  5  2  0  0  0  0
 13  8  1  0  0  0  0
 14  9  1  0  0  0  0
 15 14  2  0  0  0  0
 16 24  1  0  0  0  0
 16 14  1  0  0  0  0
 17 16  1  0  0  0  0
 18 17  1  0  0  0  0
 19 17  1  0  0  0  0
 19 21  1  0  0  0  0
 20 19  1  0  0  0  0
 21 23  1  0  0  0  0
 22 21  1  0  0  0  0
 23 24  1  0  0  0  0
 25 28  1  6  0  0  0
 25 36  1  0  0  0  0
 26 25  1  0  0  0  0
 26 29  1  0  0  0  0
 27 31  1  6  0  0  0
 27 26  1  0  0  0  0
 27 25  1  0  0  0  0
 30 26  1  0  0  0  0
 32 33  1  0  0  0  0
 33 34  2  0  0  0  0
 33 39  1  0  0  0  0
 34 40  1  0  0  0  0
 35 34  1  0  0  0  0
 36 35  2  0  0  0  0
 37 36  1  0  0  0  0
 37 32  2  0  0  0  0
 38 32  1  0  0  0  0
M  END
>  <minimizedAffinity>
-5.02204657

>  <minimizedRMSD>
0.775146604

$$$$
