
 OpenBabel03272503253D

 32 34  0  0  1  0  0  0  0  0999 V2000
   37.6960   25.1450   32.9410 N   0  0  0  0  0  0  0  0  0  0  0  0
   38.9590   25.3410   33.6250 C   0  0  1  0  0  0  0  0  0  0  0  0
   39.1410   26.8490   33.4700 C   0  0  0  0  0  0  0  0  0  0  0  0
   38.0280   27.3190   32.5190 C   0  0  0  0  0  0  0  0  0  0  0  0
   36.9220   26.3690   32.9720 C   0  0  0  0  0  0  0  0  0  0  0  0
   39.7500   24.7980   33.0800 H   0  0  0  0  0  0  0  0  0  0  0  0
   40.1290   27.0640   33.0000 H   0  0  0  0  0  0  0  0  0  0  0  0
   38.9950   27.3400   34.4390 H   0  0  0  0  0  0  0  0  0  0  0  0
   37.7750   28.3620   32.6830 H   0  0  0  0  0  0  0  0  0  0  0  0
   38.2570   27.0460   31.4700 H   0  0  0  0  0  0  0  0  0  0  0  0
   36.0960   26.3750   32.2610 H   0  0  0  0  0  0  0  0  0  0  0  0
   36.6160   26.6180   34.0160 H   0  0  0  0  0  0  0  0  0  0  0  0
   38.9720   24.9190   35.0130 C   0  0  0  0  0  0  0  0  0  0  0  0
   39.1050   25.7500   35.8880 O   0  0  0  0  0  0  0  0  0  0  0  0
   38.9010   23.8820   35.9680 N   0  0  0  0  0  0  0  0  0  0  0  0
   37.7210   23.6620   36.7730 C   0  0  0  0  0  3  0  0  0  0  0  0
   37.4220   22.5740   36.7500 H   0  0  0  0  0  0  0  0  0  0  0  0
   38.1420   23.8810   38.2360 C   0  0  0  0  0  3  0  0  0  0  0  0
   37.2630   24.0140   38.8940 H   0  0  0  0  0  0  0  0  0  0  0  0
   38.9200   22.7150   38.6040 N   0  0  0  0  0  0  0  0  0  0  0  0
   38.4150   21.8280   38.4200 H   0  0  0  0  0  0  0  0  0  0  0  0
   40.1300   22.7770   37.8160 C   0  0  0  0  0  2  0  0  0  0  0  0
   39.8820   22.8770   36.3500 C   0  0  0  0  0  2  0  0  0  0  0  0
   37.3020   23.9210   32.3310 C   0  0  0  0  0  0  0  0  0  0  0  0
   36.0720   23.8470   31.6960 C   0  0  0  0  0  0  0  0  0  0  0  0
   35.6450   22.6780   31.0850 C   0  0  0  0  0  0  0  0  0  0  0  0
   36.5290   21.6100   31.1590 N   0  0  0  0  0  0  0  0  0  0  0  0
   37.7160   21.6980   31.7770 C   0  0  0  0  0  0  0  0  0  0  0  0
   38.0860   22.8610   32.3580 N   0  0  0  0  0  0  0  0  0  0  0  0
   35.3740   24.6700   31.6310 H   0  0  0  0  0  0  0  0  0  0  0  0
   34.6870   22.6110   30.5880 H   0  0  0  0  0  0  0  0  0  0  0  0
   38.3560   20.8220   31.7960 H   0  0  0  0  0  0  0  0  0  0  0  0
  1  5  1  0  0  0  0
  1  2  1  0  0  0  0
  2  6  1  6  0  0  0
  2 13  1  0  0  0  0
  3  2  1  0  0  0  0
  3  8  1  0  0  0  0
  4  9  1  0  0  0  0
  4  5  1  0  0  0  0
  4  3  1  0  0  0  0
  5 12  1  0  0  0  0
  7  3  1  0  0  0  0
 10  4  1  0  0  0  0
 11  5  1  0  0  0  0
 13 14  2  0  0  0  0
 13 15  1  0  0  0  0
 15 23  1  0  0  0  0
 15 16  1  0  0  0  0
 16 18  1  0  0  0  0
 17 16  1  0  0  0  0
 18 20  1  0  0  0  0
 18 19  1  0  0  0  0
 21 20  1  0  0  0  0
 22 20  1  0  0  0  0
 23 22  1  0  0  0  0
 24 29  1  0  0  0  0
 24  1  1  0  0  0  0
 25 24  2  0  0  0  0
 26 27  2  0  0  0  0
 26 25  1  0  0  0  0
 27 28  1  0  0  0  0
 28 32  1  0  0  0  0
 28 29  2  0  0  0  0
 30 25  1  0  0  0  0
 31 26  1  0  0  0  0
M  END
>  <minimizedAffinity>
-5.24784708

$$$$

 OpenBabel03272503253D

 32 34  0  0  1  0  0  0  0  0999 V2000
   37.0920   23.0350   32.3910 N   0  0  0  0  0  0  0  0  0  0  0  0
   38.4420   23.3130   32.8390 C   0  0  1  0  0  0  0  0  0  0  0  0
   38.7320   24.6120   32.0940 C   0  0  0  0  0  0  0  0  0  0  0  0
   37.5550   24.8250   31.1280 C   0  0  0  0  0  0  0  0  0  0  0  0
   36.4360   24.2680   32.0040 C   0  0  0  0  0  0  0  0  0  0  0  0
   39.1080   22.5070   32.4870 H   0  0  0  0  0  0  0  0  0  0  0  0
   39.6700   24.5050   31.4980 H   0  0  0  0  0  0  0  0  0  0  0  0
   38.7510   25.4480   32.8020 H   0  0  0  0  0  0  0  0  0  0  0  0
   37.4150   25.8760   30.8920 H   0  0  0  0  0  0  0  0  0  0  0  0
   37.6270   24.1490   30.2540 H   0  0  0  0  0  0  0  0  0  0  0  0
   35.5320   24.1090   31.4170 H   0  0  0  0  0  0  0  0  0  0  0  0
   36.2850   24.9300   32.8890 H   0  0  0  0  0  0  0  0  0  0  0  0
   38.5900   23.4490   34.2750 C   0  0  0  0  0  0  0  0  0  0  0  0
   38.6520   24.5590   34.7660 O   0  0  0  0  0  0  0  0  0  0  0  0
   38.7200   22.8490   35.5470 N   0  0  0  0  0  0  0  0  0  0  0  0
   37.6290   22.8200   36.4940 C   0  0  0  0  0  3  0  0  0  0  0  0
   37.4870   21.7760   36.9030 H   0  0  0  0  0  0  0  0  0  0  0  0
   38.0930   23.6200   37.7220 C   0  0  0  0  0  3  0  0  0  0  0  0
   37.2420   23.8930   38.3730 H   0  0  0  0  0  0  0  0  0  0  0  0
   39.0490   22.7740   38.4090 N   0  0  0  0  0  0  0  0  0  0  0  0
   38.6660   21.8320   38.6170 H   0  0  0  0  0  0  0  0  0  0  0  0
   40.1930   22.6680   37.5320 C   0  0  0  0  0  2  0  0  0  0  0  0
   39.8530   22.1790   36.1660 C   0  0  0  0  0  2  0  0  0  0  0  0
   36.5200   21.7320   32.3410 C   0  0  0  0  0  0  0  0  0  0  0  0
   36.5180   21.0390   31.1410 C   0  0  0  0  0  0  0  0  0  0  0  0
   35.9760   19.7670   31.0430 C   0  0  0  0  0  0  0  0  0  0  0  0
   35.4450   19.2540   32.2190 N   0  0  0  0  0  0  0  0  0  0  0  0
   35.4550   19.9380   33.3730 C   0  0  0  0  0  0  0  0  0  0  0  0
   35.9960   21.1760   33.4160 N   0  0  0  0  0  0  0  0  0  0  0  0
   36.9270   21.4270   30.2180 H   0  0  0  0  0  0  0  0  0  0  0  0
   35.9700   19.2200   30.1110 H   0  0  0  0  0  0  0  0  0  0  0  0
   35.0220   19.4740   34.2540 H   0  0  0  0  0  0  0  0  0  0  0  0
  1  2  1  0  0  0  0
  2  6  1  6  0  0  0
  2 13  1  0  0  0  0
  3  8  1  0  0  0  0
  3  2  1  0  0  0  0
  4  5  1  0  0  0  0
  4  3  1  0  0  0  0
  5  1  1  0  0  0  0
  5 12  1  0  0  0  0
  7  3  1  0  0  0  0
  9  4  1  0  0  0  0
 10  4  1  0  0  0  0
 11  5  1  0  0  0  0
 13 14  2  0  0  0  0
 13 15  1  0  0  0  0
 15 23  1  0  0  0  0
 15 16  1  0  0  0  0
 16 17  1  0  0  0  0
 16 18  1  0  0  0  0
 18 19  1  0  0  0  0
 18 20  1  0  0  0  0
 20 21  1  0  0  0  0
 22 20  1  0  0  0  0
 23 22  1  0  0  0  0
 24  1  1  0  0  0  0
 24 29  1  0  0  0  0
 25 24  2  0  0  0  0
 26 25  1  0  0  0  0
 26 27  2  0  0  0  0
 27 28  1  0  0  0  0
 28 29  2  0  0  0  0
 28 32  1  0  0  0  0
 30 25  1  0  0  0  0
 31 26  1  0  0  0  0
M  END
>  <minimizedAffinity>
-5.20360184

$$$$

 OpenBabel03272503253D

 32 34  0  0  1  0  0  0  0  0999 V2000
   38.5170   25.7540   35.4740 N   0  0  0  0  0  0  0  0  0  0  0  0
   37.4860   25.6640   34.4600 C   0  0  1  0  0  0  0  0  0  0  0  0
   37.0530   27.1240   34.3570 C   0  0  0  0  0  0  0  0  0  0  0  0
   37.7700   27.8650   35.4980 C   0  0  0  0  0  0  0  0  0  0  0  0
   39.0840   27.0870   35.4860 C   0  0  0  0  0  0  0  0  0  0  0  0
   36.6600   25.0400   34.8420 H   0  0  0  0  0  0  0  0  0  0  0  0
   35.9520   27.2030   34.5140 H   0  0  0  0  0  0  0  0  0  0  0  0
   37.3960   27.5450   33.4050 H   0  0  0  0  0  0  0  0  0  0  0  0
   37.9070   28.9170   35.2680 H   0  0  0  0  0  0  0  0  0  0  0  0
   37.2950   27.6500   36.4750 H   0  0  0  0  0  0  0  0  0  0  0  0
   39.6640   27.3000   36.3840 H   0  0  0  0  0  0  0  0  0  0  0  0
   39.6350   27.2920   34.5380 H   0  0  0  0  0  0  0  0  0  0  0  0
   37.9300   25.1240   33.1880 C   0  0  0  0  0  0  0  0  0  0  0  0
   38.4250   24.0160   33.1510 O   0  0  0  0  0  0  0  0  0  0  0  0
   38.0940   25.2750   31.7940 N   0  0  0  0  0  0  0  0  0  0  0  0
   37.2410   24.5970   30.8450 C   0  0  0  0  0  3  0  0  0  0  0  0
   36.8560   25.3220   30.0700 H   0  0  0  0  0  0  0  0  0  0  0  0
   38.1490   23.6600   30.0320 C   0  0  0  0  0  3  0  0  0  0  0  0
   37.5610   22.9020   29.4830 H   0  0  0  0  0  0  0  0  0  0  0  0
   38.8990   24.5150   29.1330 N   0  0  0  0  0  0  0  0  0  0  0  0
   38.2840   25.1310   28.5680 H   0  0  0  0  0  0  0  0  0  0  0  0
   39.7710   25.3080   29.9690 C   0  0  0  0  0  2  0  0  0  0  0  0
   39.0520   26.0630   31.0330 C   0  0  0  0  0  2  0  0  0  0  0  0
   38.8940   24.6770   36.3260 C   0  0  0  0  0  0  0  0  0  0  0  0
   38.1490   24.4230   37.4670 C   0  0  0  0  0  0  0  0  0  0  0  0
   38.4740   23.3840   38.3250 C   0  0  0  0  0  0  0  0  0  0  0  0
   39.5830   22.6340   37.9580 N   0  0  0  0  0  0  0  0  0  0  0  0
   40.2950   22.8930   36.8510 C   0  0  0  0  0  0  0  0  0  0  0  0
   39.9360   23.9180   36.0460 N   0  0  0  0  0  0  0  0  0  0  0  0
   37.2830   24.9990   37.7640 H   0  0  0  0  0  0  0  0  0  0  0  0
   37.8990   23.1800   39.2160 H   0  0  0  0  0  0  0  0  0  0  0  0
   41.1510   22.2640   36.6260 H   0  0  0  0  0  0  0  0  0  0  0  0
  1  5  1  0  0  0  0
  1 24  1  0  0  0  0
  2  6  1  1  0  0  0
  2  1  1  0  0  0  0
  3  2  1  0  0  0  0
  3  7  1  0  0  0  0
  3  4  1  0  0  0  0
  4 10  1  0  0  0  0
  5  4  1  0  0  0  0
  5 11  1  0  0  0  0
  8  3  1  0  0  0  0
  9  4  1  0  0  0  0
 12  5  1  0  0  0  0
 13  2  1  0  0  0  0
 14 13  2  0  0  0  0
 15 13  1  0  0  0  0
 16 15  1  0  0  0  0
 17 16  1  0  0  0  0
 18 16  1  0  0  0  0
 19 18  1  0  0  0  0
 20 22  1  0  0  0  0
 20 18  1  0  0  0  0
 21 20  1  0  0  0  0
 22 23  1  0  0  0  0
 23 15  1  0  0  0  0
 24 25  1  0  0  0  0
 25 30  1  0  0  0  0
 25 26  2  0  0  0  0
 26 31  1  0  0  0  0
 27 26  1  0  0  0  0
 28 27  2  0  0  0  0
 29 24  2  0  0  0  0
 29 28  1  0  0  0  0
 32 28  1  0  0  0  0
M  END
>  <minimizedAffinity>
-4.88945198

$$$$

 OpenBabel03272503253D

 32 34  0  0  1  0  0  0  0  0999 V2000
   39.0150   23.7130   34.3440 N   0  0  0  0  0  0  0  0  0  0  0  0
   37.8320   23.7040   33.5070 C   0  0  1  0  0  0  0  0  0  0  0  0
   38.3270   24.4940   32.2990 C   0  0  0  0  0  0  0  0  0  0  0  0
   39.7100   25.0460   32.6850 C   0  0  0  0  0  0  0  0  0  0  0  0
   40.2000   23.8690   33.5240 C   0  0  0  0  0  0  0  0  0  0  0  0
   37.0240   24.2500   34.0230 H   0  0  0  0  0  0  0  0  0  0  0  0
   37.6410   25.3520   32.1020 H   0  0  0  0  0  0  0  0  0  0  0  0
   38.4520   23.8220   31.4430 H   0  0  0  0  0  0  0  0  0  0  0  0
   40.3300   25.2200   31.8100 H   0  0  0  0  0  0  0  0  0  0  0  0
   39.6190   25.9030   33.3800 H   0  0  0  0  0  0  0  0  0  0  0  0
   41.0850   24.1480   34.0960 H   0  0  0  0  0  0  0  0  0  0  0  0
   40.3500   22.9770   32.8720 H   0  0  0  0  0  0  0  0  0  0  0  0
   37.3500   22.3830   33.1490 C   0  0  0  0  0  0  0  0  0  0  0  0
   37.9400   21.4020   33.5550 O   0  0  0  0  0  0  0  0  0  0  0  0
   36.4150   21.5740   32.4680 N   0  0  0  0  0  0  0  0  0  0  0  0
   35.3680   20.8620   33.1650 C   0  0  0  0  0  3  0  0  0  0  0  0
   34.3700   21.0410   32.6690 H   0  0  0  0  0  0  0  0  0  0  0  0
   35.6200   19.3650   32.9220 C   0  0  0  0  0  3  0  0  0  0  0  0
   35.0520   18.7380   33.6340 H   0  0  0  0  0  0  0  0  0  0  0  0
   35.2270   19.1140   31.5500 N   0  0  0  0  0  0  0  0  0  0  0  0
   34.2610   19.4350   31.3490 H   0  0  0  0  0  0  0  0  0  0  0  0
   36.1750   19.8280   30.7250 C   0  0  0  0  0  2  0  0  0  0  0  0
   36.2730   21.2790   31.0500 C   0  0  0  0  0  2  0  0  0  0  0  0
   38.9900   23.5900   35.7620 C   0  0  0  0  0  0  0  0  0  0  0  0
   37.9720   24.2030   36.4760 C   0  0  0  0  0  0  0  0  0  0  0  0
   37.9020   24.1100   37.8570 C   0  0  0  0  0  0  0  0  0  0  0  0
   38.9120   23.3700   38.4560 N   0  0  0  0  0  0  0  0  0  0  0  0
   39.8910   22.7820   37.7510 C   0  0  0  0  0  0  0  0  0  0  0  0
   39.9140   22.9030   36.4050 N   0  0  0  0  0  0  0  0  0  0  0  0
   37.1800   24.7830   36.0230 H   0  0  0  0  0  0  0  0  0  0  0  0
   37.1130   24.5850   38.4220 H   0  0  0  0  0  0  0  0  0  0  0  0
   40.6480   22.2180   38.2860 H   0  0  0  0  0  0  0  0  0  0  0  0
  1 24  1  0  0  0  0
  2  6  1  1  0  0  0
  2  1  1  0  0  0  0
  3  4  1  0  0  0  0
  3  2  1  0  0  0  0
  4 10  1  0  0  0  0
  4  5  1  0  0  0  0
  5 11  1  0  0  0  0
  5  1  1  0  0  0  0
  7  3  1  0  0  0  0
  8  3  1  0  0  0  0
  9  4  1  0  0  0  0
 12  5  1  0  0  0  0
 13  2  1  0  0  0  0
 13 14  2  0  0  0  0
 15 13  1  0  0  0  0
 15 16  1  0  0  0  0
 17 16  1  0  0  0  0
 18 16  1  0  0  0  0
 18 19  1  0  0  0  0
 20 18  1  0  0  0  0
 21 20  1  0  0  0  0
 22 23  1  0  0  0  0
 22 20  1  0  0  0  0
 23 15  1  0  0  0  0
 24 29  2  0  0  0  0
 24 25  1  0  0  0  0
 25 26  2  0  0  0  0
 26 31  1  0  0  0  0
 26 27  1  0  0  0  0
 28 32  1  0  0  0  0
 28 27  2  0  0  0  0
 29 28  1  0  0  0  0
 30 25  1  0  0  0  0
M  END
>  <minimizedAffinity>
-4.88027954

$$$$

 OpenBabel03272503253D

 32 34  0  0  1  0  0  0  0  0999 V2000
   39.8780   25.2920   34.8440 N   0  0  0  0  0  0  0  0  0  0  0  0
   39.3080   26.5560   34.4210 C   0  0  1  0  0  0  0  0  0  0  0  0
   40.4980   27.1820   33.6990 C   0  0  0  0  0  0  0  0  0  0  0  0
   41.6990   26.2610   33.9740 C   0  0  0  0  0  0  0  0  0  0  0  0
   40.9670   24.9210   33.9640 C   0  0  0  0  0  0  0  0  0  0  0  0
   39.0420   27.1460   35.3140 H   0  0  0  0  0  0  0  0  0  0  0  0
   40.7130   28.1890   34.1280 H   0  0  0  0  0  0  0  0  0  0  0  0
   40.3130   27.1910   32.6190 H   0  0  0  0  0  0  0  0  0  0  0  0
   42.4470   26.3330   33.1900 H   0  0  0  0  0  0  0  0  0  0  0  0
   42.0790   26.3970   35.0050 H   0  0  0  0  0  0  0  0  0  0  0  0
   41.6020   24.1350   34.3720 H   0  0  0  0  0  0  0  0  0  0  0  0
   40.5910   24.7050   32.9370 H   0  0  0  0  0  0  0  0  0  0  0  0
   38.1390   26.4420   33.5700 C   0  0  0  0  0  0  0  0  0  0  0  0
   37.0970   26.9640   33.9140 O   0  0  0  0  0  0  0  0  0  0  0  0
   37.5370   25.9550   32.3890 N   0  0  0  0  0  0  0  0  0  0  0  0
   37.2480   26.8170   31.2660 C   0  0  0  0  0  3  0  0  0  0  0  0
   37.6280   26.3590   30.3070 H   0  0  0  0  0  0  0  0  0  0  0  0
   35.7220   26.8020   31.0840 C   0  0  0  0  0  3  0  0  0  0  0  0
   35.3820   27.6380   30.4440 H   0  0  0  0  0  0  0  0  0  0  0  0
   35.4040   25.5130   30.5020 N   0  0  0  0  0  0  0  0  0  0  0  0
   35.9510   25.3220   29.6410 H   0  0  0  0  0  0  0  0  0  0  0  0
   35.7050   24.5310   31.5180 C   0  0  0  0  0  2  0  0  0  0  0  0
   37.1010   24.6140   32.0320 C   0  0  0  0  0  2  0  0  0  0  0  0
   39.4190   24.5470   35.9670 C   0  0  0  0  0  0  0  0  0  0  0  0
   40.1560   23.4570   36.4030 C   0  0  0  0  0  0  0  0  0  0  0  0
   39.7520   22.7030   37.4940 C   0  0  0  0  0  0  0  0  0  0  0  0
   38.5750   23.1180   38.1010 N   0  0  0  0  0  0  0  0  0  0  0  0
   37.8730   24.1750   37.6670 C   0  0  0  0  0  0  0  0  0  0  0  0
   38.3090   24.8780   36.5980 N   0  0  0  0  0  0  0  0  0  0  0  0
   41.0740   23.1230   35.9400 H   0  0  0  0  0  0  0  0  0  0  0  0
   40.3210   21.8520   37.8400 H   0  0  0  0  0  0  0  0  0  0  0  0
   36.9600   24.4420   38.1910 H   0  0  0  0  0  0  0  0  0  0  0  0
  1 24  1  0  0  0  0
  2  1  1  0  0  0  0
  2  6  1  1  0  0  0
  3  4  1  0  0  0  0
  3  7  1  0  0  0  0
  3  2  1  0  0  0  0
  4 10  1  0  0  0  0
  5  4  1  0  0  0  0
  5 11  1  0  0  0  0
  5  1  1  0  0  0  0
  8  3  1  0  0  0  0
  9  4  1  0  0  0  0
 12  5  1  0  0  0  0
 13 14  2  0  0  0  0
 13  2  1  0  0  0  0
 15 13  1  0  0  0  0
 16 15  1  0  0  0  0
 17 16  1  0  0  0  0
 18 16  1  0  0  0  0
 19 18  1  0  0  0  0
 20 18  1  0  0  0  0
 20 22  1  0  0  0  0
 21 20  1  0  0  0  0
 22 23  1  0  0  0  0
 23 15  1  0  0  0  0
 24 25  2  0  0  0  0
 24 29  1  0  0  0  0
 25 26  1  0  0  0  0
 26 31  1  0  0  0  0
 26 27  2  0  0  0  0
 28 27  1  0  0  0  0
 28 32  1  0  0  0  0
 29 28  2  0  0  0  0
 30 25  1  0  0  0  0
M  END
>  <minimizedAffinity>
-4.87318611

$$$$

 OpenBabel03272503253D

 32 34  0  0  1  0  0  0  0  0999 V2000
   38.3210   24.1070   32.2530 N   0  0  0  0  0  0  0  0  0  0  0  0
   37.7800   23.1190   33.1660 C   0  0  1  0  0  0  0  0  0  0  0  0
   38.3940   21.8400   32.6050 C   0  0  0  0  0  0  0  0  0  0  0  0
   39.0740   22.2350   31.2830 C   0  0  0  0  0  0  0  0  0  0  0  0
   39.5620   23.6250   31.6830 C   0  0  0  0  0  0  0  0  0  0  0  0
   36.6810   23.1000   33.0620 H   0  0  0  0  0  0  0  0  0  0  0  0
   37.5890   21.0990   32.3870 H   0  0  0  0  0  0  0  0  0  0  0  0
   39.1650   21.4690   33.2900 H   0  0  0  0  0  0  0  0  0  0  0  0
   39.8890   21.5620   31.0350 H   0  0  0  0  0  0  0  0  0  0  0  0
   38.3260   22.3900   30.4800 H   0  0  0  0  0  0  0  0  0  0  0  0
   39.8790   24.1870   30.8040 H   0  0  0  0  0  0  0  0  0  0  0  0
   40.3500   23.5370   32.4670 H   0  0  0  0  0  0  0  0  0  0  0  0
   38.1140   23.3320   34.5610 C   0  0  0  0  0  0  0  0  0  0  0  0
   38.2430   24.4660   34.9780 O   0  0  0  0  0  0  0  0  0  0  0  0
   38.4060   22.8010   35.8360 N   0  0  0  0  0  0  0  0  0  0  0  0
   37.4480   22.8340   36.9170 C   0  0  0  0  0  3  0  0  0  0  0  0
   37.3570   21.8170   37.3980 H   0  0  0  0  0  0  0  0  0  0  0  0
   38.0710   23.6950   38.0280 C   0  0  0  0  0  3  0  0  0  0  0  0
   37.3130   24.0120   38.7680 H   0  0  0  0  0  0  0  0  0  0  0  0
   39.1050   22.8770   38.6310 N   0  0  0  0  0  0  0  0  0  0  0  0
   38.7480   21.9520   38.9390 H   0  0  0  0  0  0  0  0  0  0  0  0
   40.1240   22.7110   37.6210 C   0  0  0  0  0  2  0  0  0  0  0  0
   39.6080   22.1530   36.3400 C   0  0  0  0  0  2  0  0  0  0  0  0
   37.7000   25.3570   31.9720 C   0  0  0  0  0  0  0  0  0  0  0  0
   36.3680   25.3810   31.5910 C   0  0  0  0  0  0  0  0  0  0  0  0
   35.7190   26.5740   31.3100 C   0  0  0  0  0  0  0  0  0  0  0  0
   36.4950   27.7180   31.4370 N   0  0  0  0  0  0  0  0  0  0  0  0
   37.7840   27.6780   31.8060 C   0  0  0  0  0  0  0  0  0  0  0  0
   38.3710   26.4890   32.0700 N   0  0  0  0  0  0  0  0  0  0  0  0
   35.7520   24.4980   31.4890 H   0  0  0  0  0  0  0  0  0  0  0  0
   34.6810   26.6010   31.0120 H   0  0  0  0  0  0  0  0  0  0  0  0
   38.3300   28.6130   31.8850 H   0  0  0  0  0  0  0  0  0  0  0  0
  1  2  1  0  0  0  0
  2  6  1  6  0  0  0
  2 13  1  0  0  0  0
  3  2  1  0  0  0  0
  3  8  1  0  0  0  0
  4  5  1  0  0  0  0
  4  3  1  0  0  0  0
  5  1  1  0  0  0  0
  5 12  1  0  0  0  0
  7  3  1  0  0  0  0
  9  4  1  0  0  0  0
 10  4  1  0  0  0  0
 11  5  1  0  0  0  0
 13 14  2  0  0  0  0
 13 15  1  0  0  0  0
 15 23  1  0  0  0  0
 15 16  1  0  0  0  0
 16 17  1  0  0  0  0
 16 18  1  0  0  0  0
 18 20  1  0  0  0  0
 18 19  1  0  0  0  0
 20 21  1  0  0  0  0
 22 20  1  0  0  0  0
 23 22  1  0  0  0  0
 24 29  1  0  0  0  0
 24  1  1  0  0  0  0
 25 24  2  0  0  0  0
 26 27  2  0  0  0  0
 26 25  1  0  0  0  0
 27 28  1  0  0  0  0
 28 32  1  0  0  0  0
 28 29  2  0  0  0  0
 30 25  1  0  0  0  0
 31 26  1  0  0  0  0
M  END
>  <minimizedAffinity>
-4.79941607

$$$$

 OpenBabel03272503253D

 32 34  0  0  1  0  0  0  0  0999 V2000
   38.2450   25.2380   32.8990 N   0  0  0  0  0  0  0  0  0  0  0  0
   37.8210   23.8810   33.1800 C   0  0  1  0  0  0  0  0  0  0  0  0
   38.4860   23.1260   32.0330 C   0  0  0  0  0  0  0  0  0  0  0  0
   39.0640   24.1970   31.0930 C   0  0  0  0  0  0  0  0  0  0  0  0
   39.4820   25.2230   32.1440 C   0  0  0  0  0  0  0  0  0  0  0  0
   36.7220   23.8240   33.0960 H   0  0  0  0  0  0  0  0  0  0  0  0
   37.7210   22.5350   31.4760 H   0  0  0  0  0  0  0  0  0  0  0  0
   39.3160   22.5230   32.4190 H   0  0  0  0  0  0  0  0  0  0  0  0
   39.9070   23.8180   30.5230 H   0  0  0  0  0  0  0  0  0  0  0  0
   38.2650   24.6780   30.4950 H   0  0  0  0  0  0  0  0  0  0  0  0
   39.7120   26.1800   31.6760 H   0  0  0  0  0  0  0  0  0  0  0  0
   40.3160   24.8130   32.7600 H   0  0  0  0  0  0  0  0  0  0  0  0
   38.2180   23.3770   34.4820 C   0  0  0  0  0  0  0  0  0  0  0  0
   38.2160   22.1790   34.6840 O   0  0  0  0  0  0  0  0  0  0  0  0
   38.6560   23.6280   35.8000 N   0  0  0  0  0  0  0  0  0  0  0  0
   40.0210   23.3910   36.2110 C   0  0  0  0  0  3  0  0  0  0  0  0
   40.4310   24.2890   36.7590 H   0  0  0  0  0  0  0  0  0  0  0  0
   39.9690   22.3060   37.2990 C   0  0  0  0  0  3  0  0  0  0  0  0
   40.9650   21.8590   37.4730 H   0  0  0  0  0  0  0  0  0  0  0  0
   39.4570   22.9600   38.4870 N   0  0  0  0  0  0  0  0  0  0  0  0
   40.0000   23.8080   38.7380 H   0  0  0  0  0  0  0  0  0  0  0  0
   38.0860   23.3100   38.1920 C   0  0  0  0  0  2  0  0  0  0  0  0
   37.9340   24.1320   36.9580 C   0  0  0  0  0  2  0  0  0  0  0  0
   37.5300   26.3980   33.3090 C   0  0  0  0  0  0  0  0  0  0  0  0
   36.7240   27.0560   32.3920 C   0  0  0  0  0  0  0  0  0  0  0  0
   36.0050   28.1880   32.7450 C   0  0  0  0  0  0  0  0  0  0  0  0
   36.1550   28.6010   34.0620 N   0  0  0  0  0  0  0  0  0  0  0  0
   36.9390   27.9540   34.9370 C   0  0  0  0  0  0  0  0  0  0  0  0
   37.6200   26.8540   34.5430 N   0  0  0  0  0  0  0  0  0  0  0  0
   36.5980   26.7450   31.3650 H   0  0  0  0  0  0  0  0  0  0  0  0
   35.3750   28.7060   32.0370 H   0  0  0  0  0  0  0  0  0  0  0  0
   37.0080   28.3350   35.9510 H   0  0  0  0  0  0  0  0  0  0  0  0
  1  2  1  0  0  0  0
  1 24  1  0  0  0  0
  2  6  1  6  0  0  0
  2 13  1  0  0  0  0
  3  8  1  0  0  0  0
  3  2  1  0  0  0  0
  4  3  1  0  0  0  0
  4  5  1  0  0  0  0
  5 12  1  0  0  0  0
  5  1  1  0  0  0  0
  7  3  1  0  0  0  0
  9  4  1  0  0  0  0
 10  4  1  0  0  0  0
 11  5  1  0  0  0  0
 13 14  2  0  0  0  0
 13 15  1  0  0  0  0
 15 16  1  0  0  0  0
 15 23  1  0  0  0  0
 16 17  1  0  0  0  0
 16 18  1  0  0  0  0
 18 19  1  0  0  0  0
 18 20  1  0  0  0  0
 20 21  1  0  0  0  0
 22 20  1  0  0  0  0
 23 22  1  0  0  0  0
 24 29  1  0  0  0  0
 25 26  1  0  0  0  0
 25 24  2  0  0  0  0
 26 27  2  0  0  0  0
 27 28  1  0  0  0  0
 28 32  1  0  0  0  0
 29 28  2  0  0  0  0
 30 25  1  0  0  0  0
 31 26  1  0  0  0  0
M  END
>  <minimizedAffinity>
-4.77505827

$$$$

 OpenBabel03272503253D

 32 34  0  0  1  0  0  0  0  0999 V2000
   39.1520   26.1200   32.9760 N   0  0  0  0  0  0  0  0  0  0  0  0
   39.2190   24.7260   33.3690 C   0  0  1  0  0  0  0  0  0  0  0  0
   40.5580   24.3190   32.7610 C   0  0  0  0  0  0  0  0  0  0  0  0
   41.0180   25.5080   31.9010 C   0  0  0  0  0  0  0  0  0  0  0  0
   40.4890   26.6410   32.7750 C   0  0  0  0  0  0  0  0  0  0  0  0
   38.3920   24.1780   32.8860 H   0  0  0  0  0  0  0  0  0  0  0  0
   40.4190   23.4300   32.1010 H   0  0  0  0  0  0  0  0  0  0  0  0
   41.2950   24.1660   33.5590 H   0  0  0  0  0  0  0  0  0  0  0  0
   42.0990   25.5320   31.7970 H   0  0  0  0  0  0  0  0  0  0  0  0
   40.4490   25.5590   30.9520 H   0  0  0  0  0  0  0  0  0  0  0  0
   40.5050   27.5850   32.2310 H   0  0  0  0  0  0  0  0  0  0  0  0
   41.0510   26.6700   33.7380 H   0  0  0  0  0  0  0  0  0  0  0  0
   39.1620   24.4930   34.7990 C   0  0  0  0  0  0  0  0  0  0  0  0
   39.3440   25.4210   35.5620 O   0  0  0  0  0  0  0  0  0  0  0  0
   38.9820   23.6030   35.8800 N   0  0  0  0  0  0  0  0  0  0  0  0
   37.7700   23.5880   36.6650 C   0  0  0  0  0  3  0  0  0  0  0  0
   37.3810   22.5330   36.7740 H   0  0  0  0  0  0  0  0  0  0  0  0
   38.1710   23.9660   38.1000 C   0  0  0  0  0  3  0  0  0  0  0  0
   37.2910   24.2560   38.7040 H   0  0  0  0  0  0  0  0  0  0  0  0
   38.8410   22.8020   38.6450 N   0  0  0  0  0  0  0  0  0  0  0  0
   38.2680   21.9410   38.5620 H   0  0  0  0  0  0  0  0  0  0  0  0
   40.0700   22.6610   37.8990 C   0  0  0  0  0  2  0  0  0  0  0  0
   39.8660   22.5830   36.4250 C   0  0  0  0  0  2  0  0  0  0  0  0
   37.9370   26.8440   32.8130 C   0  0  0  0  0  0  0  0  0  0  0  0
   37.2600   26.7660   31.6060 C   0  0  0  0  0  0  0  0  0  0  0  0
   36.0720   27.4510   31.4000 C   0  0  0  0  0  0  0  0  0  0  0  0
   35.6260   28.2060   32.4760 N   0  0  0  0  0  0  0  0  0  0  0  0
   36.2930   28.2720   33.6370 C   0  0  0  0  0  0  0  0  0  0  0  0
   37.4480   27.5850   33.7890 N   0  0  0  0  0  0  0  0  0  0  0  0
   37.5960   26.1820   30.7600 H   0  0  0  0  0  0  0  0  0  0  0  0
   35.5380   27.3960   30.4630 H   0  0  0  0  0  0  0  0  0  0  0  0
   35.8850   28.8830   34.4370 H   0  0  0  0  0  0  0  0  0  0  0  0
  1  2  1  0  0  0  0
  2  6  1  6  0  0  0
  2 13  1  0  0  0  0
  3  2  1  0  0  0  0
  3  8  1  0  0  0  0
  4  3  1  0  0  0  0
  4  5  1  0  0  0  0
  5  1  1  0  0  0  0
  5 12  1  0  0  0  0
  7  3  1  0  0  0  0
  9  4  1  0  0  0  0
 10  4  1  0  0  0  0
 11  5  1  0  0  0  0
 13 14  2  0  0  0  0
 13 15  1  0  0  0  0
 15 23  1  0  0  0  0
 15 16  1  0  0  0  0
 16 17  1  0  0  0  0
 16 18  1  0  0  0  0
 18 20  1  0  0  0  0
 18 19  1  0  0  0  0
 21 20  1  0  0  0  0
 22 20  1  0  0  0  0
 23 22  1  0  0  0  0
 24  1  1  0  0  0  0
 24 29  1  0  0  0  0
 25 24  2  0  0  0  0
 26 25  1  0  0  0  0
 26 27  2  0  0  0  0
 27 28  1  0  0  0  0
 28 29  2  0  0  0  0
 28 32  1  0  0  0  0
 30 25  1  0  0  0  0
 31 26  1  0  0  0  0
M  END
>  <minimizedAffinity>
-4.73251724

$$$$

 OpenBabel03272503253D

 32 34  0  0  1  0  0  0  0  0999 V2000
   38.3850   22.7180   34.4850 N   0  0  0  0  0  0  0  0  0  0  0  0
   39.0810   23.4590   33.4520 C   0  0  1  0  0  0  0  0  0  0  0  0
   38.9910   22.4800   32.2840 C   0  0  0  0  0  0  0  0  0  0  0  0
   38.4110   21.1770   32.8600 C   0  0  0  0  0  0  0  0  0  0  0  0
   37.4550   21.7850   33.8830 C   0  0  0  0  0  0  0  0  0  0  0  0
   40.1320   23.6010   33.7580 H   0  0  0  0  0  0  0  0  0  0  0  0
   40.0130   22.2730   31.8850 H   0  0  0  0  0  0  0  0  0  0  0  0
   38.2920   22.8650   31.5330 H   0  0  0  0  0  0  0  0  0  0  0  0
   37.8960   20.5980   32.1000 H   0  0  0  0  0  0  0  0  0  0  0  0
   39.1740   20.6240   33.4430 H   0  0  0  0  0  0  0  0  0  0  0  0
   37.1000   21.0230   34.5760 H   0  0  0  0  0  0  0  0  0  0  0  0
   36.6350   22.3280   33.3560 H   0  0  0  0  0  0  0  0  0  0  0  0
   38.5060   24.7530   33.1390 C   0  0  0  0  0  0  0  0  0  0  0  0
   39.1230   25.5260   32.4330 O   0  0  0  0  0  0  0  0  0  0  0  0
   37.4470   25.6780   33.2730 N   0  0  0  0  0  0  0  0  0  0  0  0
   36.5070   25.9250   32.2040 C   0  0  0  0  0  3  0  0  0  0  0  0
   35.4470   25.8740   32.5890 H   0  0  0  0  0  0  0  0  0  0  0  0
   36.6690   27.4020   31.8100 C   0  0  0  0  0  3  0  0  0  0  0  0
   36.2060   27.6130   30.8280 H   0  0  0  0  0  0  0  0  0  0  0  0
   36.0500   28.1670   32.8740 N   0  0  0  0  0  0  0  0  0  0  0  0
   35.0740   27.8660   33.0610 H   0  0  0  0  0  0  0  0  0  0  0  0
   36.8720   27.9620   34.0450 C   0  0  0  0  0  2  0  0  0  0  0  0
   37.0670   26.5260   34.3920 C   0  0  0  0  0  2  0  0  0  0  0  0
   38.6070   22.8960   35.8800 C   0  0  0  0  0  0  0  0  0  0  0  0
   39.8300   22.5320   36.4230 C   0  0  0  0  0  0  0  0  0  0  0  0
   40.0940   22.6890   37.7740 C   0  0  0  0  0  0  0  0  0  0  0  0
   39.0580   23.2270   38.5250 N   0  0  0  0  0  0  0  0  0  0  0  0
   37.8800   23.5740   37.9850 C   0  0  0  0  0  0  0  0  0  0  0  0
   37.6710   23.4010   36.6610 N   0  0  0  0  0  0  0  0  0  0  0  0
   40.6450   22.1130   35.8500 H   0  0  0  0  0  0  0  0  0  0  0  0
   41.0440   22.4080   38.2060 H   0  0  0  0  0  0  0  0  0  0  0  0
   37.1150   23.9890   38.6330 H   0  0  0  0  0  0  0  0  0  0  0  0
  1 24  1  0  0  0  0
  2  6  1  1  0  0  0
  2  1  1  0  0  0  0
  3  4  1  0  0  0  0
  3  2  1  0  0  0  0
  4 10  1  0  0  0  0
  4  5  1  0  0  0  0
  5  1  1  0  0  0  0
  5 11  1  0  0  0  0
  7  3  1  0  0  0  0
  8  3  1  0  0  0  0
  9  4  1  0  0  0  0
 12  5  1  0  0  0  0
 13 15  1  0  0  0  0
 13  2  1  0  0  0  0
 14 13  2  0  0  0  0
 15 23  1  0  0  0  0
 16 17  1  0  0  0  0
 16 15  1  0  0  0  0
 18 16  1  0  0  0  0
 18 20  1  0  0  0  0
 19 18  1  0  0  0  0
 20 21  1  0  0  0  0
 20 22  1  0  0  0  0
 22 23  1  0  0  0  0
 24 25  2  0  0  0  0
 24 29  1  0  0  0  0
 25 26  1  0  0  0  0
 26 31  1  0  0  0  0
 26 27  2  0  0  0  0
 28 27  1  0  0  0  0
 28 32  1  0  0  0  0
 29 28  2  0  0  0  0
 30 25  1  0  0  0  0
M  END
>  <minimizedAffinity>
-4.59589624

$$$$
