
 OpenBabel03272500553D

 32 34  0  0  0  0  0  0  0  0999 V2000
   36.8960   23.3610   32.3080 C   0  0  0  0  0  0  0  0  0  0  0  0
   36.1280   23.0690   31.1820 C   0  0  0  0  0  0  0  0  0  0  0  0
   35.5010   21.8450   31.0110 C   0  0  0  0  0  0  0  0  0  0  0  0
   35.6480   20.8520   32.0200 C   0  0  0  0  0  0  0  0  0  0  0  0
   36.4100   21.1780   33.1090 C   0  0  0  0  0  0  0  0  0  0  0  0
   37.0220   22.3770   33.2830 C   0  0  0  0  0  0  0  0  0  0  0  0
   36.0060   23.8200   30.3980 H   0  0  0  0  0  0  0  0  0  0  0  0
   34.9160   21.7190   30.0840 H   0  0  0  0  0  0  0  0  0  0  0  0
   35.1040   19.9760   31.7300 H   0  0  0  0  0  0  0  0  0  0  0  0
   36.4090   20.2760   33.6850 H   0  0  0  0  0  0  0  0  0  0  0  0
   39.0850   22.1030   34.3700 C   0  0  0  0  0  0  0  0  0  0  0  0
   39.3630   21.3180   33.3990 O   0  0  0  0  0  0  0  0  0  0  0  0
   37.7740   22.6980   34.4140 N   0  0  0  0  0  0  0  0  0  0  0  0
   37.4250   23.2800   35.1610 H   0  0  0  0  0  0  0  0  0  0  0  0
   40.0170   22.4300   35.4310 N   0  0  0  0  0  0  0  0  0  0  0  0
   41.4590   22.2240   35.4870 C   0  0  0  0  0  3  0  0  0  0  0  0
   41.8220   21.6650   34.5750 H   0  0  0  0  0  0  0  0  0  0  0  0
   41.9390   21.6110   36.7560 C   0  0  0  0  0  3  0  0  0  0  0  0
   42.2890   20.5770   36.4970 H   0  0  0  0  0  0  0  0  0  0  0  0
   40.9170   21.4810   37.7520 N   0  0  0  0  0  0  0  0  0  0  0  0
   40.3530   20.6170   37.6890 H   0  0  0  0  0  0  0  0  0  0  0  0
   40.1040   22.6740   37.8750 C   0  0  0  0  0  2  0  0  0  0  0  0
   39.4210   23.0490   36.6000 C   0  0  0  0  0  2  0  0  0  0  0  0
   38.7460   24.7560   31.6080 C   0  0  0  0  0  0  0  0  0  0  0  0
   37.5320   24.6610   32.3100 C   0  0  0  0  0  0  0  0  0  0  0  0
   37.0690   25.8310   32.9300 C   0  0  0  0  0  0  0  0  0  0  0  0
   37.7790   26.9680   32.8380 N   0  0  0  0  0  0  0  0  0  0  0  0
   38.9340   27.0370   32.1650 C   0  0  0  0  0  0  0  0  0  0  0  0
   39.4090   25.9340   31.5560 N   0  0  0  0  0  0  0  0  0  0  0  0
   39.2480   23.9570   31.0730 H   0  0  0  0  0  0  0  0  0  0  0  0
   36.1380   25.7040   33.4540 H   0  0  0  0  0  0  0  0  0  0  0  0
   39.4360   27.9960   32.1450 H   0  0  0  0  0  0  0  0  0  0  0  0
  1 25  1  0  0  0  0
  1  6  1  0  0  0  0
  2  1  2  0  0  0  0
  3  2  1  0  0  0  0
  3  4  2  0  0  0  0
  4  5  1  0  0  0  0
  5  6  2  0  0  0  0
  5 10  1  0  0  0  0
  6 13  1  0  0  0  0
  7  2  1  0  0  0  0
  8  3  1  0  0  0  0
  9  4  1  0  0  0  0
 11 13  1  0  0  0  0
 11 15  1  0  0  0  0
 12 11  2  0  0  0  0
 13 14  1  0  0  0  0
 15 16  1  0  0  0  0
 15 23  1  0  0  0  0
 16 18  1  0  0  0  0
 17 16  1  0  0  0  0
 18 20  1  0  0  0  0
 19 18  1  0  0  0  0
 20 22  1  0  0  0  0
 21 20  1  0  0  0  0
 23 22  1  0  0  0  0
 24 25  1  0  0  0  0
 25 26  2  0  0  0  0
 26 31  1  0  0  0  0
 27 26  1  0  0  0  0
 28 27  2  0  0  0  0
 29 24  2  0  0  0  0
 29 28  1  0  0  0  0
 30 24  1  0  0  0  0
 32 28  1  0  0  0  0
M  END
>  <minimizedAffinity>
-5.29966116

$$$$

 OpenBabel03272500553D

 32 34  0  0  0  0  0  0  0  0999 V2000
   33.7090   30.6670   35.3610 C   0  0  0  0  0  0  0  0  0  0  0  0
   33.2040   31.7500   36.0780 C   0  0  0  0  0  0  0  0  0  0  0  0
   34.0240   32.7270   36.6200 C   0  0  0  0  0  0  0  0  0  0  0  0
   35.4320   32.6200   36.4370 C   0  0  0  0  0  0  0  0  0  0  0  0
   35.8870   31.5430   35.7270 C   0  0  0  0  0  0  0  0  0  0  0  0
   35.0870   30.5850   35.1920 C   0  0  0  0  0  0  0  0  0  0  0  0
   32.1260   31.8460   36.2280 H   0  0  0  0  0  0  0  0  0  0  0  0
   33.5200   33.5420   37.1680 H   0  0  0  0  0  0  0  0  0  0  0  0
   35.9100   33.4500   36.9150 H   0  0  0  0  0  0  0  0  0  0  0  0
   36.9500   31.6570   35.7680 H   0  0  0  0  0  0  0  0  0  0  0  0
   35.9470   29.9030   33.1150 C   0  0  0  0  0  0  0  0  0  0  0  0
   35.7190   31.1090   32.7540 O   0  0  0  0  0  0  0  0  0  0  0  0
   35.5720   29.5070   34.4490 N   0  0  0  0  0  0  0  0  0  0  0  0
   35.6460   28.5710   34.8200 H   0  0  0  0  0  0  0  0  0  0  0  0
   36.5620   28.9090   32.2580 N   0  0  0  0  0  0  0  0  0  0  0  0
   37.2920   29.0950   31.0100 C   0  0  0  0  0  3  0  0  0  0  0  0
   37.2770   30.1780   30.6910 H   0  0  0  0  0  0  0  0  0  0  0  0
   36.8730   28.1750   29.9160 C   0  0  0  0  0  3  0  0  0  0  0  0
   36.3600   28.8100   29.1460 H   0  0  0  0  0  0  0  0  0  0  0  0
   35.9400   27.1730   30.3360 N   0  0  0  0  0  0  0  0  0  0  0  0
   34.9470   27.4610   30.3110 H   0  0  0  0  0  0  0  0  0  0  0  0
   36.3120   26.5570   31.5940 C   0  0  0  0  0  2  0  0  0  0  0  0
   36.4250   27.5390   32.7140 C   0  0  0  0  0  2  0  0  0  0  0  0
   32.1420   28.9060   35.9110 C   0  0  0  0  0  0  0  0  0  0  0  0
   32.7280   29.7030   34.9120 C   0  0  0  0  0  0  0  0  0  0  0  0
   32.2990   29.4800   33.5950 C   0  0  0  0  0  0  0  0  0  0  0  0
   31.3720   28.5420   33.3380 N   0  0  0  0  0  0  0  0  0  0  0  0
   30.8260   27.7930   34.3040 C   0  0  0  0  0  0  0  0  0  0  0  0
   31.2140   27.9790   35.5800 N   0  0  0  0  0  0  0  0  0  0  0  0
   32.3540   28.9420   36.9730 H   0  0  0  0  0  0  0  0  0  0  0  0
   32.7780   30.1150   32.8700 H   0  0  0  0  0  0  0  0  0  0  0  0
   30.0880   27.0630   34.0020 H   0  0  0  0  0  0  0  0  0  0  0  0
  1  2  1  0  0  0  0
  2  7  1  0  0  0  0
  2  3  2  0  0  0  0
  3  8  1  0  0  0  0
  4  3  1  0  0  0  0
  4  9  1  0  0  0  0
  5 10  1  0  0  0  0
  5  4  2  0  0  0  0
  6  1  2  0  0  0  0
  6  5  1  0  0  0  0
 11 13  1  0  0  0  0
 12 11  2  0  0  0  0
 13 14  1  0  0  0  0
 13  6  1  0  0  0  0
 15 23  1  0  0  0  0
 15 11  1  0  0  0  0
 16 15  1  0  0  0  0
 17 16  1  0  0  0  0
 18 20  1  0  0  0  0
 18 16  1  0  0  0  0
 19 18  1  0  0  0  0
 20 22  1  0  0  0  0
 21 20  1  0  0  0  0
 22 23  1  0  0  0  0
 24 30  1  0  0  0  0
 25  1  1  0  0  0  0
 25 24  2  0  0  0  0
 26 25  1  0  0  0  0
 27 26  2  0  0  0  0
 27 28  1  0  0  0  0
 28 29  2  0  0  0  0
 29 24  1  0  0  0  0
 31 26  1  0  0  0  0
 32 28  1  0  0  0  0
M  END
>  <minimizedAffinity>
-5.2841382

$$$$

 OpenBabel03272500553D

 32 34  0  0  0  0  0  0  0  0999 V2000
   38.1740   24.8950   31.7350 C   0  0  0  0  0  0  0  0  0  0  0  0
   37.9520   25.8310   30.7270 C   0  0  0  0  0  0  0  0  0  0  0  0
   38.4460   27.1250   30.7960 C   0  0  0  0  0  0  0  0  0  0  0  0
   39.2050   27.5090   31.9370 C   0  0  0  0  0  0  0  0  0  0  0  0
   39.4000   26.5610   32.9040 C   0  0  0  0  0  0  0  0  0  0  0  0
   38.9220   25.2920   32.8390 C   0  0  0  0  0  0  0  0  0  0  0  0
   37.3710   25.5520   29.8450 H   0  0  0  0  0  0  0  0  0  0  0  0
   38.2120   27.7840   29.9420 H   0  0  0  0  0  0  0  0  0  0  0  0
   39.5050   28.5320   31.8280 H   0  0  0  0  0  0  0  0  0  0  0  0
   39.9420   27.0920   33.6580 H   0  0  0  0  0  0  0  0  0  0  0  0
   38.3320   24.5510   34.9870 C   0  0  0  0  0  0  0  0  0  0  0  0
   37.5900   25.5930   35.0190 O   0  0  0  0  0  0  0  0  0  0  0  0
   39.1550   24.3320   33.8260 N   0  0  0  0  0  0  0  0  0  0  0  0
   39.8220   23.5830   33.7180 H   0  0  0  0  0  0  0  0  0  0  0  0
   38.3920   23.5740   36.0570 N   0  0  0  0  0  0  0  0  0  0  0  0
   37.4820   23.3810   37.1800 C   0  0  0  0  0  3  0  0  0  0  0  0
   36.6850   24.1810   37.1950 H   0  0  0  0  0  0  0  0  0  0  0  0
   38.1620   23.2320   38.4960 C   0  0  0  0  0  3  0  0  0  0  0  0
   37.9190   24.1560   39.0860 H   0  0  0  0  0  0  0  0  0  0  0  0
   39.5880   23.1490   38.3980 N   0  0  0  0  0  0  0  0  0  0  0  0
   40.0800   24.0580   38.3830 H   0  0  0  0  0  0  0  0  0  0  0  0
   40.0230   22.2590   37.3400 C   0  0  0  0  0  2  0  0  0  0  0  0
   39.5200   22.6650   35.9930 C   0  0  0  0  0  2  0  0  0  0  0  0
   36.1920   23.5170   31.9200 C   0  0  0  0  0  0  0  0  0  0  0  0
   37.5430   23.6070   31.5420 C   0  0  0  0  0  0  0  0  0  0  0  0
   38.1300   22.4450   31.0170 C   0  0  0  0  0  0  0  0  0  0  0  0
   37.4050   21.3200   30.8990 N   0  0  0  0  0  0  0  0  0  0  0  0
   36.1200   21.2550   31.2660 C   0  0  0  0  0  0  0  0  0  0  0  0
   35.5230   22.3510   31.7730 N   0  0  0  0  0  0  0  0  0  0  0  0
   35.5850   24.3110   32.3410 H   0  0  0  0  0  0  0  0  0  0  0  0
   39.1630   22.5670   30.7440 H   0  0  0  0  0  0  0  0  0  0  0  0
   35.6170   20.3060   31.1330 H   0  0  0  0  0  0  0  0  0  0  0  0
  1  6  1  0  0  0  0
  2  3  1  0  0  0  0
  2  1  2  0  0  0  0
  3  4  2  0  0  0  0
  4  5  1  0  0  0  0
  5 10  1  0  0  0  0
  6  5  2  0  0  0  0
  6 13  1  0  0  0  0
  7  2  1  0  0  0  0
  8  3  1  0  0  0  0
  9  4  1  0  0  0  0
 11 12  2  0  0  0  0
 11 15  1  0  0  0  0
 13 11  1  0  0  0  0
 14 13  1  0  0  0  0
 15 16  1  0  0  0  0
 16 17  1  0  0  0  0
 16 18  1  0  0  0  0
 18 19  1  0  0  0  0
 20 18  1  0  0  0  0
 21 20  1  0  0  0  0
 22 20  1  0  0  0  0
 23 15  1  0  0  0  0
 23 22  1  0  0  0  0
 24 30  1  0  0  0  0
 25  1  1  0  0  0  0
 25 24  2  0  0  0  0
 26 25  1  0  0  0  0
 27 26  2  0  0  0  0
 27 28  1  0  0  0  0
 28 29  2  0  0  0  0
 29 24  1  0  0  0  0
 31 26  1  0  0  0  0
 32 28  1  0  0  0  0
M  END
>  <minimizedAffinity>
-4.99175167

$$$$

 OpenBabel03272500553D

 32 34  0  0  0  0  0  0  0  0999 V2000
   36.3710   23.1650   31.9200 C   0  0  0  0  0  0  0  0  0  0  0  0
   35.3390   23.8810   31.3170 C   0  0  0  0  0  0  0  0  0  0  0  0
   35.4140   25.2480   31.0990 C   0  0  0  0  0  0  0  0  0  0  0  0
   36.5870   25.9440   31.5080 C   0  0  0  0  0  0  0  0  0  0  0  0
   37.5770   25.2050   32.0960 C   0  0  0  0  0  0  0  0  0  0  0  0
   37.5090   23.8650   32.3070 C   0  0  0  0  0  0  0  0  0  0  0  0
   34.4320   23.3620   30.9980 H   0  0  0  0  0  0  0  0  0  0  0  0
   34.5410   25.7150   30.6130 H   0  0  0  0  0  0  0  0  0  0  0  0
   36.4780   26.9820   31.2680 H   0  0  0  0  0  0  0  0  0  0  0  0
   38.3100   25.9410   32.3510 H   0  0  0  0  0  0  0  0  0  0  0  0
   38.5840   23.2960   34.3160 C   0  0  0  0  0  0  0  0  0  0  0  0
   37.7740   24.1300   34.8520 O   0  0  0  0  0  0  0  0  0  0  0  0
   38.5420   23.1260   32.8860 N   0  0  0  0  0  0  0  0  0  0  0  0
   39.1720   22.5470   32.3510 H   0  0  0  0  0  0  0  0  0  0  0  0
   39.5430   22.5110   35.0670 N   0  0  0  0  0  0  0  0  0  0  0  0
   39.6050   22.2590   36.5020 C   0  0  0  0  0  3  0  0  0  0  0  0
   38.8090   22.8440   37.0490 H   0  0  0  0  0  0  0  0  0  0  0  0
   40.9580   22.4500   37.0950 C   0  0  0  0  0  3  0  0  0  0  0  0
   40.8930   23.3600   37.7490 H   0  0  0  0  0  0  0  0  0  0  0  0
   41.9820   22.6910   36.1230 N   0  0  0  0  0  0  0  0  0  0  0  0
   42.0960   23.6810   35.8460 H   0  0  0  0  0  0  0  0  0  0  0  0
   41.8930   21.7980   34.9860 C   0  0  0  0  0  2  0  0  0  0  0  0
   40.5850   21.8920   34.2700 C   0  0  0  0  0  2  0  0  0  0  0  0
   36.2860   20.9240   31.0090 C   0  0  0  0  0  0  0  0  0  0  0  0
   36.1150   21.7560   32.1290 C   0  0  0  0  0  0  0  0  0  0  0  0
   35.7210   21.1330   33.3230 C   0  0  0  0  0  0  0  0  0  0  0  0
   35.5240   19.8050   33.3560 N   0  0  0  0  0  0  0  0  0  0  0  0
   35.6900   19.0300   32.2780 C   0  0  0  0  0  0  0  0  0  0  0  0
   36.0690   19.5930   31.1140 N   0  0  0  0  0  0  0  0  0  0  0  0
   36.5840   21.2330   30.0130 H   0  0  0  0  0  0  0  0  0  0  0  0
   35.6050   21.8140   34.1480 H   0  0  0  0  0  0  0  0  0  0  0  0
   35.5080   17.9710   32.3990 H   0  0  0  0  0  0  0  0  0  0  0  0
  1 25  1  0  0  0  0
  1  6  1  0  0  0  0
  2  1  2  0  0  0  0
  3  2  1  0  0  0  0
  3  4  2  0  0  0  0
  4  5  1  0  0  0  0
  5  6  2  0  0  0  0
  5 10  1  0  0  0  0
  6 13  1  0  0  0  0
  7  2  1  0  0  0  0
  8  3  1  0  0  0  0
  9  4  1  0  0  0  0
 11 12  2  0  0  0  0
 11 15  1  0  0  0  0
 13 11  1  0  0  0  0
 14 13  1  0  0  0  0
 15 16  1  0  0  0  0
 16 17  1  0  0  0  0
 16 18  1  0  0  0  0
 18 19  1  0  0  0  0
 20 18  1  0  0  0  0
 21 20  1  0  0  0  0
 22 20  1  0  0  0  0
 23 22  1  0  0  0  0
 23 15  1  0  0  0  0
 24 29  2  0  0  0  0
 24 25  1  0  0  0  0
 25 26  2  0  0  0  0
 26 27  1  0  0  0  0
 26 31  1  0  0  0  0
 28 32  1  0  0  0  0
 28 27  2  0  0  0  0
 29 28  1  0  0  0  0
 30 24  1  0  0  0  0
M  END
>  <minimizedAffinity>
-4.96722174

$$$$

 OpenBabel03272500553D

 32 34  0  0  0  0  0  0  0  0999 V2000
   39.5720   23.3440   36.2360 C   0  0  0  0  0  0  0  0  0  0  0  0
   39.9640   22.9910   37.5260 C   0  0  0  0  0  0  0  0  0  0  0  0
   39.1650   23.2290   38.6340 C   0  0  0  0  0  0  0  0  0  0  0  0
   37.9010   23.8570   38.4450 C   0  0  0  0  0  0  0  0  0  0  0  0
   37.5540   24.1870   37.1640 C   0  0  0  0  0  0  0  0  0  0  0  0
   38.3320   23.9520   36.0760 C   0  0  0  0  0  0  0  0  0  0  0  0
   40.9310   22.5100   37.6870 H   0  0  0  0  0  0  0  0  0  0  0  0
   39.5710   22.9090   39.6080 H   0  0  0  0  0  0  0  0  0  0  0  0
   37.4200   23.9640   39.3960 H   0  0  0  0  0  0  0  0  0  0  0  0
   36.6110   24.6760   37.2860 H   0  0  0  0  0  0  0  0  0  0  0  0
   38.1570   25.6700   34.4840 C   0  0  0  0  0  0  0  0  0  0  0  0
   38.5640   26.4310   35.4290 O   0  0  0  0  0  0  0  0  0  0  0  0
   37.9470   24.2740   34.7730 N   0  0  0  0  0  0  0  0  0  0  0  0
   37.5700   23.5970   34.1260 H   0  0  0  0  0  0  0  0  0  0  0  0
   37.8970   26.1320   33.1350 N   0  0  0  0  0  0  0  0  0  0  0  0
   38.2940   27.3810   32.4970 C   0  0  0  0  0  3  0  0  0  0  0  0
   38.8110   28.0640   33.2330 H   0  0  0  0  0  0  0  0  0  0  0  0
   37.1940   28.0670   31.7630 C   0  0  0  0  0  3  0  0  0  0  0  0
   36.9610   29.0000   32.3400 H   0  0  0  0  0  0  0  0  0  0  0  0
   35.9890   27.2970   31.6860 N   0  0  0  0  0  0  0  0  0  0  0  0
   35.3520   27.4000   32.4930 H   0  0  0  0  0  0  0  0  0  0  0  0
   36.2340   25.9110   31.3390 C   0  0  0  0  0  2  0  0  0  0  0  0
   37.1310   25.2160   32.3120 C   0  0  0  0  0  2  0  0  0  0  0  0
   41.5370   24.0590   35.0160 C   0  0  0  0  0  0  0  0  0  0  0  0
   40.5430   23.0820   35.1950 C   0  0  0  0  0  0  0  0  0  0  0  0
   40.6010   21.9620   34.3510 C   0  0  0  0  0  0  0  0  0  0  0  0
   41.5720   21.8640   33.4280 N   0  0  0  0  0  0  0  0  0  0  0  0
   42.5090   22.8070   33.2730 C   0  0  0  0  0  0  0  0  0  0  0  0
   42.4860   23.8960   34.0660 N   0  0  0  0  0  0  0  0  0  0  0  0
   41.6440   24.9820   35.5760 H   0  0  0  0  0  0  0  0  0  0  0  0
   39.8180   21.2450   34.5290 H   0  0  0  0  0  0  0  0  0  0  0  0
   43.2520   22.6410   32.5050 H   0  0  0  0  0  0  0  0  0  0  0  0
  1  2  1  0  0  0  0
  2  7  1  0  0  0  0
  2  3  2  0  0  0  0
  3  8  1  0  0  0  0
  4  3  1  0  0  0  0
  4  9  1  0  0  0  0
  5 10  1  0  0  0  0
  5  4  2  0  0  0  0
  6  1  2  0  0  0  0
  6  5  1  0  0  0  0
 11 13  1  0  0  0  0
 11 12  2  0  0  0  0
 13  6  1  0  0  0  0
 14 13  1  0  0  0  0
 15 11  1  0  0  0  0
 16 15  1  0  0  0  0
 16 17  1  0  0  0  0
 18 19  1  0  0  0  0
 18 16  1  0  0  0  0
 20 18  1  0  0  0  0
 20 21  1  0  0  0  0
 22 20  1  0  0  0  0
 22 23  1  0  0  0  0
 23 15  1  0  0  0  0
 24 25  1  0  0  0  0
 24 30  1  0  0  0  0
 25  1  1  0  0  0  0
 26 31  1  0  0  0  0
 26 25  2  0  0  0  0
 27 26  1  0  0  0  0
 28 27  2  0  0  0  0
 28 29  1  0  0  0  0
 29 24  2  0  0  0  0
 32 28  1  0  0  0  0
M  END
>  <minimizedAffinity>
-4.92496204

$$$$

 OpenBabel03272500553D

 32 34  0  0  0  0  0  0  0  0999 V2000
   39.4630   25.4410   34.5170 C   0  0  0  0  0  0  0  0  0  0  0  0
   40.3790   26.4760   34.6900 C   0  0  0  0  0  0  0  0  0  0  0  0
   40.7790   27.2940   33.6450 C   0  0  0  0  0  0  0  0  0  0  0  0
   40.2340   27.0670   32.3500 C   0  0  0  0  0  0  0  0  0  0  0  0
   39.3380   26.0410   32.2210 C   0  0  0  0  0  0  0  0  0  0  0  0
   38.9410   25.2400   33.2430 C   0  0  0  0  0  0  0  0  0  0  0  0
   40.8070   26.6630   35.6780 H   0  0  0  0  0  0  0  0  0  0  0  0
   41.5080   28.0850   33.8930 H   0  0  0  0  0  0  0  0  0  0  0  0
   40.6470   27.7820   31.6670 H   0  0  0  0  0  0  0  0  0  0  0  0
   39.1170   26.0420   31.1750 H   0  0  0  0  0  0  0  0  0  0  0  0
   38.6030   23.0200   32.5560 C   0  0  0  0  0  0  0  0  0  0  0  0
   39.8340   23.0620   32.2070 O   0  0  0  0  0  0  0  0  0  0  0  0
   38.0050   24.2140   33.0950 N   0  0  0  0  0  0  0  0  0  0  0  0
   37.0320   24.3160   33.3440 H   0  0  0  0  0  0  0  0  0  0  0  0
   37.7750   21.8370   32.4400 N   0  0  0  0  0  0  0  0  0  0  0  0
   38.1720   20.4520   32.2190 C   0  0  0  0  0  3  0  0  0  0  0  0
   39.2870   20.3730   32.0560 H   0  0  0  0  0  0  0  0  0  0  0  0
   37.3920   19.7550   31.1590 C   0  0  0  0  0  3  0  0  0  0  0  0
   38.1000   19.5860   30.3040 H   0  0  0  0  0  0  0  0  0  0  0  0
   36.2910   20.5230   30.6590 N   0  0  0  0  0  0  0  0  0  0  0  0
   36.5250   21.1750   29.8910 H   0  0  0  0  0  0  0  0  0  0  0  0
   35.5270   21.1550   31.7160 C   0  0  0  0  0  2  0  0  0  0  0  0
   36.3490   22.0750   32.5610 C   0  0  0  0  0  2  0  0  0  0  0  0
   38.1550   25.0940   36.5240 C   0  0  0  0  0  0  0  0  0  0  0  0
   39.1940   24.6410   35.6930 C   0  0  0  0  0  0  0  0  0  0  0  0
   39.8520   23.4670   36.0880 C   0  0  0  0  0  0  0  0  0  0  0  0
   39.4810   22.8350   37.2140 N   0  0  0  0  0  0  0  0  0  0  0  0
   38.4900   23.2830   37.9940 C   0  0  0  0  0  0  0  0  0  0  0  0
   37.8350   24.4070   37.6450 N   0  0  0  0  0  0  0  0  0  0  0  0
   37.5440   25.9770   36.3730 H   0  0  0  0  0  0  0  0  0  0  0  0
   40.6370   23.1640   35.4180 H   0  0  0  0  0  0  0  0  0  0  0  0
   38.2620   22.7070   38.8800 H   0  0  0  0  0  0  0  0  0  0  0  0
  1  2  1  0  0  0  0
  1 25  1  0  0  0  0
  2  7  1  0  0  0  0
  3  8  1  0  0  0  0
  3  2  2  0  0  0  0
  4  3  1  0  0  0  0
  5  4  2  0  0  0  0
  5  6  1  0  0  0  0
  6  1  2  0  0  0  0
  9  4  1  0  0  0  0
 10  5  1  0  0  0  0
 11 13  1  0  0  0  0
 12 11  2  0  0  0  0
 13  6  1  0  0  0  0
 13 14  1  0  0  0  0
 15 11  1  0  0  0  0
 15 23  1  0  0  0  0
 16 15  1  0  0  0  0
 17 16  1  0  0  0  0
 18 16  1  0  0  0  0
 19 18  1  0  0  0  0
 20 18  1  0  0  0  0
 20 22  1  0  0  0  0
 21 20  1  0  0  0  0
 22 23  1  0  0  0  0
 24 29  1  0  0  0  0
 25 26  1  0  0  0  0
 25 24  2  0  0  0  0
 26 27  2  0  0  0  0
 27 28  1  0  0  0  0
 28 32  1  0  0  0  0
 29 28  2  0  0  0  0
 30 24  1  0  0  0  0
 31 26  1  0  0  0  0
M  END
>  <minimizedAffinity>
-4.91379166

$$$$

 OpenBabel03272500553D

 32 34  0  0  0  0  0  0  0  0999 V2000
   39.0570   26.4550   32.6340 C   0  0  0  0  0  0  0  0  0  0  0  0
   38.7090   27.5280   31.8150 C   0  0  0  0  0  0  0  0  0  0  0  0
   37.4100   27.7360   31.3800 C   0  0  0  0  0  0  0  0  0  0  0  0
   36.3960   26.8210   31.7840 C   0  0  0  0  0  0  0  0  0  0  0  0
   36.7790   25.7820   32.5880 C   0  0  0  0  0  0  0  0  0  0  0  0
   38.0500   25.5770   33.0190 C   0  0  0  0  0  0  0  0  0  0  0  0
   39.4750   28.2380   31.4960 H   0  0  0  0  0  0  0  0  0  0  0  0
   37.2430   28.6160   30.7360 H   0  0  0  0  0  0  0  0  0  0  0  0
   35.4610   27.1280   31.3620 H   0  0  0  0  0  0  0  0  0  0  0  0
   35.8750   25.2240   32.7100 H   0  0  0  0  0  0  0  0  0  0  0  0
   38.0540   24.7850   35.2300 C   0  0  0  0  0  0  0  0  0  0  0  0
   37.5530   25.9270   35.5190 O   0  0  0  0  0  0  0  0  0  0  0  0
   38.4150   24.5240   33.8610 N   0  0  0  0  0  0  0  0  0  0  0  0
   38.8730   23.6880   33.5290 H   0  0  0  0  0  0  0  0  0  0  0  0
   38.2800   23.7370   36.2060 N   0  0  0  0  0  0  0  0  0  0  0  0
   37.7550   23.6100   37.5600 C   0  0  0  0  0  3  0  0  0  0  0  0
   37.1550   24.5230   37.8470 H   0  0  0  0  0  0  0  0  0  0  0  0
   38.7810   23.2600   38.5810 C   0  0  0  0  0  3  0  0  0  0  0  0
   38.9020   24.1660   39.2330 H   0  0  0  0  0  0  0  0  0  0  0  0
   40.0650   22.9590   38.0230 N   0  0  0  0  0  0  0  0  0  0  0  0
   40.6760   23.7770   37.8640 H   0  0  0  0  0  0  0  0  0  0  0  0
   39.9810   22.0910   36.8660 C   0  0  0  0  0  2  0  0  0  0  0  0
   39.1540   22.6680   35.7620 C   0  0  0  0  0  2  0  0  0  0  0  0
   41.2530   25.6320   32.0320 C   0  0  0  0  0  0  0  0  0  0  0  0
   40.4650   26.3440   32.9530 C   0  0  0  0  0  0  0  0  0  0  0  0
   41.1250   26.8710   34.0730 C   0  0  0  0  0  0  0  0  0  0  0  0
   42.4460   26.6810   34.2270 N   0  0  0  0  0  0  0  0  0  0  0  0
   43.1790   25.9990   33.3390 C   0  0  0  0  0  0  0  0  0  0  0  0
   42.5790   25.4800   32.2500 N   0  0  0  0  0  0  0  0  0  0  0  0
   40.9110   25.1610   31.1170 H   0  0  0  0  0  0  0  0  0  0  0  0
   40.4770   27.4060   34.7460 H   0  0  0  0  0  0  0  0  0  0  0  0
   44.2360   25.8980   33.5450 H   0  0  0  0  0  0  0  0  0  0  0  0
  1 25  1  0  0  0  0
  1  6  1  0  0  0  0
  2  1  2  0  0  0  0
  3  4  2  0  0  0  0
  3  2  1  0  0  0  0
  4  5  1  0  0  0  0
  5 10  1  0  0  0  0
  5  6  2  0  0  0  0
  6 13  1  0  0  0  0
  7  2  1  0  0  0  0
  8  3  1  0  0  0  0
  9  4  1  0  0  0  0
 11 12  2  0  0  0  0
 11 15  1  0  0  0  0
 13 11  1  0  0  0  0
 14 13  1  0  0  0  0
 15 16  1  0  0  0  0
 16 17  1  0  0  0  0
 16 18  1  0  0  0  0
 18 19  1  0  0  0  0
 20 18  1  0  0  0  0
 21 20  1  0  0  0  0
 22 20  1  0  0  0  0
 23 15  1  0  0  0  0
 23 22  1  0  0  0  0
 24 29  2  0  0  0  0
 24 25  1  0  0  0  0
 25 26  2  0  0  0  0
 26 27  1  0  0  0  0
 26 31  1  0  0  0  0
 28 32  1  0  0  0  0
 28 27  2  0  0  0  0
 29 28  1  0  0  0  0
 30 24  1  0  0  0  0
M  END
>  <minimizedAffinity>
-4.88678408

$$$$

 OpenBabel03272500553D

 32 34  0  0  0  0  0  0  0  0999 V2000
   37.2600   22.1490   33.2630 C   0  0  0  0  0  0  0  0  0  0  0  0
   36.4490   21.1600   33.8180 C   0  0  0  0  0  0  0  0  0  0  0  0
   35.3850   20.6020   33.1280 C   0  0  0  0  0  0  0  0  0  0  0  0
   35.1100   21.0560   31.8070 C   0  0  0  0  0  0  0  0  0  0  0  0
   35.9290   22.0280   31.2990 C   0  0  0  0  0  0  0  0  0  0  0  0
   36.9750   22.5740   31.9700 C   0  0  0  0  0  0  0  0  0  0  0  0
   36.6460   20.8010   34.8310 H   0  0  0  0  0  0  0  0  0  0  0  0
   34.8090   19.8250   33.6590 H   0  0  0  0  0  0  0  0  0  0  0  0
   34.2630   20.5250   31.4240 H   0  0  0  0  0  0  0  0  0  0  0  0
   35.5010   22.2290   30.3400 H   0  0  0  0  0  0  0  0  0  0  0  0
   37.2330   24.8620   31.5100 C   0  0  0  0  0  0  0  0  0  0  0  0
   36.0430   24.9720   31.9690 O   0  0  0  0  0  0  0  0  0  0  0  0
   37.8140   23.5470   31.4230 N   0  0  0  0  0  0  0  0  0  0  0  0
   38.7160   23.3350   31.0220 H   0  0  0  0  0  0  0  0  0  0  0  0
   38.0330   25.9900   31.0720 N   0  0  0  0  0  0  0  0  0  0  0  0
   37.8300   27.4130   31.3150 C   0  0  0  0  0  3  0  0  0  0  0  0
   36.8600   27.5940   31.8650 H   0  0  0  0  0  0  0  0  0  0  0  0
   37.9590   28.2630   30.0990 C   0  0  0  0  0  3  0  0  0  0  0  0
   36.9300   28.6500   29.8710 H   0  0  0  0  0  0  0  0  0  0  0  0
   38.4140   27.5470   28.9450 N   0  0  0  0  0  0  0  0  0  0  0  0
   37.6700   27.0840   28.3960 H   0  0  0  0  0  0  0  0  0  0  0  0
   39.5240   26.6630   29.2380 C   0  0  0  0  0  2  0  0  0  0  0  0
   39.1970   25.6420   30.2810 C   0  0  0  0  0  2  0  0  0  0  0  0
   39.5160   21.9800   34.1230 C   0  0  0  0  0  0  0  0  0  0  0  0
   38.2920   22.6710   34.1330 C   0  0  0  0  0  0  0  0  0  0  0  0
   38.2060   23.7880   34.9770 C   0  0  0  0  0  0  0  0  0  0  0  0
   39.2600   24.1490   35.7270 N   0  0  0  0  0  0  0  0  0  0  0  0
   40.4170   23.4760   35.7050 C   0  0  0  0  0  0  0  0  0  0  0  0
   40.5380   22.3990   34.9050 N   0  0  0  0  0  0  0  0  0  0  0  0
   39.7580   21.1010   33.5350 H   0  0  0  0  0  0  0  0  0  0  0  0
   37.2490   24.2800   34.9470 H   0  0  0  0  0  0  0  0  0  0  0  0
   41.2110   23.8410   36.3420 H   0  0  0  0  0  0  0  0  0  0  0  0
  1  2  1  0  0  0  0
  1 25  1  0  0  0  0
  2  7  1  0  0  0  0
  3  8  1  0  0  0  0
  3  2  2  0  0  0  0
  4  3  1  0  0  0  0
  5  4  2  0  0  0  0
  5  6  1  0  0  0  0
  6  1  2  0  0  0  0
  9  4  1  0  0  0  0
 10  5  1  0  0  0  0
 11 12  2  0  0  0  0
 13 11  1  0  0  0  0
 13  6  1  0  0  0  0
 14 13  1  0  0  0  0
 15 16  1  0  0  0  0
 15 11  1  0  0  0  0
 16 17  1  0  0  0  0
 18 16  1  0  0  0  0
 19 18  1  0  0  0  0
 20 22  1  0  0  0  0
 20 18  1  0  0  0  0
 21 20  1  0  0  0  0
 22 23  1  0  0  0  0
 23 15  1  0  0  0  0
 24 25  2  0  0  0  0
 24 29  1  0  0  0  0
 25 26  1  0  0  0  0
 26 27  2  0  0  0  0
 28 27  1  0  0  0  0
 28 32  1  0  0  0  0
 29 28  2  0  0  0  0
 30 24  1  0  0  0  0
 31 26  1  0  0  0  0
M  END
>  <minimizedAffinity>
-4.82915306

$$$$

 OpenBabel03272500553D

 32 34  0  0  0  0  0  0  0  0999 V2000
   39.9510   26.1830   32.0390 C   0  0  0  0  0  0  0  0  0  0  0  0
   40.2790   27.2790   31.2430 C   0  0  0  0  0  0  0  0  0  0  0  0
   41.3990   28.0590   31.4810 C   0  0  0  0  0  0  0  0  0  0  0  0
   42.2430   27.7300   32.5790 C   0  0  0  0  0  0  0  0  0  0  0  0
   41.8870   26.6480   33.3360 C   0  0  0  0  0  0  0  0  0  0  0  0
   40.7930   25.8780   33.1040 C   0  0  0  0  0  0  0  0  0  0  0  0
   39.6410   27.5450   30.3970 H   0  0  0  0  0  0  0  0  0  0  0  0
   41.5660   28.9020   30.7880 H   0  0  0  0  0  0  0  0  0  0  0  0
   43.0530   28.4290   32.6180 H   0  0  0  0  0  0  0  0  0  0  0  0
   42.6290   26.6360   34.1060 H   0  0  0  0  0  0  0  0  0  0  0  0
   39.7310   25.1300   35.0600 C   0  0  0  0  0  0  0  0  0  0  0  0
   39.5590   26.3740   35.3060 O   0  0  0  0  0  0  0  0  0  0  0  0
   40.4620   24.7620   33.8750 N   0  0  0  0  0  0  0  0  0  0  0  0
   40.7110   23.8190   33.6140 H   0  0  0  0  0  0  0  0  0  0  0  0
   39.2320   24.0670   35.9100 N   0  0  0  0  0  0  0  0  0  0  0  0
   38.2370   24.1280   36.9740 C   0  0  0  0  0  3  0  0  0  0  0  0
   37.9050   25.1920   37.1550 H   0  0  0  0  0  0  0  0  0  0  0  0
   38.6460   23.4400   38.2300 C   0  0  0  0  0  3  0  0  0  0  0  0
   38.8070   24.2450   38.9950 H   0  0  0  0  0  0  0  0  0  0  0  0
   39.8730   22.7100   38.1100 N   0  0  0  0  0  0  0  0  0  0  0  0
   40.7290   23.2640   38.2770 H   0  0  0  0  0  0  0  0  0  0  0  0
   39.9400   21.9290   36.8920 C   0  0  0  0  0  2  0  0  0  0  0  0
   39.8090   22.7600   35.6570 C   0  0  0  0  0  2  0  0  0  0  0  0
   37.5410   26.0600   32.2260 C   0  0  0  0  0  0  0  0  0  0  0  0
   38.7190   25.5060   31.6950 C   0  0  0  0  0  0  0  0  0  0  0  0
   38.5730   24.3660   30.8910 C   0  0  0  0  0  0  0  0  0  0  0  0
   37.3520   23.8550   30.6630 N   0  0  0  0  0  0  0  0  0  0  0  0
   36.2420   24.3970   31.1780 C   0  0  0  0  0  0  0  0  0  0  0  0
   36.3430   25.4930   31.9550 N   0  0  0  0  0  0  0  0  0  0  0  0
   37.4680   26.9340   32.8640 H   0  0  0  0  0  0  0  0  0  0  0  0
   39.5040   23.9830   30.5110 H   0  0  0  0  0  0  0  0  0  0  0  0
   35.3030   23.9160   30.9390 H   0  0  0  0  0  0  0  0  0  0  0  0
  1  6  1  0  0  0  0
  2  3  1  0  0  0  0
  2  1  2  0  0  0  0
  3  4  2  0  0  0  0
  4  9  1  0  0  0  0
  4  5  1  0  0  0  0
  5 10  1  0  0  0  0
  6  5  2  0  0  0  0
  6 13  1  0  0  0  0
  7  2  1  0  0  0  0
  8  3  1  0  0  0  0
 11 12  2  0  0  0  0
 11 15  1  0  0  0  0
 13 11  1  0  0  0  0
 14 13  1  0  0  0  0
 15 16  1  0  0  0  0
 16 17  1  0  0  0  0
 16 18  1  0  0  0  0
 18 19  1  0  0  0  0
 20 18  1  0  0  0  0
 20 21  1  0  0  0  0
 22 20  1  0  0  0  0
 23 15  1  0  0  0  0
 23 22  1  0  0  0  0
 24 30  1  0  0  0  0
 25  1  1  0  0  0  0
 25 24  2  0  0  0  0
 26 25  1  0  0  0  0
 27 26  2  0  0  0  0
 27 28  1  0  0  0  0
 28 29  2  0  0  0  0
 29 24  1  0  0  0  0
 31 26  1  0  0  0  0
 32 28  1  0  0  0  0
M  END
>  <minimizedAffinity>
-4.79884672

$$$$
