
 OpenBabel03262522013D

 20 21  0  0  0  0  0  0  0  0999 V2000
   38.3150   23.4580   34.5140 C   0  0  0  0  0  0  0  0  0  0  0  0
   38.1740   22.4790   33.7460 O   0  0  0  0  0  0  0  0  0  0  0  0
   38.4450   23.1670   35.9000 N   0  0  0  0  0  0  0  0  0  0  0  0
   39.3150   22.1020   36.3700 C   0  0  0  0  0  3  0  0  0  0  0  0
   39.9530   21.7340   35.5480 H   0  0  0  0  0  0  0  0  0  0  0  0
   40.1150   22.6700   37.5210 C   0  0  0  0  0  3  0  0  0  0  0  0
   40.6770   23.5720   37.2000 H   0  0  0  0  0  0  0  0  0  0  0  0
   39.2440   23.0200   38.5930 N   0  0  0  0  0  0  0  0  0  0  0  0
   39.6550   23.5760   39.3440 H   0  0  0  0  0  0  0  0  0  0  0  0
   37.8960   23.3180   38.2560 C   0  0  0  0  0  2  0  0  0  0  0  0
   37.7080   23.9310   36.8860 C   0  0  0  0  0  2  0  0  0  0  0  0
   38.3510   24.8350   34.0640 C   0  0  0  0  0  0  0  0  0  0  0  0
   39.6100   25.4650   34.1750 C   0  0  0  0  0  0  0  0  0  0  0  0
   39.7640   26.8070   33.7670 C   0  0  0  0  0  0  0  0  0  0  0  0
   38.6340   27.4080   33.2780 N   0  0  0  0  0  0  0  0  0  0  0  0
   37.4550   26.7890   33.1840 C   0  0  0  0  0  0  0  0  0  0  0  0
   37.3190   25.5100   33.5750 N   0  0  0  0  0  0  0  0  0  0  0  0
   40.4860   24.9440   34.5720 H   0  0  0  0  0  0  0  0  0  0  0  0
   40.7070   27.3080   33.8420 H   0  0  0  0  0  0  0  0  0  0  0  0
   36.6050   27.3340   32.7850 H   0  0  0  0  0  0  0  0  0  0  0  0
  1  3  1  0  0  0  0
  2  1  2  0  0  0  0
  3  4  1  0  0  0  0
  3 11  1  0  0  0  0
  4  6  1  0  0  0  0
  5  4  1  0  0  0  0
  6  8  1  0  0  0  0
  7  6  1  0  0  0  0
  8  9  1  0  0  0  0
 10  8  1  0  0  0  0
 11 10  1  0  0  0  0
 12 13  1  0  0  0  0
 12  1  1  0  0  0  0
 13 18  1  0  0  0  0
 14 19  1  0  0  0  0
 14 13  2  0  0  0  0
 15 14  1  0  0  0  0
 16 15  2  0  0  0  0
 16 17  1  0  0  0  0
 17 12  2  0  0  0  0
 20 16  1  0  0  0  0
M  END
>  <minimizedAffinity>
-4.06901741

$$$$

 OpenBabel03262522013D

 20 21  0  0  0  0  0  0  0  0999 V2000
   38.4710   26.1840   35.4220 C   0  0  0  0  0  0  0  0  0  0  0  0
   38.5550   27.1380   36.2290 O   0  0  0  0  0  0  0  0  0  0  0  0
   38.6790   24.8800   35.9510 N   0  0  0  0  0  0  0  0  0  0  0  0
   38.0610   24.4650   37.1990 C   0  0  0  0  0  3  0  0  0  0  0  0
   37.3070   25.2040   37.5220 H   0  0  0  0  0  0  0  0  0  0  0  0
   37.4680   23.0940   36.9560 C   0  0  0  0  0  3  0  0  0  0  0  0
   36.7500   23.1230   36.1110 H   0  0  0  0  0  0  0  0  0  0  0  0
   38.5040   22.1630   36.6570 N   0  0  0  0  0  0  0  0  0  0  0  0
   38.2040   21.2550   36.3000 H   0  0  0  0  0  0  0  0  0  0  0  0
   39.7030   22.6890   36.1040 C   0  0  0  0  0  2  0  0  0  0  0  0
   39.5180   23.9270   35.2550 C   0  0  0  0  0  2  0  0  0  0  0  0
   38.1800   26.3470   34.0120 C   0  0  0  0  0  0  0  0  0  0  0  0
   39.1660   27.0390   33.2760 C   0  0  0  0  0  0  0  0  0  0  0  0
   38.9900   27.2570   31.8930 C   0  0  0  0  0  0  0  0  0  0  0  0
   37.8300   26.7590   31.3610 N   0  0  0  0  0  0  0  0  0  0  0  0
   36.9130   26.1080   32.0800 C   0  0  0  0  0  0  0  0  0  0  0  0
   37.0900   25.9050   33.3970 N   0  0  0  0  0  0  0  0  0  0  0  0
   40.0790   27.4200   33.7450 H   0  0  0  0  0  0  0  0  0  0  0  0
   39.7230   27.7800   31.3140 H   0  0  0  0  0  0  0  0  0  0  0  0
   36.0190   25.7420   31.5850 H   0  0  0  0  0  0  0  0  0  0  0  0
  1  3  1  0  0  0  0
  1  2  2  0  0  0  0
  3  4  1  0  0  0  0
  4  5  1  0  0  0  0
  6  4  1  0  0  0  0
  7  6  1  0  0  0  0
  8  6  1  0  0  0  0
  9  8  1  0  0  0  0
 10  8  1  0  0  0  0
 11  3  1  0  0  0  0
 11 10  1  0  0  0  0
 12  1  1  0  0  0  0
 13 18  1  0  0  0  0
 13 12  2  0  0  0  0
 14 13  1  0  0  0  0
 15 14  2  0  0  0  0
 15 16  1  0  0  0  0
 16 17  2  0  0  0  0
 17 12  1  0  0  0  0
 19 14  1  0  0  0  0
 20 16  1  0  0  0  0
M  END
>  <minimizedAffinity>
-3.99515343

$$$$

 OpenBabel03262522013D

 20 21  0  0  0  0  0  0  0  0999 V2000
   38.2330   23.4740   34.3610 C   0  0  0  0  0  0  0  0  0  0  0  0
   38.1350   24.6260   33.8810 O   0  0  0  0  0  0  0  0  0  0  0  0
   38.6610   23.3810   35.7140 N   0  0  0  0  0  0  0  0  0  0  0  0
   38.1100   24.2480   36.7420 C   0  0  0  0  0  3  0  0  0  0  0  0
   37.2320   24.7950   36.3560 H   0  0  0  0  0  0  0  0  0  0  0  0
   37.7740   23.3630   37.9220 C   0  0  0  0  0  3  0  0  0  0  0  0
   37.0740   22.5560   37.6200 H   0  0  0  0  0  0  0  0  0  0  0  0
   38.9630   22.7760   38.4440 N   0  0  0  0  0  0  0  0  0  0  0  0
   38.8340   22.0250   39.1230 H   0  0  0  0  0  0  0  0  0  0  0  0
   40.0570   22.6330   37.5490 C   0  0  0  0  0  2  0  0  0  0  0  0
   39.6670   22.4140   36.1040 C   0  0  0  0  0  2  0  0  0  0  0  0
   37.9370   22.2660   33.6180 C   0  0  0  0  0  0  0  0  0  0  0  0
   36.6500   21.7290   33.8430 C   0  0  0  0  0  0  0  0  0  0  0  0
   36.2500   20.5530   33.1730 C   0  0  0  0  0  0  0  0  0  0  0  0
   37.1830   20.0100   32.3290 N   0  0  0  0  0  0  0  0  0  0  0  0
   38.3930   20.5380   32.1350 C   0  0  0  0  0  0  0  0  0  0  0  0
   38.7640   21.6590   32.7770 N   0  0  0  0  0  0  0  0  0  0  0  0
   35.9370   22.1990   34.5280 H   0  0  0  0  0  0  0  0  0  0  0  0
   35.2810   20.1260   33.3270 H   0  0  0  0  0  0  0  0  0  0  0  0
   39.0770   20.0480   31.4480 H   0  0  0  0  0  0  0  0  0  0  0  0
  1  3  1  0  0  0  0
  2  1  2  0  0  0  0
  3 11  1  0  0  0  0
  3  4  1  0  0  0  0
  4  6  1  0  0  0  0
  5  4  1  0  0  0  0
  6  8  1  0  0  0  0
  7  6  1  0  0  0  0
  8  9  1  0  0  0  0
 10  8  1  0  0  0  0
 11 10  1  0  0  0  0
 12 13  1  0  0  0  0
 12  1  1  0  0  0  0
 13 18  1  0  0  0  0
 14 19  1  0  0  0  0
 14 13  2  0  0  0  0
 15 14  1  0  0  0  0
 16 15  2  0  0  0  0
 16 17  1  0  0  0  0
 17 12  2  0  0  0  0
 20 16  1  0  0  0  0
M  END
>  <minimizedAffinity>
-3.9688077

$$$$

 OpenBabel03262522013D

 20 21  0  0  0  0  0  0  0  0999 V2000
   36.2370   28.5190   34.0520 C   0  0  0  0  0  0  0  0  0  0  0  0
   36.9420   27.9670   34.9270 O   0  0  0  0  0  0  0  0  0  0  0  0
   36.4850   28.1430   32.7030 N   0  0  0  0  0  0  0  0  0  0  0  0
   36.6550   26.7500   32.3250 C   0  0  0  0  0  3  0  0  0  0  0  0
   36.3760   26.0870   33.1620 H   0  0  0  0  0  0  0  0  0  0  0  0
   35.8050   26.5260   31.0940 C   0  0  0  0  0  3  0  0  0  0  0  0
   34.7460   26.7900   31.2960 H   0  0  0  0  0  0  0  0  0  0  0  0
   36.2880   27.3260   30.0190 N   0  0  0  0  0  0  0  0  0  0  0  0
   35.6830   27.3900   29.1990 H   0  0  0  0  0  0  0  0  0  0  0  0
   37.0040   28.5040   30.3630 C   0  0  0  0  0  2  0  0  0  0  0  0
   36.5760   29.1470   31.6630 C   0  0  0  0  0  2  0  0  0  0  0  0
   35.2080   29.4960   34.3460 C   0  0  0  0  0  0  0  0  0  0  0  0
   35.6600   30.6490   35.0240 C   0  0  0  0  0  0  0  0  0  0  0  0
   34.7460   31.6700   35.3640 C   0  0  0  0  0  0  0  0  0  0  0  0
   33.4470   31.4450   34.9920 N   0  0  0  0  0  0  0  0  0  0  0  0
   33.0470   30.3440   34.3510 C   0  0  0  0  0  0  0  0  0  0  0  0
   33.9250   29.3790   34.0320 N   0  0  0  0  0  0  0  0  0  0  0  0
   36.7100   30.7860   35.3010 H   0  0  0  0  0  0  0  0  0  0  0  0
   35.0630   32.5540   35.8780 H   0  0  0  0  0  0  0  0  0  0  0  0
   31.9980   30.2400   34.0900 H   0  0  0  0  0  0  0  0  0  0  0  0
  1 12  1  0  0  0  0
  1  2  2  0  0  0  0
  3  1  1  0  0  0  0
  4  3  1  0  0  0  0
  4  5  1  0  0  0  0
  6  7  1  0  0  0  0
  6  4  1  0  0  0  0
  8 10  1  0  0  0  0
  8  6  1  0  0  0  0
  9  8  1  0  0  0  0
 10 11  1  0  0  0  0
 11  3  1  0  0  0  0
 12 13  1  0  0  0  0
 13 18  1  0  0  0  0
 13 14  2  0  0  0  0
 14 19  1  0  0  0  0
 15 14  1  0  0  0  0
 16 15  2  0  0  0  0
 17 12  2  0  0  0  0
 17 16  1  0  0  0  0
 20 16  1  0  0  0  0
M  END
>  <minimizedAffinity>
-3.90382624

$$$$

 OpenBabel03262522013D

 20 21  0  0  0  0  0  0  0  0999 V2000
   38.1870   23.5400   34.5400 C   0  0  0  0  0  0  0  0  0  0  0  0
   37.9110   22.5140   33.8770 O   0  0  0  0  0  0  0  0  0  0  0  0
   38.2930   24.7590   33.8150 N   0  0  0  0  0  0  0  0  0  0  0  0
   37.3100   25.1280   32.8100 C   0  0  0  0  0  3  0  0  0  0  0  0
   36.4370   24.4530   32.8580 H   0  0  0  0  0  0  0  0  0  0  0  0
   36.9450   26.5730   33.0690 C   0  0  0  0  0  3  0  0  0  0  0  0
   36.5690   26.7020   34.1050 H   0  0  0  0  0  0  0  0  0  0  0  0
   38.0870   27.4040   32.8800 N   0  0  0  0  0  0  0  0  0  0  0  0
   38.0000   28.3680   33.2020 H   0  0  0  0  0  0  0  0  0  0  0  0
   39.3600   26.7970   33.0520 C   0  0  0  0  0  2  0  0  0  0  0  0
   39.3920   25.6690   34.0600 C   0  0  0  0  0  2  0  0  0  0  0  0
   38.3980   23.5390   35.9740 C   0  0  0  0  0  0  0  0  0  0  0  0
   39.5440   22.8360   36.4060 C   0  0  0  0  0  0  0  0  0  0  0  0
   39.8510   22.7670   37.7820 C   0  0  0  0  0  0  0  0  0  0  0  0
   38.9740   23.4140   38.6140 N   0  0  0  0  0  0  0  0  0  0  0  0
   37.8970   24.0710   38.1780 C   0  0  0  0  0  0  0  0  0  0  0  0
   37.6140   24.1310   36.8660 N   0  0  0  0  0  0  0  0  0  0  0  0
   40.2160   22.3340   35.7040 H   0  0  0  0  0  0  0  0  0  0  0  0
   40.7120   22.2400   38.1350 H   0  0  0  0  0  0  0  0  0  0  0  0
   37.2510   24.5590   38.9010 H   0  0  0  0  0  0  0  0  0  0  0  0
  1 12  1  0  0  0  0
  2  1  2  0  0  0  0
  3 11  1  0  0  0  0
  3  1  1  0  0  0  0
  4  5  1  0  0  0  0
  4  6  1  0  0  0  0
  4  3  1  0  0  0  0
  6  7  1  0  0  0  0
  8 10  1  0  0  0  0
  8  6  1  0  0  0  0
  8  9  1  0  0  0  0
 10 11  1  0  0  0  0
 12 13  2  0  0  0  0
 12 17  1  0  0  0  0
 13 14  1  0  0  0  0
 14 19  1  0  0  0  0
 14 15  2  0  0  0  0
 16 15  1  0  0  0  0
 16 20  1  0  0  0  0
 17 16  2  0  0  0  0
 18 13  1  0  0  0  0
M  END
>  <minimizedAffinity>
-3.8977561

$$$$

 OpenBabel03262522013D

 20 21  0  0  0  0  0  0  0  0999 V2000
   37.4460   27.3140   34.2030 C   0  0  0  0  0  0  0  0  0  0  0  0
   36.9410   28.1110   35.0260 O   0  0  0  0  0  0  0  0  0  0  0  0
   36.8380   27.2550   32.9180 N   0  0  0  0  0  0  0  0  0  0  0  0
   36.4680   28.4630   32.2010 C   0  0  0  0  0  3  0  0  0  0  0  0
   36.8950   29.3520   32.6970 H   0  0  0  0  0  0  0  0  0  0  0  0
   36.9620   28.2940   30.7810 C   0  0  0  0  0  3  0  0  0  0  0  0
   38.0550   28.1040   30.7660 H   0  0  0  0  0  0  0  0  0  0  0  0
   36.2900   27.2010   30.1610 N   0  0  0  0  0  0  0  0  0  0  0  0
   36.6720   26.8860   29.2680 H   0  0  0  0  0  0  0  0  0  0  0  0
   35.7790   26.1890   31.0170 C   0  0  0  0  0  2  0  0  0  0  0  0
   36.5700   25.9780   32.2890 C   0  0  0  0  0  2  0  0  0  0  0  0
   38.5900   26.4740   34.4940 C   0  0  0  0  0  0  0  0  0  0  0  0
   39.8400   27.0270   34.1380 C   0  0  0  0  0  0  0  0  0  0  0  0
   41.0250   26.2980   34.3750 C   0  0  0  0  0  0  0  0  0  0  0  0
   40.8550   25.0680   34.9540 N   0  0  0  0  0  0  0  0  0  0  0  0
   39.6600   24.5690   35.2800 C   0  0  0  0  0  0  0  0  0  0  0  0
   38.5380   25.2710   35.0510 N   0  0  0  0  0  0  0  0  0  0  0  0
   39.9270   28.0150   33.6780 H   0  0  0  0  0  0  0  0  0  0  0  0
   41.9850   26.6940   34.1140 H   0  0  0  0  0  0  0  0  0  0  0  0
   39.6080   23.5850   35.7360 H   0  0  0  0  0  0  0  0  0  0  0  0
  1 12  1  0  0  0  0
  1  2  2  0  0  0  0
  3  1  1  0  0  0  0
  4  5  1  0  0  0  0
  4  3  1  0  0  0  0
  6  4  1  0  0  0  0
  7  6  1  0  0  0  0
  8  6  1  0  0  0  0
  8 10  1  0  0  0  0
  9  8  1  0  0  0  0
 10 11  1  0  0  0  0
 11  3  1  0  0  0  0
 12 17  1  0  0  0  0
 13 14  1  0  0  0  0
 13 12  2  0  0  0  0
 14 15  2  0  0  0  0
 15 16  1  0  0  0  0
 16 20  1  0  0  0  0
 17 16  2  0  0  0  0
 18 13  1  0  0  0  0
 19 14  1  0  0  0  0
M  END
>  <minimizedAffinity>
-3.81228518

$$$$

 OpenBabel03262522013D

 20 21  0  0  0  0  0  0  0  0999 V2000
   38.6850   24.0090   34.5290 C   0  0  0  0  0  0  0  0  0  0  0  0
   38.6650   25.2170   34.2010 O   0  0  0  0  0  0  0  0  0  0  0  0
   38.9730   23.7220   35.8910 N   0  0  0  0  0  0  0  0  0  0  0  0
   38.3440   24.4660   36.9700 C   0  0  0  0  0  3  0  0  0  0  0  0
   37.5240   25.0930   36.5790 H   0  0  0  0  0  0  0  0  0  0  0  0
   37.8680   23.4470   37.9820 C   0  0  0  0  0  3  0  0  0  0  0  0
   37.1810   22.7150   37.5070 H   0  0  0  0  0  0  0  0  0  0  0  0
   38.9830   22.7510   38.5310 N   0  0  0  0  0  0  0  0  0  0  0  0
   38.7680   21.9220   39.0870 H   0  0  0  0  0  0  0  0  0  0  0  0
   40.1570   22.6840   37.7340 C   0  0  0  0  0  2  0  0  0  0  0  0
   39.9080   22.6730   36.2420 C   0  0  0  0  0  2  0  0  0  0  0  0
   38.4330   22.9210   33.6050 C   0  0  0  0  0  0  0  0  0  0  0  0
   39.3800   22.7930   32.5650 C   0  0  0  0  0  0  0  0  0  0  0  0
   39.2370   21.7680   31.6050 C   0  0  0  0  0  0  0  0  0  0  0  0
   38.1480   20.9530   31.7700 N   0  0  0  0  0  0  0  0  0  0  0  0
   37.2680   21.0970   32.7630 C   0  0  0  0  0  0  0  0  0  0  0  0
   37.4130   22.0760   33.6730 N   0  0  0  0  0  0  0  0  0  0  0  0
   40.2350   23.4690   32.4730 H   0  0  0  0  0  0  0  0  0  0  0  0
   39.9410   21.6510   30.8070 H   0  0  0  0  0  0  0  0  0  0  0  0
   36.4300   20.4090   32.8270 H   0  0  0  0  0  0  0  0  0  0  0  0
  1  3  1  0  0  0  0
  2  1  2  0  0  0  0
  3 11  1  0  0  0  0
  3  4  1  0  0  0  0
  4  6  1  0  0  0  0
  5  4  1  0  0  0  0
  6  8  1  0  0  0  0
  7  6  1  0  0  0  0
  8  9  1  0  0  0  0
 10  8  1  0  0  0  0
 11 10  1  0  0  0  0
 12 17  1  0  0  0  0
 12  1  1  0  0  0  0
 13 12  2  0  0  0  0
 14 15  2  0  0  0  0
 14 13  1  0  0  0  0
 15 16  1  0  0  0  0
 16 20  1  0  0  0  0
 16 17  2  0  0  0  0
 18 13  1  0  0  0  0
 19 14  1  0  0  0  0
M  END
>  <minimizedAffinity>
-3.77779484

$$$$

 OpenBabel03262522013D

 20 21  0  0  0  0  0  0  0  0999 V2000
   40.2990   23.9760   34.3610 C   0  0  0  0  0  0  0  0  0  0  0  0
   39.9170   23.3280   33.3600 O   0  0  0  0  0  0  0  0  0  0  0  0
   41.2640   24.9960   34.1300 N   0  0  0  0  0  0  0  0  0  0  0  0
   41.1300   25.9250   33.0210 C   0  0  0  0  0  3  0  0  0  0  0  0
   40.1310   25.8340   32.5600 H   0  0  0  0  0  0  0  0  0  0  0  0
   41.3930   27.3070   33.5770 C   0  0  0  0  0  3  0  0  0  0  0  0
   40.6970   27.5320   34.4120 H   0  0  0  0  0  0  0  0  0  0  0  0
   42.7330   27.3920   34.0520 N   0  0  0  0  0  0  0  0  0  0  0  0
   42.9620   28.2170   34.6080 H   0  0  0  0  0  0  0  0  0  0  0  0
   43.3560   26.1770   34.4450 C   0  0  0  0  0  2  0  0  0  0  0  0
   42.4130   25.1340   35.0010 C   0  0  0  0  0  2  0  0  0  0  0  0
   39.8150   23.7390   35.7060 C   0  0  0  0  0  0  0  0  0  0  0  0
   38.6730   24.4870   36.0670 C   0  0  0  0  0  0  0  0  0  0  0  0
   38.1120   24.3380   37.3540 C   0  0  0  0  0  0  0  0  0  0  0  0
   38.7490   23.4450   38.1750 N   0  0  0  0  0  0  0  0  0  0  0  0
   39.8280   22.7500   37.8070 C   0  0  0  0  0  0  0  0  0  0  0  0
   40.3540   22.8980   36.5790 N   0  0  0  0  0  0  0  0  0  0  0  0
   38.1970   25.1900   35.3770 H   0  0  0  0  0  0  0  0  0  0  0  0
   37.2480   24.8940   37.6530 H   0  0  0  0  0  0  0  0  0  0  0  0
   40.2750   22.0600   38.5150 H   0  0  0  0  0  0  0  0  0  0  0  0
  1 12  1  0  0  0  0
  2  1  2  0  0  0  0
  3  1  1  0  0  0  0
  3 11  1  0  0  0  0
  4  6  1  0  0  0  0
  4  3  1  0  0  0  0
  5  4  1  0  0  0  0
  6  8  1  0  0  0  0
  6  7  1  0  0  0  0
  8 10  1  0  0  0  0
  8  9  1  0  0  0  0
 10 11  1  0  0  0  0
 12 13  2  0  0  0  0
 12 17  1  0  0  0  0
 13 14  1  0  0  0  0
 14 19  1  0  0  0  0
 14 15  2  0  0  0  0
 16 15  1  0  0  0  0
 16 20  1  0  0  0  0
 17 16  2  0  0  0  0
 18 13  1  0  0  0  0
M  END
>  <minimizedAffinity>
-3.73029304

$$$$

 OpenBabel03262522013D

 20 21  0  0  0  0  0  0  0  0999 V2000
   38.8680   22.5950   35.8350 C   0  0  0  0  0  0  0  0  0  0  0  0
   39.8220   21.9950   36.3800 O   0  0  0  0  0  0  0  0  0  0  0  0
   38.9860   24.0070   35.7150 N   0  0  0  0  0  0  0  0  0  0  0  0
   40.2200   24.6260   35.2610 C   0  0  0  0  0  3  0  0  0  0  0  0
   40.9120   23.8620   34.8650 H   0  0  0  0  0  0  0  0  0  0  0  0
   39.8330   25.6570   34.2240 C   0  0  0  0  0  3  0  0  0  0  0  0
   39.2600   25.1860   33.3980 H   0  0  0  0  0  0  0  0  0  0  0  0
   39.0360   26.6740   34.8240 N   0  0  0  0  0  0  0  0  0  0  0  0
   38.5730   27.3190   34.1830 H   0  0  0  0  0  0  0  0  0  0  0  0
   38.3090   26.3180   35.9910 C   0  0  0  0  0  2  0  0  0  0  0  0
   37.8720   24.8710   36.0460 C   0  0  0  0  0  2  0  0  0  0  0  0
   37.6810   21.9300   35.3340 C   0  0  0  0  0  0  0  0  0  0  0  0
   37.6270   21.7870   33.9300 C   0  0  0  0  0  0  0  0  0  0  0  0
   36.5180   21.1540   33.3280 C   0  0  0  0  0  0  0  0  0  0  0  0
   35.5500   20.7160   34.1930 N   0  0  0  0  0  0  0  0  0  0  0  0
   35.6260   20.8640   35.5170 C   0  0  0  0  0  0  0  0  0  0  0  0
   36.6870   21.4670   36.0800 N   0  0  0  0  0  0  0  0  0  0  0  0
   38.4260   22.1540   33.2780 H   0  0  0  0  0  0  0  0  0  0  0  0
   36.4530   21.0350   32.2670 H   0  0  0  0  0  0  0  0  0  0  0  0
   34.8170   20.4880   36.1360 H   0  0  0  0  0  0  0  0  0  0  0  0
  1  2  2  0  0  0  0
  3  1  1  0  0  0  0
  3 11  1  0  0  0  0
  4  3  1  0  0  0  0
  5  4  1  0  0  0  0
  6  8  1  0  0  0  0
  6  4  1  0  0  0  0
  7  6  1  0  0  0  0
  8 10  1  0  0  0  0
  9  8  1  0  0  0  0
 10 11  1  0  0  0  0
 12  1  1  0  0  0  0
 12 17  1  0  0  0  0
 13 12  2  0  0  0  0
 14 13  1  0  0  0  0
 14 15  2  0  0  0  0
 15 16  1  0  0  0  0
 16 17  2  0  0  0  0
 16 20  1  0  0  0  0
 18 13  1  0  0  0  0
 19 14  1  0  0  0  0
M  END
>  <minimizedAffinity>
-3.7257719

$$$$
