
 OpenBabel03272508583D

 40 43  0  0  1  0  0  0  0  0999 V2000
   38.3610   31.7910   44.5330 C   0  0  0  0  0  0  0  0  0  0  0  0
   37.3490   32.4900   44.4170 O   0  0  0  0  0  0  0  0  0  0  0  0
   38.8290   31.3710   45.8470 N   0  0  0  0  0  0  0  0  0  0  0  0
   39.7600   30.9650   46.0280 H   0  0  0  0  0  0  0  0  0  0  0  0
   39.1530   31.3420   43.3690 C   0  0  0  0  0  0  0  0  0  0  0  0
   40.2700   30.5780   43.5670 C   0  0  0  0  0  0  0  0  0  0  0  0
   40.9870   30.1780   42.4580 C   0  0  0  0  0  0  0  0  0  0  0  0
   40.5310   30.5770   41.2140 C   0  0  0  0  0  0  0  0  0  0  0  0
   39.3970   31.3530   41.0020 C   0  0  0  0  0  0  0  0  0  0  0  0
   38.7490   31.7050   42.1220 N   0  0  0  0  0  0  0  0  0  0  0  0
   40.6100   30.2770   44.5430 H   0  0  0  0  0  0  0  0  0  0  0  0
   41.8720   29.5750   42.5800 H   0  0  0  0  0  0  0  0  0  0  0  0
   41.1380   30.2310   40.3910 H   0  0  0  0  0  0  0  0  0  0  0  0
   38.9760   31.7310   39.6660 C   0  0  0  0  0  0  0  0  0  0  0  0
   39.5590   32.6800   39.0980 O   0  0  0  0  0  0  0  0  0  0  0  0
   37.9400   31.1260   38.9090 N   0  0  0  0  0  0  0  0  0  0  0  0
   37.4440   29.8350   39.3420 C   0  0  0  0  0  3  0  0  0  0  0  0
   37.8160   29.5860   40.3360 H   0  0  0  0  0  0  0  0  0  0  0  0
   37.9340   28.8150   38.3390 C   0  0  0  0  0  3  0  0  0  0  0  0
   37.2390   27.9410   38.3450 H   0  0  0  0  0  0  0  0  0  0  0  0
   37.9580   29.3890   37.0100 N   0  0  0  0  0  0  0  0  0  0  0  0
   37.7650   28.6680   36.2860 H   0  0  0  0  0  0  0  0  0  0  0  0
   36.8950   30.3990   36.9080 C   0  0  0  0  0  2  0  0  0  0  0  0
   37.2890   31.6400   37.7200 C   0  0  0  0  0  2  0  0  0  0  0  0
   38.2070   30.8990   48.2080 C   0  0  2  0  0  0  0  0  0  0  0  0
   38.5360   32.3470   48.1290 C   0  0  0  0  0  0  0  0  0  0  0  0
   37.9300   31.5370   46.9630 C   0  0  1  0  0  0  0  0  0  0  0  0
   39.0810   30.2290   48.3340 H   0  0  0  0  0  0  0  0  0  0  0  0
   37.8950   33.0500   48.6770 H   0  0  0  0  0  0  0  0  0  0  0  0
   39.5870   32.6270   48.0570 H   0  0  0  0  0  0  0  0  0  0  0  0
   36.8910   31.8600   46.7370 H   0  0  0  0  0  0  0  0  0  0  0  0
   34.7470   30.1110   49.3270 C   0  0  0  0  0  0  0  0  0  0  0  0
   34.9900   29.5510   50.6260 C   0  0  0  0  0  0  0  0  0  0  0  0
   36.3610   29.4650   51.0970 C   0  0  0  0  0  0  0  0  0  0  0  0
   37.3720   29.9190   50.2900 N   0  0  0  0  0  0  0  0  0  0  0  0
   37.0550   30.4390   49.0680 C   0  0  0  0  0  0  0  0  0  0  0  0
   35.7660   30.5490   48.5590 N   0  0  0  0  0  0  0  0  0  0  0  0
   33.7210   30.1480   49.0360 H   0  0  0  0  0  0  0  0  0  0  0  0
   34.1960   29.1970   51.2510 H   0  0  0  0  0  0  0  0  0  0  0  0
   36.5280   29.0490   52.0590 H   0  0  0  0  0  0  0  0  0  0  0  0
  1  3  1  0  0  0  0
  2  1  2  0  0  0  0
  3  4  1  0  0  0  0
  3 27  1  0  0  0  0
  5  6  1  0  0  0  0
  5  1  1  0  0  0  0
  6 11  1  0  0  0  0
  7 12  1  0  0  0  0
  7  6  2  0  0  0  0
  8  7  1  0  0  0  0
  9  8  2  0  0  0  0
  9 10  1  0  0  0  0
 10  5  2  0  0  0  0
 13  8  1  0  0  0  0
 14  9  1  0  0  0  0
 15 14  2  0  0  0  0
 16 17  1  0  0  0  0
 16 14  1  0  0  0  0
 17 18  1  0  0  0  0
 19 20  1  0  0  0  0
 19 17  1  0  0  0  0
 21 19  1  0  0  0  0
 22 21  1  0  0  0  0
 23 21  1  0  0  0  0
 23 24  1  0  0  0  0
 24 16  1  0  0  0  0
 25 28  1  6  0  0  0
 25 36  1  0  0  0  0
 26 25  1  0  0  0  0
 26 29  1  0  0  0  0
 27 31  1  6  0  0  0
 27 26  1  0  0  0  0
 27 25  1  0  0  0  0
 30 26  1  0  0  0  0
 32 33  1  0  0  0  0
 33 34  2  0  0  0  0
 33 39  1  0  0  0  0
 34 40  1  0  0  0  0
 35 34  1  0  0  0  0
 36 35  2  0  0  0  0
 37 36  1  0  0  0  0
 37 32  2  0  0  0  0
 38 32  1  0  0  0  0
M  END
>  <minimizedAffinity>
-4.98442268

>  <minimizedRMSD>
1.49299192

$$$$
