
 OpenBabel03272503393D

 29 31  0  0  1  0  0  0  0  0999 V2000
   36.7410   30.5340   45.8210 C   0  0  0  0  0  0  0  0  0  0  0  0
   36.2000   30.7920   44.5920 C   0  0  0  0  0  0  0  0  0  0  0  0
   37.2930   30.9960   43.7660 C   0  0  0  0  0  0  0  0  0  0  0  0
   38.4230   30.8650   44.4730 N   0  0  0  0  0  0  0  0  0  0  0  0
   38.0840   30.5840   45.7260 N   0  0  0  0  0  0  0  0  0  0  0  0
   35.1860   30.8400   44.2740 H   0  0  0  0  0  0  0  0  0  0  0  0
   37.3390   31.2300   42.7090 H   0  0  0  0  0  0  0  0  0  0  0  0
   40.7140   31.7390   42.3620 H   0  0  0  0  0  0  0  0  0  0  0  0
   39.9210   32.0080   42.9870 N   0  0  0  0  0  0  0  0  0  0  0  0
   39.8020   30.9950   44.0160 C   0  0  1  0  0  3  0  0  0  0  0  0
   40.7190   31.3730   45.1580 C   0  0  0  0  0  3  0  0  0  0  0  0
   40.9450   30.5420   45.8300 H   0  0  0  0  0  0  0  0  0  0  0  0
   40.0790   32.4720   45.8470 N   0  0  0  0  0  0  0  0  0  0  0  0
   39.2830   32.1900   46.4390 H   0  0  0  0  0  0  0  0  0  0  0  0
   39.7600   33.5290   44.9340 C   0  0  0  0  0  2  0  0  0  0  0  0
   40.2230   33.3100   43.5240 C   0  0  0  0  0  2  0  0  0  0  0  0
   35.7060   30.3040   49.4180 C   0  0  0  0  0  0  0  0  0  0  0  0
   36.4700   30.6030   48.2860 C   0  0  0  0  0  0  0  0  0  0  0  0
   35.9970   30.2520   47.0360 C   0  0  0  0  0  0  0  0  0  0  0  0
   34.7990   29.6260   46.9640 N   0  0  0  0  0  0  0  0  0  0  0  0
   34.0750   29.3460   48.0830 C   0  0  0  0  0  0  0  0  0  0  0  0
   34.5130   29.6760   49.2900 N   0  0  0  0  0  0  0  0  0  0  0  0
   37.4190   31.0960   48.3090 H   0  0  0  0  0  0  0  0  0  0  0  0
   33.1370   28.8490   47.9480 H   0  0  0  0  0  0  0  0  0  0  0  0
   36.3090   30.7160   50.5960 O   0  0  0  0  0  0  0  0  0  0  0  0
   37.4710   30.1360   51.1270 C   0  0  0  0  0  0  0  0  0  0  0  0
   37.6980   28.8720   50.6310 F   0  0  0  0  0  0  0  0  0  0  0  0
   37.3650   30.1060   52.4970 F   0  0  0  0  0  0  0  0  0  0  0  0
   38.5460   30.9450   50.8030 F   0  0  0  0  0  0  0  0  0  0  0  0
  1 19  1  0  0  0  0
  2  1  1  0  0  0  0
  3  4  1  0  0  0  0
  3  2  2  0  0  0  0
  4  5  1  0  0  0  0
  5  1  2  0  0  0  0
  6  2  1  0  0  0  0
  7  3  1  0  0  0  0
  8  9  1  0  0  0  0
  9 16  1  0  0  0  0
  9 10  1  0  0  0  0
 10  4  1  1  0  0  0
 10 11  1  0  0  0  0
 11 12  1  0  0  0  0
 11 13  1  0  0  0  0
 13 14  1  0  0  0  0
 15 13  1  0  0  0  0
 16 15  1  0  0  0  0
 17 25  1  0  0  0  0
 18 23  1  0  0  0  0
 18 17  2  0  0  0  0
 19 18  1  0  0  0  0
 20 19  2  0  0  0  0
 20 21  1  0  0  0  0
 21 22  2  0  0  0  0
 22 17  1  0  0  0  0
 24 21  1  0  0  0  0
 25 26  1  0  0  0  0
 26 28  1  0  0  0  0
 27 26  1  0  0  0  0
 29 26  1  0  0  0  0
M  END
>  <minimizedAffinity>
-5.64559746

>  <minimizedRMSD>
2.51452613

$$$$
