
 OpenBabel03272510263D

 45 49  0  0  1  0  0  0  0  0999 V2000
   39.4400   33.6120   43.2760 O   0  0  0  0  0  0  0  0  0  0  0  0
   36.2410   30.2030   46.8780 C   0  0  0  0  0  0  0  0  0  0  0  0
   37.0860   30.7640   47.8310 C   0  0  0  0  0  0  0  0  0  0  0  0
   38.0740   31.6810   47.4670 C   0  0  0  0  0  0  0  0  0  0  0  0
   38.1520   31.9880   46.1150 C   0  0  0  0  0  0  0  0  0  0  0  0
   39.0320   32.8560   45.5160 N   0  0  0  0  0  0  0  0  0  0  0  0
   38.7430   32.8410   44.2070 C   0  0  0  0  0  0  0  0  0  0  0  0
   37.7410   32.0140   43.9810 N   0  0  0  0  0  0  0  0  0  0  0  0
   37.3410   31.4610   45.1390 C   0  0  0  0  0  0  0  0  0  0  0  0
   36.3610   30.5440   45.5350 C   0  0  0  0  0  0  0  0  0  0  0  0
   35.4660   29.4850   47.1560 H   0  0  0  0  0  0  0  0  0  0  0  0
   38.7310   32.1190   48.1960 H   0  0  0  0  0  0  0  0  0  0  0  0
   39.7830   33.4170   46.0140 H   0  0  0  0  0  0  0  0  0  0  0  0
   35.7240   30.1320   44.7650 H   0  0  0  0  0  0  0  0  0  0  0  0
   37.4850   30.1440   51.5120 C   0  0  0  0  0  0  0  0  0  0  0  0
   37.8080   30.5950   50.2340 C   0  0  0  0  0  0  0  0  0  0  0  0
   36.9060   30.3630   49.2100 C   0  0  0  0  0  0  0  0  0  0  0  0
   35.7500   29.7000   49.5300 N   0  0  0  0  0  0  0  0  0  0  0  0
   35.4580   29.2730   50.7710 C   0  0  0  0  0  0  0  0  0  0  0  0
   36.3230   29.4970   51.7440 N   0  0  0  0  0  0  0  0  0  0  0  0
   38.2490   30.3640   52.2730 H   0  0  0  0  0  0  0  0  0  0  0  0
   38.7150   31.1130   49.9900 H   0  0  0  0  0  0  0  0  0  0  0  0
   34.5370   28.7560   50.9760 H   0  0  0  0  0  0  0  0  0  0  0  0
   39.6410   31.8220   41.8350 N   0  0  0  0  0  0  0  0  0  0  0  0
   39.2860   33.2310   41.9160 C   0  0  1  0  0  0  0  0  0  0  0  0
   37.9150   33.4350   41.4760 C   0  0  0  0  0  0  0  0  0  0  0  0
   37.8190   33.0640   40.1230 O   0  0  0  0  0  0  0  0  0  0  0  0
   38.2390   31.8000   39.8290 C   0  0  0  0  0  0  0  0  0  0  0  0
   39.6060   31.5220   40.4260 C   0  0  2  0  0  0  0  0  0  0  0  0
   39.0270   31.1550   42.2710 H   0  0  0  0  0  0  0  0  0  0  0  0
   39.9940   33.7650   41.2630 H   0  0  0  0  0  0  0  0  0  0  0  0
   37.0550   33.0120   41.9150 H   0  0  0  0  0  0  0  0  0  0  0  0
   37.7400   34.5540   41.4430 H   0  0  0  0  0  0  0  0  0  0  0  0
   38.3850   31.7610   38.7310 H   0  0  0  0  0  0  0  0  0  0  0  0
   37.4560   31.1000   40.2030 H   0  0  0  0  0  0  0  0  0  0  0  0
   40.2800   32.2930   39.9500 H   0  0  0  0  0  0  0  0  0  0  0  0
   40.1400   30.2520   40.0830 N   0  0  1  0  0  0  0  0  0  0  0  0
   39.9830   29.9230   38.6760 C   0  0  0  0  0  3  0  0  0  0  0  0
   40.1510   30.7550   37.9930 H   0  0  0  0  0  0  0  0  0  0  0  0
   40.9350   28.8050   38.3350 C   0  0  0  0  0  3  0  0  0  0  0  0
   41.9310   29.1520   38.0120 H   0  0  0  0  0  0  0  0  0  0  0  0
   41.0760   27.8510   39.4160 N   0  0  0  0  0  0  0  0  0  0  0  0
   40.1270   27.4060   39.5480 H   0  0  0  0  0  0  0  0  0  0  0  0
   41.6040   28.4630   40.5990 C   0  0  0  0  0  2  0  0  0  0  0  0
   41.4850   29.9880   40.4660 C   0  0  0  0  0  2  0  0  0  0  0  0
  1  7  1  0  0  0  0
  2 11  1  0  0  0  0
  2  3  1  0  0  0  0
  3 17  1  0  0  0  0
  4  3  2  0  0  0  0
  4 12  1  0  0  0  0
  5  4  1  0  0  0  0
  6 13  1  0  0  0  0
  6  5  1  0  0  0  0
  7  6  1  0  0  0  0
  8  7  2  0  0  0  0
  8  9  1  0  0  0  0
  9 10  1  0  0  0  0
  9  5  2  0  0  0  0
 10  2  2  0  0  0  0
 14 10  1  0  0  0  0
 15 20  1  0  0  0  0
 15 21  1  0  0  0  0
 16 15  2  0  0  0  0
 17 18  2  0  0  0  0
 17 16  1  0  0  0  0
 18 19  1  0  0  0  0
 19 23  1  0  0  0  0
 19 20  2  0  0  0  0
 22 16  1  0  0  0  0
 24 25  1  0  0  0  0
 24 30  1  0  0  0  0
 25 31  1  6  0  0  0
 25  1  1  0  0  0  0
 26 32  1  0  0  0  0
 26 25  1  0  0  0  0
 27 26  1  0  0  0  0
 28 27  1  0  0  0  0
 28 35  1  0  0  0  0
 28 29  1  0  0  0  0
 29 36  1  6  0  0  0
 29 24  1  0  0  0  0
 33 26  1  0  0  0  0
 34 28  1  0  0  0  0
 37 29  1  0  0  0  0
 37 45  1  6  0  0  0
 38 37  1  0  0  0  0
 39 38  1  0  0  0  0
 40 38  1  0  0  0  0
 40 42  1  0  0  0  0
 41 40  1  0  0  0  0
 42 43  1  0  0  0  0
 42 44  1  0  0  0  0
 45 44  1  0  0  0  0
M  END
>  <minimizedAffinity>
-6.02343369

>  <minimizedRMSD>
0.164361492

$$$$
