
 OpenBabel03272510253D

 45 49  0  0  1  0  0  0  0  0999 V2000
   39.4690   33.5960   43.3170 O   0  0  0  0  0  0  0  0  0  0  0  0
   36.2440   30.1930   46.9010 C   0  0  0  0  0  0  0  0  0  0  0  0
   37.0820   30.7550   47.8590 C   0  0  0  0  0  0  0  0  0  0  0  0
   38.0720   31.6730   47.5010 C   0  0  0  0  0  0  0  0  0  0  0  0
   38.1610   31.9770   46.1500 C   0  0  0  0  0  0  0  0  0  0  0  0
   39.0450   32.8440   45.5560 N   0  0  0  0  0  0  0  0  0  0  0  0
   38.7650   32.8260   44.2440 C   0  0  0  0  0  0  0  0  0  0  0  0
   37.7660   31.9990   44.0120 N   0  0  0  0  0  0  0  0  0  0  0  0
   37.3570   31.4480   45.1680 C   0  0  0  0  0  0  0  0  0  0  0  0
   36.3740   30.5310   45.5580 C   0  0  0  0  0  0  0  0  0  0  0  0
   35.4670   29.4740   47.1740 H   0  0  0  0  0  0  0  0  0  0  0  0
   38.7240   32.1120   48.2350 H   0  0  0  0  0  0  0  0  0  0  0  0
   39.7910   33.4060   46.0580 H   0  0  0  0  0  0  0  0  0  0  0  0
   35.7430   30.1170   44.7840 H   0  0  0  0  0  0  0  0  0  0  0  0
   37.4510   30.1450   51.5450 C   0  0  0  0  0  0  0  0  0  0  0  0
   37.7840   30.5940   50.2680 C   0  0  0  0  0  0  0  0  0  0  0  0
   36.8910   30.3570   49.2380 C   0  0  0  0  0  0  0  0  0  0  0  0
   35.7350   29.6910   49.5490 N   0  0  0  0  0  0  0  0  0  0  0  0
   35.4340   29.2660   50.7880 C   0  0  0  0  0  0  0  0  0  0  0  0
   36.2890   29.4950   51.7680 N   0  0  0  0  0  0  0  0  0  0  0  0
   38.2080   30.3690   52.3120 H   0  0  0  0  0  0  0  0  0  0  0  0
   38.6910   31.1150   50.0310 H   0  0  0  0  0  0  0  0  0  0  0  0
   34.5120   28.7460   50.9870 H   0  0  0  0  0  0  0  0  0  0  0  0
   39.6730   31.8270   41.8520 N   0  0  0  0  0  0  0  0  0  0  0  0
   39.3030   33.2310   41.9540 C   0  0  1  0  0  0  0  0  0  0  0  0
   37.9250   33.4250   41.5340 C   0  0  0  0  0  0  0  0  0  0  0  0
   37.8160   33.0690   40.1780 O   0  0  0  0  0  0  0  0  0  0  0  0
   38.2470   31.8140   39.8620 C   0  0  0  0  0  0  0  0  0  0  0  0
   39.6250   31.5440   40.4390 C   0  0  2  0  0  0  0  0  0  0  0  0
   39.0730   31.1470   42.2860 H   0  0  0  0  0  0  0  0  0  0  0  0
   39.9960   33.7810   41.3000 H   0  0  0  0  0  0  0  0  0  0  0  0
   37.0750   32.9850   41.9780 H   0  0  0  0  0  0  0  0  0  0  0  0
   37.7360   34.5410   41.5180 H   0  0  0  0  0  0  0  0  0  0  0  0
   38.3800   31.7910   38.7620 H   0  0  0  0  0  0  0  0  0  0  0  0
   37.4770   31.1010   40.2370 H   0  0  0  0  0  0  0  0  0  0  0  0
   40.2840   32.3300   39.9650 H   0  0  0  0  0  0  0  0  0  0  0  0
   40.1690   30.2860   40.0730 N   0  0  1  0  0  0  0  0  0  0  0  0
   39.7180   29.8200   38.7720 C   0  0  0  0  0  3  0  0  0  0  0  0
   39.6530   30.5950   38.0100 H   0  0  0  0  0  0  0  0  0  0  0  0
   40.6560   28.7380   38.2980 C   0  0  0  0  0  3  0  0  0  0  0  0
   41.5160   29.1180   37.7210 H   0  0  0  0  0  0  0  0  0  0  0  0
   41.1230   27.8990   39.3810 N   0  0  0  0  0  0  0  0  0  0  0  0
   40.2710   27.4080   39.7690 H   0  0  0  0  0  0  0  0  0  0  0  0
   41.8590   28.6490   40.3560 C   0  0  0  0  0  2  0  0  0  0  0  0
   41.5830   30.1440   40.1430 C   0  0  0  0  0  2  0  0  0  0  0  0
  1  7  1  0  0  0  0
  2 11  1  0  0  0  0
  2  3  1  0  0  0  0
  3 17  1  0  0  0  0
  4  3  2  0  0  0  0
  4 12  1  0  0  0  0
  5  4  1  0  0  0  0
  6 13  1  0  0  0  0
  6  5  1  0  0  0  0
  7  6  1  0  0  0  0
  8  7  2  0  0  0  0
  8  9  1  0  0  0  0
  9 10  1  0  0  0  0
  9  5  2  0  0  0  0
 10  2  2  0  0  0  0
 14 10  1  0  0  0  0
 15 20  1  0  0  0  0
 15 21  1  0  0  0  0
 16 15  2  0  0  0  0
 17 18  2  0  0  0  0
 17 16  1  0  0  0  0
 18 19  1  0  0  0  0
 19 23  1  0  0  0  0
 19 20  2  0  0  0  0
 22 16  1  0  0  0  0
 24 25  1  0  0  0  0
 24 30  1  0  0  0  0
 25 31  1  6  0  0  0
 25  1  1  0  0  0  0
 26 25  1  0  0  0  0
 26 32  1  0  0  0  0
 27 26  1  0  0  0  0
 28 27  1  0  0  0  0
 28 35  1  0  0  0  0
 28 29  1  0  0  0  0
 29 36  1  6  0  0  0
 29 24  1  0  0  0  0
 33 26  1  0  0  0  0
 34 28  1  0  0  0  0
 37 45  1  6  0  0  0
 37 29  1  0  0  0  0
 38 37  1  0  0  0  0
 39 38  1  0  0  0  0
 40 38  1  0  0  0  0
 40 42  1  0  0  0  0
 41 40  1  0  0  0  0
 42 43  1  0  0  0  0
 42 44  1  0  0  0  0
 45 44  1  0  0  0  0
M  END
>  <minimizedAffinity>
-6.02377748

>  <minimizedRMSD>
0.23748973

$$$$
