
 OpenBabel03272507533D

 32 34  0  0  1  0  0  0  0  0999 V2000
   38.5090   22.4220   32.7540 N   0  0  0  0  0  0  0  0  0  0  0  0
   39.3470   23.3270   32.2650 C   0  0  0  0  0  0  0  0  0  0  0  0
   39.9560   24.2410   33.1280 C   0  0  0  0  0  0  0  0  0  0  0  0
   39.6150   24.1090   34.4390 C   0  0  0  0  0  0  0  0  0  0  0  0
   40.1820   24.9510   35.2020 O   0  0  0  0  0  0  0  0  0  0  0  0
   38.7780   23.2130   34.9750 N   0  0  0  0  0  0  0  0  0  0  0  0
   38.2190   22.3570   34.0920 C   0  0  0  0  0  0  0  0  0  0  0  0
   37.4210   21.4980   34.5770 O   0  0  0  0  0  0  0  0  0  0  0  0
   39.5610   23.3580   31.1990 H   0  0  0  0  0  0  0  0  0  0  0  0
   40.6290   24.9700   32.7450 H   0  0  0  0  0  0  0  0  0  0  0  0
   37.0060   24.5230   36.4110 H   0  0  0  0  0  0  0  0  0  0  0  0
   37.9630   24.4220   36.8260 N   0  0  0  0  0  0  0  0  0  0  0  0
   38.4680   23.1390   36.3900 C   0  0  2  0  0  3  0  0  0  0  0  0
   39.6710   22.6910   37.1670 C   0  0  0  0  0  3  0  0  0  0  0  0
   39.9310   21.6730   36.8180 H   0  0  0  0  0  0  0  0  0  0  0  0
   39.2790   22.5700   38.5590 N   0  0  0  0  0  0  0  0  0  0  0  0
   38.4610   21.9470   38.6740 H   0  0  0  0  0  0  0  0  0  0  0  0
   38.9210   23.8790   39.0250 C   0  0  0  0  0  2  0  0  0  0  0  0
   37.8160   24.5360   38.2350 C   0  0  0  0  0  2  0  0  0  0  0  0
   36.4980   21.7080   31.5900 C   0  0  0  0  0  0  0  0  0  0  0  0
   37.8420   21.4520   31.9320 C   0  0  0  0  0  0  0  0  0  0  0  0
   38.4480   20.2840   31.4590 C   0  0  0  0  0  0  0  0  0  0  0  0
   37.7110   19.4520   30.6940 N   0  0  0  0  0  0  0  0  0  0  0  0
   36.4490   19.6900   30.3730 C   0  0  0  0  0  0  0  0  0  0  0  0
   35.8500   20.8090   30.8180 N   0  0  0  0  0  0  0  0  0  0  0  0
   39.4810   20.1110   31.7360 H   0  0  0  0  0  0  0  0  0  0  0  0
   35.8330   19.0460   29.7640 H   0  0  0  0  0  0  0  0  0  0  0  0
   35.8330   24.2290   31.5610 C   0  0  0  0  0  0  0  0  0  0  0  0
   36.5250   24.5890   30.5870 O   0  0  0  0  0  0  0  0  0  0  0  0
   35.7960   22.8610   32.0010 N   0  0  0  0  0  0  0  0  0  0  0  0
   35.2710   25.0130   32.0400 H   0  0  0  0  0  0  0  0  0  0  0  0
   35.0880   22.7540   32.7860 H   0  0  0  0  0  0  0  0  0  0  0  0
  1  7  1  0  0  0  0
  2  1  1  0  0  0  0
  2  3  2  0  0  0  0
  3  4  1  0  0  0  0
  4  6  1  0  0  0  0
  4  5  2  0  0  0  0
  7  8  2  0  0  0  0
  7  6  1  0  0  0  0
  9  2  1  0  0  0  0
 10  3  1  0  0  0  0
 11 12  1  0  0  0  0
 12 19  1  0  0  0  0
 13  6  1  6  0  0  0
 13 12  1  0  0  0  0
 13 14  1  0  0  0  0
 14 16  1  0  0  0  0
 15 14  1  0  0  0  0
 16 17  1  0  0  0  0
 16 18  1  0  0  0  0
 19 18  1  0  0  0  0
 20 21  1  0  0  0  0
 20 30  1  0  0  0  0
 21  1  1  0  0  0  0
 22 26  1  0  0  0  0
 22 21  2  0  0  0  0
 23 22  1  0  0  0  0
 24 23  2  0  0  0  0
 24 25  1  0  0  0  0
 25 20  2  0  0  0  0
 27 24  1  0  0  0  0
 28 30  1  0  0  0  0
 28 31  1  0  0  0  0
 29 28  2  0  0  0  0
 30 32  1  0  0  0  0
M  END
>  <minimizedAffinity>
-5.13812065

$$$$

 OpenBabel03272507533D

 32 34  0  0  1  0  0  0  0  0999 V2000
   38.9790   23.6290   34.3310 N   0  0  0  0  0  0  0  0  0  0  0  0
   38.7800   24.9360   34.2110 C   0  0  0  0  0  0  0  0  0  0  0  0
   37.7810   25.4060   33.3560 C   0  0  0  0  0  0  0  0  0  0  0  0
   37.0810   24.4380   32.7030 C   0  0  0  0  0  0  0  0  0  0  0  0
   36.1780   24.8910   31.9320 O   0  0  0  0  0  0  0  0  0  0  0  0
   37.2460   23.1130   32.7950 N   0  0  0  0  0  0  0  0  0  0  0  0
   38.2270   22.7190   33.6350 C   0  0  0  0  0  0  0  0  0  0  0  0
   38.4020   21.4660   33.7390 O   0  0  0  0  0  0  0  0  0  0  0  0
   39.3900   25.6370   34.7750 H   0  0  0  0  0  0  0  0  0  0  0  0
   37.6140   26.4510   33.2540 H   0  0  0  0  0  0  0  0  0  0  0  0
   34.9590   21.9640   33.3990 H   0  0  0  0  0  0  0  0  0  0  0  0
   35.7050   21.3430   33.0040 N   0  0  0  0  0  0  0  0  0  0  0  0
   36.4530   22.1450   32.0620 C   0  0  2  0  0  3  0  0  0  0  0  0
   37.3290   21.3230   31.1620 C   0  0  0  0  0  3  0  0  0  0  0  0
   37.7930   22.0120   30.4310 H   0  0  0  0  0  0  0  0  0  0  0  0
   36.4720   20.4260   30.4100 N   0  0  0  0  0  0  0  0  0  0  0  0
   35.7300   20.9390   29.9030 H   0  0  0  0  0  0  0  0  0  0  0  0
   35.8480   19.5350   31.3440 C   0  0  0  0  0  2  0  0  0  0  0  0
   35.0470   20.2270   32.4190 C   0  0  0  0  0  2  0  0  0  0  0  0
   39.5770   22.6050   36.4530 C   0  0  0  0  0  0  0  0  0  0  0  0
   39.9880   23.0690   35.1860 C   0  0  0  0  0  0  0  0  0  0  0  0
   41.3370   22.9630   34.8320 C   0  0  0  0  0  0  0  0  0  0  0  0
   42.1860   22.4170   35.7290 N   0  0  0  0  0  0  0  0  0  0  0  0
   41.8020   21.9810   36.9170 C   0  0  0  0  0  0  0  0  0  0  0  0
   40.5080   22.0750   37.2740 N   0  0  0  0  0  0  0  0  0  0  0  0
   41.6250   23.3270   33.8540 H   0  0  0  0  0  0  0  0  0  0  0  0
   42.4560   21.5390   37.6560 H   0  0  0  0  0  0  0  0  0  0  0  0
   37.5880   23.4160   37.9310 C   0  0  0  0  0  0  0  0  0  0  0  0
   38.1900   24.2970   38.5780 O   0  0  0  0  0  0  0  0  0  0  0  0
   38.2410   22.6520   36.9030 N   0  0  0  0  0  0  0  0  0  0  0  0
   36.5540   23.2760   38.1980 H   0  0  0  0  0  0  0  0  0  0  0  0
   37.5360   22.0190   36.4230 H   0  0  0  0  0  0  0  0  0  0  0  0
  1 21  1  0  0  0  0
  2  1  1  0  0  0  0
  2  9  1  0  0  0  0
  3  2  2  0  0  0  0
  4  6  1  0  0  0  0
  4  3  1  0  0  0  0
  5  4  2  0  0  0  0
  6  7  1  0  0  0  0
  7  8  2  0  0  0  0
  7  1  1  0  0  0  0
 10  3  1  0  0  0  0
 12 11  1  0  0  0  0
 13  6  1  1  0  0  0
 13 12  1  0  0  0  0
 14 13  1  0  0  0  0
 15 14  1  0  0  0  0
 16 14  1  0  0  0  0
 16 18  1  0  0  0  0
 17 16  1  0  0  0  0
 18 19  1  0  0  0  0
 19 12  1  0  0  0  0
 20 30  1  0  0  0  0
 20 25  1  0  0  0  0
 21 20  2  0  0  0  0
 22 21  1  0  0  0  0
 22 23  2  0  0  0  0
 23 24  1  0  0  0  0
 24 25  2  0  0  0  0
 24 27  1  0  0  0  0
 26 22  1  0  0  0  0
 28 31  1  0  0  0  0
 28 29  2  0  0  0  0
 30 28  1  0  0  0  0
 32 30  1  0  0  0  0
M  END
>  <minimizedAffinity>
-5.11392403

$$$$

 OpenBabel03272507533D

 32 34  0  0  1  0  0  0  0  0999 V2000
   38.2760   23.7530   34.5070 N   0  0  0  0  0  0  0  0  0  0  0  0
   38.7110   24.7870   33.7980 C   0  0  0  0  0  0  0  0  0  0  0  0
   38.5070   24.8120   32.4160 C   0  0  0  0  0  0  0  0  0  0  0  0
   37.8550   23.7280   31.9130 C   0  0  0  0  0  0  0  0  0  0  0  0
   37.6810   23.7750   30.6550 O   0  0  0  0  0  0  0  0  0  0  0  0
   37.3990   22.6670   32.5880 N   0  0  0  0  0  0  0  0  0  0  0  0
   37.6260   22.6990   33.9190 C   0  0  0  0  0  0  0  0  0  0  0  0
   37.2020   21.7030   34.5820 O   0  0  0  0  0  0  0  0  0  0  0  0
   39.2240   25.6110   34.2880 H   0  0  0  0  0  0  0  0  0  0  0  0
   38.8520   25.6360   31.8400 H   0  0  0  0  0  0  0  0  0  0  0  0
   34.8450   22.3010   32.0780 H   0  0  0  0  0  0  0  0  0  0  0  0
   35.3600   21.4880   32.4910 N   0  0  0  0  0  0  0  0  0  0  0  0
   36.7090   21.5490   31.9730 C   0  0  2  0  0  3  0  0  0  0  0  0
   37.4760   20.2770   32.1890 C   0  0  0  0  0  3  0  0  0  0  0  0
   38.4570   20.3920   31.6910 H   0  0  0  0  0  0  0  0  0  0  0  0
   36.7740   19.2140   31.4940 N   0  0  0  0  0  0  0  0  0  0  0  0
   36.6280   19.4400   30.4950 H   0  0  0  0  0  0  0  0  0  0  0  0
   35.4900   19.0610   32.1150 C   0  0  0  0  0  2  0  0  0  0  0  0
   34.6510   20.3150   32.1170 C   0  0  0  0  0  2  0  0  0  0  0  0
   39.5320   22.8770   36.3940 C   0  0  0  0  0  0  0  0  0  0  0  0
   38.4510   23.6540   35.9290 C   0  0  0  0  0  0  0  0  0  0  0  0
   37.6160   24.2780   36.8610 C   0  0  0  0  0  0  0  0  0  0  0  0
   37.8890   24.1050   38.1720 N   0  0  0  0  0  0  0  0  0  0  0  0
   38.9020   23.3760   38.6100 C   0  0  0  0  0  0  0  0  0  0  0  0
   39.7150   22.7680   37.7280 N   0  0  0  0  0  0  0  0  0  0  0  0
   36.7930   24.8690   36.4770 H   0  0  0  0  0  0  0  0  0  0  0  0
   39.1470   23.2180   39.6510 H   0  0  0  0  0  0  0  0  0  0  0  0
   41.6590   22.6390   34.9070 C   0  0  0  0  0  0  0  0  0  0  0  0
   42.1610   23.7610   35.1260 O   0  0  0  0  0  0  0  0  0  0  0  0
   40.4410   22.2170   35.5410 N   0  0  0  0  0  0  0  0  0  0  0  0
   42.2050   22.0190   34.2150 H   0  0  0  0  0  0  0  0  0  0  0  0
   40.2330   21.2070   35.2850 H   0  0  0  0  0  0  0  0  0  0  0  0
  1 21  1  0  0  0  0
  2  9  1  0  0  0  0
  2  1  1  0  0  0  0
  3  2  2  0  0  0  0
  4  3  1  0  0  0  0
  4  6  1  0  0  0  0
  5  4  2  0  0  0  0
  6  7  1  0  0  0  0
  7  1  1  0  0  0  0
  7  8  2  0  0  0  0
 10  3  1  0  0  0  0
 11 12  1  0  0  0  0
 13 14  1  0  0  0  0
 13 12  1  0  0  0  0
 13  6  1  1  0  0  0
 15 14  1  0  0  0  0
 16 18  1  0  0  0  0
 16 14  1  0  0  0  0
 17 16  1  0  0  0  0
 18 19  1  0  0  0  0
 19 12  1  0  0  0  0
 20 25  1  0  0  0  0
 21 20  2  0  0  0  0
 21 22  1  0  0  0  0
 22 23  2  0  0  0  0
 23 24  1  0  0  0  0
 24 27  1  0  0  0  0
 25 24  2  0  0  0  0
 26 22  1  0  0  0  0
 28 29  2  0  0  0  0
 28 30  1  0  0  0  0
 30 20  1  0  0  0  0
 31 28  1  0  0  0  0
 32 30  1  0  0  0  0
M  END
>  <minimizedAffinity>
-5.07397127

$$$$

 OpenBabel03272507533D

 32 34  0  0  1  0  0  0  0  0999 V2000
   37.3930   23.5720   32.9260 N   0  0  0  0  0  0  0  0  0  0  0  0
   37.0940   24.8290   32.6220 C   0  0  0  0  0  0  0  0  0  0  0  0
   37.5870   25.8680   33.4140 C   0  0  0  0  0  0  0  0  0  0  0  0
   38.3590   25.4720   34.4640 C   0  0  0  0  0  0  0  0  0  0  0  0
   38.7950   26.4360   35.1690 O   0  0  0  0  0  0  0  0  0  0  0  0
   38.6860   24.2210   34.8070 N   0  0  0  0  0  0  0  0  0  0  0  0
   38.1800   23.2600   34.0040 C   0  0  0  0  0  0  0  0  0  0  0  0
   38.4770   22.0650   34.3090 O   0  0  0  0  0  0  0  0  0  0  0  0
   36.4680   25.0500   31.7610 H   0  0  0  0  0  0  0  0  0  0  0  0
   37.3520   26.8770   33.1780 H   0  0  0  0  0  0  0  0  0  0  0  0
   41.3010   24.0380   35.0220 H   0  0  0  0  0  0  0  0  0  0  0  0
   40.7400   23.2740   35.4690 N   0  0  0  0  0  0  0  0  0  0  0  0
   39.5190   23.8850   35.9460 C   0  0  2  0  0  3  0  0  0  0  0  0
   38.7650   23.0110   36.9050 C   0  0  0  0  0  3  0  0  0  0  0  0
   37.8980   23.5920   37.2730 H   0  0  0  0  0  0  0  0  0  0  0  0
   39.6240   22.7670   38.0500 N   0  0  0  0  0  0  0  0  0  0  0  0
   39.9570   23.6510   38.4740 H   0  0  0  0  0  0  0  0  0  0  0  0
   40.7640   22.0290   37.5890 C   0  0  0  0  0  2  0  0  0  0  0  0
   41.5470   22.7160   36.4980 C   0  0  0  0  0  2  0  0  0  0  0  0
   37.8060   21.8970   31.2130 C   0  0  0  0  0  0  0  0  0  0  0  0
   36.9220   22.4510   32.1630 C   0  0  0  0  0  0  0  0  0  0  0  0
   35.6500   21.8890   32.3100 C   0  0  0  0  0  0  0  0  0  0  0  0
   35.3280   20.8360   31.5290 N   0  0  0  0  0  0  0  0  0  0  0  0
   36.1560   20.3160   30.6380 C   0  0  0  0  0  0  0  0  0  0  0  0
   37.3840   20.8430   30.4830 N   0  0  0  0  0  0  0  0  0  0  0  0
   34.9900   22.3340   33.0450 H   0  0  0  0  0  0  0  0  0  0  0  0
   35.9290   19.4740   30.0000 H   0  0  0  0  0  0  0  0  0  0  0  0
   39.6420   23.4000   30.1340 C   0  0  0  0  0  0  0  0  0  0  0  0
   38.9000   24.1290   29.4450 O   0  0  0  0  0  0  0  0  0  0  0  0
   39.1140   22.3780   30.9950 N   0  0  0  0  0  0  0  0  0  0  0  0
   40.6970   23.5960   30.0350 H   0  0  0  0  0  0  0  0  0  0  0  0
   39.9020   21.9320   31.5500 H   0  0  0  0  0  0  0  0  0  0  0  0
  1  7  1  0  0  0  0
  2  1  1  0  0  0  0
  2  3  2  0  0  0  0
  3  4  1  0  0  0  0
  4  6  1  0  0  0  0
  4  5  2  0  0  0  0
  7  8  2  0  0  0  0
  7  6  1  0  0  0  0
  9  2  1  0  0  0  0
 10  3  1  0  0  0  0
 11 12  1  0  0  0  0
 12 13  1  0  0  0  0
 12 19  1  0  0  0  0
 13  6  1  6  0  0  0
 13 14  1  0  0  0  0
 14 15  1  0  0  0  0
 14 16  1  0  0  0  0
 16 17  1  0  0  0  0
 18 16  1  0  0  0  0
 19 18  1  0  0  0  0
 20 21  1  0  0  0  0
 21 22  2  0  0  0  0
 21  1  1  0  0  0  0
 22 26  1  0  0  0  0
 23 22  1  0  0  0  0
 24 23  2  0  0  0  0
 25 24  1  0  0  0  0
 25 20  2  0  0  0  0
 27 24  1  0  0  0  0
 28 30  1  0  0  0  0
 29 28  2  0  0  0  0
 30 20  1  0  0  0  0
 30 32  1  0  0  0  0
 31 28  1  0  0  0  0
M  END
>  <minimizedAffinity>
-5.01447821

$$$$

 OpenBabel03272507533D

 32 34  0  0  1  0  0  0  0  0999 V2000
   38.8010   22.5750   34.0310 N   0  0  0  0  0  0  0  0  0  0  0  0
   37.9230   21.6770   33.6000 C   0  0  0  0  0  0  0  0  0  0  0  0
   36.9380   22.0580   32.6860 C   0  0  0  0  0  0  0  0  0  0  0  0
   36.9770   23.3670   32.3110 C   0  0  0  0  0  0  0  0  0  0  0  0
   36.0720   23.6880   31.4790 O   0  0  0  0  0  0  0  0  0  0  0  0
   37.8420   24.3030   32.7180 N   0  0  0  0  0  0  0  0  0  0  0  0
   38.7700   23.8770   33.6020 C   0  0  0  0  0  0  0  0  0  0  0  0
   39.6010   24.7480   34.0020 O   0  0  0  0  0  0  0  0  0  0  0  0
   37.9690   20.6510   33.9560 H   0  0  0  0  0  0  0  0  0  0  0  0
   36.2310   21.3460   32.3350 H   0  0  0  0  0  0  0  0  0  0  0  0
   36.4470   26.3600   33.5800 H   0  0  0  0  0  0  0  0  0  0  0  0
   36.5080   26.2380   32.5410 N   0  0  0  0  0  0  0  0  0  0  0  0
   37.8150   25.6820   32.2670 C   0  0  2  0  0  3  0  0  0  0  0  0
   38.1920   25.7670   30.8170 C   0  0  0  0  0  3  0  0  0  0  0  0
   39.2300   25.3940   30.7220 H   0  0  0  0  0  0  0  0  0  0  0  0
   38.2130   27.1690   30.4470 N   0  0  0  0  0  0  0  0  0  0  0  0
   38.8340   27.7200   31.0650 H   0  0  0  0  0  0  0  0  0  0  0  0
   36.8770   27.6750   30.5800 C   0  0  0  0  0  2  0  0  0  0  0  0
   36.2920   27.5180   31.9620 C   0  0  0  0  0  2  0  0  0  0  0  0
   39.5010   22.2940   36.3420 C   0  0  0  0  0  0  0  0  0  0  0  0
   39.8390   22.2620   34.9720 C   0  0  0  0  0  0  0  0  0  0  0  0
   41.1470   21.9310   34.6060 C   0  0  0  0  0  0  0  0  0  0  0  0
   42.0300   21.6580   35.5900 N   0  0  0  0  0  0  0  0  0  0  0  0
   41.7160   21.6880   36.8750 C   0  0  0  0  0  0  0  0  0  0  0  0
   40.4620   22.0030   37.2450 N   0  0  0  0  0  0  0  0  0  0  0  0
   41.3790   21.9140   33.5480 H   0  0  0  0  0  0  0  0  0  0  0  0
   42.3980   21.4740   37.6840 H   0  0  0  0  0  0  0  0  0  0  0  0
   37.5780   23.8390   37.1830 C   0  0  0  0  0  0  0  0  0  0  0  0
   38.1460   24.9390   37.0290 O   0  0  0  0  0  0  0  0  0  0  0  0
   38.2100   22.6010   36.8180 N   0  0  0  0  0  0  0  0  0  0  0  0
   36.5870   23.8900   37.6040 H   0  0  0  0  0  0  0  0  0  0  0  0
   37.5290   21.7970   36.9510 H   0  0  0  0  0  0  0  0  0  0  0  0
  1 21  1  0  0  0  0
  2  9  1  0  0  0  0
  2  1  1  0  0  0  0
  3  2  2  0  0  0  0
  4  3  1  0  0  0  0
  4  6  1  0  0  0  0
  5  4  2  0  0  0  0
  6  7  1  0  0  0  0
  7  8  2  0  0  0  0
  7  1  1  0  0  0  0
 10  3  1  0  0  0  0
 12 11  1  0  0  0  0
 13 12  1  0  0  0  0
 13  6  1  6  0  0  0
 14 13  1  0  0  0  0
 15 14  1  0  0  0  0
 16 18  1  0  0  0  0
 16 14  1  0  0  0  0
 16 17  1  0  0  0  0
 18 19  1  0  0  0  0
 19 12  1  0  0  0  0
 20 30  1  0  0  0  0
 20 25  1  0  0  0  0
 21 20  2  0  0  0  0
 22 21  1  0  0  0  0
 22 23  2  0  0  0  0
 23 24  1  0  0  0  0
 24 25  2  0  0  0  0
 24 27  1  0  0  0  0
 26 22  1  0  0  0  0
 28 31  1  0  0  0  0
 29 28  2  0  0  0  0
 30 32  1  0  0  0  0
 30 28  1  0  0  0  0
M  END
>  <minimizedAffinity>
-4.93205881

$$$$

 OpenBabel03272507533D

 32 34  0  0  1  0  0  0  0  0999 V2000
   37.9210   24.5180   32.3860 N   0  0  0  0  0  0  0  0  0  0  0  0
   37.0330   23.5400   32.2650 C   0  0  0  0  0  0  0  0  0  0  0  0
   35.8280   23.7800   31.5990 C   0  0  0  0  0  0  0  0  0  0  0  0
   35.6790   25.0450   31.1210 C   0  0  0  0  0  0  0  0  0  0  0  0
   34.5750   25.2380   30.5200 O   0  0  0  0  0  0  0  0  0  0  0  0
   36.5460   26.0600   31.2190 N   0  0  0  0  0  0  0  0  0  0  0  0
   37.6910   25.7690   31.8730 C   0  0  0  0  0  0  0  0  0  0  0  0
   38.5290   26.7150   31.9790 O   0  0  0  0  0  0  0  0  0  0  0  0
   37.2400   22.5570   32.6800 H   0  0  0  0  0  0  0  0  0  0  0  0
   35.1110   23.0020   31.4970 H   0  0  0  0  0  0  0  0  0  0  0  0
   37.1230   27.0760   28.8630 H   0  0  0  0  0  0  0  0  0  0  0  0
   37.3270   27.6790   29.6950 N   0  0  0  0  0  0  0  0  0  0  0  0
   36.3080   27.3840   30.6780 C   0  0  2  0  0  3  0  0  0  0  0  0
   36.2510   28.3990   31.7820 C   0  0  0  0  0  3  0  0  0  0  0  0
   35.3960   28.1350   32.4330 H   0  0  0  0  0  0  0  0  0  0  0  0
   35.9440   29.6860   31.1850 N   0  0  0  0  0  0  0  0  0  0  0  0
   35.0790   29.6480   30.6180 H   0  0  0  0  0  0  0  0  0  0  0  0
   37.0350   30.0380   30.3240 C   0  0  0  0  0  2  0  0  0  0  0  0
   37.3210   29.0260   29.2420 C   0  0  0  0  0  2  0  0  0  0  0  0
   39.2320   24.6940   34.4250 C   0  0  0  0  0  0  0  0  0  0  0  0
   39.1790   24.3510   33.0580 C   0  0  0  0  0  0  0  0  0  0  0  0
   40.3360   23.8720   32.4360 C   0  0  0  0  0  0  0  0  0  0  0  0
   41.4570   23.7620   33.1810 N   0  0  0  0  0  0  0  0  0  0  0  0
   41.5080   24.0840   34.4630 C   0  0  0  0  0  0  0  0  0  0  0  0
   40.4050   24.5450   35.0780 N   0  0  0  0  0  0  0  0  0  0  0  0
   40.2680   23.6170   31.3860 H   0  0  0  0  0  0  0  0  0  0  0  0
   42.3880   24.0070   35.0860 H   0  0  0  0  0  0  0  0  0  0  0  0
   37.7570   26.4810   35.6200 C   0  0  0  0  0  0  0  0  0  0  0  0
   38.4310   27.4930   35.3370 O   0  0  0  0  0  0  0  0  0  0  0  0
   38.1220   25.1720   35.1520 N   0  0  0  0  0  0  0  0  0  0  0  0
   36.8910   26.6640   36.2340 H   0  0  0  0  0  0  0  0  0  0  0  0
   37.3760   24.4690   35.4330 H   0  0  0  0  0  0  0  0  0  0  0  0
  1 21  1  0  0  0  0
  2  1  1  0  0  0  0
  2  9  1  0  0  0  0
  3  2  2  0  0  0  0
  4  6  1  0  0  0  0
  4  3  1  0  0  0  0
  5  4  2  0  0  0  0
  6  7  1  0  0  0  0
  7  8  2  0  0  0  0
  7  1  1  0  0  0  0
 10  3  1  0  0  0  0
 11 12  1  0  0  0  0
 12 13  1  0  0  0  0
 13  6  1  1  0  0  0
 13 14  1  0  0  0  0
 14 15  1  0  0  0  0
 16 14  1  0  0  0  0
 17 16  1  0  0  0  0
 18 16  1  0  0  0  0
 19 12  1  0  0  0  0
 19 18  1  0  0  0  0
 20 25  1  0  0  0  0
 20 30  1  0  0  0  0
 21 20  2  0  0  0  0
 22 21  1  0  0  0  0
 22 23  2  0  0  0  0
 23 24  1  0  0  0  0
 24 25  2  0  0  0  0
 24 27  1  0  0  0  0
 26 22  1  0  0  0  0
 28 31  1  0  0  0  0
 29 28  2  0  0  0  0
 30 32  1  0  0  0  0
 30 28  1  0  0  0  0
M  END
>  <minimizedAffinity>
-4.87922192

$$$$

 OpenBabel03272507533D

 32 34  0  0  1  0  0  0  0  0999 V2000
   37.0940   25.6700   32.3730 N   0  0  0  0  0  0  0  0  0  0  0  0
   37.9150   25.5420   33.4090 C   0  0  0  0  0  0  0  0  0  0  0  0
   38.1770   24.2730   33.9290 C   0  0  0  0  0  0  0  0  0  0  0  0
   37.5380   23.2500   33.2980 C   0  0  0  0  0  0  0  0  0  0  0  0
   37.7930   22.1060   33.7900 O   0  0  0  0  0  0  0  0  0  0  0  0
   36.7050   23.3320   32.2540 N   0  0  0  0  0  0  0  0  0  0  0  0
   36.4900   24.5840   31.7950 C   0  0  0  0  0  0  0  0  0  0  0  0
   35.7040   24.6880   30.8040 O   0  0  0  0  0  0  0  0  0  0  0  0
   38.3820   26.4190   33.8490 H   0  0  0  0  0  0  0  0  0  0  0  0
   38.8330   24.1610   34.7580 H   0  0  0  0  0  0  0  0  0  0  0  0
   34.4680   22.0900   32.8610 H   0  0  0  0  0  0  0  0  0  0  0  0
   35.2940   21.4850   32.6400 N   0  0  0  0  0  0  0  0  0  0  0  0
   36.0640   22.1870   31.6370 C   0  0  2  0  0  3  0  0  0  0  0  0
   37.0830   21.3140   30.9660 C   0  0  0  0  0  3  0  0  0  0  0  0
   37.5590   21.9130   30.1660 H   0  0  0  0  0  0  0  0  0  0  0  0
   36.3740   20.2290   30.3120 N   0  0  0  0  0  0  0  0  0  0  0  0
   35.6460   20.5800   29.6660 H   0  0  0  0  0  0  0  0  0  0  0  0
   35.7350   19.4490   31.3330 C   0  0  0  0  0  2  0  0  0  0  0  0
   34.7840   20.2320   32.2050 C   0  0  0  0  0  2  0  0  0  0  0  0
   37.4390   27.2860   30.5900 C   0  0  0  0  0  0  0  0  0  0  0  0
   36.7730   26.9400   31.7850 C   0  0  0  0  0  0  0  0  0  0  0  0
   35.8480   27.8380   32.3280 C   0  0  0  0  0  0  0  0  0  0  0  0
   35.6370   29.0010   31.6760 N   0  0  0  0  0  0  0  0  0  0  0  0
   36.2610   29.3270   30.5560 C   0  0  0  0  0  0  0  0  0  0  0  0
   37.1530   28.4750   30.0190 N   0  0  0  0  0  0  0  0  0  0  0  0
   35.3520   27.5480   33.2460 H   0  0  0  0  0  0  0  0  0  0  0  0
   36.1140   30.2480   30.0110 H   0  0  0  0  0  0  0  0  0  0  0  0
   39.7980   26.2900   30.1030 C   0  0  0  0  0  0  0  0  0  0  0  0
   40.4390   26.9000   30.9830 O   0  0  0  0  0  0  0  0  0  0  0  0
   38.3770   26.4490   29.9520 N   0  0  0  0  0  0  0  0  0  0  0  0
   40.3860   25.6430   29.4730 H   0  0  0  0  0  0  0  0  0  0  0  0
   38.0190   25.7840   29.2050 H   0  0  0  0  0  0  0  0  0  0  0  0
  1  2  1  0  0  0  0
  2  9  1  0  0  0  0
  2  3  2  0  0  0  0
  3 10  1  0  0  0  0
  4  5  2  0  0  0  0
  4  3  1  0  0  0  0
  6  4  1  0  0  0  0
  7  6  1  0  0  0  0
  7  1  1  0  0  0  0
  8  7  2  0  0  0  0
 12 11  1  0  0  0  0
 13  6  1  1  0  0  0
 13 12  1  0  0  0  0
 14 13  1  0  0  0  0
 15 14  1  0  0  0  0
 16 14  1  0  0  0  0
 16 18  1  0  0  0  0
 17 16  1  0  0  0  0
 18 19  1  0  0  0  0
 19 12  1  0  0  0  0
 20 21  1  0  0  0  0
 21 22  2  0  0  0  0
 21  1  1  0  0  0  0
 22 26  1  0  0  0  0
 23 22  1  0  0  0  0
 24 23  2  0  0  0  0
 25 24  1  0  0  0  0
 25 20  2  0  0  0  0
 27 24  1  0  0  0  0
 28 29  2  0  0  0  0
 30 28  1  0  0  0  0
 30 20  1  0  0  0  0
 31 28  1  0  0  0  0
 32 30  1  0  0  0  0
M  END
>  <minimizedAffinity>
-4.86802435

$$$$

 OpenBabel03272507533D

 32 34  0  0  1  0  0  0  0  0999 V2000
   38.1670   23.8240   34.2390 N   0  0  0  0  0  0  0  0  0  0  0  0
   38.0860   25.0840   33.8270 C   0  0  0  0  0  0  0  0  0  0  0  0
   37.3700   25.3860   32.6660 C   0  0  0  0  0  0  0  0  0  0  0  0
   36.8030   24.3140   32.0460 C   0  0  0  0  0  0  0  0  0  0  0  0
   36.1580   24.6160   30.9930 O   0  0  0  0  0  0  0  0  0  0  0  0
   36.8580   23.0320   32.4250 N   0  0  0  0  0  0  0  0  0  0  0  0
   37.5640   22.8020   33.5530 C   0  0  0  0  0  0  0  0  0  0  0  0
   37.6300   21.5930   33.9320 O   0  0  0  0  0  0  0  0  0  0  0  0
   38.5720   25.8760   34.3890 H   0  0  0  0  0  0  0  0  0  0  0  0
   37.3000   26.3920   32.3290 H   0  0  0  0  0  0  0  0  0  0  0  0
   34.4850   21.9390   32.7200 H   0  0  0  0  0  0  0  0  0  0  0  0
   35.2890   21.2820   32.5860 N   0  0  0  0  0  0  0  0  0  0  0  0
   36.2220   21.9460   31.7030 C   0  0  2  0  0  3  0  0  0  0  0  0
   37.2550   21.0160   31.1390 C   0  0  0  0  0  3  0  0  0  0  0  0
   37.8660   21.5940   30.4200 H   0  0  0  0  0  0  0  0  0  0  0  0
   36.5620   19.9950   30.3760 N   0  0  0  0  0  0  0  0  0  0  0  0
   35.9450   20.4090   29.6550 H   0  0  0  0  0  0  0  0  0  0  0  0
   35.7500   19.2440   31.2890 C   0  0  0  0  0  2  0  0  0  0  0  0
   34.7530   20.0760   32.0590 C   0  0  0  0  0  2  0  0  0  0  0  0
   40.2510   23.1150   35.2680 C   0  0  0  0  0  0  0  0  0  0  0  0
   38.8860   23.4350   35.4190 C   0  0  0  0  0  0  0  0  0  0  0  0
   38.3090   23.3560   36.6910 C   0  0  0  0  0  0  0  0  0  0  0  0
   39.0950   22.9750   37.7200 N   0  0  0  0  0  0  0  0  0  0  0  0
   40.3760   22.6750   37.5800 C   0  0  0  0  0  0  0  0  0  0  0  0
   40.9470   22.7450   36.3640 N   0  0  0  0  0  0  0  0  0  0  0  0
   37.2590   23.6060   36.7780 H   0  0  0  0  0  0  0  0  0  0  0  0
   41.0310   22.3680   38.3830 H   0  0  0  0  0  0  0  0  0  0  0  0
   41.2540   22.1760   33.0530 C   0  0  0  0  0  0  0  0  0  0  0  0
   40.8490   21.0000   33.1540 O   0  0  0  0  0  0  0  0  0  0  0  0
   40.9330   23.1750   34.0350 N   0  0  0  0  0  0  0  0  0  0  0  0
   41.8550   22.3810   32.1830 H   0  0  0  0  0  0  0  0  0  0  0  0
   41.3020   24.1200   33.7200 H   0  0  0  0  0  0  0  0  0  0  0  0
  1 21  1  0  0  0  0
  2  1  1  0  0  0  0
  2  9  1  0  0  0  0
  3  2  2  0  0  0  0
  4  6  1  0  0  0  0
  4  3  1  0  0  0  0
  5  4  2  0  0  0  0
  6  7  1  0  0  0  0
  7  8  2  0  0  0  0
  7  1  1  0  0  0  0
 10  3  1  0  0  0  0
 12 11  1  0  0  0  0
 13  6  1  1  0  0  0
 13 12  1  0  0  0  0
 14 13  1  0  0  0  0
 15 14  1  0  0  0  0
 16 14  1  0  0  0  0
 16 18  1  0  0  0  0
 17 16  1  0  0  0  0
 18 19  1  0  0  0  0
 19 12  1  0  0  0  0
 20 21  2  0  0  0  0
 20 25  1  0  0  0  0
 21 22  1  0  0  0  0
 22 26  1  0  0  0  0
 22 23  2  0  0  0  0
 24 23  1  0  0  0  0
 24 27  1  0  0  0  0
 25 24  2  0  0  0  0
 28 29  2  0  0  0  0
 28 30  1  0  0  0  0
 30 20  1  0  0  0  0
 31 28  1  0  0  0  0
 32 30  1  0  0  0  0
M  END
>  <minimizedAffinity>
-4.86534739

$$$$

 OpenBabel03272507533D

 32 34  0  0  1  0  0  0  0  0999 V2000
   36.1970   26.4870   31.7390 N   0  0  0  0  0  0  0  0  0  0  0  0
   35.4890   25.5360   31.1420 C   0  0  0  0  0  0  0  0  0  0  0  0
   35.8000   24.1940   31.3750 C   0  0  0  0  0  0  0  0  0  0  0  0
   36.8430   23.9860   32.2250 C   0  0  0  0  0  0  0  0  0  0  0  0
   37.1060   22.7580   32.4200 O   0  0  0  0  0  0  0  0  0  0  0  0
   37.5830   24.9110   32.8470 N   0  0  0  0  0  0  0  0  0  0  0  0
   37.2350   26.1890   32.5830 C   0  0  0  0  0  0  0  0  0  0  0  0
   37.9220   27.0850   33.1620 O   0  0  0  0  0  0  0  0  0  0  0  0
   34.6700   25.7980   30.4770 H   0  0  0  0  0  0  0  0  0  0  0  0
   35.2380   23.4260   30.9020 H   0  0  0  0  0  0  0  0  0  0  0  0
   40.1090   24.3880   32.3390 H   0  0  0  0  0  0  0  0  0  0  0  0
   39.6360   23.7720   33.0430 N   0  0  0  0  0  0  0  0  0  0  0  0
   38.6820   24.6030   33.7420 C   0  0  2  0  0  3  0  0  0  0  0  0
   38.1690   23.9690   35.0020 C   0  0  0  0  0  3  0  0  0  0  0  0
   37.5150   24.7070   35.5030 H   0  0  0  0  0  0  0  0  0  0  0  0
   39.3040   23.7490   35.8800 N   0  0  0  0  0  0  0  0  0  0  0  0
   39.8350   24.6220   36.0460 H   0  0  0  0  0  0  0  0  0  0  0  0
   40.1740   22.8060   35.2390 C   0  0  0  0  0  2  0  0  0  0  0  0
   40.6560   23.2360   33.8750 C   0  0  0  0  0  2  0  0  0  0  0  0
   36.5680   28.5150   30.4520 C   0  0  0  0  0  0  0  0  0  0  0  0
   35.9400   27.8870   31.5480 C   0  0  0  0  0  0  0  0  0  0  0  0
   35.1130   28.6470   32.3800 C   0  0  0  0  0  0  0  0  0  0  0  0
   34.9540   29.9560   32.0920 N   0  0  0  0  0  0  0  0  0  0  0  0
   35.5420   30.5470   31.0640 C   0  0  0  0  0  0  0  0  0  0  0  0
   36.3410   29.8310   30.2530 N   0  0  0  0  0  0  0  0  0  0  0  0
   34.6440   28.1390   33.2140 H   0  0  0  0  0  0  0  0  0  0  0  0
   35.4350   31.5910   30.8070 H   0  0  0  0  0  0  0  0  0  0  0  0
   38.8340   27.6640   29.4860 C   0  0  0  0  0  0  0  0  0  0  0  0
   39.5860   28.0790   30.3920 O   0  0  0  0  0  0  0  0  0  0  0  0
   37.4090   27.8400   29.5440 N   0  0  0  0  0  0  0  0  0  0  0  0
   39.3310   27.1690   28.6690 H   0  0  0  0  0  0  0  0  0  0  0  0
   36.9520   27.3450   28.7220 H   0  0  0  0  0  0  0  0  0  0  0  0
  1  7  1  0  0  0  0
  2  3  2  0  0  0  0
  2  1  1  0  0  0  0
  3  4  1  0  0  0  0
  4  5  2  0  0  0  0
  4  6  1  0  0  0  0
  7  6  1  0  0  0  0
  7  8  2  0  0  0  0
  9  2  1  0  0  0  0
 10  3  1  0  0  0  0
 11 12  1  0  0  0  0
 12 13  1  0  0  0  0
 12 19  1  0  0  0  0
 13  6  1  6  0  0  0
 13 14  1  0  0  0  0
 14 15  1  0  0  0  0
 14 16  1  0  0  0  0
 16 17  1  0  0  0  0
 18 16  1  0  0  0  0
 19 18  1  0  0  0  0
 20 21  1  0  0  0  0
 21  1  1  0  0  0  0
 21 22  2  0  0  0  0
 22 26  1  0  0  0  0
 23 22  1  0  0  0  0
 24 23  2  0  0  0  0
 25 20  2  0  0  0  0
 25 24  1  0  0  0  0
 27 24  1  0  0  0  0
 28 30  1  0  0  0  0
 28 29  2  0  0  0  0
 30 20  1  0  0  0  0
 31 28  1  0  0  0  0
 32 30  1  0  0  0  0
M  END
>  <minimizedAffinity>
-4.85816574

$$$$
