
 OpenBabel03262521213D

 33 34  0  0  1  0  0  0  0  0999 V2000
   37.3140   30.6780   50.9170 C   0  0  0  0  0  0  0  0  0  0  0  0
   38.4000   30.8600   50.7740 H   0  0  0  0  0  0  0  0  0  0  0  0
   36.9200   31.6220   51.3930 H   0  0  0  0  0  0  0  0  0  0  0  0
   36.9850   29.5260   51.5390 C   0  0  0  0  0  0  0  0  0  0  0  0
   35.9360   29.1650   51.4870 H   0  0  0  0  0  0  0  0  0  0  0  0
   37.1210   29.6430   52.6630 H   0  0  0  0  0  0  0  0  0  0  0  0
   37.8520   28.3380   51.1990 C   0  0  0  0  0  0  0  0  0  0  0  0
   37.2380   27.4810   50.8060 H   0  0  0  0  0  0  0  0  0  0  0  0
   38.4880   28.6300   50.3380 H   0  0  0  0  0  0  0  0  0  0  0  0
   38.8670   27.7430   52.5110 S   0  0  0  0  0  0  0  0  0  0  0  0
   39.6390   25.9810   54.4580 H   0  0  0  0  0  0  0  0  0  0  0  0
   40.0930   25.5990   53.6190 N   0  0  0  0  0  0  0  0  0  0  0  0
   39.4080   26.0470   52.4040 C   0  0  2  0  0  0  0  0  0  0  0  0
   40.3000   25.7570   51.2380 C   0  0  0  0  0  0  0  0  0  0  0  0
   39.8110   26.1300   50.3180 H   0  0  0  0  0  0  0  0  0  0  0  0
   40.5180   24.3210   51.1610 N   0  0  0  0  0  0  0  0  0  0  0  0
   40.0640   23.9810   50.2840 H   0  0  0  0  0  0  0  0  0  0  0  0
   39.9350   23.5790   52.2340 C   0  0  0  0  0  0  0  0  0  0  0  0
   40.1680   24.1700   53.5960 C   0  0  0  0  0  0  0  0  0  0  0  0
   36.7650   30.4360   49.6790 O   0  0  0  0  0  0  0  0  0  0  0  0
   37.3230   31.0580   48.5880 C   0  0  0  0  0  0  0  0  0  0  0  0
   38.3890   31.8550   48.9150 C   0  0  0  0  0  0  0  0  0  0  0  0
   39.0600   32.5550   47.8940 C   0  0  0  0  0  0  0  0  0  0  0  0
   38.5840   32.3820   46.6080 N   0  0  0  0  0  0  0  0  0  0  0  0
   37.5220   31.5800   46.3270 C   0  0  0  0  0  0  0  0  0  0  0  0
   36.9020   30.9260   47.3150 N   0  0  0  0  0  0  0  0  0  0  0  0
   37.8380   32.3070   44.0720 C   0  0  0  0  0  0  0  0  0  0  0  0
   38.7830   33.1010   44.3760 O   0  0  0  0  0  0  0  0  0  0  0  0
   37.1140   31.4760   44.9670 N   0  0  0  0  0  0  0  0  0  0  0  0
   38.7880   32.0120   49.9100 H   0  0  0  0  0  0  0  0  0  0  0  0
   39.8900   33.1820   48.1030 H   0  0  0  0  0  0  0  0  0  0  0  0
   37.5960   32.2930   43.0140 H   0  0  0  0  0  0  0  0  0  0  0  0
   36.3430   30.8330   44.6800 H   0  0  0  0  0  0  0  0  0  0  0  0
  1  3  1  0  0  0  0
  1  4  1  0  0  0  0
  2  1  1  0  0  0  0
  4  6  1  0  0  0  0
  5  4  1  0  0  0  0
  7  4  1  0  0  0  0
  7 10  1  0  0  0  0
  8  7  1  0  0  0  0
  9  7  1  0  0  0  0
 12 11  1  0  0  0  0
 13 10  1  1  0  0  0
 13 12  1  0  0  0  0
 14 13  1  0  0  0  0
 15 14  1  0  0  0  0
 16 14  1  0  0  0  0
 16 18  1  0  0  0  0
 17 16  1  0  0  0  0
 18 19  1  0  0  0  0
 19 12  1  0  0  0  0
 20  1  1  0  0  0  0
 21 22  1  0  0  0  0
 21 20  1  0  0  0  0
 22 30  1  0  0  0  0
 23 31  1  0  0  0  0
 23 22  2  0  0  0  0
 24 23  1  0  0  0  0
 25 24  2  0  0  0  0
 25 26  1  0  0  0  0
 26 21  2  0  0  0  0
 27 28  2  0  0  0  0
 27 29  1  0  0  0  0
 29 25  1  0  0  0  0
 32 27  1  0  0  0  0
 33 29  1  0  0  0  0
M  END
>  <minimizedAffinity>
-3.68083906

>  <minimizedRMSD>
2.89418769

$$$$
