
 OpenBabel03272508473D

 40 44  0  0  0  0  0  0  0  0999 V2000
   35.6090   29.6990   49.6280 C   0  0  0  0  0  0  0  0  0  0  0  0
   36.5930   29.5150   50.5900 C   0  0  0  0  0  0  0  0  0  0  0  0
   37.7240   30.0700   49.9880 C   0  0  0  0  0  0  0  0  0  0  0  0
   37.3780   30.5450   48.7380 C   0  0  0  0  0  0  0  0  0  0  0  0
   36.1020   30.3010   48.5630 O   0  0  0  0  0  0  0  0  0  0  0  0
   36.5180   29.0570   51.5700 H   0  0  0  0  0  0  0  0  0  0  0  0
   38.7100   30.1090   50.4570 H   0  0  0  0  0  0  0  0  0  0  0  0
   38.7890   32.4360   48.0810 C   0  0  0  0  0  0  0  0  0  0  0  0
   38.2540   31.1990   47.7730 C   0  0  0  0  0  0  0  0  0  0  0  0
   38.5260   30.5610   46.5750 C   0  0  0  0  0  0  0  0  0  0  0  0
   39.3560   31.1520   45.6330 C   0  0  0  0  0  0  0  0  0  0  0  0
   39.8080   30.8200   44.4180 N   0  0  0  0  0  0  0  0  0  0  0  0
   40.5870   31.8130   43.9990 N   0  0  0  0  0  0  0  0  0  0  0  0
   40.6460   32.7910   44.9320 C   0  0  0  0  0  0  0  0  0  0  0  0
   39.8570   32.3780   45.9900 C   0  0  0  0  0  0  0  0  0  0  0  0
   39.6330   33.0780   47.1640 C   0  0  0  0  0  0  0  0  0  0  0  0
   38.5880   32.9490   49.0120 H   0  0  0  0  0  0  0  0  0  0  0  0
   38.1050   29.5890   46.3360 H   0  0  0  0  0  0  0  0  0  0  0  0
   39.5670   29.9310   43.9250 H   0  0  0  0  0  0  0  0  0  0  0  0
   41.2140   33.7150   44.8410 H   0  0  0  0  0  0  0  0  0  0  0  0
   40.0670   34.0300   47.3570 H   0  0  0  0  0  0  0  0  0  0  0  0
   34.2270   29.2690   49.8090 C   0  0  0  0  0  0  0  0  0  0  0  0
   33.6460   29.5650   50.8710 O   0  0  0  0  0  0  0  0  0  0  0  0
   31.7580   27.1910   48.1060 C   0  0  0  0  0  0  0  0  0  0  0  0
   32.2690   27.0850   46.8290 C   0  0  0  0  0  0  0  0  0  0  0  0
   33.4500   27.7080   46.5150 C   0  0  0  0  0  0  0  0  0  0  0  0
   34.0600   28.4050   47.4940 N   0  0  0  0  0  0  0  0  0  0  0  0
   33.5560   28.5060   48.7410 C   0  0  0  0  0  0  0  0  0  0  0  0
   32.4040   27.8970   49.0420 N   0  0  0  0  0  0  0  0  0  0  0  0
   30.8220   26.6820   48.3070 H   0  0  0  0  0  0  0  0  0  0  0  0
   31.7950   26.5310   46.0320 H   0  0  0  0  0  0  0  0  0  0  0  0
   34.1140   27.7000   45.2550 N   0  0  0  0  0  0  0  0  0  0  0  0
   34.7210   28.9000   44.6620 C   0  0  0  0  0  0  0  0  0  0  0  0
   35.8180   28.7960   44.8230 H   0  0  0  0  0  0  0  0  0  0  0  0
   34.4500   28.9700   43.1950 C   0  0  0  0  0  0  0  0  0  0  0  0
   34.2110   30.0040   42.9020 H   0  0  0  0  0  0  0  0  0  0  0  0
   33.3490   28.1340   42.7590 N   0  0  0  0  0  0  0  0  0  0  0  0
   32.4290   28.5130   43.0260 H   0  0  0  0  0  0  0  0  0  0  0  0
   33.5530   26.7480   43.0840 C   0  0  0  0  0  0  0  0  0  0  0  0
   34.2910   26.5640   44.3900 C   0  0  0  0  0  0  0  0  0  0  0  0
  1 22  1  0  0  0  0
  1  2  2  0  0  0  0
  2  6  1  0  0  0  0
  3  7  1  0  0  0  0
  3  2  1  0  0  0  0
  4  3  2  0  0  0  0
  5  4  1  0  0  0  0
  5  1  1  0  0  0  0
  8 17  1  0  0  0  0
  9  8  1  0  0  0  0
  9  4  1  0  0  0  0
 10  9  2  0  0  0  0
 11 15  2  0  0  0  0
 11 10  1  0  0  0  0
 12 11  1  0  0  0  0
 13 12  1  0  0  0  0
 13 14  2  0  0  0  0
 14 15  1  0  0  0  0
 15 16  1  0  0  0  0
 16 21  1  0  0  0  0
 16  8  2  0  0  0  0
 18 10  1  0  0  0  0
 19 12  1  0  0  0  0
 20 14  1  0  0  0  0
 22 23  2  0  0  0  0
 24 30  1  0  0  0  0
 24 29  1  0  0  0  0
 25 24  2  0  0  0  0
 26 25  1  0  0  0  0
 26 27  2  0  0  0  0
 27 28  1  0  0  0  0
 28 29  2  0  0  0  0
 28 22  1  0  0  0  0
 31 25  1  0  0  0  0
 32 26  1  0  0  0  0
 33 34  1  0  0  0  0
 33 32  1  0  0  0  0
 35 33  1  0  0  0  0
 36 35  1  0  0  0  0
 37 38  1  0  0  0  0
 37 39  1  0  0  0  0
 37 35  1  0  0  0  0
 39 40  1  0  0  0  0
 40 32  1  0  0  0  0
M  END
>  <minimizedAffinity>
-6.3987813

>  <minimizedRMSD>
1.55107594

$$$$
