
 OpenBabel03272504293D

 42 45  0  0  0  0  0  0  0  0999 V2000
   35.8110   28.4940   32.2680 C   0  0  0  0  0  0  0  0  0  0  0  0
   35.6630   29.2760   31.1780 C   0  0  0  0  0  0  0  0  0  0  0  0
   35.2290   30.5370   31.2790 C   0  0  0  0  0  0  0  0  0  0  0  0
   34.9330   31.0290   32.5100 N   0  0  0  0  0  0  0  0  0  0  0  0
   35.0820   30.2510   33.5760 C   0  0  0  0  0  0  0  0  0  0  0  0
   35.5150   28.9910   33.4820 N   0  0  0  0  0  0  0  0  0  0  0  0
   35.9190   28.8130   30.2270 H   0  0  0  0  0  0  0  0  0  0  0  0
   35.1170   31.1480   30.3920 H   0  0  0  0  0  0  0  0  0  0  0  0
   36.5670   25.1050   31.0930 C   0  0  0  0  0  0  0  0  0  0  0  0
   37.2350   24.5280   32.1750 C   0  0  0  0  0  0  0  0  0  0  0  0
   37.4160   25.3360   33.3190 C   0  0  0  0  0  0  0  0  0  0  0  0
   36.9250   26.5980   33.2590 N   0  0  0  0  0  0  0  0  0  0  0  0
   36.2850   27.1190   32.1970 C   0  0  0  0  0  0  0  0  0  0  0  0
   36.1150   26.3530   31.1200 N   0  0  0  0  0  0  0  0  0  0  0  0
   36.4480   24.4400   30.2290 H   0  0  0  0  0  0  0  0  0  0  0  0
   37.6210   23.5180   32.2060 H   0  0  0  0  0  0  0  0  0  0  0  0
   38.0920   24.8670   34.5110 N   0  0  0  0  0  0  0  0  0  0  0  0
   37.6250   25.4730   35.7690 C   0  0  0  0  0  3  0  0  0  0  0  0
   36.5240   25.2740   35.8210 H   0  0  0  0  0  0  0  0  0  0  0  0
   38.3660   24.8240   36.8870 C   0  0  0  0  0  3  0  0  0  0  0  0
   37.6900   24.7480   37.7630 H   0  0  0  0  0  0  0  0  0  0  0  0
   38.7960   23.4810   36.5570 N   0  0  0  0  0  0  0  0  0  0  0  0
   37.9550   22.9870   36.1390 H   0  0  0  0  0  0  0  0  0  0  0  0
   39.7960   23.4950   35.5130 C   0  0  0  0  0  2  0  0  0  0  0  0
   39.1260   23.8620   34.2170 C   0  0  0  0  0  2  0  0  0  0  0  0
   33.5210   30.6570   35.4360 C   0  0  0  0  0  0  0  0  0  0  0  0
   34.7630   30.8890   34.8320 C   0  0  0  0  0  0  0  0  0  0  0  0
   35.7280   31.7300   35.3550 C   0  0  0  0  0  0  0  0  0  0  0  0
   35.4690   32.3880   36.5370 C   0  0  0  0  0  0  0  0  0  0  0  0
   34.2730   32.2200   37.2020 C   0  0  0  0  0  0  0  0  0  0  0  0
   33.3880   31.3770   36.6150 C   0  0  0  0  0  0  0  0  0  0  0  0
   36.6740   31.8770   34.8520 H   0  0  0  0  0  0  0  0  0  0  0  0
   36.2320   33.0480   36.9440 H   0  0  0  0  0  0  0  0  0  0  0  0
   34.0330   32.7200   38.1310 H   0  0  0  0  0  0  0  0  0  0  0  0
   32.4330   31.2360   37.1350 H   0  0  0  0  0  0  0  0  0  0  0  0
   32.3490   29.6300   34.8500 S   0  0  0  0  0  0  0  0  0  0  0  0
   31.1390   30.6040   35.0450 O   0  0  0  0  0  0  0  0  0  0  0  0
   32.2140   28.4950   35.8320 O   0  0  0  0  0  0  0  0  0  0  0  0
   31.5270   28.9540   33.6630 C   0  0  0  0  0  0  0  0  0  0  0  0
   31.0630   27.6220   33.6450 F   0  0  0  0  0  0  0  0  0  0  0  0
   32.4340   28.6390   32.5450 F   0  0  0  0  0  0  0  0  0  0  0  0
   30.7890   29.7350   32.7250 F   0  0  0  0  0  0  0  0  0  0  0  0
  1  6  1  0  0  0  0
  2  3  1  0  0  0  0
  2  1  2  0  0  0  0
  3  4  2  0  0  0  0
  4  5  1  0  0  0  0
  5 27  1  0  0  0  0
  6  5  2  0  0  0  0
  7  2  1  0  0  0  0
  8  3  1  0  0  0  0
  9 14  2  0  0  0  0
  9 10  1  0  0  0  0
 10 16  1  0  0  0  0
 10 11  2  0  0  0  0
 11 17  1  0  0  0  0
 12 11  1  0  0  0  0
 13  1  1  0  0  0  0
 13 12  2  0  0  0  0
 14 13  1  0  0  0  0
 15  9  1  0  0  0  0
 17 18  1  0  0  0  0
 18 19  1  0  0  0  0
 18 20  1  0  0  0  0
 20 21  1  0  0  0  0
 22 20  1  0  0  0  0
 23 22  1  0  0  0  0
 24 22  1  0  0  0  0
 25 17  1  0  0  0  0
 25 24  1  0  0  0  0
 26 31  1  0  0  0  0
 27 28  1  0  0  0  0
 27 26  2  0  0  0  0
 28 29  2  0  0  0  0
 29 33  1  0  0  0  0
 29 30  1  0  0  0  0
 30 34  1  0  0  0  0
 31 35  1  0  0  0  0
 31 30  2  0  0  0  0
 32 28  1  0  0  0  0
 36 37  2  0  0  0  0
 36 26  1  0  0  0  0
 36 38  2  0  0  0  0
 39 36  1  0  0  0  0
 40 39  1  0  0  0  0
 41 39  1  0  0  0  0
 42 39  1  0  0  0  0
M  END
>  <minimizedAffinity>
-6.85737181

$$$$

 OpenBabel03272504293D

 42 45  0  0  0  0  0  0  0  0999 V2000
   36.4400   28.2630   33.1250 C   0  0  0  0  0  0  0  0  0  0  0  0
   36.0540   28.6930   31.9050 C   0  0  0  0  0  0  0  0  0  0  0  0
   35.2520   29.7540   31.7620 C   0  0  0  0  0  0  0  0  0  0  0  0
   34.8260   30.4040   32.8760 N   0  0  0  0  0  0  0  0  0  0  0  0
   35.2120   29.9730   34.0710 C   0  0  0  0  0  0  0  0  0  0  0  0
   36.0120   28.9130   34.2210 N   0  0  0  0  0  0  0  0  0  0  0  0
   36.4360   28.1220   31.0610 H   0  0  0  0  0  0  0  0  0  0  0  0
   34.9540   30.0820   30.7750 H   0  0  0  0  0  0  0  0  0  0  0  0
   39.2960   26.1460   34.0240 C   0  0  0  0  0  0  0  0  0  0  0  0
   38.8820   24.8660   33.6460 C   0  0  0  0  0  0  0  0  0  0  0  0
   37.5970   24.7530   33.0730 C   0  0  0  0  0  0  0  0  0  0  0  0
   36.8830   25.8990   32.9430 N   0  0  0  0  0  0  0  0  0  0  0  0
   37.3150   27.1150   33.3190 C   0  0  0  0  0  0  0  0  0  0  0  0
   38.5290   27.2180   33.8590 N   0  0  0  0  0  0  0  0  0  0  0  0
   40.3000   26.1850   34.4620 H   0  0  0  0  0  0  0  0  0  0  0  0
   39.4650   23.9630   33.7570 H   0  0  0  0  0  0  0  0  0  0  0  0
   37.0420   23.4890   32.6370 N   0  0  0  0  0  0  0  0  0  0  0  0
   36.1040   23.5790   31.5050 C   0  0  0  0  0  3  0  0  0  0  0  0
   36.6630   24.0840   30.6760 H   0  0  0  0  0  0  0  0  0  0  0  0
   35.6960   22.1920   31.1420 C   0  0  0  0  0  3  0  0  0  0  0  0
   35.5550   22.1410   30.0430 H   0  0  0  0  0  0  0  0  0  0  0  0
   36.7040   21.2130   31.4930 N   0  0  0  0  0  0  0  0  0  0  0  0
   37.6300   21.5890   31.1380 H   0  0  0  0  0  0  0  0  0  0  0  0
   36.8520   21.1080   32.9280 C   0  0  0  0  0  2  0  0  0  0  0  0
   37.5370   22.3500   33.4270 C   0  0  0  0  0  2  0  0  0  0  0  0
   33.4110   30.5620   35.6420 C   0  0  0  0  0  0  0  0  0  0  0  0
   34.7170   30.7560   35.1790 C   0  0  0  0  0  0  0  0  0  0  0  0
   35.5900   31.6900   35.7070 C   0  0  0  0  0  0  0  0  0  0  0  0
   35.1650   32.4860   36.7470 C   0  0  0  0  0  0  0  0  0  0  0  0
   33.8940   32.3660   37.2670 C   0  0  0  0  0  0  0  0  0  0  0  0
   33.1100   31.4240   36.6880 C   0  0  0  0  0  0  0  0  0  0  0  0
   36.5920   31.8030   35.3150 H   0  0  0  0  0  0  0  0  0  0  0  0
   35.8570   33.2200   37.1580 H   0  0  0  0  0  0  0  0  0  0  0  0
   33.5240   32.9730   38.0830 H   0  0  0  0  0  0  0  0  0  0  0  0
   32.0970   31.3200   37.0930 H   0  0  0  0  0  0  0  0  0  0  0  0
   32.3440   29.4300   35.0510 S   0  0  0  0  0  0  0  0  0  0  0  0
   31.0880   30.3630   35.0120 O   0  0  0  0  0  0  0  0  0  0  0  0
   32.1420   28.3970   36.1290 O   0  0  0  0  0  0  0  0  0  0  0  0
   31.6790   28.5980   33.8630 C   0  0  0  0  0  0  0  0  0  0  0  0
   32.2370   28.4140   32.5810 F   0  0  0  0  0  0  0  0  0  0  0  0
   30.5840   29.3790   33.2610 F   0  0  0  0  0  0  0  0  0  0  0  0
   30.7010   27.5910   34.1140 F   0  0  0  0  0  0  0  0  0  0  0  0
  1 13  1  0  0  0  0
  1  6  1  0  0  0  0
  2  1  2  0  0  0  0
  3  2  1  0  0  0  0
  3  4  2  0  0  0  0
  4  5  1  0  0  0  0
  5  6  2  0  0  0  0
  5 27  1  0  0  0  0
  7  2  1  0  0  0  0
  8  3  1  0  0  0  0
  9 15  1  0  0  0  0
 10 16  1  0  0  0  0
 10  9  2  0  0  0  0
 11 10  1  0  0  0  0
 12 11  2  0  0  0  0
 12 13  1  0  0  0  0
 13 14  2  0  0  0  0
 14  9  1  0  0  0  0
 17 11  1  0  0  0  0
 17 25  1  0  0  0  0
 18 17  1  0  0  0  0
 19 18  1  0  0  0  0
 20 22  1  0  0  0  0
 20 18  1  0  0  0  0
 21 20  1  0  0  0  0
 22 24  1  0  0  0  0
 23 22  1  0  0  0  0
 24 25  1  0  0  0  0
 26 31  1  0  0  0  0
 27 26  2  0  0  0  0
 27 28  1  0  0  0  0
 28 29  2  0  0  0  0
 29 33  1  0  0  0  0
 29 30  1  0  0  0  0
 30 34  1  0  0  0  0
 31 35  1  0  0  0  0
 31 30  2  0  0  0  0
 32 28  1  0  0  0  0
 36 26  1  0  0  0  0
 36 38  2  0  0  0  0
 37 36  2  0  0  0  0
 39 42  1  0  0  0  0
 39 36  1  0  0  0  0
 40 39  1  0  0  0  0
 41 39  1  0  0  0  0
M  END
>  <minimizedAffinity>
-6.8270998

$$$$

 OpenBabel03272504293D

 42 45  0  0  0  0  0  0  0  0999 V2000
   38.2180   25.6600   33.6140 C   0  0  0  0  0  0  0  0  0  0  0  0
   38.0790   26.8900   34.1530 C   0  0  0  0  0  0  0  0  0  0  0  0
   38.9960   27.3920   34.9870 C   0  0  0  0  0  0  0  0  0  0  0  0
   40.0850   26.6400   35.2890 N   0  0  0  0  0  0  0  0  0  0  0  0
   40.2130   25.4320   34.7540 C   0  0  0  0  0  0  0  0  0  0  0  0
   39.3010   24.9230   33.9200 N   0  0  0  0  0  0  0  0  0  0  0  0
   37.1820   27.4330   33.8640 H   0  0  0  0  0  0  0  0  0  0  0  0
   38.8650   28.3810   35.4090 H   0  0  0  0  0  0  0  0  0  0  0  0
   35.6940   25.2450   30.9870 C   0  0  0  0  0  0  0  0  0  0  0  0
   35.4250   23.8740   31.0110 C   0  0  0  0  0  0  0  0  0  0  0  0
   36.1330   23.1000   31.9550 C   0  0  0  0  0  0  0  0  0  0  0  0
   37.0100   23.7590   32.7510 N   0  0  0  0  0  0  0  0  0  0  0  0
   37.2430   25.0820   32.7000 C   0  0  0  0  0  0  0  0  0  0  0  0
   36.5730   25.8110   31.8070 N   0  0  0  0  0  0  0  0  0  0  0  0
   35.1210   25.8050   30.2400 H   0  0  0  0  0  0  0  0  0  0  0  0
   34.7210   23.3650   30.3680 H   0  0  0  0  0  0  0  0  0  0  0  0
   35.9530   21.6690   32.0880 N   0  0  0  0  0  0  0  0  0  0  0  0
   36.1680   21.1390   33.4450 C   0  0  0  0  0  3  0  0  0  0  0  0
   35.4660   21.7010   34.1140 H   0  0  0  0  0  0  0  0  0  0  0  0
   35.8670   19.6790   33.4150 C   0  0  0  0  0  3  0  0  0  0  0  0
   35.4130   19.3920   34.3850 H   0  0  0  0  0  0  0  0  0  0  0  0
   34.9180   19.3350   32.3760 N   0  0  0  0  0  0  0  0  0  0  0  0
   34.1170   20.0260   32.4540 H   0  0  0  0  0  0  0  0  0  0  0  0
   35.4850   19.5430   31.0630 C   0  0  0  0  0  2  0  0  0  0  0  0
   35.5850   21.0240   30.8180 C   0  0  0  0  0  2  0  0  0  0  0  0
   41.3600   23.6600   36.0210 C   0  0  0  0  0  0  0  0  0  0  0  0
   41.4220   24.7350   35.1260 C   0  0  0  0  0  0  0  0  0  0  0  0
   42.5980   25.2100   34.5740 C   0  0  0  0  0  0  0  0  0  0  0  0
   43.7860   24.6030   34.9140 C   0  0  0  0  0  0  0  0  0  0  0  0
   43.8220   23.5370   35.7890 C   0  0  0  0  0  0  0  0  0  0  0  0
   42.6210   23.1410   36.2790 C   0  0  0  0  0  0  0  0  0  0  0  0
   42.5950   26.0440   33.8860 H   0  0  0  0  0  0  0  0  0  0  0  0
   44.7090   24.9810   34.4770 H   0  0  0  0  0  0  0  0  0  0  0  0
   44.7350   23.0360   36.0800 H   0  0  0  0  0  0  0  0  0  0  0  0
   42.6370   22.2940   36.9750 H   0  0  0  0  0  0  0  0  0  0  0  0
   39.9620   23.0450   36.6810 S   0  0  0  0  0  0  0  0  0  0  0  0
   40.6270   22.3770   37.9310 O   0  0  0  0  0  0  0  0  0  0  0  0
   39.4700   21.9570   35.7610 O   0  0  0  0  0  0  0  0  0  0  0  0
   38.6290   23.1780   37.5480 C   0  0  0  0  0  0  0  0  0  0  0  0
   37.3340   22.8280   37.1140 F   0  0  0  0  0  0  0  0  0  0  0  0
   38.2130   24.5900   37.6080 F   0  0  0  0  0  0  0  0  0  0  0  0
   38.6660   23.2220   38.9730 F   0  0  0  0  0  0  0  0  0  0  0  0
  1  6  2  0  0  0  0
  1  2  1  0  0  0  0
  2  3  2  0  0  0  0
  3  4  1  0  0  0  0
  3  8  1  0  0  0  0
  5 27  1  0  0  0  0
  5  4  2  0  0  0  0
  6  5  1  0  0  0  0
  7  2  1  0  0  0  0
  9 10  2  0  0  0  0
  9 14  1  0  0  0  0
 10 11  1  0  0  0  0
 11 17  1  0  0  0  0
 11 12  2  0  0  0  0
 13 12  1  0  0  0  0
 13  1  1  0  0  0  0
 14 13  2  0  0  0  0
 15  9  1  0  0  0  0
 16 10  1  0  0  0  0
 17 18  1  0  0  0  0
 18 19  1  0  0  0  0
 20 18  1  0  0  0  0
 20 21  1  0  0  0  0
 22 23  1  0  0  0  0
 22 20  1  0  0  0  0
 24 22  1  0  0  0  0
 25 24  1  0  0  0  0
 25 17  1  0  0  0  0
 26 31  1  0  0  0  0
 26 36  1  0  0  0  0
 27 26  2  0  0  0  0
 28 29  2  0  0  0  0
 28 27  1  0  0  0  0
 29 30  1  0  0  0  0
 30 34  1  0  0  0  0
 30 31  2  0  0  0  0
 31 35  1  0  0  0  0
 32 28  1  0  0  0  0
 33 29  1  0  0  0  0
 36 39  1  0  0  0  0
 36 37  2  0  0  0  0
 38 36  2  0  0  0  0
 39 41  1  0  0  0  0
 39 42  1  0  0  0  0
 40 39  1  0  0  0  0
M  END
>  <minimizedAffinity>
-6.6879425

$$$$

 OpenBabel03272504293D

 42 45  0  0  0  0  0  0  0  0999 V2000
   40.4120   25.9090   33.7300 C   0  0  0  0  0  0  0  0  0  0  0  0
   41.4260   26.7960   33.8110 C   0  0  0  0  0  0  0  0  0  0  0  0
   42.5230   26.5370   34.5300 C   0  0  0  0  0  0  0  0  0  0  0  0
   42.6070   25.3520   35.1880 N   0  0  0  0  0  0  0  0  0  0  0  0
   41.6040   24.4850   35.1020 C   0  0  0  0  0  0  0  0  0  0  0  0
   40.5040   24.7380   34.3860 N   0  0  0  0  0  0  0  0  0  0  0  0
   41.2870   27.7230   33.2580 H   0  0  0  0  0  0  0  0  0  0  0  0
   43.3250   27.2620   34.5820 H   0  0  0  0  0  0  0  0  0  0  0  0
   36.9590   25.8220   32.5000 C   0  0  0  0  0  0  0  0  0  0  0  0
   36.9780   26.7050   31.4180 C   0  0  0  0  0  0  0  0  0  0  0  0
   38.2100   27.3290   31.1240 C   0  0  0  0  0  0  0  0  0  0  0  0
   39.2610   27.0120   31.9200 N   0  0  0  0  0  0  0  0  0  0  0  0
   39.2040   26.1550   32.9540 C   0  0  0  0  0  0  0  0  0  0  0  0
   38.0400   25.5680   33.2290 N   0  0  0  0  0  0  0  0  0  0  0  0
   35.9830   25.3610   32.6890 H   0  0  0  0  0  0  0  0  0  0  0  0
   36.1300   26.9460   30.7930 H   0  0  0  0  0  0  0  0  0  0  0  0
   38.3730   28.2660   30.0320 N   0  0  0  0  0  0  0  0  0  0  0  0
   39.7150   28.2860   29.4250 C   0  0  0  0  0  3  0  0  0  0  0  0
   39.9230   27.2360   29.0930 H   0  0  0  0  0  0  0  0  0  0  0  0
   39.6800   29.2400   28.2800 C   0  0  0  0  0  3  0  0  0  0  0  0
   40.3460   28.8570   27.4800 H   0  0  0  0  0  0  0  0  0  0  0  0
   38.3540   29.3690   27.7110 N   0  0  0  0  0  0  0  0  0  0  0  0
   37.9850   28.3840   27.5750 H   0  0  0  0  0  0  0  0  0  0  0  0
   37.4460   29.9980   28.6430 C   0  0  0  0  0  2  0  0  0  0  0  0
   37.1430   29.0210   29.7460 C   0  0  0  0  0  2  0  0  0  0  0  0
   40.7840   22.7130   36.6000 C   0  0  0  0  0  0  0  0  0  0  0  0
   41.8150   23.2510   35.8210 C   0  0  0  0  0  0  0  0  0  0  0  0
   43.0700   22.6810   35.7050 C   0  0  0  0  0  0  0  0  0  0  0  0
   43.3390   21.5170   36.3900 C   0  0  0  0  0  0  0  0  0  0  0  0
   42.3840   20.9150   37.1820 C   0  0  0  0  0  0  0  0  0  0  0  0
   41.1850   21.5440   37.2350 C   0  0  0  0  0  0  0  0  0  0  0  0
   43.8350   23.1340   35.0900 H   0  0  0  0  0  0  0  0  0  0  0  0
   44.3290   21.0730   36.2950 H   0  0  0  0  0  0  0  0  0  0  0  0
   42.5590   20.0020   37.7360 H   0  0  0  0  0  0  0  0  0  0  0  0
   40.4170   21.0750   37.8620 H   0  0  0  0  0  0  0  0  0  0  0  0
   39.2550   23.3550   36.7390 S   0  0  0  0  0  0  0  0  0  0  0  0
   39.0810   23.0830   38.2710 O   0  0  0  0  0  0  0  0  0  0  0  0
   38.3170   22.4510   35.9820 O   0  0  0  0  0  0  0  0  0  0  0  0
   38.2450   24.5770   36.9110 C   0  0  0  0  0  0  0  0  0  0  0  0
   38.5230   25.9200   36.5810 F   0  0  0  0  0  0  0  0  0  0  0  0
   38.1600   24.9580   38.3310 F   0  0  0  0  0  0  0  0  0  0  0  0
   36.8340   24.3770   36.9730 F   0  0  0  0  0  0  0  0  0  0  0  0
  1  2  2  0  0  0  0
  1  6  1  0  0  0  0
  2  3  1  0  0  0  0
  3  8  1  0  0  0  0
  3  4  2  0  0  0  0
  5  4  1  0  0  0  0
  5 27  1  0  0  0  0
  6  5  2  0  0  0  0
  7  2  1  0  0  0  0
  9 15  1  0  0  0  0
  9 14  1  0  0  0  0
 10  9  2  0  0  0  0
 11 10  1  0  0  0  0
 11 12  2  0  0  0  0
 12 13  1  0  0  0  0
 13 14  2  0  0  0  0
 13  1  1  0  0  0  0
 16 10  1  0  0  0  0
 17 11  1  0  0  0  0
 18 17  1  0  0  0  0
 19 18  1  0  0  0  0
 20 18  1  0  0  0  0
 21 20  1  0  0  0  0
 22 20  1  0  0  0  0
 22 24  1  0  0  0  0
 23 22  1  0  0  0  0
 24 25  1  0  0  0  0
 25 17  1  0  0  0  0
 26 36  1  0  0  0  0
 26 31  1  0  0  0  0
 27 26  2  0  0  0  0
 28 27  1  0  0  0  0
 28 29  2  0  0  0  0
 29 30  1  0  0  0  0
 30 31  2  0  0  0  0
 30 34  1  0  0  0  0
 31 35  1  0  0  0  0
 32 28  1  0  0  0  0
 33 29  1  0  0  0  0
 36 39  1  0  0  0  0
 36 37  2  0  0  0  0
 38 36  2  0  0  0  0
 39 42  1  0  0  0  0
 39 41  1  0  0  0  0
 40 39  1  0  0  0  0
M  END
>  <minimizedAffinity>
-6.66040134

$$$$

 OpenBabel03272504293D

 42 45  0  0  0  0  0  0  0  0999 V2000
   36.3750   28.2030   33.5730 C   0  0  0  0  0  0  0  0  0  0  0  0
   36.3250   28.7190   32.3260 C   0  0  0  0  0  0  0  0  0  0  0  0
   35.7470   29.9000   32.0840 C   0  0  0  0  0  0  0  0  0  0  0  0
   35.2020   30.5850   33.1230 N   0  0  0  0  0  0  0  0  0  0  0  0
   35.2560   30.0690   34.3450 C   0  0  0  0  0  0  0  0  0  0  0  0
   35.8320   28.8890   34.5940 N   0  0  0  0  0  0  0  0  0  0  0  0
   36.7820   28.1130   31.5470 H   0  0  0  0  0  0  0  0  0  0  0  0
   35.7170   30.2960   31.0770 H   0  0  0  0  0  0  0  0  0  0  0  0
   37.8410   25.3540   35.3550 C   0  0  0  0  0  0  0  0  0  0  0  0
   38.1790   24.4680   34.3280 C   0  0  0  0  0  0  0  0  0  0  0  0
   37.8890   24.8790   33.0090 C   0  0  0  0  0  0  0  0  0  0  0  0
   37.3090   26.0960   32.8620 N   0  0  0  0  0  0  0  0  0  0  0  0
   37.0000   26.9220   33.8750 C   0  0  0  0  0  0  0  0  0  0  0  0
   37.2740   26.5320   35.1200 N   0  0  0  0  0  0  0  0  0  0  0  0
   38.0860   24.9930   36.3600 H   0  0  0  0  0  0  0  0  0  0  0  0
   38.6400   23.5010   34.4640 H   0  0  0  0  0  0  0  0  0  0  0  0
   38.1840   24.0610   31.8510 N   0  0  0  0  0  0  0  0  0  0  0  0
   38.4860   24.8120   30.6210 C   0  0  0  0  0  3  0  0  0  0  0  0
   39.3450   25.4870   30.8700 H   0  0  0  0  0  0  0  0  0  0  0  0
   38.8390   23.8230   29.5620 C   0  0  0  0  0  3  0  0  0  0  0  0
   39.6190   24.2670   28.9090 H   0  0  0  0  0  0  0  0  0  0  0  0
   39.3830   22.5990   30.1110 N   0  0  0  0  0  0  0  0  0  0  0  0
   40.1200   22.8840   30.8180 H   0  0  0  0  0  0  0  0  0  0  0  0
   38.3820   21.8760   30.8640 C   0  0  0  0  0  2  0  0  0  0  0  0
   38.1200   22.6200   32.1440 C   0  0  0  0  0  2  0  0  0  0  0  0
   33.3110   30.7620   35.6840 C   0  0  0  0  0  0  0  0  0  0  0  0
   34.6680   30.8970   35.3720 C   0  0  0  0  0  0  0  0  0  0  0  0
   35.5100   31.8110   35.9780 C   0  0  0  0  0  0  0  0  0  0  0  0
   34.9990   32.6480   36.9460 C   0  0  0  0  0  0  0  0  0  0  0  0
   33.6730   32.5860   37.3180 C   0  0  0  0  0  0  0  0  0  0  0  0
   32.9240   31.6600   36.6700 C   0  0  0  0  0  0  0  0  0  0  0  0
   36.5540   31.8780   35.7040 H   0  0  0  0  0  0  0  0  0  0  0  0
   35.6660   33.3660   37.4200 H   0  0  0  0  0  0  0  0  0  0  0  0
   33.2350   33.2260   38.0720 H   0  0  0  0  0  0  0  0  0  0  0  0
   31.8680   31.6010   36.9570 H   0  0  0  0  0  0  0  0  0  0  0  0
   32.2760   29.6540   34.9960 S   0  0  0  0  0  0  0  0  0  0  0  0
   30.9600   30.4750   35.2090 O   0  0  0  0  0  0  0  0  0  0  0  0
   32.2420   28.4490   35.9000 O   0  0  0  0  0  0  0  0  0  0  0  0
   31.5660   28.9710   33.7410 C   0  0  0  0  0  0  0  0  0  0  0  0
   31.0800   27.6480   33.6980 F   0  0  0  0  0  0  0  0  0  0  0  0
   32.5770   28.6190   32.7280 F   0  0  0  0  0  0  0  0  0  0  0  0
   30.9450   29.7480   32.7200 F   0  0  0  0  0  0  0  0  0  0  0  0
  1 13  1  0  0  0  0
  1  6  1  0  0  0  0
  2  1  2  0  0  0  0
  3  2  1  0  0  0  0
  3  4  2  0  0  0  0
  4  5  1  0  0  0  0
  5  6  2  0  0  0  0
  5 27  1  0  0  0  0
  7  2  1  0  0  0  0
  8  3  1  0  0  0  0
  9 15  1  0  0  0  0
 10 16  1  0  0  0  0
 10  9  2  0  0  0  0
 11 10  1  0  0  0  0
 12 11  2  0  0  0  0
 12 13  1  0  0  0  0
 13 14  2  0  0  0  0
 14  9  1  0  0  0  0
 17 25  1  0  0  0  0
 17 11  1  0  0  0  0
 18 19  1  0  0  0  0
 18 17  1  0  0  0  0
 20 22  1  0  0  0  0
 20 18  1  0  0  0  0
 21 20  1  0  0  0  0
 22 23  1  0  0  0  0
 22 24  1  0  0  0  0
 24 25  1  0  0  0  0
 26 31  1  0  0  0  0
 27 26  2  0  0  0  0
 27 28  1  0  0  0  0
 28 29  2  0  0  0  0
 29 30  1  0  0  0  0
 29 33  1  0  0  0  0
 30 34  1  0  0  0  0
 31 35  1  0  0  0  0
 31 30  2  0  0  0  0
 32 28  1  0  0  0  0
 36 37  2  0  0  0  0
 36 26  1  0  0  0  0
 36 38  2  0  0  0  0
 39 36  1  0  0  0  0
 40 39  1  0  0  0  0
 41 39  1  0  0  0  0
 42 39  1  0  0  0  0
M  END
>  <minimizedAffinity>
-6.58570004

$$$$

 OpenBabel03272504293D

 42 45  0  0  0  0  0  0  0  0999 V2000
   37.7390   27.1010   34.0550 C   0  0  0  0  0  0  0  0  0  0  0  0
   38.6360   27.5370   34.9650 C   0  0  0  0  0  0  0  0  0  0  0  0
   39.6620   26.7720   35.3530 C   0  0  0  0  0  0  0  0  0  0  0  0
   39.7940   25.5330   34.8120 N   0  0  0  0  0  0  0  0  0  0  0  0
   38.9060   25.1140   33.9180 C   0  0  0  0  0  0  0  0  0  0  0  0
   37.8780   25.8730   33.5260 N   0  0  0  0  0  0  0  0  0  0  0  0
   38.4660   28.5390   35.3530 H   0  0  0  0  0  0  0  0  0  0  0  0
   40.3710   27.1400   36.0840 H   0  0  0  0  0  0  0  0  0  0  0  0
   34.9900   28.4730   32.0550 C   0  0  0  0  0  0  0  0  0  0  0  0
   34.4780   29.4910   32.8630 C   0  0  0  0  0  0  0  0  0  0  0  0
   35.1050   29.6920   34.1120 C   0  0  0  0  0  0  0  0  0  0  0  0
   36.1460   28.8770   34.4110 N   0  0  0  0  0  0  0  0  0  0  0  0
   36.6130   27.9070   33.6060 C   0  0  0  0  0  0  0  0  0  0  0  0
   36.0190   27.7200   32.4270 N   0  0  0  0  0  0  0  0  0  0  0  0
   34.4730   28.3560   31.0950 H   0  0  0  0  0  0  0  0  0  0  0  0
   33.6450   30.1320   32.6090 H   0  0  0  0  0  0  0  0  0  0  0  0
   34.6770   30.7100   35.0490 N   0  0  0  0  0  0  0  0  0  0  0  0
   35.7450   31.2590   35.9010 C   0  0  0  0  0  3  0  0  0  0  0  0
   36.5290   31.6530   35.2040 H   0  0  0  0  0  0  0  0  0  0  0  0
   35.1470   32.3370   36.7390 C   0  0  0  0  0  3  0  0  0  0  0  0
   35.9050   33.1330   36.8850 H   0  0  0  0  0  0  0  0  0  0  0  0
   33.9960   32.9490   36.1100 N   0  0  0  0  0  0  0  0  0  0  0  0
   34.2760   33.1670   35.1100 H   0  0  0  0  0  0  0  0  0  0  0  0
   32.8970   32.0140   36.0100 C   0  0  0  0  0  2  0  0  0  0  0  0
   33.2360   30.9930   34.9580 C   0  0  0  0  0  2  0  0  0  0  0  0
   38.9020   22.6670   34.1840 C   0  0  0  0  0  0  0  0  0  0  0  0
   39.1610   23.7920   33.3940 C   0  0  0  0  0  0  0  0  0  0  0  0
   39.6830   23.7310   32.1140 C   0  0  0  0  0  0  0  0  0  0  0  0
   39.9730   22.4990   31.5710 C   0  0  0  0  0  0  0  0  0  0  0  0
   39.7510   21.3360   32.2770 C   0  0  0  0  0  0  0  0  0  0  0  0
   39.2370   21.4930   33.5220 C   0  0  0  0  0  0  0  0  0  0  0  0
   39.8650   24.6300   31.5410 H   0  0  0  0  0  0  0  0  0  0  0  0
   40.3840   22.4570   30.5640 H   0  0  0  0  0  0  0  0  0  0  0  0
   39.9670   20.3510   31.8850 H   0  0  0  0  0  0  0  0  0  0  0  0
   39.0570   20.5750   34.0920 H   0  0  0  0  0  0  0  0  0  0  0  0
   38.2490   22.7020   35.7140 S   0  0  0  0  0  0  0  0  0  0  0  0
   39.4850   22.0930   36.4560 O   0  0  0  0  0  0  0  0  0  0  0  0
   37.1270   21.6960   35.7470 O   0  0  0  0  0  0  0  0  0  0  0  0
   37.8800   23.4430   37.0780 C   0  0  0  0  0  0  0  0  0  0  0  0
   37.7510   24.8370   37.2420 F   0  0  0  0  0  0  0  0  0  0  0  0
   39.0550   23.4600   37.9680 F   0  0  0  0  0  0  0  0  0  0  0  0
   37.2020   22.7670   38.1350 F   0  0  0  0  0  0  0  0  0  0  0  0
  1  2  1  0  0  0  0
  2  7  1  0  0  0  0
  2  3  2  0  0  0  0
  3  8  1  0  0  0  0
  4  3  1  0  0  0  0
  5  4  2  0  0  0  0
  6  5  1  0  0  0  0
  6  1  2  0  0  0  0
  9 14  2  0  0  0  0
  9 10  1  0  0  0  0
 10 11  2  0  0  0  0
 11 12  1  0  0  0  0
 11 17  1  0  0  0  0
 13  1  1  0  0  0  0
 13 12  2  0  0  0  0
 14 13  1  0  0  0  0
 15  9  1  0  0  0  0
 16 10  1  0  0  0  0
 17 18  1  0  0  0  0
 18 20  1  0  0  0  0
 19 18  1  0  0  0  0
 20 21  1  0  0  0  0
 22 20  1  0  0  0  0
 23 22  1  0  0  0  0
 24 22  1  0  0  0  0
 25 17  1  0  0  0  0
 25 24  1  0  0  0  0
 26 36  1  0  0  0  0
 27  5  1  0  0  0  0
 27 26  2  0  0  0  0
 28 27  1  0  0  0  0
 29 28  2  0  0  0  0
 29 30  1  0  0  0  0
 30 31  2  0  0  0  0
 31 35  1  0  0  0  0
 31 26  1  0  0  0  0
 32 28  1  0  0  0  0
 33 29  1  0  0  0  0
 34 30  1  0  0  0  0
 36 38  2  0  0  0  0
 36 37  2  0  0  0  0
 36 39  1  0  0  0  0
 39 40  1  0  0  0  0
 39 41  1  0  0  0  0
 39 42  1  0  0  0  0
M  END
>  <minimizedAffinity>
-6.36836863

$$$$

 OpenBabel03272504293D

 42 45  0  0  0  0  0  0  0  0999 V2000
   35.0590   29.6960   31.9430 C   0  0  0  0  0  0  0  0  0  0  0  0
   34.5790   30.6580   31.1270 C   0  0  0  0  0  0  0  0  0  0  0  0
   33.4720   31.3430   31.4330 C   0  0  0  0  0  0  0  0  0  0  0  0
   32.8270   31.0560   32.5930 N   0  0  0  0  0  0  0  0  0  0  0  0
   33.3070   30.1080   33.3900 C   0  0  0  0  0  0  0  0  0  0  0  0
   34.4120   29.4190   33.0900 N   0  0  0  0  0  0  0  0  0  0  0  0
   35.1490   30.8310   30.2170 H   0  0  0  0  0  0  0  0  0  0  0  0
   33.1040   32.1110   30.7640 H   0  0  0  0  0  0  0  0  0  0  0  0
   37.8650   28.1240   30.1840 C   0  0  0  0  0  0  0  0  0  0  0  0
   38.5560   27.4630   31.2020 C   0  0  0  0  0  0  0  0  0  0  0  0
   38.0290   27.5710   32.5070 C   0  0  0  0  0  0  0  0  0  0  0  0
   36.9010   28.3090   32.6510 N   0  0  0  0  0  0  0  0  0  0  0  0
   36.2620   28.9320   31.6450 C   0  0  0  0  0  0  0  0  0  0  0  0
   36.7620   28.8270   30.4140 N   0  0  0  0  0  0  0  0  0  0  0  0
   38.3100   28.0110   29.1890 H   0  0  0  0  0  0  0  0  0  0  0  0
   39.4560   26.8780   31.0690 H   0  0  0  0  0  0  0  0  0  0  0  0
   38.6440   26.9380   33.6550 N   0  0  0  0  0  0  0  0  0  0  0  0
   37.7090   26.5450   34.7230 C   0  0  0  0  0  3  0  0  0  0  0  0
   36.9530   25.8710   34.2440 H   0  0  0  0  0  0  0  0  0  0  0  0
   38.4940   25.8460   35.7790 C   0  0  0  0  0  3  0  0  0  0  0  0
   37.8640   25.0450   36.2170 H   0  0  0  0  0  0  0  0  0  0  0  0
   39.6860   25.2150   35.2510 N   0  0  0  0  0  0  0  0  0  0  0  0
   39.3880   24.6770   34.3870 H   0  0  0  0  0  0  0  0  0  0  0  0
   40.6360   26.2010   34.7860 C   0  0  0  0  0  2  0  0  0  0  0  0
   40.1040   26.8130   33.5190 C   0  0  0  0  0  2  0  0  0  0  0  0
   32.8900   30.6240   35.7600 C   0  0  0  0  0  0  0  0  0  0  0  0
   32.5530   29.9080   34.6050 C   0  0  0  0  0  0  0  0  0  0  0  0
   31.5340   28.9750   34.5480 C   0  0  0  0  0  0  0  0  0  0  0  0
   30.7980   28.7200   35.6840 C   0  0  0  0  0  0  0  0  0  0  0  0
   31.0590   29.3780   36.8680 C   0  0  0  0  0  0  0  0  0  0  0  0
   32.0750   30.2750   36.8290 C   0  0  0  0  0  0  0  0  0  0  0  0
   31.3100   28.4460   33.6310 H   0  0  0  0  0  0  0  0  0  0  0  0
   29.9980   27.9850   35.6330 H   0  0  0  0  0  0  0  0  0  0  0  0
   30.5040   29.2050   37.7800 H   0  0  0  0  0  0  0  0  0  0  0  0
   32.2920   30.8040   37.7640 H   0  0  0  0  0  0  0  0  0  0  0  0
   34.0890   31.7730   35.8570 S   0  0  0  0  0  0  0  0  0  0  0  0
   34.1680   31.8250   37.4200 O   0  0  0  0  0  0  0  0  0  0  0  0
   33.5080   33.0730   35.3630 O   0  0  0  0  0  0  0  0  0  0  0  0
   35.6180   32.2280   35.8330 C   0  0  0  0  0  0  0  0  0  0  0  0
   36.0800   33.5510   35.9860 F   0  0  0  0  0  0  0  0  0  0  0  0
   36.1160   32.2280   34.4470 F   0  0  0  0  0  0  0  0  0  0  0  0
   36.6740   31.3120   36.1170 F   0  0  0  0  0  0  0  0  0  0  0  0
  1  6  1  0  0  0  0
  2  3  1  0  0  0  0
  2  1  2  0  0  0  0
  3  4  2  0  0  0  0
  4  5  1  0  0  0  0
  5 27  1  0  0  0  0
  6  5  2  0  0  0  0
  7  2  1  0  0  0  0
  8  3  1  0  0  0  0
  9 14  2  0  0  0  0
  9 10  1  0  0  0  0
 10 11  2  0  0  0  0
 11 12  1  0  0  0  0
 11 17  1  0  0  0  0
 13  1  1  0  0  0  0
 13 12  2  0  0  0  0
 14 13  1  0  0  0  0
 15  9  1  0  0  0  0
 16 10  1  0  0  0  0
 17 18  1  0  0  0  0
 18 20  1  0  0  0  0
 19 18  1  0  0  0  0
 20 21  1  0  0  0  0
 22 20  1  0  0  0  0
 23 22  1  0  0  0  0
 24 22  1  0  0  0  0
 25 17  1  0  0  0  0
 25 24  1  0  0  0  0
 26 36  1  0  0  0  0
 26 31  1  0  0  0  0
 27 26  2  0  0  0  0
 28 27  1  0  0  0  0
 28 29  2  0  0  0  0
 29 30  1  0  0  0  0
 30 34  1  0  0  0  0
 31 30  2  0  0  0  0
 31 35  1  0  0  0  0
 32 28  1  0  0  0  0
 33 29  1  0  0  0  0
 36 37  2  0  0  0  0
 38 36  2  0  0  0  0
 39 36  1  0  0  0  0
 39 40  1  0  0  0  0
 39 42  1  0  0  0  0
 41 39  1  0  0  0  0
M  END
>  <minimizedAffinity>
-6.32230091

$$$$

 OpenBabel03272504293D

 42 45  0  0  0  0  0  0  0  0999 V2000
   35.9860   28.5920   33.6310 C   0  0  0  0  0  0  0  0  0  0  0  0
   36.2060   29.0870   32.3950 C   0  0  0  0  0  0  0  0  0  0  0  0
   35.3370   29.9220   31.8150 C   0  0  0  0  0  0  0  0  0  0  0  0
   34.2150   30.2720   32.4940 N   0  0  0  0  0  0  0  0  0  0  0  0
   34.0080   29.7800   33.7100 C   0  0  0  0  0  0  0  0  0  0  0  0
   34.8720   28.9450   34.2960 N   0  0  0  0  0  0  0  0  0  0  0  0
   37.1260   28.7620   31.9140 H   0  0  0  0  0  0  0  0  0  0  0  0
   35.5330   30.3080   30.8220 H   0  0  0  0  0  0  0  0  0  0  0  0
   38.4460   27.1770   35.9530 C   0  0  0  0  0  0  0  0  0  0  0  0
   38.6280   25.8760   35.4780 C   0  0  0  0  0  0  0  0  0  0  0  0
   37.8830   25.5010   34.3390 C   0  0  0  0  0  0  0  0  0  0  0  0
   37.0600   26.4400   33.8120 N   0  0  0  0  0  0  0  0  0  0  0  0
   36.9110   27.6850   34.2960 C   0  0  0  0  0  0  0  0  0  0  0  0
   37.6150   28.0360   35.3720 N   0  0  0  0  0  0  0  0  0  0  0  0
   39.0450   27.4230   36.8370 H   0  0  0  0  0  0  0  0  0  0  0  0
   39.2900   25.1390   35.9130 H   0  0  0  0  0  0  0  0  0  0  0  0
   37.9730   24.1850   33.7420 N   0  0  0  0  0  0  0  0  0  0  0  0
   37.7420   24.1440   32.2890 C   0  0  0  0  0  3  0  0  0  0  0  0
   38.4870   24.8470   31.8350 H   0  0  0  0  0  0  0  0  0  0  0  0
   37.9490   22.7390   31.8360 C   0  0  0  0  0  3  0  0  0  0  0  0
   38.3960   22.7570   30.8210 H   0  0  0  0  0  0  0  0  0  0  0  0
   38.8610   22.0130   32.6950 N   0  0  0  0  0  0  0  0  0  0  0  0
   39.7050   22.6380   32.8410 H   0  0  0  0  0  0  0  0  0  0  0  0
   38.2930   21.8140   34.0100 C   0  0  0  0  0  2  0  0  0  0  0  0
   38.2840   23.1360   34.7280 C   0  0  0  0  0  2  0  0  0  0  0  0
   32.8470   31.3010   35.2580 C   0  0  0  0  0  0  0  0  0  0  0  0
   32.7960   30.2410   34.3460 C   0  0  0  0  0  0  0  0  0  0  0  0
   31.6360   29.5650   34.0150 C   0  0  0  0  0  0  0  0  0  0  0  0
   30.4520   29.9420   34.6110 C   0  0  0  0  0  0  0  0  0  0  0  0
   30.4070   30.9750   35.5230 C   0  0  0  0  0  0  0  0  0  0  0  0
   31.5930   31.5790   35.7840 C   0  0  0  0  0  0  0  0  0  0  0  0
   31.6460   28.7510   33.3030 H   0  0  0  0  0  0  0  0  0  0  0  0
   29.5420   29.4060   34.3480 H   0  0  0  0  0  0  0  0  0  0  0  0
   29.4980   31.2990   36.0120 H   0  0  0  0  0  0  0  0  0  0  0  0
   31.5690   32.4020   36.5080 H   0  0  0  0  0  0  0  0  0  0  0  0
   34.2190   32.1540   35.6570 S   0  0  0  0  0  0  0  0  0  0  0  0
   34.2430   31.7660   37.1740 O   0  0  0  0  0  0  0  0  0  0  0  0
   33.8860   33.6200   35.5430 O   0  0  0  0  0  0  0  0  0  0  0  0
   35.8030   32.3260   35.7460 C   0  0  0  0  0  0  0  0  0  0  0  0
   36.4820   33.5400   35.9730 F   0  0  0  0  0  0  0  0  0  0  0  0
   36.3870   32.2660   34.3950 F   0  0  0  0  0  0  0  0  0  0  0  0
   36.6560   31.2280   36.0650 F   0  0  0  0  0  0  0  0  0  0  0  0
  1 13  1  0  0  0  0
  1  6  1  0  0  0  0
  2  1  2  0  0  0  0
  3  2  1  0  0  0  0
  3  4  2  0  0  0  0
  4  5  1  0  0  0  0
  5  6  2  0  0  0  0
  5 27  1  0  0  0  0
  7  2  1  0  0  0  0
  8  3  1  0  0  0  0
  9 15  1  0  0  0  0
 10 16  1  0  0  0  0
 10  9  1  0  0  0  0
 11 10  2  0  0  0  0
 12 13  2  0  0  0  0
 12 11  1  0  0  0  0
 13 14  1  0  0  0  0
 14  9  2  0  0  0  0
 17 11  1  0  0  0  0
 17 25  1  0  0  0  0
 18 17  1  0  0  0  0
 19 18  1  0  0  0  0
 20 18  1  0  0  0  0
 20 22  1  0  0  0  0
 21 20  1  0  0  0  0
 22 23  1  0  0  0  0
 22 24  1  0  0  0  0
 24 25  1  0  0  0  0
 26 36  1  0  0  0  0
 26 31  1  0  0  0  0
 27 26  2  0  0  0  0
 28 27  1  0  0  0  0
 28 29  2  0  0  0  0
 29 30  1  0  0  0  0
 30 31  2  0  0  0  0
 30 34  1  0  0  0  0
 31 35  1  0  0  0  0
 32 28  1  0  0  0  0
 33 29  1  0  0  0  0
 36 39  1  0  0  0  0
 36 37  2  0  0  0  0
 38 36  2  0  0  0  0
 39 40  1  0  0  0  0
 39 42  1  0  0  0  0
 41 39  1  0  0  0  0
M  END
>  <minimizedAffinity>
-6.28588676

$$$$

 OpenBabel03272504293D

 42 45  0  0  0  0  0  0  0  0999 V2000
   35.8000   28.5760   32.2250 C   0  0  0  0  0  0  0  0  0  0  0  0
   36.7190   29.1200   31.4000 C   0  0  0  0  0  0  0  0  0  0  0  0
   37.6540   28.3680   30.8080 C   0  0  0  0  0  0  0  0  0  0  0  0
   37.6670   27.0320   31.0500 N   0  0  0  0  0  0  0  0  0  0  0  0
   36.7580   26.5070   31.8630 C   0  0  0  0  0  0  0  0  0  0  0  0
   35.8210   27.2520   32.4580 N   0  0  0  0  0  0  0  0  0  0  0  0
   36.6460   30.1950   31.2550 H   0  0  0  0  0  0  0  0  0  0  0  0
   38.3830   28.8240   30.1500 H   0  0  0  0  0  0  0  0  0  0  0  0
   32.5510   29.8480   33.3500 C   0  0  0  0  0  0  0  0  0  0  0  0
   32.8920   30.9120   34.1890 C   0  0  0  0  0  0  0  0  0  0  0  0
   34.2690   31.1790   34.3550 C   0  0  0  0  0  0  0  0  0  0  0  0
   35.1310   30.3770   33.6840 N   0  0  0  0  0  0  0  0  0  0  0  0
   34.7650   29.3610   32.8830 C   0  0  0  0  0  0  0  0  0  0  0  0
   33.4640   29.1120   32.7290 N   0  0  0  0  0  0  0  0  0  0  0  0
   31.4720   29.6800   33.2510 H   0  0  0  0  0  0  0  0  0  0  0  0
   32.1900   31.5420   34.7170 H   0  0  0  0  0  0  0  0  0  0  0  0
   34.7640   32.2500   35.1950 N   0  0  0  0  0  0  0  0  0  0  0  0
   36.0410   32.8400   34.7610 C   0  0  0  0  0  3  0  0  0  0  0  0
   35.8810   33.1910   33.7090 H   0  0  0  0  0  0  0  0  0  0  0  0
   36.3570   33.9660   35.6850 C   0  0  0  0  0  3  0  0  0  0  0  0
   36.8650   34.7660   35.1080 H   0  0  0  0  0  0  0  0  0  0  0  0
   35.1670   34.5480   36.2710 N   0  0  0  0  0  0  0  0  0  0  0  0
   34.4840   34.7090   35.4760 H   0  0  0  0  0  0  0  0  0  0  0  0
   34.5140   33.6140   37.1610 C   0  0  0  0  0  2  0  0  0  0  0  0
   33.8730   32.5350   36.3320 C   0  0  0  0  0  2  0  0  0  0  0  0
   37.5550   24.5420   33.1110 C   0  0  0  0  0  0  0  0  0  0  0  0
   36.8530   25.0750   32.0250 C   0  0  0  0  0  0  0  0  0  0  0  0
   36.2450   24.3070   31.0490 C   0  0  0  0  0  0  0  0  0  0  0  0
   36.3270   22.9340   31.1350 C   0  0  0  0  0  0  0  0  0  0  0  0
   36.9980   22.3210   32.1700 C   0  0  0  0  0  0  0  0  0  0  0  0
   37.5620   23.1540   33.0800 C   0  0  0  0  0  0  0  0  0  0  0  0
   35.7130   24.7650   30.2270 H   0  0  0  0  0  0  0  0  0  0  0  0
   35.8460   22.3350   30.3640 H   0  0  0  0  0  0  0  0  0  0  0  0
   37.0840   21.2470   32.2710 H   0  0  0  0  0  0  0  0  0  0  0  0
   38.0980   22.6770   33.9080 H   0  0  0  0  0  0  0  0  0  0  0  0
   38.2740   25.4350   34.3180 S   0  0  0  0  0  0  0  0  0  0  0  0
   39.6790   25.5620   33.6410 O   0  0  0  0  0  0  0  0  0  0  0  0
   38.4010   24.5410   35.5250 O   0  0  0  0  0  0  0  0  0  0  0  0
   38.5860   26.8090   35.0660 C   0  0  0  0  0  0  0  0  0  0  0  0
   39.8600   27.2370   35.4910 F   0  0  0  0  0  0  0  0  0  0  0  0
   38.1620   26.7170   36.4740 F   0  0  0  0  0  0  0  0  0  0  0  0
   37.7080   27.9280   34.9690 F   0  0  0  0  0  0  0  0  0  0  0  0
  1  6  1  0  0  0  0
  1 13  1  0  0  0  0
  2  1  2  0  0  0  0
  3  4  2  0  0  0  0
  3  2  1  0  0  0  0
  4  5  1  0  0  0  0
  5 27  1  0  0  0  0
  5  6  2  0  0  0  0
  7  2  1  0  0  0  0
  8  3  1  0  0  0  0
  9 10  1  0  0  0  0
 10 11  2  0  0  0  0
 10 16  1  0  0  0  0
 11 17  1  0  0  0  0
 12 11  1  0  0  0  0
 13 12  2  0  0  0  0
 14 13  1  0  0  0  0
 14  9  2  0  0  0  0
 15  9  1  0  0  0  0
 17 25  1  0  0  0  0
 18 17  1  0  0  0  0
 18 20  1  0  0  0  0
 19 18  1  0  0  0  0
 20 22  1  0  0  0  0
 21 20  1  0  0  0  0
 22 24  1  0  0  0  0
 23 22  1  0  0  0  0
 25 24  1  0  0  0  0
 26 36  1  0  0  0  0
 27 26  2  0  0  0  0
 28 29  2  0  0  0  0
 28 27  1  0  0  0  0
 29 30  1  0  0  0  0
 30 34  1  0  0  0  0
 30 31  2  0  0  0  0
 31 26  1  0  0  0  0
 31 35  1  0  0  0  0
 32 28  1  0  0  0  0
 33 29  1  0  0  0  0
 36 39  1  0  0  0  0
 36 38  2  0  0  0  0
 37 36  2  0  0  0  0
 39 40  1  0  0  0  0
 39 41  1  0  0  0  0
 42 39  1  0  0  0  0
M  END
>  <minimizedAffinity>
-6.23841095

$$$$
