
 OpenBabel03272510253D

 45 49  0  0  1  0  0  0  0  0999 V2000
   39.5290   33.5980   43.5190 O   0  0  0  0  0  0  0  0  0  0  0  0
   36.1790   30.2580   47.0470 C   0  0  0  0  0  0  0  0  0  0  0  0
   37.0510   30.7540   48.0110 C   0  0  0  0  0  0  0  0  0  0  0  0
   38.0810   31.6330   47.6660 C   0  0  0  0  0  0  0  0  0  0  0  0
   38.1710   31.9680   46.3220 C   0  0  0  0  0  0  0  0  0  0  0  0
   39.0900   32.8080   45.7420 N   0  0  0  0  0  0  0  0  0  0  0  0
   38.7980   32.8380   44.4330 C   0  0  0  0  0  0  0  0  0  0  0  0
   37.7580   32.0660   44.1900 N   0  0  0  0  0  0  0  0  0  0  0  0
   37.3340   31.5040   45.3350 C   0  0  0  0  0  0  0  0  0  0  0  0
   36.3120   30.6250   45.7120 C   0  0  0  0  0  0  0  0  0  0  0  0
   35.3710   29.5700   47.3100 H   0  0  0  0  0  0  0  0  0  0  0  0
   38.7590   32.0210   48.4040 H   0  0  0  0  0  0  0  0  0  0  0  0
   39.8670   33.3200   46.2500 H   0  0  0  0  0  0  0  0  0  0  0  0
   35.6550   30.2620   44.9340 H   0  0  0  0  0  0  0  0  0  0  0  0
   37.4080   30.0660   51.6840 C   0  0  0  0  0  0  0  0  0  0  0  0
   37.7470   30.5390   50.4170 C   0  0  0  0  0  0  0  0  0  0  0  0
   36.8540   30.3290   49.3810 C   0  0  0  0  0  0  0  0  0  0  0  0
   35.6930   29.6660   49.6760 N   0  0  0  0  0  0  0  0  0  0  0  0
   35.3850   29.2170   50.9050 C   0  0  0  0  0  0  0  0  0  0  0  0
   36.2410   29.4200   51.8910 N   0  0  0  0  0  0  0  0  0  0  0  0
   38.1650   30.2680   52.4570 H   0  0  0  0  0  0  0  0  0  0  0  0
   38.6580   31.0570   50.1930 H   0  0  0  0  0  0  0  0  0  0  0  0
   34.4600   28.7010   51.0910 H   0  0  0  0  0  0  0  0  0  0  0  0
   39.5140   31.6270   42.3210 N   0  0  0  0  0  0  0  0  0  0  0  0
   39.6070   33.0740   42.2010 C   0  0  1  0  0  0  0  0  0  0  0  0
   38.5240   33.5870   41.3780 C   0  0  0  0  0  0  0  0  0  0  0  0
   38.6560   33.0580   40.0820 O   0  0  0  0  0  0  0  0  0  0  0  0
   38.7200   31.6980   40.0060 C   0  0  0  0  0  0  0  0  0  0  0  0
   39.7390   31.1390   40.9830 C   0  0  2  0  0  0  0  0  0  0  0  0
   38.6340   31.2330   42.6100 H   0  0  0  0  0  0  0  0  0  0  0  0
   40.5850   33.2830   41.7390 H   0  0  0  0  0  0  0  0  0  0  0  0
   37.4930   33.4940   41.5840 H   0  0  0  0  0  0  0  0  0  0  0  0
   38.7200   34.6920   41.2200 H   0  0  0  0  0  0  0  0  0  0  0  0
   39.1150   31.4540   38.9990 H   0  0  0  0  0  0  0  0  0  0  0  0
   37.6910   31.3110   40.1910 H   0  0  0  0  0  0  0  0  0  0  0  0
   40.7160   31.6090   40.6650 H   0  0  0  0  0  0  0  0  0  0  0  0
   39.9180   29.7350   40.8930 N   0  0  1  0  0  0  0  0  0  0  0  0
   40.3450   29.1290   42.1440 C   0  0  0  0  0  3  0  0  0  0  0  0
   39.8600   29.5310   43.0330 H   0  0  0  0  0  0  0  0  0  0  0  0
   40.0870   27.6450   42.0720 C   0  0  0  0  0  3  0  0  0  0  0  0
   39.0810   27.3510   42.4200 H   0  0  0  0  0  0  0  0  0  0  0  0
   40.3240   27.1080   40.7480 N   0  0  0  0  0  0  0  0  0  0  0  0
   41.3510   27.2430   40.5490 H   0  0  0  0  0  0  0  0  0  0  0  0
   39.4580   27.6990   39.7710 C   0  0  0  0  0  2  0  0  0  0  0  0
   38.8380   28.9730   40.3630 C   0  0  0  0  0  2  0  0  0  0  0  0
  1  7  1  0  0  0  0
  2 11  1  0  0  0  0
  2  3  1  0  0  0  0
  3 17  1  0  0  0  0
  4  3  2  0  0  0  0
  4 12  1  0  0  0  0
  5  4  1  0  0  0  0
  6 13  1  0  0  0  0
  6  5  1  0  0  0  0
  7  6  1  0  0  0  0
  8  7  2  0  0  0  0
  8  9  1  0  0  0  0
  9 10  1  0  0  0  0
  9  5  2  0  0  0  0
 10  2  2  0  0  0  0
 14 10  1  0  0  0  0
 15 20  1  0  0  0  0
 15 21  1  0  0  0  0
 16 15  2  0  0  0  0
 17 18  2  0  0  0  0
 17 16  1  0  0  0  0
 18 19  1  0  0  0  0
 19 23  1  0  0  0  0
 19 20  2  0  0  0  0
 22 16  1  0  0  0  0
 24 30  1  0  0  0  0
 25 31  1  6  0  0  0
 25 24  1  0  0  0  0
 25  1  1  0  0  0  0
 26 32  1  0  0  0  0
 26 25  1  0  0  0  0
 27 26  1  0  0  0  0
 28 27  1  0  0  0  0
 28 35  1  0  0  0  0
 28 29  1  0  0  0  0
 29 36  1  6  0  0  0
 29 24  1  0  0  0  0
 33 26  1  0  0  0  0
 34 28  1  0  0  0  0
 37 45  1  1  0  0  0
 37 29  1  0  0  0  0
 37 38  1  0  0  0  0
 38 39  1  0  0  0  0
 40 38  1  0  0  0  0
 40 41  1  0  0  0  0
 42 40  1  0  0  0  0
 43 42  1  0  0  0  0
 44 45  1  0  0  0  0
 44 42  1  0  0  0  0
M  END
>  <minimizedAffinity>
-6.0538044

>  <minimizedRMSD>
0.819004774

$$$$
