
 OpenBabel03272510253D

 45 49  0  0  1  0  0  0  0  0999 V2000
   39.5440   33.6430   43.5010 O   0  0  0  0  0  0  0  0  0  0  0  0
   36.2160   30.2470   46.9970 C   0  0  0  0  0  0  0  0  0  0  0  0
   37.0670   30.7640   47.9700 C   0  0  0  0  0  0  0  0  0  0  0  0
   38.0830   31.6610   47.6360 C   0  0  0  0  0  0  0  0  0  0  0  0
   38.1830   31.9950   46.2920 C   0  0  0  0  0  0  0  0  0  0  0  0
   39.0920   32.8510   45.7200 N   0  0  0  0  0  0  0  0  0  0  0  0
   38.8160   32.8710   44.4080 C   0  0  0  0  0  0  0  0  0  0  0  0
   37.7950   32.0780   44.1550 N   0  0  0  0  0  0  0  0  0  0  0  0
   37.3680   31.5110   45.2960 C   0  0  0  0  0  0  0  0  0  0  0  0
   36.3590   30.6130   45.6630 C   0  0  0  0  0  0  0  0  0  0  0  0
   35.4190   29.5440   47.2520 H   0  0  0  0  0  0  0  0  0  0  0  0
   38.7440   32.0650   48.3810 H   0  0  0  0  0  0  0  0  0  0  0  0
   39.8530   33.3800   46.2370 H   0  0  0  0  0  0  0  0  0  0  0  0
   35.7190   30.2350   44.8780 H   0  0  0  0  0  0  0  0  0  0  0  0
   37.4020   30.0720   51.6450 C   0  0  0  0  0  0  0  0  0  0  0  0
   37.7490   30.5450   50.3800 C   0  0  0  0  0  0  0  0  0  0  0  0
   36.8610   30.3390   49.3390 C   0  0  0  0  0  0  0  0  0  0  0  0
   35.6960   29.6790   49.6280 N   0  0  0  0  0  0  0  0  0  0  0  0
   35.3810   29.2310   50.8550 C   0  0  0  0  0  0  0  0  0  0  0  0
   36.2310   29.4310   51.8460 N   0  0  0  0  0  0  0  0  0  0  0  0
   38.1560   30.2720   52.4220 H   0  0  0  0  0  0  0  0  0  0  0  0
   38.6630   31.0600   50.1610 H   0  0  0  0  0  0  0  0  0  0  0  0
   34.4520   28.7180   51.0360 H   0  0  0  0  0  0  0  0  0  0  0  0
   39.6720   31.7360   42.2090 N   0  0  0  0  0  0  0  0  0  0  0  0
   39.5410   33.1850   42.1560 C   0  0  1  0  0  0  0  0  0  0  0  0
   38.3050   33.5590   41.4870 C   0  0  0  0  0  0  0  0  0  0  0  0
   38.3600   33.1020   40.1590 O   0  0  0  0  0  0  0  0  0  0  0  0
   38.6100   31.7710   40.0040 C   0  0  0  0  0  0  0  0  0  0  0  0
   39.8070   31.3360   40.8310 C   0  0  2  0  0  0  0  0  0  0  0  0
   38.8990   31.2060   42.5730 H   0  0  0  0  0  0  0  0  0  0  0  0
   40.4170   33.5530   41.6010 H   0  0  0  0  0  0  0  0  0  0  0  0
   37.3310   33.3050   41.8010 H   0  0  0  0  0  0  0  0  0  0  0  0
   38.3210   34.6850   41.3670 H   0  0  0  0  0  0  0  0  0  0  0  0
   38.9150   31.6240   38.9480 H   0  0  0  0  0  0  0  0  0  0  0  0
   37.6760   31.2280   40.2810 H   0  0  0  0  0  0  0  0  0  0  0  0
   40.6610   31.9580   40.4320 H   0  0  0  0  0  0  0  0  0  0  0  0
   40.1740   29.9780   40.6480 N   0  0  1  0  0  0  0  0  0  0  0  0
   41.1630   29.7860   39.5990 C   0  0  0  0  0  3  0  0  0  0  0  0
   41.9470   30.5420   39.5700 H   0  0  0  0  0  0  0  0  0  0  0  0
   41.7940   28.4280   39.7760 C   0  0  0  0  0  3  0  0  0  0  0  0
   42.6800   28.4320   40.4340 H   0  0  0  0  0  0  0  0  0  0  0  0
   40.8450   27.4340   40.2350 N   0  0  0  0  0  0  0  0  0  0  0  0
   40.1240   27.3330   39.4700 H   0  0  0  0  0  0  0  0  0  0  0  0
   40.2960   27.7760   41.5140 C   0  0  0  0  0  2  0  0  0  0  0  0
   40.5890   29.2550   41.8020 C   0  0  0  0  0  2  0  0  0  0  0  0
  1  7  1  0  0  0  0
  2 11  1  0  0  0  0
  2  3  1  0  0  0  0
  3 17  1  0  0  0  0
  4  3  2  0  0  0  0
  4 12  1  0  0  0  0
  5  4  1  0  0  0  0
  6 13  1  0  0  0  0
  6  5  1  0  0  0  0
  7  6  1  0  0  0  0
  8  7  2  0  0  0  0
  8  9  1  0  0  0  0
  9 10  1  0  0  0  0
  9  5  2  0  0  0  0
 10  2  2  0  0  0  0
 14 10  1  0  0  0  0
 15 20  1  0  0  0  0
 15 21  1  0  0  0  0
 16 15  2  0  0  0  0
 17 18  2  0  0  0  0
 17 16  1  0  0  0  0
 18 19  1  0  0  0  0
 19 23  1  0  0  0  0
 19 20  2  0  0  0  0
 22 16  1  0  0  0  0
 24 30  1  0  0  0  0
 25 31  1  6  0  0  0
 25 24  1  0  0  0  0
 25  1  1  0  0  0  0
 26 32  1  0  0  0  0
 26 25  1  0  0  0  0
 27 26  1  0  0  0  0
 28 27  1  0  0  0  0
 28 35  1  0  0  0  0
 28 29  1  0  0  0  0
 29 36  1  6  0  0  0
 29 24  1  0  0  0  0
 33 26  1  0  0  0  0
 34 28  1  0  0  0  0
 37 29  1  0  0  0  0
 37 45  1  1  0  0  0
 38 40  1  0  0  0  0
 38 37  1  0  0  0  0
 39 38  1  0  0  0  0
 40 42  1  0  0  0  0
 40 41  1  0  0  0  0
 42 44  1  0  0  0  0
 43 42  1  0  0  0  0
 44 45  1  0  0  0  0
M  END
>  <minimizedAffinity>
-6.13047457

>  <minimizedRMSD>
0.627069116

$$$$
