
 OpenBabel03262521223D

 33 34  0  0  1  0  0  0  0  0999 V2000
   36.7510   27.9980   34.6000 C   0  0  0  0  0  0  0  0  0  0  0  0
   37.4790   28.6200   35.1630 H   0  0  0  0  0  0  0  0  0  0  0  0
   36.0820   27.5470   35.3900 H   0  0  0  0  0  0  0  0  0  0  0  0
   37.2780   27.1300   33.7120 C   0  0  0  0  0  0  0  0  0  0  0  0
   37.8020   27.5250   32.8160 H   0  0  0  0  0  0  0  0  0  0  0  0
   36.4460   26.5210   33.2290 H   0  0  0  0  0  0  0  0  0  0  0  0
   38.1900   26.0790   34.2980 C   0  0  0  0  0  0  0  0  0  0  0  0
   38.2240   25.1590   33.6520 H   0  0  0  0  0  0  0  0  0  0  0  0
   39.2240   26.4780   34.2530 H   0  0  0  0  0  0  0  0  0  0  0  0
   37.8150   25.5890   35.9490 S   0  0  0  0  0  0  0  0  0  0  0  0
   38.9010   23.3870   34.7410 H   0  0  0  0  0  0  0  0  0  0  0  0
   38.8120   23.0830   35.7190 N   0  0  0  0  0  0  0  0  0  0  0  0
   38.7620   24.2350   36.6210 C   0  0  2  0  0  3  0  0  0  0  0  0
   38.2890   23.7550   37.9570 C   0  0  0  0  0  3  0  0  0  0  0  0
   38.2060   24.6240   38.6360 H   0  0  0  0  0  0  0  0  0  0  0  0
   39.2430   22.7860   38.4720 N   0  0  0  0  0  0  0  0  0  0  0  0
   39.6910   23.2050   39.3170 H   0  0  0  0  0  0  0  0  0  0  0  0
   40.3030   22.4660   37.5670 C   0  0  0  0  0  2  0  0  0  0  0  0
   39.8570   22.2100   36.1560 C   0  0  0  0  0  2  0  0  0  0  0  0
   36.0730   28.8270   33.7380 O   0  0  0  0  0  0  0  0  0  0  0  0
   35.4090   29.9100   34.2630 C   0  0  0  0  0  0  0  0  0  0  0  0
   34.4540   30.4110   33.4170 C   0  0  0  0  0  0  0  0  0  0  0  0
   33.6930   31.5230   33.8260 C   0  0  0  0  0  0  0  0  0  0  0  0
   33.9720   32.0390   35.0780 N   0  0  0  0  0  0  0  0  0  0  0  0
   34.9300   31.5100   35.8860 C   0  0  0  0  0  0  0  0  0  0  0  0
   35.6390   30.4530   35.4750 N   0  0  0  0  0  0  0  0  0  0  0  0
   34.3480   33.2810   37.3820 C   0  0  0  0  0  0  0  0  0  0  0  0
   33.5090   33.7940   36.5760 O   0  0  0  0  0  0  0  0  0  0  0  0
   35.1350   32.1210   37.1550 N   0  0  0  0  0  0  0  0  0  0  0  0
   34.2090   30.0320   32.4320 H   0  0  0  0  0  0  0  0  0  0  0  0
   32.9430   31.9430   33.2030 H   0  0  0  0  0  0  0  0  0  0  0  0
   34.4380   33.8140   38.3230 H   0  0  0  0  0  0  0  0  0  0  0  0
   35.8150   31.7280   37.8430 H   0  0  0  0  0  0  0  0  0  0  0  0
  1  2  1  0  0  0  0
  1  3  1  0  0  0  0
  4  7  1  0  0  0  0
  4  1  1  0  0  0  0
  5  4  1  0  0  0  0
  6  4  1  0  0  0  0
  7 10  1  0  0  0  0
  8  7  1  0  0  0  0
  9  7  1  0  0  0  0
 11 12  1  0  0  0  0
 12 19  1  0  0  0  0
 12 13  1  0  0  0  0
 13 10  1  6  0  0  0
 13 14  1  0  0  0  0
 14 16  1  0  0  0  0
 14 15  1  0  0  0  0
 16 17  1  0  0  0  0
 18 16  1  0  0  0  0
 19 18  1  0  0  0  0
 20 21  1  0  0  0  0
 20  1  1  0  0  0  0
 21 26  1  0  0  0  0
 22 23  1  0  0  0  0
 22 21  2  0  0  0  0
 23 24  2  0  0  0  0
 24 25  1  0  0  0  0
 25 29  1  0  0  0  0
 26 25  2  0  0  0  0
 27 32  1  0  0  0  0
 28 27  2  0  0  0  0
 29 27  1  0  0  0  0
 29 33  1  0  0  0  0
 30 22  1  0  0  0  0
 31 23  1  0  0  0  0
M  END
>  <minimizedAffinity>
-4.73429966

$$$$

 OpenBabel03262521223D

 33 34  0  0  1  0  0  0  0  0999 V2000
   38.6460   27.0350   32.9680 C   0  0  0  0  0  0  0  0  0  0  0  0
   38.8330   27.9270   32.3340 H   0  0  0  0  0  0  0  0  0  0  0  0
   37.5560   27.1050   33.2540 H   0  0  0  0  0  0  0  0  0  0  0  0
   39.5090   26.8420   33.9870 C   0  0  0  0  0  0  0  0  0  0  0  0
   40.4670   27.4030   33.9980 H   0  0  0  0  0  0  0  0  0  0  0  0
   39.8850   25.7670   33.9740 H   0  0  0  0  0  0  0  0  0  0  0  0
   38.9210   26.9930   35.3690 C   0  0  0  0  0  0  0  0  0  0  0  0
   39.7190   27.2020   36.1340 H   0  0  0  0  0  0  0  0  0  0  0  0
   38.3040   27.9150   35.3660 H   0  0  0  0  0  0  0  0  0  0  0  0
   37.9510   25.6330   35.9310 S   0  0  0  0  0  0  0  0  0  0  0  0
   38.9250   23.3790   34.7220 H   0  0  0  0  0  0  0  0  0  0  0  0
   38.8260   23.0820   35.7010 N   0  0  0  0  0  0  0  0  0  0  0  0
   38.8350   24.2370   36.6010 C   0  0  2  0  0  3  0  0  0  0  0  0
   38.3460   23.7810   37.9400 C   0  0  0  0  0  3  0  0  0  0  0  0
   38.3080   24.6550   38.6180 H   0  0  0  0  0  0  0  0  0  0  0  0
   39.2560   22.7690   38.4520 N   0  0  0  0  0  0  0  0  0  0  0  0
   39.7270   23.1680   39.2950 H   0  0  0  0  0  0  0  0  0  0  0  0
   40.2950   22.3980   37.5440 C   0  0  0  0  0  2  0  0  0  0  0  0
   39.8310   22.1610   36.1350 C   0  0  0  0  0  2  0  0  0  0  0  0
   38.9280   25.9210   32.2130 O   0  0  0  0  0  0  0  0  0  0  0  0
   37.9810   24.9270   32.1400 C   0  0  0  0  0  0  0  0  0  0  0  0
   36.9510   25.2330   31.2900 C   0  0  0  0  0  0  0  0  0  0  0  0
   35.9070   24.3050   31.1170 C   0  0  0  0  0  0  0  0  0  0  0  0
   36.0000   23.1260   31.8330 N   0  0  0  0  0  0  0  0  0  0  0  0
   37.0410   22.8620   32.6670 C   0  0  0  0  0  0  0  0  0  0  0  0
   38.0210   23.7600   32.8140 N   0  0  0  0  0  0  0  0  0  0  0  0
   35.8750   20.8300   33.1390 C   0  0  0  0  0  0  0  0  0  0  0  0
   34.8820   21.1360   32.4060 O   0  0  0  0  0  0  0  0  0  0  0  0
   37.0360   21.6170   33.3570 N   0  0  0  0  0  0  0  0  0  0  0  0
   36.8470   26.1450   30.7140 H   0  0  0  0  0  0  0  0  0  0  0  0
   35.0900   24.5010   30.4670 H   0  0  0  0  0  0  0  0  0  0  0  0
   35.7830   19.8640   33.6240 H   0  0  0  0  0  0  0  0  0  0  0  0
   37.8340   21.3310   33.9670 H   0  0  0  0  0  0  0  0  0  0  0  0
  1  3  1  0  0  0  0
  1  4  1  0  0  0  0
  2  1  1  0  0  0  0
  4  5  1  0  0  0  0
  4  7  1  0  0  0  0
  6  4  1  0  0  0  0
  7 10  1  0  0  0  0
  7  8  1  0  0  0  0
  9  7  1  0  0  0  0
 11 12  1  0  0  0  0
 12 19  1  0  0  0  0
 12 13  1  0  0  0  0
 13 10  1  6  0  0  0
 13 14  1  0  0  0  0
 14 16  1  0  0  0  0
 14 15  1  0  0  0  0
 16 17  1  0  0  0  0
 18 16  1  0  0  0  0
 19 18  1  0  0  0  0
 20  1  1  0  0  0  0
 21 20  1  0  0  0  0
 21 26  1  0  0  0  0
 22 21  2  0  0  0  0
 23 22  1  0  0  0  0
 23 24  2  0  0  0  0
 24 25  1  0  0  0  0
 25 26  2  0  0  0  0
 25 29  1  0  0  0  0
 27 29  1  0  0  0  0
 27 32  1  0  0  0  0
 28 27  2  0  0  0  0
 29 33  1  0  0  0  0
 30 22  1  0  0  0  0
 31 23  1  0  0  0  0
M  END
>  <minimizedAffinity>
-4.70327663

$$$$

 OpenBabel03262521223D

 33 34  0  0  1  0  0  0  0  0999 V2000
   37.5410   23.2290   32.5260 C   0  0  0  0  0  0  0  0  0  0  0  0
   36.5600   23.2380   32.0050 H   0  0  0  0  0  0  0  0  0  0  0  0
   38.3080   23.3290   31.7040 H   0  0  0  0  0  0  0  0  0  0  0  0
   37.7390   22.2150   33.3940 C   0  0  0  0  0  0  0  0  0  0  0  0
   37.0650   21.3330   33.3580 H   0  0  0  0  0  0  0  0  0  0  0  0
   37.5660   22.5800   34.4580 H   0  0  0  0  0  0  0  0  0  0  0  0
   39.1440   21.6630   33.4330 C   0  0  0  0  0  0  0  0  0  0  0  0
   39.1420   20.5390   33.4750 H   0  0  0  0  0  0  0  0  0  0  0  0
   39.6160   21.8940   32.4560 H   0  0  0  0  0  0  0  0  0  0  0  0
   40.1580   22.2700   34.7400 S   0  0  0  0  0  0  0  0  0  0  0  0
   38.6240   24.4850   35.2210 H   0  0  0  0  0  0  0  0  0  0  0  0
   38.9470   24.2290   36.1630 N   0  0  0  0  0  0  0  0  0  0  0  0
   39.3240   22.8140   36.2190 C   0  0  2  0  0  3  0  0  0  0  0  0
   40.0970   22.5930   37.4810 C   0  0  0  0  0  3  0  0  0  0  0  0
   40.4240   21.5370   37.5150 H   0  0  0  0  0  0  0  0  0  0  0  0
   39.2420   22.9050   38.6150 N   0  0  0  0  0  0  0  0  0  0  0  0
   39.0690   22.0150   39.1330 H   0  0  0  0  0  0  0  0  0  0  0  0
   37.9590   23.4240   38.2600 C   0  0  0  0  0  2  0  0  0  0  0  0
   37.9910   24.4850   37.1960 C   0  0  0  0  0  2  0  0  0  0  0  0
   37.5570   24.2880   33.4020 O   0  0  0  0  0  0  0  0  0  0  0  0
   37.3830   25.5540   32.8960 C   0  0  0  0  0  0  0  0  0  0  0  0
   37.1020   26.4820   33.8660 C   0  0  0  0  0  0  0  0  0  0  0  0
   36.8990   27.8230   33.4910 C   0  0  0  0  0  0  0  0  0  0  0  0
   37.0010   28.1130   32.1430 N   0  0  0  0  0  0  0  0  0  0  0  0
   37.2810   27.1610   31.2130 C   0  0  0  0  0  0  0  0  0  0  0  0
   37.4700   25.8930   31.5950 N   0  0  0  0  0  0  0  0  0  0  0  0
   37.0490   28.9370   29.6300 C   0  0  0  0  0  0  0  0  0  0  0  0
   36.7200   29.7890   30.5140 O   0  0  0  0  0  0  0  0  0  0  0  0
   37.3610   27.5690   29.8520 N   0  0  0  0  0  0  0  0  0  0  0  0
   37.0160   26.2900   34.9280 H   0  0  0  0  0  0  0  0  0  0  0  0
   36.6800   28.5740   34.2090 H   0  0  0  0  0  0  0  0  0  0  0  0
   37.0840   29.3380   28.6220 H   0  0  0  0  0  0  0  0  0  0  0  0
   37.6290   26.8970   29.0990 H   0  0  0  0  0  0  0  0  0  0  0  0
  1  4  1  0  0  0  0
  1 20  1  0  0  0  0
  2  1  1  0  0  0  0
  3  1  1  0  0  0  0
  4  7  1  0  0  0  0
  4  6  1  0  0  0  0
  5  4  1  0  0  0  0
  7  8  1  0  0  0  0
  7 10  1  0  0  0  0
  9  7  1  0  0  0  0
 11 12  1  0  0  0  0
 12 13  1  0  0  0  0
 12 19  1  0  0  0  0
 13 10  1  6  0  0  0
 13 14  1  0  0  0  0
 14 15  1  0  0  0  0
 14 16  1  0  0  0  0
 16 17  1  0  0  0  0
 18 16  1  0  0  0  0
 19 18  1  0  0  0  0
 21 20  1  0  0  0  0
 21 22  1  0  0  0  0
 22 30  1  0  0  0  0
 23 22  2  0  0  0  0
 23 31  1  0  0  0  0
 24 23  1  0  0  0  0
 25 26  1  0  0  0  0
 25 24  2  0  0  0  0
 26 21  2  0  0  0  0
 27 29  1  0  0  0  0
 27 28  2  0  0  0  0
 29 25  1  0  0  0  0
 32 27  1  0  0  0  0
 33 29  1  0  0  0  0
M  END
>  <minimizedAffinity>
-4.55188417

$$$$

 OpenBabel03262521223D

 33 34  0  0  1  0  0  0  0  0999 V2000
   38.1550   26.9530   35.8050 C   0  0  0  0  0  0  0  0  0  0  0  0
   38.0680   27.4400   36.7990 H   0  0  0  0  0  0  0  0  0  0  0  0
   39.2610   26.9440   35.5810 H   0  0  0  0  0  0  0  0  0  0  0  0
   37.3630   27.4500   34.8320 C   0  0  0  0  0  0  0  0  0  0  0  0
   37.0030   28.4980   34.9100 H   0  0  0  0  0  0  0  0  0  0  0  0
   36.3770   26.8810   34.8100 H   0  0  0  0  0  0  0  0  0  0  0  0
   37.8920   27.2940   33.4270 C   0  0  0  0  0  0  0  0  0  0  0  0
   38.2260   28.2820   33.0030 H   0  0  0  0  0  0  0  0  0  0  0  0
   38.8260   26.7000   33.4900 H   0  0  0  0  0  0  0  0  0  0  0  0
   36.7850   26.5400   32.2810 S   0  0  0  0  0  0  0  0  0  0  0  0
   37.9970   24.6960   33.9000 H   0  0  0  0  0  0  0  0  0  0  0  0
   37.8290   24.1610   33.0390 N   0  0  0  0  0  0  0  0  0  0  0  0
   36.7460   24.7570   32.2550 C   0  0  2  0  0  3  0  0  0  0  0  0
   36.7850   24.1590   30.8840 C   0  0  0  0  0  3  0  0  0  0  0  0
   35.9960   24.6330   30.2700 H   0  0  0  0  0  0  0  0  0  0  0  0
   36.5630   22.7260   30.9920 N   0  0  0  0  0  0  0  0  0  0  0  0
   35.6470   22.5140   30.5360 H   0  0  0  0  0  0  0  0  0  0  0  0
   36.4690   22.2440   32.3340 C   0  0  0  0  0  2  0  0  0  0  0  0
   37.5220   22.7810   33.2610 C   0  0  0  0  0  2  0  0  0  0  0  0
   37.6220   25.6900   35.9130 O   0  0  0  0  0  0  0  0  0  0  0  0
   38.4080   24.6950   36.4410 C   0  0  0  0  0  0  0  0  0  0  0  0
   38.0290   24.3310   37.7070 C   0  0  0  0  0  0  0  0  0  0  0  0
   38.7470   23.3200   38.3740 C   0  0  0  0  0  0  0  0  0  0  0  0
   39.8060   22.7560   37.6870 N   0  0  0  0  0  0  0  0  0  0  0  0
   40.1490   23.1470   36.4310 C   0  0  0  0  0  0  0  0  0  0  0  0
   39.4510   24.1100   35.8190 N   0  0  0  0  0  0  0  0  0  0  0  0
   41.9270   21.5640   36.6500 C   0  0  0  0  0  0  0  0  0  0  0  0
   41.6240   21.2700   37.8490 O   0  0  0  0  0  0  0  0  0  0  0  0
   41.2590   22.5000   35.8170 N   0  0  0  0  0  0  0  0  0  0  0  0
   37.2060   24.7500   38.2740 H   0  0  0  0  0  0  0  0  0  0  0  0
   38.4870   23.0070   39.3540 H   0  0  0  0  0  0  0  0  0  0  0  0
   42.7850   21.0220   36.2660 H   0  0  0  0  0  0  0  0  0  0  0  0
   41.5360   22.7160   34.8330 H   0  0  0  0  0  0  0  0  0  0  0  0
  1 20  1  0  0  0  0
  1  2  1  0  0  0  0
  3  1  1  0  0  0  0
  4  5  1  0  0  0  0
  4  1  1  0  0  0  0
  6  4  1  0  0  0  0
  7  9  1  0  0  0  0
  7  4  1  0  0  0  0
  8  7  1  0  0  0  0
 10  7  1  0  0  0  0
 12 19  1  0  0  0  0
 12 11  1  0  0  0  0
 13 10  1  6  0  0  0
 13 12  1  0  0  0  0
 14 16  1  0  0  0  0
 14 13  1  0  0  0  0
 15 14  1  0  0  0  0
 16 18  1  0  0  0  0
 17 16  1  0  0  0  0
 18 19  1  0  0  0  0
 20 21  1  0  0  0  0
 21 22  1  0  0  0  0
 22 30  1  0  0  0  0
 22 23  2  0  0  0  0
 23 31  1  0  0  0  0
 24 23  1  0  0  0  0
 25 24  2  0  0  0  0
 26 25  1  0  0  0  0
 26 21  2  0  0  0  0
 27 28  2  0  0  0  0
 29 25  1  0  0  0  0
 29 27  1  0  0  0  0
 32 27  1  0  0  0  0
 33 29  1  0  0  0  0
M  END
>  <minimizedAffinity>
-4.53444433

$$$$

 OpenBabel03262521223D

 33 34  0  0  1  0  0  0  0  0999 V2000
   41.3540   25.3230   34.2500 C   0  0  0  0  0  0  0  0  0  0  0  0
   41.6950   26.0010   33.4390 H   0  0  0  0  0  0  0  0  0  0  0  0
   41.4930   25.9130   35.2010 H   0  0  0  0  0  0  0  0  0  0  0  0
   41.8830   24.0820   34.2450 C   0  0  0  0  0  0  0  0  0  0  0  0
   42.5520   23.7820   33.4110 H   0  0  0  0  0  0  0  0  0  0  0  0
   41.0530   23.3090   34.1480 H   0  0  0  0  0  0  0  0  0  0  0  0
   42.5950   23.6790   35.5140 C   0  0  0  0  0  0  0  0  0  0  0  0
   43.6070   23.2380   35.2950 H   0  0  0  0  0  0  0  0  0  0  0  0
   42.8230   24.6090   36.0740 H   0  0  0  0  0  0  0  0  0  0  0  0
   41.7130   22.5620   36.5540 S   0  0  0  0  0  0  0  0  0  0  0  0
   40.3710   22.9240   38.9110 H   0  0  0  0  0  0  0  0  0  0  0  0
   39.6160   22.6680   38.2630 N   0  0  0  0  0  0  0  0  0  0  0  0
   40.0010   22.9450   36.8770 C   0  0  2  0  0  3  0  0  0  0  0  0
   39.0320   22.2420   35.9800 C   0  0  0  0  0  3  0  0  0  0  0  0
   39.3370   22.4090   34.9290 H   0  0  0  0  0  0  0  0  0  0  0  0
   37.7000   22.7740   36.2210 N   0  0  0  0  0  0  0  0  0  0  0  0
   37.4000   23.2750   35.3540 H   0  0  0  0  0  0  0  0  0  0  0  0
   37.6300   23.7260   37.2850 C   0  0  0  0  0  2  0  0  0  0  0  0
   38.3720   23.3230   38.5270 C   0  0  0  0  0  2  0  0  0  0  0  0
   40.0370   25.0110   34.0040 O   0  0  0  0  0  0  0  0  0  0  0  0
   39.0890   25.9850   34.2090 C   0  0  0  0  0  0  0  0  0  0  0  0
   39.1210   26.5010   35.4790 C   0  0  0  0  0  0  0  0  0  0  0  0
   38.2040   27.5100   35.8320 C   0  0  0  0  0  0  0  0  0  0  0  0
   37.3190   27.9150   34.8490 N   0  0  0  0  0  0  0  0  0  0  0  0
   37.3220   27.3750   33.6010 C   0  0  0  0  0  0  0  0  0  0  0  0
   38.2030   26.4190   33.2910 N   0  0  0  0  0  0  0  0  0  0  0  0
   35.4610   28.8210   33.2010 C   0  0  0  0  0  0  0  0  0  0  0  0
   35.4380   29.2550   34.3950 O   0  0  0  0  0  0  0  0  0  0  0  0
   36.3660   27.8660   32.6670 N   0  0  0  0  0  0  0  0  0  0  0  0
   39.7990   26.2090   36.2720 H   0  0  0  0  0  0  0  0  0  0  0  0
   38.1940   27.9370   36.8030 H   0  0  0  0  0  0  0  0  0  0  0  0
   34.6960   29.2500   32.5610 H   0  0  0  0  0  0  0  0  0  0  0  0
   36.3550   27.5330   31.6770 H   0  0  0  0  0  0  0  0  0  0  0  0
  1  3  1  0  0  0  0
  2  1  1  0  0  0  0
  4  1  1  0  0  0  0
  4  7  1  0  0  0  0
  5  4  1  0  0  0  0
  6  4  1  0  0  0  0
  7  9  1  0  0  0  0
  7 10  1  0  0  0  0
  8  7  1  0  0  0  0
 12 19  1  0  0  0  0
 12 11  1  0  0  0  0
 13 10  1  1  0  0  0
 13 12  1  0  0  0  0
 14 16  1  0  0  0  0
 14 13  1  0  0  0  0
 15 14  1  0  0  0  0
 16 18  1  0  0  0  0
 17 16  1  0  0  0  0
 18 19  1  0  0  0  0
 20 21  1  0  0  0  0
 20  1  1  0  0  0  0
 21 22  1  0  0  0  0
 22 23  2  0  0  0  0
 22 30  1  0  0  0  0
 23 31  1  0  0  0  0
 24 23  1  0  0  0  0
 25 24  2  0  0  0  0
 26 25  1  0  0  0  0
 26 21  2  0  0  0  0
 27 28  2  0  0  0  0
 29 27  1  0  0  0  0
 29 25  1  0  0  0  0
 32 27  1  0  0  0  0
 33 29  1  0  0  0  0
M  END
>  <minimizedAffinity>
-4.49008369

$$$$

 OpenBabel03262521223D

 33 34  0  0  1  0  0  0  0  0999 V2000
   38.2650   26.6390   35.0730 C   0  0  0  0  0  0  0  0  0  0  0  0
   38.6240   27.4810   35.7020 H   0  0  0  0  0  0  0  0  0  0  0  0
   39.1910   26.2340   34.5720 H   0  0  0  0  0  0  0  0  0  0  0  0
   37.2270   26.9120   34.2560 C   0  0  0  0  0  0  0  0  0  0  0  0
   37.1460   27.9240   33.8050 H   0  0  0  0  0  0  0  0  0  0  0  0
   36.2510   26.8540   34.8400 H   0  0  0  0  0  0  0  0  0  0  0  0
   37.0210   25.9340   33.1250 C   0  0  0  0  0  0  0  0  0  0  0  0
   36.8150   24.8980   33.5120 H   0  0  0  0  0  0  0  0  0  0  0  0
   36.0810   26.2200   32.6090 H   0  0  0  0  0  0  0  0  0  0  0  0
   38.3360   25.8430   31.9550 S   0  0  0  0  0  0  0  0  0  0  0  0
   40.2030   27.6030   31.0020 H   0  0  0  0  0  0  0  0  0  0  0  0
   39.3220   28.0040   30.6580 N   0  0  0  0  0  0  0  0  0  0  0  0
   38.2750   26.9830   30.5850 C   0  0  2  0  0  3  0  0  0  0  0  0
   36.9620   27.6800   30.4210 C   0  0  0  0  0  3  0  0  0  0  0  0
   36.1570   26.9200   30.4070 H   0  0  0  0  0  0  0  0  0  0  0  0
   36.9830   28.4320   29.1760 N   0  0  0  0  0  0  0  0  0  0  0  0
   36.2850   27.9950   28.5330 H   0  0  0  0  0  0  0  0  0  0  0  0
   38.2380   28.4050   28.4940 C   0  0  0  0  0  2  0  0  0  0  0  0
   39.4300   28.6350   29.3780 C   0  0  0  0  0  2  0  0  0  0  0  0
   37.6660   25.7230   35.9060 O   0  0  0  0  0  0  0  0  0  0  0  0
   38.4390   24.7090   36.4210 C   0  0  0  0  0  0  0  0  0  0  0  0
   38.0490   24.3270   37.6780 C   0  0  0  0  0  0  0  0  0  0  0  0
   38.7520   23.2960   38.3300 C   0  0  0  0  0  0  0  0  0  0  0  0
   39.8070   22.7320   37.6370 N   0  0  0  0  0  0  0  0  0  0  0  0
   40.1610   23.1410   36.3900 C   0  0  0  0  0  0  0  0  0  0  0  0
   39.4770   24.1230   35.7920 N   0  0  0  0  0  0  0  0  0  0  0  0
   41.9180   21.5330   36.5880 C   0  0  0  0  0  0  0  0  0  0  0  0
   41.6070   21.2210   37.7800 O   0  0  0  0  0  0  0  0  0  0  0  0
   41.2650   22.4920   35.7690 N   0  0  0  0  0  0  0  0  0  0  0  0
   37.2280   24.7460   38.2480 H   0  0  0  0  0  0  0  0  0  0  0  0
   38.4840   22.9680   39.3030 H   0  0  0  0  0  0  0  0  0  0  0  0
   42.7720   20.9880   36.1980 H   0  0  0  0  0  0  0  0  0  0  0  0
   41.5500   22.7220   34.7910 H   0  0  0  0  0  0  0  0  0  0  0  0
  1  2  1  0  0  0  0
  1 20  1  0  0  0  0
  3  1  1  0  0  0  0
  4  6  1  0  0  0  0
  4  1  1  0  0  0  0
  5  4  1  0  0  0  0
  7  8  1  0  0  0  0
  7  4  1  0  0  0  0
  9  7  1  0  0  0  0
 10  7  1  0  0  0  0
 12 11  1  0  0  0  0
 13 12  1  0  0  0  0
 13 10  1  1  0  0  0
 14 13  1  0  0  0  0
 15 14  1  0  0  0  0
 16 14  1  0  0  0  0
 17 16  1  0  0  0  0
 18 16  1  0  0  0  0
 18 19  1  0  0  0  0
 19 12  1  0  0  0  0
 20 21  1  0  0  0  0
 21 22  1  0  0  0  0
 22 30  1  0  0  0  0
 22 23  2  0  0  0  0
 23 31  1  0  0  0  0
 24 23  1  0  0  0  0
 25 24  2  0  0  0  0
 26 25  1  0  0  0  0
 26 21  2  0  0  0  0
 27 28  2  0  0  0  0
 29 25  1  0  0  0  0
 29 27  1  0  0  0  0
 32 27  1  0  0  0  0
 33 29  1  0  0  0  0
M  END
>  <minimizedAffinity>
-4.42391348

$$$$

 OpenBabel03262521223D

 33 34  0  0  1  0  0  0  0  0999 V2000
   39.1830   24.0640   35.7370 C   0  0  0  0  0  0  0  0  0  0  0  0
   40.1260   24.1430   36.3180 H   0  0  0  0  0  0  0  0  0  0  0  0
   39.4730   24.3180   34.6760 H   0  0  0  0  0  0  0  0  0  0  0  0
   38.1250   24.7380   36.2330 C   0  0  0  0  0  0  0  0  0  0  0  0
   38.1880   25.1670   37.2550 H   0  0  0  0  0  0  0  0  0  0  0  0
   37.2380   24.0340   36.3440 H   0  0  0  0  0  0  0  0  0  0  0  0
   37.5910   25.8410   35.3510 C   0  0  0  0  0  0  0  0  0  0  0  0
   36.4670   25.8820   35.3810 H   0  0  0  0  0  0  0  0  0  0  0  0
   37.9070   26.8050   35.8000 H   0  0  0  0  0  0  0  0  0  0  0  0
   38.1020   25.7760   33.6650 S   0  0  0  0  0  0  0  0  0  0  0  0
   36.8840   23.4910   32.7790 H   0  0  0  0  0  0  0  0  0  0  0  0
   36.7370   24.1390   31.9960 N   0  0  0  0  0  0  0  0  0  0  0  0
   36.8240   25.5300   32.4460 C   0  0  2  0  0  3  0  0  0  0  0  0
   36.9520   26.3990   31.2350 C   0  0  0  0  0  3  0  0  0  0  0  0
   37.0610   27.4500   31.5640 H   0  0  0  0  0  0  0  0  0  0  0  0
   35.7630   26.2370   30.4130 N   0  0  0  0  0  0  0  0  0  0  0  0
   35.2490   27.1460   30.4200 H   0  0  0  0  0  0  0  0  0  0  0  0
   34.8470   25.2490   30.8930 C   0  0  0  0  0  2  0  0  0  0  0  0
   35.4910   23.9600   31.3160 C   0  0  0  0  0  2  0  0  0  0  0  0
   38.7180   22.7770   35.8690 O   0  0  0  0  0  0  0  0  0  0  0  0
   38.2410   22.1390   34.7490 C   0  0  0  0  0  0  0  0  0  0  0  0
   39.2050   21.9480   33.7930 C   0  0  0  0  0  0  0  0  0  0  0  0
   38.8580   21.3060   32.5890 C   0  0  0  0  0  0  0  0  0  0  0  0
   37.5410   20.9050   32.4570 N   0  0  0  0  0  0  0  0  0  0  0  0
   36.6160   21.1140   33.4320 C   0  0  0  0  0  0  0  0  0  0  0  0
   36.9710   21.7270   34.5660 N   0  0  0  0  0  0  0  0  0  0  0  0
   35.0820   20.1100   31.8990 C   0  0  0  0  0  0  0  0  0  0  0  0
   35.9530   19.9920   30.9800 O   0  0  0  0  0  0  0  0  0  0  0  0
   35.2880   20.6620   33.1910 N   0  0  0  0  0  0  0  0  0  0  0  0
   40.2440   22.2480   33.8630 H   0  0  0  0  0  0  0  0  0  0  0  0
   39.5730   21.1370   31.8220 H   0  0  0  0  0  0  0  0  0  0  0  0
   34.0990   19.7390   31.6250 H   0  0  0  0  0  0  0  0  0  0  0  0
   34.5470   20.7420   33.9220 H   0  0  0  0  0  0  0  0  0  0  0  0
  1 20  1  0  0  0  0
  1  4  1  0  0  0  0
  1  2  1  0  0  0  0
  3  1  1  0  0  0  0
  4  6  1  0  0  0  0
  4  5  1  0  0  0  0
  7  8  1  0  0  0  0
  7  9  1  0  0  0  0
  7  4  1  0  0  0  0
 10  7  1  0  0  0  0
 12 13  1  0  0  0  0
 12 11  1  0  0  0  0
 13 10  1  1  0  0  0
 14 15  1  0  0  0  0
 14 13  1  0  0  0  0
 16 17  1  0  0  0  0
 16 18  1  0  0  0  0
 16 14  1  0  0  0  0
 18 19  1  0  0  0  0
 19 12  1  0  0  0  0
 21 20  1  0  0  0  0
 22 30  1  0  0  0  0
 22 21  2  0  0  0  0
 23 22  1  0  0  0  0
 24 23  2  0  0  0  0
 24 25  1  0  0  0  0
 25 26  2  0  0  0  0
 26 21  1  0  0  0  0
 27 29  1  0  0  0  0
 28 27  2  0  0  0  0
 29 25  1  0  0  0  0
 29 33  1  0  0  0  0
 31 23  1  0  0  0  0
 32 27  1  0  0  0  0
M  END
>  <minimizedAffinity>
-4.3859849

$$$$

 OpenBabel03262521223D

 33 34  0  0  1  0  0  0  0  0999 V2000
   36.3350   28.1250   34.3180 C   0  0  0  0  0  0  0  0  0  0  0  0
   36.7970   27.9840   33.3180 H   0  0  0  0  0  0  0  0  0  0  0  0
   35.6370   27.2470   34.4440 H   0  0  0  0  0  0  0  0  0  0  0  0
   35.7960   29.3400   34.5540 C   0  0  0  0  0  0  0  0  0  0  0  0
   36.4580   30.2310   34.5660 H   0  0  0  0  0  0  0  0  0  0  0  0
   35.3660   29.3720   35.6070 H   0  0  0  0  0  0  0  0  0  0  0  0
   34.6210   29.7060   33.6800 C   0  0  0  0  0  0  0  0  0  0  0  0
   34.8980   30.4970   32.9300 H   0  0  0  0  0  0  0  0  0  0  0  0
   34.3830   28.8180   33.0590 H   0  0  0  0  0  0  0  0  0  0  0  0
   33.1750   30.2330   34.5400 S   0  0  0  0  0  0  0  0  0  0  0  0
   31.0760   28.6440   33.7930 H   0  0  0  0  0  0  0  0  0  0  0  0
   30.9920   28.6570   34.8170 N   0  0  0  0  0  0  0  0  0  0  0  0
   32.2760   28.9850   35.4420 C   0  0  2  0  0  3  0  0  0  0  0  0
   32.0160   29.3270   36.8760 C   0  0  0  0  0  3  0  0  0  0  0  0
   32.9730   29.6180   37.3480 H   0  0  0  0  0  0  0  0  0  0  0  0
   31.4460   28.1650   37.5390 N   0  0  0  0  0  0  0  0  0  0  0  0
   32.1410   27.8330   38.2440 H   0  0  0  0  0  0  0  0  0  0  0  0
   31.1880   27.0600   36.6700 C   0  0  0  0  0  2  0  0  0  0  0  0
   30.5160   27.4300   35.3780 C   0  0  0  0  0  2  0  0  0  0  0  0
   37.3480   28.1390   35.2470 O   0  0  0  0  0  0  0  0  0  0  0  0
   38.2600   27.1100   35.2310 C   0  0  0  0  0  0  0  0  0  0  0  0
   37.6810   25.8810   35.4170 C   0  0  0  0  0  0  0  0  0  0  0  0
   38.4970   24.7340   35.4230 C   0  0  0  0  0  0  0  0  0  0  0  0
   39.8520   24.9360   35.2360 N   0  0  0  0  0  0  0  0  0  0  0  0
   40.3850   26.1730   35.0540 C   0  0  0  0  0  0  0  0  0  0  0  0
   39.5890   27.2480   35.0520 N   0  0  0  0  0  0  0  0  0  0  0  0
   42.4830   25.0300   34.9870 C   0  0  0  0  0  0  0  0  0  0  0  0
   41.9630   23.8950   35.2280 O   0  0  0  0  0  0  0  0  0  0  0  0
   41.7940   26.2660   34.8720 N   0  0  0  0  0  0  0  0  0  0  0  0
   36.6260   25.6870   35.5660 H   0  0  0  0  0  0  0  0  0  0  0  0
   38.0910   23.7640   35.5630 H   0  0  0  0  0  0  0  0  0  0  0  0
   43.5610   25.0040   34.8630 H   0  0  0  0  0  0  0  0  0  0  0  0
   42.2560   27.1810   34.6710 H   0  0  0  0  0  0  0  0  0  0  0  0
  1  3  1  0  0  0  0
  1  4  1  0  0  0  0
  1 20  1  0  0  0  0
  2  1  1  0  0  0  0
  4  5  1  0  0  0  0
  4  6  1  0  0  0  0
  7 10  1  0  0  0  0
  7  4  1  0  0  0  0
  8  7  1  0  0  0  0
  9  7  1  0  0  0  0
 11 12  1  0  0  0  0
 12 19  1  0  0  0  0
 12 13  1  0  0  0  0
 13 10  1  6  0  0  0
 13 14  1  0  0  0  0
 14 15  1  0  0  0  0
 14 16  1  0  0  0  0
 16 17  1  0  0  0  0
 18 16  1  0  0  0  0
 19 18  1  0  0  0  0
 21 20  1  0  0  0  0
 21 22  1  0  0  0  0
 22 23  2  0  0  0  0
 22 30  1  0  0  0  0
 23 31  1  0  0  0  0
 24 23  1  0  0  0  0
 25 24  2  0  0  0  0
 26 25  1  0  0  0  0
 26 21  2  0  0  0  0
 27 28  2  0  0  0  0
 29 27  1  0  0  0  0
 29 25  1  0  0  0  0
 32 27  1  0  0  0  0
 33 29  1  0  0  0  0
M  END
>  <minimizedAffinity>
-4.31633377

$$$$

 OpenBabel03262521223D

 33 34  0  0  1  0  0  0  0  0999 V2000
   36.3530   27.6510   32.4100 C   0  0  0  0  0  0  0  0  0  0  0  0
   36.3690   26.7600   31.7480 H   0  0  0  0  0  0  0  0  0  0  0  0
   35.5000   27.4670   33.1250 H   0  0  0  0  0  0  0  0  0  0  0  0
   36.3510   28.8500   31.7900 C   0  0  0  0  0  0  0  0  0  0  0  0
   36.2660   28.8850   30.6840 H   0  0  0  0  0  0  0  0  0  0  0  0
   37.3520   29.3670   31.9500 H   0  0  0  0  0  0  0  0  0  0  0  0
   35.3490   29.8480   32.3180 C   0  0  0  0  0  0  0  0  0  0  0  0
   35.8050   30.8710   32.4190 H   0  0  0  0  0  0  0  0  0  0  0  0
   34.5700   29.9770   31.5380 H   0  0  0  0  0  0  0  0  0  0  0  0
   34.5900   29.4200   33.8500 S   0  0  0  0  0  0  0  0  0  0  0  0
   33.0220   31.6620   33.9160 H   0  0  0  0  0  0  0  0  0  0  0  0
   33.7960   31.9130   34.5440 N   0  0  0  0  0  0  0  0  0  0  0  0
   34.4530   30.7130   35.0690 C   0  0  2  0  0  3  0  0  0  0  0  0
   35.7560   31.1300   35.6760 C   0  0  0  0  0  3  0  0  0  0  0  0
   36.2810   30.2260   36.0390 H   0  0  0  0  0  0  0  0  0  0  0  0
   35.4900   32.0480   36.7720 N   0  0  0  0  0  0  0  0  0  0  0  0
   35.7790   31.5740   37.6570 H   0  0  0  0  0  0  0  0  0  0  0  0
   34.1120   32.3940   36.9290 C   0  0  0  0  0  2  0  0  0  0  0  0
   33.4090   32.7380   35.6470 C   0  0  0  0  0  2  0  0  0  0  0  0
   37.5720   27.7220   33.0430 O   0  0  0  0  0  0  0  0  0  0  0  0
   37.8270   26.8400   34.0650 C   0  0  0  0  0  0  0  0  0  0  0  0
   38.0790   27.4650   35.2590 C   0  0  0  0  0  0  0  0  0  0  0  0
   38.3570   26.6840   36.3960 C   0  0  0  0  0  0  0  0  0  0  0  0
   38.3540   25.3120   36.2220 N   0  0  0  0  0  0  0  0  0  0  0  0
   38.0980   24.7320   35.0190 C   0  0  0  0  0  0  0  0  0  0  0  0
   37.8370   25.4960   33.9540 N   0  0  0  0  0  0  0  0  0  0  0  0
   38.4980   22.6720   36.1640 C   0  0  0  0  0  0  0  0  0  0  0  0
   38.8010   23.2460   37.2570 O   0  0  0  0  0  0  0  0  0  0  0  0
   38.1220   23.3100   34.9520 N   0  0  0  0  0  0  0  0  0  0  0  0
   38.0890   28.5350   35.4310 H   0  0  0  0  0  0  0  0  0  0  0  0
   38.5570   27.1270   37.3400 H   0  0  0  0  0  0  0  0  0  0  0  0
   38.5440   21.5890   36.2070 H   0  0  0  0  0  0  0  0  0  0  0  0
   37.8780   22.8040   34.0720 H   0  0  0  0  0  0  0  0  0  0  0  0
  1 20  1  0  0  0  0
  1  3  1  0  0  0  0
  2  1  1  0  0  0  0
  4  6  1  0  0  0  0
  4  7  1  0  0  0  0
  4  1  1  0  0  0  0
  5  4  1  0  0  0  0
  7  8  1  0  0  0  0
  7 10  1  0  0  0  0
  9  7  1  0  0  0  0
 11 12  1  0  0  0  0
 12 13  1  0  0  0  0
 12 19  1  0  0  0  0
 13 10  1  6  0  0  0
 13 14  1  0  0  0  0
 14 15  1  0  0  0  0
 14 16  1  0  0  0  0
 16 18  1  0  0  0  0
 16 17  1  0  0  0  0
 19 18  1  0  0  0  0
 20 21  1  0  0  0  0
 21 22  1  0  0  0  0
 22 30  1  0  0  0  0
 22 23  2  0  0  0  0
 23 31  1  0  0  0  0
 24 23  1  0  0  0  0
 25 24  2  0  0  0  0
 26 21  2  0  0  0  0
 26 25  1  0  0  0  0
 27 32  1  0  0  0  0
 27 28  2  0  0  0  0
 29 25  1  0  0  0  0
 29 27  1  0  0  0  0
 33 29  1  0  0  0  0
M  END
>  <minimizedAffinity>
-4.26460552

$$$$
