
 OpenBabel03272507523D

 32 34  0  0  1  0  0  0  0  0999 V2000
   36.8470   31.4910   48.6850 N   0  0  0  0  0  0  0  0  0  0  0  0
   37.0360   32.3290   49.6980 C   0  0  0  0  0  0  0  0  0  0  0  0
   38.0820   33.2530   49.6440 C   0  0  0  0  0  0  0  0  0  0  0  0
   38.8350   33.2010   48.5110 C   0  0  0  0  0  0  0  0  0  0  0  0
   39.7800   34.0510   48.4860 O   0  0  0  0  0  0  0  0  0  0  0  0
   38.6810   32.3770   47.4680 N   0  0  0  0  0  0  0  0  0  0  0  0
   37.6550   31.5070   47.5780 C   0  0  0  0  0  0  0  0  0  0  0  0
   37.4880   30.7150   46.6000 O   0  0  0  0  0  0  0  0  0  0  0  0
   36.3800   32.2970   50.5640 H   0  0  0  0  0  0  0  0  0  0  0  0
   38.2400   33.9270   50.4500 H   0  0  0  0  0  0  0  0  0  0  0  0
   38.5920   33.8690   45.3040 H   0  0  0  0  0  0  0  0  0  0  0  0
   38.7580   32.8440   45.1600 N   0  0  0  0  0  0  0  0  0  0  0  0
   39.5320   32.3890   46.2940 C   0  0  2  0  0  0  0  0  0  0  0  0
   40.1440   31.0360   46.0760 C   0  0  0  0  0  0  0  0  0  0  0  0
   40.7760   30.8120   46.9570 H   0  0  0  0  0  0  0  0  0  0  0  0
   41.0330   31.1310   44.9330 N   0  0  0  0  0  0  0  0  0  0  0  0
   41.7330   31.8830   45.0540 H   0  0  0  0  0  0  0  0  0  0  0  0
   40.2320   31.4370   43.7830 C   0  0  0  0  0  0  0  0  0  0  0  0
   39.4250   32.7050   43.9120 C   0  0  0  0  0  0  0  0  0  0  0  0
   35.5680   29.7890   49.8570 C   0  0  0  0  0  0  0  0  0  0  0  0
   35.7970   30.5120   48.6680 C   0  0  0  0  0  0  0  0  0  0  0  0
   35.0010   30.2430   47.5500 C   0  0  0  0  0  0  0  0  0  0  0  0
   34.0460   29.2960   47.6640 N   0  0  0  0  0  0  0  0  0  0  0  0
   33.8310   28.6160   48.7790 C   0  0  0  0  0  0  0  0  0  0  0  0
   34.5860   28.8620   49.8650 N   0  0  0  0  0  0  0  0  0  0  0  0
   35.1980   30.8130   46.6500 H   0  0  0  0  0  0  0  0  0  0  0  0
   33.0760   27.8530   48.9030 H   0  0  0  0  0  0  0  0  0  0  0  0
   37.4400   29.3190   51.6090 C   0  0  0  0  0  0  0  0  0  0  0  0
   38.0360   28.4070   51.0000 O   0  0  0  0  0  0  0  0  0  0  0  0
   36.3020   29.9900   51.0440 N   0  0  0  0  0  0  0  0  0  0  0  0
   37.8410   29.5600   52.5800 H   0  0  0  0  0  0  0  0  0  0  0  0
   35.9980   30.7820   51.6840 H   0  0  0  0  0  0  0  0  0  0  0  0
  1  2  1  0  0  0  0
  2  9  1  0  0  0  0
  3  2  2  0  0  0  0
  3 10  1  0  0  0  0
  4  3  1  0  0  0  0
  5  4  2  0  0  0  0
  6  7  1  0  0  0  0
  6  4  1  0  0  0  0
  7  1  1  0  0  0  0
  8  7  2  0  0  0  0
 12 11  1  0  0  0  0
 12 13  1  0  0  0  0
 13  6  1  1  0  0  0
 14 13  1  0  0  0  0
 14 15  1  0  0  0  0
 16 17  1  0  0  0  0
 16 14  1  0  0  0  0
 18 19  1  0  0  0  0
 18 16  1  0  0  0  0
 19 12  1  0  0  0  0
 20 25  1  0  0  0  0
 20 30  1  0  0  0  0
 21  1  1  0  0  0  0
 21 20  2  0  0  0  0
 22 23  2  0  0  0  0
 22 21  1  0  0  0  0
 23 24  1  0  0  0  0
 24 27  1  0  0  0  0
 24 25  2  0  0  0  0
 26 22  1  0  0  0  0
 28 31  1  0  0  0  0
 29 28  2  0  0  0  0
 30 28  1  0  0  0  0
 30 32  1  0  0  0  0
M  END
>  <minimizedAffinity>
-6.69329071

>  <minimizedRMSD>
1.19191194

$$$$
