
 OpenBabel03272505483D

 40 44  0  0  1  0  0  0  0  0999 V2000
   36.3910   30.4440   45.9270 C   0  0  0  0  0  0  0  0  0  0  0  0
   36.9560   30.7450   47.1200 C   0  0  0  0  0  0  0  0  0  0  0  0
   36.3210   30.4150   48.3120 C   0  0  0  0  0  0  0  0  0  0  0  0
   35.0890   29.7660   48.2440 C   0  0  0  0  0  0  0  0  0  0  0  0
   34.5090   29.4580   47.0170 C   0  0  0  0  0  0  0  0  0  0  0  0
   35.1950   29.8150   45.9030 N   0  0  0  0  0  0  0  0  0  0  0  0
   37.9110   31.2480   47.1430 H   0  0  0  0  0  0  0  0  0  0  0  0
   36.7760   30.6570   49.2540 H   0  0  0  0  0  0  0  0  0  0  0  0
   34.5690   29.4960   49.1380 H   0  0  0  0  0  0  0  0  0  0  0  0
   37.0610   30.7920   44.6280 C   0  0  0  0  0  0  0  0  0  0  0  0
   36.7570   29.9790   43.4280 C   0  0  0  0  0  0  0  0  0  0  0  0
   36.2000   31.3790   43.5400 C   0  0  0  0  0  0  0  0  0  0  0  0
   37.5010   29.8590   42.6270 H   0  0  0  0  0  0  0  0  0  0  0  0
   36.0400   29.1540   43.5350 H   0  0  0  0  0  0  0  0  0  0  0  0
   35.1320   31.4590   43.7970 H   0  0  0  0  0  0  0  0  0  0  0  0
   36.6360   32.2070   42.9590 H   0  0  0  0  0  0  0  0  0  0  0  0
   39.7460   33.3110   44.9540 C   0  0  0  0  0  0  0  0  0  0  0  0
   40.8690   32.5280   45.2630 C   0  0  0  0  0  0  0  0  0  0  0  0
   40.6830   31.1380   45.3550 C   0  0  0  0  0  0  0  0  0  0  0  0
   39.4490   30.6350   45.1440 N   0  0  0  0  0  0  0  0  0  0  0  0
   38.3850   31.4180   44.8470 C   0  0  0  0  0  0  0  0  0  0  0  0
   38.5310   32.7450   44.7530 N   0  0  0  0  0  0  0  0  0  0  0  0
   39.7410   34.3720   44.8540 H   0  0  0  0  0  0  0  0  0  0  0  0
   41.8100   33.0460   45.4120 H   0  0  0  0  0  0  0  0  0  0  0  0
   41.5530   30.5460   45.5940 H   0  0  0  0  0  0  0  0  0  0  0  0
   33.2200   28.7790   46.8760 C   0  0  0  0  0  0  0  0  0  0  0  0
   32.7110   28.0340   45.8600 N   0  0  0  0  0  0  0  0  0  0  0  0
   31.4680   27.6230   46.2140 C   0  0  0  0  0  0  0  0  0  0  0  0
   31.1970   28.1140   47.4620 N   0  0  0  0  0  0  0  0  0  0  0  0
   32.2600   28.8050   47.8430 N   0  0  0  0  0  0  0  0  0  0  0  0
   30.8430   27.0190   45.5910 H   0  0  0  0  0  0  0  0  0  0  0  0
   29.0730   29.5420   47.2490 H   0  0  0  0  0  0  0  0  0  0  0  0
   29.1010   29.0500   48.1580 N   0  0  0  0  0  0  0  0  0  0  0  0
   29.9960   27.9250   48.2220 C   0  0  2  0  0  0  0  0  0  0  0  0
   30.2700   27.6410   49.6840 C   0  0  0  0  0  0  0  0  0  0  0  0
   31.1250   28.2750   50.0430 H   0  0  0  0  0  0  0  0  0  0  0  0
   29.1260   28.0330   50.4490 N   0  0  0  0  0  0  0  0  0  0  0  0
   29.1500   29.0070   50.8220 H   0  0  0  0  0  0  0  0  0  0  0  0
   27.8590   27.8470   49.7820 C   0  0  0  0  0  0  0  0  0  0  0  0
   27.7580   28.6260   48.5020 C   0  0  0  0  0  0  0  0  0  0  0  0
  1  2  1  0  0  0  0
  2  7  1  0  0  0  0
  2  3  2  0  0  0  0
  3  8  1  0  0  0  0
  4  3  1  0  0  0  0
  4  9  1  0  0  0  0
  5  4  2  0  0  0  0
  6  1  2  0  0  0  0
  6  5  1  0  0  0  0
 10 21  1  0  0  0  0
 10  1  1  0  0  0  0
 11 14  1  0  0  0  0
 11 12  1  0  0  0  0
 11 10  1  0  0  0  0
 12 15  1  0  0  0  0
 12 10  1  0  0  0  0
 13 11  1  0  0  0  0
 16 12  1  0  0  0  0
 17 18  1  0  0  0  0
 18 19  2  0  0  0  0
 18 24  1  0  0  0  0
 19 25  1  0  0  0  0
 20 19  1  0  0  0  0
 21 20  2  0  0  0  0
 22 21  1  0  0  0  0
 22 17  2  0  0  0  0
 23 17  1  0  0  0  0
 26  5  1  0  0  0  0
 26 30  2  0  0  0  0
 27 28  2  0  0  0  0
 27 26  1  0  0  0  0
 28 29  1  0  0  0  0
 29 30  1  0  0  0  0
 31 28  1  0  0  0  0
 32 33  1  0  0  0  0
 33 34  1  0  0  0  0
 33 40  1  0  0  0  0
 34 29  1  6  0  0  0
 34 35  1  0  0  0  0
 35 36  1  0  0  0  0
 35 37  1  0  0  0  0
 37 38  1  0  0  0  0
 39 37  1  0  0  0  0
 40 39  1  0  0  0  0
M  END
>  <minimizedAffinity>
-6.08416748

>  <minimizedRMSD>
1.19932795

$$$$
