
 OpenBabel03272505493D

 40 44  0  0  1  0  0  0  0  0999 V2000
   35.7270   29.4830   33.2200 C   0  0  0  0  0  0  0  0  0  0  0  0
   36.0380   29.9440   31.9860 C   0  0  0  0  0  0  0  0  0  0  0  0
   36.8290   29.1940   31.1230 C   0  0  0  0  0  0  0  0  0  0  0  0
   37.2910   27.9550   31.5640 C   0  0  0  0  0  0  0  0  0  0  0  0
   36.9710   27.4810   32.8320 C   0  0  0  0  0  0  0  0  0  0  0  0
   36.1950   28.2750   33.6110 N   0  0  0  0  0  0  0  0  0  0  0  0
   35.6660   30.9070   31.6710 H   0  0  0  0  0  0  0  0  0  0  0  0
   37.0700   29.5680   30.1460 H   0  0  0  0  0  0  0  0  0  0  0  0
   37.9020   27.3480   30.9300 H   0  0  0  0  0  0  0  0  0  0  0  0
   34.8740   30.2770   34.1680 C   0  0  0  0  0  0  0  0  0  0  0  0
   35.5280   30.9940   35.2870 C   0  0  0  0  0  0  0  0  0  0  0  0
   34.9900   31.7780   34.1130 C   0  0  0  0  0  0  0  0  0  0  0  0
   34.9880   31.1760   36.2280 H   0  0  0  0  0  0  0  0  0  0  0  0
   36.6200   30.9220   35.3740 H   0  0  0  0  0  0  0  0  0  0  0  0
   35.7380   32.1510   33.3950 H   0  0  0  0  0  0  0  0  0  0  0  0
   34.0530   32.3490   34.1990 H   0  0  0  0  0  0  0  0  0  0  0  0
   31.5830   28.8450   33.2840 C   0  0  0  0  0  0  0  0  0  0  0  0
   30.9750   28.6720   34.5370 C   0  0  0  0  0  0  0  0  0  0  0  0
   31.7100   29.0530   35.6720 C   0  0  0  0  0  0  0  0  0  0  0  0
   32.9490   29.5590   35.5000 N   0  0  0  0  0  0  0  0  0  0  0  0
   33.5080   29.7140   34.2760 C   0  0  0  0  0  0  0  0  0  0  0  0
   32.8320   29.3600   33.1770 N   0  0  0  0  0  0  0  0  0  0  0  0
   31.1430   28.6010   32.3450 H   0  0  0  0  0  0  0  0  0  0  0  0
   29.9740   28.2540   34.5490 H   0  0  0  0  0  0  0  0  0  0  0  0
   31.2330   28.9150   36.6300 H   0  0  0  0  0  0  0  0  0  0  0  0
   37.4240   26.1900   33.3550 C   0  0  0  0  0  0  0  0  0  0  0  0
   37.5310   24.9750   32.7570 N   0  0  0  0  0  0  0  0  0  0  0  0
   38.0030   24.0910   33.6700 C   0  0  0  0  0  0  0  0  0  0  0  0
   38.1930   24.7580   34.8490 N   0  0  0  0  0  0  0  0  0  0  0  0
   37.8400   26.0170   34.6410 N   0  0  0  0  0  0  0  0  0  0  0  0
   38.1800   23.0580   33.4590 H   0  0  0  0  0  0  0  0  0  0  0  0
   39.8940   22.8440   35.0480 H   0  0  0  0  0  0  0  0  0  0  0  0
   39.3450   22.9460   35.9170 N   0  0  0  0  0  0  0  0  0  0  0  0
   38.6800   24.2120   36.0820 C   0  0  2  0  0  3  0  0  0  0  0  0
   37.5840   24.0220   37.1090 C   0  0  0  0  0  3  0  0  0  0  0  0
   36.6490   23.6550   36.6070 H   0  0  0  0  0  0  0  0  0  0  0  0
   37.9830   22.9950   38.0220 N   0  0  0  0  0  0  0  0  0  0  0  0
   37.6690   22.0310   37.7760 H   0  0  0  0  0  0  0  0  0  0  0  0
   39.4000   22.9410   38.2890 C   0  0  0  0  0  2  0  0  0  0  0  0
   40.2160   22.7010   37.0500 C   0  0  0  0  0  2  0  0  0  0  0  0
  1  6  1  0  0  0  0
  1 10  1  0  0  0  0
  2  1  2  0  0  0  0
  3  4  2  0  0  0  0
  3  2  1  0  0  0  0
  4  5  1  0  0  0  0
  5 26  1  0  0  0  0
  5  6  2  0  0  0  0
  7  2  1  0  0  0  0
  8  3  1  0  0  0  0
  9  4  1  0  0  0  0
 10 21  1  0  0  0  0
 10 11  1  0  0  0  0
 11 14  1  0  0  0  0
 11 13  1  0  0  0  0
 12 10  1  0  0  0  0
 12 16  1  0  0  0  0
 12 11  1  0  0  0  0
 15 12  1  0  0  0  0
 17 18  1  0  0  0  0
 18 24  1  0  0  0  0
 18 19  2  0  0  0  0
 19 25  1  0  0  0  0
 20 19  1  0  0  0  0
 21 20  2  0  0  0  0
 22 17  2  0  0  0  0
 22 21  1  0  0  0  0
 23 17  1  0  0  0  0
 26 30  2  0  0  0  0
 27 26  1  0  0  0  0
 27 28  2  0  0  0  0
 28 29  1  0  0  0  0
 30 29  1  0  0  0  0
 31 28  1  0  0  0  0
 32 33  1  0  0  0  0
 33 34  1  0  0  0  0
 33 40  1  0  0  0  0
 34 29  1  6  0  0  0
 34 35  1  0  0  0  0
 35 37  1  0  0  0  0
 36 35  1  0  0  0  0
 37 39  1  0  0  0  0
 38 37  1  0  0  0  0
 40 39  1  0  0  0  0
M  END
>  <minimizedAffinity>
-6.13916874

$$$$

 OpenBabel03272505493D

 40 44  0  0  1  0  0  0  0  0999 V2000
   38.8920   24.5030   35.6660 C   0  0  0  0  0  0  0  0  0  0  0  0
   40.1960   24.6210   35.3230 C   0  0  0  0  0  0  0  0  0  0  0  0
   40.6190   25.6250   34.4590 C   0  0  0  0  0  0  0  0  0  0  0  0
   39.6610   26.5060   33.9560 C   0  0  0  0  0  0  0  0  0  0  0  0
   38.3210   26.3840   34.3090 C   0  0  0  0  0  0  0  0  0  0  0  0
   37.9940   25.3770   35.1570 N   0  0  0  0  0  0  0  0  0  0  0  0
   40.9150   23.9250   35.7270 H   0  0  0  0  0  0  0  0  0  0  0  0
   41.6550   25.7110   34.1930 H   0  0  0  0  0  0  0  0  0  0  0  0
   39.9460   27.2910   33.2890 H   0  0  0  0  0  0  0  0  0  0  0  0
   38.4150   23.4260   36.5980 C   0  0  0  0  0  0  0  0  0  0  0  0
   39.2840   23.0230   37.7280 C   0  0  0  0  0  0  0  0  0  0  0  0
   38.0390   23.8360   37.9970 C   0  0  0  0  0  0  0  0  0  0  0  0
   39.2440   22.0010   38.1310 H   0  0  0  0  0  0  0  0  0  0  0  0
   40.2450   23.5410   37.8460 H   0  0  0  0  0  0  0  0  0  0  0  0
   38.1940   24.9050   38.2160 H   0  0  0  0  0  0  0  0  0  0  0  0
   37.1400   23.3640   38.4250 H   0  0  0  0  0  0  0  0  0  0  0  0
   36.8570   21.3110   33.9970 C   0  0  0  0  0  0  0  0  0  0  0  0
   35.8070   20.6920   34.6910 C   0  0  0  0  0  0  0  0  0  0  0  0
   35.6500   21.0120   36.0500 C   0  0  0  0  0  0  0  0  0  0  0  0
   36.5090   21.8900   36.6100 N   0  0  0  0  0  0  0  0  0  0  0  0
   37.5130   22.4720   35.9130 C   0  0  0  0  0  0  0  0  0  0  0  0
   37.6870   22.1850   34.6170 N   0  0  0  0  0  0  0  0  0  0  0  0
   37.0920   21.1620   32.9680 H   0  0  0  0  0  0  0  0  0  0  0  0
   35.1820   20.0020   34.1330 H   0  0  0  0  0  0  0  0  0  0  0  0
   34.8390   20.5290   36.5730 H   0  0  0  0  0  0  0  0  0  0  0  0
   37.2680   27.2750   33.8170 C   0  0  0  0  0  0  0  0  0  0  0  0
   36.6130   27.3090   32.6270 N   0  0  0  0  0  0  0  0  0  0  0  0
   35.7220   28.3300   32.6600 C   0  0  0  0  0  0  0  0  0  0  0  0
   35.8190   28.9400   33.8810 N   0  0  0  0  0  0  0  0  0  0  0  0
   36.7520   28.2930   34.5620 N   0  0  0  0  0  0  0  0  0  0  0  0
   35.0740   28.5790   31.8470 H   0  0  0  0  0  0  0  0  0  0  0  0
   36.7530   30.8610   35.3070 H   0  0  0  0  0  0  0  0  0  0  0  0
   35.7250   30.8000   35.3920 N   0  0  0  0  0  0  0  0  0  0  0  0
   35.0620   30.0650   34.3470 C   0  0  2  0  0  3  0  0  0  0  0  0
   33.6930   29.6740   34.8610 C   0  0  0  0  0  3  0  0  0  0  0  0
   33.7590   28.7070   35.4290 H   0  0  0  0  0  0  0  0  0  0  0  0
   33.2540   30.6630   35.7970 N   0  0  0  0  0  0  0  0  0  0  0  0
   33.4840   30.4670   36.7960 H   0  0  0  0  0  0  0  0  0  0  0  0
   33.6860   32.0080   35.5020 C   0  0  0  0  0  2  0  0  0  0  0  0
   35.1820   32.1430   35.4640 C   0  0  0  0  0  2  0  0  0  0  0  0
  1 10  1  0  0  0  0
  2  1  1  0  0  0  0
  2  7  1  0  0  0  0
  3  2  2  0  0  0  0
  4  5  2  0  0  0  0
  4  3  1  0  0  0  0
  5  6  1  0  0  0  0
  6  1  2  0  0  0  0
  8  3  1  0  0  0  0
  9  4  1  0  0  0  0
 10 11  1  0  0  0  0
 10 12  1  0  0  0  0
 11 14  1  0  0  0  0
 11 12  1  0  0  0  0
 11 13  1  0  0  0  0
 12 15  1  0  0  0  0
 12 16  1  0  0  0  0
 17 22  2  0  0  0  0
 17 18  1  0  0  0  0
 18 19  2  0  0  0  0
 19 25  1  0  0  0  0
 19 20  1  0  0  0  0
 21 10  1  0  0  0  0
 21 20  2  0  0  0  0
 22 21  1  0  0  0  0
 23 17  1  0  0  0  0
 24 18  1  0  0  0  0
 26  5  1  0  0  0  0
 26 30  2  0  0  0  0
 27 28  2  0  0  0  0
 27 26  1  0  0  0  0
 28 29  1  0  0  0  0
 29 30  1  0  0  0  0
 31 28  1  0  0  0  0
 32 33  1  0  0  0  0
 33 40  1  0  0  0  0
 34 29  1  1  0  0  0
 34 35  1  0  0  0  0
 34 33  1  0  0  0  0
 35 36  1  0  0  0  0
 35 37  1  0  0  0  0
 37 38  1  0  0  0  0
 39 37  1  0  0  0  0
 40 39  1  0  0  0  0
M  END
>  <minimizedAffinity>
-6.00248051

$$$$

 OpenBabel03272505493D

 40 44  0  0  1  0  0  0  0  0999 V2000
   34.9190   29.6040   32.3220 C   0  0  0  0  0  0  0  0  0  0  0  0
   35.4940   30.2860   31.3030 C   0  0  0  0  0  0  0  0  0  0  0  0
   36.5680   29.7490   30.6020 C   0  0  0  0  0  0  0  0  0  0  0  0
   37.0350   28.4900   30.9780 C   0  0  0  0  0  0  0  0  0  0  0  0
   36.4440   27.7900   32.0250 C   0  0  0  0  0  0  0  0  0  0  0  0
   35.4020   28.3860   32.6560 N   0  0  0  0  0  0  0  0  0  0  0  0
   35.1110   31.2590   31.0340 H   0  0  0  0  0  0  0  0  0  0  0  0
   37.0160   30.2960   29.7950 H   0  0  0  0  0  0  0  0  0  0  0  0
   37.8590   28.0430   30.4630 H   0  0  0  0  0  0  0  0  0  0  0  0
   33.7590   30.1670   33.0920 C   0  0  0  0  0  0  0  0  0  0  0  0
   32.5750   30.6530   32.3450 C   0  0  0  0  0  0  0  0  0  0  0  0
   32.4880   29.3590   33.1190 C   0  0  0  0  0  0  0  0  0  0  0  0
   31.9460   31.4580   32.7530 H   0  0  0  0  0  0  0  0  0  0  0  0
   32.5900   30.5720   31.2500 H   0  0  0  0  0  0  0  0  0  0  0  0
   32.5240   28.4320   32.5240 H   0  0  0  0  0  0  0  0  0  0  0  0
   31.9540   29.3120   34.0810 H   0  0  0  0  0  0  0  0  0  0  0  0
   33.6980   31.7300   36.4400 C   0  0  0  0  0  0  0  0  0  0  0  0
   35.0610   31.8990   36.7270 C   0  0  0  0  0  0  0  0  0  0  0  0
   35.9840   31.4700   35.7590 C   0  0  0  0  0  0  0  0  0  0  0  0
   35.5170   30.9240   34.6170 N   0  0  0  0  0  0  0  0  0  0  0  0
   34.1950   30.7750   34.3700 C   0  0  0  0  0  0  0  0  0  0  0  0
   33.2920   31.1740   35.2730 N   0  0  0  0  0  0  0  0  0  0  0  0
   32.8920   32.0080   37.0800 H   0  0  0  0  0  0  0  0  0  0  0  0
   35.3150   32.3510   37.6810 H   0  0  0  0  0  0  0  0  0  0  0  0
   37.0300   31.6050   35.9910 H   0  0  0  0  0  0  0  0  0  0  0  0
   36.8870   26.4660   32.4680 C   0  0  0  0  0  0  0  0  0  0  0  0
   36.8570   25.2610   31.8420 N   0  0  0  0  0  0  0  0  0  0  0  0
   37.3870   24.3340   32.6770 C   0  0  0  0  0  0  0  0  0  0  0  0
   37.7510   24.9640   33.8360 N   0  0  0  0  0  0  0  0  0  0  0  0
   37.4430   26.2430   33.6920 N   0  0  0  0  0  0  0  0  0  0  0  0
   37.4830   23.2980   32.4290 H   0  0  0  0  0  0  0  0  0  0  0  0
   37.8700   22.4400   34.3000 H   0  0  0  0  0  0  0  0  0  0  0  0
   37.9840   22.9850   35.1710 N   0  0  0  0  0  0  0  0  0  0  0  0
   38.3510   24.3650   34.9920 C   0  0  2  0  0  3  0  0  0  0  0  0
   38.0110   25.0990   36.2720 C   0  0  0  0  0  3  0  0  0  0  0  0
   36.9390   25.4350   36.2460 H   0  0  0  0  0  0  0  0  0  0  0  0
   38.1230   24.1860   37.3680 N   0  0  0  0  0  0  0  0  0  0  0  0
   37.2420   23.6930   37.6300 H   0  0  0  0  0  0  0  0  0  0  0  0
   39.1580   23.1900   37.2220 C   0  0  0  0  0  2  0  0  0  0  0  0
   38.9640   22.3240   36.0100 C   0  0  0  0  0  2  0  0  0  0  0  0
  1  6  1  0  0  0  0
  1 10  1  0  0  0  0
  2  1  2  0  0  0  0
  3  4  2  0  0  0  0
  3  2  1  0  0  0  0
  4  5  1  0  0  0  0
  5 26  1  0  0  0  0
  5  6  2  0  0  0  0
  7  2  1  0  0  0  0
  8  3  1  0  0  0  0
  9  4  1  0  0  0  0
 10 12  1  0  0  0  0
 10 21  1  0  0  0  0
 11 13  1  0  0  0  0
 11 10  1  0  0  0  0
 11 12  1  0  0  0  0
 12 16  1  0  0  0  0
 14 11  1  0  0  0  0
 15 12  1  0  0  0  0
 17 18  1  0  0  0  0
 17 23  1  0  0  0  0
 18 24  1  0  0  0  0
 19 25  1  0  0  0  0
 19 18  2  0  0  0  0
 20 19  1  0  0  0  0
 21 20  2  0  0  0  0
 21 22  1  0  0  0  0
 22 17  2  0  0  0  0
 26 30  2  0  0  0  0
 27 26  1  0  0  0  0
 27 28  2  0  0  0  0
 28 29  1  0  0  0  0
 30 29  1  0  0  0  0
 31 28  1  0  0  0  0
 32 33  1  0  0  0  0
 33 40  1  0  0  0  0
 34 29  1  6  0  0  0
 34 33  1  0  0  0  0
 34 35  1  0  0  0  0
 35 37  1  0  0  0  0
 36 35  1  0  0  0  0
 37 38  1  0  0  0  0
 39 37  1  0  0  0  0
 40 39  1  0  0  0  0
M  END
>  <minimizedAffinity>
-5.92325258

$$$$

 OpenBabel03272505493D

 40 44  0  0  1  0  0  0  0  0999 V2000
   38.4520   24.2840   35.2330 C   0  0  0  0  0  0  0  0  0  0  0  0
   38.5290   25.0090   36.3730 C   0  0  0  0  0  0  0  0  0  0  0  0
   38.1830   26.3560   36.3860 C   0  0  0  0  0  0  0  0  0  0  0  0
   37.7540   26.9360   35.1930 C   0  0  0  0  0  0  0  0  0  0  0  0
   37.6750   26.1900   34.0220 C   0  0  0  0  0  0  0  0  0  0  0  0
   38.0310   24.8840   34.0960 N   0  0  0  0  0  0  0  0  0  0  0  0
   38.8650   24.5340   37.2820 H   0  0  0  0  0  0  0  0  0  0  0  0
   38.2470   26.9230   37.2950 H   0  0  0  0  0  0  0  0  0  0  0  0
   37.4790   27.9690   35.1620 H   0  0  0  0  0  0  0  0  0  0  0  0
   38.8220   22.8280   35.1980 C   0  0  0  0  0  0  0  0  0  0  0  0
   40.2210   22.4540   34.8880 C   0  0  0  0  0  0  0  0  0  0  0  0
   39.7060   22.3110   36.3010 C   0  0  0  0  0  0  0  0  0  0  0  0
   40.4510   21.4970   34.3990 H   0  0  0  0  0  0  0  0  0  0  0  0
   40.9400   23.2640   34.7060 H   0  0  0  0  0  0  0  0  0  0  0  0
   40.0360   23.0790   37.0190 H   0  0  0  0  0  0  0  0  0  0  0  0
   39.4550   21.3200   36.7110 H   0  0  0  0  0  0  0  0  0  0  0  0
   35.7320   20.8060   35.3620 C   0  0  0  0  0  0  0  0  0  0  0  0
   35.5500   20.4110   34.0280 C   0  0  0  0  0  0  0  0  0  0  0  0
   36.4970   20.8500   33.0880 C   0  0  0  0  0  0  0  0  0  0  0  0
   37.5210   21.6190   33.5120 N   0  0  0  0  0  0  0  0  0  0  0  0
   37.6700   21.9820   34.8080 C   0  0  0  0  0  0  0  0  0  0  0  0
   36.7840   21.5800   35.7260 N   0  0  0  0  0  0  0  0  0  0  0  0
   35.0950   20.5480   36.1760 H   0  0  0  0  0  0  0  0  0  0  0  0
   34.6870   19.7920   33.8070 H   0  0  0  0  0  0  0  0  0  0  0  0
   36.3460   20.5410   32.0640 H   0  0  0  0  0  0  0  0  0  0  0  0
   37.2330   26.7390   32.7380 C   0  0  0  0  0  0  0  0  0  0  0  0
   36.2170   26.3720   31.9140 N   0  0  0  0  0  0  0  0  0  0  0  0
   36.2200   27.1970   30.8390 C   0  0  0  0  0  0  0  0  0  0  0  0
   37.2470   28.0890   30.9910 N   0  0  0  0  0  0  0  0  0  0  0  0
   37.8440   27.7990   32.1360 N   0  0  0  0  0  0  0  0  0  0  0  0
   35.5200   27.1260   30.0340 H   0  0  0  0  0  0  0  0  0  0  0  0
   35.8670   30.2090   30.5470 H   0  0  0  0  0  0  0  0  0  0  0  0
   36.5270   30.0260   29.7730 N   0  0  0  0  0  0  0  0  0  0  0  0
   37.6170   29.1410   30.0900 C   0  0  2  0  0  3  0  0  0  0  0  0
   38.1770   28.6200   28.7830 C   0  0  0  0  0  3  0  0  0  0  0  0
   37.6020   27.7110   28.4560 H   0  0  0  0  0  0  0  0  0  0  0  0
   37.9770   29.6110   27.7700 N   0  0  0  0  0  0  0  0  0  0  0  0
   37.0960   29.5170   27.2200 H   0  0  0  0  0  0  0  0  0  0  0  0
   38.0630   30.9750   28.2340 C   0  0  0  0  0  2  0  0  0  0  0  0
   37.0490   31.2920   29.2960 C   0  0  0  0  0  2  0  0  0  0  0  0
  1  2  1  0  0  0  0
  2  3  2  0  0  0  0
  2  7  1  0  0  0  0
  3  8  1  0  0  0  0
  4  3  1  0  0  0  0
  5  6  1  0  0  0  0
  5  4  2  0  0  0  0
  6  1  2  0  0  0  0
  9  4  1  0  0  0  0
 10  1  1  0  0  0  0
 10 12  1  0  0  0  0
 11 10  1  0  0  0  0
 11 12  1  0  0  0  0
 12 16  1  0  0  0  0
 12 15  1  0  0  0  0
 13 11  1  0  0  0  0
 14 11  1  0  0  0  0
 17 22  1  0  0  0  0
 17 23  1  0  0  0  0
 18 17  2  0  0  0  0
 19 20  2  0  0  0  0
 19 18  1  0  0  0  0
 20 21  1  0  0  0  0
 21 10  1  0  0  0  0
 21 22  2  0  0  0  0
 24 18  1  0  0  0  0
 25 19  1  0  0  0  0
 26  5  1  0  0  0  0
 27 26  1  0  0  0  0
 28 29  1  0  0  0  0
 28 27  2  0  0  0  0
 29 30  1  0  0  0  0
 30 26  2  0  0  0  0
 31 28  1  0  0  0  0
 33 34  1  0  0  0  0
 33 32  1  0  0  0  0
 34 29  1  1  0  0  0
 35 34  1  0  0  0  0
 36 35  1  0  0  0  0
 37 39  1  0  0  0  0
 37 35  1  0  0  0  0
 38 37  1  0  0  0  0
 39 40  1  0  0  0  0
 40 33  1  0  0  0  0
M  END
>  <minimizedAffinity>
-5.90885735

$$$$

 OpenBabel03272505493D

 40 44  0  0  1  0  0  0  0  0999 V2000
   37.8240   26.5050   33.5200 C   0  0  0  0  0  0  0  0  0  0  0  0
   37.7100   25.7840   32.3800 C   0  0  0  0  0  0  0  0  0  0  0  0
   36.7830   26.1330   31.4050 C   0  0  0  0  0  0  0  0  0  0  0  0
   35.9750   27.2460   31.6350 C   0  0  0  0  0  0  0  0  0  0  0  0
   36.0910   27.9860   32.8070 C   0  0  0  0  0  0  0  0  0  0  0  0
   37.0210   27.5770   33.7060 N   0  0  0  0  0  0  0  0  0  0  0  0
   38.3490   24.9270   32.2290 H   0  0  0  0  0  0  0  0  0  0  0  0
   36.7000   25.5560   30.5030 H   0  0  0  0  0  0  0  0  0  0  0  0
   35.2490   27.5470   30.9090 H   0  0  0  0  0  0  0  0  0  0  0  0
   38.8190   26.1440   34.5860 C   0  0  0  0  0  0  0  0  0  0  0  0
   40.1090   26.8710   34.6330 C   0  0  0  0  0  0  0  0  0  0  0  0
   39.0570   27.1500   35.6810 C   0  0  0  0  0  0  0  0  0  0  0  0
   41.0130   26.3850   35.0290 H   0  0  0  0  0  0  0  0  0  0  0  0
   40.2830   27.6580   33.8880 H   0  0  0  0  0  0  0  0  0  0  0  0
   38.4940   28.0900   35.5670 H   0  0  0  0  0  0  0  0  0  0  0  0
   39.1600   26.7520   36.7030 H   0  0  0  0  0  0  0  0  0  0  0  0
   39.2180   22.4710   34.6980 C   0  0  0  0  0  0  0  0  0  0  0  0
   38.4220   22.1070   35.7940 C   0  0  0  0  0  0  0  0  0  0  0  0
   37.7570   23.1360   36.4810 C   0  0  0  0  0  0  0  0  0  0  0  0
   37.9170   24.4060   36.0560 N   0  0  0  0  0  0  0  0  0  0  0  0
   38.6930   24.7260   34.9930 C   0  0  0  0  0  0  0  0  0  0  0  0
   39.3390   23.7670   34.3190 N   0  0  0  0  0  0  0  0  0  0  0  0
   39.7770   21.7990   34.0880 H   0  0  0  0  0  0  0  0  0  0  0  0
   38.3710   21.0520   36.0410 H   0  0  0  0  0  0  0  0  0  0  0  0
   37.1470   22.8440   37.3230 H   0  0  0  0  0  0  0  0  0  0  0  0
   35.2740   29.1630   33.1080 C   0  0  0  0  0  0  0  0  0  0  0  0
   34.1940   29.6860   32.4700 N   0  0  0  0  0  0  0  0  0  0  0  0
   33.7930   30.7900   33.1460 C   0  0  0  0  0  0  0  0  0  0  0  0
   34.6290   30.9610   34.2160 N   0  0  0  0  0  0  0  0  0  0  0  0
   35.5110   29.9750   34.1770 N   0  0  0  0  0  0  0  0  0  0  0  0
   32.9600   31.3940   32.8550 H   0  0  0  0  0  0  0  0  0  0  0  0
   36.3440   32.8570   34.4610 H   0  0  0  0  0  0  0  0  0  0  0  0
   35.8110   32.7220   35.3360 N   0  0  0  0  0  0  0  0  0  0  0  0
   34.5710   32.0030   35.1990 C   0  0  2  0  0  3  0  0  0  0  0  0
   34.1850   31.4920   36.5700 C   0  0  0  0  0  3  0  0  0  0  0  0
   34.6770   30.5010   36.7610 H   0  0  0  0  0  0  0  0  0  0  0  0
   34.6940   32.3940   37.5570 N   0  0  0  0  0  0  0  0  0  0  0  0
   35.6380   32.1580   37.9340 H   0  0  0  0  0  0  0  0  0  0  0  0
   34.7160   33.7800   37.1550 C   0  0  0  0  0  2  0  0  0  0  0  0
   35.5610   34.0180   35.9350 C   0  0  0  0  0  2  0  0  0  0  0  0
  1  6  1  0  0  0  0
  1 10  1  0  0  0  0
  2  1  2  0  0  0  0
  3  4  2  0  0  0  0
  3  2  1  0  0  0  0
  4  5  1  0  0  0  0
  5 26  1  0  0  0  0
  5  6  2  0  0  0  0
  7  2  1  0  0  0  0
  8  3  1  0  0  0  0
  9  4  1  0  0  0  0
 10 11  1  0  0  0  0
 10 21  1  0  0  0  0
 10 12  1  0  0  0  0
 11 13  1  0  0  0  0
 11 12  1  0  0  0  0
 12 16  1  0  0  0  0
 14 11  1  0  0  0  0
 15 12  1  0  0  0  0
 17 18  1  0  0  0  0
 18 24  1  0  0  0  0
 18 19  2  0  0  0  0
 19 25  1  0  0  0  0
 20 19  1  0  0  0  0
 21 20  2  0  0  0  0
 22 17  2  0  0  0  0
 22 21  1  0  0  0  0
 23 17  1  0  0  0  0
 26 30  2  0  0  0  0
 27 26  1  0  0  0  0
 27 28  2  0  0  0  0
 28 29  1  0  0  0  0
 30 29  1  0  0  0  0
 31 28  1  0  0  0  0
 32 33  1  0  0  0  0
 33 40  1  0  0  0  0
 34 29  1  6  0  0  0
 34 33  1  0  0  0  0
 34 35  1  0  0  0  0
 35 36  1  0  0  0  0
 35 37  1  0  0  0  0
 37 38  1  0  0  0  0
 39 37  1  0  0  0  0
 40 39  1  0  0  0  0
M  END
>  <minimizedAffinity>
-5.85176897

$$$$

 OpenBabel03272505493D

 40 44  0  0  1  0  0  0  0  0999 V2000
   38.4940   25.6340   33.6080 C   0  0  0  0  0  0  0  0  0  0  0  0
   38.1060   24.6290   32.7870 C   0  0  0  0  0  0  0  0  0  0  0  0
   37.0160   24.7820   31.9380 C   0  0  0  0  0  0  0  0  0  0  0  0
   36.3350   25.9990   31.9550 C   0  0  0  0  0  0  0  0  0  0  0  0
   36.7340   27.0310   32.7990 C   0  0  0  0  0  0  0  0  0  0  0  0
   37.8070   26.7990   33.5950 N   0  0  0  0  0  0  0  0  0  0  0  0
   38.6520   23.6980   32.7950 H   0  0  0  0  0  0  0  0  0  0  0  0
   36.7160   23.9810   31.2910 H   0  0  0  0  0  0  0  0  0  0  0  0
   35.4920   26.1560   31.3170 H   0  0  0  0  0  0  0  0  0  0  0  0
   39.6690   25.4880   34.5330 C   0  0  0  0  0  0  0  0  0  0  0  0
   41.0350   25.5100   33.9600 C   0  0  0  0  0  0  0  0  0  0  0  0
   40.5370   26.7000   34.7460 C   0  0  0  0  0  0  0  0  0  0  0  0
   41.8570   24.9660   34.4490 H   0  0  0  0  0  0  0  0  0  0  0  0
   41.1340   25.6430   32.8750 H   0  0  0  0  0  0  0  0  0  0  0  0
   40.2400   27.5830   34.1580 H   0  0  0  0  0  0  0  0  0  0  0  0
   40.8860   26.8810   35.7750 H   0  0  0  0  0  0  0  0  0  0  0  0
   39.7090   22.8700   37.1420 C   0  0  0  0  0  0  0  0  0  0  0  0
   38.6390   23.2430   37.9700 C   0  0  0  0  0  0  0  0  0  0  0  0
   37.9170   24.3950   37.6160 C   0  0  0  0  0  0  0  0  0  0  0  0
   38.2860   25.0760   36.5110 N   0  0  0  0  0  0  0  0  0  0  0  0
   39.3240   24.6890   35.7310 C   0  0  0  0  0  0  0  0  0  0  0  0
   40.0300   23.5960   36.0430 N   0  0  0  0  0  0  0  0  0  0  0  0
   40.3390   22.0240   37.2890 H   0  0  0  0  0  0  0  0  0  0  0  0
   38.4380   22.6170   38.8330 H   0  0  0  0  0  0  0  0  0  0  0  0
   37.0970   24.6730   38.2610 H   0  0  0  0  0  0  0  0  0  0  0  0
   36.0630   28.3310   32.8650 C   0  0  0  0  0  0  0  0  0  0  0  0
   35.6430   29.1680   31.8810 N   0  0  0  0  0  0  0  0  0  0  0  0
   35.0760   30.2550   32.4590 C   0  0  0  0  0  0  0  0  0  0  0  0
   35.1410   30.0980   33.8160 N   0  0  0  0  0  0  0  0  0  0  0  0
   35.7370   28.9370   34.0410 N   0  0  0  0  0  0  0  0  0  0  0  0
   34.6610   31.0720   31.9070 H   0  0  0  0  0  0  0  0  0  0  0  0
   36.5950   31.2270   35.6080 H   0  0  0  0  0  0  0  0  0  0  0  0
   35.6000   31.2200   35.8860 N   0  0  0  0  0  0  0  0  0  0  0  0
   34.6610   31.0070   34.8150 C   0  0  2  0  0  3  0  0  0  0  0  0
   33.3550   30.5570   35.4350 C   0  0  0  0  0  3  0  0  0  0  0  0
   33.3630   29.4430   35.5780 H   0  0  0  0  0  0  0  0  0  0  0  0
   33.2430   31.1330   36.7400 N   0  0  0  0  0  0  0  0  0  0  0  0
   33.6060   30.5440   37.5210 H   0  0  0  0  0  0  0  0  0  0  0  0
   33.8250   32.4470   36.8730 C   0  0  0  0  0  2  0  0  0  0  0  0
   35.2950   32.4660   36.5620 C   0  0  0  0  0  2  0  0  0  0  0  0
  1 10  1  0  0  0  0
  2  7  1  0  0  0  0
  2  1  2  0  0  0  0
  3  4  2  0  0  0  0
  3  2  1  0  0  0  0
  4  5  1  0  0  0  0
  5 26  1  0  0  0  0
  5  6  2  0  0  0  0
  6  1  1  0  0  0  0
  8  3  1  0  0  0  0
  9  4  1  0  0  0  0
 10 12  1  0  0  0  0
 10 21  1  0  0  0  0
 11 13  1  0  0  0  0
 11 10  1  0  0  0  0
 11 12  1  0  0  0  0
 12 16  1  0  0  0  0
 14 11  1  0  0  0  0
 15 12  1  0  0  0  0
 17 23  1  0  0  0  0
 17 18  1  0  0  0  0
 18 24  1  0  0  0  0
 19 18  2  0  0  0  0
 19 25  1  0  0  0  0
 20 19  1  0  0  0  0
 21 22  1  0  0  0  0
 21 20  2  0  0  0  0
 22 17  2  0  0  0  0
 26 30  2  0  0  0  0
 27 28  2  0  0  0  0
 27 26  1  0  0  0  0
 28 29  1  0  0  0  0
 29 30  1  0  0  0  0
 31 28  1  0  0  0  0
 32 33  1  0  0  0  0
 33 40  1  0  0  0  0
 34 29  1  6  0  0  0
 34 35  1  0  0  0  0
 34 33  1  0  0  0  0
 35 36  1  0  0  0  0
 35 37  1  0  0  0  0
 37 39  1  0  0  0  0
 37 38  1  0  0  0  0
 40 39  1  0  0  0  0
M  END
>  <minimizedAffinity>
-5.78386307

$$$$

 OpenBabel03272505493D

 40 44  0  0  1  0  0  0  0  0999 V2000
   38.1900   25.8350   33.4120 C   0  0  0  0  0  0  0  0  0  0  0  0
   37.7740   24.7200   32.7680 C   0  0  0  0  0  0  0  0  0  0  0  0
   36.6930   24.7610   31.8940 C   0  0  0  0  0  0  0  0  0  0  0  0
   36.0510   25.9830   31.7020 C   0  0  0  0  0  0  0  0  0  0  0  0
   36.4780   27.1300   32.3640 C   0  0  0  0  0  0  0  0  0  0  0  0
   37.5400   27.0020   33.1980 N   0  0  0  0  0  0  0  0  0  0  0  0
   38.2910   23.7860   32.9370 H   0  0  0  0  0  0  0  0  0  0  0  0
   36.3710   23.8710   31.3880 H   0  0  0  0  0  0  0  0  0  0  0  0
   35.2150   26.0570   31.0380 H   0  0  0  0  0  0  0  0  0  0  0  0
   39.3560   25.8110   34.3590 C   0  0  0  0  0  0  0  0  0  0  0  0
   40.7160   26.0550   33.8240 C   0  0  0  0  0  0  0  0  0  0  0  0
   40.0380   27.1210   34.6520 C   0  0  0  0  0  0  0  0  0  0  0  0
   41.5970   25.6090   34.3080 H   0  0  0  0  0  0  0  0  0  0  0  0
   40.8160   26.2550   32.7490 H   0  0  0  0  0  0  0  0  0  0  0  0
   39.6300   27.9820   34.0980 H   0  0  0  0  0  0  0  0  0  0  0  0
   40.3380   27.2980   35.6970 H   0  0  0  0  0  0  0  0  0  0  0  0
   39.6570   23.0330   36.7780 C   0  0  0  0  0  0  0  0  0  0  0  0
   38.5960   23.2770   37.6630 C   0  0  0  0  0  0  0  0  0  0  0  0
   37.7890   24.3990   37.4120 C   0  0  0  0  0  0  0  0  0  0  0  0
   38.0740   25.1750   36.3460 N   0  0  0  0  0  0  0  0  0  0  0  0
   39.1060   24.9130   35.5090 C   0  0  0  0  0  0  0  0  0  0  0  0
   39.8920   23.8510   35.7230 N   0  0  0  0  0  0  0  0  0  0  0  0
   40.3460   22.2220   36.8470 H   0  0  0  0  0  0  0  0  0  0  0  0
   38.4660   22.5820   38.4860 H   0  0  0  0  0  0  0  0  0  0  0  0
   36.9750   24.5770   38.0990 H   0  0  0  0  0  0  0  0  0  0  0  0
   35.8480   28.4420   32.2050 C   0  0  0  0  0  0  0  0  0  0  0  0
   36.3680   29.6420   31.8360 N   0  0  0  0  0  0  0  0  0  0  0  0
   35.3700   30.5580   31.8390 C   0  0  0  0  0  0  0  0  0  0  0  0
   34.2140   29.9270   32.2130 N   0  0  0  0  0  0  0  0  0  0  0  0
   34.5210   28.6580   32.4280 N   0  0  0  0  0  0  0  0  0  0  0  0
   35.5080   31.5880   31.5860 H   0  0  0  0  0  0  0  0  0  0  0  0
   32.1460   28.7390   33.1650 H   0  0  0  0  0  0  0  0  0  0  0  0
   31.8750   29.5480   32.5830 N   0  0  0  0  0  0  0  0  0  0  0  0
   32.9140   30.5160   32.3500 C   0  0  2  0  0  3  0  0  0  0  0  0
   32.5140   31.3350   31.1410 C   0  0  0  0  0  3  0  0  0  0  0  0
   32.8550   30.8210   30.2020 H   0  0  0  0  0  0  0  0  0  0  0  0
   31.0860   31.3910   31.0770 N   0  0  0  0  0  0  0  0  0  0  0  0
   30.6350   30.6490   30.4970 H   0  0  0  0  0  0  0  0  0  0  0  0
   30.4230   31.4110   32.3590 C   0  0  0  0  0  2  0  0  0  0  0  0
   30.7300   30.1970   33.1900 C   0  0  0  0  0  2  0  0  0  0  0  0
  1 10  1  0  0  0  0
  2  7  1  0  0  0  0
  2  1  2  0  0  0  0
  3  2  1  0  0  0  0
  4  3  2  0  0  0  0
  4  5  1  0  0  0  0
  5  6  2  0  0  0  0
  6  1  1  0  0  0  0
  8  3  1  0  0  0  0
  9  4  1  0  0  0  0
 10 12  1  0  0  0  0
 10 21  1  0  0  0  0
 11 13  1  0  0  0  0
 11 10  1  0  0  0  0
 11 12  1  0  0  0  0
 12 16  1  0  0  0  0
 14 11  1  0  0  0  0
 15 12  1  0  0  0  0
 17 23  1  0  0  0  0
 17 18  1  0  0  0  0
 18 24  1  0  0  0  0
 19 18  2  0  0  0  0
 19 25  1  0  0  0  0
 20 19  1  0  0  0  0
 21 22  1  0  0  0  0
 21 20  2  0  0  0  0
 22 17  2  0  0  0  0
 26  5  1  0  0  0  0
 26 30  2  0  0  0  0
 27 28  2  0  0  0  0
 27 26  1  0  0  0  0
 28 29  1  0  0  0  0
 29 30  1  0  0  0  0
 31 28  1  0  0  0  0
 33 32  1  0  0  0  0
 33 40  1  0  0  0  0
 34 29  1  6  0  0  0
 34 33  1  0  0  0  0
 35 34  1  0  0  0  0
 36 35  1  0  0  0  0
 37 35  1  0  0  0  0
 37 39  1  0  0  0  0
 38 37  1  0  0  0  0
 39 40  1  0  0  0  0
M  END
>  <minimizedAffinity>
-5.71295691

$$$$

 OpenBabel03272505493D

 40 44  0  0  1  0  0  0  0  0999 V2000
   38.3300   24.0710   34.8070 C   0  0  0  0  0  0  0  0  0  0  0  0
   38.5460   23.1380   33.8500 C   0  0  0  0  0  0  0  0  0  0  0  0
   38.2180   23.3890   32.5220 C   0  0  0  0  0  0  0  0  0  0  0  0
   37.6610   24.6270   32.2050 C   0  0  0  0  0  0  0  0  0  0  0  0
   37.4390   25.5850   33.1890 C   0  0  0  0  0  0  0  0  0  0  0  0
   37.7870   25.2600   34.4590 N   0  0  0  0  0  0  0  0  0  0  0  0
   38.9790   22.1880   34.1240 H   0  0  0  0  0  0  0  0  0  0  0  0
   38.3940   22.6440   31.7700 H   0  0  0  0  0  0  0  0  0  0  0  0
   37.3950   24.8590   31.1960 H   0  0  0  0  0  0  0  0  0  0  0  0
   38.6770   23.8200   36.2460 C   0  0  0  0  0  0  0  0  0  0  0  0
   38.0680   24.6790   37.2880 C   0  0  0  0  0  0  0  0  0  0  0  0
   37.5990   23.2520   37.1310 C   0  0  0  0  0  0  0  0  0  0  0  0
   38.5950   24.8720   38.2340 H   0  0  0  0  0  0  0  0  0  0  0  0
   37.3740   25.4650   36.9640 H   0  0  0  0  0  0  0  0  0  0  0  0
   36.6260   23.1120   36.6310 H   0  0  0  0  0  0  0  0  0  0  0  0
   37.9070   22.4750   37.8480 H   0  0  0  0  0  0  0  0  0  0  0  0
   41.4620   21.5750   37.1810 C   0  0  0  0  0  0  0  0  0  0  0  0
   42.5760   22.2160   36.6190 C   0  0  0  0  0  0  0  0  0  0  0  0
   42.3520   23.4160   35.9240 C   0  0  0  0  0  0  0  0  0  0  0  0
   41.0900   23.8840   35.8330 N   0  0  0  0  0  0  0  0  0  0  0  0
   40.0340   23.2430   36.3880 C   0  0  0  0  0  0  0  0  0  0  0  0
   40.2170   22.0980   37.0560 N   0  0  0  0  0  0  0  0  0  0  0  0
   41.4850   20.6640   37.7320 H   0  0  0  0  0  0  0  0  0  0  0  0
   43.5430   21.7420   36.7580 H   0  0  0  0  0  0  0  0  0  0  0  0
   43.2170   23.8990   35.4950 H   0  0  0  0  0  0  0  0  0  0  0  0
   36.8580   26.9030   32.9220 C   0  0  0  0  0  0  0  0  0  0  0  0
   36.5810   27.5350   31.7520 N   0  0  0  0  0  0  0  0  0  0  0  0
   36.0470   28.7470   32.0370 C   0  0  0  0  0  0  0  0  0  0  0  0
   35.9890   28.8760   33.3990 N   0  0  0  0  0  0  0  0  0  0  0  0
   36.4800   27.7600   33.9130 N   0  0  0  0  0  0  0  0  0  0  0  0
   35.7380   29.4500   31.2930 H   0  0  0  0  0  0  0  0  0  0  0  0
   37.1440   29.9260   35.4390 H   0  0  0  0  0  0  0  0  0  0  0  0
   36.1390   30.1650   35.4160 N   0  0  0  0  0  0  0  0  0  0  0  0
   35.4950   30.0000   34.1390 C   0  0  2  0  0  3  0  0  0  0  0  0
   34.0030   29.9250   34.3860 C   0  0  0  0  0  3  0  0  0  0  0  0
   33.7060   28.8660   34.6140 H   0  0  0  0  0  0  0  0  0  0  0  0
   33.6910   30.6940   35.5520 N   0  0  0  0  0  0  0  0  0  0  0  0
   33.6830   30.1610   36.4490 H   0  0  0  0  0  0  0  0  0  0  0  0
   34.5150   31.8640   35.7430 C   0  0  0  0  0  2  0  0  0  0  0  0
   35.9740   31.5320   35.8720 C   0  0  0  0  0  2  0  0  0  0  0  0
  1 10  1  0  0  0  0
  2  7  1  0  0  0  0
  2  1  2  0  0  0  0
  3  2  1  0  0  0  0
  4  3  2  0  0  0  0
  4  5  1  0  0  0  0
  5  6  2  0  0  0  0
  6  1  1  0  0  0  0
  8  3  1  0  0  0  0
  9  4  1  0  0  0  0
 10 21  1  0  0  0  0
 10 12  1  0  0  0  0
 10 11  1  0  0  0  0
 11 13  1  0  0  0  0
 12 11  1  0  0  0  0
 12 16  1  0  0  0  0
 14 11  1  0  0  0  0
 15 12  1  0  0  0  0
 17 23  1  0  0  0  0
 18 24  1  0  0  0  0
 18 17  2  0  0  0  0
 19 18  1  0  0  0  0
 20 19  2  0  0  0  0
 20 21  1  0  0  0  0
 21 22  2  0  0  0  0
 22 17  1  0  0  0  0
 25 19  1  0  0  0  0
 26  5  1  0  0  0  0
 26 30  2  0  0  0  0
 27 28  2  0  0  0  0
 27 26  1  0  0  0  0
 28 29  1  0  0  0  0
 29 30  1  0  0  0  0
 31 28  1  0  0  0  0
 33 32  1  0  0  0  0
 33 40  1  0  0  0  0
 34 29  1  1  0  0  0
 34 35  1  0  0  0  0
 34 33  1  0  0  0  0
 35 36  1  0  0  0  0
 35 37  1  0  0  0  0
 37 39  1  0  0  0  0
 37 38  1  0  0  0  0
 39 40  1  0  0  0  0
M  END
>  <minimizedAffinity>
-5.69143581

$$$$

 OpenBabel03272505493D

 40 44  0  0  1  0  0  0  0  0999 V2000
   37.3420   26.1910   33.1550 C   0  0  0  0  0  0  0  0  0  0  0  0
   37.0560   27.3920   33.7100 C   0  0  0  0  0  0  0  0  0  0  0  0
   37.3710   27.6570   35.0380 C   0  0  0  0  0  0  0  0  0  0  0  0
   37.9880   26.6520   35.7810 C   0  0  0  0  0  0  0  0  0  0  0  0
   38.2810   25.4170   35.2100 C   0  0  0  0  0  0  0  0  0  0  0  0
   37.9410   25.2420   33.9090 N   0  0  0  0  0  0  0  0  0  0  0  0
   36.5780   28.1520   33.1110 H   0  0  0  0  0  0  0  0  0  0  0  0
   37.1410   28.6130   35.4690 H   0  0  0  0  0  0  0  0  0  0  0  0
   38.2460   26.8160   36.8050 H   0  0  0  0  0  0  0  0  0  0  0  0
   37.0100   25.8850   31.7220 C   0  0  0  0  0  0  0  0  0  0  0  0
   36.8630   24.4700   31.3100 C   0  0  0  0  0  0  0  0  0  0  0  0
   35.6360   25.3430   31.4290 C   0  0  0  0  0  0  0  0  0  0  0  0
   37.0900   24.1590   30.2800 H   0  0  0  0  0  0  0  0  0  0  0  0
   36.9940   23.6950   32.0780 H   0  0  0  0  0  0  0  0  0  0  0  0
   35.0100   25.1820   32.3220 H   0  0  0  0  0  0  0  0  0  0  0  0
   35.1330   25.7330   30.5310 H   0  0  0  0  0  0  0  0  0  0  0  0
   37.1800   28.7680   29.4150 C   0  0  0  0  0  0  0  0  0  0  0  0
   38.5480   28.8430   29.1150 C   0  0  0  0  0  0  0  0  0  0  0  0
   39.3960   27.8960   29.7130 C   0  0  0  0  0  0  0  0  0  0  0  0
   38.8550   26.9740   30.5370 N   0  0  0  0  0  0  0  0  0  0  0  0
   37.5290   26.9270   30.8070 C   0  0  0  0  0  0  0  0  0  0  0  0
   36.6980   27.8160   30.2520 N   0  0  0  0  0  0  0  0  0  0  0  0
   36.4260   29.4180   29.0340 H   0  0  0  0  0  0  0  0  0  0  0  0
   38.8650   29.6300   28.4380 H   0  0  0  0  0  0  0  0  0  0  0  0
   40.4460   27.9640   29.4750 H   0  0  0  0  0  0  0  0  0  0  0  0
   38.9280   24.3210   35.9340 C   0  0  0  0  0  0  0  0  0  0  0  0
   38.6040   23.7130   37.1050 N   0  0  0  0  0  0  0  0  0  0  0  0
   39.5220   22.7470   37.3530 C   0  0  0  0  0  0  0  0  0  0  0  0
   40.4290   22.7500   36.3280 N   0  0  0  0  0  0  0  0  0  0  0  0
   40.0560   23.7010   35.4860 N   0  0  0  0  0  0  0  0  0  0  0  0
   39.5020   22.1150   38.2150 H   0  0  0  0  0  0  0  0  0  0  0  0
   41.0610   20.8430   37.9280 H   0  0  0  0  0  0  0  0  0  0  0  0
   41.8780   21.1510   37.3750 N   0  0  0  0  0  0  0  0  0  0  0  0
   41.5690   21.8930   36.1810 C   0  0  2  0  0  3  0  0  0  0  0  0
   42.8180   22.6480   35.7770 C   0  0  0  0  0  3  0  0  0  0  0  0
   42.8610   23.6330   36.3160 H   0  0  0  0  0  0  0  0  0  0  0  0
   43.9630   21.9030   36.2030 N   0  0  0  0  0  0  0  0  0  0  0  0
   44.3350   22.1550   37.1450 H   0  0  0  0  0  0  0  0  0  0  0  0
   43.8010   20.4700   36.1640 C   0  0  0  0  0  2  0  0  0  0  0  0
   42.6750   19.9890   37.0340 C   0  0  0  0  0  2  0  0  0  0  0  0
  1  2  2  0  0  0  0
  1  6  1  0  0  0  0
  2  3  1  0  0  0  0
  3  8  1  0  0  0  0
  3  4  2  0  0  0  0
  4  9  1  0  0  0  0
  5  4  1  0  0  0  0
  5 26  1  0  0  0  0
  6  5  2  0  0  0  0
  7  2  1  0  0  0  0
 10  1  1  0  0  0  0
 11 12  1  0  0  0  0
 11 10  1  0  0  0  0
 11 14  1  0  0  0  0
 12 10  1  0  0  0  0
 12 15  1  0  0  0  0
 13 11  1  0  0  0  0
 16 12  1  0  0  0  0
 17 22  1  0  0  0  0
 18 17  2  0  0  0  0
 18 19  1  0  0  0  0
 19 20  2  0  0  0  0
 20 21  1  0  0  0  0
 21 10  1  0  0  0  0
 22 21  2  0  0  0  0
 23 17  1  0  0  0  0
 24 18  1  0  0  0  0
 25 19  1  0  0  0  0
 26 27  1  0  0  0  0
 27 28  2  0  0  0  0
 28 31  1  0  0  0  0
 29 28  1  0  0  0  0
 30 26  2  0  0  0  0
 30 29  1  0  0  0  0
 33 32  1  0  0  0  0
 34 29  1  1  0  0  0
 34 33  1  0  0  0  0
 35 34  1  0  0  0  0
 35 37  1  0  0  0  0
 35 36  1  0  0  0  0
 37 38  1  0  0  0  0
 39 37  1  0  0  0  0
 39 40  1  0  0  0  0
 40 33  1  0  0  0  0
M  END
>  <minimizedAffinity>
-5.62620592

$$$$
