
 OpenBabel03272506413D

 19 20  0  0  1  0  0  0  0  0999 V2000
   38.2900   25.7170   36.3200 S   0  0  0  0  0  0  0  0  0  0  0  0
   37.1010   25.3980   32.5610 C   0  0  0  0  0  0  0  0  0  0  0  0
   36.5870   26.6500   32.2300 C   0  0  0  0  0  0  0  0  0  0  0  0
   36.6060   27.6580   33.2230 C   0  0  0  0  0  0  0  0  0  0  0  0
   37.1290   27.3380   34.4490 N   0  0  0  0  0  0  0  0  0  0  0  0
   37.6100   26.1200   34.7170 C   0  0  0  0  0  0  0  0  0  0  0  0
   37.6010   25.1460   33.7830 N   0  0  0  0  0  0  0  0  0  0  0  0
   37.0630   24.6650   31.7720 H   0  0  0  0  0  0  0  0  0  0  0  0
   36.1670   26.9770   31.3120 H   0  0  0  0  0  0  0  0  0  0  0  0
   36.2630   28.6700   33.1620 H   0  0  0  0  0  0  0  0  0  0  0  0
   38.0670   23.3010   35.1460 H   0  0  0  0  0  0  0  0  0  0  0  0
   38.2670   23.0940   36.1670 N   0  0  0  0  0  0  0  0  0  0  0  0
   37.6240   24.1470   36.9670 C   0  0  1  0  0  3  0  0  0  0  0  0
   38.1400   23.9490   38.3880 C   0  0  0  0  0  3  0  0  0  0  0  0
   37.2740   23.8740   39.0960 H   0  0  0  0  0  0  0  0  0  0  0  0
   38.8880   22.7220   38.5430 N   0  0  0  0  0  0  0  0  0  0  0  0
   38.2660   21.9400   38.2740 H   0  0  0  0  0  0  0  0  0  0  0  0
   40.0640   22.7260   37.6790 C   0  0  0  0  0  2  0  0  0  0  0  0
   39.6970   23.3010   36.3080 C   0  0  0  0  0  2  0  0  0  0  0  0
  2  7  1  0  0  0  0
  3  2  2  0  0  0  0
  3  4  1  0  0  0  0
  4  5  2  0  0  0  0
  5  6  1  0  0  0  0
  6  1  1  0  0  0  0
  7  6  2  0  0  0  0
  8  2  1  0  0  0  0
  9  3  1  0  0  0  0
 10  4  1  0  0  0  0
 11 12  1  0  0  0  0
 12 19  1  0  0  0  0
 12 13  1  0  0  0  0
 13  1  1  6  0  0  0
 13 14  1  0  0  0  0
 14 16  1  0  0  0  0
 14 15  1  0  0  0  0
 17 16  1  0  0  0  0
 18 16  1  0  0  0  0
 19 18  1  0  0  0  0
M  END
>  <minimizedAffinity>
-4.15418434

$$$$

 OpenBabel03272506413D

 19 20  0  0  1  0  0  0  0  0999 V2000
   38.5640   24.4490   35.2420 S   0  0  0  0  0  0  0  0  0  0  0  0
   37.0720   22.7130   32.0160 C   0  0  0  0  0  0  0  0  0  0  0  0
   36.5200   23.7480   31.2630 C   0  0  0  0  0  0  0  0  0  0  0  0
   36.6110   25.0630   31.7780 C   0  0  0  0  0  0  0  0  0  0  0  0
   37.2370   25.2360   32.9840 N   0  0  0  0  0  0  0  0  0  0  0  0
   37.7500   24.2090   33.6690 C   0  0  0  0  0  0  0  0  0  0  0  0
   37.6740   22.9480   33.1950 N   0  0  0  0  0  0  0  0  0  0  0  0
   36.9770   21.7320   31.5830 H   0  0  0  0  0  0  0  0  0  0  0  0
   36.0220   23.7000   30.3280 H   0  0  0  0  0  0  0  0  0  0  0  0
   36.2540   25.9780   31.3530 H   0  0  0  0  0  0  0  0  0  0  0  0
   38.4090   21.7610   35.1370 H   0  0  0  0  0  0  0  0  0  0  0  0
   38.6570   21.9840   36.1440 N   0  0  0  0  0  0  0  0  0  0  0  0
   37.9960   23.2500   36.4930 C   0  0  1  0  0  3  0  0  0  0  0  0
   38.5740   23.6490   37.8470 C   0  0  0  0  0  3  0  0  0  0  0  0
   37.7390   23.8390   38.5700 H   0  0  0  0  0  0  0  0  0  0  0  0
   39.3830   22.6070   38.4360 N   0  0  0  0  0  0  0  0  0  0  0  0
   38.7880   21.7650   38.5330 H   0  0  0  0  0  0  0  0  0  0  0  0
   40.5240   22.2980   37.5810 C   0  0  0  0  0  2  0  0  0  0  0  0
   40.0800   22.2690   36.1160 C   0  0  0  0  0  2  0  0  0  0  0  0
  2  7  1  0  0  0  0
  3  4  1  0  0  0  0
  3  2  2  0  0  0  0
  4  5  2  0  0  0  0
  5  6  1  0  0  0  0
  6  1  1  0  0  0  0
  7  6  2  0  0  0  0
  8  2  1  0  0  0  0
  9  3  1  0  0  0  0
 10  4  1  0  0  0  0
 11 12  1  0  0  0  0
 12 13  1  0  0  0  0
 13  1  1  6  0  0  0
 13 14  1  0  0  0  0
 14 16  1  0  0  0  0
 14 15  1  0  0  0  0
 16 17  1  0  0  0  0
 18 16  1  0  0  0  0
 19 12  1  0  0  0  0
 19 18  1  0  0  0  0
M  END
>  <minimizedAffinity>
-4.12675571

$$$$

 OpenBabel03272506413D

 19 20  0  0  1  0  0  0  0  0999 V2000
   38.8900   23.5630   34.6190 S   0  0  0  0  0  0  0  0  0  0  0  0
   38.6550   27.2940   35.9140 C   0  0  0  0  0  0  0  0  0  0  0  0
   37.6020   27.8650   35.2020 C   0  0  0  0  0  0  0  0  0  0  0  0
   36.9210   27.0550   34.2640 C   0  0  0  0  0  0  0  0  0  0  0  0
   37.3380   25.7580   34.1150 N   0  0  0  0  0  0  0  0  0  0  0  0
   38.3560   25.2570   34.8230 C   0  0  0  0  0  0  0  0  0  0  0  0
   39.0180   26.0140   35.7230 N   0  0  0  0  0  0  0  0  0  0  0  0
   39.1420   27.9500   36.6160 H   0  0  0  0  0  0  0  0  0  0  0  0
   37.2190   28.8530   35.2570 H   0  0  0  0  0  0  0  0  0  0  0  0
   36.0960   27.3080   33.6290 H   0  0  0  0  0  0  0  0  0  0  0  0
   39.7450   21.2580   35.7220 H   0  0  0  0  0  0  0  0  0  0  0  0
   39.1550   21.7210   36.4720 N   0  0  0  0  0  0  0  0  0  0  0  0
   38.0660   22.4420   35.7970 C   0  0  1  0  0  3  0  0  0  0  0  0
   37.4010   23.2810   36.8830 C   0  0  0  0  0  3  0  0  0  0  0  0
   36.2990   23.0770   36.8940 H   0  0  0  0  0  0  0  0  0  0  0  0
   37.8800   22.9590   38.2080 N   0  0  0  0  0  0  0  0  0  0  0  0
   37.6990   21.9520   38.3690 H   0  0  0  0  0  0  0  0  0  0  0  0
   39.3120   23.2180   38.3120 C   0  0  0  0  0  2  0  0  0  0  0  0
   40.0180   22.7400   37.0400 C   0  0  0  0  0  2  0  0  0  0  0  0
  1  6  1  0  0  0  0
  2  8  1  0  0  0  0
  3  9  1  0  0  0  0
  3  2  2  0  0  0  0
  4  3  1  0  0  0  0
  5  4  2  0  0  0  0
  5  6  1  0  0  0  0
  6  7  2  0  0  0  0
  7  2  1  0  0  0  0
 10  4  1  0  0  0  0
 11 12  1  0  0  0  0
 12 19  1  0  0  0  0
 13  1  1  6  0  0  0
 13 12  1  0  0  0  0
 13 14  1  0  0  0  0
 14 15  1  0  0  0  0
 14 16  1  0  0  0  0
 16 18  1  0  0  0  0
 16 17  1  0  0  0  0
 19 18  1  0  0  0  0
M  END
>  <minimizedAffinity>
-4.05987835

$$$$

 OpenBabel03272506413D

 19 20  0  0  1  0  0  0  0  0999 V2000
   38.2260   22.4970   34.6970 S   0  0  0  0  0  0  0  0  0  0  0  0
   37.2250   23.6740   31.0550 C   0  0  0  0  0  0  0  0  0  0  0  0
   37.1250   25.0610   31.1310 C   0  0  0  0  0  0  0  0  0  0  0  0
   37.3810   25.6770   32.3790 C   0  0  0  0  0  0  0  0  0  0  0  0
   37.7120   24.8690   33.4350 N   0  0  0  0  0  0  0  0  0  0  0  0
   37.7940   23.5400   33.3110 C   0  0  0  0  0  0  0  0  0  0  0  0
   37.5530   22.9340   32.1290 N   0  0  0  0  0  0  0  0  0  0  0  0
   37.0200   23.2530   30.0850 H   0  0  0  0  0  0  0  0  0  0  0  0
   36.8760   25.7550   30.3670 H   0  0  0  0  0  0  0  0  0  0  0  0
   37.3560   26.7160   32.6350 H   0  0  0  0  0  0  0  0  0  0  0  0
   38.3860   25.0180   35.6360 H   0  0  0  0  0  0  0  0  0  0  0  0
   38.7810   24.4100   36.4100 N   0  0  0  0  0  0  0  0  0  0  0  0
   39.4730   23.2790   35.7740 C   0  0  1  0  0  3  0  0  0  0  0  0
   39.8060   22.3170   36.9100 C   0  0  0  0  0  3  0  0  0  0  0  0
   40.9000   22.0740   36.8880 H   0  0  0  0  0  0  0  0  0  0  0  0
   39.5490   22.8840   38.2140 N   0  0  0  0  0  0  0  0  0  0  0  0
   40.1140   23.7480   38.2960 H   0  0  0  0  0  0  0  0  0  0  0  0
   38.1350   23.2130   38.3590 C   0  0  0  0  0  2  0  0  0  0  0  0
   37.6150   23.8480   37.0660 C   0  0  0  0  0  2  0  0  0  0  0  0
  2  3  2  0  0  0  0
  2  7  1  0  0  0  0
  3  4  1  0  0  0  0
  4 10  1  0  0  0  0
  4  5  2  0  0  0  0
  6  5  1  0  0  0  0
  6  1  1  0  0  0  0
  7  6  2  0  0  0  0
  8  2  1  0  0  0  0
  9  3  1  0  0  0  0
 11 12  1  0  0  0  0
 12 19  1  0  0  0  0
 13  1  1  6  0  0  0
 13 12  1  0  0  0  0
 13 14  1  0  0  0  0
 14 16  1  0  0  0  0
 15 14  1  0  0  0  0
 16 17  1  0  0  0  0
 16 18  1  0  0  0  0
 19 18  1  0  0  0  0
M  END
>  <minimizedAffinity>
-3.62951756

$$$$

 OpenBabel03272506413D

 19 20  0  0  1  0  0  0  0  0999 V2000
   39.8360   24.9180   33.7080 S   0  0  0  0  0  0  0  0  0  0  0  0
   39.3040   22.8810   37.0580 C   0  0  0  0  0  0  0  0  0  0  0  0
   40.5850   22.5500   37.4940 C   0  0  0  0  0  0  0  0  0  0  0  0
   41.6830   22.9790   36.7120 C   0  0  0  0  0  0  0  0  0  0  0  0
   41.4180   23.6940   35.5740 N   0  0  0  0  0  0  0  0  0  0  0  0
   40.1680   23.9860   35.1960 C   0  0  0  0  0  0  0  0  0  0  0  0
   39.1080   23.5850   35.9290 N   0  0  0  0  0  0  0  0  0  0  0  0
   38.5020   22.5320   37.6860 H   0  0  0  0  0  0  0  0  0  0  0  0
   40.8750   22.0050   38.3570 H   0  0  0  0  0  0  0  0  0  0  0  0
   42.7300   22.8270   36.8800 H   0  0  0  0  0  0  0  0  0  0  0  0
   38.7520   26.9090   32.2510 H   0  0  0  0  0  0  0  0  0  0  0  0
   38.6060   27.1960   33.2620 N   0  0  0  0  0  0  0  0  0  0  0  0
   39.7610   26.7120   34.0310 C   0  0  1  0  0  3  0  0  0  0  0  0
   39.3920   26.9270   35.4950 C   0  0  0  0  0  3  0  0  0  0  0  0
   40.2020   27.5110   36.0050 H   0  0  0  0  0  0  0  0  0  0  0  0
   38.1810   27.6990   35.6570 N   0  0  0  0  0  0  0  0  0  0  0  0
   38.3250   28.6090   35.1840 H   0  0  0  0  0  0  0  0  0  0  0  0
   37.0490   27.0100   35.0480 C   0  0  0  0  0  2  0  0  0  0  0  0
   37.4700   26.4080   33.7040 C   0  0  0  0  0  2  0  0  0  0  0  0
  1  6  1  0  0  0  0
  2  3  1  0  0  0  0
  2  8  1  0  0  0  0
  3  9  1  0  0  0  0
  4 10  1  0  0  0  0
  4  3  2  0  0  0  0
  5  4  1  0  0  0  0
  6  5  2  0  0  0  0
  6  7  1  0  0  0  0
  7  2  2  0  0  0  0
 11 12  1  0  0  0  0
 12 19  1  0  0  0  0
 12 13  1  0  0  0  0
 13  1  1  1  0  0  0
 13 14  1  0  0  0  0
 14 16  1  0  0  0  0
 14 15  1  0  0  0  0
 17 16  1  0  0  0  0
 18 16  1  0  0  0  0
 19 18  1  0  0  0  0
M  END
>  <minimizedAffinity>
-3.49812961

$$$$

 OpenBabel03272506413D

 19 20  0  0  1  0  0  0  0  0999 V2000
   39.4660   24.8280   32.1150 S   0  0  0  0  0  0  0  0  0  0  0  0
   37.7860   25.3170   35.6630 C   0  0  0  0  0  0  0  0  0  0  0  0
   38.3020   26.5150   36.1520 C   0  0  0  0  0  0  0  0  0  0  0  0
   39.2250   27.2190   35.3430 C   0  0  0  0  0  0  0  0  0  0  0  0
   39.5530   26.6780   34.1280 N   0  0  0  0  0  0  0  0  0  0  0  0
   39.0290   25.5230   33.7030 C   0  0  0  0  0  0  0  0  0  0  0  0
   38.1480   24.8370   34.4600 N   0  0  0  0  0  0  0  0  0  0  0  0
   37.0890   24.8190   36.3150 H   0  0  0  0  0  0  0  0  0  0  0  0
   38.1020   27.0000   37.0750 H   0  0  0  0  0  0  0  0  0  0  0  0
   39.7240   28.1450   35.5410 H   0  0  0  0  0  0  0  0  0  0  0  0
   38.8350   23.9350   29.6520 H   0  0  0  0  0  0  0  0  0  0  0  0
   38.0340   24.5750   29.9270 N   0  0  0  0  0  0  0  0  0  0  0  0
   38.5960   25.6600   30.7450 C   0  0  1  0  0  3  0  0  0  0  0  0
   37.3920   26.4030   31.3140 C   0  0  0  0  0  3  0  0  0  0  0  0
   37.4810   27.4960   31.0810 H   0  0  0  0  0  0  0  0  0  0  0  0
   36.1430   25.9710   30.7300 N   0  0  0  0  0  0  0  0  0  0  0  0
   36.2080   26.1200   29.7070 H   0  0  0  0  0  0  0  0  0  0  0  0
   35.9140   24.5550   31.0000 C   0  0  0  0  0  2  0  0  0  0  0  0
   37.2200   23.7760   30.8250 C   0  0  0  0  0  2  0  0  0  0  0  0
  1  6  1  0  0  0  0
  2  3  1  0  0  0  0
  2  8  1  0  0  0  0
  3  9  1  0  0  0  0
  4 10  1  0  0  0  0
  4  3  2  0  0  0  0
  5  4  1  0  0  0  0
  6  5  2  0  0  0  0
  6  7  1  0  0  0  0
  7  2  2  0  0  0  0
 11 12  1  0  0  0  0
 12 13  1  0  0  0  0
 12 19  1  0  0  0  0
 13 14  1  0  0  0  0
 13  1  1  1  0  0  0
 15 14  1  0  0  0  0
 16 18  1  0  0  0  0
 16 14  1  0  0  0  0
 17 16  1  0  0  0  0
 19 18  1  0  0  0  0
M  END
>  <minimizedAffinity>
-3.49679494

$$$$

 OpenBabel03272506413D

 19 20  0  0  1  0  0  0  0  0999 V2000
   39.0930   24.4160   33.5860 S   0  0  0  0  0  0  0  0  0  0  0  0
   37.7760   24.2320   37.3120 C   0  0  0  0  0  0  0  0  0  0  0  0
   38.6720   23.3990   37.9780 C   0  0  0  0  0  0  0  0  0  0  0  0
   39.7500   22.8590   37.2380 C   0  0  0  0  0  0  0  0  0  0  0  0
   39.8450   23.1890   35.9120 N   0  0  0  0  0  0  0  0  0  0  0  0
   38.9570   23.9930   35.3170 C   0  0  0  0  0  0  0  0  0  0  0  0
   37.9220   24.5180   36.0060 N   0  0  0  0  0  0  0  0  0  0  0  0
   36.9720   24.6170   37.9170 H   0  0  0  0  0  0  0  0  0  0  0  0
   38.6710   23.0960   38.9950 H   0  0  0  0  0  0  0  0  0  0  0  0
   40.5340   22.2080   37.5680 H   0  0  0  0  0  0  0  0  0  0  0  0
   37.0440   26.0380   34.2430 H   0  0  0  0  0  0  0  0  0  0  0  0
   37.0200   25.9790   33.1840 N   0  0  0  0  0  0  0  0  0  0  0  0
   37.4580   24.6270   32.8060 C   0  0  1  0  0  3  0  0  0  0  0  0
   37.6420   24.6690   31.2930 C   0  0  0  0  0  3  0  0  0  0  0  0
   37.0570   23.8390   30.8200 H   0  0  0  0  0  0  0  0  0  0  0  0
   37.1470   25.8920   30.7050 N   0  0  0  0  0  0  0  0  0  0  0  0
   36.1430   25.9720   30.9480 H   0  0  0  0  0  0  0  0  0  0  0  0
   37.8680   27.0450   31.2360 C   0  0  0  0  0  2  0  0  0  0  0  0
   38.0710   26.8780   32.7440 C   0  0  0  0  0  2  0  0  0  0  0  0
  1  6  1  0  0  0  0
  2  8  1  0  0  0  0
  2  3  1  0  0  0  0
  3  9  1  0  0  0  0
  4 10  1  0  0  0  0
  4  3  2  0  0  0  0
  5  4  1  0  0  0  0
  6  5  2  0  0  0  0
  6  7  1  0  0  0  0
  7  2  2  0  0  0  0
 12 11  1  0  0  0  0
 13 12  1  0  0  0  0
 13  1  1  1  0  0  0
 14 13  1  0  0  0  0
 15 14  1  0  0  0  0
 16 17  1  0  0  0  0
 16 18  1  0  0  0  0
 16 14  1  0  0  0  0
 18 19  1  0  0  0  0
 19 12  1  0  0  0  0
M  END
>  <minimizedAffinity>
-3.46097875

$$$$

 OpenBabel03272506413D

 19 20  0  0  1  0  0  0  0  0999 V2000
   39.1890   25.0170   32.6590 S   0  0  0  0  0  0  0  0  0  0  0  0
   35.6340   23.9470   31.2910 C   0  0  0  0  0  0  0  0  0  0  0  0
   34.9830   25.1410   30.9870 C   0  0  0  0  0  0  0  0  0  0  0  0
   35.6770   26.3520   31.2160 C   0  0  0  0  0  0  0  0  0  0  0  0
   36.9480   26.2750   31.7220 N   0  0  0  0  0  0  0  0  0  0  0  0
   37.5300   25.1030   31.9980 C   0  0  0  0  0  0  0  0  0  0  0  0
   36.8840   23.9370   31.7870 N   0  0  0  0  0  0  0  0  0  0  0  0
   35.0650   23.0530   31.1000 H   0  0  0  0  0  0  0  0  0  0  0  0
   34.0070   25.2860   30.5950 H   0  0  0  0  0  0  0  0  0  0  0  0
   35.3500   27.3570   31.0460 H   0  0  0  0  0  0  0  0  0  0  0  0
   41.1700   25.1650   34.4790 H   0  0  0  0  0  0  0  0  0  0  0  0
   40.2840   25.3940   35.0160 N   0  0  0  0  0  0  0  0  0  0  0  0
   39.1940   24.5970   34.4330 C   0  0  1  0  0  3  0  0  0  0  0  0
   37.9150   25.1370   35.0650 C   0  0  0  0  0  3  0  0  0  0  0  0
   37.3330   24.2920   35.5150 H   0  0  0  0  0  0  0  0  0  0  0  0
   38.1740   26.0630   36.1430 N   0  0  0  0  0  0  0  0  0  0  0  0
   38.7440   25.5670   36.8510 H   0  0  0  0  0  0  0  0  0  0  0  0
   38.9100   27.2250   35.6560 C   0  0  0  0  0  2  0  0  0  0  0  0
   39.9980   26.7750   34.6760 C   0  0  0  0  0  2  0  0  0  0  0  0
  2  7  1  0  0  0  0
  3  4  1  0  0  0  0
  3  2  2  0  0  0  0
  4  5  2  0  0  0  0
  5  6  1  0  0  0  0
  6  1  1  0  0  0  0
  7  6  2  0  0  0  0
  8  2  1  0  0  0  0
  9  3  1  0  0  0  0
 10  4  1  0  0  0  0
 11 12  1  0  0  0  0
 13  1  1  6  0  0  0
 13 12  1  0  0  0  0
 13 14  1  0  0  0  0
 14 15  1  0  0  0  0
 14 16  1  0  0  0  0
 16 17  1  0  0  0  0
 18 16  1  0  0  0  0
 19 12  1  0  0  0  0
 19 18  1  0  0  0  0
M  END
>  <minimizedAffinity>
-3.45161963

$$$$

 OpenBabel03272506413D

 19 20  0  0  1  0  0  0  0  0999 V2000
   39.2410   24.5690   33.7050 S   0  0  0  0  0  0  0  0  0  0  0  0
   39.7650   22.8790   37.2430 C   0  0  0  0  0  0  0  0  0  0  0  0
   38.7260   23.3600   38.0380 C   0  0  0  0  0  0  0  0  0  0  0  0
   37.8060   24.2600   37.4520 C   0  0  0  0  0  0  0  0  0  0  0  0
   37.9940   24.6030   36.1390 N   0  0  0  0  0  0  0  0  0  0  0  0
   39.0080   24.1140   35.4170 C   0  0  0  0  0  0  0  0  0  0  0  0
   39.8960   23.2540   35.9590 N   0  0  0  0  0  0  0  0  0  0  0  0
   40.4390   22.1980   37.7340 H   0  0  0  0  0  0  0  0  0  0  0  0
   38.5110   23.1470   39.0550 H   0  0  0  0  0  0  0  0  0  0  0  0
   36.9520   24.7320   37.8930 H   0  0  0  0  0  0  0  0  0  0  0  0
   36.9260   25.8490   34.2170 H   0  0  0  0  0  0  0  0  0  0  0  0
   37.0050   25.8350   33.1590 N   0  0  0  0  0  0  0  0  0  0  0  0
   37.6680   24.5780   32.7820 C   0  0  1  0  0  3  0  0  0  0  0  0
   37.9770   24.7140   31.2950 C   0  0  0  0  0  3  0  0  0  0  0  0
   37.5650   23.8300   30.7430 H   0  0  0  0  0  0  0  0  0  0  0  0
   37.3610   25.8780   30.7020 N   0  0  0  0  0  0  0  0  0  0  0  0
   36.3400   25.8020   30.8520 H   0  0  0  0  0  0  0  0  0  0  0  0
   37.8550   27.0970   31.3340 C   0  0  0  0  0  2  0  0  0  0  0  0
   37.9470   26.8940   32.8490 C   0  0  0  0  0  2  0  0  0  0  0  0
  1  6  1  0  0  0  0
  2  8  1  0  0  0  0
  2  3  1  0  0  0  0
  3  9  1  0  0  0  0
  4 10  1  0  0  0  0
  4  3  2  0  0  0  0
  5  4  1  0  0  0  0
  6  7  1  0  0  0  0
  6  5  2  0  0  0  0
  7  2  2  0  0  0  0
 12 11  1  0  0  0  0
 13 12  1  0  0  0  0
 13  1  1  1  0  0  0
 14 13  1  0  0  0  0
 15 14  1  0  0  0  0
 16 17  1  0  0  0  0
 16 14  1  0  0  0  0
 16 18  1  0  0  0  0
 18 19  1  0  0  0  0
 19 12  1  0  0  0  0
M  END
>  <minimizedAffinity>
-3.44444036

$$$$
