
 OpenBabel03272510253D

 45 49  0  0  1  0  0  0  0  0999 V2000
   39.4610   33.5460   43.3750 O   0  0  0  0  0  0  0  0  0  0  0  0
   36.1610   30.2300   46.9720 C   0  0  0  0  0  0  0  0  0  0  0  0
   37.0370   30.7460   47.9230 C   0  0  0  0  0  0  0  0  0  0  0  0
   38.0580   31.6270   47.5580 C   0  0  0  0  0  0  0  0  0  0  0  0
   38.1360   31.9450   46.2100 C   0  0  0  0  0  0  0  0  0  0  0  0
   39.0440   32.7830   45.6110 N   0  0  0  0  0  0  0  0  0  0  0  0
   38.7420   32.7940   44.3040 C   0  0  0  0  0  0  0  0  0  0  0  0
   37.7060   32.0110   44.0800 N   0  0  0  0  0  0  0  0  0  0  0  0
   37.2950   31.4610   45.2350 C   0  0  0  0  0  0  0  0  0  0  0  0
   36.2820   30.5800   45.6320 C   0  0  0  0  0  0  0  0  0  0  0  0
   35.3600   29.5400   47.2510 H   0  0  0  0  0  0  0  0  0  0  0  0
   38.7390   32.0300   48.2860 H   0  0  0  0  0  0  0  0  0  0  0  0
   39.8210   33.3080   46.1070 H   0  0  0  0  0  0  0  0  0  0  0  0
   35.6220   30.2020   44.8630 H   0  0  0  0  0  0  0  0  0  0  0  0
   37.4280   30.1060   51.6010 C   0  0  0  0  0  0  0  0  0  0  0  0
   37.7540   30.5640   50.3260 C   0  0  0  0  0  0  0  0  0  0  0  0
   36.8540   30.3380   49.3000 C   0  0  0  0  0  0  0  0  0  0  0  0
   35.6970   29.6730   49.6130 N   0  0  0  0  0  0  0  0  0  0  0  0
   35.4020   29.2400   50.8510 C   0  0  0  0  0  0  0  0  0  0  0  0
   36.2650   29.4590   51.8270 N   0  0  0  0  0  0  0  0  0  0  0  0
   38.1910   30.3220   52.3650 H   0  0  0  0  0  0  0  0  0  0  0  0
   38.6610   31.0830   50.0870 H   0  0  0  0  0  0  0  0  0  0  0  0
   34.4800   28.7220   51.0520 H   0  0  0  0  0  0  0  0  0  0  0  0
   39.5010   31.5900   42.1540 N   0  0  0  0  0  0  0  0  0  0  0  0
   39.4750   33.0410   42.0470 C   0  0  1  0  0  0  0  0  0  0  0  0
   38.2950   33.4760   41.3180 C   0  0  0  0  0  0  0  0  0  0  0  0
   38.3650   32.9690   40.0080 O   0  0  0  0  0  0  0  0  0  0  0  0
   38.5270   31.6180   39.9080 C   0  0  0  0  0  0  0  0  0  0  0  0
   39.6580   31.1320   40.7960 C   0  0  2  0  0  0  0  0  0  0  0  0
   38.6800   31.1270   42.5040 H   0  0  0  0  0  0  0  0  0  0  0  0
   40.3950   33.3280   41.5150 H   0  0  0  0  0  0  0  0  0  0  0  0
   37.2940   33.3020   41.6020 H   0  0  0  0  0  0  0  0  0  0  0  0
   38.3940   34.5930   41.1610 H   0  0  0  0  0  0  0  0  0  0  0  0
   38.8590   31.4130   38.8710 H   0  0  0  0  0  0  0  0  0  0  0  0
   37.5470   31.1520   40.1660 H   0  0  0  0  0  0  0  0  0  0  0  0
   40.5690   31.6780   40.4100 H   0  0  0  0  0  0  0  0  0  0  0  0
   39.9360   29.7460   40.6730 N   0  0  1  0  0  0  0  0  0  0  0  0
   38.8260   28.8980   41.0800 C   0  0  0  0  0  3  0  0  0  0  0  0
   37.8440   29.2570   40.7730 H   0  0  0  0  0  0  0  0  0  0  0  0
   39.0440   27.5170   40.5170 C   0  0  0  0  0  3  0  0  0  0  0  0
   38.6180   27.3750   39.5080 H   0  0  0  0  0  0  0  0  0  0  0  0
   40.4420   27.1370   40.5140 N   0  0  0  0  0  0  0  0  0  0  0  0
   40.7440   27.0990   41.5250 H   0  0  0  0  0  0  0  0  0  0  0  0
   41.2320   28.0160   39.7020 C   0  0  0  0  0  2  0  0  0  0  0  0
   40.4210   29.2880   39.4150 C   0  0  0  0  0  2  0  0  0  0  0  0
  1  7  1  0  0  0  0
  2 11  1  0  0  0  0
  2  3  1  0  0  0  0
  3 17  1  0  0  0  0
  4  3  2  0  0  0  0
  4 12  1  0  0  0  0
  5  4  1  0  0  0  0
  6 13  1  0  0  0  0
  6  5  1  0  0  0  0
  7  6  1  0  0  0  0
  8  7  2  0  0  0  0
  8  9  1  0  0  0  0
  9 10  1  0  0  0  0
  9  5  2  0  0  0  0
 10  2  2  0  0  0  0
 14 10  1  0  0  0  0
 15 20  1  0  0  0  0
 15 21  1  0  0  0  0
 16 15  2  0  0  0  0
 17 18  2  0  0  0  0
 17 16  1  0  0  0  0
 18 19  1  0  0  0  0
 19 23  1  0  0  0  0
 19 20  2  0  0  0  0
 22 16  1  0  0  0  0
 24 30  1  0  0  0  0
 25 31  1  6  0  0  0
 25 24  1  0  0  0  0
 25  1  1  0  0  0  0
 26 32  1  0  0  0  0
 26 25  1  0  0  0  0
 27 26  1  0  0  0  0
 28 27  1  0  0  0  0
 28 35  1  0  0  0  0
 28 29  1  0  0  0  0
 29 36  1  6  0  0  0
 29 24  1  0  0  0  0
 33 26  1  0  0  0  0
 34 28  1  0  0  0  0
 37 45  1  6  0  0  0
 37 29  1  0  0  0  0
 37 38  1  0  0  0  0
 39 38  1  0  0  0  0
 40 38  1  0  0  0  0
 41 40  1  0  0  0  0
 42 40  1  0  0  0  0
 42 43  1  0  0  0  0
 44 42  1  0  0  0  0
 45 44  1  0  0  0  0
M  END
>  <minimizedAffinity>
-5.91189957

>  <minimizedRMSD>
0.668146729

$$$$
