
 OpenBabel03272510253D

 45 49  0  0  1  0  0  0  0  0999 V2000
   39.5250   33.6140   43.4800 O   0  0  0  0  0  0  0  0  0  0  0  0
   36.2050   30.2350   47.0000 C   0  0  0  0  0  0  0  0  0  0  0  0
   37.0600   30.7540   47.9690 C   0  0  0  0  0  0  0  0  0  0  0  0
   38.0760   31.6490   47.6270 C   0  0  0  0  0  0  0  0  0  0  0  0
   38.1720   31.9770   46.2820 C   0  0  0  0  0  0  0  0  0  0  0  0
   39.0810   32.8300   45.7040 N   0  0  0  0  0  0  0  0  0  0  0  0
   38.8000   32.8460   44.3930 C   0  0  0  0  0  0  0  0  0  0  0  0
   37.7770   32.0530   44.1460 N   0  0  0  0  0  0  0  0  0  0  0  0
   37.3530   31.4910   45.2910 C   0  0  0  0  0  0  0  0  0  0  0  0
   36.3440   30.5960   45.6650 C   0  0  0  0  0  0  0  0  0  0  0  0
   35.4080   29.5350   47.2610 H   0  0  0  0  0  0  0  0  0  0  0  0
   38.7400   32.0550   48.3690 H   0  0  0  0  0  0  0  0  0  0  0  0
   39.8440   33.3600   46.2160 H   0  0  0  0  0  0  0  0  0  0  0  0
   35.7010   30.2160   44.8830 H   0  0  0  0  0  0  0  0  0  0  0  0
   37.4050   30.0780   51.6450 C   0  0  0  0  0  0  0  0  0  0  0  0
   37.7490   30.5460   50.3780 C   0  0  0  0  0  0  0  0  0  0  0  0
   36.8580   30.3350   49.3400 C   0  0  0  0  0  0  0  0  0  0  0  0
   35.6940   29.6750   49.6340 N   0  0  0  0  0  0  0  0  0  0  0  0
   35.3830   29.2320   50.8640 C   0  0  0  0  0  0  0  0  0  0  0  0
   36.2360   29.4360   51.8520 N   0  0  0  0  0  0  0  0  0  0  0  0
   38.1610   30.2820   52.4190 H   0  0  0  0  0  0  0  0  0  0  0  0
   38.6620   31.0610   50.1540 H   0  0  0  0  0  0  0  0  0  0  0  0
   34.4560   28.7180   51.0500 H   0  0  0  0  0  0  0  0  0  0  0  0
   39.7290   31.7530   42.1320 N   0  0  0  0  0  0  0  0  0  0  0  0
   39.4680   33.1850   42.1270 C   0  0  1  0  0  0  0  0  0  0  0  0
   38.1600   33.4610   41.5540 C   0  0  0  0  0  0  0  0  0  0  0  0
   38.1600   33.0380   40.2130 O   0  0  0  0  0  0  0  0  0  0  0  0
   38.5160   31.7380   40.0060 C   0  0  0  0  0  0  0  0  0  0  0  0
   39.8010   31.3950   40.7370 C   0  0  2  0  0  0  0  0  0  0  0  0
   39.0330   31.1480   42.5330 H   0  0  0  0  0  0  0  0  0  0  0  0
   40.2670   33.6420   41.5230 H   0  0  0  0  0  0  0  0  0  0  0  0
   37.2360   33.1150   41.9270 H   0  0  0  0  0  0  0  0  0  0  0  0
   38.0680   34.5860   41.4640 H   0  0  0  0  0  0  0  0  0  0  0  0
   38.7570   31.6420   38.9280 H   0  0  0  0  0  0  0  0  0  0  0  0
   37.6550   31.1090   40.3320 H   0  0  0  0  0  0  0  0  0  0  0  0
   40.5670   32.0990   40.2980 H   0  0  0  0  0  0  0  0  0  0  0  0
   40.2730   30.0800   40.4930 N   0  0  1  0  0  0  0  0  0  0  0  0
   41.3910   30.0330   39.5650 C   0  0  0  0  0  3  0  0  0  0  0  0
   42.1240   30.8290   39.6960 H   0  0  0  0  0  0  0  0  0  0  0  0
   42.0800   28.7000   39.7080 C   0  0  0  0  0  3  0  0  0  0  0  0
   42.8770   28.6920   40.4720 H   0  0  0  0  0  0  0  0  0  0  0  0
   41.1470   27.6210   39.9630 N   0  0  0  0  0  0  0  0  0  0  0  0
   40.5320   27.5500   39.1080 H   0  0  0  0  0  0  0  0  0  0  0  0
   40.4270   27.8190   41.1850 C   0  0  0  0  0  2  0  0  0  0  0  0
   40.5890   29.2800   41.6280 C   0  0  0  0  0  2  0  0  0  0  0  0
  1  7  1  0  0  0  0
  2 11  1  0  0  0  0
  2  3  1  0  0  0  0
  3 17  1  0  0  0  0
  4  3  2  0  0  0  0
  4 12  1  0  0  0  0
  5  4  1  0  0  0  0
  6 13  1  0  0  0  0
  6  5  1  0  0  0  0
  7  6  1  0  0  0  0
  8  7  2  0  0  0  0
  8  9  1  0  0  0  0
  9 10  1  0  0  0  0
  9  5  2  0  0  0  0
 10  2  2  0  0  0  0
 14 10  1  0  0  0  0
 15 20  1  0  0  0  0
 15 21  1  0  0  0  0
 16 15  2  0  0  0  0
 17 18  2  0  0  0  0
 17 16  1  0  0  0  0
 18 19  1  0  0  0  0
 19 23  1  0  0  0  0
 19 20  2  0  0  0  0
 22 16  1  0  0  0  0
 24 30  1  0  0  0  0
 25 31  1  6  0  0  0
 25 24  1  0  0  0  0
 25  1  1  0  0  0  0
 26 32  1  0  0  0  0
 26 25  1  0  0  0  0
 27 26  1  0  0  0  0
 28 27  1  0  0  0  0
 28 35  1  0  0  0  0
 28 29  1  0  0  0  0
 29 36  1  6  0  0  0
 29 24  1  0  0  0  0
 33 26  1  0  0  0  0
 34 28  1  0  0  0  0
 37 29  1  0  0  0  0
 37 45  1  1  0  0  0
 38 39  1  0  0  0  0
 38 40  1  0  0  0  0
 38 37  1  0  0  0  0
 40 42  1  0  0  0  0
 40 41  1  0  0  0  0
 42 44  1  0  0  0  0
 43 42  1  0  0  0  0
 44 45  1  0  0  0  0
M  END
>  <minimizedAffinity>
-6.14070082

>  <minimizedRMSD>
0.485275149

$$$$
