
 OpenBabel03272504513D

 42 45  0  0  1  0  0  0  0  0999 V2000
   36.5020   28.4280   32.4490 N   0  0  0  0  0  0  0  0  0  0  0  0
   37.3360   28.6090   31.2640 C   0  0  0  0  0  0  0  0  0  0  0  0
   36.7520   29.5780   30.2870 C   0  0  0  0  0  0  0  0  0  0  0  0
   36.1480   30.7460   31.0400 C   0  0  0  0  0  0  0  0  0  0  0  0
   34.9290   30.1650   31.7270 C   0  0  0  0  0  0  0  0  0  0  0  0
   35.2680   29.1020   32.7030 C   0  0  2  0  0  0  0  0  0  0  0  0
   38.3590   28.9500   31.5050 H   0  0  0  0  0  0  0  0  0  0  0  0
   37.3790   27.6020   30.7650 H   0  0  0  0  0  0  0  0  0  0  0  0
   37.4920   29.8740   29.5500 H   0  0  0  0  0  0  0  0  0  0  0  0
   35.8840   29.0400   29.8070 H   0  0  0  0  0  0  0  0  0  0  0  0
   36.8590   31.2110   31.7330 H   0  0  0  0  0  0  0  0  0  0  0  0
   35.7940   31.4870   30.3140 H   0  0  0  0  0  0  0  0  0  0  0  0
   34.2170   29.8700   30.9280 H   0  0  0  0  0  0  0  0  0  0  0  0
   34.4610   31.0550   32.2420 H   0  0  0  0  0  0  0  0  0  0  0  0
   34.4720   28.3200   32.6520 H   0  0  0  0  0  0  0  0  0  0  0  0
   35.1760   29.6580   34.0400 N   0  0  2  0  0  0  0  0  0  0  0  0
   33.8980   29.4760   34.6360 C   0  0  0  0  0  3  0  0  0  0  0  0
   33.9430   28.6390   35.3990 H   0  0  0  0  0  0  0  0  0  0  0  0
   33.3700   30.7390   35.3020 C   0  0  0  0  0  3  0  0  0  0  0  0
   33.0190   31.4650   34.5480 H   0  0  0  0  0  0  0  0  0  0  0  0
   34.3200   31.3610   36.1830 N   0  0  0  0  0  0  0  0  0  0  0  0
   34.2250   31.0160   37.1770 H   0  0  0  0  0  0  0  0  0  0  0  0
   35.6800   31.2690   35.6860 C   0  0  0  0  0  2  0  0  0  0  0  0
   35.6560   30.9920   34.1750 C   0  0  0  0  0  2  0  0  0  0  0  0
   37.4000   27.8880   34.6810 C   0  0  0  0  0  0  0  0  0  0  0  0
   36.9970   27.4930   33.3990 C   0  0  0  0  0  0  0  0  0  0  0  0
   37.0880   26.1470   33.0950 C   0  0  0  0  0  0  0  0  0  0  0  0
   37.5560   25.2880   34.0390 N   0  0  0  0  0  0  0  0  0  0  0  0
   37.9350   25.6960   35.2590 C   0  0  0  0  0  0  0  0  0  0  0  0
   37.8550   27.0120   35.5800 N   0  0  0  0  0  0  0  0  0  0  0  0
   37.3480   28.9320   34.9680 H   0  0  0  0  0  0  0  0  0  0  0  0
   36.8180   25.7220   32.1430 H   0  0  0  0  0  0  0  0  0  0  0  0
   38.4220   24.7540   36.2380 C   0  0  0  0  0  0  0  0  0  0  0  0
   37.8790   24.6820   37.4790 C   0  0  0  0  0  0  0  0  0  0  0  0
   38.2830   23.8170   38.4620 C   0  0  0  0  0  0  0  0  0  0  0  0
   39.3240   22.9890   38.0840 C   0  0  0  0  0  0  0  0  0  0  0  0
   39.9350   23.0090   36.8180 C   0  0  0  0  0  0  0  0  0  0  0  0
   39.4320   23.9240   35.9290 N   0  0  0  0  0  0  0  0  0  0  0  0
   37.0530   25.3680   37.7160 H   0  0  0  0  0  0  0  0  0  0  0  0
   37.8660   23.7430   39.4510 H   0  0  0  0  0  0  0  0  0  0  0  0
   39.7190   22.2650   38.7940 H   0  0  0  0  0  0  0  0  0  0  0  0
   40.7450   22.3410   36.5780 H   0  0  0  0  0  0  0  0  0  0  0  0
  1  6  1  0  0  0  0
  1 26  1  0  0  0  0
  2  7  1  0  0  0  0
  2  1  1  0  0  0  0
  3  4  1  0  0  0  0
  3  2  1  0  0  0  0
  4  5  1  0  0  0  0
  4 11  1  0  0  0  0
  5 14  1  0  0  0  0
  5  6  1  0  0  0  0
  6 15  1  6  0  0  0
  6 16  1  0  0  0  0
  8  2  1  0  0  0  0
  9  3  1  0  0  0  0
 10  3  1  0  0  0  0
 12  4  1  0  0  0  0
 13  5  1  0  0  0  0
 16 24  1  6  0  0  0
 16 17  1  0  0  0  0
 17 19  1  0  0  0  0
 17 18  1  0  0  0  0
 19 21  1  0  0  0  0
 20 19  1  0  0  0  0
 21 22  1  0  0  0  0
 23 21  1  0  0  0  0
 24 23  1  0  0  0  0
 25 31  1  0  0  0  0
 25 30  1  0  0  0  0
 26 25  2  0  0  0  0
 27 26  1  0  0  0  0
 27 28  2  0  0  0  0
 28 29  1  0  0  0  0
 29 30  2  0  0  0  0
 29 33  1  0  0  0  0
 32 27  1  0  0  0  0
 33 34  1  0  0  0  0
 34 39  1  0  0  0  0
 34 35  2  0  0  0  0
 35 40  1  0  0  0  0
 36 35  1  0  0  0  0
 36 41  1  0  0  0  0
 37 36  2  0  0  0  0
 38 33  2  0  0  0  0
 38 37  1  0  0  0  0
 42 37  1  0  0  0  0
M  END
>  <minimizedAffinity>
-5.9732399

$$$$

 OpenBabel03272504513D

 42 45  0  0  1  0  0  0  0  0999 V2000
   34.9910   30.3920   34.8470 N   0  0  0  0  0  0  0  0  0  0  0  0
   35.9930   31.1630   35.5780 C   0  0  0  0  0  0  0  0  0  0  0  0
   35.4000   32.2970   36.3500 C   0  0  0  0  0  0  0  0  0  0  0  0
   34.1020   31.8460   36.9870 C   0  0  0  0  0  0  0  0  0  0  0  0
   33.1460   31.6790   35.8230 C   0  0  0  0  0  0  0  0  0  0  0  0
   33.5840   30.6390   34.8610 C   0  0  2  0  0  0  0  0  0  0  0  0
   36.5810   30.5480   36.2820 H   0  0  0  0  0  0  0  0  0  0  0  0
   36.6720   31.5990   34.7950 H   0  0  0  0  0  0  0  0  0  0  0  0
   36.1170   32.6930   37.0630 H   0  0  0  0  0  0  0  0  0  0  0  0
   35.1120   33.0720   35.5820 H   0  0  0  0  0  0  0  0  0  0  0  0
   34.2220   30.9360   37.5860 H   0  0  0  0  0  0  0  0  0  0  0  0
   33.7160   32.6580   37.6140 H   0  0  0  0  0  0  0  0  0  0  0  0
   32.9810   32.6890   35.3920 H   0  0  0  0  0  0  0  0  0  0  0  0
   32.1710   31.3920   36.3160 H   0  0  0  0  0  0  0  0  0  0  0  0
   33.3220   30.9880   33.8330 H   0  0  0  0  0  0  0  0  0  0  0  0
   32.7870   29.4460   35.0780 N   0  0  2  0  0  0  0  0  0  0  0  0
   31.8440   29.2060   34.0410 C   0  0  0  0  0  3  0  0  0  0  0  0
   32.2140   28.3740   33.3670 H   0  0  0  0  0  0  0  0  0  0  0  0
   30.4610   28.8500   34.5710 C   0  0  0  0  0  3  0  0  0  0  0  0
   29.9460   29.7450   34.9600 H   0  0  0  0  0  0  0  0  0  0  0  0
   30.4800   27.8160   35.5680 N   0  0  0  0  0  0  0  0  0  0  0  0
   30.3660   26.8540   35.1440 H   0  0  0  0  0  0  0  0  0  0  0  0
   31.6340   27.9090   36.4430 C   0  0  0  0  0  2  0  0  0  0  0  0
   32.2130   29.3300   36.3760 C   0  0  0  0  0  2  0  0  0  0  0  0
   36.3260   28.3300   34.6310 C   0  0  0  0  0  0  0  0  0  0  0  0
   35.5050   29.3160   34.0710 C   0  0  0  0  0  0  0  0  0  0  0  0
   35.2000   29.1970   32.7270 C   0  0  0  0  0  0  0  0  0  0  0  0
   35.7030   28.1460   32.0280 N   0  0  0  0  0  0  0  0  0  0  0  0
   36.4870   27.2160   32.5920 C   0  0  0  0  0  0  0  0  0  0  0  0
   36.8010   27.3120   33.9080 N   0  0  0  0  0  0  0  0  0  0  0  0
   36.5940   28.3790   35.6810 H   0  0  0  0  0  0  0  0  0  0  0  0
   34.5860   29.8940   32.1820 H   0  0  0  0  0  0  0  0  0  0  0  0
   37.0000   26.1100   31.8180 C   0  0  0  0  0  0  0  0  0  0  0  0
   36.2740   24.9780   31.6400 C   0  0  0  0  0  0  0  0  0  0  0  0
   36.6880   23.8880   30.9200 C   0  0  0  0  0  0  0  0  0  0  0  0
   37.9470   24.0290   30.3670 C   0  0  0  0  0  0  0  0  0  0  0  0
   38.7550   25.1710   30.5120 C   0  0  0  0  0  0  0  0  0  0  0  0
   38.2180   26.1890   31.2570 N   0  0  0  0  0  0  0  0  0  0  0  0
   35.2790   24.9300   32.1050 H   0  0  0  0  0  0  0  0  0  0  0  0
   36.1290   22.9820   30.7650 H   0  0  0  0  0  0  0  0  0  0  0  0
   38.3690   23.2170   29.7760 H   0  0  0  0  0  0  0  0  0  0  0  0
   39.7300   25.2260   30.0580 H   0  0  0  0  0  0  0  0  0  0  0  0
  1  6  1  0  0  0  0
  1  2  1  0  0  0  0
  2  7  1  0  0  0  0
  2  3  1  0  0  0  0
  3  4  1  0  0  0  0
  3  9  1  0  0  0  0
  4 11  1  0  0  0  0
  4 12  1  0  0  0  0
  5 14  1  0  0  0  0
  5  4  1  0  0  0  0
  6 15  1  6  0  0  0
  6 16  1  0  0  0  0
  6  5  1  0  0  0  0
  8  2  1  0  0  0  0
 10  3  1  0  0  0  0
 13  5  1  0  0  0  0
 16 24  1  1  0  0  0
 17 19  1  0  0  0  0
 17 16  1  0  0  0  0
 18 17  1  0  0  0  0
 19 20  1  0  0  0  0
 19 21  1  0  0  0  0
 21 23  1  0  0  0  0
 22 21  1  0  0  0  0
 24 23  1  0  0  0  0
 25 31  1  0  0  0  0
 26 25  1  0  0  0  0
 26  1  1  0  0  0  0
 27 26  2  0  0  0  0
 28 29  2  0  0  0  0
 28 27  1  0  0  0  0
 29 30  1  0  0  0  0
 30 25  2  0  0  0  0
 32 27  1  0  0  0  0
 33 29  1  0  0  0  0
 34 33  1  0  0  0  0
 34 39  1  0  0  0  0
 35 34  2  0  0  0  0
 36 37  2  0  0  0  0
 36 35  1  0  0  0  0
 37 38  1  0  0  0  0
 38 33  2  0  0  0  0
 40 35  1  0  0  0  0
 41 36  1  0  0  0  0
 42 37  1  0  0  0  0
M  END
>  <minimizedAffinity>
-5.69158459

$$$$

 OpenBabel03272504513D

 42 45  0  0  1  0  0  0  0  0999 V2000
   38.3040   27.4290   31.1750 N   0  0  0  0  0  0  0  0  0  0  0  0
   39.5260   27.4700   30.3770 C   0  0  0  0  0  0  0  0  0  0  0  0
   39.3490   28.1990   29.0840 C   0  0  0  0  0  0  0  0  0  0  0  0
   38.4890   29.4260   29.3140 C   0  0  0  0  0  0  0  0  0  0  0  0
   37.1060   28.8730   29.5950 C   0  0  0  0  0  0  0  0  0  0  0  0
   37.0590   28.0300   30.8150 C   0  0  2  0  0  0  0  0  0  0  0  0
   40.3740   27.9340   30.9110 H   0  0  0  0  0  0  0  0  0  0  0  0
   39.7680   26.3990   30.1360 H   0  0  0  0  0  0  0  0  0  0  0  0
   40.3110   28.4240   28.6340 H   0  0  0  0  0  0  0  0  0  0  0  0
   38.7370   27.5140   28.4290 H   0  0  0  0  0  0  0  0  0  0  0  0
   38.8750   30.0640   30.1170 H   0  0  0  0  0  0  0  0  0  0  0  0
   38.4300   29.9940   28.3790 H   0  0  0  0  0  0  0  0  0  0  0  0
   36.7580   28.3820   28.6620 H   0  0  0  0  0  0  0  0  0  0  0  0
   36.4670   29.7960   29.7140 H   0  0  0  0  0  0  0  0  0  0  0  0
   36.3530   27.1870   30.6230 H   0  0  0  0  0  0  0  0  0  0  0  0
   36.4560   28.8030   31.8850 N   0  0  2  0  0  0  0  0  0  0  0  0
   35.2680   28.2140   32.4000 C   0  0  0  0  0  3  0  0  0  0  0  0
   35.4840   27.7180   33.3950 H   0  0  0  0  0  0  0  0  0  0  0  0
   34.1370   29.2190   32.5710 C   0  0  0  0  0  3  0  0  0  0  0  0
   33.6950   29.4840   31.5950 H   0  0  0  0  0  0  0  0  0  0  0  0
   34.5300   30.4080   33.2760 N   0  0  0  0  0  0  0  0  0  0  0  0
   34.3690   30.3240   34.3170 H   0  0  0  0  0  0  0  0  0  0  0  0
   35.8810   30.8250   32.9510 C   0  0  0  0  0  2  0  0  0  0  0  0
   36.3050   30.1930   31.6160 C   0  0  0  0  0  2  0  0  0  0  0  0
   37.7410   25.5090   32.6160 C   0  0  0  0  0  0  0  0  0  0  0  0
   38.4090   26.7220   32.4050 C   0  0  0  0  0  0  0  0  0  0  0  0
   39.1900   27.2020   33.4400 C   0  0  0  0  0  0  0  0  0  0  0  0
   39.2710   26.4850   34.5920 N   0  0  0  0  0  0  0  0  0  0  0  0
   38.6200   25.3260   34.7650 C   0  0  0  0  0  0  0  0  0  0  0  0
   37.8470   24.8350   33.7650 N   0  0  0  0  0  0  0  0  0  0  0  0
   37.1170   25.0900   31.8350 H   0  0  0  0  0  0  0  0  0  0  0  0
   39.7450   28.1250   33.4020 H   0  0  0  0  0  0  0  0  0  0  0  0
   38.7340   24.5900   36.0020 C   0  0  0  0  0  0  0  0  0  0  0  0
   37.9410   24.8740   37.0670 C   0  0  0  0  0  0  0  0  0  0  0  0
   37.9850   24.2210   38.2710 C   0  0  0  0  0  0  0  0  0  0  0  0
   38.9310   23.2150   38.3270 C   0  0  0  0  0  0  0  0  0  0  0  0
   39.7850   22.8680   37.2660 C   0  0  0  0  0  0  0  0  0  0  0  0
   39.6350   23.6010   36.1160 N   0  0  0  0  0  0  0  0  0  0  0  0
   37.2080   25.6850   36.9560 H   0  0  0  0  0  0  0  0  0  0  0  0
   37.3660   24.4300   39.1260 H   0  0  0  0  0  0  0  0  0  0  0  0
   39.0460   22.6360   39.2420 H   0  0  0  0  0  0  0  0  0  0  0  0
   40.5060   22.0740   37.3650 H   0  0  0  0  0  0  0  0  0  0  0  0
  1 26  1  0  0  0  0
  2  7  1  0  0  0  0
  2  1  1  0  0  0  0
  3  4  1  0  0  0  0
  3  2  1  0  0  0  0
  4  5  1  0  0  0  0
  4 11  1  0  0  0  0
  5 14  1  0  0  0  0
  5  6  1  0  0  0  0
  6 15  1  6  0  0  0
  6  1  1  0  0  0  0
  6 16  1  0  0  0  0
  8  2  1  0  0  0  0
  9  3  1  0  0  0  0
 10  3  1  0  0  0  0
 12  4  1  0  0  0  0
 13  5  1  0  0  0  0
 16 24  1  6  0  0  0
 16 17  1  0  0  0  0
 17 19  1  0  0  0  0
 17 18  1  0  0  0  0
 19 21  1  0  0  0  0
 20 19  1  0  0  0  0
 21 22  1  0  0  0  0
 23 21  1  0  0  0  0
 24 23  1  0  0  0  0
 25 30  1  0  0  0  0
 26 25  2  0  0  0  0
 26 27  1  0  0  0  0
 27 28  2  0  0  0  0
 28 29  1  0  0  0  0
 29 33  1  0  0  0  0
 30 29  2  0  0  0  0
 31 25  1  0  0  0  0
 32 27  1  0  0  0  0
 33 38  2  0  0  0  0
 33 34  1  0  0  0  0
 34 35  2  0  0  0  0
 35 36  1  0  0  0  0
 35 40  1  0  0  0  0
 36 41  1  0  0  0  0
 37 42  1  0  0  0  0
 37 36  2  0  0  0  0
 38 37  1  0  0  0  0
 39 34  1  0  0  0  0
M  END
>  <minimizedAffinity>
-5.33609104

$$$$

 OpenBabel03272504513D

 42 45  0  0  1  0  0  0  0  0999 V2000
   38.5220   24.2800   36.0180 N   0  0  0  0  0  0  0  0  0  0  0  0
   38.0260   24.3460   37.3890 C   0  0  0  0  0  0  0  0  0  0  0  0
   38.5220   23.2210   38.2390 C   0  0  0  0  0  0  0  0  0  0  0  0
   39.9780   22.9540   37.9170 C   0  0  0  0  0  0  0  0  0  0  0  0
   39.9550   22.3550   36.5250 C   0  0  0  0  0  0  0  0  0  0  0  0
   39.4100   23.2850   35.5060 C   0  0  2  0  0  0  0  0  0  0  0  0
   38.2870   25.2910   37.8970 H   0  0  0  0  0  0  0  0  0  0  0  0
   36.9080   24.2500   37.3130 H   0  0  0  0  0  0  0  0  0  0  0  0
   38.3430   23.4260   39.2910 H   0  0  0  0  0  0  0  0  0  0  0  0
   37.9580   22.3070   37.8950 H   0  0  0  0  0  0  0  0  0  0  0  0
   40.5980   23.8550   37.9920 H   0  0  0  0  0  0  0  0  0  0  0  0
   40.3540   22.1830   38.5990 H   0  0  0  0  0  0  0  0  0  0  0  0
   39.4370   21.3750   36.6020 H   0  0  0  0  0  0  0  0  0  0  0  0
   41.0380   22.1140   36.3180 H   0  0  0  0  0  0  0  0  0  0  0  0
   38.8140   22.6850   34.7760 H   0  0  0  0  0  0  0  0  0  0  0  0
   40.5170   23.8300   34.7430 N   0  0  2  0  0  0  0  0  0  0  0  0
   40.7780   23.1140   33.5430 C   0  0  0  0  0  3  0  0  0  0  0  0
   40.3790   23.6900   32.6530 H   0  0  0  0  0  0  0  0  0  0  0  0
   42.2600   22.8280   33.3360 C   0  0  0  0  0  3  0  0  0  0  0  0
   42.6020   22.0200   34.0050 H   0  0  0  0  0  0  0  0  0  0  0  0
   43.0930   23.9880   33.4940 N   0  0  0  0  0  0  0  0  0  0  0  0
   43.2490   24.4930   32.5780 H   0  0  0  0  0  0  0  0  0  0  0  0
   42.6240   24.8700   34.5460 C   0  0  0  0  0  2  0  0  0  0  0  0
   41.6990   24.0900   35.4930 C   0  0  0  0  0  2  0  0  0  0  0  0
   37.5880   25.0380   33.8650 C   0  0  0  0  0  0  0  0  0  0  0  0
   38.0570   25.3120   35.1560 C   0  0  0  0  0  0  0  0  0  0  0  0
   38.0380   26.6320   35.5690 C   0  0  0  0  0  0  0  0  0  0  0  0
   37.5730   27.5820   34.7170 N   0  0  0  0  0  0  0  0  0  0  0  0
   37.1290   27.2900   33.4860 C   0  0  0  0  0  0  0  0  0  0  0  0
   37.1390   26.0030   33.0580 N   0  0  0  0  0  0  0  0  0  0  0  0
   37.5810   24.0190   33.4950 H   0  0  0  0  0  0  0  0  0  0  0  0
   38.3800   26.9690   36.5340 H   0  0  0  0  0  0  0  0  0  0  0  0
   36.6380   28.3270   32.6090 C   0  0  0  0  0  0  0  0  0  0  0  0
   37.1030   28.4570   31.3410 C   0  0  0  0  0  0  0  0  0  0  0  0
   36.6870   29.4100   30.4490 C   0  0  0  0  0  0  0  0  0  0  0  0
   35.7230   30.2630   30.9520 C   0  0  0  0  0  0  0  0  0  0  0  0
   35.1960   30.1870   32.2530 C   0  0  0  0  0  0  0  0  0  0  0  0
   35.7000   29.1850   33.0420 N   0  0  0  0  0  0  0  0  0  0  0  0
   37.8700   27.7460   31.0030 H   0  0  0  0  0  0  0  0  0  0  0  0
   37.0430   29.5300   29.4400 H   0  0  0  0  0  0  0  0  0  0  0  0
   35.3260   31.0570   30.3210 H   0  0  0  0  0  0  0  0  0  0  0  0
   34.4440   30.8800   32.5930 H   0  0  0  0  0  0  0  0  0  0  0  0
  1  2  1  0  0  0  0
  2  7  1  0  0  0  0
  2  3  1  0  0  0  0
  3  9  1  0  0  0  0
  4 11  1  0  0  0  0
  4  3  1  0  0  0  0
  4 12  1  0  0  0  0
  5 13  1  0  0  0  0
  5  4  1  0  0  0  0
  6 15  1  6  0  0  0
  6  1  1  0  0  0  0
  6  5  1  0  0  0  0
  8  2  1  0  0  0  0
 10  3  1  0  0  0  0
 14  5  1  0  0  0  0
 16 24  1  1  0  0  0
 16  6  1  0  0  0  0
 17 16  1  0  0  0  0
 18 17  1  0  0  0  0
 19 21  1  0  0  0  0
 19 17  1  0  0  0  0
 19 20  1  0  0  0  0
 21 23  1  0  0  0  0
 22 21  1  0  0  0  0
 23 24  1  0  0  0  0
 25 26  1  0  0  0  0
 26 27  2  0  0  0  0
 26  1  1  0  0  0  0
 27 32  1  0  0  0  0
 28 27  1  0  0  0  0
 29 28  2  0  0  0  0
 30 29  1  0  0  0  0
 30 25  2  0  0  0  0
 31 25  1  0  0  0  0
 33 38  1  0  0  0  0
 33 29  1  0  0  0  0
 34 33  2  0  0  0  0
 35 36  2  0  0  0  0
 35 34  1  0  0  0  0
 36 37  1  0  0  0  0
 37 42  1  0  0  0  0
 37 38  2  0  0  0  0
 39 34  1  0  0  0  0
 40 35  1  0  0  0  0
 41 36  1  0  0  0  0
M  END
>  <minimizedAffinity>
-5.27666426

$$$$

 OpenBabel03272504513D

 42 45  0  0  1  0  0  0  0  0999 V2000
   38.2290   24.9740   33.7800 N   0  0  0  0  0  0  0  0  0  0  0  0
   38.7640   26.1390   33.0800 C   0  0  0  0  0  0  0  0  0  0  0  0
   38.8380   27.3530   33.9490 C   0  0  0  0  0  0  0  0  0  0  0  0
   39.3100   26.9520   35.3320 C   0  0  0  0  0  0  0  0  0  0  0  0
   38.1490   26.1740   35.9180 C   0  0  0  0  0  0  0  0  0  0  0  0
   37.8340   24.9430   35.1530 C   0  0  2  0  0  0  0  0  0  0  0  0
   39.7700   25.9650   32.6590 H   0  0  0  0  0  0  0  0  0  0  0  0
   38.0370   26.3550   32.2500 H   0  0  0  0  0  0  0  0  0  0  0  0
   39.4540   28.1190   33.4870 H   0  0  0  0  0  0  0  0  0  0  0  0
   37.7730   27.7020   34.0770 H   0  0  0  0  0  0  0  0  0  0  0  0
   40.2470   26.3840   35.3070 H   0  0  0  0  0  0  0  0  0  0  0  0
   39.4360   27.8570   35.9370 H   0  0  0  0  0  0  0  0  0  0  0  0
   37.3080   26.8890   36.0380 H   0  0  0  0  0  0  0  0  0  0  0  0
   38.4930   25.9250   36.9640 H   0  0  0  0  0  0  0  0  0  0  0  0
   36.7250   24.8120   35.1520 H   0  0  0  0  0  0  0  0  0  0  0  0
   38.3560   23.8020   35.8810 N   0  0  2  0  0  0  0  0  0  0  0  0
   37.6960   23.5790   37.1210 C   0  0  0  0  0  3  0  0  0  0  0  0
   36.9790   22.7070   37.0250 H   0  0  0  0  0  0  0  0  0  0  0  0
   38.6630   23.3150   38.2670 C   0  0  0  0  0  3  0  0  0  0  0  0
   39.1560   24.2480   38.5890 H   0  0  0  0  0  0  0  0  0  0  0  0
   39.6490   22.3140   37.9640 N   0  0  0  0  0  0  0  0  0  0  0  0
   39.3330   21.3460   38.2480 H   0  0  0  0  0  0  0  0  0  0  0  0
   40.0950   22.3730   36.5840 C   0  0  0  0  0  2  0  0  0  0  0  0
   39.7750   23.7590   36.0020 C   0  0  0  0  0  2  0  0  0  0  0  0
   36.8620   23.2390   32.6850 C   0  0  0  0  0  0  0  0  0  0  0  0
   38.1100   23.7970   32.9910 C   0  0  0  0  0  0  0  0  0  0  0  0
   39.2280   23.1630   32.4810 C   0  0  0  0  0  0  0  0  0  0  0  0
   39.0650   22.0480   31.7220 N   0  0  0  0  0  0  0  0  0  0  0  0
   37.8580   21.5360   31.4450 C   0  0  0  0  0  0  0  0  0  0  0  0
   36.7460   22.1400   31.9340 N   0  0  0  0  0  0  0  0  0  0  0  0
   35.9550   23.6990   33.0600 H   0  0  0  0  0  0  0  0  0  0  0  0
   40.2400   23.4910   32.6530 H   0  0  0  0  0  0  0  0  0  0  0  0
   37.7230   20.3520   30.6300 C   0  0  0  0  0  0  0  0  0  0  0  0
   38.4970   20.1600   29.5320 C   0  0  0  0  0  0  0  0  0  0  0  0
   38.4320   19.0660   28.7100 C   0  0  0  0  0  0  0  0  0  0  0  0
   37.4840   18.1350   29.0940 C   0  0  0  0  0  0  0  0  0  0  0  0
   36.6490   18.2680   30.2160 C   0  0  0  0  0  0  0  0  0  0  0  0
   36.8190   19.4120   30.9530 N   0  0  0  0  0  0  0  0  0  0  0  0
   39.2320   20.9390   29.2820 H   0  0  0  0  0  0  0  0  0  0  0  0
   39.0350   18.8940   27.8360 H   0  0  0  0  0  0  0  0  0  0  0  0
   37.3530   17.2280   28.5050 H   0  0  0  0  0  0  0  0  0  0  0  0
   35.9260   17.5100   30.4690 H   0  0  0  0  0  0  0  0  0  0  0  0
  1  6  1  0  0  0  0
  2  1  1  0  0  0  0
  2  3  1  0  0  0  0
  3 10  1  0  0  0  0
  3  4  1  0  0  0  0
  4  5  1  0  0  0  0
  4 12  1  0  0  0  0
  5 13  1  0  0  0  0
  5 14  1  0  0  0  0
  6 15  1  1  0  0  0
  6 16  1  0  0  0  0
  6  5  1  0  0  0  0
  7  2  1  0  0  0  0
  8  2  1  0  0  0  0
  9  3  1  0  0  0  0
 11  4  1  0  0  0  0
 16 24  1  1  0  0  0
 16 17  1  0  0  0  0
 17 19  1  0  0  0  0
 18 17  1  0  0  0  0
 19 20  1  0  0  0  0
 21 22  1  0  0  0  0
 21 19  1  0  0  0  0
 23 21  1  0  0  0  0
 24 23  1  0  0  0  0
 25 26  1  0  0  0  0
 25 31  1  0  0  0  0
 26  1  1  0  0  0  0
 27 32  1  0  0  0  0
 27 26  2  0  0  0  0
 28 27  1  0  0  0  0
 29 28  2  0  0  0  0
 29 30  1  0  0  0  0
 30 25  2  0  0  0  0
 33 38  1  0  0  0  0
 33 29  1  0  0  0  0
 34 33  2  0  0  0  0
 35 36  2  0  0  0  0
 35 34  1  0  0  0  0
 36 37  1  0  0  0  0
 37 42  1  0  0  0  0
 37 38  2  0  0  0  0
 39 34  1  0  0  0  0
 40 35  1  0  0  0  0
 41 36  1  0  0  0  0
M  END
>  <minimizedAffinity>
-5.27015209

$$$$

 OpenBabel03272504513D

 42 45  0  0  1  0  0  0  0  0999 V2000
   38.5820   24.1840   35.9940 N   0  0  0  0  0  0  0  0  0  0  0  0
   37.8980   24.3400   37.2750 C   0  0  0  0  0  0  0  0  0  0  0  0
   38.2550   23.2700   38.2560 C   0  0  0  0  0  0  0  0  0  0  0  0
   39.7380   22.9750   38.1590 C   0  0  0  0  0  0  0  0  0  0  0  0
   39.9020   22.2890   36.8180 C   0  0  0  0  0  0  0  0  0  0  0  0
   39.5190   23.1540   35.6760 C   0  0  2  0  0  0  0  0  0  0  0  0
   38.0970   25.3150   37.7540 H   0  0  0  0  0  0  0  0  0  0  0  0
   36.8010   24.2440   37.0480 H   0  0  0  0  0  0  0  0  0  0  0  0
   37.9330   23.5420   39.2560 H   0  0  0  0  0  0  0  0  0  0  0  0
   37.7330   22.3370   37.8930 H   0  0  0  0  0  0  0  0  0  0  0  0
   40.3530   23.8770   38.2650 H   0  0  0  0  0  0  0  0  0  0  0  0
   40.0040   22.2480   38.9340 H   0  0  0  0  0  0  0  0  0  0  0  0
   39.3660   21.3190   36.8830 H   0  0  0  0  0  0  0  0  0  0  0  0
   41.0010   22.0300   36.7810 H   0  0  0  0  0  0  0  0  0  0  0  0
   39.0230   22.5110   34.9090 H   0  0  0  0  0  0  0  0  0  0  0  0
   40.7290   23.6450   35.0440 N   0  0  2  0  0  0  0  0  0  0  0  0
   40.9880   23.0400   33.7840 C   0  0  0  0  0  3  0  0  0  0  0  0
   40.7170   23.7570   32.9480 H   0  0  0  0  0  0  0  0  0  0  0  0
   42.4390   22.6040   33.6240 C   0  0  0  0  0  3  0  0  0  0  0  0
   42.6420   21.6910   34.2100 H   0  0  0  0  0  0  0  0  0  0  0  0
   43.3850   23.6300   33.9630 N   0  0  0  0  0  0  0  0  0  0  0  0
   43.6580   24.2120   33.1240 H   0  0  0  0  0  0  0  0  0  0  0  0
   42.9480   24.4400   35.0860 C   0  0  0  0  0  2  0  0  0  0  0  0
   41.8800   23.6750   35.8830 C   0  0  0  0  0  2  0  0  0  0  0  0
   37.7220   24.8040   33.7680 C   0  0  0  0  0  0  0  0  0  0  0  0
   38.2550   25.1600   35.0130 C   0  0  0  0  0  0  0  0  0  0  0  0
   38.4430   26.5080   35.2580 C   0  0  0  0  0  0  0  0  0  0  0  0
   38.1050   27.4060   34.2950 N   0  0  0  0  0  0  0  0  0  0  0  0
   37.5960   27.0360   33.1120 C   0  0  0  0  0  0  0  0  0  0  0  0
   37.4040   25.7190   32.8480 N   0  0  0  0  0  0  0  0  0  0  0  0
   37.5560   23.7600   33.5270 H   0  0  0  0  0  0  0  0  0  0  0  0
   38.8520   26.9060   36.1710 H   0  0  0  0  0  0  0  0  0  0  0  0
   37.2440   28.0190   32.1150 C   0  0  0  0  0  0  0  0  0  0  0  0
   36.2740   28.9390   32.3440 C   0  0  0  0  0  0  0  0  0  0  0  0
   35.8840   29.9040   31.4520 C   0  0  0  0  0  0  0  0  0  0  0  0
   36.5760   29.8710   30.2560 C   0  0  0  0  0  0  0  0  0  0  0  0
   37.5910   28.9470   29.9500 C   0  0  0  0  0  0  0  0  0  0  0  0
   37.8820   28.0360   30.9330 N   0  0  0  0  0  0  0  0  0  0  0  0
   35.7620   28.9120   33.3160 H   0  0  0  0  0  0  0  0  0  0  0  0
   35.1190   30.6430   31.6130 H   0  0  0  0  0  0  0  0  0  0  0  0
   36.3410   30.5970   29.4790 H   0  0  0  0  0  0  0  0  0  0  0  0
   38.0970   28.9680   29.0000 H   0  0  0  0  0  0  0  0  0  0  0  0
  1  2  1  0  0  0  0
  2  7  1  0  0  0  0
  2  3  1  0  0  0  0
  3  9  1  0  0  0  0
  4  3  1  0  0  0  0
  4 11  1  0  0  0  0
  4 12  1  0  0  0  0
  5 13  1  0  0  0  0
  5  4  1  0  0  0  0
  6 15  1  6  0  0  0
  6  1  1  0  0  0  0
  6  5  1  0  0  0  0
  8  2  1  0  0  0  0
 10  3  1  0  0  0  0
 14  5  1  0  0  0  0
 16  6  1  0  0  0  0
 16 24  1  1  0  0  0
 17 16  1  0  0  0  0
 18 17  1  0  0  0  0
 19 17  1  0  0  0  0
 19 21  1  0  0  0  0
 19 20  1  0  0  0  0
 21 23  1  0  0  0  0
 22 21  1  0  0  0  0
 23 24  1  0  0  0  0
 25 26  1  0  0  0  0
 26 27  2  0  0  0  0
 26  1  1  0  0  0  0
 27 32  1  0  0  0  0
 28 27  1  0  0  0  0
 29 28  2  0  0  0  0
 30 29  1  0  0  0  0
 30 25  2  0  0  0  0
 31 25  1  0  0  0  0
 33 34  1  0  0  0  0
 33 29  1  0  0  0  0
 34 39  1  0  0  0  0
 35 40  1  0  0  0  0
 35 34  2  0  0  0  0
 36 35  1  0  0  0  0
 37 36  2  0  0  0  0
 37 38  1  0  0  0  0
 38 33  2  0  0  0  0
 41 36  1  0  0  0  0
 42 37  1  0  0  0  0
M  END
>  <minimizedAffinity>
-5.14874983

$$$$

 OpenBabel03272504513D

 42 45  0  0  1  0  0  0  0  0999 V2000
   38.6530   26.7050   31.6270 N   0  0  0  0  0  0  0  0  0  0  0  0
   39.3710   27.4190   30.5750 C   0  0  0  0  0  0  0  0  0  0  0  0
   40.3130   26.5390   29.8180 C   0  0  0  0  0  0  0  0  0  0  0  0
   39.6620   25.1920   29.5840 C   0  0  0  0  0  0  0  0  0  0  0  0
   39.6130   24.5500   30.9560 C   0  0  0  0  0  0  0  0  0  0  0  0
   38.7820   25.3120   31.9200 C   0  0  2  0  0  0  0  0  0  0  0  0
   38.6970   27.8990   29.8430 H   0  0  0  0  0  0  0  0  0  0  0  0
   39.9820   28.2030   31.1010 H   0  0  0  0  0  0  0  0  0  0  0  0
   40.6420   27.0250   28.9040 H   0  0  0  0  0  0  0  0  0  0  0  0
   41.1770   26.3460   30.5160 H   0  0  0  0  0  0  0  0  0  0  0  0
   38.6780   25.2770   29.1080 H   0  0  0  0  0  0  0  0  0  0  0  0
   40.3270   24.5830   28.9610 H   0  0  0  0  0  0  0  0  0  0  0  0
   40.6630   24.3720   31.2680 H   0  0  0  0  0  0  0  0  0  0  0  0
   39.1730   23.5290   30.7590 H   0  0  0  0  0  0  0  0  0  0  0  0
   39.2730   25.2510   32.9210 H   0  0  0  0  0  0  0  0  0  0  0  0
   37.5110   24.6300   32.0720 N   0  0  2  0  0  0  0  0  0  0  0  0
   37.5790   23.5020   32.9340 C   0  0  0  0  0  3  0  0  0  0  0  0
   37.1290   23.7580   33.9420 H   0  0  0  0  0  0  0  0  0  0  0  0
   36.8770   22.2780   32.3630 C   0  0  0  0  0  3  0  0  0  0  0  0
   37.4770   21.8190   31.5590 H   0  0  0  0  0  0  0  0  0  0  0  0
   35.5460   22.5500   31.8940 N   0  0  0  0  0  0  0  0  0  0  0  0
   34.8200   22.3910   32.6450 H   0  0  0  0  0  0  0  0  0  0  0  0
   35.4320   23.8560   31.2730 C   0  0  0  0  0  2  0  0  0  0  0  0
   36.8260   24.3480   30.8550 C   0  0  0  0  0  2  0  0  0  0  0  0
   37.6450   27.3420   33.7860 C   0  0  0  0  0  0  0  0  0  0  0  0
   37.7630   27.5020   32.3990 C   0  0  0  0  0  0  0  0  0  0  0  0
   36.9850   28.4810   31.8080 C   0  0  0  0  0  0  0  0  0  0  0  0
   36.1590   29.2270   32.5860 N   0  0  0  0  0  0  0  0  0  0  0  0
   36.0670   29.0510   33.9120 C   0  0  0  0  0  0  0  0  0  0  0  0
   36.8190   28.0960   34.5160 N   0  0  0  0  0  0  0  0  0  0  0  0
   38.2330   26.5890   34.2970 H   0  0  0  0  0  0  0  0  0  0  0  0
   36.9810   28.6940   30.7510 H   0  0  0  0  0  0  0  0  0  0  0  0
   35.1810   29.8660   34.7090 C   0  0  0  0  0  0  0  0  0  0  0  0
   35.6510   30.8970   35.4550 C   0  0  0  0  0  0  0  0  0  0  0  0
   34.8770   31.7170   36.2340 C   0  0  0  0  0  0  0  0  0  0  0  0
   33.5300   31.4060   36.2050 C   0  0  0  0  0  0  0  0  0  0  0  0
   32.9740   30.3530   35.4580 C   0  0  0  0  0  0  0  0  0  0  0  0
   33.8620   29.6120   34.7210 N   0  0  0  0  0  0  0  0  0  0  0  0
   36.7330   31.0920   35.4330 H   0  0  0  0  0  0  0  0  0  0  0  0
   35.2290   32.5400   36.8320 H   0  0  0  0  0  0  0  0  0  0  0  0
   32.8300   31.9980   36.7920 H   0  0  0  0  0  0  0  0  0  0  0  0
   31.9150   30.1560   35.4730 H   0  0  0  0  0  0  0  0  0  0  0  0
  1  6  1  0  0  0  0
  1 26  1  0  0  0  0
  2  8  1  0  0  0  0
  2  1  1  0  0  0  0
  3 10  1  0  0  0  0
  3  2  1  0  0  0  0
  4  3  1  0  0  0  0
  4  5  1  0  0  0  0
  5 13  1  0  0  0  0
  5  6  1  0  0  0  0
  6 16  1  0  0  0  0
  6 15  1  1  0  0  0
  7  2  1  0  0  0  0
  9  3  1  0  0  0  0
 11  4  1  0  0  0  0
 12  4  1  0  0  0  0
 14  5  1  0  0  0  0
 16 24  1  6  0  0  0
 16 17  1  0  0  0  0
 17 18  1  0  0  0  0
 19 17  1  0  0  0  0
 20 19  1  0  0  0  0
 21 19  1  0  0  0  0
 21 22  1  0  0  0  0
 23 21  1  0  0  0  0
 24 23  1  0  0  0  0
 25 31  1  0  0  0  0
 25 30  1  0  0  0  0
 26 25  2  0  0  0  0
 27 26  1  0  0  0  0
 27 28  2  0  0  0  0
 28 29  1  0  0  0  0
 29 30  2  0  0  0  0
 29 33  1  0  0  0  0
 32 27  1  0  0  0  0
 33 38  2  0  0  0  0
 33 34  1  0  0  0  0
 34 35  2  0  0  0  0
 35 40  1  0  0  0  0
 36 35  1  0  0  0  0
 36 41  1  0  0  0  0
 37 42  1  0  0  0  0
 37 36  2  0  0  0  0
 38 37  1  0  0  0  0
 39 34  1  0  0  0  0
M  END
>  <minimizedAffinity>
-5.07597494

$$$$

 OpenBabel03272504513D

 42 45  0  0  1  0  0  0  0  0999 V2000
   37.4840   26.2340   31.6340 N   0  0  0  0  0  0  0  0  0  0  0  0
   36.8090   24.9390   31.6870 C   0  0  0  0  0  0  0  0  0  0  0  0
   37.4360   23.9230   30.7880 C   0  0  0  0  0  0  0  0  0  0  0  0
   38.9440   24.0550   30.8550 C   0  0  0  0  0  0  0  0  0  0  0  0
   39.2410   25.3680   30.1590 C   0  0  0  0  0  0  0  0  0  0  0  0
   38.6360   26.5350   30.8450 C   0  0  2  0  0  0  0  0  0  0  0  0
   36.7770   24.5120   32.7050 H   0  0  0  0  0  0  0  0  0  0  0  0
   35.7640   25.1250   31.3190 H   0  0  0  0  0  0  0  0  0  0  0  0
   37.0780   22.9260   31.0260 H   0  0  0  0  0  0  0  0  0  0  0  0
   37.1480   24.2250   29.7390 H   0  0  0  0  0  0  0  0  0  0  0  0
   39.3240   24.0110   31.8820 H   0  0  0  0  0  0  0  0  0  0  0  0
   39.3940   23.2570   30.2550 H   0  0  0  0  0  0  0  0  0  0  0  0
   38.9580   25.2410   29.0930 H   0  0  0  0  0  0  0  0  0  0  0  0
   40.3690   25.4290   30.1720 H   0  0  0  0  0  0  0  0  0  0  0  0
   38.2950   27.2560   30.0630 H   0  0  0  0  0  0  0  0  0  0  0  0
   39.6770   27.2280   31.5800 N   0  0  2  0  0  0  0  0  0  0  0  0
   40.5470   27.9810   30.7440 C   0  0  0  0  0  3  0  0  0  0  0  0
   40.2930   29.0830   30.8150 H   0  0  0  0  0  0  0  0  0  0  0  0
   42.0170   27.7780   31.0850 C   0  0  0  0  0  3  0  0  0  0  0  0
   42.3720   26.7960   30.7300 H   0  0  0  0  0  0  0  0  0  0  0  0
   42.3060   27.9330   32.4850 N   0  0  0  0  0  0  0  0  0  0  0  0
   42.5730   28.9250   32.7280 H   0  0  0  0  0  0  0  0  0  0  0  0
   41.2450   27.4170   33.3300 C   0  0  0  0  0  2  0  0  0  0  0  0
   40.3830   26.4310   32.5270 C   0  0  0  0  0  2  0  0  0  0  0  0
   36.2360   28.3440   31.8990 C   0  0  0  0  0  0  0  0  0  0  0  0
   36.9100   27.2470   32.4510 C   0  0  0  0  0  0  0  0  0  0  0  0
   36.9860   27.1800   33.8300 C   0  0  0  0  0  0  0  0  0  0  0  0
   36.4120   28.1650   34.5700 N   0  0  0  0  0  0  0  0  0  0  0  0
   35.7730   29.2040   34.0140 C   0  0  0  0  0  0  0  0  0  0  0  0
   35.6860   29.2920   32.6630 N   0  0  0  0  0  0  0  0  0  0  0  0
   36.1490   28.4420   30.8230 H   0  0  0  0  0  0  0  0  0  0  0  0
   37.4830   26.3930   34.3710 H   0  0  0  0  0  0  0  0  0  0  0  0
   35.1710   30.2290   34.8330 C   0  0  0  0  0  0  0  0  0  0  0  0
   35.9300   31.0670   35.5840 C   0  0  0  0  0  0  0  0  0  0  0  0
   35.4370   32.0640   36.3840 C   0  0  0  0  0  0  0  0  0  0  0  0
   34.0580   32.1610   36.3700 C   0  0  0  0  0  0  0  0  0  0  0  0
   33.2110   31.3280   35.6180 C   0  0  0  0  0  0  0  0  0  0  0  0
   33.8360   30.3720   34.8600 N   0  0  0  0  0  0  0  0  0  0  0  0
   37.0210   30.9380   35.5500 H   0  0  0  0  0  0  0  0  0  0  0  0
   36.0200   32.7390   36.9870 H   0  0  0  0  0  0  0  0  0  0  0  0
   33.5660   32.9230   36.9740 H   0  0  0  0  0  0  0  0  0  0  0  0
   32.1410   31.4480   35.6460 H   0  0  0  0  0  0  0  0  0  0  0  0
  1  2  1  0  0  0  0
  1 26  1  0  0  0  0
  2  7  1  0  0  0  0
  3  4  1  0  0  0  0
  3  9  1  0  0  0  0
  3  2  1  0  0  0  0
  4 11  1  0  0  0  0
  5 14  1  0  0  0  0
  5  6  1  0  0  0  0
  5  4  1  0  0  0  0
  6 15  1  6  0  0  0
  6 16  1  0  0  0  0
  6  1  1  0  0  0  0
  8  2  1  0  0  0  0
 10  3  1  0  0  0  0
 12  4  1  0  0  0  0
 13  5  1  0  0  0  0
 16 24  1  6  0  0  0
 17 18  1  0  0  0  0
 17 19  1  0  0  0  0
 17 16  1  0  0  0  0
 19 21  1  0  0  0  0
 20 19  1  0  0  0  0
 21 22  1  0  0  0  0
 21 23  1  0  0  0  0
 24 23  1  0  0  0  0
 25 26  2  0  0  0  0
 25 30  1  0  0  0  0
 26 27  1  0  0  0  0
 27 32  1  0  0  0  0
 27 28  2  0  0  0  0
 29 28  1  0  0  0  0
 29 33  1  0  0  0  0
 30 29  2  0  0  0  0
 31 25  1  0  0  0  0
 33 38  2  0  0  0  0
 33 34  1  0  0  0  0
 34 35  2  0  0  0  0
 35 40  1  0  0  0  0
 36 35  1  0  0  0  0
 36 41  1  0  0  0  0
 37 42  1  0  0  0  0
 37 36  2  0  0  0  0
 38 37  1  0  0  0  0
 39 34  1  0  0  0  0
M  END
>  <minimizedAffinity>
-5.07446718

$$$$

 OpenBabel03272504513D

 42 45  0  0  1  0  0  0  0  0999 V2000
   36.8400   22.7080   31.5350 N   0  0  0  0  0  0  0  0  0  0  0  0
   35.6800   21.9850   31.0200 C   0  0  0  0  0  0  0  0  0  0  0  0
   35.7620   20.5120   31.2610 C   0  0  0  0  0  0  0  0  0  0  0  0
   36.3250   20.2610   32.6450 C   0  0  0  0  0  0  0  0  0  0  0  0
   37.7780   20.6790   32.5450 C   0  0  0  0  0  0  0  0  0  0  0  0
   37.9440   22.1170   32.2240 C   0  0  2  0  0  0  0  0  0  0  0  0
   34.7260   22.3430   31.4470 H   0  0  0  0  0  0  0  0  0  0  0  0
   35.6860   22.1520   29.9080 H   0  0  0  0  0  0  0  0  0  0  0  0
   34.7970   20.0420   31.0940 H   0  0  0  0  0  0  0  0  0  0  0  0
   36.5390   20.1280   30.5380 H   0  0  0  0  0  0  0  0  0  0  0  0
   35.7720   20.7930   33.4260 H   0  0  0  0  0  0  0  0  0  0  0  0
   36.3070   19.1830   32.8410 H   0  0  0  0  0  0  0  0  0  0  0  0
   38.2710   19.9740   31.8430 H   0  0  0  0  0  0  0  0  0  0  0  0
   38.1970   20.4390   33.5650 H   0  0  0  0  0  0  0  0  0  0  0  0
   38.8230   22.2190   31.5430 H   0  0  0  0  0  0  0  0  0  0  0  0
   38.3130   22.8200   33.4380 N   0  0  2  0  0  0  0  0  0  0  0  0
   39.7070   23.0820   33.5330 C   0  0  0  0  0  3  0  0  0  0  0  0
   39.9130   24.1700   33.2950 H   0  0  0  0  0  0  0  0  0  0  0  0
   40.2790   22.7470   34.9050 C   0  0  0  0  0  3  0  0  0  0  0  0
   40.3790   21.6560   35.0340 H   0  0  0  0  0  0  0  0  0  0  0  0
   39.5240   23.3080   35.9910 N   0  0  0  0  0  0  0  0  0  0  0  0
   39.8840   24.2610   36.2740 H   0  0  0  0  0  0  0  0  0  0  0  0
   38.0960   23.3030   35.7360 C   0  0  0  0  0  2  0  0  0  0  0  0
   37.7750   22.2750   34.6400 C   0  0  0  0  0  2  0  0  0  0  0  0
   35.7070   24.8970   31.6060 C   0  0  0  0  0  0  0  0  0  0  0  0
   36.8280   24.1110   31.3070 C   0  0  0  0  0  0  0  0  0  0  0  0
   37.9340   24.7600   30.7880 C   0  0  0  0  0  0  0  0  0  0  0  0
   37.8800   26.1050   30.5990 N   0  0  0  0  0  0  0  0  0  0  0  0
   36.7930   26.8310   30.8960 C   0  0  0  0  0  0  0  0  0  0  0  0
   35.6960   26.2170   31.4040 N   0  0  0  0  0  0  0  0  0  0  0  0
   34.8150   24.4350   32.0150 H   0  0  0  0  0  0  0  0  0  0  0  0
   38.8500   24.2660   30.5110 H   0  0  0  0  0  0  0  0  0  0  0  0
   36.7750   28.2590   30.6850 C   0  0  0  0  0  0  0  0  0  0  0  0
   36.3140   29.1060   31.6400 C   0  0  0  0  0  0  0  0  0  0  0  0
   36.2660   30.4700   31.5180 C   0  0  0  0  0  0  0  0  0  0  0  0
   36.7370   30.9400   30.3070 C   0  0  0  0  0  0  0  0  0  0  0  0
   37.2270   30.1220   29.2740 C   0  0  0  0  0  0  0  0  0  0  0  0
   37.2210   28.7750   29.5280 N   0  0  0  0  0  0  0  0  0  0  0  0
   35.9540   28.6680   32.5810 H   0  0  0  0  0  0  0  0  0  0  0  0
   35.9050   31.1600   32.2620 H   0  0  0  0  0  0  0  0  0  0  0  0
   36.7410   32.0120   30.1110 H   0  0  0  0  0  0  0  0  0  0  0  0
   37.5830   30.5430   28.3480 H   0  0  0  0  0  0  0  0  0  0  0  0
  1  6  1  0  0  0  0
  2  3  1  0  0  0  0
  2  7  1  0  0  0  0
  2  1  1  0  0  0  0
  3  4  1  0  0  0  0
  4 12  1  0  0  0  0
  4 11  1  0  0  0  0
  5  4  1  0  0  0  0
  5 14  1  0  0  0  0
  6 15  1  6  0  0  0
  6  5  1  0  0  0  0
  6 16  1  0  0  0  0
  8  2  1  0  0  0  0
  9  3  1  0  0  0  0
 10  3  1  0  0  0  0
 13  5  1  0  0  0  0
 16 17  1  0  0  0  0
 16 24  1  1  0  0  0
 17 19  1  0  0  0  0
 18 17  1  0  0  0  0
 19 20  1  0  0  0  0
 19 21  1  0  0  0  0
 21 22  1  0  0  0  0
 23 21  1  0  0  0  0
 24 23  1  0  0  0  0
 25 31  1  0  0  0  0
 26  1  1  0  0  0  0
 26 25  2  0  0  0  0
 27 26  1  0  0  0  0
 28 27  2  0  0  0  0
 28 29  1  0  0  0  0
 29 30  2  0  0  0  0
 30 25  1  0  0  0  0
 32 27  1  0  0  0  0
 33 29  1  0  0  0  0
 33 34  1  0  0  0  0
 34 39  1  0  0  0  0
 35 34  2  0  0  0  0
 35 40  1  0  0  0  0
 36 35  1  0  0  0  0
 37 38  1  0  0  0  0
 37 36  2  0  0  0  0
 38 33  2  0  0  0  0
 41 36  1  0  0  0  0
 42 37  1  0  0  0  0
M  END
>  <minimizedAffinity>
-5.02124786

$$$$
