
 OpenBabel03272504493D

 42 45  0  0  1  0  0  0  0  0999 V2000
   37.2430   31.0680   48.3200 N   0  0  0  0  0  0  0  0  0  0  0  0
   37.1830   31.9740   49.4630 C   0  0  0  0  0  0  0  0  0  0  0  0
   38.4090   32.8180   49.5990 C   0  0  0  0  0  0  0  0  0  0  0  0
   38.8580   33.2740   48.2250 C   0  0  0  0  0  0  0  0  0  0  0  0
   39.3720   32.0150   47.5560 C   0  0  0  0  0  0  0  0  0  0  0  0
   38.3230   30.9810   47.3880 C   0  0  2  0  0  0  0  0  0  0  0  0
   36.3110   32.6520   49.4310 H   0  0  0  0  0  0  0  0  0  0  0  0
   37.1180   31.3150   50.3720 H   0  0  0  0  0  0  0  0  0  0  0  0
   38.2390   33.6360   50.2920 H   0  0  0  0  0  0  0  0  0  0  0  0
   39.2170   32.1230   49.9710 H   0  0  0  0  0  0  0  0  0  0  0  0
   38.0570   33.7690   47.6650 H   0  0  0  0  0  0  0  0  0  0  0  0
   39.7090   33.9540   48.3410 H   0  0  0  0  0  0  0  0  0  0  0  0
   40.2730   31.6940   48.1200 H   0  0  0  0  0  0  0  0  0  0  0  0
   39.7490   32.3780   46.5550 H   0  0  0  0  0  0  0  0  0  0  0  0
   38.7940   29.9820   47.5540 H   0  0  0  0  0  0  0  0  0  0  0  0
   37.8950   30.9800   46.0020 N   0  0  2  0  0  0  0  0  0  0  0  0
   38.5290   29.9760   45.2200 C   0  0  0  0  0  0  0  0  0  0  0  0
   37.8140   29.1150   45.0440 H   0  0  0  0  0  0  0  0  0  0  0  0
   39.0310   30.4980   43.8810 C   0  0  0  0  0  0  0  0  0  0  0  0
   39.9430   31.1050   44.0120 H   0  0  0  0  0  0  0  0  0  0  0  0
   38.0420   31.2420   43.1500 N   0  0  0  0  0  0  0  0  0  0  0  0
   37.4860   30.6260   42.4960 H   0  0  0  0  0  0  0  0  0  0  0  0
   37.1980   32.0440   44.0170 C   0  0  0  0  0  0  0  0  0  0  0  0
   37.9030   32.2540   45.3660 C   0  0  0  0  0  0  0  0  0  0  0  0
   35.1520   30.4510   47.1670 C   0  0  0  0  0  0  0  0  0  0  0  0
   36.1120   30.2200   48.1610 C   0  0  0  0  0  0  0  0  0  0  0  0
   35.9230   29.1220   48.9790 C   0  0  0  0  0  0  0  0  0  0  0  0
   34.8340   28.3330   48.7830 N   0  0  0  0  0  0  0  0  0  0  0  0
   33.9320   28.5780   47.8230 C   0  0  0  0  0  0  0  0  0  0  0  0
   34.0950   29.6510   47.0080 N   0  0  0  0  0  0  0  0  0  0  0  0
   35.2550   31.2990   46.5000 H   0  0  0  0  0  0  0  0  0  0  0  0
   36.5850   28.8450   49.7830 H   0  0  0  0  0  0  0  0  0  0  0  0
   32.7890   27.7150   47.6400 C   0  0  0  0  0  0  0  0  0  0  0  0
   31.5800   28.2130   47.2760 C   0  0  0  0  0  0  0  0  0  0  0  0
   30.4500   27.4620   47.0810 C   0  0  0  0  0  0  0  0  0  0  0  0
   30.6370   26.1080   47.2900 C   0  0  0  0  0  0  0  0  0  0  0  0
   31.8580   25.5240   47.6680 C   0  0  0  0  0  0  0  0  0  0  0  0
   32.9090   26.3900   47.8290 N   0  0  0  0  0  0  0  0  0  0  0  0
   31.4990   29.2990   47.1260 H   0  0  0  0  0  0  0  0  0  0  0  0
   29.4840   27.8360   46.7930 H   0  0  0  0  0  0  0  0  0  0  0  0
   29.7990   25.4240   47.1610 H   0  0  0  0  0  0  0  0  0  0  0  0
   31.9470   24.4610   47.8180 H   0  0  0  0  0  0  0  0  0  0  0  0
  1  2  1  0  0  0  0
  2  3  1  0  0  0  0
  2  8  1  0  0  0  0
  3 10  1  0  0  0  0
  3  9  1  0  0  0  0
  4 12  1  0  0  0  0
  4  3  1  0  0  0  0
  5 13  1  0  0  0  0
  5  4  1  0  0  0  0
  6 15  1  1  0  0  0
  6  5  1  0  0  0  0
  6  1  1  0  0  0  0
  7  2  1  0  0  0  0
 11  4  1  0  0  0  0
 14  5  1  0  0  0  0
 16 24  1  6  0  0  0
 16  6  1  0  0  0  0
 17 16  1  0  0  0  0
 18 17  1  0  0  0  0
 19 20  1  0  0  0  0
 19 17  1  0  0  0  0
 21 19  1  0  0  0  0
 21 23  1  0  0  0  0
 22 21  1  0  0  0  0
 23 24  1  0  0  0  0
 25 26  1  0  0  0  0
 26  1  1  0  0  0  0
 26 27  2  0  0  0  0
 27 32  1  0  0  0  0
 28 27  1  0  0  0  0
 29 28  2  0  0  0  0
 30 25  2  0  0  0  0
 30 29  1  0  0  0  0
 31 25  1  0  0  0  0
 33 29  1  0  0  0  0
 33 38  1  0  0  0  0
 34 33  2  0  0  0  0
 35 34  1  0  0  0  0
 35 36  2  0  0  0  0
 36 37  1  0  0  0  0
 37 42  1  0  0  0  0
 37 38  2  0  0  0  0
 39 34  1  0  0  0  0
 40 35  1  0  0  0  0
 41 36  1  0  0  0  0
M  END
>  <minimizedAffinity>
-5.41559553

>  <minimizedRMSD>
2.10144711

$$$$
