
 OpenBabel03272509513D

 33 35  0  0  0  0  0  0  0  0999 V2000
   40.0890   26.7870   33.7020 C   0  0  0  0  0  0  0  0  0  0  0  0
   40.1290   25.8430   34.7470 C   0  0  0  0  0  0  0  0  0  0  0  0
   38.9490   25.2350   35.1540 C   0  0  0  0  0  0  0  0  0  0  0  0
   37.8190   25.6170   34.4890 N   0  0  0  0  0  0  0  0  0  0  0  0
   37.7880   26.5100   33.5010 C   0  0  0  0  0  0  0  0  0  0  0  0
   38.9330   27.1010   33.1020 N   0  0  0  0  0  0  0  0  0  0  0  0
   41.0410   27.2440   33.4090 H   0  0  0  0  0  0  0  0  0  0  0  0
   41.0580   25.5950   35.2230 H   0  0  0  0  0  0  0  0  0  0  0  0
   38.9050   24.2750   36.2000 N   0  0  0  0  0  0  0  0  0  0  0  0
   37.7050   24.1610   37.0140 C   0  0  0  0  0  3  0  0  0  0  0  0
   37.1500   23.2220   36.7250 H   0  0  0  0  0  0  0  0  0  0  0  0
   38.2050   23.9510   38.4450 C   0  0  0  0  0  3  0  0  0  0  0  0
   38.9840   24.7240   38.6120 H   0  0  0  0  0  0  0  0  0  0  0  0
   38.8570   22.6560   38.4240 N   0  0  0  0  0  0  0  0  0  0  0  0
   38.1650   21.9590   38.0730 H   0  0  0  0  0  0  0  0  0  0  0  0
   40.0860   22.6840   37.6800 C   0  0  0  0  0  3  0  0  0  0  0  0
   40.0560   23.4540   36.4080 C   0  0  0  0  0  3  0  0  0  0  0  0
   36.5390   26.7270   32.9880 O   0  0  0  0  0  0  0  0  0  0  0  0
   36.3780   26.7530   31.5780 C   0  0  0  0  0  0  0  0  0  0  0  0
   37.3820   26.6610   31.1260 H   0  0  0  0  0  0  0  0  0  0  0  0
   35.9830   27.7560   31.2580 H   0  0  0  0  0  0  0  0  0  0  0  0
   35.5180   25.6260   31.1120 C   0  0  0  0  0  0  0  0  0  0  0  0
   35.0410   25.8500   30.1290 H   0  0  0  0  0  0  0  0  0  0  0  0
   34.6760   25.4240   31.8210 H   0  0  0  0  0  0  0  0  0  0  0  0
   36.2710   24.3380   31.0150 C   0  0  0  0  0  0  0  0  0  0  0  0
   35.5830   23.1910   31.3820 C   0  0  0  0  0  0  0  0  0  0  0  0
   36.1720   21.9440   31.3350 C   0  0  0  0  0  0  0  0  0  0  0  0
   37.4300   21.8380   30.9290 N   0  0  0  0  0  0  0  0  0  0  0  0
   38.0990   22.9690   30.5720 C   0  0  0  0  0  0  0  0  0  0  0  0
   37.5440   24.1820   30.6110 N   0  0  0  0  0  0  0  0  0  0  0  0
   34.5480   23.2590   31.7170 H   0  0  0  0  0  0  0  0  0  0  0  0
   35.6100   21.0460   31.6280 H   0  0  0  0  0  0  0  0  0  0  0  0
   39.1390   22.8790   30.2370 H   0  0  0  0  0  0  0  0  0  0  0  0
  1  2  1  0  0  0  0
  2  3  2  0  0  0  0
  2  8  1  0  0  0  0
  3  9  1  0  0  0  0
  4  3  1  0  0  0  0
  5  4  2  0  0  0  0
  6  5  1  0  0  0  0
  6  1  2  0  0  0  0
  7  1  1  0  0  0  0
  9 17  1  0  0  0  0
  9 10  1  0  0  0  0
 10 12  1  0  0  0  0
 11 10  1  0  0  0  0
 12 13  1  0  0  0  0
 14 12  1  0  0  0  0
 15 14  1  0  0  0  0
 16 14  1  0  0  0  0
 17 16  2  0  0  0  0
 18  5  1  0  0  0  0
 19 18  1  0  0  0  0
 20 19  1  0  0  0  0
 21 19  1  0  0  0  0
 22 19  1  0  0  0  0
 22 24  1  0  0  0  0
 23 22  1  0  0  0  0
 25 22  1  0  0  0  0
 25 26  1  0  0  0  0
 26 31  1  0  0  0  0
 27 26  2  0  0  0  0
 27 32  1  0  0  0  0
 28 27  1  0  0  0  0
 29 30  1  0  0  0  0
 29 28  2  0  0  0  0
 30 25  2  0  0  0  0
 33 29  1  0  0  0  0
M  END
>  <minimizedAffinity>
-5.50026131

$$$$

 OpenBabel03272509513D

 33 35  0  0  0  0  0  0  0  0999 V2000
   40.3690   26.7900   33.7600 C   0  0  0  0  0  0  0  0  0  0  0  0
   40.3420   25.8310   34.7920 C   0  0  0  0  0  0  0  0  0  0  0  0
   39.1240   25.2790   35.1680 C   0  0  0  0  0  0  0  0  0  0  0  0
   38.0290   25.7270   34.4880 N   0  0  0  0  0  0  0  0  0  0  0  0
   38.0620   26.6340   33.5120 C   0  0  0  0  0  0  0  0  0  0  0  0
   39.2420   27.1700   33.1440 N   0  0  0  0  0  0  0  0  0  0  0  0
   41.3490   27.2010   33.4910 H   0  0  0  0  0  0  0  0  0  0  0  0
   41.2480   25.5290   35.2810 H   0  0  0  0  0  0  0  0  0  0  0  0
   39.0120   24.3070   36.1990 N   0  0  0  0  0  0  0  0  0  0  0  0
   37.7920   24.2440   36.9890 C   0  0  0  0  0  3  0  0  0  0  0  0
   37.1960   23.3390   36.6770 H   0  0  0  0  0  0  0  0  0  0  0  0
   38.2540   23.9900   38.4260 C   0  0  0  0  0  3  0  0  0  0  0  0
   39.0680   24.7190   38.6180 H   0  0  0  0  0  0  0  0  0  0  0  0
   38.8390   22.6630   38.3980 N   0  0  0  0  0  0  0  0  0  0  0  0
   38.1190   22.0070   38.0250 H   0  0  0  0  0  0  0  0  0  0  0  0
   40.0820   22.6380   37.6770 C   0  0  0  0  0  3  0  0  0  0  0  0
   40.1160   23.4260   36.4170 C   0  0  0  0  0  3  0  0  0  0  0  0
   36.8360   26.9210   32.9800 O   0  0  0  0  0  0  0  0  0  0  0  0
   36.2810   28.2090   33.2040 C   0  0  0  0  0  0  0  0  0  0  0  0
   37.1210   28.9200   33.2980 H   0  0  0  0  0  0  0  0  0  0  0  0
   35.7460   28.2260   34.1930 H   0  0  0  0  0  0  0  0  0  0  0  0
   35.4030   28.6220   32.0710 C   0  0  0  0  0  0  0  0  0  0  0  0
   34.6920   29.4270   32.3730 H   0  0  0  0  0  0  0  0  0  0  0  0
   34.7690   27.7760   31.7060 H   0  0  0  0  0  0  0  0  0  0  0  0
   36.1860   29.0730   30.8790 C   0  0  0  0  0  0  0  0  0  0  0  0
   36.2610   30.4420   30.6710 C   0  0  0  0  0  0  0  0  0  0  0  0
   36.9550   30.9780   29.6060 C   0  0  0  0  0  0  0  0  0  0  0  0
   37.5650   30.1630   28.7560 N   0  0  0  0  0  0  0  0  0  0  0  0
   37.4860   28.8200   28.9670 C   0  0  0  0  0  0  0  0  0  0  0  0
   36.8190   28.2860   29.9920 N   0  0  0  0  0  0  0  0  0  0  0  0
   35.7660   31.1270   31.3600 H   0  0  0  0  0  0  0  0  0  0  0  0
   37.0040   32.0660   29.4580 H   0  0  0  0  0  0  0  0  0  0  0  0
   37.9910   28.1480   28.2630 H   0  0  0  0  0  0  0  0  0  0  0  0
  1  2  1  0  0  0  0
  2  3  2  0  0  0  0
  2  8  1  0  0  0  0
  3  9  1  0  0  0  0
  4  3  1  0  0  0  0
  5  4  2  0  0  0  0
  6  5  1  0  0  0  0
  6  1  2  0  0  0  0
  7  1  1  0  0  0  0
  9 17  1  0  0  0  0
  9 10  1  0  0  0  0
 10 12  1  0  0  0  0
 11 10  1  0  0  0  0
 12 13  1  0  0  0  0
 14 12  1  0  0  0  0
 15 14  1  0  0  0  0
 16 14  1  0  0  0  0
 17 16  2  0  0  0  0
 18 19  1  0  0  0  0
 18  5  1  0  0  0  0
 19 20  1  0  0  0  0
 19 21  1  0  0  0  0
 22 23  1  0  0  0  0
 22 19  1  0  0  0  0
 24 22  1  0  0  0  0
 25 22  1  0  0  0  0
 26 25  1  0  0  0  0
 26 31  1  0  0  0  0
 27 26  2  0  0  0  0
 28 29  2  0  0  0  0
 28 27  1  0  0  0  0
 29 30  1  0  0  0  0
 30 25  2  0  0  0  0
 32 27  1  0  0  0  0
 33 29  1  0  0  0  0
M  END
>  <minimizedAffinity>
-5.24986458

$$$$

 OpenBabel03272509513D

 33 35  0  0  0  0  0  0  0  0999 V2000
   40.2180   26.7680   33.7380 C   0  0  0  0  0  0  0  0  0  0  0  0
   40.2310   25.8180   34.7790 C   0  0  0  0  0  0  0  0  0  0  0  0
   39.0360   25.2310   35.1730 C   0  0  0  0  0  0  0  0  0  0  0  0
   37.9200   25.6380   34.4990 N   0  0  0  0  0  0  0  0  0  0  0  0
   37.9140   26.5360   33.5150 C   0  0  0  0  0  0  0  0  0  0  0  0
   39.0740   27.1060   33.1300 N   0  0  0  0  0  0  0  0  0  0  0  0
   41.1810   27.2080   33.4560 H   0  0  0  0  0  0  0  0  0  0  0  0
   41.1510   25.5510   35.2620 H   0  0  0  0  0  0  0  0  0  0  0  0
   38.9650   24.2670   36.2140 N   0  0  0  0  0  0  0  0  0  0  0  0
   37.7550   24.1720   37.0160 C   0  0  0  0  0  3  0  0  0  0  0  0
   37.1850   23.2450   36.7180 H   0  0  0  0  0  0  0  0  0  0  0  0
   38.2380   23.9460   38.4510 C   0  0  0  0  0  3  0  0  0  0  0  0
   39.0300   24.7030   38.6280 H   0  0  0  0  0  0  0  0  0  0  0  0
   38.8650   22.6380   38.4290 N   0  0  0  0  0  0  0  0  0  0  0  0
   38.1630   21.9570   38.0680 H   0  0  0  0  0  0  0  0  0  0  0  0
   40.1010   22.6470   37.6960 C   0  0  0  0  0  3  0  0  0  0  0  0
   40.0980   23.4240   36.4280 C   0  0  0  0  0  3  0  0  0  0  0  0
   36.6750   26.7790   32.9920 O   0  0  0  0  0  0  0  0  0  0  0  0
   36.3090   28.1190   32.7010 C   0  0  0  0  0  0  0  0  0  0  0  0
   35.4650   28.0870   31.9900 H   0  0  0  0  0  0  0  0  0  0  0  0
   37.1510   28.6350   32.1630 H   0  0  0  0  0  0  0  0  0  0  0  0
   35.8920   28.8450   33.9360 C   0  0  0  0  0  0  0  0  0  0  0  0
   36.6130   29.6520   34.2050 H   0  0  0  0  0  0  0  0  0  0  0  0
   35.8500   28.1650   34.8240 H   0  0  0  0  0  0  0  0  0  0  0  0
   34.5190   29.4260   33.8180 C   0  0  0  0  0  0  0  0  0  0  0  0
   34.0930   30.2250   34.8700 C   0  0  0  0  0  0  0  0  0  0  0  0
   32.8470   30.8160   34.8740 C   0  0  0  0  0  0  0  0  0  0  0  0
   32.0330   30.6160   33.8480 N   0  0  0  0  0  0  0  0  0  0  0  0
   32.4570   29.8300   32.8190 C   0  0  0  0  0  0  0  0  0  0  0  0
   33.6590   29.2510   32.7990 N   0  0  0  0  0  0  0  0  0  0  0  0
   34.7500   30.4000   35.7220 H   0  0  0  0  0  0  0  0  0  0  0  0
   32.5280   31.4460   35.7170 H   0  0  0  0  0  0  0  0  0  0  0  0
   31.7820   29.6660   31.9720 H   0  0  0  0  0  0  0  0  0  0  0  0
  1  2  1  0  0  0  0
  2  3  2  0  0  0  0
  2  8  1  0  0  0  0
  3  9  1  0  0  0  0
  4  3  1  0  0  0  0
  5  4  2  0  0  0  0
  6  5  1  0  0  0  0
  6  1  2  0  0  0  0
  7  1  1  0  0  0  0
  9 17  1  0  0  0  0
  9 10  1  0  0  0  0
 10 12  1  0  0  0  0
 11 10  1  0  0  0  0
 12 13  1  0  0  0  0
 14 12  1  0  0  0  0
 15 14  1  0  0  0  0
 16 14  1  0  0  0  0
 17 16  2  0  0  0  0
 18  5  1  0  0  0  0
 19 18  1  0  0  0  0
 19 22  1  0  0  0  0
 20 19  1  0  0  0  0
 21 19  1  0  0  0  0
 22 23  1  0  0  0  0
 22 24  1  0  0  0  0
 25 22  1  0  0  0  0
 25 26  1  0  0  0  0
 26 27  2  0  0  0  0
 26 31  1  0  0  0  0
 27 32  1  0  0  0  0
 28 27  1  0  0  0  0
 29 28  2  0  0  0  0
 30 29  1  0  0  0  0
 30 25  2  0  0  0  0
 33 29  1  0  0  0  0
M  END
>  <minimizedAffinity>
-5.2153616

$$$$

 OpenBabel03272509513D

 33 35  0  0  0  0  0  0  0  0999 V2000
   40.1580   25.9510   33.2040 C   0  0  0  0  0  0  0  0  0  0  0  0
   40.1910   25.2100   34.4030 C   0  0  0  0  0  0  0  0  0  0  0  0
   39.0210   24.6260   34.8670 C   0  0  0  0  0  0  0  0  0  0  0  0
   37.9080   24.8260   34.1020 N   0  0  0  0  0  0  0  0  0  0  0  0
   37.8840   25.5270   32.9690 C   0  0  0  0  0  0  0  0  0  0  0  0
   39.0190   26.0950   32.5150 N   0  0  0  0  0  0  0  0  0  0  0  0
   41.1030   26.3970   32.8700 H   0  0  0  0  0  0  0  0  0  0  0  0
   41.1070   25.0980   34.9500 H   0  0  0  0  0  0  0  0  0  0  0  0
   38.9700   23.8650   36.0660 N   0  0  0  0  0  0  0  0  0  0  0  0
   37.7390   23.8360   36.8400 C   0  0  0  0  0  3  0  0  0  0  0  0
   37.2400   22.8340   36.7040 H   0  0  0  0  0  0  0  0  0  0  0  0
   38.1820   23.9090   38.3040 C   0  0  0  0  0  3  0  0  0  0  0  0
   38.9180   24.7370   38.3590 H   0  0  0  0  0  0  0  0  0  0  0  0
   38.8890   22.6650   38.5400 N   0  0  0  0  0  0  0  0  0  0  0  0
   38.2440   21.8830   38.2940 H   0  0  0  0  0  0  0  0  0  0  0  0
   40.1490   22.6230   37.8500 C   0  0  0  0  0  3  0  0  0  0  0  0
   40.1450   23.1530   36.4610 C   0  0  0  0  0  3  0  0  0  0  0  0
   36.6520   25.5860   32.3790 O   0  0  0  0  0  0  0  0  0  0  0  0
   36.4210   24.8190   31.2070 C   0  0  0  0  0  0  0  0  0  0  0  0
   37.3890   24.3840   30.8980 H   0  0  0  0  0  0  0  0  0  0  0  0
   36.1020   25.4940   30.3670 H   0  0  0  0  0  0  0  0  0  0  0  0
   35.4420   23.7230   31.4630 C   0  0  0  0  0  0  0  0  0  0  0  0
   34.5220   23.8390   30.8430 H   0  0  0  0  0  0  0  0  0  0  0  0
   35.0940   23.7160   32.5270 H   0  0  0  0  0  0  0  0  0  0  0  0
   36.0300   22.3680   31.2300 C   0  0  0  0  0  0  0  0  0  0  0  0
   37.3940   22.3200   30.9810 C   0  0  0  0  0  0  0  0  0  0  0  0
   38.0490   21.1280   30.7520 C   0  0  0  0  0  0  0  0  0  0  0  0
   37.3580   19.9970   30.7680 N   0  0  0  0  0  0  0  0  0  0  0  0
   36.0190   20.0520   31.0130 C   0  0  0  0  0  0  0  0  0  0  0  0
   35.3700   21.1960   31.2370 N   0  0  0  0  0  0  0  0  0  0  0  0
   37.9780   23.2410   30.9640 H   0  0  0  0  0  0  0  0  0  0  0  0
   39.1300   21.1110   30.5570 H   0  0  0  0  0  0  0  0  0  0  0  0
   35.4500   19.1150   31.0250 H   0  0  0  0  0  0  0  0  0  0  0  0
  1  2  1  0  0  0  0
  2  3  2  0  0  0  0
  2  8  1  0  0  0  0
  3  9  1  0  0  0  0
  4  3  1  0  0  0  0
  5  4  2  0  0  0  0
  6  5  1  0  0  0  0
  6  1  2  0  0  0  0
  7  1  1  0  0  0  0
  9 17  1  0  0  0  0
  9 10  1  0  0  0  0
 10 12  1  0  0  0  0
 11 10  1  0  0  0  0
 12 13  1  0  0  0  0
 12 14  1  0  0  0  0
 15 14  1  0  0  0  0
 16 14  1  0  0  0  0
 17 16  2  0  0  0  0
 18  5  1  0  0  0  0
 19 22  1  0  0  0  0
 19 18  1  0  0  0  0
 20 19  1  0  0  0  0
 21 19  1  0  0  0  0
 22 24  1  0  0  0  0
 23 22  1  0  0  0  0
 25 30  1  0  0  0  0
 25 22  1  0  0  0  0
 26 25  2  0  0  0  0
 27 28  2  0  0  0  0
 27 26  1  0  0  0  0
 28 29  1  0  0  0  0
 29 33  1  0  0  0  0
 29 30  2  0  0  0  0
 31 26  1  0  0  0  0
 32 27  1  0  0  0  0
M  END
>  <minimizedAffinity>
-5.16798496

$$$$

 OpenBabel03272509513D

 33 35  0  0  0  0  0  0  0  0999 V2000
   35.1910   25.8560   30.8930 C   0  0  0  0  0  0  0  0  0  0  0  0
   35.3900   24.4690   31.0410 C   0  0  0  0  0  0  0  0  0  0  0  0
   36.3360   24.0160   31.9520 C   0  0  0  0  0  0  0  0  0  0  0  0
   37.0100   24.9810   32.6440 N   0  0  0  0  0  0  0  0  0  0  0  0
   36.8160   26.2910   32.5000 C   0  0  0  0  0  0  0  0  0  0  0  0
   35.8980   26.7340   31.6170 N   0  0  0  0  0  0  0  0  0  0  0  0
   34.4360   26.1740   30.1650 H   0  0  0  0  0  0  0  0  0  0  0  0
   34.8200   23.7710   30.4590 H   0  0  0  0  0  0  0  0  0  0  0  0
   36.5960   22.6350   32.1590 N   0  0  0  0  0  0  0  0  0  0  0  0
   37.9290   22.2140   32.5620 C   0  0  0  0  0  3  0  0  0  0  0  0
   37.9110   21.9220   33.6510 H   0  0  0  0  0  0  0  0  0  0  0  0
   38.2050   20.9330   31.7700 C   0  0  0  0  0  3  0  0  0  0  0  0
   37.9280   21.1590   30.7190 H   0  0  0  0  0  0  0  0  0  0  0  0
   37.2550   19.9660   32.2860 N   0  0  0  0  0  0  0  0  0  0  0  0
   37.3930   19.9070   33.3180 H   0  0  0  0  0  0  0  0  0  0  0  0
   35.9070   20.2750   31.8930 C   0  0  0  0  0  3  0  0  0  0  0  0
   35.5250   21.7110   31.9600 C   0  0  0  0  0  3  0  0  0  0  0  0
   37.6090   27.0610   33.3040 O   0  0  0  0  0  0  0  0  0  0  0  0
   37.1680   27.3450   34.6230 C   0  0  0  0  0  0  0  0  0  0  0  0
   36.3300   26.6620   34.8480 H   0  0  0  0  0  0  0  0  0  0  0  0
   36.7430   28.3850   34.6670 H   0  0  0  0  0  0  0  0  0  0  0  0
   38.2620   27.1340   35.6150 C   0  0  0  0  0  0  0  0  0  0  0  0
   38.0040   27.5620   36.6120 H   0  0  0  0  0  0  0  0  0  0  0  0
   39.2110   27.6390   35.3020 H   0  0  0  0  0  0  0  0  0  0  0  0
   38.6170   25.6890   35.7720 C   0  0  0  0  0  0  0  0  0  0  0  0
   37.7740   24.9290   36.5690 C   0  0  0  0  0  0  0  0  0  0  0  0
   37.9980   23.5860   36.7890 C   0  0  0  0  0  0  0  0  0  0  0  0
   39.0470   23.0040   36.2240 N   0  0  0  0  0  0  0  0  0  0  0  0
   39.8700   23.7570   35.4440 C   0  0  0  0  0  0  0  0  0  0  0  0
   39.6680   25.0570   35.2210 N   0  0  0  0  0  0  0  0  0  0  0  0
   36.9060   25.3910   37.0410 H   0  0  0  0  0  0  0  0  0  0  0  0
   37.3180   23.0000   37.4230 H   0  0  0  0  0  0  0  0  0  0  0  0
   40.7370   23.2740   34.9780 H   0  0  0  0  0  0  0  0  0  0  0  0
  1  2  2  0  0  0  0
  1  6  1  0  0  0  0
  2  3  1  0  0  0  0
  3  9  1  0  0  0  0
  3  4  2  0  0  0  0
  5  4  1  0  0  0  0
  5 18  1  0  0  0  0
  6  5  2  0  0  0  0
  7  1  1  0  0  0  0
  8  2  1  0  0  0  0
  9 10  1  0  0  0  0
 10 11  1  0  0  0  0
 12 14  1  0  0  0  0
 12 10  1  0  0  0  0
 13 12  1  0  0  0  0
 14 15  1  0  0  0  0
 16 17  2  0  0  0  0
 16 14  1  0  0  0  0
 17  9  1  0  0  0  0
 18 19  1  0  0  0  0
 19 21  1  0  0  0  0
 19 20  1  0  0  0  0
 19 22  1  0  0  0  0
 22 25  1  0  0  0  0
 22 23  1  0  0  0  0
 24 22  1  0  0  0  0
 25 26  1  0  0  0  0
 26 27  2  0  0  0  0
 26 31  1  0  0  0  0
 27 32  1  0  0  0  0
 28 27  1  0  0  0  0
 29 28  2  0  0  0  0
 30 29  1  0  0  0  0
 30 25  2  0  0  0  0
 33 29  1  0  0  0  0
M  END
>  <minimizedAffinity>
-4.97926092

$$$$

 OpenBabel03272509513D

 33 35  0  0  0  0  0  0  0  0999 V2000
   37.2190   26.8080   34.9340 C   0  0  0  0  0  0  0  0  0  0  0  0
   36.7080   27.8860   34.1850 C   0  0  0  0  0  0  0  0  0  0  0  0
   36.5200   27.7290   32.8180 C   0  0  0  0  0  0  0  0  0  0  0  0
   36.8570   26.5100   32.3040 N   0  0  0  0  0  0  0  0  0  0  0  0
   37.3390   25.4940   33.0190 C   0  0  0  0  0  0  0  0  0  0  0  0
   37.5220   25.6430   34.3460 N   0  0  0  0  0  0  0  0  0  0  0  0
   37.3530   26.9700   36.0100 H   0  0  0  0  0  0  0  0  0  0  0  0
   36.4680   28.8170   34.6620 H   0  0  0  0  0  0  0  0  0  0  0  0
   36.0110   28.7680   31.9930 N   0  0  0  0  0  0  0  0  0  0  0  0
   36.4210   28.8360   30.5990 C   0  0  0  0  0  3  0  0  0  0  0  0
   35.5660   28.4990   29.9460 H   0  0  0  0  0  0  0  0  0  0  0  0
   36.6290   30.3260   30.3120 C   0  0  0  0  0  3  0  0  0  0  0  0
   37.2460   30.7130   31.1490 H   0  0  0  0  0  0  0  0  0  0  0  0
   35.3070   30.9120   30.4200 N   0  0  0  0  0  0  0  0  0  0  0  0
   34.6800   30.4020   29.7620 H   0  0  0  0  0  0  0  0  0  0  0  0
   34.8380   30.9340   31.7780 C   0  0  0  0  0  3  0  0  0  0  0  0
   35.1080   29.7090   32.5770 C   0  0  0  0  0  3  0  0  0  0  0  0
   37.6000   24.3730   32.2820 O   0  0  0  0  0  0  0  0  0  0  0  0
   36.7770   24.0880   31.1610 C   0  0  0  0  0  0  0  0  0  0  0  0
   37.3780   23.4970   30.4480 H   0  0  0  0  0  0  0  0  0  0  0  0
   36.5130   25.0430   30.6290 H   0  0  0  0  0  0  0  0  0  0  0  0
   35.5710   23.3060   31.5630 C   0  0  0  0  0  0  0  0  0  0  0  0
   34.6730   23.6000   30.9700 H   0  0  0  0  0  0  0  0  0  0  0  0
   35.2990   23.4810   32.6340 H   0  0  0  0  0  0  0  0  0  0  0  0
   35.7830   21.8310   31.4440 C   0  0  0  0  0  0  0  0  0  0  0  0
   34.8740   21.0210   32.1090 C   0  0  0  0  0  0  0  0  0  0  0  0
   34.9670   19.6450   32.0730 C   0  0  0  0  0  0  0  0  0  0  0  0
   35.9500   19.0800   31.3860 N   0  0  0  0  0  0  0  0  0  0  0  0
   36.8390   19.8820   30.7370 C   0  0  0  0  0  0  0  0  0  0  0  0
   36.7640   21.2140   30.7610 N   0  0  0  0  0  0  0  0  0  0  0  0
   34.0590   21.4670   32.6790 H   0  0  0  0  0  0  0  0  0  0  0  0
   34.2370   19.0190   32.6060 H   0  0  0  0  0  0  0  0  0  0  0  0
   37.6510   19.4130   30.1700 H   0  0  0  0  0  0  0  0  0  0  0  0
  1  7  1  0  0  0  0
  2  8  1  0  0  0  0
  2  1  2  0  0  0  0
  3  2  1  0  0  0  0
  4  3  2  0  0  0  0
  4  5  1  0  0  0  0
  5  6  2  0  0  0  0
  6  1  1  0  0  0  0
  9 17  1  0  0  0  0
  9  3  1  0  0  0  0
 10  9  1  0  0  0  0
 11 10  1  0  0  0  0
 12 14  1  0  0  0  0
 12 10  1  0  0  0  0
 12 13  1  0  0  0  0
 14 16  1  0  0  0  0
 15 14  1  0  0  0  0
 16 17  2  0  0  0  0
 18  5  1  0  0  0  0
 19 22  1  0  0  0  0
 19 18  1  0  0  0  0
 20 19  1  0  0  0  0
 21 19  1  0  0  0  0
 22 24  1  0  0  0  0
 23 22  1  0  0  0  0
 25 22  1  0  0  0  0
 25 26  1  0  0  0  0
 26 31  1  0  0  0  0
 27 26  2  0  0  0  0
 27 32  1  0  0  0  0
 28 27  1  0  0  0  0
 29 30  1  0  0  0  0
 29 28  2  0  0  0  0
 30 25  2  0  0  0  0
 33 29  1  0  0  0  0
M  END
>  <minimizedAffinity>
-4.96033096

$$$$

 OpenBabel03272509513D

 33 35  0  0  0  0  0  0  0  0999 V2000
   35.5900   20.6900   34.3930 C   0  0  0  0  0  0  0  0  0  0  0  0
   36.3110   21.2370   35.4740 C   0  0  0  0  0  0  0  0  0  0  0  0
   37.5070   21.8950   35.2220 C   0  0  0  0  0  0  0  0  0  0  0  0
   37.8930   21.9560   33.9140 N   0  0  0  0  0  0  0  0  0  0  0  0
   37.2060   21.4370   32.8970 C   0  0  0  0  0  0  0  0  0  0  0  0
   36.0430   20.7990   33.1380 N   0  0  0  0  0  0  0  0  0  0  0  0
   34.6500   20.1790   34.6320 H   0  0  0  0  0  0  0  0  0  0  0  0
   35.9420   21.1470   36.4770 H   0  0  0  0  0  0  0  0  0  0  0  0
   38.2930   22.4720   36.2560 N   0  0  0  0  0  0  0  0  0  0  0  0
   39.7370   22.5470   36.0950 C   0  0  0  0  0  3  0  0  0  0  0  0
   40.0300   23.6140   35.8800 H   0  0  0  0  0  0  0  0  0  0  0  0
   40.3150   22.2030   37.4710 C   0  0  0  0  0  3  0  0  0  0  0  0
   39.7850   21.2870   37.8030 H   0  0  0  0  0  0  0  0  0  0  0  0
   39.9020   23.2960   38.3290 N   0  0  0  0  0  0  0  0  0  0  0  0
   40.2410   24.1830   37.8980 H   0  0  0  0  0  0  0  0  0  0  0  0
   38.4880   23.2740   38.5860 C   0  0  0  0  0  3  0  0  0  0  0  0
   37.6220   22.9580   37.4190 C   0  0  0  0  0  3  0  0  0  0  0  0
   37.7930   21.6270   31.6770 O   0  0  0  0  0  0  0  0  0  0  0  0
   38.0250   22.9550   31.2320 C   0  0  0  0  0  0  0  0  0  0  0  0
   38.6100   22.8960   30.2970 H   0  0  0  0  0  0  0  0  0  0  0  0
   38.6750   23.4970   31.9730 H   0  0  0  0  0  0  0  0  0  0  0  0
   36.7410   23.6680   30.9710 C   0  0  0  0  0  0  0  0  0  0  0  0
   35.8580   23.0490   31.2590 H   0  0  0  0  0  0  0  0  0  0  0  0
   36.6080   23.9010   29.8840 H   0  0  0  0  0  0  0  0  0  0  0  0
   36.6700   24.9880   31.6700 C   0  0  0  0  0  0  0  0  0  0  0  0
   35.8710   25.9570   31.0820 C   0  0  0  0  0  0  0  0  0  0  0  0
   35.7270   27.2130   31.6340 C   0  0  0  0  0  0  0  0  0  0  0  0
   36.3690   27.5030   32.7560 N   0  0  0  0  0  0  0  0  0  0  0  0
   37.1520   26.5470   33.3280 C   0  0  0  0  0  0  0  0  0  0  0  0
   37.3020   25.3280   32.8070 N   0  0  0  0  0  0  0  0  0  0  0  0
   35.3350   25.7360   30.1580 H   0  0  0  0  0  0  0  0  0  0  0  0
   35.0880   27.9680   31.1530 H   0  0  0  0  0  0  0  0  0  0  0  0
   37.6820   26.7900   34.2570 H   0  0  0  0  0  0  0  0  0  0  0  0
  1  7  1  0  0  0  0
  1  2  1  0  0  0  0
  2  8  1  0  0  0  0
  3  2  2  0  0  0  0
  3  9  1  0  0  0  0
  4  3  1  0  0  0  0
  5  6  1  0  0  0  0
  5  4  2  0  0  0  0
  6  1  2  0  0  0  0
  9 17  1  0  0  0  0
 10  9  1  0  0  0  0
 10 12  1  0  0  0  0
 11 10  1  0  0  0  0
 12 13  1  0  0  0  0
 12 14  1  0  0  0  0
 14 16  1  0  0  0  0
 15 14  1  0  0  0  0
 17 16  2  0  0  0  0
 18  5  1  0  0  0  0
 19 18  1  0  0  0  0
 19 21  1  0  0  0  0
 20 19  1  0  0  0  0
 22 19  1  0  0  0  0
 22 23  1  0  0  0  0
 22 25  1  0  0  0  0
 24 22  1  0  0  0  0
 25 30  1  0  0  0  0
 26 27  1  0  0  0  0
 26 25  2  0  0  0  0
 27 28  2  0  0  0  0
 28 29  1  0  0  0  0
 29 33  1  0  0  0  0
 30 29  2  0  0  0  0
 31 26  1  0  0  0  0
 32 27  1  0  0  0  0
M  END
>  <minimizedAffinity>
-4.92034864

$$$$

 OpenBabel03272509513D

 33 35  0  0  0  0  0  0  0  0999 V2000
   38.2560   26.8560   32.2940 C   0  0  0  0  0  0  0  0  0  0  0  0
   38.4520   25.6820   33.0470 C   0  0  0  0  0  0  0  0  0  0  0  0
   37.8260   25.5600   34.2810 C   0  0  0  0  0  0  0  0  0  0  0  0
   37.0550   26.6180   34.6680 N   0  0  0  0  0  0  0  0  0  0  0  0
   36.8740   27.7250   33.9500 C   0  0  0  0  0  0  0  0  0  0  0  0
   37.4790   27.8460   32.7510 N   0  0  0  0  0  0  0  0  0  0  0  0
   38.7660   26.9150   31.3250 H   0  0  0  0  0  0  0  0  0  0  0  0
   39.0750   24.8920   32.6750 H   0  0  0  0  0  0  0  0  0  0  0  0
   37.9740   24.4090   35.1010 N   0  0  0  0  0  0  0  0  0  0  0  0
   37.8910   24.5490   36.5470 C   0  0  0  0  0  3  0  0  0  0  0  0
   36.9050   24.1350   36.9030 H   0  0  0  0  0  0  0  0  0  0  0  0
   38.9800   23.6290   37.1050 C   0  0  0  0  0  3  0  0  0  0  0  0
   39.8970   23.8530   36.5210 H   0  0  0  0  0  0  0  0  0  0  0  0
   38.5450   22.2890   36.7590 N   0  0  0  0  0  0  0  0  0  0  0  0
   37.5880   22.1560   37.1500 H   0  0  0  0  0  0  0  0  0  0  0  0
   38.6400   22.0410   35.3470 C   0  0  0  0  0  3  0  0  0  0  0  0
   38.1980   23.1510   34.4620 C   0  0  0  0  0  3  0  0  0  0  0  0
   36.0570   28.6450   34.5460 O   0  0  0  0  0  0  0  0  0  0  0  0
   35.5520   29.7160   33.7620 C   0  0  0  0  0  0  0  0  0  0  0  0
   35.9350   29.5860   32.7340 H   0  0  0  0  0  0  0  0  0  0  0  0
   35.9740   30.6900   34.1310 H   0  0  0  0  0  0  0  0  0  0  0  0
   34.0600   29.7120   33.7400 C   0  0  0  0  0  0  0  0  0  0  0  0
   33.6540   28.7200   33.4300 H   0  0  0  0  0  0  0  0  0  0  0  0
   33.6530   30.4520   33.0060 H   0  0  0  0  0  0  0  0  0  0  0  0
   33.4700   30.0980   35.0590 C   0  0  0  0  0  0  0  0  0  0  0  0
   34.0320   31.1990   35.6890 C   0  0  0  0  0  0  0  0  0  0  0  0
   33.5730   31.6500   36.9090 C   0  0  0  0  0  0  0  0  0  0  0  0
   32.5690   31.0150   37.4970 N   0  0  0  0  0  0  0  0  0  0  0  0
   32.0230   29.9340   36.8740 C   0  0  0  0  0  0  0  0  0  0  0  0
   32.4550   29.4850   35.6940 N   0  0  0  0  0  0  0  0  0  0  0  0
   34.8580   31.7340   35.2200 H   0  0  0  0  0  0  0  0  0  0  0  0
   34.0300   32.5250   37.3920 H   0  0  0  0  0  0  0  0  0  0  0  0
   31.1940   29.4100   37.3620 H   0  0  0  0  0  0  0  0  0  0  0  0
  1  6  2  0  0  0  0
  1  2  1  0  0  0  0
  2  3  2  0  0  0  0
  3  4  1  0  0  0  0
  3  9  1  0  0  0  0
  5 18  1  0  0  0  0
  5  4  2  0  0  0  0
  6  5  1  0  0  0  0
  7  1  1  0  0  0  0
  8  2  1  0  0  0  0
  9 10  1  0  0  0  0
 10 11  1  0  0  0  0
 10 12  1  0  0  0  0
 13 12  1  0  0  0  0
 14 12  1  0  0  0  0
 14 15  1  0  0  0  0
 16 14  1  0  0  0  0
 17  9  1  0  0  0  0
 17 16  2  0  0  0  0
 19 21  1  0  0  0  0
 19 18  1  0  0  0  0
 20 19  1  0  0  0  0
 22 19  1  0  0  0  0
 22 25  1  0  0  0  0
 23 22  1  0  0  0  0
 24 22  1  0  0  0  0
 25 26  2  0  0  0  0
 25 30  1  0  0  0  0
 26 27  1  0  0  0  0
 27 32  1  0  0  0  0
 27 28  2  0  0  0  0
 29 33  1  0  0  0  0
 29 28  1  0  0  0  0
 30 29  2  0  0  0  0
 31 26  1  0  0  0  0
M  END
>  <minimizedAffinity>
-4.88507414

$$$$

 OpenBabel03272509513D

 33 35  0  0  0  0  0  0  0  0999 V2000
   37.3180   26.8860   35.2080 C   0  0  0  0  0  0  0  0  0  0  0  0
   36.8910   27.8180   34.2410 C   0  0  0  0  0  0  0  0  0  0  0  0
   36.9130   27.4580   32.9000 C   0  0  0  0  0  0  0  0  0  0  0  0
   37.3600   26.1970   32.6270 N   0  0  0  0  0  0  0  0  0  0  0  0
   37.7620   25.3200   33.5460 C   0  0  0  0  0  0  0  0  0  0  0  0
   37.7410   25.6660   34.8490 N   0  0  0  0  0  0  0  0  0  0  0  0
   37.2860   27.2070   36.2560 H   0  0  0  0  0  0  0  0  0  0  0  0
   36.5530   28.7930   34.5350 H   0  0  0  0  0  0  0  0  0  0  0  0
   36.4990   28.3400   31.8660 N   0  0  0  0  0  0  0  0  0  0  0  0
   37.1100   28.2300   30.5500 C   0  0  0  0  0  3  0  0  0  0  0  0
   36.3720   27.7580   29.8390 H   0  0  0  0  0  0  0  0  0  0  0  0
   37.3120   29.6720   30.0770 C   0  0  0  0  0  3  0  0  0  0  0  0
   37.7850   30.2070   30.9260 H   0  0  0  0  0  0  0  0  0  0  0  0
   35.9710   30.1980   29.9070 N   0  0  0  0  0  0  0  0  0  0  0  0
   35.4640   29.5660   29.2500 H   0  0  0  0  0  0  0  0  0  0  0  0
   35.3040   30.3880   31.1660 C   0  0  0  0  0  3  0  0  0  0  0  0
   35.4910   29.3060   32.1690 C   0  0  0  0  0  3  0  0  0  0  0  0
   38.1650   24.1210   33.0290 O   0  0  0  0  0  0  0  0  0  0  0  0
   37.6330   22.9270   33.5850 C   0  0  0  0  0  0  0  0  0  0  0  0
   37.2110   22.3330   32.7540 H   0  0  0  0  0  0  0  0  0  0  0  0
   36.7700   23.1740   34.2610 H   0  0  0  0  0  0  0  0  0  0  0  0
   38.6920   22.1350   34.2750 C   0  0  0  0  0  0  0  0  0  0  0  0
   39.6840   22.2510   33.7790 H   0  0  0  0  0  0  0  0  0  0  0  0
   38.4690   21.0380   34.2580 H   0  0  0  0  0  0  0  0  0  0  0  0
   38.8170   22.4910   35.7230 C   0  0  0  0  0  0  0  0  0  0  0  0
   40.0650   22.3070   36.2990 C   0  0  0  0  0  0  0  0  0  0  0  0
   40.3020   22.6000   37.6260 C   0  0  0  0  0  0  0  0  0  0  0  0
   39.3120   23.0690   38.3710 N   0  0  0  0  0  0  0  0  0  0  0  0
   38.0890   23.2460   37.7990 C   0  0  0  0  0  0  0  0  0  0  0  0
   37.8430   22.9680   36.5170 N   0  0  0  0  0  0  0  0  0  0  0  0
   40.8910   21.9230   35.7000 H   0  0  0  0  0  0  0  0  0  0  0  0
   41.2990   22.4490   38.0640 H   0  0  0  0  0  0  0  0  0  0  0  0
   37.2710   23.6330   38.4180 H   0  0  0  0  0  0  0  0  0  0  0  0
  1  7  1  0  0  0  0
  2  8  1  0  0  0  0
  2  1  2  0  0  0  0
  3  2  1  0  0  0  0
  4  3  2  0  0  0  0
  4  5  1  0  0  0  0
  5  6  2  0  0  0  0
  6  1  1  0  0  0  0
  9 17  1  0  0  0  0
  9  3  1  0  0  0  0
 10  9  1  0  0  0  0
 11 10  1  0  0  0  0
 12 10  1  0  0  0  0
 12 13  1  0  0  0  0
 14 12  1  0  0  0  0
 14 16  1  0  0  0  0
 15 14  1  0  0  0  0
 16 17  2  0  0  0  0
 18  5  1  0  0  0  0
 18 19  1  0  0  0  0
 19 21  1  0  0  0  0
 19 22  1  0  0  0  0
 20 19  1  0  0  0  0
 22 25  1  0  0  0  0
 23 22  1  0  0  0  0
 24 22  1  0  0  0  0
 25 26  2  0  0  0  0
 25 30  1  0  0  0  0
 26 27  1  0  0  0  0
 27 32  1  0  0  0  0
 27 28  2  0  0  0  0
 29 28  1  0  0  0  0
 29 33  1  0  0  0  0
 30 29  2  0  0  0  0
 31 26  1  0  0  0  0
M  END
>  <minimizedAffinity>
-4.85220003

$$$$
