
 OpenBabel03272510133D

 41 44  0  0  0  0  0  0  0  0999 V2000
   38.3900   31.6300   48.9330 C   0  0  0  0  0  0  0  0  0  0  0  0
   38.5330   32.9060   49.4820 C   0  0  0  0  0  0  0  0  0  0  0  0
   39.1680   33.7080   48.5460 C   0  0  0  0  0  0  0  0  0  0  0  0
   39.3930   32.9250   47.4720 N   0  0  0  0  0  0  0  0  0  0  0  0
   38.9370   31.7140   47.7040 N   0  0  0  0  0  0  0  0  0  0  0  0
   38.2640   33.3650   50.4350 H   0  0  0  0  0  0  0  0  0  0  0  0
   39.4530   34.7630   48.6070 H   0  0  0  0  0  0  0  0  0  0  0  0
   40.0340   33.3220   46.2160 C   0  0  0  0  0  0  0  0  0  0  0  0
   39.4290   34.0090   45.6430 H   0  0  0  0  0  0  0  0  0  0  0  0
   40.9760   33.8480   46.5630 H   0  0  0  0  0  0  0  0  0  0  0  0
   40.4970   32.0770   45.5410 C   0  0  0  0  0  0  0  0  0  0  0  0
   41.5690   31.8470   45.7420 H   0  0  0  0  0  0  0  0  0  0  0  0
   39.9550   31.1560   45.8870 H   0  0  0  0  0  0  0  0  0  0  0  0
   40.2730   32.2020   44.1050 N   0  0  0  0  0  0  0  0  0  0  0  0
   40.4550   30.8820   43.4750 C   0  0  0  0  0  3  0  0  0  0  0  0
   40.3390   30.0730   44.1890 H   0  0  0  0  0  0  0  0  0  0  0  0
   39.5410   30.7530   42.2690 C   0  0  0  0  0  3  0  0  0  0  0  0
   39.8060   29.7950   41.7820 H   0  0  0  0  0  0  0  0  0  0  0  0
   38.1480   30.6520   42.6970 N   0  0  0  0  0  0  0  0  0  0  0  0
   37.8640   29.6610   42.8820 H   0  0  0  0  0  0  0  0  0  0  0  0
   37.9140   31.4980   43.8540 C   0  0  0  0  0  2  0  0  0  0  0  0
   38.9060   32.6520   43.8410 C   0  0  0  0  0  2  0  0  0  0  0  0
   37.7730   30.7190   49.7550 O   0  0  0  0  0  0  0  0  0  0  0  0
   34.1780   28.9510   48.4250 C   0  0  0  0  0  0  0  0  0  0  0  0
   34.9120   28.3990   49.4210 C   0  0  0  0  0  0  0  0  0  0  0  0
   36.0880   28.9100   49.9100 C   0  0  0  0  0  0  0  0  0  0  0  0
   36.6040   30.0600   49.3900 C   0  0  0  0  0  0  0  0  0  0  0  0
   35.8540   30.6450   48.3570 C   0  0  0  0  0  0  0  0  0  0  0  0
   34.7020   30.1130   47.9020 N   0  0  0  0  0  0  0  0  0  0  0  0
   34.5740   27.4710   49.8990 H   0  0  0  0  0  0  0  0  0  0  0  0
   36.6680   28.4570   50.7100 H   0  0  0  0  0  0  0  0  0  0  0  0
   36.2010   31.5610   47.8940 H   0  0  0  0  0  0  0  0  0  0  0  0
   32.0820   27.6380   48.6580 C   0  0  0  0  0  0  0  0  0  0  0  0
   32.9660   28.4200   47.9110 C   0  0  0  0  0  0  0  0  0  0  0  0
   32.6100   28.6620   46.6030 C   0  0  0  0  0  0  0  0  0  0  0  0
   31.4400   28.1450   46.0950 N   0  0  0  0  0  0  0  0  0  0  0  0
   30.6280   27.3870   46.8970 C   0  0  0  0  0  0  0  0  0  0  0  0
   30.9340   27.1260   48.1790 N   0  0  0  0  0  0  0  0  0  0  0  0
   32.3110   27.4170   49.6890 H   0  0  0  0  0  0  0  0  0  0  0  0
   33.2620   29.2670   45.9780 H   0  0  0  0  0  0  0  0  0  0  0  0
   29.7420   27.0580   46.3300 H   0  0  0  0  0  0  0  0  0  0  0  0
  1  2  1  0  0  0  0
  1 23  1  0  0  0  0
  2  6  1  0  0  0  0
  3  7  1  0  0  0  0
  3  2  2  0  0  0  0
  4  5  1  0  0  0  0
  4  3  1  0  0  0  0
  5  1  2  0  0  0  0
  8 10  1  0  0  0  0
  8  4  1  0  0  0  0
  9  8  1  0  0  0  0
 11 12  1  0  0  0  0
 11 13  1  0  0  0  0
 11  8  1  0  0  0  0
 14 11  1  0  0  0  0
 15 14  1  0  0  0  0
 15 16  1  0  0  0  0
 17 19  1  0  0  0  0
 17 15  1  0  0  0  0
 18 17  1  0  0  0  0
 19 20  1  0  0  0  0
 19 21  1  0  0  0  0
 22 21  1  0  0  0  0
 22 14  1  0  0  0  0
 24 25  1  0  0  0  0
 25 30  1  0  0  0  0
 25 26  2  0  0  0  0
 26 31  1  0  0  0  0
 27 23  1  0  0  0  0
 27 26  1  0  0  0  0
 28 27  2  0  0  0  0
 29 28  1  0  0  0  0
 29 24  2  0  0  0  0
 32 28  1  0  0  0  0
 33 39  1  0  0  0  0
 34 24  1  0  0  0  0
 34 33  2  0  0  0  0
 35 34  1  0  0  0  0
 36 35  2  0  0  0  0
 36 37  1  0  0  0  0
 37 38  2  0  0  0  0
 38 33  1  0  0  0  0
 40 35  1  0  0  0  0
 41 37  1  0  0  0  0
M  END
>  <minimizedAffinity>
-6.05970335

>  <minimizedRMSD>
1.19205904

$$$$
