
 OpenBabel03272509483D

 33 35  0  0  0  0  0  0  0  0999 V2000
   37.4610   30.2240   51.3940 C   0  0  0  0  0  0  0  0  0  0  0  0
   38.0890   30.9120   50.3360 C   0  0  0  0  0  0  0  0  0  0  0  0
   37.6660   30.6780   49.0350 C   0  0  0  0  0  0  0  0  0  0  0  0
   36.6520   29.7760   48.8880 N   0  0  0  0  0  0  0  0  0  0  0  0
   36.0620   29.1290   49.8930 C   0  0  0  0  0  0  0  0  0  0  0  0
   36.4690   29.3560   51.1580 N   0  0  0  0  0  0  0  0  0  0  0  0
   37.8220   30.4360   52.4080 H   0  0  0  0  0  0  0  0  0  0  0  0
   38.8830   31.6070   50.5320 H   0  0  0  0  0  0  0  0  0  0  0  0
   38.2480   31.3290   47.9140 N   0  0  0  0  0  0  0  0  0  0  0  0
   38.2800   30.6460   46.6300 C   0  0  0  0  0  0  0  0  0  0  0  0
   37.5140   31.1100   45.9450 H   0  0  0  0  0  0  0  0  0  0  0  0
   39.6530   30.9710   46.0350 C   0  0  0  0  0  0  0  0  0  0  0  0
   40.3880   30.7830   46.8440 H   0  0  0  0  0  0  0  0  0  0  0  0
   39.6190   32.3990   45.7820 N   0  0  0  0  0  0  0  0  0  0  0  0
   38.7960   32.5930   45.1710 H   0  0  0  0  0  0  0  0  0  0  0  0
   39.6350   33.1610   47.0000 C   0  0  0  0  0  0  0  0  0  0  0  0
   38.7810   32.6420   48.1010 C   0  0  0  0  0  0  0  0  0  0  0  0
   35.0690   28.2770   49.4980 O   0  0  0  0  0  0  0  0  0  0  0  0
   34.2840   28.6250   48.3670 C   0  0  0  0  0  0  0  0  0  0  0  0
   34.9780   28.8700   47.5430 H   0  0  0  0  0  0  0  0  0  0  0  0
   33.7080   29.5670   48.5780 H   0  0  0  0  0  0  0  0  0  0  0  0
   33.4010   27.4960   47.9550 C   0  0  0  0  0  0  0  0  0  0  0  0
   33.4860   26.6290   48.6520 H   0  0  0  0  0  0  0  0  0  0  0  0
   33.6740   27.1020   46.9440 H   0  0  0  0  0  0  0  0  0  0  0  0
   31.9660   27.9050   47.8460 C   0  0  0  0  0  0  0  0  0  0  0  0
   31.1430   27.5620   48.9080 C   0  0  0  0  0  0  0  0  0  0  0  0
   29.8020   27.8850   48.9220 C   0  0  0  0  0  0  0  0  0  0  0  0
   29.2850   28.5410   47.8930 N   0  0  0  0  0  0  0  0  0  0  0  0
   30.0990   28.8740   46.8530 C   0  0  0  0  0  0  0  0  0  0  0  0
   31.3980   28.5690   46.8240 N   0  0  0  0  0  0  0  0  0  0  0  0
   31.5520   27.0230   49.7640 H   0  0  0  0  0  0  0  0  0  0  0  0
   29.1660   27.6050   49.7740 H   0  0  0  0  0  0  0  0  0  0  0  0
   29.6690   29.4150   46.0030 H   0  0  0  0  0  0  0  0  0  0  0  0
  1  7  1  0  0  0  0
  2  8  1  0  0  0  0
  2  1  2  0  0  0  0
  3  2  1  0  0  0  0
  4  3  2  0  0  0  0
  4  5  1  0  0  0  0
  5  6  2  0  0  0  0
  6  1  1  0  0  0  0
  9 17  1  0  0  0  0
  9  3  1  0  0  0  0
 10  9  1  0  0  0  0
 11 10  1  0  0  0  0
 12 10  1  0  0  0  0
 12 13  1  0  0  0  0
 14 12  1  0  0  0  0
 14 16  1  0  0  0  0
 15 14  1  0  0  0  0
 16 17  2  0  0  0  0
 18  5  1  0  0  0  0
 19 21  1  0  0  0  0
 19 18  1  0  0  0  0
 20 19  1  0  0  0  0
 22 19  1  0  0  0  0
 22 23  1  0  0  0  0
 24 22  1  0  0  0  0
 25 22  1  0  0  0  0
 25 26  1  0  0  0  0
 26 27  2  0  0  0  0
 26 31  1  0  0  0  0
 27 32  1  0  0  0  0
 28 27  1  0  0  0  0
 29 28  2  0  0  0  0
 30 29  1  0  0  0  0
 30 25  2  0  0  0  0
 33 29  1  0  0  0  0
M  END
>  <minimizedAffinity>
-5.77930689

>  <minimizedRMSD>
0.790948331

$$$$
