
 OpenBabel03272502573D

 42 45  0  0  0  0  0  0  0  0999 V2000
   37.6510   27.0830   33.7340 C   0  0  0  0  0  0  0  0  0  0  0  0
   38.7630   27.1670   32.8960 C   0  0  0  0  0  0  0  0  0  0  0  0
   39.8580   26.3440   33.0980 C   0  0  0  0  0  0  0  0  0  0  0  0
   39.7780   25.4590   34.1600 C   0  0  0  0  0  0  0  0  0  0  0  0
   38.6790   25.3720   34.9950 C   0  0  0  0  0  0  0  0  0  0  0  0
   37.6400   26.2050   34.7420 N   0  0  0  0  0  0  0  0  0  0  0  0
   38.6870   24.4420   36.0470 N   0  0  0  0  0  0  0  0  0  0  0  0
   39.9500   23.8210   36.3980 C   0  0  0  0  0  0  0  0  0  0  0  0
   39.6480   22.7710   37.4480 C   0  0  0  0  0  0  0  0  0  0  0  0
   39.0210   23.4560   38.6640 C   0  0  0  0  0  0  0  0  0  0  0  0
   37.8140   24.2430   38.2710 C   0  0  0  0  0  0  0  0  0  0  0  0
   37.5210   24.0560   36.8110 C   0  0  0  0  0  0  0  0  0  0  0  0
   38.8240   27.8640   32.0610 H   0  0  0  0  0  0  0  0  0  0  0  0
   40.7120   26.4110   32.4510 H   0  0  0  0  0  0  0  0  0  0  0  0
   40.6600   24.8360   34.2800 H   0  0  0  0  0  0  0  0  0  0  0  0
   40.3890   23.2580   35.5410 H   0  0  0  0  0  0  0  0  0  0  0  0
   40.6240   24.5560   36.8350 H   0  0  0  0  0  0  0  0  0  0  0  0
   40.5520   22.2500   37.8060 H   0  0  0  0  0  0  0  0  0  0  0  0
   38.9120   22.0540   36.9950 H   0  0  0  0  0  0  0  0  0  0  0  0
   39.7940   24.1950   38.9980 H   0  0  0  0  0  0  0  0  0  0  0  0
   38.8570   22.7110   39.4630 H   0  0  0  0  0  0  0  0  0  0  0  0
   36.9530   23.8280   38.8500 H   0  0  0  0  0  0  0  0  0  0  0  0
   37.8950   25.3170   38.5010 H   0  0  0  0  0  0  0  0  0  0  0  0
   36.7320   24.8190   36.5540 H   0  0  0  0  0  0  0  0  0  0  0  0
   37.1150   23.0760   36.5540 H   0  0  0  0  0  0  0  0  0  0  0  0
   34.7330   28.6470   32.1680 C   0  0  0  0  0  0  0  0  0  0  0  0
   34.3910   29.6650   33.0820 C   0  0  0  0  0  0  0  0  0  0  0  0
   35.1740   29.7800   34.2050 C   0  0  0  0  0  0  0  0  0  0  0  0
   36.2180   28.9240   34.3770 N   0  0  0  0  0  0  0  0  0  0  0  0
   36.5200   27.9640   33.4890 C   0  0  0  0  0  0  0  0  0  0  0  0
   35.7750   27.8330   32.3890 N   0  0  0  0  0  0  0  0  0  0  0  0
   34.1270   28.5450   31.2800 H   0  0  0  0  0  0  0  0  0  0  0  0
   33.5680   30.3140   32.9130 H   0  0  0  0  0  0  0  0  0  0  0  0
   34.9440   30.7590   35.2080 N   0  0  0  0  0  0  0  0  0  0  0  0
   33.6250   31.2280   35.5730 C   0  0  0  0  0  3  0  0  0  0  0  0
   33.3750   32.1890   35.0780 H   0  0  0  0  0  0  0  0  0  0  0  0
   33.6660   31.4800   37.0780 C   0  0  0  0  0  3  0  0  0  0  0  0
   32.6320   31.6890   37.4480 H   0  0  0  0  0  0  0  0  0  0  0  0
   34.5560   32.5710   37.3260 N   0  0  0  0  0  0  0  0  0  0  0  0
   34.1460   33.4230   37.7180 H   0  0  0  0  0  0  0  0  0  0  0  0
   35.5510   32.7690   36.2990 C   0  0  0  0  0  2  0  0  0  0  0  0
   36.0400   31.3580   35.9420 C   0  0  0  0  0  2  0  0  0  0  0  0
  1  6  1  0  0  0  0
  2  3  1  0  0  0  0
  2  1  2  0  0  0  0
  3  4  2  0  0  0  0
  4 15  1  0  0  0  0
  4  5  1  0  0  0  0
  5  7  1  0  0  0  0
  6  5  2  0  0  0  0
  7  8  1  0  0  0  0
  7 12  1  0  0  0  0
  8 17  1  0  0  0  0
  8  9  1  0  0  0  0
  9 18  1  0  0  0  0
  9 10  1  0  0  0  0
 10 20  1  0  0  0  0
 10 21  1  0  0  0  0
 11 23  1  0  0  0  0
 11 10  1  0  0  0  0
 11 22  1  0  0  0  0
 12 11  1  0  0  0  0
 13  2  1  0  0  0  0
 14  3  1  0  0  0  0
 16  8  1  0  0  0  0
 19  9  1  0  0  0  0
 24 12  1  0  0  0  0
 25 12  1  0  0  0  0
 26 31  2  0  0  0  0
 26 27  1  0  0  0  0
 27 28  2  0  0  0  0
 28 29  1  0  0  0  0
 28 34  1  0  0  0  0
 30  1  1  0  0  0  0
 30 29  2  0  0  0  0
 31 30  1  0  0  0  0
 32 26  1  0  0  0  0
 33 27  1  0  0  0  0
 34 35  1  0  0  0  0
 34 42  1  0  0  0  0
 35 37  1  0  0  0  0
 36 35  1  0  0  0  0
 37 39  1  0  0  0  0
 37 38  1  0  0  0  0
 39 40  1  0  0  0  0
 41 39  1  0  0  0  0
 42 41  1  0  0  0  0
M  END
>  <minimizedAffinity>
-6.31973839

$$$$

 OpenBabel03272502573D

 42 45  0  0  0  0  0  0  0  0999 V2000
   37.4530   26.1260   32.2110 C   0  0  0  0  0  0  0  0  0  0  0  0
   38.0830   26.4050   30.9970 C   0  0  0  0  0  0  0  0  0  0  0  0
   38.0370   27.6790   30.4590 C   0  0  0  0  0  0  0  0  0  0  0  0
   37.3420   28.6310   31.1840 C   0  0  0  0  0  0  0  0  0  0  0  0
   36.7140   28.3620   32.3870 C   0  0  0  0  0  0  0  0  0  0  0  0
   36.7970   27.0940   32.8600 N   0  0  0  0  0  0  0  0  0  0  0  0
   36.0320   29.3930   33.0530 N   0  0  0  0  0  0  0  0  0  0  0  0
   35.7620   30.6150   32.3200 C   0  0  0  0  0  0  0  0  0  0  0  0
   35.1580   31.5950   33.3060 C   0  0  0  0  0  0  0  0  0  0  0  0
   33.8650   30.9980   33.8650 C   0  0  0  0  0  0  0  0  0  0  0  0
   34.1140   29.6540   34.4670 C   0  0  0  0  0  0  0  0  0  0  0  0
   35.5770   29.3250   34.4240 C   0  0  0  0  0  0  0  0  0  0  0  0
   38.6290   25.6530   30.4290 H   0  0  0  0  0  0  0  0  0  0  0  0
   38.5230   27.8900   29.5260 H   0  0  0  0  0  0  0  0  0  0  0  0
   37.3320   29.6150   30.7230 H   0  0  0  0  0  0  0  0  0  0  0  0
   36.6990   31.1030   31.9640 H   0  0  0  0  0  0  0  0  0  0  0  0
   35.0330   30.4310   31.5330 H   0  0  0  0  0  0  0  0  0  0  0  0
   34.8880   32.5590   32.8420 H   0  0  0  0  0  0  0  0  0  0  0  0
   35.9030   31.7310   34.1350 H   0  0  0  0  0  0  0  0  0  0  0  0
   33.2190   30.8340   32.9640 H   0  0  0  0  0  0  0  0  0  0  0  0
   33.3790   31.7300   34.5350 H   0  0  0  0  0  0  0  0  0  0  0  0
   33.8060   29.7160   35.5390 H   0  0  0  0  0  0  0  0  0  0  0  0
   33.5360   28.8440   33.9920 H   0  0  0  0  0  0  0  0  0  0  0  0
   35.6590   28.2370   34.7100 H   0  0  0  0  0  0  0  0  0  0  0  0
   36.1870   29.8890   35.1330 H   0  0  0  0  0  0  0  0  0  0  0  0
   37.2350   22.4820   32.4950 C   0  0  0  0  0  0  0  0  0  0  0  0
   37.6790   22.2390   33.8110 C   0  0  0  0  0  0  0  0  0  0  0  0
   38.0380   23.3360   34.5570 C   0  0  0  0  0  0  0  0  0  0  0  0
   37.9500   24.5750   34.0000 N   0  0  0  0  0  0  0  0  0  0  0  0
   37.5230   24.7750   32.7440 C   0  0  0  0  0  0  0  0  0  0  0  0
   37.1680   23.7250   31.9990 N   0  0  0  0  0  0  0  0  0  0  0  0
   36.9490   21.6290   31.8970 H   0  0  0  0  0  0  0  0  0  0  0  0
   37.7350   21.2580   34.2110 H   0  0  0  0  0  0  0  0  0  0  0  0
   38.5030   23.2400   35.8960 N   0  0  0  0  0  0  0  0  0  0  0  0
   38.1830   24.2120   36.9190 C   0  0  0  0  0  3  0  0  0  0  0  0
   39.0010   24.9460   37.0630 H   0  0  0  0  0  0  0  0  0  0  0  0
   38.0340   23.4250   38.2190 C   0  0  0  0  0  3  0  0  0  0  0  0
   37.6290   24.0960   39.0160 H   0  0  0  0  0  0  0  0  0  0  0  0
   39.3130   22.8890   38.5680 N   0  0  0  0  0  0  0  0  0  0  0  0
   39.7400   23.2340   39.4320 H   0  0  0  0  0  0  0  0  0  0  0  0
   40.2100   22.7210   37.4490 C   0  0  0  0  0  2  0  0  0  0  0  0
   39.3400   22.1390   36.3260 C   0  0  0  0  0  2  0  0  0  0  0  0
  1 30  1  0  0  0  0
  1  6  1  0  0  0  0
  2  1  2  0  0  0  0
  3  2  1  0  0  0  0
  3  4  2  0  0  0  0
  4  5  1  0  0  0  0
  5  6  2  0  0  0  0
  5  7  1  0  0  0  0
  7 12  1  0  0  0  0
  8  7  1  0  0  0  0
  8  9  1  0  0  0  0
  9 10  1  0  0  0  0
  9 19  1  0  0  0  0
 10 11  1  0  0  0  0
 10 21  1  0  0  0  0
 11 22  1  0  0  0  0
 12 11  1  0  0  0  0
 12 24  1  0  0  0  0
 12 25  1  0  0  0  0
 13  2  1  0  0  0  0
 14  3  1  0  0  0  0
 15  4  1  0  0  0  0
 16  8  1  0  0  0  0
 17  8  1  0  0  0  0
 18  9  1  0  0  0  0
 20 10  1  0  0  0  0
 23 11  1  0  0  0  0
 26 27  1  0  0  0  0
 27 33  1  0  0  0  0
 27 28  2  0  0  0  0
 28 34  1  0  0  0  0
 29 28  1  0  0  0  0
 30 29  2  0  0  0  0
 31 26  2  0  0  0  0
 31 30  1  0  0  0  0
 32 26  1  0  0  0  0
 34 42  1  0  0  0  0
 34 35  1  0  0  0  0
 35 36  1  0  0  0  0
 35 37  1  0  0  0  0
 37 39  1  0  0  0  0
 37 38  1  0  0  0  0
 39 40  1  0  0  0  0
 41 39  1  0  0  0  0
 42 41  1  0  0  0  0
M  END
>  <minimizedAffinity>
-6.16927242

$$$$

 OpenBabel03272502573D

 42 45  0  0  0  0  0  0  0  0999 V2000
   37.0420   26.9490   32.9450 C   0  0  0  0  0  0  0  0  0  0  0  0
   36.4220   27.6420   33.9860 C   0  0  0  0  0  0  0  0  0  0  0  0
   36.0130   28.9530   33.8120 C   0  0  0  0  0  0  0  0  0  0  0  0
   36.2550   29.5150   32.5710 C   0  0  0  0  0  0  0  0  0  0  0  0
   36.8700   28.8360   31.5340 C   0  0  0  0  0  0  0  0  0  0  0  0
   37.2460   27.5550   31.7700 N   0  0  0  0  0  0  0  0  0  0  0  0
   37.0730   29.4890   30.3090 N   0  0  0  0  0  0  0  0  0  0  0  0
   36.9020   30.9290   30.2670 C   0  0  0  0  0  0  0  0  0  0  0  0
   37.0350   31.3460   28.8160 C   0  0  0  0  0  0  0  0  0  0  0  0
   38.4240   30.9480   28.3140 C   0  0  0  0  0  0  0  0  0  0  0  0
   38.6690   29.4890   28.5190 C   0  0  0  0  0  0  0  0  0  0  0  0
   37.4430   28.8270   29.0760 C   0  0  0  0  0  0  0  0  0  0  0  0
   36.2330   27.1960   34.9620 H   0  0  0  0  0  0  0  0  0  0  0  0
   35.5360   29.4810   34.6150 H   0  0  0  0  0  0  0  0  0  0  0  0
   35.9180   30.5450   32.4810 H   0  0  0  0  0  0  0  0  0  0  0  0
   35.8720   31.2340   30.5640 H   0  0  0  0  0  0  0  0  0  0  0  0
   37.6900   31.4200   30.8370 H   0  0  0  0  0  0  0  0  0  0  0  0
   36.9460   32.4370   28.6740 H   0  0  0  0  0  0  0  0  0  0  0  0
   36.2490   30.7900   28.2390 H   0  0  0  0  0  0  0  0  0  0  0  0
   39.1330   31.4920   28.9900 H   0  0  0  0  0  0  0  0  0  0  0  0
   38.5590   31.3060   27.2780 H   0  0  0  0  0  0  0  0  0  0  0  0
   38.8690   29.0480   27.5120 H   0  0  0  0  0  0  0  0  0  0  0  0
   39.5350   29.2740   29.1650 H   0  0  0  0  0  0  0  0  0  0  0  0
   37.7620   27.7890   29.3820 H   0  0  0  0  0  0  0  0  0  0  0  0
   36.6260   28.7130   28.3600 H   0  0  0  0  0  0  0  0  0  0  0  0
   37.8850   23.4330   32.3660 C   0  0  0  0  0  0  0  0  0  0  0  0
   38.2540   22.9810   33.6500 C   0  0  0  0  0  0  0  0  0  0  0  0
   38.1990   23.8990   34.6710 C   0  0  0  0  0  0  0  0  0  0  0  0
   37.8020   25.1720   34.3990 N   0  0  0  0  0  0  0  0  0  0  0  0
   37.4580   25.5740   33.1660 C   0  0  0  0  0  0  0  0  0  0  0  0
   37.5010   24.7000   32.1570 N   0  0  0  0  0  0  0  0  0  0  0  0
   37.9230   22.7220   31.5540 H   0  0  0  0  0  0  0  0  0  0  0  0
   38.5580   21.9790   33.8240 H   0  0  0  0  0  0  0  0  0  0  0  0
   38.5420   23.5810   36.0130 N   0  0  0  0  0  0  0  0  0  0  0  0
   38.1800   24.4110   37.1420 C   0  0  0  0  0  3  0  0  0  0  0  0
   39.0160   25.0670   37.4580 H   0  0  0  0  0  0  0  0  0  0  0  0
   37.8840   23.4520   38.2930 C   0  0  0  0  0  3  0  0  0  0  0  0
   37.4430   24.0230   39.1480 H   0  0  0  0  0  0  0  0  0  0  0  0
   39.1020   22.7980   38.6570 N   0  0  0  0  0  0  0  0  0  0  0  0
   39.4670   22.9880   39.5940 H   0  0  0  0  0  0  0  0  0  0  0  0
   40.0830   22.7430   37.6000 C   0  0  0  0  0  2  0  0  0  0  0  0
   39.2880   22.3820   36.3370 C   0  0  0  0  0  2  0  0  0  0  0  0
  1 30  1  0  0  0  0
  1  2  1  0  0  0  0
  2 13  1  0  0  0  0
  3  2  2  0  0  0  0
  3 14  1  0  0  0  0
  4  3  1  0  0  0  0
  5  6  1  0  0  0  0
  5  4  2  0  0  0  0
  6  1  2  0  0  0  0
  7  5  1  0  0  0  0
  8  7  1  0  0  0  0
  8 16  1  0  0  0  0
  8 17  1  0  0  0  0
  9  8  1  0  0  0  0
 10 11  1  0  0  0  0
 10  9  1  0  0  0  0
 10 20  1  0  0  0  0
 11 12  1  0  0  0  0
 11 23  1  0  0  0  0
 12 24  1  0  0  0  0
 12  7  1  0  0  0  0
 15  4  1  0  0  0  0
 18  9  1  0  0  0  0
 19  9  1  0  0  0  0
 21 10  1  0  0  0  0
 22 11  1  0  0  0  0
 25 12  1  0  0  0  0
 26 27  1  0  0  0  0
 27 33  1  0  0  0  0
 27 28  2  0  0  0  0
 28 34  1  0  0  0  0
 29 28  1  0  0  0  0
 30 29  2  0  0  0  0
 31 26  2  0  0  0  0
 31 30  1  0  0  0  0
 32 26  1  0  0  0  0
 34 42  1  0  0  0  0
 34 35  1  0  0  0  0
 35 36  1  0  0  0  0
 35 37  1  0  0  0  0
 37 39  1  0  0  0  0
 37 38  1  0  0  0  0
 39 40  1  0  0  0  0
 41 39  1  0  0  0  0
 42 41  1  0  0  0  0
M  END
>  <minimizedAffinity>
-6.12184906

$$$$

 OpenBabel03272502573D

 42 45  0  0  0  0  0  0  0  0999 V2000
   37.1140   27.1500   34.0040 C   0  0  0  0  0  0  0  0  0  0  0  0
   37.9240   27.1830   35.1400 C   0  0  0  0  0  0  0  0  0  0  0  0
   38.6150   26.0540   35.5420 C   0  0  0  0  0  0  0  0  0  0  0  0
   38.4530   24.9200   34.7640 C   0  0  0  0  0  0  0  0  0  0  0  0
   37.6500   24.8800   33.6370 C   0  0  0  0  0  0  0  0  0  0  0  0
   37.0010   26.0210   33.2980 N   0  0  0  0  0  0  0  0  0  0  0  0
   37.5470   23.6840   32.9090 N   0  0  0  0  0  0  0  0  0  0  0  0
   38.0430   22.4680   33.5230 C   0  0  0  0  0  0  0  0  0  0  0  0
   37.9430   21.3740   32.4780 C   0  0  0  0  0  0  0  0  0  0  0  0
   36.4780   21.2190   32.0670 C   0  0  0  0  0  0  0  0  0  0  0  0
   35.9130   22.5190   31.5970 C   0  0  0  0  0  0  0  0  0  0  0  0
   36.9780   23.5770   31.5840 C   0  0  0  0  0  0  0  0  0  0  0  0
   38.0500   28.0770   35.7500 H   0  0  0  0  0  0  0  0  0  0  0  0
   39.2380   26.0830   36.4150 H   0  0  0  0  0  0  0  0  0  0  0  0
   39.0130   24.0590   35.1180 H   0  0  0  0  0  0  0  0  0  0  0  0
   39.1290   22.5370   33.7670 H   0  0  0  0  0  0  0  0  0  0  0  0
   37.4170   22.1880   34.3700 H   0  0  0  0  0  0  0  0  0  0  0  0
   38.2740   20.3910   32.8530 H   0  0  0  0  0  0  0  0  0  0  0  0
   38.5520   21.7050   31.5950 H   0  0  0  0  0  0  0  0  0  0  0  0
   35.9450   20.9600   33.0190 H   0  0  0  0  0  0  0  0  0  0  0  0
   36.3810   20.3800   31.3550 H   0  0  0  0  0  0  0  0  0  0  0  0
   35.5700   22.3640   30.5450 H   0  0  0  0  0  0  0  0  0  0  0  0
   35.0510   22.8660   32.1900 H   0  0  0  0  0  0  0  0  0  0  0  0
   36.4420   24.5540   31.4100 H   0  0  0  0  0  0  0  0  0  0  0  0
   37.7120   23.4670   30.7830 H   0  0  0  0  0  0  0  0  0  0  0  0
   35.5990   29.7930   31.9720 C   0  0  0  0  0  0  0  0  0  0  0  0
   35.0450   30.6580   32.9390 C   0  0  0  0  0  0  0  0  0  0  0  0
   35.2120   30.3040   34.2560 C   0  0  0  0  0  0  0  0  0  0  0  0
   35.8870   29.1610   34.5560 N   0  0  0  0  0  0  0  0  0  0  0  0
   36.4030   28.3570   33.6140 C   0  0  0  0  0  0  0  0  0  0  0  0
   36.2550   28.6800   32.3270 N   0  0  0  0  0  0  0  0  0  0  0  0
   35.4760   30.0600   30.9320 H   0  0  0  0  0  0  0  0  0  0  0  0
   34.5250   31.5420   32.6660 H   0  0  0  0  0  0  0  0  0  0  0  0
   34.7080   31.0820   35.3330 N   0  0  0  0  0  0  0  0  0  0  0  0
   33.2950   31.2790   35.5760 C   0  0  0  0  0  3  0  0  0  0  0  0
   32.9370   32.2500   35.1750 H   0  0  0  0  0  0  0  0  0  0  0  0
   33.1270   31.3170   37.0930 C   0  0  0  0  0  3  0  0  0  0  0  0
   32.0390   31.3050   37.3470 H   0  0  0  0  0  0  0  0  0  0  0  0
   33.7820   32.4870   37.5880 N   0  0  0  0  0  0  0  0  0  0  0  0
   33.1900   33.1990   38.0250 H   0  0  0  0  0  0  0  0  0  0  0  0
   34.8330   32.9850   36.7320 C   0  0  0  0  0  2  0  0  0  0  0  0
   35.5960   31.7350   36.2730 C   0  0  0  0  0  2  0  0  0  0  0  0
  1  2  1  0  0  0  0
  2  3  2  0  0  0  0
  2 13  1  0  0  0  0
  3 14  1  0  0  0  0
  4 15  1  0  0  0  0
  4  3  1  0  0  0  0
  5  4  2  0  0  0  0
  6  5  1  0  0  0  0
  6  1  2  0  0  0  0
  7  8  1  0  0  0  0
  7  5  1  0  0  0  0
  8 16  1  0  0  0  0
  8 17  1  0  0  0  0
  9 18  1  0  0  0  0
  9  8  1  0  0  0  0
 10  9  1  0  0  0  0
 10 20  1  0  0  0  0
 11 10  1  0  0  0  0
 11 23  1  0  0  0  0
 12 11  1  0  0  0  0
 12  7  1  0  0  0  0
 19  9  1  0  0  0  0
 21 10  1  0  0  0  0
 22 11  1  0  0  0  0
 24 12  1  0  0  0  0
 25 12  1  0  0  0  0
 26 31  2  0  0  0  0
 26 27  1  0  0  0  0
 27 28  2  0  0  0  0
 28 29  1  0  0  0  0
 28 34  1  0  0  0  0
 30  1  1  0  0  0  0
 30 29  2  0  0  0  0
 31 30  1  0  0  0  0
 32 26  1  0  0  0  0
 33 27  1  0  0  0  0
 34 35  1  0  0  0  0
 34 42  1  0  0  0  0
 35 37  1  0  0  0  0
 36 35  1  0  0  0  0
 37 38  1  0  0  0  0
 37 39  1  0  0  0  0
 39 40  1  0  0  0  0
 41 39  1  0  0  0  0
 42 41  1  0  0  0  0
M  END
>  <minimizedAffinity>
-6.04724312

$$$$

 OpenBabel03272502573D

 42 45  0  0  0  0  0  0  0  0999 V2000
   38.0290   24.7300   34.0730 C   0  0  0  0  0  0  0  0  0  0  0  0
   38.2850   25.0740   35.4020 C   0  0  0  0  0  0  0  0  0  0  0  0
   37.9180   26.3160   35.8890 C   0  0  0  0  0  0  0  0  0  0  0  0
   37.2980   27.1720   34.9940 C   0  0  0  0  0  0  0  0  0  0  0  0
   37.0430   26.8390   33.6760 C   0  0  0  0  0  0  0  0  0  0  0  0
   37.4280   25.6060   33.2620 N   0  0  0  0  0  0  0  0  0  0  0  0
   36.4090   27.7730   32.8410 N   0  0  0  0  0  0  0  0  0  0  0  0
   36.3120   29.1440   33.3030 C   0  0  0  0  0  0  0  0  0  0  0  0
   35.4670   29.8910   32.2900 C   0  0  0  0  0  0  0  0  0  0  0  0
   36.1570   29.8220   30.9270 C   0  0  0  0  0  0  0  0  0  0  0  0
   36.4160   28.4060   30.5290 C   0  0  0  0  0  0  0  0  0  0  0  0
   35.8420   27.4640   31.5470 C   0  0  0  0  0  0  0  0  0  0  0  0
   38.7720   24.3980   36.1040 H   0  0  0  0  0  0  0  0  0  0  0  0
   38.1150   26.5760   36.9110 H   0  0  0  0  0  0  0  0  0  0  0  0
   37.0290   28.1340   35.4200 H   0  0  0  0  0  0  0  0  0  0  0  0
   35.7510   29.2210   34.2630 H   0  0  0  0  0  0  0  0  0  0  0  0
   37.2990   29.6050   33.3290 H   0  0  0  0  0  0  0  0  0  0  0  0
   35.3510   30.9610   32.5350 H   0  0  0  0  0  0  0  0  0  0  0  0
   34.4740   29.3690   32.2410 H   0  0  0  0  0  0  0  0  0  0  0  0
   37.1570   30.2990   31.0940 H   0  0  0  0  0  0  0  0  0  0  0  0
   35.5850   30.4190   30.1930 H   0  0  0  0  0  0  0  0  0  0  0  0
   35.8800   28.2360   29.5630 H   0  0  0  0  0  0  0  0  0  0  0  0
   37.4830   28.1810   30.3720 H   0  0  0  0  0  0  0  0  0  0  0  0
   36.2400   26.4430   31.2830 H   0  0  0  0  0  0  0  0  0  0  0  0
   34.7520   27.3960   31.5340 H   0  0  0  0  0  0  0  0  0  0  0  0
   40.0860   21.8990   32.9930 C   0  0  0  0  0  0  0  0  0  0  0  0
   39.1280   20.9070   32.6970 C   0  0  0  0  0  0  0  0  0  0  0  0
   37.8090   21.2450   32.8780 C   0  0  0  0  0  0  0  0  0  0  0  0
   37.4980   22.4920   33.3250 N   0  0  0  0  0  0  0  0  0  0  0  0
   38.4310   23.4160   33.5990 C   0  0  0  0  0  0  0  0  0  0  0  0
   39.7200   23.1130   33.4300 N   0  0  0  0  0  0  0  0  0  0  0  0
   41.1280   21.6490   32.8550 H   0  0  0  0  0  0  0  0  0  0  0  0
   39.4100   19.9450   32.3500 H   0  0  0  0  0  0  0  0  0  0  0  0
   36.7400   20.3450   32.6190 N   0  0  0  0  0  0  0  0  0  0  0  0
   35.3900   20.5570   33.0960 C   0  0  0  0  0  3  0  0  0  0  0  0
   35.1820   19.9810   34.0200 H   0  0  0  0  0  0  0  0  0  0  0  0
   34.4670   20.0260   32.0020 C   0  0  0  0  0  3  0  0  0  0  0  0
   33.4110   20.3070   32.2370 H   0  0  0  0  0  0  0  0  0  0  0  0
   34.6390   18.6090   31.9180 N   0  0  0  0  0  0  0  0  0  0  0  0
   33.8310   18.0300   32.1610 H   0  0  0  0  0  0  0  0  0  0  0  0
   35.9160   18.1380   32.4000 C   0  0  0  0  0  2  0  0  0  0  0  0
   36.9420   19.1360   31.8460 C   0  0  0  0  0  2  0  0  0  0  0  0
  1  2  1  0  0  0  0
  2  3  2  0  0  0  0
  2 13  1  0  0  0  0
  3 14  1  0  0  0  0
  4 15  1  0  0  0  0
  4  3  1  0  0  0  0
  5  4  2  0  0  0  0
  6  5  1  0  0  0  0
  6  1  2  0  0  0  0
  7  8  1  0  0  0  0
  7  5  1  0  0  0  0
  8 17  1  0  0  0  0
  8 16  1  0  0  0  0
  9 18  1  0  0  0  0
  9  8  1  0  0  0  0
 10 20  1  0  0  0  0
 10  9  1  0  0  0  0
 11 10  1  0  0  0  0
 11 12  1  0  0  0  0
 12  7  1  0  0  0  0
 19  9  1  0  0  0  0
 21 10  1  0  0  0  0
 22 11  1  0  0  0  0
 23 11  1  0  0  0  0
 24 12  1  0  0  0  0
 25 12  1  0  0  0  0
 26 31  1  0  0  0  0
 27 28  1  0  0  0  0
 27 26  2  0  0  0  0
 28 29  2  0  0  0  0
 29 30  1  0  0  0  0
 30  1  1  0  0  0  0
 31 30  2  0  0  0  0
 32 26  1  0  0  0  0
 33 27  1  0  0  0  0
 34 28  1  0  0  0  0
 34 35  1  0  0  0  0
 35 36  1  0  0  0  0
 37 38  1  0  0  0  0
 37 35  1  0  0  0  0
 39 37  1  0  0  0  0
 39 40  1  0  0  0  0
 39 41  1  0  0  0  0
 42 41  1  0  0  0  0
 42 34  1  0  0  0  0
M  END
>  <minimizedAffinity>
-5.84828043

$$$$

 OpenBabel03272502573D

 42 45  0  0  0  0  0  0  0  0999 V2000
   36.2600   27.5010   32.2490 C   0  0  0  0  0  0  0  0  0  0  0  0
   35.6050   26.8550   31.2000 C   0  0  0  0  0  0  0  0  0  0  0  0
   35.7060   25.4830   31.0470 C   0  0  0  0  0  0  0  0  0  0  0  0
   36.4800   24.8130   31.9790 C   0  0  0  0  0  0  0  0  0  0  0  0
   37.1340   25.4470   33.0210 C   0  0  0  0  0  0  0  0  0  0  0  0
   36.9930   26.7930   33.1140 N   0  0  0  0  0  0  0  0  0  0  0  0
   37.8980   24.6850   33.9190 N   0  0  0  0  0  0  0  0  0  0  0  0
   38.2120   23.3170   33.5550 C   0  0  0  0  0  0  0  0  0  0  0  0
   38.9070   22.6920   34.7490 C   0  0  0  0  0  0  0  0  0  0  0  0
   40.1810   23.4840   35.0470 C   0  0  0  0  0  0  0  0  0  0  0  0
   39.8770   24.9320   35.2500 C   0  0  0  0  0  0  0  0  0  0  0  0
   38.3960   25.1670   35.1890 C   0  0  0  0  0  0  0  0  0  0  0  0
   34.9960   27.3840   30.4680 H   0  0  0  0  0  0  0  0  0  0  0  0
   35.2000   24.9900   30.2400 H   0  0  0  0  0  0  0  0  0  0  0  0
   36.5310   23.7400   31.8200 H   0  0  0  0  0  0  0  0  0  0  0  0
   37.2930   22.7050   33.4010 H   0  0  0  0  0  0  0  0  0  0  0  0
   38.9010   23.2990   32.7120 H   0  0  0  0  0  0  0  0  0  0  0  0
   39.2160   21.6490   34.5670 H   0  0  0  0  0  0  0  0  0  0  0  0
   38.2010   22.7680   35.6180 H   0  0  0  0  0  0  0  0  0  0  0  0
   40.7840   23.4090   34.1050 H   0  0  0  0  0  0  0  0  0  0  0  0
   40.7330   23.0000   35.8730 H   0  0  0  0  0  0  0  0  0  0  0  0
   40.2250   25.1970   36.2780 H   0  0  0  0  0  0  0  0  0  0  0  0
   40.3890   25.5950   34.5340 H   0  0  0  0  0  0  0  0  0  0  0  0
   38.2610   26.2860   35.1550 H   0  0  0  0  0  0  0  0  0  0  0  0
   37.8450   24.8040   36.0590 H   0  0  0  0  0  0  0  0  0  0  0  0
   36.3940   31.0840   31.5080 C   0  0  0  0  0  0  0  0  0  0  0  0
   35.8580   31.6690   32.6740 C   0  0  0  0  0  0  0  0  0  0  0  0
   35.4690   30.8120   33.6750 C   0  0  0  0  0  0  0  0  0  0  0  0
   35.6160   29.4710   33.4960 N   0  0  0  0  0  0  0  0  0  0  0  0
   36.1300   28.9440   32.3750 C   0  0  0  0  0  0  0  0  0  0  0  0
   36.5160   29.7550   31.3880 N   0  0  0  0  0  0  0  0  0  0  0  0
   36.7050   31.7460   30.7120 H   0  0  0  0  0  0  0  0  0  0  0  0
   35.7580   32.7200   32.7770 H   0  0  0  0  0  0  0  0  0  0  0  0
   34.9130   31.2630   34.9030 N   0  0  0  0  0  0  0  0  0  0  0  0
   33.4990   31.5060   35.0930 C   0  0  0  0  0  3  0  0  0  0  0  0
   33.2460   32.5810   34.9930 H   0  0  0  0  0  0  0  0  0  0  0  0
   33.1870   31.0890   36.5280 C   0  0  0  0  0  3  0  0  0  0  0  0
   32.0810   31.1000   36.6860 H   0  0  0  0  0  0  0  0  0  0  0  0
   33.8650   31.9840   37.4130 N   0  0  0  0  0  0  0  0  0  0  0  0
   33.2800   32.5780   38.0080 H   0  0  0  0  0  0  0  0  0  0  0  0
   35.0240   32.6220   36.8360 C   0  0  0  0  0  2  0  0  0  0  0  0
   35.7460   31.5100   36.0620 C   0  0  0  0  0  2  0  0  0  0  0  0
  1 30  1  0  0  0  0
  1  6  1  0  0  0  0
  2  1  2  0  0  0  0
  3  2  1  0  0  0  0
  3  4  2  0  0  0  0
  4  5  1  0  0  0  0
  5  6  2  0  0  0  0
  5  7  1  0  0  0  0
  7 12  1  0  0  0  0
  8  7  1  0  0  0  0
  8  9  1  0  0  0  0
  9 10  1  0  0  0  0
  9 19  1  0  0  0  0
 10 11  1  0  0  0  0
 10 21  1  0  0  0  0
 11 22  1  0  0  0  0
 12 11  1  0  0  0  0
 12 25  1  0  0  0  0
 13  2  1  0  0  0  0
 14  3  1  0  0  0  0
 15  4  1  0  0  0  0
 16  8  1  0  0  0  0
 17  8  1  0  0  0  0
 18  9  1  0  0  0  0
 20 10  1  0  0  0  0
 23 11  1  0  0  0  0
 24 12  1  0  0  0  0
 26 27  1  0  0  0  0
 27 33  1  0  0  0  0
 27 28  2  0  0  0  0
 28 34  1  0  0  0  0
 29 28  1  0  0  0  0
 30 29  2  0  0  0  0
 31 26  2  0  0  0  0
 31 30  1  0  0  0  0
 32 26  1  0  0  0  0
 34 35  1  0  0  0  0
 34 42  1  0  0  0  0
 35 37  1  0  0  0  0
 36 35  1  0  0  0  0
 37 38  1  0  0  0  0
 37 39  1  0  0  0  0
 39 40  1  0  0  0  0
 41 39  1  0  0  0  0
 42 41  1  0  0  0  0
M  END
>  <minimizedAffinity>
-5.77591372

$$$$

 OpenBabel03272502573D

 42 45  0  0  0  0  0  0  0  0999 V2000
   37.9550   25.0070   33.9780 C   0  0  0  0  0  0  0  0  0  0  0  0
   38.0940   25.4160   35.3050 C   0  0  0  0  0  0  0  0  0  0  0  0
   37.6920   26.6820   35.6950 C   0  0  0  0  0  0  0  0  0  0  0  0
   37.1580   27.4920   34.7070 C   0  0  0  0  0  0  0  0  0  0  0  0
   37.0190   27.0940   33.3900 C   0  0  0  0  0  0  0  0  0  0  0  0
   37.4320   25.8410   33.0740 N   0  0  0  0  0  0  0  0  0  0  0  0
   36.4660   27.9850   32.4570 N   0  0  0  0  0  0  0  0  0  0  0  0
   36.3350   29.3770   32.8390 C   0  0  0  0  0  0  0  0  0  0  0  0
   35.5870   30.0730   31.7200 C   0  0  0  0  0  0  0  0  0  0  0  0
   36.3940   29.9360   30.4280 C   0  0  0  0  0  0  0  0  0  0  0  0
   36.6790   28.5020   30.1250 C   0  0  0  0  0  0  0  0  0  0  0  0
   36.0130   27.6120   31.1340 C   0  0  0  0  0  0  0  0  0  0  0  0
   38.5140   24.7760   36.0800 H   0  0  0  0  0  0  0  0  0  0  0  0
   37.7990   26.9920   36.7160 H   0  0  0  0  0  0  0  0  0  0  0  0
   36.8570   28.4750   35.0600 H   0  0  0  0  0  0  0  0  0  0  0  0
   35.6920   29.5030   33.7410 H   0  0  0  0  0  0  0  0  0  0  0  0
   37.3180   29.8380   32.9300 H   0  0  0  0  0  0  0  0  0  0  0  0
   35.4550   31.1540   31.8990 H   0  0  0  0  0  0  0  0  0  0  0  0
   34.6000   29.5500   31.6090 H   0  0  0  0  0  0  0  0  0  0  0  0
   37.3780   30.4200   30.6590 H   0  0  0  0  0  0  0  0  0  0  0  0
   35.8920   30.4960   29.6180 H   0  0  0  0  0  0  0  0  0  0  0  0
   36.2300   28.2840   29.1260 H   0  0  0  0  0  0  0  0  0  0  0  0
   37.7550   28.2680   30.0750 H   0  0  0  0  0  0  0  0  0  0  0  0
   36.4280   26.5790   30.9580 H   0  0  0  0  0  0  0  0  0  0  0  0
   34.9280   27.5440   31.0290 H   0  0  0  0  0  0  0  0  0  0  0  0
   40.0830   22.1170   33.2490 C   0  0  0  0  0  0  0  0  0  0  0  0
   39.1520   21.1190   32.8950 C   0  0  0  0  0  0  0  0  0  0  0  0
   37.8250   21.4730   32.9180 C   0  0  0  0  0  0  0  0  0  0  0  0
   37.4820   22.7410   33.2740 N   0  0  0  0  0  0  0  0  0  0  0  0
   38.3900   23.6700   33.6070 C   0  0  0  0  0  0  0  0  0  0  0  0
   39.6870   23.3510   33.5910 N   0  0  0  0  0  0  0  0  0  0  0  0
   41.1310   21.8530   33.2350 H   0  0  0  0  0  0  0  0  0  0  0  0
   39.4580   20.1400   32.6220 H   0  0  0  0  0  0  0  0  0  0  0  0
   36.7800   20.5700   32.5840 N   0  0  0  0  0  0  0  0  0  0  0  0
   36.9690   19.4180   31.7280 C   0  0  0  0  0  3  0  0  0  0  0  0
   36.6470   19.6200   30.6860 H   0  0  0  0  0  0  0  0  0  0  0  0
   36.0660   18.3220   32.2870 C   0  0  0  0  0  3  0  0  0  0  0  0
   36.2870   17.3570   31.7680 H   0  0  0  0  0  0  0  0  0  0  0  0
   34.7060   18.7270   32.1110 N   0  0  0  0  0  0  0  0  0  0  0  0
   34.1320   18.1600   31.4810 H   0  0  0  0  0  0  0  0  0  0  0  0
   34.5220   20.1560   32.0120 C   0  0  0  0  0  2  0  0  0  0  0  0
   35.4360   20.7500   33.0930 C   0  0  0  0  0  2  0  0  0  0  0  0
  1  2  1  0  0  0  0
  2  3  2  0  0  0  0
  2 13  1  0  0  0  0
  3 14  1  0  0  0  0
  4 15  1  0  0  0  0
  4  3  1  0  0  0  0
  5  4  2  0  0  0  0
  6  5  1  0  0  0  0
  6  1  2  0  0  0  0
  7  8  1  0  0  0  0
  7  5  1  0  0  0  0
  8 17  1  0  0  0  0
  8 16  1  0  0  0  0
  9 18  1  0  0  0  0
  9  8  1  0  0  0  0
 10 20  1  0  0  0  0
 10  9  1  0  0  0  0
 11 10  1  0  0  0  0
 11 12  1  0  0  0  0
 12  7  1  0  0  0  0
 19  9  1  0  0  0  0
 21 10  1  0  0  0  0
 22 11  1  0  0  0  0
 23 11  1  0  0  0  0
 24 12  1  0  0  0  0
 25 12  1  0  0  0  0
 26 31  1  0  0  0  0
 27 28  1  0  0  0  0
 27 26  2  0  0  0  0
 28 29  2  0  0  0  0
 29 30  1  0  0  0  0
 30  1  1  0  0  0  0
 31 30  2  0  0  0  0
 32 26  1  0  0  0  0
 33 27  1  0  0  0  0
 34 28  1  0  0  0  0
 34 42  1  0  0  0  0
 35 37  1  0  0  0  0
 35 34  1  0  0  0  0
 36 35  1  0  0  0  0
 38 37  1  0  0  0  0
 39 37  1  0  0  0  0
 40 39  1  0  0  0  0
 41 39  1  0  0  0  0
 41 42  1  0  0  0  0
M  END
>  <minimizedAffinity>
-5.72981119

$$$$

 OpenBabel03272502573D

 42 45  0  0  0  0  0  0  0  0999 V2000
   37.0680   26.7310   31.7020 C   0  0  0  0  0  0  0  0  0  0  0  0
   38.0120   27.3070   30.8510 C   0  0  0  0  0  0  0  0  0  0  0  0
   37.8970   28.6320   30.4670 C   0  0  0  0  0  0  0  0  0  0  0  0
   36.8110   29.3280   30.9710 C   0  0  0  0  0  0  0  0  0  0  0  0
   35.8710   28.7640   31.8140 C   0  0  0  0  0  0  0  0  0  0  0  0
   36.0420   27.4620   32.1510 N   0  0  0  0  0  0  0  0  0  0  0  0
   34.8020   29.5490   32.2760 N   0  0  0  0  0  0  0  0  0  0  0  0
   34.5610   30.8220   31.6250 C   0  0  0  0  0  0  0  0  0  0  0  0
   33.4620   31.5140   32.4050 C   0  0  0  0  0  0  0  0  0  0  0  0
   32.2080   30.6390   32.3720 C   0  0  0  0  0  0  0  0  0  0  0  0
   32.5000   29.2660   32.8820 C   0  0  0  0  0  0  0  0  0  0  0  0
   33.9200   29.1780   33.3610 C   0  0  0  0  0  0  0  0  0  0  0  0
   38.8650   26.7560   30.4560 H   0  0  0  0  0  0  0  0  0  0  0  0
   38.6250   29.0710   29.8130 H   0  0  0  0  0  0  0  0  0  0  0  0
   36.7620   30.3630   30.6430 H   0  0  0  0  0  0  0  0  0  0  0  0
   35.4420   31.5010   31.6990 H   0  0  0  0  0  0  0  0  0  0  0  0
   34.2090   30.6650   30.6060 H   0  0  0  0  0  0  0  0  0  0  0  0
   33.1800   32.4900   31.9750 H   0  0  0  0  0  0  0  0  0  0  0  0
   33.8230   31.6190   33.4620 H   0  0  0  0  0  0  0  0  0  0  0  0
   31.9680   30.5340   31.2820 H   0  0  0  0  0  0  0  0  0  0  0  0
   31.3780   31.1620   32.8800 H   0  0  0  0  0  0  0  0  0  0  0  0
   31.8300   29.0960   33.7600 H   0  0  0  0  0  0  0  0  0  0  0  0
   32.3060   28.4710   32.1440 H   0  0  0  0  0  0  0  0  0  0  0  0
   34.1180   28.0830   33.5430 H   0  0  0  0  0  0  0  0  0  0  0  0
   34.1120   29.7000   34.3000 H   0  0  0  0  0  0  0  0  0  0  0  0
   37.1410   23.0730   31.5550 C   0  0  0  0  0  0  0  0  0  0  0  0
   37.5350   22.7120   32.8600 C   0  0  0  0  0  0  0  0  0  0  0  0
   37.7620   23.7370   33.7460 C   0  0  0  0  0  0  0  0  0  0  0  0
   37.5990   25.0220   33.3300 N   0  0  0  0  0  0  0  0  0  0  0  0
   37.2230   25.3360   32.0810 C   0  0  0  0  0  0  0  0  0  0  0  0
   36.9960   24.3580   31.2020 N   0  0  0  0  0  0  0  0  0  0  0  0
   36.9580   22.2770   30.8480 H   0  0  0  0  0  0  0  0  0  0  0  0
   37.6510   21.6970   33.1480 H   0  0  0  0  0  0  0  0  0  0  0  0
   38.1630   23.5180   35.0920 N   0  0  0  0  0  0  0  0  0  0  0  0
   38.1040   24.5410   36.1140 C   0  0  0  0  0  3  0  0  0  0  0  0
   39.0880   25.0270   36.2720 H   0  0  0  0  0  0  0  0  0  0  0  0
   37.7280   23.8240   37.4080 C   0  0  0  0  0  3  0  0  0  0  0  0
   37.5080   24.5810   38.2020 H   0  0  0  0  0  0  0  0  0  0  0  0
   38.8080   22.9620   37.7740 N   0  0  0  0  0  0  0  0  0  0  0  0
   39.2990   23.1790   38.6450 H   0  0  0  0  0  0  0  0  0  0  0  0
   39.6430   22.5570   36.6670 C   0  0  0  0  0  2  0  0  0  0  0  0
   38.6640   22.2320   35.5300 C   0  0  0  0  0  2  0  0  0  0  0  0
  1 30  1  0  0  0  0
  1  6  1  0  0  0  0
  2  1  2  0  0  0  0
  3  2  1  0  0  0  0
  3  4  2  0  0  0  0
  4  5  1  0  0  0  0
  5  6  2  0  0  0  0
  5  7  1  0  0  0  0
  7 12  1  0  0  0  0
  8 16  1  0  0  0  0
  8  7  1  0  0  0  0
  8  9  1  0  0  0  0
  9 19  1  0  0  0  0
 10  9  1  0  0  0  0
 10 21  1  0  0  0  0
 10 11  1  0  0  0  0
 11 12  1  0  0  0  0
 11 22  1  0  0  0  0
 12 24  1  0  0  0  0
 12 25  1  0  0  0  0
 13  2  1  0  0  0  0
 14  3  1  0  0  0  0
 15  4  1  0  0  0  0
 17  8  1  0  0  0  0
 18  9  1  0  0  0  0
 20 10  1  0  0  0  0
 23 11  1  0  0  0  0
 26 27  1  0  0  0  0
 27 33  1  0  0  0  0
 27 28  2  0  0  0  0
 28 34  1  0  0  0  0
 29 28  1  0  0  0  0
 30 29  2  0  0  0  0
 31 26  2  0  0  0  0
 31 30  1  0  0  0  0
 32 26  1  0  0  0  0
 34 42  1  0  0  0  0
 34 35  1  0  0  0  0
 35 36  1  0  0  0  0
 35 37  1  0  0  0  0
 37 39  1  0  0  0  0
 37 38  1  0  0  0  0
 39 40  1  0  0  0  0
 41 39  1  0  0  0  0
 42 41  1  0  0  0  0
M  END
>  <minimizedAffinity>
-5.68601751

$$$$

 OpenBabel03272502573D

 42 45  0  0  0  0  0  0  0  0999 V2000
   37.8650   27.5360   32.6160 C   0  0  0  0  0  0  0  0  0  0  0  0
   37.8950   27.4230   31.2250 C   0  0  0  0  0  0  0  0  0  0  0  0
   36.9080   28.0090   30.4510 C   0  0  0  0  0  0  0  0  0  0  0  0
   35.9160   28.6940   31.1310 C   0  0  0  0  0  0  0  0  0  0  0  0
   35.8790   28.8090   32.5090 C   0  0  0  0  0  0  0  0  0  0  0  0
   36.8760   28.2120   33.2080 N   0  0  0  0  0  0  0  0  0  0  0  0
   34.8320   29.5250   33.1120 N   0  0  0  0  0  0  0  0  0  0  0  0
   33.6810   29.8630   32.2970 C   0  0  0  0  0  0  0  0  0  0  0  0
   32.7860   30.7460   33.1440 C   0  0  0  0  0  0  0  0  0  0  0  0
   32.3630   29.9680   34.3910 C   0  0  0  0  0  0  0  0  0  0  0  0
   33.5540   29.4680   35.1390 C   0  0  0  0  0  0  0  0  0  0  0  0
   34.8190   29.9530   34.4930 C   0  0  0  0  0  0  0  0  0  0  0  0
   38.6770   26.8830   30.6930 H   0  0  0  0  0  0  0  0  0  0  0  0
   36.9360   27.9210   29.3820 H   0  0  0  0  0  0  0  0  0  0  0  0
   35.1640   29.1360   30.4830 H   0  0  0  0  0  0  0  0  0  0  0  0
   33.9610   30.4900   31.4190 H   0  0  0  0  0  0  0  0  0  0  0  0
   33.1240   28.9630   32.0380 H   0  0  0  0  0  0  0  0  0  0  0  0
   31.8600   31.0420   32.6240 H   0  0  0  0  0  0  0  0  0  0  0  0
   33.3950   31.6410   33.4430 H   0  0  0  0  0  0  0  0  0  0  0  0
   31.8300   29.0670   33.9910 H   0  0  0  0  0  0  0  0  0  0  0  0
   31.6570   30.5770   34.9840 H   0  0  0  0  0  0  0  0  0  0  0  0
   33.5020   29.9070   36.1650 H   0  0  0  0  0  0  0  0  0  0  0  0
   33.5840   28.3710   35.2380 H   0  0  0  0  0  0  0  0  0  0  0  0
   35.6580   29.3850   34.9880 H   0  0  0  0  0  0  0  0  0  0  0  0
   35.0210   31.0170   34.6400 H   0  0  0  0  0  0  0  0  0  0  0  0
   41.1700   26.6400   33.9130 C   0  0  0  0  0  0  0  0  0  0  0  0
   40.8720   25.6770   34.9000 C   0  0  0  0  0  0  0  0  0  0  0  0
   39.5460   25.3690   35.0860 C   0  0  0  0  0  0  0  0  0  0  0  0
   38.6060   25.9940   34.3260 N   0  0  0  0  0  0  0  0  0  0  0  0
   38.9190   26.9060   33.3940 C   0  0  0  0  0  0  0  0  0  0  0  0
   40.2010   27.2220   33.1930 N   0  0  0  0  0  0  0  0  0  0  0  0
   42.2080   26.8920   33.7550 H   0  0  0  0  0  0  0  0  0  0  0  0
   41.6330   25.2110   35.4740 H   0  0  0  0  0  0  0  0  0  0  0  0
   39.1030   24.4180   36.0450 N   0  0  0  0  0  0  0  0  0  0  0  0
   39.8290   23.2060   36.3560 C   0  0  0  0  0  3  0  0  0  0  0  0
   39.4190   22.3270   35.8180 H   0  0  0  0  0  0  0  0  0  0  0  0
   39.6330   22.9670   37.8510 C   0  0  0  0  0  3  0  0  0  0  0  0
   40.3020   22.1360   38.1850 H   0  0  0  0  0  0  0  0  0  0  0  0
   38.2530   22.6710   38.0800 N   0  0  0  0  0  0  0  0  0  0  0  0
   38.0320   21.7340   38.4290 H   0  0  0  0  0  0  0  0  0  0  0  0
   37.3600   23.1920   37.0730 C   0  0  0  0  0  2  0  0  0  0  0  0
   37.8720   24.6100   36.7840 C   0  0  0  0  0  2  0  0  0  0  0  0
  1  6  1  0  0  0  0
  1 30  1  0  0  0  0
  2  1  2  0  0  0  0
  3  4  2  0  0  0  0
  3  2  1  0  0  0  0
  4  5  1  0  0  0  0
  5  7  1  0  0  0  0
  5  6  2  0  0  0  0
  7 12  1  0  0  0  0
  8  7  1  0  0  0  0
  8  9  1  0  0  0  0
  9 19  1  0  0  0  0
  9 10  1  0  0  0  0
 10 21  1  0  0  0  0
 10 11  1  0  0  0  0
 11 23  1  0  0  0  0
 11 22  1  0  0  0  0
 12 25  1  0  0  0  0
 12 24  1  0  0  0  0
 12 11  1  0  0  0  0
 13  2  1  0  0  0  0
 14  3  1  0  0  0  0
 15  4  1  0  0  0  0
 16  8  1  0  0  0  0
 17  8  1  0  0  0  0
 18  9  1  0  0  0  0
 20 10  1  0  0  0  0
 26 27  1  0  0  0  0
 27 28  2  0  0  0  0
 27 33  1  0  0  0  0
 28 34  1  0  0  0  0
 29 28  1  0  0  0  0
 30 29  2  0  0  0  0
 31 30  1  0  0  0  0
 31 26  2  0  0  0  0
 32 26  1  0  0  0  0
 34 35  1  0  0  0  0
 34 42  1  0  0  0  0
 35 37  1  0  0  0  0
 36 35  1  0  0  0  0
 37 39  1  0  0  0  0
 37 38  1  0  0  0  0
 39 40  1  0  0  0  0
 41 39  1  0  0  0  0
 42 41  1  0  0  0  0
M  END
>  <minimizedAffinity>
-5.65554094

$$$$
