
 OpenBabel03272510113D

 35 38  0  0  1  0  0  0  0  0999 V2000
   33.4060   28.4920   48.3470 C   0  0  0  0  0  0  0  0  0  0  0  0
   34.3010   28.0820   49.2700 C   0  0  0  0  0  0  0  0  0  0  0  0
   35.5020   28.7040   49.5440 C   0  0  0  0  0  0  0  0  0  0  0  0
   35.8480   29.8290   48.8460 C   0  0  0  0  0  0  0  0  0  0  0  0
   34.9210   30.2620   47.8840 C   0  0  0  0  0  0  0  0  0  0  0  0
   33.7610   29.6110   47.6600 N   0  0  0  0  0  0  0  0  0  0  0  0
   34.1160   27.2030   49.8700 H   0  0  0  0  0  0  0  0  0  0  0  0
   36.2200   28.3760   50.2820 H   0  0  0  0  0  0  0  0  0  0  0  0
   35.1410   31.1520   47.2970 H   0  0  0  0  0  0  0  0  0  0  0  0
   31.1460   27.6210   49.0430 C   0  0  0  0  0  0  0  0  0  0  0  0
   32.1630   27.8380   48.0710 C   0  0  0  0  0  0  0  0  0  0  0  0
   31.8830   27.3730   46.8110 C   0  0  0  0  0  0  0  0  0  0  0  0
   30.6910   26.7480   46.5560 N   0  0  0  0  0  0  0  0  0  0  0  0
   29.7710   26.5750   47.5240 C   0  0  0  0  0  0  0  0  0  0  0  0
   29.9910   27.0100   48.7750 N   0  0  0  0  0  0  0  0  0  0  0  0
   31.3330   27.9750   50.0460 H   0  0  0  0  0  0  0  0  0  0  0  0
   32.6230   27.5080   46.0180 H   0  0  0  0  0  0  0  0  0  0  0  0
   28.8820   26.0670   47.1760 H   0  0  0  0  0  0  0  0  0  0  0  0
   37.0050   30.5910   48.9770 O   0  0  0  0  0  0  0  0  0  0  0  0
   37.7160   31.0470   47.8720 C   0  0  0  0  0  0  0  0  0  0  0  0
   38.6090   32.0750   48.1720 C   0  0  0  0  0  0  0  0  0  0  0  0
   39.2370   32.4190   46.9760 C   0  0  0  0  0  0  0  0  0  0  0  0
   38.7240   31.6200   46.0300 N   0  0  0  0  0  0  0  0  0  0  0  0
   37.8360   30.8230   46.5640 N   0  0  0  0  0  0  0  0  0  0  0  0
   38.9040   32.6280   49.0630 H   0  0  0  0  0  0  0  0  0  0  0  0
   39.9930   33.1640   46.7610 H   0  0  0  0  0  0  0  0  0  0  0  0
   39.7350   33.5260   44.2870 H   0  0  0  0  0  0  0  0  0  0  0  0
   38.9420   32.8920   44.0050 N   0  0  0  0  0  0  0  0  0  0  0  0
   39.0520   31.5920   44.6380 C   0  0  1  0  0  3  0  0  0  0  0  0
   40.4370   31.0950   44.3290 C   0  0  0  0  0  3  0  0  0  0  0  0
   40.7330   30.1980   44.8790 H   0  0  0  0  0  0  0  0  0  0  0  0
   40.4550   30.7760   42.9200 N   0  0  0  0  0  0  0  0  0  0  0  0
   40.0520   29.8370   42.7140 H   0  0  0  0  0  0  0  0  0  0  0  0
   40.0100   31.8160   42.0570 C   0  0  0  0  0  2  0  0  0  0  0  0
   38.9220   32.6920   42.5710 C   0  0  0  0  0  2  0  0  0  0  0  0
  1  2  1  0  0  0  0
  2  3  2  0  0  0  0
  2  7  1  0  0  0  0
  3  8  1  0  0  0  0
  4 19  1  0  0  0  0
  4  3  1  0  0  0  0
  5  4  2  0  0  0  0
  6  5  1  0  0  0  0
  6  1  2  0  0  0  0
  9  5  1  0  0  0  0
 10 16  1  0  0  0  0
 11  1  1  0  0  0  0
 11 10  2  0  0  0  0
 12 11  1  0  0  0  0
 13 12  2  0  0  0  0
 13 14  1  0  0  0  0
 14 15  2  0  0  0  0
 15 10  1  0  0  0  0
 17 12  1  0  0  0  0
 18 14  1  0  0  0  0
 20 21  1  0  0  0  0
 20 19  1  0  0  0  0
 21 25  1  0  0  0  0
 22 21  2  0  0  0  0
 23 24  1  0  0  0  0
 23 22  1  0  0  0  0
 24 20  2  0  0  0  0
 26 22  1  0  0  0  0
 28 27  1  0  0  0  0
 28 29  1  0  0  0  0
 29 23  1  1  0  0  0
 30 29  1  0  0  0  0
 30 31  1  0  0  0  0
 32 30  1  0  0  0  0
 33 32  1  0  0  0  0
 34 35  1  0  0  0  0
 34 32  1  0  0  0  0
 35 28  1  0  0  0  0
M  END
>  <minimizedAffinity>
-5.81915808

>  <minimizedRMSD>
2.49232149

$$$$
