
 OpenBabel03272503293D

 34 36  0  0  1  0  0  0  0  0999 V2000
   35.2550   29.5730   47.9140 C   0  0  0  0  0  0  0  0  0  0  0  0
   35.2330   29.9710   46.5720 C   0  0  0  0  0  0  0  0  0  0  0  0
   34.1030   29.6560   45.8270 C   0  0  0  0  0  0  0  0  0  0  0  0
   33.1000   28.9770   46.4770 N   0  0  0  0  0  0  0  0  0  0  0  0
   33.1500   28.6130   47.7490 C   0  0  0  0  0  0  0  0  0  0  0  0
   34.2310   28.9080   48.4830 N   0  0  0  0  0  0  0  0  0  0  0  0
   36.0470   30.5020   46.1110 H   0  0  0  0  0  0  0  0  0  0  0  0
   33.9890   29.9200   44.7850 H   0  0  0  0  0  0  0  0  0  0  0  0
   36.4350   29.9080   48.6680 N   0  0  0  0  0  0  0  0  0  0  0  0
   37.5640   30.6610   48.2110 C   0  0  0  0  0  0  0  0  0  0  0  0
   38.0780   31.3000   49.5010 C   0  0  2  0  0  0  0  0  0  0  0  0
   37.0790   30.9080   50.5790 C   0  0  0  0  0  0  0  0  0  0  0  0
   36.6910   29.5410   50.0380 C   0  0  0  0  0  0  0  0  0  0  0  0
   38.3370   30.0850   47.6960 H   0  0  0  0  0  0  0  0  0  0  0  0
   37.1930   31.5080   47.5650 H   0  0  0  0  0  0  0  0  0  0  0  0
   39.0260   30.8040   49.7340 H   0  0  0  0  0  0  0  0  0  0  0  0
   37.5830   30.8590   51.5540 H   0  0  0  0  0  0  0  0  0  0  0  0
   36.1800   31.5520   50.5790 H   0  0  0  0  0  0  0  0  0  0  0  0
   37.5670   28.8680   50.1560 H   0  0  0  0  0  0  0  0  0  0  0  0
   35.7910   29.1520   50.5450 H   0  0  0  0  0  0  0  0  0  0  0  0
   38.2520   32.7770   49.3910 C   0  0  0  0  0  0  0  0  0  0  0  0
   37.0990   33.3550   49.8890 F   0  0  0  0  0  0  0  0  0  0  0  0
   38.3030   33.0760   48.0410 F   0  0  0  0  0  0  0  0  0  0  0  0
   39.3660   33.2490   50.0250 F   0  0  0  0  0  0  0  0  0  0  0  0
   31.8100   27.7330   48.5310 S   0  0  0  0  0  0  0  0  0  0  0  0
   29.9780   25.5040   47.9000 H   0  0  0  0  0  0  0  0  0  0  0  0
   29.5700   26.4590   48.0090 N   0  0  0  0  0  0  0  0  0  0  0  0
   30.4200   27.4820   47.4240 C   0  0  1  0  0  0  0  0  0  0  0  0
   29.5780   28.7270   47.4170 C   0  0  0  0  0  0  0  0  0  0  0  0
   28.6420   28.4940   46.8680 H   0  0  0  0  0  0  0  0  0  0  0  0
   29.2280   29.1470   48.7400 N   0  0  0  0  0  0  0  0  0  0  0  0
   29.5760   30.0980   48.9820 H   0  0  0  0  0  0  0  0  0  0  0  0
   29.3770   28.1870   49.7790 C   0  0  0  0  0  0  0  0  0  0  0  0
   29.4270   26.7670   49.3930 C   0  0  0  0  0  0  0  0  0  0  0  0
  1  6  1  0  0  0  0
  1  9  1  0  0  0  0
  2  1  2  0  0  0  0
  3  4  2  0  0  0  0
  3  2  1  0  0  0  0
  4  5  1  0  0  0  0
  5  6  2  0  0  0  0
  5 25  1  0  0  0  0
  7  2  1  0  0  0  0
  8  3  1  0  0  0  0
  9 13  1  0  0  0  0
 10  9  1  0  0  0  0
 10 11  1  0  0  0  0
 11 16  1  1  0  0  0
 11 12  1  0  0  0  0
 12 17  1  0  0  0  0
 13 19  1  0  0  0  0
 13 20  1  0  0  0  0
 13 12  1  0  0  0  0
 14 10  1  0  0  0  0
 15 10  1  0  0  0  0
 18 12  1  0  0  0  0
 21 11  1  0  0  0  0
 21 22  1  0  0  0  0
 21 24  1  0  0  0  0
 23 21  1  0  0  0  0
 26 27  1  0  0  0  0
 27 34  1  0  0  0  0
 28 27  1  0  0  0  0
 28 25  1  1  0  0  0
 29 28  1  0  0  0  0
 29 31  1  0  0  0  0
 30 29  1  0  0  0  0
 31 32  1  0  0  0  0
 31 33  1  0  0  0  0
 34 33  2  0  0  0  0
M  END
>  <minimizedAffinity>
-6.04852486

>  <minimizedRMSD>
1.62940443

$$$$
