
 OpenBabel03272509523D

 43 46  0  0  0  0  0  0  0  0999 V2000
   34.4650   28.6290   48.2140 C   0  0  0  0  0  0  0  0  0  0  0  0
   33.8740   29.5780   48.2740 H   0  0  0  0  0  0  0  0  0  0  0  0
   35.3000   28.7790   47.4940 H   0  0  0  0  0  0  0  0  0  0  0  0
   33.6230   27.4780   47.7520 C   0  0  0  0  0  0  0  0  0  0  0  0
   33.7330   26.5720   48.3860 H   0  0  0  0  0  0  0  0  0  0  0  0
   33.8990   27.1590   46.7110 H   0  0  0  0  0  0  0  0  0  0  0  0
   32.1820   27.8250   47.6830 C   0  0  0  0  0  0  0  0  0  0  0  0
   31.3890   27.5660   48.7880 C   0  0  0  0  0  0  0  0  0  0  0  0
   30.0560   27.8510   48.8170 C   0  0  0  0  0  0  0  0  0  0  0  0
   29.4860   28.3950   47.7550 N   0  0  0  0  0  0  0  0  0  0  0  0
   30.2580   28.6550   46.6600 C   0  0  0  0  0  0  0  0  0  0  0  0
   31.5810   28.3850   46.6010 N   0  0  0  0  0  0  0  0  0  0  0  0
   31.8520   27.1140   49.6750 H   0  0  0  0  0  0  0  0  0  0  0  0
   29.4700   27.6330   49.7000 H   0  0  0  0  0  0  0  0  0  0  0  0
   29.6860   29.2410   45.4940 N   0  0  0  0  0  0  0  0  0  0  0  0
   29.8780   30.6280   45.1160 C   0  0  0  0  0  3  0  0  0  0  0  0
   30.9320   30.9350   45.1450 H   0  0  0  0  0  0  0  0  0  0  0  0
   29.2910   30.7850   43.7220 C   0  0  0  0  0  3  0  0  0  0  0  0
   28.2010   30.8870   43.7330 H   0  0  0  0  0  0  0  0  0  0  0  0
   29.7400   29.7590   42.8290 N   0  0  0  0  0  0  0  0  0  0  0  0
   30.7600   29.9510   42.6410 H   0  0  0  0  0  0  0  0  0  0  0  0
   29.5090   28.4180   43.2660 C   0  0  0  0  0  2  0  0  0  0  0  0
   28.8610   28.4210   44.6270 C   0  0  0  0  0  2  0  0  0  0  0  0
   35.0170   28.3530   49.5010 O   0  0  0  0  0  0  0  0  0  0  0  0
   37.3520   30.1850   51.5530 C   0  0  0  0  0  0  0  0  0  0  0  0
   38.0790   30.8770   50.5420 C   0  0  0  0  0  0  0  0  0  0  0  0
   37.7050   30.6560   49.2300 C   0  0  0  0  0  0  0  0  0  0  0  0
   36.6620   29.7860   49.0080 N   0  0  0  0  0  0  0  0  0  0  0  0
   36.0070   29.1600   49.9760 C   0  0  0  0  0  0  0  0  0  0  0  0
   36.3530   29.3570   51.2630 N   0  0  0  0  0  0  0  0  0  0  0  0
   37.6980   30.4040   52.5520 H   0  0  0  0  0  0  0  0  0  0  0  0
   38.8890   31.5510   50.7270 H   0  0  0  0  0  0  0  0  0  0  0  0
   38.9490   33.2650   49.0260 F   0  0  0  0  0  0  0  0  0  0  0  0
   38.9080   32.4770   47.9540 C   0  0  0  0  0  0  0  0  0  0  0  0
   38.3220   31.2670   48.0760 C   0  0  0  0  0  0  0  0  0  0  0  0
   38.3340   30.5200   46.8910 C   0  0  0  0  0  0  0  0  0  0  0  0
   38.8890   30.9850   45.7240 C   0  0  0  0  0  0  0  0  0  0  0  0
   39.4730   32.2310   45.6620 C   0  0  0  0  0  0  0  0  0  0  0  0
   39.4760   32.9810   46.8080 C   0  0  0  0  0  0  0  0  0  0  0  0
   37.9050   29.5300   46.8200 H   0  0  0  0  0  0  0  0  0  0  0  0
   38.8950   30.4020   44.8080 H   0  0  0  0  0  0  0  0  0  0  0  0
   39.9050   32.5810   44.7390 H   0  0  0  0  0  0  0  0  0  0  0  0
   39.9250   33.9480   46.7730 H   0  0  0  0  0  0  0  0  0  0  0  0
  1  2  1  0  0  0  0
  1 24  1  0  0  0  0
  3  1  1  0  0  0  0
  4  1  1  0  0  0  0
  4  5  1  0  0  0  0
  6  4  1  0  0  0  0
  7  4  1  0  0  0  0
  7  8  1  0  0  0  0
  8  9  2  0  0  0  0
  8 13  1  0  0  0  0
  9 14  1  0  0  0  0
 10  9  1  0  0  0  0
 11 10  2  0  0  0  0
 12 11  1  0  0  0  0
 12  7  2  0  0  0  0
 15 11  1  0  0  0  0
 16 17  1  0  0  0  0
 16 15  1  0  0  0  0
 18 19  1  0  0  0  0
 18 16  1  0  0  0  0
 20 22  1  0  0  0  0
 20 18  1  0  0  0  0
 21 20  1  0  0  0  0
 22 23  1  0  0  0  0
 23 15  1  0  0  0  0
 24 29  1  0  0  0  0
 25 31  1  0  0  0  0
 26 32  1  0  0  0  0
 26 25  2  0  0  0  0
 27 26  1  0  0  0  0
 28 27  2  0  0  0  0
 28 29  1  0  0  0  0
 29 30  2  0  0  0  0
 30 25  1  0  0  0  0
 34 35  1  0  0  0  0
 34 33  1  0  0  0  0
 35 27  1  0  0  0  0
 36 35  2  0  0  0  0
 37 36  1  0  0  0  0
 38 37  2  0  0  0  0
 38 39  1  0  0  0  0
 39 34  2  0  0  0  0
 40 36  1  0  0  0  0
 41 37  1  0  0  0  0
 42 38  1  0  0  0  0
 43 39  1  0  0  0  0
M  END
>  <minimizedAffinity>
-6.62094688

>  <minimizedRMSD>
0.31088984

$$$$
