
 OpenBabel03272509523D

 43 46  0  0  0  0  0  0  0  0999 V2000
   34.4350   28.6380   48.0990 C   0  0  0  0  0  0  0  0  0  0  0  0
   33.9820   29.6520   47.9580 H   0  0  0  0  0  0  0  0  0  0  0  0
   35.3760   28.5890   47.5080 H   0  0  0  0  0  0  0  0  0  0  0  0
   33.5130   27.5480   47.6430 C   0  0  0  0  0  0  0  0  0  0  0  0
   33.5560   26.6410   48.2830 H   0  0  0  0  0  0  0  0  0  0  0  0
   33.7670   27.2030   46.6050 H   0  0  0  0  0  0  0  0  0  0  0  0
   32.1010   27.9980   47.5690 C   0  0  0  0  0  0  0  0  0  0  0  0
   31.2310   27.6050   48.5730 C   0  0  0  0  0  0  0  0  0  0  0  0
   29.9180   27.9690   48.5880 C   0  0  0  0  0  0  0  0  0  0  0  0
   29.4430   28.7270   47.6140 N   0  0  0  0  0  0  0  0  0  0  0  0
   30.2910   29.1200   46.6190 C   0  0  0  0  0  0  0  0  0  0  0  0
   31.5970   28.7760   46.5760 N   0  0  0  0  0  0  0  0  0  0  0  0
   31.6150   26.9760   49.3870 H   0  0  0  0  0  0  0  0  0  0  0  0
   29.2700   27.6420   49.3910 H   0  0  0  0  0  0  0  0  0  0  0  0
   29.8220   29.9360   45.5500 N   0  0  0  0  0  0  0  0  0  0  0  0
   28.4160   30.1430   45.2550 C   0  0  0  0  0  3  0  0  0  0  0  0
   27.8290   30.4090   46.1440 H   0  0  0  0  0  0  0  0  0  0  0  0
   28.3490   31.2320   44.1970 C   0  0  0  0  0  3  0  0  0  0  0  0
   28.5570   30.8560   43.1900 H   0  0  0  0  0  0  0  0  0  0  0  0
   29.1550   32.3670   44.5380 N   0  0  0  0  0  0  0  0  0  0  0  0
   28.6750   32.8430   45.3470 H   0  0  0  0  0  0  0  0  0  0  0  0
   30.5310   32.0850   44.8070 C   0  0  0  0  0  2  0  0  0  0  0  0
   30.7880   30.6040   44.6990 C   0  0  0  0  0  2  0  0  0  0  0  0
   34.7560   28.4700   49.4800 O   0  0  0  0  0  0  0  0  0  0  0  0
   37.1900   30.0260   51.6410 C   0  0  0  0  0  0  0  0  0  0  0  0
   37.9640   30.7310   50.6740 C   0  0  0  0  0  0  0  0  0  0  0  0
   37.5830   30.6130   49.3520 C   0  0  0  0  0  0  0  0  0  0  0  0
   36.4890   29.8250   49.0760 N   0  0  0  0  0  0  0  0  0  0  0  0
   35.7920   29.1830   50.0040 C   0  0  0  0  0  0  0  0  0  0  0  0
   36.1430   29.2820   51.3010 N   0  0  0  0  0  0  0  0  0  0  0  0
   37.5440   30.1630   52.6520 H   0  0  0  0  0  0  0  0  0  0  0  0
   38.8140   31.3400   50.9000 H   0  0  0  0  0  0  0  0  0  0  0  0
   38.8060   33.2380   49.2510 F   0  0  0  0  0  0  0  0  0  0  0  0
   38.8200   32.4700   48.1630 C   0  0  0  0  0  0  0  0  0  0  0  0
   38.2430   31.2520   48.2360 C   0  0  0  0  0  0  0  0  0  0  0  0
   38.3140   30.5290   47.0400 C   0  0  0  0  0  0  0  0  0  0  0  0
   38.9140   31.0210   45.9070 C   0  0  0  0  0  0  0  0  0  0  0  0
   39.4860   32.2740   45.8940 C   0  0  0  0  0  0  0  0  0  0  0  0
   39.4310   33.0020   47.0530 C   0  0  0  0  0  0  0  0  0  0  0  0
   37.9000   29.5350   46.9310 H   0  0  0  0  0  0  0  0  0  0  0  0
   38.9660   30.4560   44.9810 H   0  0  0  0  0  0  0  0  0  0  0  0
   39.9540   32.6470   44.9970 H   0  0  0  0  0  0  0  0  0  0  0  0
   39.8700   33.9740   47.0550 H   0  0  0  0  0  0  0  0  0  0  0  0
  1 24  1  0  0  0  0
  2  1  1  0  0  0  0
  3  1  1  0  0  0  0
  4  1  1  0  0  0  0
  4  5  1  0  0  0  0
  6  4  1  0  0  0  0
  7  4  1  0  0  0  0
  7  8  1  0  0  0  0
  8  9  2  0  0  0  0
  8 13  1  0  0  0  0
  9 14  1  0  0  0  0
 10  9  1  0  0  0  0
 11 10  2  0  0  0  0
 12 11  1  0  0  0  0
 12  7  2  0  0  0  0
 15 11  1  0  0  0  0
 16 15  1  0  0  0  0
 16 17  1  0  0  0  0
 18 20  1  0  0  0  0
 18 16  1  0  0  0  0
 19 18  1  0  0  0  0
 20 22  1  0  0  0  0
 20 21  1  0  0  0  0
 23 22  1  0  0  0  0
 23 15  1  0  0  0  0
 24 29  1  0  0  0  0
 25 31  1  0  0  0  0
 26 32  1  0  0  0  0
 26 25  2  0  0  0  0
 27 26  1  0  0  0  0
 28 27  2  0  0  0  0
 28 29  1  0  0  0  0
 29 30  2  0  0  0  0
 30 25  1  0  0  0  0
 34 35  1  0  0  0  0
 34 33  1  0  0  0  0
 35 27  1  0  0  0  0
 36 35  2  0  0  0  0
 37 36  1  0  0  0  0
 38 37  2  0  0  0  0
 38 39  1  0  0  0  0
 39 43  1  0  0  0  0
 39 34  2  0  0  0  0
 40 36  1  0  0  0  0
 41 37  1  0  0  0  0
 42 38  1  0  0  0  0
M  END
>  <minimizedAffinity>
-6.91914082

>  <minimizedRMSD>
0.330156237

$$$$
