
 OpenBabel03262522573D

 25 27  0  0  1  0  0  0  0  0999 V2000
   36.0570   30.1630   48.8620 C   0  0  0  0  0  0  0  0  0  0  0  0
   36.1670   29.0230   49.6200 C   0  0  0  0  0  0  0  0  0  0  0  0
   35.0320   28.2910   49.5190 C   0  0  0  0  0  0  0  0  0  0  0  0
   34.2150   28.9870   48.6890 N   0  0  0  0  0  0  0  0  0  0  0  0
   34.8510   30.0960   48.3150 N   0  0  0  0  0  0  0  0  0  0  0  0
   37.0630   28.7840   50.2060 H   0  0  0  0  0  0  0  0  0  0  0  0
   34.7760   27.3500   49.9750 H   0  0  0  0  0  0  0  0  0  0  0  0
   38.0530   33.1880   49.4230 C   0  0  0  0  0  0  0  0  0  0  0  0
   38.9940   33.1230   48.3620 C   0  0  0  0  0  0  0  0  0  0  0  0
   38.9230   32.0450   47.4820 C   0  0  0  0  0  0  0  0  0  0  0  0
   37.9560   31.1210   47.6920 N   0  0  0  0  0  0  0  0  0  0  0  0
   37.0700   31.2080   48.7120 C   0  0  0  0  0  0  0  0  0  0  0  0
   37.1130   32.2310   49.5740 N   0  0  0  0  0  0  0  0  0  0  0  0
   38.1570   34.0450   50.0720 H   0  0  0  0  0  0  0  0  0  0  0  0
   39.7620   33.8320   48.1750 H   0  0  0  0  0  0  0  0  0  0  0  0
   39.5970   31.9220   46.6560 H   0  0  0  0  0  0  0  0  0  0  0  0
   32.9750   30.2350   46.8870 H   0  0  0  0  0  0  0  0  0  0  0  0
   32.5970   29.2710   46.9680 N   0  0  0  0  0  0  0  0  0  0  0  0
   32.8860   28.6560   48.2460 C   0  0  1  0  0  0  0  0  0  0  0  0
   32.7040   27.1650   48.0550 C   0  0  0  0  0  0  0  0  0  0  0  0
   32.3210   26.7040   48.9940 H   0  0  0  0  0  0  0  0  0  0  0  0
   31.6790   26.8860   47.0500 N   0  0  0  0  0  0  0  0  0  0  0  0
   30.8180   27.4200   47.3430 H   0  0  0  0  0  0  0  0  0  0  0  0
   32.1230   27.2860   45.7340 C   0  0  0  0  0  0  0  0  0  0  0  0
   33.1420   28.3900   45.9360 C   0  0  0  0  0  0  0  0  0  0  0  0
  1  2  1  0  0  0  0
  2  6  1  0  0  0  0
  3  2  2  0  0  0  0
  3  7  1  0  0  0  0
  4  3  1  0  0  0  0
  5  4  1  0  0  0  0
  5  1  2  0  0  0  0
  8 13  1  0  0  0  0
  8 14  1  0  0  0  0
  9  8  2  0  0  0  0
 10 11  2  0  0  0  0
 10  9  1  0  0  0  0
 11 12  1  0  0  0  0
 12  1  1  0  0  0  0
 12 13  2  0  0  0  0
 15  9  1  0  0  0  0
 16 10  1  0  0  0  0
 17 18  1  0  0  0  0
 18 19  1  0  0  0  0
 19  4  1  6  0  0  0
 20 19  1  0  0  0  0
 20 21  1  0  0  0  0
 22 23  1  0  0  0  0
 22 20  1  0  0  0  0
 24 25  1  0  0  0  0
 24 22  1  0  0  0  0
 25 18  1  0  0  0  0
M  END
>  <minimizedAffinity>
-4.68545294

>  <minimizedRMSD>
2.4258976

$$$$
