
 OpenBabel03272508413D

 42 45  0  0  1  0  0  0  0  0999 V2000
   35.5400   29.4550   33.4330 N   0  0  0  0  0  0  0  0  0  0  0  0
   36.0800   28.1810   33.8960 C   0  0  0  0  0  0  0  0  0  0  0  0
   37.2850   27.7370   33.1970 C   0  0  2  0  0  0  0  0  0  0  0  0
   37.1640   27.9140   31.7230 N   0  0  0  0  0  0  0  0  0  0  0  0
   36.8490   29.3380   31.4940 C   0  0  0  0  0  0  0  0  0  0  0  0
   35.4330   29.4500   32.0150 C   0  0  0  0  0  0  0  0  0  0  0  0
   36.1800   28.2280   34.9770 H   0  0  0  0  0  0  0  0  0  0  0  0
   35.2370   27.4870   33.5550 H   0  0  0  0  0  0  0  0  0  0  0  0
   38.1930   28.3450   33.3680 H   0  0  0  0  0  0  0  0  0  0  0  0
   38.0680   27.7250   31.2940 H   0  0  0  0  0  0  0  0  0  0  0  0
   37.5590   29.9800   32.0290 H   0  0  0  0  0  0  0  0  0  0  0  0
   36.8890   29.5310   30.4190 H   0  0  0  0  0  0  0  0  0  0  0  0
   34.8430   28.6100   31.6010 H   0  0  0  0  0  0  0  0  0  0  0  0
   35.0230   30.4080   31.6690 H   0  0  0  0  0  0  0  0  0  0  0  0
   38.4780   27.1760   35.8600 Cl  0  0  0  0  0  0  0  0  0  0  0  0
   38.0630   25.9300   34.6840 C   0  0  0  0  0  0  0  0  0  0  0  0
   37.5500   26.3380   33.4830 C   0  0  0  0  0  0  0  0  0  0  0  0
   37.1730   25.4640   32.4500 C   0  0  0  0  0  0  0  0  0  0  0  0
   37.3620   24.1010   32.7220 C   0  0  0  0  0  0  0  0  0  0  0  0
   37.8890   23.6760   33.9460 C   0  0  0  0  0  0  0  0  0  0  0  0
   38.2280   24.5910   34.9010 C   0  0  0  0  0  0  0  0  0  0  0  0
   36.7620   25.5060   31.4720 H   0  0  0  0  0  0  0  0  0  0  0  0
   37.1470   23.2560   32.0810 H   0  0  0  0  0  0  0  0  0  0  0  0
   38.0560   22.6330   34.2040 H   0  0  0  0  0  0  0  0  0  0  0  0
   38.7640   24.1710   36.1510 N   0  0  0  0  0  0  0  0  0  0  0  0
   37.9740   24.3590   37.3230 C   0  0  0  0  0  3  0  0  0  0  0  0
   36.9060   24.4830   37.1250 H   0  0  0  0  0  0  0  0  0  0  0  0
   38.2000   23.2030   38.2710 C   0  0  0  0  0  3  0  0  0  0  0  0
   37.8890   23.5080   39.2930 H   0  0  0  0  0  0  0  0  0  0  0  0
   39.6030   22.8730   38.3660 N   0  0  0  0  0  0  0  0  0  0  0  0
   40.1420   23.7420   38.6470 H   0  0  0  0  0  0  0  0  0  0  0  0
   40.1370   22.4410   37.0790 C   0  0  0  0  0  2  0  0  0  0  0  0
   40.0770   23.5900   36.1010 C   0  0  0  0  0  2  0  0  0  0  0  0
   35.1810   30.5010   34.3140 C   0  0  0  0  0  0  0  0  0  0  0  0
   35.9420   30.8210   35.4380 C   0  0  0  0  0  0  0  0  0  0  0  0
   35.5240   31.8720   36.2580 C   0  0  0  0  0  0  0  0  0  0  0  0
   34.3660   32.5420   35.9020 N   0  0  0  0  0  0  0  0  0  0  0  0
   33.6650   32.1950   34.8040 C   0  0  0  0  0  0  0  0  0  0  0  0
   34.0520   31.2000   34.0190 N   0  0  0  0  0  0  0  0  0  0  0  0
   36.8200   30.2480   35.6340 H   0  0  0  0  0  0  0  0  0  0  0  0
   36.0970   32.1390   37.1350 H   0  0  0  0  0  0  0  0  0  0  0  0
   32.7790   32.7880   34.6260 H   0  0  0  0  0  0  0  0  0  0  0  0
  1  2  1  0  0  0  0
  1 34  1  0  0  0  0
  2  7  1  0  0  0  0
  3  9  1  1  0  0  0
  3 17  1  0  0  0  0
  3  2  1  0  0  0  0
  4  3  1  0  0  0  0
  5  4  1  0  0  0  0
  5  6  1  0  0  0  0
  5 11  1  0  0  0  0
  6  1  1  0  0  0  0
  8  2  1  0  0  0  0
 10  4  1  0  0  0  0
 12  5  1  0  0  0  0
 13  6  1  0  0  0  0
 14  6  1  0  0  0  0
 16 21  1  0  0  0  0
 16 15  1  0  0  0  0
 17 16  2  0  0  0  0
 18 19  2  0  0  0  0
 18 17  1  0  0  0  0
 19 20  1  0  0  0  0
 20 24  1  0  0  0  0
 20 21  2  0  0  0  0
 21 25  1  0  0  0  0
 22 18  1  0  0  0  0
 23 19  1  0  0  0  0
 25 26  1  0  0  0  0
 26 28  1  0  0  0  0
 27 26  1  0  0  0  0
 28 30  1  0  0  0  0
 28 29  1  0  0  0  0
 30 31  1  0  0  0  0
 32 30  1  0  0  0  0
 33 25  1  0  0  0  0
 33 32  1  0  0  0  0
 34 35  1  0  0  0  0
 35 40  1  0  0  0  0
 35 36  2  0  0  0  0
 36 41  1  0  0  0  0
 37 36  1  0  0  0  0
 38 37  2  0  0  0  0
 39 34  2  0  0  0  0
 39 38  1  0  0  0  0
 42 38  1  0  0  0  0
M  END
>  <minimizedAffinity>
-6.29254818

$$$$

 OpenBabel03272508413D

 42 45  0  0  1  0  0  0  0  0999 V2000
   36.4850   27.9710   32.0530 N   0  0  0  0  0  0  0  0  0  0  0  0
   36.6580   26.7240   32.7910 C   0  0  0  0  0  0  0  0  0  0  0  0
   37.8960   26.0050   32.4950 C   0  0  2  0  0  0  0  0  0  0  0  0
   38.1680   25.9570   31.0320 N   0  0  0  0  0  0  0  0  0  0  0  0
   38.1800   27.3550   30.5580 C   0  0  0  0  0  0  0  0  0  0  0  0
   36.7230   27.7520   30.6680 C   0  0  0  0  0  0  0  0  0  0  0  0
   36.5010   26.9310   33.8470 H   0  0  0  0  0  0  0  0  0  0  0  0
   35.8120   26.1120   32.3250 H   0  0  0  0  0  0  0  0  0  0  0  0
   38.8300   26.4950   32.8260 H   0  0  0  0  0  0  0  0  0  0  0  0
   39.1000   25.5730   30.8820 H   0  0  0  0  0  0  0  0  0  0  0  0
   38.8430   27.9660   31.1820 H   0  0  0  0  0  0  0  0  0  0  0  0
   38.5120   27.3640   29.5170 H   0  0  0  0  0  0  0  0  0  0  0  0
   36.1100   26.9500   30.2170 H   0  0  0  0  0  0  0  0  0  0  0  0
   36.5890   28.6900   30.1140 H   0  0  0  0  0  0  0  0  0  0  0  0
   38.8450   25.6360   35.2860 Cl  0  0  0  0  0  0  0  0  0  0  0  0
   38.1960   24.3370   34.2870 C   0  0  0  0  0  0  0  0  0  0  0  0
   37.8270   24.6470   33.0060 C   0  0  0  0  0  0  0  0  0  0  0  0
   37.2960   23.7220   32.0940 C   0  0  0  0  0  0  0  0  0  0  0  0
   37.1620   22.4120   32.5800 C   0  0  0  0  0  0  0  0  0  0  0  0
   37.5400   22.0870   33.8870 C   0  0  0  0  0  0  0  0  0  0  0  0
   38.0460   23.0480   34.7140 C   0  0  0  0  0  0  0  0  0  0  0  0
   36.9360   23.6930   31.0950 H   0  0  0  0  0  0  0  0  0  0  0  0
   36.7810   21.5430   32.0610 H   0  0  0  0  0  0  0  0  0  0  0  0
   37.4570   21.0890   34.3100 H   0  0  0  0  0  0  0  0  0  0  0  0
   38.4330   22.7290   36.0460 N   0  0  0  0  0  0  0  0  0  0  0  0
   39.7310   22.1790   36.2600 C   0  0  0  0  0  3  0  0  0  0  0  0
   40.4350   22.3700   35.4470 H   0  0  0  0  0  0  0  0  0  0  0  0
   40.2850   22.6970   37.5680 C   0  0  0  0  0  3  0  0  0  0  0  0
   41.0990   22.0210   37.9070 H   0  0  0  0  0  0  0  0  0  0  0  0
   39.2850   22.6660   38.6080 N   0  0  0  0  0  0  0  0  0  0  0  0
   38.9040   21.6790   38.6900 H   0  0  0  0  0  0  0  0  0  0  0  0
   38.1550   23.5310   38.2870 C   0  0  0  0  0  2  0  0  0  0  0  0
   37.4510   23.0010   37.0600 C   0  0  0  0  0  2  0  0  0  0  0  0
   36.1180   29.1860   32.6760 C   0  0  0  0  0  0  0  0  0  0  0  0
   35.7260   29.2480   34.0130 C   0  0  0  0  0  0  0  0  0  0  0  0
   35.3840   30.4880   34.5580 C   0  0  0  0  0  0  0  0  0  0  0  0
   35.4540   31.5950   33.7300 N   0  0  0  0  0  0  0  0  0  0  0  0
   35.8400   31.4830   32.4420 C   0  0  0  0  0  0  0  0  0  0  0  0
   36.1670   30.3130   31.9150 N   0  0  0  0  0  0  0  0  0  0  0  0
   35.7010   28.3420   34.5750 H   0  0  0  0  0  0  0  0  0  0  0  0
   35.0780   30.5620   35.5930 H   0  0  0  0  0  0  0  0  0  0  0  0
   35.8570   32.4130   31.8930 H   0  0  0  0  0  0  0  0  0  0  0  0
  1 34  1  0  0  0  0
  1  2  1  0  0  0  0
  2  7  1  0  0  0  0
  3  2  1  0  0  0  0
  3  9  1  1  0  0  0
  3 17  1  0  0  0  0
  4  3  1  0  0  0  0
  5  6  1  0  0  0  0
  5  4  1  0  0  0  0
  5 11  1  0  0  0  0
  6  1  1  0  0  0  0
  8  2  1  0  0  0  0
 10  4  1  0  0  0  0
 12  5  1  0  0  0  0
 13  6  1  0  0  0  0
 14  6  1  0  0  0  0
 16 21  1  0  0  0  0
 16 15  1  0  0  0  0
 17 16  2  0  0  0  0
 18 19  2  0  0  0  0
 18 17  1  0  0  0  0
 19 20  1  0  0  0  0
 20 24  1  0  0  0  0
 20 21  2  0  0  0  0
 21 25  1  0  0  0  0
 22 18  1  0  0  0  0
 23 19  1  0  0  0  0
 25 26  1  0  0  0  0
 25 33  1  0  0  0  0
 26 28  1  0  0  0  0
 27 26  1  0  0  0  0
 28 29  1  0  0  0  0
 28 30  1  0  0  0  0
 30 31  1  0  0  0  0
 32 30  1  0  0  0  0
 33 32  1  0  0  0  0
 34 35  1  0  0  0  0
 35 36  2  0  0  0  0
 35 40  1  0  0  0  0
 36 41  1  0  0  0  0
 37 36  1  0  0  0  0
 38 37  2  0  0  0  0
 39 38  1  0  0  0  0
 39 34  2  0  0  0  0
 42 38  1  0  0  0  0
M  END
>  <minimizedAffinity>
-6.18331528

$$$$

 OpenBabel03272508413D

 42 45  0  0  1  0  0  0  0  0999 V2000
   36.1610   28.5290   31.6460 N   0  0  0  0  0  0  0  0  0  0  0  0
   36.4350   27.3670   32.4830 C   0  0  0  0  0  0  0  0  0  0  0  0
   37.8260   26.9140   32.4640 C   0  0  2  0  0  0  0  0  0  0  0  0
   38.3770   26.8850   31.0810 N   0  0  0  0  0  0  0  0  0  0  0  0
   38.1990   28.2420   30.5270 C   0  0  0  0  0  0  0  0  0  0  0  0
   36.6990   28.3290   30.3450 C   0  0  0  0  0  0  0  0  0  0  0  0
   36.0410   27.5640   33.4760 H   0  0  0  0  0  0  0  0  0  0  0  0
   35.8340   26.5790   31.9110 H   0  0  0  0  0  0  0  0  0  0  0  0
   38.5610   27.5970   32.9270 H   0  0  0  0  0  0  0  0  0  0  0  0
   39.3770   26.7010   31.1290 H   0  0  0  0  0  0  0  0  0  0  0  0
   38.5950   28.9950   31.2200 H   0  0  0  0  0  0  0  0  0  0  0  0
   38.7160   28.2920   29.5660 H   0  0  0  0  0  0  0  0  0  0  0  0
   36.3560   27.4050   29.8430 H   0  0  0  0  0  0  0  0  0  0  0  0
   36.4880   29.2040   29.7150 H   0  0  0  0  0  0  0  0  0  0  0  0
   38.7220   26.8150   35.2950 Cl  0  0  0  0  0  0  0  0  0  0  0  0
   38.2990   25.3920   34.3460 C   0  0  0  0  0  0  0  0  0  0  0  0
   37.9330   25.5860   33.0410 C   0  0  0  0  0  0  0  0  0  0  0  0
   37.5700   24.5520   32.1630 C   0  0  0  0  0  0  0  0  0  0  0  0
   37.6080   23.2610   32.7120 C   0  0  0  0  0  0  0  0  0  0  0  0
   37.9830   23.0540   34.0440 C   0  0  0  0  0  0  0  0  0  0  0  0
   38.3190   24.1160   34.8340 C   0  0  0  0  0  0  0  0  0  0  0  0
   37.2520   24.4260   31.1580 H   0  0  0  0  0  0  0  0  0  0  0  0
   37.3720   22.3230   32.2270 H   0  0  0  0  0  0  0  0  0  0  0  0
   38.0290   22.0750   34.5140 H   0  0  0  0  0  0  0  0  0  0  0  0
   38.7010   23.9180   36.1900 N   0  0  0  0  0  0  0  0  0  0  0  0
   37.7410   24.1870   37.2100 C   0  0  0  0  0  3  0  0  0  0  0  0
   36.7060   24.1840   36.8580 H   0  0  0  0  0  0  0  0  0  0  0  0
   37.9150   23.1940   38.3370 C   0  0  0  0  0  3  0  0  0  0  0  0
   37.4400   23.6030   39.2540 H   0  0  0  0  0  0  0  0  0  0  0  0
   39.3100   23.0110   38.6600 N   0  0  0  0  0  0  0  0  0  0  0  0
   39.7390   23.9560   38.8800 H   0  0  0  0  0  0  0  0  0  0  0  0
   40.0510   22.4610   37.5310 C   0  0  0  0  0  2  0  0  0  0  0  0
   40.0470   23.4590   36.3960 C   0  0  0  0  0  2  0  0  0  0  0  0
   35.4460   29.6570   32.1110 C   0  0  0  0  0  0  0  0  0  0  0  0
   35.2960   29.9350   33.4700 C   0  0  0  0  0  0  0  0  0  0  0  0
   34.5800   31.0720   33.8500 C   0  0  0  0  0  0  0  0  0  0  0  0
   34.0560   31.8670   32.8450 N   0  0  0  0  0  0  0  0  0  0  0  0
   34.2280   31.5560   31.5440 C   0  0  0  0  0  0  0  0  0  0  0  0
   34.9050   30.4800   31.1720 N   0  0  0  0  0  0  0  0  0  0  0  0
   35.7350   29.2650   34.1730 H   0  0  0  0  0  0  0  0  0  0  0  0
   34.4510   31.3090   34.8970 H   0  0  0  0  0  0  0  0  0  0  0  0
   33.7740   32.2480   30.8500 H   0  0  0  0  0  0  0  0  0  0  0  0
  1 34  1  0  0  0  0
  1  2  1  0  0  0  0
  2  7  1  0  0  0  0
  3  2  1  0  0  0  0
  3  9  1  1  0  0  0
  3 17  1  0  0  0  0
  4 10  1  0  0  0  0
  4  3  1  0  0  0  0
  5  4  1  0  0  0  0
  5 11  1  0  0  0  0
  6  5  1  0  0  0  0
  6  1  1  0  0  0  0
  8  2  1  0  0  0  0
 12  5  1  0  0  0  0
 13  6  1  0  0  0  0
 14  6  1  0  0  0  0
 16 21  1  0  0  0  0
 16 15  1  0  0  0  0
 17 16  2  0  0  0  0
 18 19  2  0  0  0  0
 18 17  1  0  0  0  0
 19 20  1  0  0  0  0
 20 24  1  0  0  0  0
 20 21  2  0  0  0  0
 21 25  1  0  0  0  0
 22 18  1  0  0  0  0
 23 19  1  0  0  0  0
 25 33  1  0  0  0  0
 25 26  1  0  0  0  0
 26 28  1  0  0  0  0
 27 26  1  0  0  0  0
 28 30  1  0  0  0  0
 28 29  1  0  0  0  0
 30 31  1  0  0  0  0
 32 30  1  0  0  0  0
 33 32  1  0  0  0  0
 34 35  1  0  0  0  0
 35 36  2  0  0  0  0
 35 40  1  0  0  0  0
 36 41  1  0  0  0  0
 37 36  1  0  0  0  0
 38 37  2  0  0  0  0
 39 38  1  0  0  0  0
 39 34  2  0  0  0  0
 42 38  1  0  0  0  0
M  END
>  <minimizedAffinity>
-5.85198069

$$$$

 OpenBabel03272508413D

 42 45  0  0  1  0  0  0  0  0999 V2000
   38.0220   27.7030   30.2910 N   0  0  0  0  0  0  0  0  0  0  0  0
   38.4350   27.3740   31.6510 C   0  0  0  0  0  0  0  0  0  0  0  0
   37.5690   26.4170   32.3390 C   0  0  2  0  0  0  0  0  0  0  0  0
   36.1280   26.7360   32.1380 N   0  0  0  0  0  0  0  0  0  0  0  0
   35.9050   26.7780   30.6800 C   0  0  0  0  0  0  0  0  0  0  0  0
   36.6400   28.0370   30.2710 C   0  0  0  0  0  0  0  0  0  0  0  0
   39.4840   27.0930   31.6280 H   0  0  0  0  0  0  0  0  0  0  0  0
   38.2550   28.3870   32.1500 H   0  0  0  0  0  0  0  0  0  0  0  0
   37.5740   25.3870   31.9380 H   0  0  0  0  0  0  0  0  0  0  0  0
   35.5670   25.9730   32.5140 H   0  0  0  0  0  0  0  0  0  0  0  0
   36.2990   25.8730   30.2040 H   0  0  0  0  0  0  0  0  0  0  0  0
   34.8310   26.8730   30.4980 H   0  0  0  0  0  0  0  0  0  0  0  0
   36.3520   28.8480   30.9660 H   0  0  0  0  0  0  0  0  0  0  0  0
   36.3320   28.2870   29.2470 H   0  0  0  0  0  0  0  0  0  0  0  0
   38.2210   23.7620   33.5000 Cl  0  0  0  0  0  0  0  0  0  0  0  0
   38.2070   25.2630   34.4230 C   0  0  0  0  0  0  0  0  0  0  0  0
   37.8550   26.4090   33.7630 C   0  0  0  0  0  0  0  0  0  0  0  0
   37.7980   27.6780   34.3630 C   0  0  0  0  0  0  0  0  0  0  0  0
   38.1280   27.7090   35.7270 C   0  0  0  0  0  0  0  0  0  0  0  0
   38.4850   26.5420   36.4090 C   0  0  0  0  0  0  0  0  0  0  0  0
   38.5200   25.3460   35.7510 C   0  0  0  0  0  0  0  0  0  0  0  0
   37.5770   28.6820   34.0990 H   0  0  0  0  0  0  0  0  0  0  0  0
   38.1520   28.5650   36.3880 H   0  0  0  0  0  0  0  0  0  0  0  0
   38.7470   26.5140   37.4630 H   0  0  0  0  0  0  0  0  0  0  0  0
   38.8830   24.1520   36.4340 N   0  0  0  0  0  0  0  0  0  0  0  0
   40.0900   23.4950   36.0530 C   0  0  0  0  0  3  0  0  0  0  0  0
   40.7990   24.1370   35.5240 H   0  0  0  0  0  0  0  0  0  0  0  0
   40.7410   22.8940   37.2780 C   0  0  0  0  0  3  0  0  0  0  0  0
   41.4540   22.1050   36.9570 H   0  0  0  0  0  0  0  0  0  0  0  0
   39.7680   22.2330   38.1160 N   0  0  0  0  0  0  0  0  0  0  0  0
   39.2490   21.5130   37.5360 H   0  0  0  0  0  0  0  0  0  0  0  0
   38.7720   23.1720   38.6180 C   0  0  0  0  0  2  0  0  0  0  0  0
   37.9730   23.7210   37.4590 C   0  0  0  0  0  2  0  0  0  0  0  0
   38.9140   27.6870   29.1940 C   0  0  0  0  0  0  0  0  0  0  0  0
   39.0330   28.7650   28.3160 C   0  0  0  0  0  0  0  0  0  0  0  0
   39.9410   28.6750   27.2590 C   0  0  0  0  0  0  0  0  0  0  0  0
   40.6780   27.5090   27.1430 N   0  0  0  0  0  0  0  0  0  0  0  0
   40.5270   26.4940   28.0180 C   0  0  0  0  0  0  0  0  0  0  0  0
   39.6690   26.5680   29.0240 N   0  0  0  0  0  0  0  0  0  0  0  0
   38.4240   29.6230   28.4850 H   0  0  0  0  0  0  0  0  0  0  0  0
   40.0530   29.4980   26.5660 H   0  0  0  0  0  0  0  0  0  0  0  0
   41.1540   25.6350   27.8270 H   0  0  0  0  0  0  0  0  0  0  0  0
  1  2  1  0  0  0  0
  2  8  1  0  0  0  0
  2  3  1  0  0  0  0
  3  9  1  6  0  0  0
  3 17  1  0  0  0  0
  4  3  1  0  0  0  0
  4 10  1  0  0  0  0
  5  4  1  0  0  0  0
  6  1  1  0  0  0  0
  6  5  1  0  0  0  0
  6 13  1  0  0  0  0
  7  2  1  0  0  0  0
 11  5  1  0  0  0  0
 12  5  1  0  0  0  0
 14  6  1  0  0  0  0
 15 16  1  0  0  0  0
 16 21  1  0  0  0  0
 17 18  1  0  0  0  0
 17 16  2  0  0  0  0
 18 19  2  0  0  0  0
 19 23  1  0  0  0  0
 19 20  1  0  0  0  0
 20 24  1  0  0  0  0
 21 20  2  0  0  0  0
 21 25  1  0  0  0  0
 22 18  1  0  0  0  0
 25 33  1  0  0  0  0
 26 25  1  0  0  0  0
 26 28  1  0  0  0  0
 27 26  1  0  0  0  0
 28 30  1  0  0  0  0
 29 28  1  0  0  0  0
 30 32  1  0  0  0  0
 31 30  1  0  0  0  0
 33 32  1  0  0  0  0
 34  1  1  0  0  0  0
 35 40  1  0  0  0  0
 35 34  2  0  0  0  0
 36 35  1  0  0  0  0
 37 36  2  0  0  0  0
 37 38  1  0  0  0  0
 38 39  2  0  0  0  0
 39 34  1  0  0  0  0
 41 36  1  0  0  0  0
 42 38  1  0  0  0  0
M  END
>  <minimizedAffinity>
-5.64446449

$$$$

 OpenBabel03272508413D

 42 45  0  0  1  0  0  0  0  0999 V2000
   38.5620   26.8820   30.1590 N   0  0  0  0  0  0  0  0  0  0  0  0
   38.0780   25.9190   31.1420 C   0  0  0  0  0  0  0  0  0  0  0  0
   39.1120   25.3600   32.0130 C   0  0  2  0  0  0  0  0  0  0  0  0
   40.3290   24.9770   31.2450 N   0  0  0  0  0  0  0  0  0  0  0  0
   40.7690   26.1840   30.5200 C   0  0  0  0  0  0  0  0  0  0  0  0
   39.6890   26.3510   29.4730 C   0  0  0  0  0  0  0  0  0  0  0  0
   37.2400   26.3650   31.6700 H   0  0  0  0  0  0  0  0  0  0  0  0
   37.7630   25.0750   30.4360 H   0  0  0  0  0  0  0  0  0  0  0  0
   39.5750   26.0670   32.7250 H   0  0  0  0  0  0  0  0  0  0  0  0
   41.0660   24.7260   31.9020 H   0  0  0  0  0  0  0  0  0  0  0  0
   40.8440   27.0380   31.2040 H   0  0  0  0  0  0  0  0  0  0  0  0
   41.7370   25.9750   30.0560 H   0  0  0  0  0  0  0  0  0  0  0  0
   39.5150   25.3690   28.9940 H   0  0  0  0  0  0  0  0  0  0  0  0
   40.0490   27.0760   28.7310 H   0  0  0  0  0  0  0  0  0  0  0  0
   39.8910   25.1420   34.8710 Cl  0  0  0  0  0  0  0  0  0  0  0  0
   38.8570   23.9810   34.0410 C   0  0  0  0  0  0  0  0  0  0  0  0
   38.6080   24.1920   32.7120 C   0  0  0  0  0  0  0  0  0  0  0  0
   37.8050   23.3560   31.9190 C   0  0  0  0  0  0  0  0  0  0  0  0
   37.2560   22.2490   32.5840 C   0  0  0  0  0  0  0  0  0  0  0  0
   37.5080   22.0250   33.9410 C   0  0  0  0  0  0  0  0  0  0  0  0
   38.2980   22.8890   34.6430 C   0  0  0  0  0  0  0  0  0  0  0  0
   37.4560   23.2900   30.9180 H   0  0  0  0  0  0  0  0  0  0  0  0
   36.6140   21.4770   32.1780 H   0  0  0  0  0  0  0  0  0  0  0  0
   37.1080   21.1830   34.5000 H   0  0  0  0  0  0  0  0  0  0  0  0
   38.5620   22.6720   36.0250 N   0  0  0  0  0  0  0  0  0  0  0  0
   39.7870   22.0400   36.3890 C   0  0  0  0  0  3  0  0  0  0  0  0
   40.5610   22.0920   35.6180 H   0  0  0  0  0  0  0  0  0  0  0  0
   40.2940   22.6370   37.6820 C   0  0  0  0  0  3  0  0  0  0  0  0
   41.0190   21.9330   38.1440 H   0  0  0  0  0  0  0  0  0  0  0  0
   39.2250   22.7920   38.6400 N   0  0  0  0  0  0  0  0  0  0  0  0
   38.7530   21.8530   38.7830 H   0  0  0  0  0  0  0  0  0  0  0  0
   38.2030   23.7110   38.1540 C   0  0  0  0  0  2  0  0  0  0  0  0
   37.5410   23.1230   36.9310 C   0  0  0  0  0  2  0  0  0  0  0  0
   37.9510   28.1410   29.9540 C   0  0  0  0  0  0  0  0  0  0  0  0
   37.1110   28.7230   30.9030 C   0  0  0  0  0  0  0  0  0  0  0  0
   36.5490   29.9720   30.6280 C   0  0  0  0  0  0  0  0  0  0  0  0
   36.8620   30.5650   29.4170 N   0  0  0  0  0  0  0  0  0  0  0  0
   37.6810   29.9610   28.5320 C   0  0  0  0  0  0  0  0  0  0  0  0
   38.2190   28.7770   28.7820 N   0  0  0  0  0  0  0  0  0  0  0  0
   36.9270   28.1920   31.8080 H   0  0  0  0  0  0  0  0  0  0  0  0
   35.8960   30.4450   31.3490 H   0  0  0  0  0  0  0  0  0  0  0  0
   37.8530   30.5170   27.6220 H   0  0  0  0  0  0  0  0  0  0  0  0
  1  2  1  0  0  0  0
  2  7  1  0  0  0  0
  2  3  1  0  0  0  0
  3 17  1  0  0  0  0
  3  9  1  1  0  0  0
  4 10  1  0  0  0  0
  4  3  1  0  0  0  0
  5 11  1  0  0  0  0
  5  4  1  0  0  0  0
  6  1  1  0  0  0  0
  6  5  1  0  0  0  0
  8  2  1  0  0  0  0
 12  5  1  0  0  0  0
 13  6  1  0  0  0  0
 14  6  1  0  0  0  0
 16 21  1  0  0  0  0
 16 15  1  0  0  0  0
 17 16  2  0  0  0  0
 18 19  2  0  0  0  0
 18 17  1  0  0  0  0
 19 20  1  0  0  0  0
 20 24  1  0  0  0  0
 20 21  2  0  0  0  0
 21 25  1  0  0  0  0
 22 18  1  0  0  0  0
 23 19  1  0  0  0  0
 25 26  1  0  0  0  0
 25 33  1  0  0  0  0
 26 28  1  0  0  0  0
 27 26  1  0  0  0  0
 28 29  1  0  0  0  0
 28 30  1  0  0  0  0
 30 31  1  0  0  0  0
 32 30  1  0  0  0  0
 33 32  1  0  0  0  0
 34  1  1  0  0  0  0
 34 35  1  0  0  0  0
 35 40  1  0  0  0  0
 36 35  2  0  0  0  0
 36 41  1  0  0  0  0
 37 36  1  0  0  0  0
 38 39  1  0  0  0  0
 38 37  2  0  0  0  0
 39 34  2  0  0  0  0
 42 38  1  0  0  0  0
M  END
>  <minimizedAffinity>
-5.60543203

$$$$

 OpenBabel03272508413D

 42 45  0  0  1  0  0  0  0  0999 V2000
   37.4870   24.5290   32.6260 N   0  0  0  0  0  0  0  0  0  0  0  0
   36.7370   25.7560   32.3790 C   0  0  0  0  0  0  0  0  0  0  0  0
   37.5610   26.9310   32.0970 C   0  0  2  0  0  0  0  0  0  0  0  0
   38.7160   27.0310   33.0330 N   0  0  0  0  0  0  0  0  0  0  0  0
   39.4580   25.7600   32.9260 C   0  0  0  0  0  0  0  0  0  0  0  0
   38.5150   24.7720   33.5790 C   0  0  0  0  0  0  0  0  0  0  0  0
   35.9830   25.5460   31.6260 H   0  0  0  0  0  0  0  0  0  0  0  0
   36.2950   25.9170   33.4220 H   0  0  0  0  0  0  0  0  0  0  0  0
   38.1170   26.9110   31.1420 H   0  0  0  0  0  0  0  0  0  0  0  0
   39.3330   27.7760   32.7160 H   0  0  0  0  0  0  0  0  0  0  0  0
   39.6700   25.5260   31.8760 H   0  0  0  0  0  0  0  0  0  0  0  0
   40.3860   25.8540   33.4960 H   0  0  0  0  0  0  0  0  0  0  0  0
   38.1640   25.2060   34.5330 H   0  0  0  0  0  0  0  0  0  0  0  0
   39.0760   23.8470   33.7650 H   0  0  0  0  0  0  0  0  0  0  0  0
   36.5970   27.6080   34.8250 Cl  0  0  0  0  0  0  0  0  0  0  0  0
   36.2880   28.5950   33.3970 C   0  0  0  0  0  0  0  0  0  0  0  0
   36.7670   28.1420   32.1980 C   0  0  0  0  0  0  0  0  0  0  0  0
   36.6000   28.8170   30.9780 C   0  0  0  0  0  0  0  0  0  0  0  0
   35.8850   30.0230   31.0550 C   0  0  0  0  0  0  0  0  0  0  0  0
   35.3910   30.4910   32.2760 C   0  0  0  0  0  0  0  0  0  0  0  0
   35.5990   29.7750   33.4200 C   0  0  0  0  0  0  0  0  0  0  0  0
   36.8600   28.7040   29.9550 H   0  0  0  0  0  0  0  0  0  0  0  0
   35.6370   30.7040   30.2520 H   0  0  0  0  0  0  0  0  0  0  0  0
   34.8310   31.4160   32.3880 H   0  0  0  0  0  0  0  0  0  0  0  0
   35.1010   30.2410   34.6690 N   0  0  0  0  0  0  0  0  0  0  0  0
   35.9850   30.9680   35.5200 C   0  0  0  0  0  3  0  0  0  0  0  0
   36.8460   31.4010   35.0040 H   0  0  0  0  0  0  0  0  0  0  0  0
   35.2100   32.0470   36.2430 C   0  0  0  0  0  3  0  0  0  0  0  0
   35.7840   32.3640   37.1400 H   0  0  0  0  0  0  0  0  0  0  0  0
   33.9500   31.5430   36.7360 N   0  0  0  0  0  0  0  0  0  0  0  0
   34.1350   30.6960   37.3470 H   0  0  0  0  0  0  0  0  0  0  0  0
   33.0890   31.1010   35.6460 C   0  0  0  0  0  2  0  0  0  0  0  0
   33.7280   29.9220   34.9500 C   0  0  0  0  0  2  0  0  0  0  0  0
   37.1820   23.3030   31.9910 C   0  0  0  0  0  0  0  0  0  0  0  0
   38.1720   22.4570   31.4920 C   0  0  0  0  0  0  0  0  0  0  0  0
   37.7900   21.2600   30.8820 C   0  0  0  0  0  0  0  0  0  0  0  0
   36.4360   20.9800   30.8080 N   0  0  0  0  0  0  0  0  0  0  0  0
   35.5170   21.8320   31.3070 C   0  0  0  0  0  0  0  0  0  0  0  0
   35.8670   22.9690   31.8870 N   0  0  0  0  0  0  0  0  0  0  0  0
   39.1900   22.7560   31.5930 H   0  0  0  0  0  0  0  0  0  0  0  0
   38.5390   20.5870   30.4880 H   0  0  0  0  0  0  0  0  0  0  0  0
   34.4920   21.5080   31.1920 H   0  0  0  0  0  0  0  0  0  0  0  0
  1  6  1  0  0  0  0
  2  1  1  0  0  0  0
  2  8  1  0  0  0  0
  3  9  1  6  0  0  0
  3 17  1  0  0  0  0
  3  2  1  0  0  0  0
  3  4  1  0  0  0  0
  5  4  1  0  0  0  0
  5 12  1  0  0  0  0
  5  6  1  0  0  0  0
  6 14  1  0  0  0  0
  6 13  1  0  0  0  0
  7  2  1  0  0  0  0
 10  4  1  0  0  0  0
 11  5  1  0  0  0  0
 16 21  1  0  0  0  0
 16 15  1  0  0  0  0
 17 16  2  0  0  0  0
 18 19  2  0  0  0  0
 18 17  1  0  0  0  0
 19 20  1  0  0  0  0
 20 24  1  0  0  0  0
 20 21  2  0  0  0  0
 21 25  1  0  0  0  0
 22 18  1  0  0  0  0
 23 19  1  0  0  0  0
 25 33  1  0  0  0  0
 25 26  1  0  0  0  0
 26 28  1  0  0  0  0
 27 26  1  0  0  0  0
 28 30  1  0  0  0  0
 28 29  1  0  0  0  0
 30 31  1  0  0  0  0
 32 30  1  0  0  0  0
 33 32  1  0  0  0  0
 34  1  1  0  0  0  0
 35 40  1  0  0  0  0
 35 34  2  0  0  0  0
 36 35  1  0  0  0  0
 37 36  2  0  0  0  0
 37 38  1  0  0  0  0
 38 39  2  0  0  0  0
 39 34  1  0  0  0  0
 41 36  1  0  0  0  0
 42 38  1  0  0  0  0
M  END
>  <minimizedAffinity>
-5.46522665

$$$$

 OpenBabel03272508413D

 42 45  0  0  1  0  0  0  0  0999 V2000
   35.5280   30.1300   32.6370 N   0  0  0  0  0  0  0  0  0  0  0  0
   35.8090   28.7050   32.7700 C   0  0  0  0  0  0  0  0  0  0  0  0
   36.6760   28.1520   31.7310 C   0  0  2  0  0  0  0  0  0  0  0  0
   36.2860   28.6320   30.3760 N   0  0  0  0  0  0  0  0  0  0  0  0
   36.3070   30.1070   30.4280 C   0  0  0  0  0  0  0  0  0  0  0  0
   35.1160   30.4220   31.3080 C   0  0  0  0  0  0  0  0  0  0  0  0
   36.1510   28.5200   33.7850 H   0  0  0  0  0  0  0  0  0  0  0  0
   34.7620   28.2890   32.5690 H   0  0  0  0  0  0  0  0  0  0  0  0
   37.7240   28.5030   31.7410 H   0  0  0  0  0  0  0  0  0  0  0  0
   36.9940   28.3380   29.7060 H   0  0  0  0  0  0  0  0  0  0  0  0
   37.2570   30.4640   30.8430 H   0  0  0  0  0  0  0  0  0  0  0  0
   36.1590   30.4900   29.4150 H   0  0  0  0  0  0  0  0  0  0  0  0
   34.2550   29.8260   30.9520 H   0  0  0  0  0  0  0  0  0  0  0  0
   34.9020   31.4950   31.2120 H   0  0  0  0  0  0  0  0  0  0  0  0
   38.9070   26.8110   33.1630 Cl  0  0  0  0  0  0  0  0  0  0  0  0
   37.5680   25.9530   32.4020 C   0  0  0  0  0  0  0  0  0  0  0  0
   36.6260   26.7010   31.7490 C   0  0  0  0  0  0  0  0  0  0  0  0
   35.5060   26.1610   31.0970 C   0  0  0  0  0  0  0  0  0  0  0  0
   35.4010   24.7630   31.1490 C   0  0  0  0  0  0  0  0  0  0  0  0
   36.3600   23.9920   31.8120 C   0  0  0  0  0  0  0  0  0  0  0  0
   37.4200   24.5950   32.4250 C   0  0  0  0  0  0  0  0  0  0  0  0
   34.6590   26.4910   30.5480 H   0  0  0  0  0  0  0  0  0  0  0  0
   34.6300   24.1350   30.7210 H   0  0  0  0  0  0  0  0  0  0  0  0
   36.3240   22.9070   31.8800 H   0  0  0  0  0  0  0  0  0  0  0  0
   38.4030   23.8210   33.1050 N   0  0  0  0  0  0  0  0  0  0  0  0
   39.5250   23.3500   32.3620 C   0  0  0  0  0  3  0  0  0  0  0  0
   39.7130   23.9050   31.4390 H   0  0  0  0  0  0  0  0  0  0  0  0
   40.7530   23.3690   33.2430 C   0  0  0  0  0  3  0  0  0  0  0  0
   41.5190   22.6900   32.8100 H   0  0  0  0  0  0  0  0  0  0  0  0
   40.4600   22.8470   34.5580 N   0  0  0  0  0  0  0  0  0  0  0  0
   40.0460   21.8760   34.4570 H   0  0  0  0  0  0  0  0  0  0  0  0
   39.4670   23.6630   35.2450 C   0  0  0  0  0  2  0  0  0  0  0  0
   38.1550   23.5880   34.5010 C   0  0  0  0  0  2  0  0  0  0  0  0
   35.6520   31.0390   33.7140 C   0  0  0  0  0  0  0  0  0  0  0  0
   35.6570   30.6210   35.0440 C   0  0  0  0  0  0  0  0  0  0  0  0
   35.7900   31.5800   36.0510 C   0  0  0  0  0  0  0  0  0  0  0  0
   35.9090   32.9040   35.6650 N   0  0  0  0  0  0  0  0  0  0  0  0
   35.8990   33.2580   34.3640 C   0  0  0  0  0  0  0  0  0  0  0  0
   35.7740   32.3580   33.4010 N   0  0  0  0  0  0  0  0  0  0  0  0
   35.5590   29.5790   35.2470 H   0  0  0  0  0  0  0  0  0  0  0  0
   35.7970   31.2810   37.0900 H   0  0  0  0  0  0  0  0  0  0  0  0
   35.9990   34.3190   34.1830 H   0  0  0  0  0  0  0  0  0  0  0  0
  1  2  1  0  0  0  0
  1 34  1  0  0  0  0
  2  7  1  0  0  0  0
  3  9  1  1  0  0  0
  3 17  1  0  0  0  0
  3  2  1  0  0  0  0
  4  5  1  0  0  0  0
  4  3  1  0  0  0  0
  5 11  1  0  0  0  0
  5  6  1  0  0  0  0
  6  1  1  0  0  0  0
  8  2  1  0  0  0  0
 10  4  1  0  0  0  0
 12  5  1  0  0  0  0
 13  6  1  0  0  0  0
 14  6  1  0  0  0  0
 16 21  1  0  0  0  0
 16 15  1  0  0  0  0
 17 16  2  0  0  0  0
 18 19  2  0  0  0  0
 18 17  1  0  0  0  0
 19 20  1  0  0  0  0
 20 24  1  0  0  0  0
 20 21  2  0  0  0  0
 21 25  1  0  0  0  0
 22 18  1  0  0  0  0
 23 19  1  0  0  0  0
 25 33  1  0  0  0  0
 26 25  1  0  0  0  0
 26 28  1  0  0  0  0
 27 26  1  0  0  0  0
 28 30  1  0  0  0  0
 29 28  1  0  0  0  0
 30 32  1  0  0  0  0
 31 30  1  0  0  0  0
 33 32  1  0  0  0  0
 34 35  1  0  0  0  0
 35 40  1  0  0  0  0
 35 36  2  0  0  0  0
 36 41  1  0  0  0  0
 37 36  1  0  0  0  0
 38 37  2  0  0  0  0
 39 34  2  0  0  0  0
 39 38  1  0  0  0  0
 42 38  1  0  0  0  0
M  END
>  <minimizedAffinity>
-5.43346596

$$$$

 OpenBabel03272508413D

 42 45  0  0  1  0  0  0  0  0999 V2000
   38.5510   26.8570   30.8040 N   0  0  0  0  0  0  0  0  0  0  0  0
   38.4210   25.4730   31.2470 C   0  0  0  0  0  0  0  0  0  0  0  0
   37.1450   25.1520   31.8860 C   0  0  2  0  0  0  0  0  0  0  0  0
   36.7370   26.2040   32.8580 N   0  0  0  0  0  0  0  0  0  0  0  0
   36.7100   27.4790   32.1140 C   0  0  0  0  0  0  0  0  0  0  0  0
   38.1790   27.7390   31.8560 C   0  0  0  0  0  0  0  0  0  0  0  0
   38.6800   24.8250   30.4140 H   0  0  0  0  0  0  0  0  0  0  0  0
   39.2070   25.4680   32.0780 H   0  0  0  0  0  0  0  0  0  0  0  0
   36.2570   25.1730   31.2280 H   0  0  0  0  0  0  0  0  0  0  0  0
   35.7870   26.0110   33.1720 H   0  0  0  0  0  0  0  0  0  0  0  0
   36.1210   27.3750   31.1940 H   0  0  0  0  0  0  0  0  0  0  0  0
   36.2820   28.2470   32.7620 H   0  0  0  0  0  0  0  0  0  0  0  0
   38.7300   27.5860   32.8020 H   0  0  0  0  0  0  0  0  0  0  0  0
   38.2800   28.7810   31.5220 H   0  0  0  0  0  0  0  0  0  0  0  0
   38.4950   25.2250   34.5320 Cl  0  0  0  0  0  0  0  0  0  0  0  0
   37.7960   23.7710   33.8230 C   0  0  0  0  0  0  0  0  0  0  0  0
   37.2330   23.8790   32.5800 C   0  0  0  0  0  0  0  0  0  0  0  0
   36.6390   22.8110   31.8880 C   0  0  0  0  0  0  0  0  0  0  0  0
   36.6570   21.5800   32.5620 C   0  0  0  0  0  0  0  0  0  0  0  0
   37.2320   21.4600   33.8300 C   0  0  0  0  0  0  0  0  0  0  0  0
   37.7880   22.5500   34.4370 C   0  0  0  0  0  0  0  0  0  0  0  0
   36.1460   22.6250   30.9660 H   0  0  0  0  0  0  0  0  0  0  0  0
   36.2630   20.6300   32.2250 H   0  0  0  0  0  0  0  0  0  0  0  0
   37.2720   20.5300   34.3910 H   0  0  0  0  0  0  0  0  0  0  0  0
   38.3760   22.4410   35.7290 N   0  0  0  0  0  0  0  0  0  0  0  0
   39.7430   22.0450   35.8180 C   0  0  0  0  0  3  0  0  0  0  0  0
   40.3120   22.1960   34.8970 H   0  0  0  0  0  0  0  0  0  0  0  0
   40.4020   22.7750   36.9670 C   0  0  0  0  0  3  0  0  0  0  0  0
   41.3210   22.2260   37.2620 H   0  0  0  0  0  0  0  0  0  0  0  0
   39.5530   22.7840   38.1350 N   0  0  0  0  0  0  0  0  0  0  0  0
   39.2960   21.7850   38.3810 H   0  0  0  0  0  0  0  0  0  0  0  0
   38.3040   23.4930   37.8800 C   0  0  0  0  0  2  0  0  0  0  0  0
   37.5090   22.7470   36.8340 C   0  0  0  0  0  2  0  0  0  0  0  0
   38.9990   27.2090   29.5100 C   0  0  0  0  0  0  0  0  0  0  0  0
   38.7490   28.4630   28.9520 C   0  0  0  0  0  0  0  0  0  0  0  0
   39.2310   28.7370   27.6690 C   0  0  0  0  0  0  0  0  0  0  0  0
   39.9360   27.7370   27.0210 N   0  0  0  0  0  0  0  0  0  0  0  0
   40.1510   26.5410   27.6040 C   0  0  0  0  0  0  0  0  0  0  0  0
   39.7000   26.2700   28.8190 N   0  0  0  0  0  0  0  0  0  0  0  0
   38.1970   29.1710   29.5260 H   0  0  0  0  0  0  0  0  0  0  0  0
   39.0510   29.7010   27.2150 H   0  0  0  0  0  0  0  0  0  0  0  0
   40.7130   25.8390   27.0040 H   0  0  0  0  0  0  0  0  0  0  0  0
  1  2  1  0  0  0  0
  1  6  1  0  0  0  0
  2  3  1  0  0  0  0
  2  8  1  0  0  0  0
  3  9  1  6  0  0  0
  3 17  1  0  0  0  0
  3  4  1  0  0  0  0
  4 10  1  0  0  0  0
  5 12  1  0  0  0  0
  5  4  1  0  0  0  0
  6  5  1  0  0  0  0
  6 13  1  0  0  0  0
  7  2  1  0  0  0  0
 11  5  1  0  0  0  0
 14  6  1  0  0  0  0
 16 21  1  0  0  0  0
 16 15  1  0  0  0  0
 17 16  2  0  0  0  0
 18 19  2  0  0  0  0
 18 17  1  0  0  0  0
 19 20  1  0  0  0  0
 20 24  1  0  0  0  0
 20 21  2  0  0  0  0
 21 25  1  0  0  0  0
 22 18  1  0  0  0  0
 23 19  1  0  0  0  0
 25 26  1  0  0  0  0
 25 33  1  0  0  0  0
 26 28  1  0  0  0  0
 27 26  1  0  0  0  0
 28 29  1  0  0  0  0
 28 30  1  0  0  0  0
 30 31  1  0  0  0  0
 32 30  1  0  0  0  0
 33 32  1  0  0  0  0
 34  1  1  0  0  0  0
 35 34  1  0  0  0  0
 35 40  1  0  0  0  0
 36 35  2  0  0  0  0
 37 38  2  0  0  0  0
 37 36  1  0  0  0  0
 38 39  1  0  0  0  0
 39 34  2  0  0  0  0
 41 36  1  0  0  0  0
 42 38  1  0  0  0  0
M  END
>  <minimizedAffinity>
-5.39960527

$$$$

 OpenBabel03272508413D

 42 45  0  0  1  0  0  0  0  0999 V2000
   36.6960   27.5160   32.1990 N   0  0  0  0  0  0  0  0  0  0  0  0
   36.9250   26.3260   33.0110 C   0  0  0  0  0  0  0  0  0  0  0  0
   38.2060   25.6610   32.7750 C   0  0  2  0  0  0  0  0  0  0  0  0
   38.5060   25.5450   31.3210 N   0  0  0  0  0  0  0  0  0  0  0  0
   38.4500   26.9120   30.7680 C   0  0  0  0  0  0  0  0  0  0  0  0
   36.9710   27.2320   30.8330 C   0  0  0  0  0  0  0  0  0  0  0  0
   36.7370   26.5830   34.0500 H   0  0  0  0  0  0  0  0  0  0  0  0
   36.1220   25.6410   32.5680 H   0  0  0  0  0  0  0  0  0  0  0  0
   39.1050   26.2220   33.0910 H   0  0  0  0  0  0  0  0  0  0  0  0
   39.4600   25.2060   31.2090 H   0  0  0  0  0  0  0  0  0  0  0  0
   39.0670   27.5940   31.3640 H   0  0  0  0  0  0  0  0  0  0  0  0
   38.8000   26.8800   29.7330 H   0  0  0  0  0  0  0  0  0  0  0  0
   36.4120   26.3720   30.4200 H   0  0  0  0  0  0  0  0  0  0  0  0
   36.7950   28.1280   30.2230 H   0  0  0  0  0  0  0  0  0  0  0  0
   36.5120   23.6510   31.3900 Cl  0  0  0  0  0  0  0  0  0  0  0  0
   37.4970   23.3000   32.8090 C   0  0  0  0  0  0  0  0  0  0  0  0
   38.2020   24.3330   33.3630 C   0  0  0  0  0  0  0  0  0  0  0  0
   39.0280   24.2080   34.4920 C   0  0  0  0  0  0  0  0  0  0  0  0
   39.0900   22.9200   35.0460 C   0  0  0  0  0  0  0  0  0  0  0  0
   38.3700   21.8590   34.4880 C   0  0  0  0  0  0  0  0  0  0  0  0
   37.5910   22.0640   33.3860 C   0  0  0  0  0  0  0  0  0  0  0  0
   39.6620   24.8090   35.0950 H   0  0  0  0  0  0  0  0  0  0  0  0
   39.6550   22.5920   35.9090 H   0  0  0  0  0  0  0  0  0  0  0  0
   38.3840   20.8460   34.8810 H   0  0  0  0  0  0  0  0  0  0  0  0
   36.8540   20.9920   32.8080 N   0  0  0  0  0  0  0  0  0  0  0  0
   35.5400   20.7350   33.2970 C   0  0  0  0  0  3  0  0  0  0  0  0
   35.0840   21.5820   33.8160 H   0  0  0  0  0  0  0  0  0  0  0  0
   34.6590   20.2860   32.1530 C   0  0  0  0  0  3  0  0  0  0  0  0
   33.7740   19.7550   32.5660 H   0  0  0  0  0  0  0  0  0  0  0  0
   35.3410   19.3280   31.3140 N   0  0  0  0  0  0  0  0  0  0  0  0
   35.6710   18.5190   31.9150 H   0  0  0  0  0  0  0  0  0  0  0  0
   36.5260   19.9100   30.6960 C   0  0  0  0  0  2  0  0  0  0  0  0
   37.5290   20.2630   31.7690 C   0  0  0  0  0  2  0  0  0  0  0  0
   36.2510   28.7430   32.7450 C   0  0  0  0  0  0  0  0  0  0  0  0
   35.8860   28.8720   34.0840 C   0  0  0  0  0  0  0  0  0  0  0  0
   35.4620   30.1190   34.5500 C   0  0  0  0  0  0  0  0  0  0  0  0
   35.4290   31.1650   33.6440 N   0  0  0  0  0  0  0  0  0  0  0  0
   35.7930   30.9890   32.3570 C   0  0  0  0  0  0  0  0  0  0  0  0
   36.1970   29.8120   31.9050 N   0  0  0  0  0  0  0  0  0  0  0  0
   35.9430   28.0100   34.7090 H   0  0  0  0  0  0  0  0  0  0  0  0
   35.1750   30.2440   35.5840 H   0  0  0  0  0  0  0  0  0  0  0  0
   35.7270   31.8760   31.7430 H   0  0  0  0  0  0  0  0  0  0  0  0
  1 34  1  0  0  0  0
  1  2  1  0  0  0  0
  2  7  1  0  0  0  0
  3  2  1  0  0  0  0
  3  9  1  1  0  0  0
  3 17  1  0  0  0  0
  4  3  1  0  0  0  0
  5  6  1  0  0  0  0
  5  4  1  0  0  0  0
  5 11  1  0  0  0  0
  6  1  1  0  0  0  0
  8  2  1  0  0  0  0
 10  4  1  0  0  0  0
 12  5  1  0  0  0  0
 13  6  1  0  0  0  0
 14  6  1  0  0  0  0
 15 16  1  0  0  0  0
 16 17  2  0  0  0  0
 16 21  1  0  0  0  0
 17 18  1  0  0  0  0
 18 19  2  0  0  0  0
 18 22  1  0  0  0  0
 19 23  1  0  0  0  0
 20 24  1  0  0  0  0
 20 19  1  0  0  0  0
 21 20  2  0  0  0  0
 25 26  1  0  0  0  0
 25 21  1  0  0  0  0
 26 27  1  0  0  0  0
 28 29  1  0  0  0  0
 28 26  1  0  0  0  0
 30 31  1  0  0  0  0
 30 28  1  0  0  0  0
 32 30  1  0  0  0  0
 32 33  1  0  0  0  0
 33 25  1  0  0  0  0
 34 35  1  0  0  0  0
 35 36  2  0  0  0  0
 35 40  1  0  0  0  0
 36 41  1  0  0  0  0
 37 36  1  0  0  0  0
 38 37  2  0  0  0  0
 39 38  1  0  0  0  0
 39 34  2  0  0  0  0
 42 38  1  0  0  0  0
M  END
>  <minimizedAffinity>
-5.34355021

$$$$
