
 OpenBabel03272510133D

 41 44  0  0  0  0  0  0  0  0999 V2000
   38.2200   31.5980   49.0270 C   0  0  0  0  0  0  0  0  0  0  0  0
   38.4070   32.8850   49.5380 C   0  0  0  0  0  0  0  0  0  0  0  0
   39.1070   33.6240   48.5970 C   0  0  0  0  0  0  0  0  0  0  0  0
   39.3280   32.7950   47.5580 N   0  0  0  0  0  0  0  0  0  0  0  0
   38.8080   31.6150   47.8150 N   0  0  0  0  0  0  0  0  0  0  0  0
   38.1300   33.3890   50.4670 H   0  0  0  0  0  0  0  0  0  0  0  0
   39.4400   34.6660   48.6330 H   0  0  0  0  0  0  0  0  0  0  0  0
   40.0250   33.1170   46.3110 C   0  0  0  0  0  0  0  0  0  0  0  0
   39.5250   33.8900   45.7460 H   0  0  0  0  0  0  0  0  0  0  0  0
   41.0290   33.5040   46.6700 H   0  0  0  0  0  0  0  0  0  0  0  0
   40.3180   31.8300   45.6190 C   0  0  0  0  0  0  0  0  0  0  0  0
   41.1850   31.2880   46.0610 H   0  0  0  0  0  0  0  0  0  0  0  0
   39.4760   31.0900   45.6850 H   0  0  0  0  0  0  0  0  0  0  0  0
   40.5590   32.0930   44.2050 N   0  0  0  0  0  0  0  0  0  0  0  0
   40.5050   30.8210   43.4630 C   0  0  0  0  0  0  0  0  0  0  0  0
   39.9510   30.0590   44.0070 H   0  0  0  0  0  0  0  0  0  0  0  0
   39.9750   31.0600   42.0600 C   0  0  0  0  0  0  0  0  0  0  0  0
   40.0650   30.0920   41.5290 H   0  0  0  0  0  0  0  0  0  0  0  0
   38.5550   31.4010   42.1050 N   0  0  0  0  0  0  0  0  0  0  0  0
   37.9450   30.5500   42.0740 H   0  0  0  0  0  0  0  0  0  0  0  0
   38.2700   32.2170   43.2720 C   0  0  0  0  0  0  0  0  0  0  0  0
   39.5250   32.9810   43.6690 C   0  0  0  0  0  0  0  0  0  0  0  0
   37.5350   30.7470   49.8590 O   0  0  0  0  0  0  0  0  0  0  0  0
   34.0530   28.8730   48.3810 C   0  0  0  0  0  0  0  0  0  0  0  0
   34.7800   28.3250   49.3850 C   0  0  0  0  0  0  0  0  0  0  0  0
   35.9200   28.8700   49.9210 C   0  0  0  0  0  0  0  0  0  0  0  0
   36.4040   30.0520   49.4440 C   0  0  0  0  0  0  0  0  0  0  0  0
   35.6610   30.6320   48.4030 C   0  0  0  0  0  0  0  0  0  0  0  0
   34.5450   30.0680   47.9030 N   0  0  0  0  0  0  0  0  0  0  0  0
   34.4660   27.3730   49.8300 H   0  0  0  0  0  0  0  0  0  0  0  0
   36.4950   28.4190   50.7260 H   0  0  0  0  0  0  0  0  0  0  0  0
   35.9840   31.5730   47.9730 H   0  0  0  0  0  0  0  0  0  0  0  0
   32.1120   27.3240   48.4480 C   0  0  0  0  0  0  0  0  0  0  0  0
   32.8780   28.3080   47.8190 C   0  0  0  0  0  0  0  0  0  0  0  0
   32.4400   28.7240   46.5820 C   0  0  0  0  0  0  0  0  0  0  0  0
   31.3060   28.1760   46.0260 N   0  0  0  0  0  0  0  0  0  0  0  0
   30.6120   27.2140   46.7120 C   0  0  0  0  0  0  0  0  0  0  0  0
   31.0010   26.7780   47.9220 N   0  0  0  0  0  0  0  0  0  0  0  0
   32.4090   26.9620   49.4200 H   0  0  0  0  0  0  0  0  0  0  0  0
   32.9990   29.4900   46.0500 H   0  0  0  0  0  0  0  0  0  0  0  0
   29.7390   26.8910   46.1230 H   0  0  0  0  0  0  0  0  0  0  0  0
  1  2  1  0  0  0  0
  1 23  1  0  0  0  0
  2  6  1  0  0  0  0
  3  7  1  0  0  0  0
  3  2  2  0  0  0  0
  4  5  1  0  0  0  0
  4  3  1  0  0  0  0
  5  1  2  0  0  0  0
  8 10  1  0  0  0  0
  8  4  1  0  0  0  0
  9  8  1  0  0  0  0
 11 13  1  0  0  0  0
 11 12  1  0  0  0  0
 11  8  1  0  0  0  0
 14 11  1  0  0  0  0
 15 16  1  0  0  0  0
 15 14  1  0  0  0  0
 17 19  1  0  0  0  0
 17 15  1  0  0  0  0
 18 17  1  0  0  0  0
 19 21  1  0  0  0  0
 20 19  1  0  0  0  0
 21 22  1  0  0  0  0
 22 14  1  0  0  0  0
 24 25  1  0  0  0  0
 25 30  1  0  0  0  0
 25 26  2  0  0  0  0
 26 31  1  0  0  0  0
 27 23  1  0  0  0  0
 27 26  1  0  0  0  0
 28 27  2  0  0  0  0
 29 24  2  0  0  0  0
 29 28  1  0  0  0  0
 32 28  1  0  0  0  0
 33 39  1  0  0  0  0
 34 24  1  0  0  0  0
 34 33  2  0  0  0  0
 35 34  1  0  0  0  0
 36 35  2  0  0  0  0
 36 37  1  0  0  0  0
 37 38  2  0  0  0  0
 38 33  1  0  0  0  0
 40 35  1  0  0  0  0
 41 37  1  0  0  0  0
M  END
>  <minimizedAffinity>
-6.12495232

>  <minimizedRMSD>
0.847179949

$$$$
