
 OpenBabel03272500283D

 28 30  0  0  0  0  0  0  0  0999 V2000
   36.4910   30.5320   46.1500 Cl  0  0  0  0  0  0  0  0  0  0  0  0
   36.8630   30.7070   47.8660 C   0  0  0  0  0  0  0  0  0  0  0  0
   38.0890   31.2540   48.1440 C   0  0  0  0  0  0  0  0  0  0  0  0
   38.4150   31.4080   49.5070 C   0  0  0  0  0  0  0  0  0  0  0  0
   37.5150   31.0120   50.4580 C   0  0  0  0  0  0  0  0  0  0  0  0
   36.3100   30.4740   50.0890 C   0  0  0  0  0  0  0  0  0  0  0  0
   35.9410   30.3010   48.7870 C   0  0  0  0  0  0  0  0  0  0  0  0
   39.3700   31.8340   49.8030 H   0  0  0  0  0  0  0  0  0  0  0  0
   37.7820   31.1370   51.4980 H   0  0  0  0  0  0  0  0  0  0  0  0
   35.6200   30.1710   50.8850 H   0  0  0  0  0  0  0  0  0  0  0  0
   40.1830   33.3770   46.0450 C   0  0  0  0  0  0  0  0  0  0  0  0
   40.7860   32.4900   45.1550 C   0  0  0  0  0  0  0  0  0  0  0  0
   40.4600   31.1350   45.2860 C   0  0  0  0  0  0  0  0  0  0  0  0
   39.5880   30.7720   46.2600 N   0  0  0  0  0  0  0  0  0  0  0  0
   39.0250   31.6650   47.1040 C   0  0  0  0  0  0  0  0  0  0  0  0
   39.3310   32.9590   46.9830 N   0  0  0  0  0  0  0  0  0  0  0  0
   40.4720   34.4100   45.8980 H   0  0  0  0  0  0  0  0  0  0  0  0
   41.4860   32.7370   44.3660 H   0  0  0  0  0  0  0  0  0  0  0  0
   40.8520   30.3230   44.6630 H   0  0  0  0  0  0  0  0  0  0  0  0
   34.6790   29.7380   48.4540 N   0  0  0  0  0  0  0  0  0  0  0  0
   33.8790   30.3160   47.3970 C   0  0  0  0  0  0  0  0  0  0  0  0
   33.2110   31.0680   47.9090 H   0  0  0  0  0  0  0  0  0  0  0  0
   32.9330   29.3320   46.7520 C   0  0  0  0  0  0  0  0  0  0  0  0
   32.0840   29.9290   46.3210 H   0  0  0  0  0  0  0  0  0  0  0  0
   32.3300   28.4190   47.6990 N   0  0  0  0  0  0  0  0  0  0  0  0
   31.6250   28.8420   48.3070 H   0  0  0  0  0  0  0  0  0  0  0  0
   33.3470   27.6790   48.4040 C   0  0  0  0  0  0  0  0  0  0  0  0
   34.2500   28.5760   49.2180 C   0  0  0  0  0  0  0  0  0  0  0  0
  1  2  1  0  0  0  0
  2  3  2  0  0  0  0
  2  7  1  0  0  0  0
  3  4  1  0  0  0  0
  4  8  1  0  0  0  0
  4  5  2  0  0  0  0
  5  9  1  0  0  0  0
  6  5  1  0  0  0  0
  6 10  1  0  0  0  0
  7  6  2  0  0  0  0
 11 16  1  0  0  0  0
 12 13  1  0  0  0  0
 12 11  2  0  0  0  0
 13 14  2  0  0  0  0
 14 15  1  0  0  0  0
 15  3  1  0  0  0  0
 16 15  2  0  0  0  0
 17 11  1  0  0  0  0
 18 12  1  0  0  0  0
 19 13  1  0  0  0  0
 20  7  1  0  0  0  0
 20 28  1  0  0  0  0
 21 22  1  0  0  0  0
 21 20  1  0  0  0  0
 23 21  1  0  0  0  0
 23 25  1  0  0  0  0
 24 23  1  0  0  0  0
 25 26  1  0  0  0  0
 25 27  1  0  0  0  0
 27 28  1  0  0  0  0
M  END
>  <minimizedAffinity>
-6.31953382

>  <minimizedRMSD>
0.310248047

$$$$
