
 OpenBabel03272504403D

 42 44  0  0  1  0  0  0  0  0999 V2000
   38.3800   26.8230   35.9900 Cl  0  0  0  0  0  0  0  0  0  0  0  0
   37.9000   25.8980   34.5710 C   0  0  0  0  0  0  0  0  0  0  0  0
   38.3020   24.6030   34.4490 C   0  0  0  0  0  0  0  0  0  0  0  0
   37.9360   23.8730   33.3510 C   0  0  0  0  0  0  0  0  0  0  0  0
   37.1560   24.4740   32.3800 C   0  0  0  0  0  0  0  0  0  0  0  0
   36.7690   25.8040   32.5510 C   0  0  0  0  0  0  0  0  0  0  0  0
   37.1240   26.5460   33.6360 C   0  0  0  0  0  0  0  0  0  0  0  0
   38.2810   22.8330   33.2930 H   0  0  0  0  0  0  0  0  0  0  0  0
   36.9230   23.8080   31.5540 H   0  0  0  0  0  0  0  0  0  0  0  0
   36.2000   26.0670   31.7290 H   0  0  0  0  0  0  0  0  0  0  0  0
   41.1700   23.1520   36.2740 C   0  0  0  0  0  0  0  0  0  0  0  0
   40.5550   22.7940   37.5030 C   0  0  0  0  0  0  0  0  0  0  0  0
   39.1860   23.0650   37.6540 C   0  0  0  0  0  0  0  0  0  0  0  0
   38.5090   23.6520   36.6320 N   0  0  0  0  0  0  0  0  0  0  0  0
   39.1260   23.9780   35.4780 C   0  0  0  0  0  0  0  0  0  0  0  0
   40.4410   23.7280   35.3090 N   0  0  0  0  0  0  0  0  0  0  0  0
   42.2190   22.9250   36.2050 H   0  0  0  0  0  0  0  0  0  0  0  0
   41.1080   22.3270   38.3060 H   0  0  0  0  0  0  0  0  0  0  0  0
   38.5960   22.7000   38.8850 N   0  0  0  0  0  0  0  0  0  0  0  0
   38.2000   23.3410   39.5940 H   0  0  0  0  0  0  0  0  0  0  0  0
   38.5370   21.6850   39.1350 H   0  0  0  0  0  0  0  0  0  0  0  0
   36.7200   27.9250   33.7930 C   0  0  0  0  0  0  0  0  0  0  0  0
   37.6460   28.5040   34.0820 H   0  0  0  0  0  0  0  0  0  0  0  0
   36.0730   28.0120   34.6900 H   0  0  0  0  0  0  0  0  0  0  0  0
   36.0760   28.6150   32.6810 C   0  0  0  0  0  0  0  0  0  0  0  0
   35.1140   28.1490   32.3760 H   0  0  0  0  0  0  0  0  0  0  0  0
   36.7290   28.5700   31.7810 H   0  0  0  0  0  0  0  0  0  0  0  0
   35.7940   29.9250   32.9780 O   0  0  0  0  0  0  0  0  0  0  0  0
   33.3170   29.0610   32.7360 O   0  0  0  0  0  0  0  0  0  0  0  0
   34.1850   30.1010   33.4010 P   0  0  2  0  0  0  0  0  0  0  0  0
   33.7230   31.6810   32.9120 O   0  0  0  0  0  0  0  0  0  0  0  0
   34.3980   32.3040   33.2390 H   0  0  0  0  0  0  0  0  0  0  0  0
   33.9510   30.0310   35.0530 O   0  0  0  0  0  0  0  0  0  0  0  0
   36.0260   31.2080   36.4750 H   0  0  0  0  0  0  0  0  0  0  0  0
   35.6590   31.5160   35.5390 N   0  0  0  0  0  0  0  0  0  0  0  0
   34.2010   31.3270   35.5300 C   0  0  2  0  0  3  0  0  0  0  0  0
   33.6750   31.5720   36.9030 C   0  0  0  0  0  3  0  0  0  0  0  0
   33.5430   30.6290   37.4610 H   0  0  0  0  0  0  0  0  0  0  0  0
   34.6290   32.4000   37.6180 N   0  0  0  0  0  0  0  0  0  0  0  0
   34.1250   32.8670   38.4030 H   0  0  0  0  0  0  0  0  0  0  0  0
   35.1580   33.4720   36.7880 C   0  0  0  0  0  2  0  0  0  0  0  0
   35.8210   32.9780   35.5400 C   0  0  0  0  0  2  0  0  0  0  0  0
  2  1  1  0  0  0  0
  3  2  1  0  0  0  0
  3 15  1  0  0  0  0
  4  3  2  0  0  0  0
  5  6  2  0  0  0  0
  5  4  1  0  0  0  0
  6  7  1  0  0  0  0
  7 22  1  0  0  0  0
  7  2  2  0  0  0  0
  8  4  1  0  0  0  0
  9  5  1  0  0  0  0
 10  6  1  0  0  0  0
 11 12  1  0  0  0  0
 12 13  2  0  0  0  0
 12 18  1  0  0  0  0
 13 19  1  0  0  0  0
 14 13  1  0  0  0  0
 15 14  2  0  0  0  0
 16 15  1  0  0  0  0
 16 11  2  0  0  0  0
 17 11  1  0  0  0  0
 19 21  1  0  0  0  0
 19 20  1  0  0  0  0
 22 23  1  0  0  0  0
 22 24  1  0  0  0  0
 25 28  1  0  0  0  0
 25 22  1  0  0  0  0
 26 25  1  0  0  0  0
 27 25  1  0  0  0  0
 28 30  1  0  0  0  0
 30 29  2  6  0  0  0
 30 33  1  0  0  0  0
 31 32  1  0  0  0  0
 31 30  1  0  0  0  0
 35 42  1  0  0  0  0
 35 34  1  0  0  0  0
 36 33  1  1  0  0  0
 36 35  1  0  0  0  0
 36 37  1  0  0  0  0
 37 38  1  0  0  0  0
 37 39  1  0  0  0  0
 39 40  1  0  0  0  0
 41 39  1  0  0  0  0
 42 41  1  0  0  0  0
M  END
>  <minimizedAffinity>
-5.9958396

$$$$

 OpenBabel03272504403D

 42 44  0  0  1  0  0  0  0  0999 V2000
   39.0250   24.0720   32.8260 Cl  0  0  0  0  0  0  0  0  0  0  0  0
   37.7340   22.8940   33.0460 C   0  0  0  0  0  0  0  0  0  0  0  0
   37.7500   22.0810   34.1380 C   0  0  0  0  0  0  0  0  0  0  0  0
   36.7530   21.1620   34.3210 C   0  0  0  0  0  0  0  0  0  0  0  0
   35.7400   21.0780   33.3830 C   0  0  0  0  0  0  0  0  0  0  0  0
   35.7680   21.9350   32.2800 C   0  0  0  0  0  0  0  0  0  0  0  0
   36.7530   22.8550   32.0810 C   0  0  0  0  0  0  0  0  0  0  0  0
   36.8040   20.5270   35.2150 H   0  0  0  0  0  0  0  0  0  0  0  0
   35.0030   20.3190   33.6240 H   0  0  0  0  0  0  0  0  0  0  0  0
   34.9390   21.7200   31.7030 H   0  0  0  0  0  0  0  0  0  0  0  0
   41.0740   22.0070   35.7510 C   0  0  0  0  0  0  0  0  0  0  0  0
   40.7410   22.3900   37.0770 C   0  0  0  0  0  0  0  0  0  0  0  0
   39.3910   22.6570   37.3620 C   0  0  0  0  0  0  0  0  0  0  0  0
   38.4680   22.5410   36.3710 N   0  0  0  0  0  0  0  0  0  0  0  0
   38.8220   22.1750   35.1220 C   0  0  0  0  0  0  0  0  0  0  0  0
   40.1120   21.9120   34.8240 N   0  0  0  0  0  0  0  0  0  0  0  0
   42.1190   21.8130   35.5810 H   0  0  0  0  0  0  0  0  0  0  0  0
   41.4870   22.4780   37.8530 H   0  0  0  0  0  0  0  0  0  0  0  0
   39.0830   23.0380   38.6870 N   0  0  0  0  0  0  0  0  0  0  0  0
   38.7210   23.9550   38.9980 H   0  0  0  0  0  0  0  0  0  0  0  0
   39.2240   22.3420   39.4560 H   0  0  0  0  0  0  0  0  0  0  0  0
   36.7690   23.7290   30.9290 C   0  0  0  0  0  0  0  0  0  0  0  0
   36.4800   23.0960   30.0390 H   0  0  0  0  0  0  0  0  0  0  0  0
   37.8180   24.0160   30.7100 H   0  0  0  0  0  0  0  0  0  0  0  0
   35.9420   24.9300   30.9280 C   0  0  0  0  0  0  0  0  0  0  0  0
   34.8540   24.7110   30.8570 H   0  0  0  0  0  0  0  0  0  0  0  0
   36.1800   25.5500   30.0350 H   0  0  0  0  0  0  0  0  0  0  0  0
   36.1130   25.6780   32.0650 O   0  0  0  0  0  0  0  0  0  0  0  0
   35.2010   28.1440   32.2210 O   0  0  0  0  0  0  0  0  0  0  0  0
   36.3250   27.2930   31.6830 P   0  0  2  0  0  0  0  0  0  0  0  0
   36.3900   27.3840   29.9700 O   0  0  0  0  0  0  0  0  0  0  0  0
   37.0210   26.7090   29.6590 H   0  0  0  0  0  0  0  0  0  0  0  0
   37.7790   27.8930   32.2430 O   0  0  0  0  0  0  0  0  0  0  0  0
   37.5420   28.1800   34.9960 H   0  0  0  0  0  0  0  0  0  0  0  0
   37.1610   27.3890   34.4160 N   0  0  0  0  0  0  0  0  0  0  0  0
   38.1240   27.0950   33.3450 C   0  0  2  0  0  3  0  0  0  0  0  0
   39.5020   27.3410   33.8560 C   0  0  0  0  0  3  0  0  0  0  0  0
   39.8680   28.3420   33.5680 H   0  0  0  0  0  0  0  0  0  0  0  0
   39.4750   27.2590   35.3050 N   0  0  0  0  0  0  0  0  0  0  0  0
   40.4460   27.0630   35.6340 H   0  0  0  0  0  0  0  0  0  0  0  0
   38.6600   26.1520   35.7780 C   0  0  0  0  0  2  0  0  0  0  0  0
   37.2450   26.2120   35.2940 C   0  0  0  0  0  2  0  0  0  0  0  0
  1  2  1  0  0  0  0
  2  3  1  0  0  0  0
  3  4  2  0  0  0  0
  3 15  1  0  0  0  0
  4  8  1  0  0  0  0
  5  9  1  0  0  0  0
  5  4  1  0  0  0  0
  6  5  2  0  0  0  0
  7  6  1  0  0  0  0
  7  2  2  0  0  0  0
 10  6  1  0  0  0  0
 11 12  1  0  0  0  0
 12 13  2  0  0  0  0
 12 18  1  0  0  0  0
 13 19  1  0  0  0  0
 14 13  1  0  0  0  0
 15 14  2  0  0  0  0
 16 15  1  0  0  0  0
 16 11  2  0  0  0  0
 17 11  1  0  0  0  0
 19 20  1  0  0  0  0
 19 21  1  0  0  0  0
 22  7  1  0  0  0  0
 23 22  1  0  0  0  0
 24 22  1  0  0  0  0
 25 22  1  0  0  0  0
 25 28  1  0  0  0  0
 26 25  1  0  0  0  0
 27 25  1  0  0  0  0
 30 28  1  0  0  0  0
 30 29  2  1  0  0  0
 30 33  1  0  0  0  0
 31 30  1  0  0  0  0
 32 31  1  0  0  0  0
 35 34  1  0  0  0  0
 35 42  1  0  0  0  0
 36 33  1  6  0  0  0
 36 37  1  0  0  0  0
 36 35  1  0  0  0  0
 37 39  1  0  0  0  0
 38 37  1  0  0  0  0
 39 40  1  0  0  0  0
 39 41  1  0  0  0  0
 42 41  1  0  0  0  0
M  END
>  <minimizedAffinity>
-5.8665123

$$$$

 OpenBabel03272504403D

 42 44  0  0  1  0  0  0  0  0999 V2000
   36.8070   27.7950   34.7720 Cl  0  0  0  0  0  0  0  0  0  0  0  0
   36.6080   28.4520   33.1500 C   0  0  0  0  0  0  0  0  0  0  0  0
   35.6660   29.4100   32.9270 C   0  0  0  0  0  0  0  0  0  0  0  0
   35.5010   29.9280   31.6720 C   0  0  0  0  0  0  0  0  0  0  0  0
   36.3040   29.4640   30.6470 C   0  0  0  0  0  0  0  0  0  0  0  0
   37.2560   28.4820   30.9250 C   0  0  0  0  0  0  0  0  0  0  0  0
   37.4340   27.9530   32.1680 C   0  0  0  0  0  0  0  0  0  0  0  0
   34.7310   30.6980   31.5370 H   0  0  0  0  0  0  0  0  0  0  0  0
   36.0910   29.9420   29.6950 H   0  0  0  0  0  0  0  0  0  0  0  0
   37.7480   28.2700   30.0410 H   0  0  0  0  0  0  0  0  0  0  0  0
   32.7860   29.9780   35.1730 C   0  0  0  0  0  0  0  0  0  0  0  0
   33.3490   30.8830   36.1120 C   0  0  0  0  0  0  0  0  0  0  0  0
   34.6900   31.2590   35.9350 C   0  0  0  0  0  0  0  0  0  0  0  0
   35.3900   30.7500   34.8870 N   0  0  0  0  0  0  0  0  0  0  0  0
   34.8220   29.8920   34.0150 C   0  0  0  0  0  0  0  0  0  0  0  0
   33.5350   29.5160   34.1630 N   0  0  0  0  0  0  0  0  0  0  0  0
   31.7570   29.7190   35.3500 H   0  0  0  0  0  0  0  0  0  0  0  0
   32.7780   31.2780   36.9400 H   0  0  0  0  0  0  0  0  0  0  0  0
   35.2290   32.1600   36.8810 N   0  0  0  0  0  0  0  0  0  0  0  0
   35.9860   31.9650   37.5580 H   0  0  0  0  0  0  0  0  0  0  0  0
   34.8450   33.1330   36.9260 H   0  0  0  0  0  0  0  0  0  0  0  0
   38.4210   26.9310   32.4370 C   0  0  0  0  0  0  0  0  0  0  0  0
   38.6360   26.9720   33.5450 H   0  0  0  0  0  0  0  0  0  0  0  0
   39.3850   27.2310   31.9780 H   0  0  0  0  0  0  0  0  0  0  0  0
   38.1370   25.5470   32.0750 C   0  0  0  0  0  0  0  0  0  0  0  0
   39.0520   24.9200   31.9960 H   0  0  0  0  0  0  0  0  0  0  0  0
   37.6620   25.5110   31.0690 H   0  0  0  0  0  0  0  0  0  0  0  0
   37.3220   24.9290   32.9900 O   0  0  0  0  0  0  0  0  0  0  0  0
   39.6710   24.0600   33.8060 O   0  0  0  0  0  0  0  0  0  0  0  0
   38.1850   23.8140   33.8900 P   0  0  2  0  0  0  0  0  0  0  0  0
   37.7890   22.2670   33.2590 O   0  0  0  0  0  0  0  0  0  0  0  0
   36.8180   22.2120   33.1900 H   0  0  0  0  0  0  0  0  0  0  0  0
   37.7250   23.8000   35.4960 O   0  0  0  0  0  0  0  0  0  0  0  0
   38.5920   21.4770   36.7470 H   0  0  0  0  0  0  0  0  0  0  0  0
   39.1050   22.0120   36.0010 N   0  0  0  0  0  0  0  0  0  0  0  0
   38.8740   23.4470   36.2200 C   0  0  2  0  0  3  0  0  0  0  0  0
   38.7600   23.6990   37.6840 C   0  0  0  0  0  3  0  0  0  0  0  0
   37.7060   23.7350   38.0090 H   0  0  0  0  0  0  0  0  0  0  0  0
   39.4220   22.6160   38.3880 N   0  0  0  0  0  0  0  0  0  0  0  0
   39.6670   22.9560   39.3440 H   0  0  0  0  0  0  0  0  0  0  0  0
   40.6800   22.2410   37.7620 C   0  0  0  0  0  2  0  0  0  0  0  0
   40.5270   21.8340   36.3300 C   0  0  0  0  0  2  0  0  0  0  0  0
  2  1  1  0  0  0  0
  3  2  1  0  0  0  0
  3 15  1  0  0  0  0
  4  3  2  0  0  0  0
  5  6  2  0  0  0  0
  5  4  1  0  0  0  0
  6  7  1  0  0  0  0
  7 22  1  0  0  0  0
  7  2  2  0  0  0  0
  8  4  1  0  0  0  0
  9  5  1  0  0  0  0
 10  6  1  0  0  0  0
 11 17  1  0  0  0  0
 11 12  1  0  0  0  0
 12 18  1  0  0  0  0
 13 12  2  0  0  0  0
 13 19  1  0  0  0  0
 14 13  1  0  0  0  0
 15 16  1  0  0  0  0
 15 14  2  0  0  0  0
 16 11  2  0  0  0  0
 19 21  1  0  0  0  0
 19 20  1  0  0  0  0
 22 23  1  0  0  0  0
 24 22  1  0  0  0  0
 25 22  1  0  0  0  0
 25 28  1  0  0  0  0
 26 25  1  0  0  0  0
 27 25  1  0  0  0  0
 28 30  1  0  0  0  0
 30 29  2  6  0  0  0
 30 33  1  0  0  0  0
 31 30  1  0  0  0  0
 32 31  1  0  0  0  0
 35 36  1  0  0  0  0
 35 42  1  0  0  0  0
 35 34  1  0  0  0  0
 36 33  1  6  0  0  0
 36 37  1  0  0  0  0
 37 38  1  0  0  0  0
 37 39  1  0  0  0  0
 39 40  1  0  0  0  0
 41 39  1  0  0  0  0
 42 41  1  0  0  0  0
M  END
>  <minimizedAffinity>
-5.85779667

$$$$

 OpenBabel03272504403D

 42 44  0  0  1  0  0  0  0  0999 V2000
   40.1330   24.6820   32.3990 Cl  0  0  0  0  0  0  0  0  0  0  0  0
   39.3460   25.5570   33.7090 C   0  0  0  0  0  0  0  0  0  0  0  0
   37.9890   25.5200   33.8180 C   0  0  0  0  0  0  0  0  0  0  0  0
   37.3650   26.1950   34.8310 C   0  0  0  0  0  0  0  0  0  0  0  0
   38.1350   26.9080   35.7320 C   0  0  0  0  0  0  0  0  0  0  0  0
   39.5220   26.9150   35.5790 C   0  0  0  0  0  0  0  0  0  0  0  0
   40.1610   26.2500   34.5760 C   0  0  0  0  0  0  0  0  0  0  0  0
   36.2700   26.1380   34.8820 H   0  0  0  0  0  0  0  0  0  0  0  0
   37.5410   27.4040   36.4940 H   0  0  0  0  0  0  0  0  0  0  0  0
   39.9140   27.4960   36.3390 H   0  0  0  0  0  0  0  0  0  0  0  0
   36.4690   22.7580   31.8890 C   0  0  0  0  0  0  0  0  0  0  0  0
   35.6160   23.4780   31.0110 C   0  0  0  0  0  0  0  0  0  0  0  0
   35.5980   24.8780   31.1180 C   0  0  0  0  0  0  0  0  0  0  0  0
   36.3870   25.4830   32.0450 N   0  0  0  0  0  0  0  0  0  0  0  0
   37.1850   24.7670   32.8620 C   0  0  0  0  0  0  0  0  0  0  0  0
   37.2200   23.4200   32.7790 N   0  0  0  0  0  0  0  0  0  0  0  0
   36.4490   21.6890   31.7700 H   0  0  0  0  0  0  0  0  0  0  0  0
   34.9950   22.9810   30.2800 H   0  0  0  0  0  0  0  0  0  0  0  0
   34.7410   25.5730   30.2350 N   0  0  0  0  0  0  0  0  0  0  0  0
   33.9090   26.1300   30.4930 H   0  0  0  0  0  0  0  0  0  0  0  0
   34.9430   25.5420   29.2080 H   0  0  0  0  0  0  0  0  0  0  0  0
   41.5990   26.2740   34.4280 C   0  0  0  0  0  0  0  0  0  0  0  0
   41.9510   27.2600   34.8530 H   0  0  0  0  0  0  0  0  0  0  0  0
   41.8490   26.3550   33.3510 H   0  0  0  0  0  0  0  0  0  0  0  0
   42.3990   25.2070   35.0190 C   0  0  0  0  0  0  0  0  0  0  0  0
   43.2880   25.5830   35.5720 H   0  0  0  0  0  0  0  0  0  0  0  0
   42.8030   24.5510   34.2150 H   0  0  0  0  0  0  0  0  0  0  0  0
   41.6790   24.4520   35.9100 O   0  0  0  0  0  0  0  0  0  0  0  0
   42.7330   22.1330   36.5790 O   0  0  0  0  0  0  0  0  0  0  0  0
   41.8450   22.8220   35.5720 P   0  0  2  0  0  0  0  0  0  0  0  0
   42.5190   22.7180   33.9960 O   0  0  0  0  0  0  0  0  0  0  0  0
   42.0010   23.3000   33.4110 H   0  0  0  0  0  0  0  0  0  0  0  0
   40.3750   22.0320   35.5100 O   0  0  0  0  0  0  0  0  0  0  0  0
   39.1720   21.5290   37.9630 H   0  0  0  0  0  0  0  0  0  0  0  0
   39.7950   22.3430   37.7300 N   0  0  0  0  0  0  0  0  0  0  0  0
   39.5150   22.7590   36.3480 C   0  0  2  0  0  3  0  0  0  0  0  0
   38.0700   22.5360   36.0610 C   0  0  0  0  0  3  0  0  0  0  0  0
   37.9030   21.5760   35.5410 H   0  0  0  0  0  0  0  0  0  0  0  0
   37.3520   22.5070   37.3220 N   0  0  0  0  0  0  0  0  0  0  0  0
   36.3490   22.7200   37.1260 H   0  0  0  0  0  0  0  0  0  0  0  0
   37.8090   23.5400   38.2390 C   0  0  0  0  0  2  0  0  0  0  0  0
   39.2730   23.4540   38.5400 C   0  0  0  0  0  2  0  0  0  0  0  0
  1  2  1  0  0  0  0
  2  3  2  0  0  0  0
  2  7  1  0  0  0  0
  3  4  1  0  0  0  0
  4  8  1  0  0  0  0
  4  5  2  0  0  0  0
  5  9  1  0  0  0  0
  6  5  1  0  0  0  0
  6 10  1  0  0  0  0
  7  6  2  0  0  0  0
 11 16  1  0  0  0  0
 12 13  1  0  0  0  0
 12 11  2  0  0  0  0
 13 14  2  0  0  0  0
 14 15  1  0  0  0  0
 15  3  1  0  0  0  0
 16 15  2  0  0  0  0
 17 11  1  0  0  0  0
 18 12  1  0  0  0  0
 19 20  1  0  0  0  0
 19 13  1  0  0  0  0
 21 19  1  0  0  0  0
 22  7  1  0  0  0  0
 22 23  1  0  0  0  0
 22 25  1  0  0  0  0
 24 22  1  0  0  0  0
 25 26  1  0  0  0  0
 25 28  1  0  0  0  0
 27 25  1  0  0  0  0
 30 28  1  0  0  0  0
 30 29  2  1  0  0  0
 31 30  1  0  0  0  0
 32 31  1  0  0  0  0
 33 30  1  0  0  0  0
 35 34  1  0  0  0  0
 35 42  1  0  0  0  0
 36 33  1  6  0  0  0
 36 35  1  0  0  0  0
 37 36  1  0  0  0  0
 37 39  1  0  0  0  0
 38 37  1  0  0  0  0
 39 41  1  0  0  0  0
 40 39  1  0  0  0  0
 41 42  1  0  0  0  0
M  END
>  <minimizedAffinity>
-5.82435274

$$$$

 OpenBabel03272504403D

 42 44  0  0  1  0  0  0  0  0999 V2000
   38.8470   22.8520   31.8450 Cl  0  0  0  0  0  0  0  0  0  0  0  0
   37.4270   23.8430   31.5240 C   0  0  0  0  0  0  0  0  0  0  0  0
   36.1900   23.2750   31.5740 C   0  0  0  0  0  0  0  0  0  0  0  0
   35.0790   24.0330   31.3270 C   0  0  0  0  0  0  0  0  0  0  0  0
   35.2380   25.3740   31.0290 C   0  0  0  0  0  0  0  0  0  0  0  0
   36.5260   25.9100   30.9910 C   0  0  0  0  0  0  0  0  0  0  0  0
   37.6440   25.1710   31.2340 C   0  0  0  0  0  0  0  0  0  0  0  0
   34.1020   23.5360   31.3770 H   0  0  0  0  0  0  0  0  0  0  0  0
   34.2940   25.8820   30.8510 H   0  0  0  0  0  0  0  0  0  0  0  0
   36.4370   26.9120   30.7540 H   0  0  0  0  0  0  0  0  0  0  0  0
   35.6110   20.1050   33.3830 C   0  0  0  0  0  0  0  0  0  0  0  0
   35.7640   19.1610   32.3330 C   0  0  0  0  0  0  0  0  0  0  0  0
   36.0580   19.6520   31.0500 C   0  0  0  0  0  0  0  0  0  0  0  0
   36.1840   20.9920   30.8650 N   0  0  0  0  0  0  0  0  0  0  0  0
   36.0320   21.8590   31.8870 C   0  0  0  0  0  0  0  0  0  0  0  0
   35.7490   21.4120   33.1280 N   0  0  0  0  0  0  0  0  0  0  0  0
   35.3860   19.6820   34.3470 H   0  0  0  0  0  0  0  0  0  0  0  0
   35.6600   18.0990   32.4980 H   0  0  0  0  0  0  0  0  0  0  0  0
   36.2050   18.6950   30.0210 N   0  0  0  0  0  0  0  0  0  0  0  0
   35.5940   18.5780   29.1940 H   0  0  0  0  0  0  0  0  0  0  0  0
   37.0050   18.0210   30.0690 H   0  0  0  0  0  0  0  0  0  0  0  0
   38.9720   25.7410   31.1830 C   0  0  0  0  0  0  0  0  0  0  0  0
   38.9230   26.6120   30.4640 H   0  0  0  0  0  0  0  0  0  0  0  0
   39.6520   25.0270   30.6740 H   0  0  0  0  0  0  0  0  0  0  0  0
   39.6050   26.1970   32.4150 C   0  0  0  0  0  0  0  0  0  0  0  0
   40.5620   26.7350   32.2410 H   0  0  0  0  0  0  0  0  0  0  0  0
   39.8650   25.3220   33.0510 H   0  0  0  0  0  0  0  0  0  0  0  0
   38.8020   27.0560   33.1220 O   0  0  0  0  0  0  0  0  0  0  0  0
   38.1340   27.7220   35.5820 O   0  0  0  0  0  0  0  0  0  0  0  0
   38.7860   26.6490   34.7450 P   0  0  2  0  0  0  0  0  0  0  0  0
   40.4250   26.4300   35.2070 O   0  0  0  0  0  0  0  0  0  0  0  0
   40.8460   25.8470   34.5490 H   0  0  0  0  0  0  0  0  0  0  0  0
   38.0180   25.1940   35.0280 O   0  0  0  0  0  0  0  0  0  0  0  0
   38.7990   22.5650   35.4680 H   0  0  0  0  0  0  0  0  0  0  0  0
   39.4350   23.3980   35.3850 N   0  0  0  0  0  0  0  0  0  0  0  0
   38.7740   24.5480   36.0190 C   0  0  2  0  0  3  0  0  0  0  0  0
   37.9620   24.0630   37.1700 C   0  0  0  0  0  3  0  0  0  0  0  0
   36.9030   23.9260   36.8910 H   0  0  0  0  0  0  0  0  0  0  0  0
   38.4950   22.7820   37.5990 N   0  0  0  0  0  0  0  0  0  0  0  0
   38.1940   22.6230   38.5850 H   0  0  0  0  0  0  0  0  0  0  0  0
   39.9490   22.7690   37.6150 C   0  0  0  0  0  2  0  0  0  0  0  0
   40.5570   23.1000   36.2880 C   0  0  0  0  0  2  0  0  0  0  0  0
  2  3  1  0  0  0  0
  2  1  1  0  0  0  0
  3 15  1  0  0  0  0
  4  8  1  0  0  0  0
  4  3  2  0  0  0  0
  5  4  1  0  0  0  0
  6  5  2  0  0  0  0
  6  7  1  0  0  0  0
  7  2  2  0  0  0  0
  9  5  1  0  0  0  0
 10  6  1  0  0  0  0
 11 17  1  0  0  0  0
 12 18  1  0  0  0  0
 12 11  2  0  0  0  0
 13 12  1  0  0  0  0
 14 13  2  0  0  0  0
 14 15  1  0  0  0  0
 15 16  2  0  0  0  0
 16 11  1  0  0  0  0
 19 21  1  0  0  0  0
 19 13  1  0  0  0  0
 20 19  1  0  0  0  0
 22  7  1  0  0  0  0
 22 25  1  0  0  0  0
 23 22  1  0  0  0  0
 24 22  1  0  0  0  0
 25 27  1  0  0  0  0
 25 28  1  0  0  0  0
 26 25  1  0  0  0  0
 28 30  1  0  0  0  0
 30 33  1  0  0  0  0
 30 31  1  0  0  0  0
 30 29  2  1  0  0  0
 32 31  1  0  0  0  0
 35 34  1  0  0  0  0
 35 36  1  0  0  0  0
 35 42  1  0  0  0  0
 36 33  1  6  0  0  0
 36 37  1  0  0  0  0
 37 39  1  0  0  0  0
 38 37  1  0  0  0  0
 39 41  1  0  0  0  0
 39 40  1  0  0  0  0
 42 41  1  0  0  0  0
M  END
>  <minimizedAffinity>
-5.71967554

$$$$

 OpenBabel03272504403D

 42 44  0  0  1  0  0  0  0  0999 V2000
   38.7900   26.8710   35.8190 Cl  0  0  0  0  0  0  0  0  0  0  0  0
   38.1330   25.9060   34.5000 C   0  0  0  0  0  0  0  0  0  0  0  0
   38.4010   24.5720   34.4490 C   0  0  0  0  0  0  0  0  0  0  0  0
   37.8970   23.8110   33.4300 C   0  0  0  0  0  0  0  0  0  0  0  0
   37.1180   24.4200   32.4640 C   0  0  0  0  0  0  0  0  0  0  0  0
   36.8710   25.7910   32.5600 C   0  0  0  0  0  0  0  0  0  0  0  0
   37.3650   26.5650   33.5670 C   0  0  0  0  0  0  0  0  0  0  0  0
   38.1370   22.7400   33.4270 H   0  0  0  0  0  0  0  0  0  0  0  0
   36.7700   23.7270   31.7040 H   0  0  0  0  0  0  0  0  0  0  0  0
   36.2780   26.0550   31.7550 H   0  0  0  0  0  0  0  0  0  0  0  0
   41.2690   23.0980   36.2560 C   0  0  0  0  0  0  0  0  0  0  0  0
   40.6570   22.7360   37.4850 C   0  0  0  0  0  0  0  0  0  0  0  0
   39.2890   23.0110   37.6420 C   0  0  0  0  0  0  0  0  0  0  0  0
   38.6110   23.6080   36.6260 N   0  0  0  0  0  0  0  0  0  0  0  0
   39.2260   23.9380   35.4720 C   0  0  0  0  0  0  0  0  0  0  0  0
   40.5390   23.6830   35.2970 N   0  0  0  0  0  0  0  0  0  0  0  0
   42.3170   22.8670   36.1820 H   0  0  0  0  0  0  0  0  0  0  0  0
   41.2110   22.2630   38.2830 H   0  0  0  0  0  0  0  0  0  0  0  0
   38.7020   22.6430   38.8730 N   0  0  0  0  0  0  0  0  0  0  0  0
   38.3120   23.2810   39.5870 H   0  0  0  0  0  0  0  0  0  0  0  0
   38.6400   21.6260   39.1170 H   0  0  0  0  0  0  0  0  0  0  0  0
   37.1040   27.9840   33.6460 C   0  0  0  0  0  0  0  0  0  0  0  0
   37.1360   28.3800   32.5880 H   0  0  0  0  0  0  0  0  0  0  0  0
   37.9680   28.4830   34.1320 H   0  0  0  0  0  0  0  0  0  0  0  0
   35.8750   28.4550   34.2750 C   0  0  0  0  0  0  0  0  0  0  0  0
   35.6570   27.9480   35.2400 H   0  0  0  0  0  0  0  0  0  0  0  0
   35.0060   28.2300   33.6170 H   0  0  0  0  0  0  0  0  0  0  0  0
   35.9130   29.8000   34.5430 O   0  0  0  0  0  0  0  0  0  0  0  0
   33.9310   29.6650   32.8130 O   0  0  0  0  0  0  0  0  0  0  0  0
   34.7350   30.6090   33.6730 P   0  0  2  0  0  0  0  0  0  0  0  0
   35.5540   31.7660   32.7040 O   0  0  0  0  0  0  0  0  0  0  0  0
   36.1740   32.2510   33.2790 H   0  0  0  0  0  0  0  0  0  0  0  0
   33.6950   31.4690   34.6570 O   0  0  0  0  0  0  0  0  0  0  0  0
   31.1580   30.5260   35.2840 H   0  0  0  0  0  0  0  0  0  0  0  0
   31.9870   29.9440   35.0010 N   0  0  0  0  0  0  0  0  0  0  0  0
   33.1950   30.5430   35.5860 C   0  0  2  0  0  3  0  0  0  0  0  0
   32.8440   31.1460   36.9030 C   0  0  0  0  0  3  0  0  0  0  0  0
   32.6520   32.2300   36.8140 H   0  0  0  0  0  0  0  0  0  0  0  0
   31.6380   30.5050   37.3940 N   0  0  0  0  0  0  0  0  0  0  0  0
   31.5990   30.6420   38.4270 H   0  0  0  0  0  0  0  0  0  0  0  0
   31.6550   29.0660   37.1810 C   0  0  0  0  0  2  0  0  0  0  0  0
   31.8270   28.6850   35.7440 C   0  0  0  0  0  2  0  0  0  0  0  0
  2  1  1  0  0  0  0
  3  2  1  0  0  0  0
  3 15  1  0  0  0  0
  4  3  2  0  0  0  0
  5  6  2  0  0  0  0
  5  4  1  0  0  0  0
  6  7  1  0  0  0  0
  7 22  1  0  0  0  0
  7  2  2  0  0  0  0
  8  4  1  0  0  0  0
  9  5  1  0  0  0  0
 10  6  1  0  0  0  0
 11 12  1  0  0  0  0
 12 13  2  0  0  0  0
 12 18  1  0  0  0  0
 13 19  1  0  0  0  0
 14 13  1  0  0  0  0
 15 14  2  0  0  0  0
 16 15  1  0  0  0  0
 16 11  2  0  0  0  0
 17 11  1  0  0  0  0
 19 21  1  0  0  0  0
 19 20  1  0  0  0  0
 22 24  1  0  0  0  0
 22 25  1  0  0  0  0
 23 22  1  0  0  0  0
 25 28  1  0  0  0  0
 25 26  1  0  0  0  0
 27 25  1  0  0  0  0
 30 29  2  6  0  0  0
 30 28  1  0  0  0  0
 30 33  1  0  0  0  0
 31 32  1  0  0  0  0
 31 30  1  0  0  0  0
 35 34  1  0  0  0  0
 35 36  1  0  0  0  0
 35 42  1  0  0  0  0
 36 33  1  6  0  0  0
 36 37  1  0  0  0  0
 37 39  1  0  0  0  0
 38 37  1  0  0  0  0
 39 40  1  0  0  0  0
 41 39  1  0  0  0  0
 42 41  1  0  0  0  0
M  END
>  <minimizedAffinity>
-5.64186239

$$$$

 OpenBabel03272504403D

 42 44  0  0  1  0  0  0  0  0999 V2000
   38.5320   26.7520   35.7670 Cl  0  0  0  0  0  0  0  0  0  0  0  0
   37.9800   25.7350   34.4390 C   0  0  0  0  0  0  0  0  0  0  0  0
   38.3270   24.4190   34.4160 C   0  0  0  0  0  0  0  0  0  0  0  0
   37.9050   23.6180   33.3890 C   0  0  0  0  0  0  0  0  0  0  0  0
   37.1270   24.1700   32.3890 C   0  0  0  0  0  0  0  0  0  0  0  0
   36.7970   25.5250   32.4570 C   0  0  0  0  0  0  0  0  0  0  0  0
   37.2090   26.3370   33.4700 C   0  0  0  0  0  0  0  0  0  0  0  0
   38.2070   22.5630   33.4100 H   0  0  0  0  0  0  0  0  0  0  0  0
   36.8470   23.4490   31.6260 H   0  0  0  0  0  0  0  0  0  0  0  0
   36.2200   25.7440   31.6290 H   0  0  0  0  0  0  0  0  0  0  0  0
   41.1960   23.0770   36.3200 C   0  0  0  0  0  0  0  0  0  0  0  0
   40.5760   22.7600   37.5580 C   0  0  0  0  0  0  0  0  0  0  0  0
   39.2020   23.0200   37.6860 C   0  0  0  0  0  0  0  0  0  0  0  0
   38.5260   23.5580   36.6360 N   0  0  0  0  0  0  0  0  0  0  0  0
   39.1490   23.8460   35.4750 C   0  0  0  0  0  0  0  0  0  0  0  0
   40.4690   23.6050   35.3270 N   0  0  0  0  0  0  0  0  0  0  0  0
   42.2490   22.8610   36.2690 H   0  0  0  0  0  0  0  0  0  0  0  0
   41.1280   22.3330   38.3820 H   0  0  0  0  0  0  0  0  0  0  0  0
   38.6060   22.6970   38.9260 N   0  0  0  0  0  0  0  0  0  0  0  0
   38.1960   23.3600   39.6060 H   0  0  0  0  0  0  0  0  0  0  0  0
   38.5570   21.6920   39.2160 H   0  0  0  0  0  0  0  0  0  0  0  0
   36.8640   27.7400   33.5210 C   0  0  0  0  0  0  0  0  0  0  0  0
   37.8320   28.3070   33.6550 H   0  0  0  0  0  0  0  0  0  0  0  0
   36.3160   27.9430   34.4650 H   0  0  0  0  0  0  0  0  0  0  0  0
   36.1300   28.3400   32.4130 C   0  0  0  0  0  0  0  0  0  0  0  0
   35.1710   28.8070   32.7260 H   0  0  0  0  0  0  0  0  0  0  0  0
   35.8520   27.5530   31.6760 H   0  0  0  0  0  0  0  0  0  0  0  0
   36.8530   29.3230   31.7850 O   0  0  0  0  0  0  0  0  0  0  0  0
   37.8950   29.8590   29.4250 O   0  0  0  0  0  0  0  0  0  0  0  0
   37.5400   28.7410   30.3750 P   0  0  2  0  0  0  0  0  0  0  0  0
   36.3820   27.6880   29.6680 O   0  0  0  0  0  0  0  0  0  0  0  0
   36.0700   27.0780   30.3610 H   0  0  0  0  0  0  0  0  0  0  0  0
   38.9020   27.8190   30.6640 O   0  0  0  0  0  0  0  0  0  0  0  0
   39.6020   26.1430   28.5620 H   0  0  0  0  0  0  0  0  0  0  0  0
   39.1490   27.0890   28.4810 N   0  0  0  0  0  0  0  0  0  0  0  0
   39.7080   27.9610   29.5240 C   0  0  2  0  0  3  0  0  0  0  0  0
   41.1340   27.5890   29.7490 C   0  0  0  0  0  3  0  0  0  0  0  0
   41.2440   26.9070   30.6100 H   0  0  0  0  0  0  0  0  0  0  0  0
   41.6240   26.9130   28.5620 N   0  0  0  0  0  0  0  0  0  0  0  0
   42.6650   26.9830   28.5590 H   0  0  0  0  0  0  0  0  0  0  0  0
   41.1750   27.5580   27.3380 C   0  0  0  0  0  2  0  0  0  0  0  0
   39.6850   27.6510   27.2320 C   0  0  0  0  0  2  0  0  0  0  0  0
  2  1  1  0  0  0  0
  3  2  1  0  0  0  0
  3 15  1  0  0  0  0
  4  8  1  0  0  0  0
  4  3  2  0  0  0  0
  5  6  2  0  0  0  0
  5  4  1  0  0  0  0
  6  7  1  0  0  0  0
  7 22  1  0  0  0  0
  7  2  2  0  0  0  0
  9  5  1  0  0  0  0
 10  6  1  0  0  0  0
 11 12  1  0  0  0  0
 12 13  2  0  0  0  0
 12 18  1  0  0  0  0
 13 19  1  0  0  0  0
 14 13  1  0  0  0  0
 15 14  2  0  0  0  0
 16 15  1  0  0  0  0
 16 11  2  0  0  0  0
 17 11  1  0  0  0  0
 19 21  1  0  0  0  0
 19 20  1  0  0  0  0
 22 23  1  0  0  0  0
 22 24  1  0  0  0  0
 25 26  1  0  0  0  0
 25 22  1  0  0  0  0
 27 25  1  0  0  0  0
 28 25  1  0  0  0  0
 30 29  2  6  0  0  0
 30 33  1  0  0  0  0
 30 28  1  0  0  0  0
 31 32  1  0  0  0  0
 31 30  1  0  0  0  0
 35 34  1  0  0  0  0
 35 36  1  0  0  0  0
 36 37  1  0  0  0  0
 36 33  1  1  0  0  0
 37 38  1  0  0  0  0
 39 37  1  0  0  0  0
 40 39  1  0  0  0  0
 41 39  1  0  0  0  0
 42 41  1  0  0  0  0
 42 35  1  0  0  0  0
M  END
>  <minimizedAffinity>
-5.64045429

$$$$

 OpenBabel03272504403D

 42 44  0  0  1  0  0  0  0  0999 V2000
   37.7100   25.0440   34.5770 Cl  0  0  0  0  0  0  0  0  0  0  0  0
   39.2230   24.1940   34.8780 C   0  0  0  0  0  0  0  0  0  0  0  0
   39.2260   22.8330   34.9330 C   0  0  0  0  0  0  0  0  0  0  0  0
   40.3950   22.1610   35.1650 C   0  0  0  0  0  0  0  0  0  0  0  0
   41.5600   22.8860   35.3400 C   0  0  0  0  0  0  0  0  0  0  0  0
   41.5050   24.2790   35.2730 C   0  0  0  0  0  0  0  0  0  0  0  0
   40.3510   24.9660   35.0440 C   0  0  0  0  0  0  0  0  0  0  0  0
   40.3530   21.0650   35.2020 H   0  0  0  0  0  0  0  0  0  0  0  0
   42.4260   22.2550   35.5170 H   0  0  0  0  0  0  0  0  0  0  0  0
   42.4640   24.6330   35.4280 H   0  0  0  0  0  0  0  0  0  0  0  0
   36.4310   20.9610   33.4050 C   0  0  0  0  0  0  0  0  0  0  0  0
   35.6460   20.6620   34.5500 C   0  0  0  0  0  0  0  0  0  0  0  0
   36.1090   21.1140   35.7960 C   0  0  0  0  0  0  0  0  0  0  0  0
   37.2740   21.8110   35.8590 N   0  0  0  0  0  0  0  0  0  0  0  0
   37.9930   22.0770   34.7490 C   0  0  0  0  0  0  0  0  0  0  0  0
   37.5690   21.6530   33.5400 N   0  0  0  0  0  0  0  0  0  0  0  0
   36.0360   20.5940   32.4730 H   0  0  0  0  0  0  0  0  0  0  0  0
   34.7220   20.1060   34.4830 H   0  0  0  0  0  0  0  0  0  0  0  0
   35.3130   20.8040   36.9220 N   0  0  0  0  0  0  0  0  0  0  0  0
   35.5720   20.1870   37.7100 H   0  0  0  0  0  0  0  0  0  0  0  0
   34.3590   21.2290   36.9970 H   0  0  0  0  0  0  0  0  0  0  0  0
   40.3120   26.4100   34.9860 C   0  0  0  0  0  0  0  0  0  0  0  0
   40.9670   26.7860   35.8260 H   0  0  0  0  0  0  0  0  0  0  0  0
   39.2990   26.7560   35.2770 H   0  0  0  0  0  0  0  0  0  0  0  0
   40.7070   27.0890   33.7570 C   0  0  0  0  0  0  0  0  0  0  0  0
   41.4110   26.4940   33.1360 H   0  0  0  0  0  0  0  0  0  0  0  0
   41.2480   28.0300   34.0040 H   0  0  0  0  0  0  0  0  0  0  0  0
   39.6300   27.3760   32.9550 O   0  0  0  0  0  0  0  0  0  0  0  0
   40.1720   25.2520   31.4940 O   0  0  0  0  0  0  0  0  0  0  0  0
   39.8400   26.7230   31.4300 P   0  0  2  0  0  0  0  0  0  0  0  0
   41.1190   27.6020   30.6950 O   0  0  0  0  0  0  0  0  0  0  0  0
   40.9340   28.5520   30.8120 H   0  0  0  0  0  0  0  0  0  0  0  0
   38.5000   26.9370   30.4560 O   0  0  0  0  0  0  0  0  0  0  0  0
   36.8700   24.9900   29.3310 H   0  0  0  0  0  0  0  0  0  0  0  0
   37.5400   24.8560   30.1300 N   0  0  0  0  0  0  0  0  0  0  0  0
   37.5190   26.0700   30.9600 C   0  0  2  0  0  3  0  0  0  0  0  0
   36.1440   26.6430   30.9380 C   0  0  0  0  0  3  0  0  0  0  0  0
   36.0540   27.4530   30.1930 H   0  0  0  0  0  0  0  0  0  0  0  0
   35.2120   25.5870   30.5860 N   0  0  0  0  0  0  0  0  0  0  0  0
   34.2650   25.8690   30.9200 H   0  0  0  0  0  0  0  0  0  0  0  0
   35.5190   24.3360   31.2610 C   0  0  0  0  0  2  0  0  0  0  0  0
   36.9040   23.8400   30.9820 C   0  0  0  0  0  2  0  0  0  0  0  0
  1  2  1  0  0  0  0
  2  3  2  0  0  0  0
  2  7  1  0  0  0  0
  3  4  1  0  0  0  0
  4  8  1  0  0  0  0
  4  5  2  0  0  0  0
  5  9  1  0  0  0  0
  6  5  1  0  0  0  0
  6 10  1  0  0  0  0
  7  6  2  0  0  0  0
 11 16  2  0  0  0  0
 11 12  1  0  0  0  0
 12 13  2  0  0  0  0
 13 14  1  0  0  0  0
 13 19  1  0  0  0  0
 15  3  1  0  0  0  0
 15 14  2  0  0  0  0
 16 15  1  0  0  0  0
 17 11  1  0  0  0  0
 18 12  1  0  0  0  0
 19 21  1  0  0  0  0
 19 20  1  0  0  0  0
 22  7  1  0  0  0  0
 22 24  1  0  0  0  0
 22 23  1  0  0  0  0
 25 27  1  0  0  0  0
 25 22  1  0  0  0  0
 26 25  1  0  0  0  0
 28 25  1  0  0  0  0
 30 29  2  1  0  0  0
 30 28  1  0  0  0  0
 31 32  1  0  0  0  0
 31 30  1  0  0  0  0
 33 30  1  0  0  0  0
 34 35  1  0  0  0  0
 35 36  1  0  0  0  0
 35 42  1  0  0  0  0
 36 33  1  6  0  0  0
 37 36  1  0  0  0  0
 38 37  1  0  0  0  0
 39 40  1  0  0  0  0
 39 37  1  0  0  0  0
 39 41  1  0  0  0  0
 42 41  1  0  0  0  0
M  END
>  <minimizedAffinity>
-5.59604454

$$$$

 OpenBabel03272504403D

 42 44  0  0  1  0  0  0  0  0999 V2000
   36.4190   24.6710   32.0550 Cl  0  0  0  0  0  0  0  0  0  0  0  0
   38.0660   24.0670   31.9120 C   0  0  0  0  0  0  0  0  0  0  0  0
   38.3020   22.7310   32.0310 C   0  0  0  0  0  0  0  0  0  0  0  0
   39.5770   22.2480   31.9220 C   0  0  0  0  0  0  0  0  0  0  0  0
   40.6100   23.1370   31.6890 C   0  0  0  0  0  0  0  0  0  0  0  0
   40.3180   24.4970   31.5730 C   0  0  0  0  0  0  0  0  0  0  0  0
   39.0550   24.9960   31.6800 C   0  0  0  0  0  0  0  0  0  0  0  0
   39.7220   21.1650   32.0240 H   0  0  0  0  0  0  0  0  0  0  0  0
   41.5780   22.6500   31.6190 H   0  0  0  0  0  0  0  0  0  0  0  0
   41.2110   24.9910   31.4040 H   0  0  0  0  0  0  0  0  0  0  0  0
   35.5400   20.3240   31.5450 C   0  0  0  0  0  0  0  0  0  0  0  0
   35.1590   20.0730   32.8900 C   0  0  0  0  0  0  0  0  0  0  0  0
   35.8640   20.7390   33.9050 C   0  0  0  0  0  0  0  0  0  0  0  0
   36.8720   21.5870   33.5670 N   0  0  0  0  0  0  0  0  0  0  0  0
   37.2060   21.8000   32.2780 C   0  0  0  0  0  0  0  0  0  0  0  0
   36.5430   21.1720   31.2850 N   0  0  0  0  0  0  0  0  0  0  0  0
   34.9710   19.7910   30.8030 H   0  0  0  0  0  0  0  0  0  0  0  0
   34.3550   19.3960   33.1410 H   0  0  0  0  0  0  0  0  0  0  0  0
   35.4690   20.4740   35.2360 N   0  0  0  0  0  0  0  0  0  0  0  0
   36.0300   20.0030   35.9650 H   0  0  0  0  0  0  0  0  0  0  0  0
   34.5150   20.7740   35.5460 H   0  0  0  0  0  0  0  0  0  0  0  0
   38.7720   26.4100   31.5650 C   0  0  0  0  0  0  0  0  0  0  0  0
   37.7640   26.4980   31.0620 H   0  0  0  0  0  0  0  0  0  0  0  0
   39.4670   26.8570   30.8250 H   0  0  0  0  0  0  0  0  0  0  0  0
   38.7620   27.2400   32.7640 C   0  0  0  0  0  0  0  0  0  0  0  0
   37.7940   27.7620   32.9250 H   0  0  0  0  0  0  0  0  0  0  0  0
   39.5240   28.0460   32.6700 H   0  0  0  0  0  0  0  0  0  0  0  0
   39.0030   26.5100   33.9000 O   0  0  0  0  0  0  0  0  0  0  0  0
   36.8030   27.7940   34.5730 O   0  0  0  0  0  0  0  0  0  0  0  0
   37.9000   26.8990   35.0960 P   0  0  2  0  0  0  0  0  0  0  0  0
   38.7860   27.6860   36.3390 O   0  0  0  0  0  0  0  0  0  0  0  0
   39.5690   27.1410   36.5380 H   0  0  0  0  0  0  0  0  0  0  0  0
   37.2130   25.5450   35.7920 O   0  0  0  0  0  0  0  0  0  0  0  0
   37.9430   22.8680   35.6720 H   0  0  0  0  0  0  0  0  0  0  0  0
   38.5300   23.6880   35.3760 N   0  0  0  0  0  0  0  0  0  0  0  0
   38.2820   24.7960   36.3090 C   0  0  2  0  0  3  0  0  0  0  0  0
   38.0200   24.2350   37.6640 C   0  0  0  0  0  3  0  0  0  0  0  0
   36.9380   24.1520   37.8670 H   0  0  0  0  0  0  0  0  0  0  0  0
   38.6050   22.9080   37.7320 N   0  0  0  0  0  0  0  0  0  0  0  0
   38.7520   22.6720   38.7370 H   0  0  0  0  0  0  0  0  0  0  0  0
   39.9190   22.8540   37.1110 C   0  0  0  0  0  2  0  0  0  0  0  0
   39.9120   23.2820   35.6770 C   0  0  0  0  0  2  0  0  0  0  0  0
  2  3  1  0  0  0  0
  2  1  1  0  0  0  0
  3 15  1  0  0  0  0
  4  8  1  0  0  0  0
  4  3  2  0  0  0  0
  5  4  1  0  0  0  0
  6  7  1  0  0  0  0
  6  5  2  0  0  0  0
  7  2  2  0  0  0  0
  9  5  1  0  0  0  0
 10  6  1  0  0  0  0
 11 12  1  0  0  0  0
 12 18  1  0  0  0  0
 12 13  2  0  0  0  0
 13 19  1  0  0  0  0
 14 13  1  0  0  0  0
 15 14  2  0  0  0  0
 16 11  2  0  0  0  0
 16 15  1  0  0  0  0
 17 11  1  0  0  0  0
 19 21  1  0  0  0  0
 19 20  1  0  0  0  0
 22  7  1  0  0  0  0
 22 25  1  0  0  0  0
 23 22  1  0  0  0  0
 24 22  1  0  0  0  0
 25 26  1  0  0  0  0
 25 28  1  0  0  0  0
 27 25  1  0  0  0  0
 28 30  1  0  0  0  0
 30 29  2  6  0  0  0
 30 33  1  0  0  0  0
 30 31  1  0  0  0  0
 31 32  1  0  0  0  0
 35 34  1  0  0  0  0
 35 42  1  0  0  0  0
 35 36  1  0  0  0  0
 36 33  1  6  0  0  0
 36 37  1  0  0  0  0
 37 39  1  0  0  0  0
 37 38  1  0  0  0  0
 39 40  1  0  0  0  0
 41 39  1  0  0  0  0
 42 41  1  0  0  0  0
M  END
>  <minimizedAffinity>
-5.56635189

$$$$
