
 OpenBabel03272502513D

 27 29  0  0  0  0  0  0  0  0999 V2000
   35.9250   30.2350   48.5580 C   0  0  0  0  0  0  0  0  0  0  0  0
   35.9500   29.2500   49.5140 C   0  0  0  0  0  0  0  0  0  0  0  0
   34.9660   28.2840   49.6000 C   0  0  0  0  0  0  0  0  0  0  0  0
   33.9540   28.3720   48.6600 C   0  0  0  0  0  0  0  0  0  0  0  0
   33.8970   29.3540   47.6800 C   0  0  0  0  0  0  0  0  0  0  0  0
   34.9130   30.2530   47.6860 N   0  0  0  0  0  0  0  0  0  0  0  0
   36.7400   29.1680   50.2600 H   0  0  0  0  0  0  0  0  0  0  0  0
   34.9720   27.5050   50.3450 H   0  0  0  0  0  0  0  0  0  0  0  0
   33.1720   27.6240   48.7100 H   0  0  0  0  0  0  0  0  0  0  0  0
   32.8290   29.3980   46.7350 N   0  0  0  0  0  0  0  0  0  0  0  0
   32.0300   28.1910   46.6560 C   0  0  0  0  0  0  0  0  0  0  0  0
   32.6720   27.3330   46.3040 H   0  0  0  0  0  0  0  0  0  0  0  0
   30.8970   28.3160   45.6840 C   0  0  0  0  0  0  0  0  0  0  0  0
   29.9720   28.5550   46.2510 H   0  0  0  0  0  0  0  0  0  0  0  0
   31.0770   29.3760   44.7070 N   0  0  0  0  0  0  0  0  0  0  0  0
   31.8680   29.1810   44.0560 H   0  0  0  0  0  0  0  0  0  0  0  0
   31.3110   30.6540   45.3400 C   0  0  0  0  0  0  0  0  0  0  0  0
   32.6700   30.6260   45.9770 C   0  0  0  0  0  0  0  0  0  0  0  0
   38.0890   33.0390   49.4700 C   0  0  0  0  0  0  0  0  0  0  0  0
   38.9630   33.1340   48.3880 C   0  0  0  0  0  0  0  0  0  0  0  0
   38.7950   32.2210   47.3450 C   0  0  0  0  0  0  0  0  0  0  0  0
   37.7960   31.2950   47.4400 N   0  0  0  0  0  0  0  0  0  0  0  0
   36.9760   31.2360   48.4960 C   0  0  0  0  0  0  0  0  0  0  0  0
   37.1250   32.1090   49.5080 N   0  0  0  0  0  0  0  0  0  0  0  0
   38.1460   33.7100   50.3270 H   0  0  0  0  0  0  0  0  0  0  0  0
   39.7250   33.8970   48.3960 H   0  0  0  0  0  0  0  0  0  0  0  0
   39.4600   32.2720   46.4930 H   0  0  0  0  0  0  0  0  0  0  0  0
  1  2  1  0  0  0  0
  2  3  2  0  0  0  0
  2  7  1  0  0  0  0
  3  8  1  0  0  0  0
  4  9  1  0  0  0  0
  4  3  1  0  0  0  0
  5  6  1  0  0  0  0
  5  4  2  0  0  0  0
  6  1  2  0  0  0  0
 10  5  1  0  0  0  0
 11 10  1  0  0  0  0
 12 11  1  0  0  0  0
 13 14  1  0  0  0  0
 13 11  1  0  0  0  0
 15 17  1  0  0  0  0
 15 13  1  0  0  0  0
 16 15  1  0  0  0  0
 17 18  1  0  0  0  0
 18 10  1  0  0  0  0
 19 24  1  0  0  0  0
 19 25  1  0  0  0  0
 20 26  1  0  0  0  0
 20 19  2  0  0  0  0
 21 22  2  0  0  0  0
 21 20  1  0  0  0  0
 22 23  1  0  0  0  0
 23  1  1  0  0  0  0
 23 24  2  0  0  0  0
 27 21  1  0  0  0  0
M  END
>  <minimizedAffinity>
-5.59958315

>  <minimizedRMSD>
0.13817963

$$$$
