
 OpenBabel03272510003D

 21 22  0  0  0  0  0  0  0  0999 V2000
   37.9470   32.5790   49.5770 C   0  0  0  0  0  0  0  0  0  0  0  0
   38.6200   32.6360   48.3540 C   0  0  0  0  0  0  0  0  0  0  0  0
   38.1410   31.8510   47.3060 C   0  0  0  0  0  0  0  0  0  0  0  0
   37.0500   31.0800   47.5410 N   0  0  0  0  0  0  0  0  0  0  0  0
   36.4190   31.0400   48.7180 C   0  0  0  0  0  0  0  0  0  0  0  0
   36.8750   31.7960   49.7380 N   0  0  0  0  0  0  0  0  0  0  0  0
   38.3400   33.2070   50.3930 H   0  0  0  0  0  0  0  0  0  0  0  0
   39.4940   33.2480   48.1530 H   0  0  0  0  0  0  0  0  0  0  0  0
   38.7260   31.8120   46.0170 N   0  0  0  0  0  0  0  0  0  0  0  0
   38.0820   32.3510   44.8240 C   0  0  0  0  0  3  0  0  0  0  0  0
   37.3260   33.1220   45.0860 H   0  0  0  0  0  0  0  0  0  0  0  0
   39.0660   32.9790   43.8900 C   0  0  0  0  0  3  0  0  0  0  0  0
   38.5830   33.0350   42.8940 H   0  0  0  0  0  0  0  0  0  0  0  0
   40.3140   32.2940   43.7580 N   0  0  0  0  0  0  0  0  0  0  0  0
   41.0590   32.9000   44.1970 H   0  0  0  0  0  0  0  0  0  0  0  0
   40.3610   31.0320   44.4410 C   0  0  0  0  0  2  0  0  0  0  0  0
   40.0300   31.1980   45.9230 C   0  0  0  0  0  2  0  0  0  0  0  0
   35.2340   30.1570   48.8590 C   0  0  0  0  0  0  0  0  0  0  0  0
   34.4740   30.4800   49.9750 F   0  0  0  0  0  0  0  0  0  0  0  0
   34.3900   30.2840   47.7660 F   0  0  0  0  0  0  0  0  0  0  0  0
   35.5660   28.8300   48.9510 F   0  0  0  0  0  0  0  0  0  0  0  0
  1  6  1  0  0  0  0
  1  7  1  0  0  0  0
  2  1  2  0  0  0  0
  3  4  2  0  0  0  0
  3  2  1  0  0  0  0
  4  5  1  0  0  0  0
  5 18  1  0  0  0  0
  5  6  2  0  0  0  0
  8  2  1  0  0  0  0
  9  3  1  0  0  0  0
 10 11  1  0  0  0  0
 10  9  1  0  0  0  0
 12 10  1  0  0  0  0
 13 12  1  0  0  0  0
 14 12  1  0  0  0  0
 14 15  1  0  0  0  0
 14 16  1  0  0  0  0
 16 17  1  0  0  0  0
 17  9  1  0  0  0  0
 18 21  1  0  0  0  0
 18 19  1  0  0  0  0
 20 18  1  0  0  0  0
M  END
>  <minimizedAffinity>
-5.30558681

>  <minimizedRMSD>
2.04778194

$$$$
