
 OpenBabel03262523213D

 33 35  0  0  1  0  0  0  0  0999 V2000
   38.5340   32.8320   47.6810 C   0  0  0  0  0  0  0  0  0  0  0  0
   39.4920   32.0700   46.9650 C   0  0  0  0  0  0  0  0  0  0  0  0
   39.2000   30.7290   46.6780 C   0  0  0  0  0  0  0  0  0  0  0  0
   38.0010   30.2340   47.1080 N   0  0  0  0  0  0  0  0  0  0  0  0
   37.1100   30.9990   47.7910 C   0  0  0  0  0  0  0  0  0  0  0  0
   37.3790   32.2770   48.0690 N   0  0  0  0  0  0  0  0  0  0  0  0
   35.8710   30.4050   48.2090 N   0  0  0  0  0  0  0  0  0  0  0  0
   35.4010   30.6410   49.5650 C   0  0  0  0  0  0  0  0  0  0  0  0
   34.5920   29.4920   50.1220 C   0  0  0  0  0  0  0  0  0  0  0  0
   34.9420   28.2500   49.3310 C   0  0  0  0  0  0  0  0  0  0  0  0
   34.3530   28.4840   47.9460 C   0  0  0  0  0  0  0  0  0  0  0  0
   35.1130   29.5870   47.2900 C   0  0  1  0  0  0  0  0  0  0  0  0
   38.7290   33.8710   47.9200 H   0  0  0  0  0  0  0  0  0  0  0  0
   40.4160   32.5060   46.6500 H   0  0  0  0  0  0  0  0  0  0  0  0
   39.8930   30.0980   46.1340 H   0  0  0  0  0  0  0  0  0  0  0  0
   34.8750   31.6000   49.6870 H   0  0  0  0  0  0  0  0  0  0  0  0
   36.3040   30.7130   50.2250 H   0  0  0  0  0  0  0  0  0  0  0  0
   34.8080   29.2670   51.1830 H   0  0  0  0  0  0  0  0  0  0  0  0
   33.5170   29.7020   49.9730 H   0  0  0  0  0  0  0  0  0  0  0  0
   34.4970   27.3440   49.7940 H   0  0  0  0  0  0  0  0  0  0  0  0
   36.0420   28.1720   49.2020 H   0  0  0  0  0  0  0  0  0  0  0  0
   33.2860   28.6760   48.1120 H   0  0  0  0  0  0  0  0  0  0  0  0
   34.3860   27.5220   47.3610 H   0  0  0  0  0  0  0  0  0  0  0  0
   35.9090   29.0570   46.6840 H   0  0  0  0  0  0  0  0  0  0  0  0
   34.3070   30.2700   46.3580 N   0  0  1  0  0  0  0  0  0  0  0  0
   34.7430   30.3180   45.0110 C   0  0  0  0  0  0  0  0  0  0  0  0
   35.1100   29.2940   44.7320 H   0  0  0  0  0  0  0  0  0  0  0  0
   33.6440   30.6370   44.0450 C   0  0  0  0  0  0  0  0  0  0  0  0
   34.1040   31.1480   43.1720 H   0  0  0  0  0  0  0  0  0  0  0  0
   32.6070   31.4650   44.5540 N   0  0  0  0  0  0  0  0  0  0  0  0
   32.6490   32.4590   44.2690 H   0  0  0  0  0  0  0  0  0  0  0  0
   32.2120   31.2300   45.9010 C   0  0  0  0  0  0  0  0  0  0  0  0
   32.9070   29.9510   46.3960 C   0  0  0  0  0  0  0  0  0  0  0  0
  1 13  1  0  0  0  0
  1  6  1  0  0  0  0
  2  1  2  0  0  0  0
  3  2  1  0  0  0  0
  3  4  2  0  0  0  0
  4  5  1  0  0  0  0
  5  6  2  0  0  0  0
  5  7  1  0  0  0  0
  7  8  1  0  0  0  0
  8 16  1  0  0  0  0
  8  9  1  0  0  0  0
  8 17  1  0  0  0  0
  9 18  1  0  0  0  0
 10 20  1  0  0  0  0
 10  9  1  0  0  0  0
 11 22  1  0  0  0  0
 11 10  1  0  0  0  0
 12 24  1  6  0  0  0
 12 11  1  0  0  0  0
 12  7  1  0  0  0  0
 14  2  1  0  0  0  0
 15  3  1  0  0  0  0
 19  9  1  0  0  0  0
 21 10  1  0  0  0  0
 23 11  1  0  0  0  0
 25 33  1  6  0  0  0
 25 12  1  0  0  0  0
 26 25  1  0  0  0  0
 27 26  1  0  0  0  0
 28 30  1  0  0  0  0
 28 26  1  0  0  0  0
 29 28  1  0  0  0  0
 30 32  1  0  0  0  0
 31 30  1  0  0  0  0
 32 33  1  0  0  0  0
M  END
>  <minimizedAffinity>
-4.33379412

>  <minimizedRMSD>
1.6043849

$$$$
