
 OpenBabel03272505143D

 28 30  0  0  0  0  0  0  0  0999 V2000
   38.2730   30.9650   47.8220 Cl  0  0  0  0  0  0  0  0  0  0  0  0
   36.9920   30.6010   46.7050 C   0  0  0  0  0  0  0  0  0  0  0  0
   35.8190   30.0690   47.1480 C   0  0  0  0  0  0  0  0  0  0  0  0
   34.8580   29.8110   46.1940 C   0  0  0  0  0  0  0  0  0  0  0  0
   35.0070   30.0500   44.8630 C   0  0  0  0  0  0  0  0  0  0  0  0
   36.2000   30.5880   44.4410 C   0  0  0  0  0  0  0  0  0  0  0  0
   37.2110   30.8710   45.3580 C   0  0  0  0  0  0  0  0  0  0  0  0
   33.9170   29.3880   46.5200 H   0  0  0  0  0  0  0  0  0  0  0  0
   34.2010   29.8200   44.1740 H   0  0  0  0  0  0  0  0  0  0  0  0
   36.3430   30.7890   43.3850 H   0  0  0  0  0  0  0  0  0  0  0  0
   36.5220   29.2150   50.7650 C   0  0  0  0  0  0  0  0  0  0  0  0
   36.7160   29.4550   49.4010 C   0  0  0  0  0  0  0  0  0  0  0  0
   35.6610   29.8130   48.5670 C   0  0  0  0  0  0  0  0  0  0  0  0
   34.4500   29.9110   49.1720 N   0  0  0  0  0  0  0  0  0  0  0  0
   34.2560   29.6840   50.4760 C   0  0  0  0  0  0  0  0  0  0  0  0
   35.2880   29.3360   51.2760 N   0  0  0  0  0  0  0  0  0  0  0  0
   37.3550   28.9390   51.3980 H   0  0  0  0  0  0  0  0  0  0  0  0
   37.6760   29.3710   48.9470 H   0  0  0  0  0  0  0  0  0  0  0  0
   33.2710   29.7750   50.9150 H   0  0  0  0  0  0  0  0  0  0  0  0
   38.4510   31.4310   44.9070 N   0  0  0  0  0  0  0  0  0  0  0  0
   38.7480   32.8490   44.8310 C   0  0  0  0  0  0  0  0  0  0  0  0
   37.9560   33.3030   44.1960 H   0  0  0  0  0  0  0  0  0  0  0  0
   40.0860   32.9490   44.0980 C   0  0  0  0  0  0  0  0  0  0  0  0
   40.3030   34.0110   43.9360 H   0  0  0  0  0  0  0  0  0  0  0  0
   39.9110   32.2480   42.8580 N   0  0  0  0  0  0  0  0  0  0  0  0
   40.5710   32.5520   42.1070 H   0  0  0  0  0  0  0  0  0  0  0  0
   39.8170   30.8310   43.0480 C   0  0  0  0  0  0  0  0  0  0  0  0
   39.4940   30.5020   44.4920 C   0  0  0  0  0  0  0  0  0  0  0  0
  2  3  1  0  0  0  0
  2  1  1  0  0  0  0
  3 13  1  0  0  0  0
  4  8  1  0  0  0  0
  4  3  2  0  0  0  0
  5  4  1  0  0  0  0
  6  5  2  0  0  0  0
  6  7  1  0  0  0  0
  7  2  2  0  0  0  0
  9  5  1  0  0  0  0
 10  6  1  0  0  0  0
 11 16  1  0  0  0  0
 11 17  1  0  0  0  0
 12 11  2  0  0  0  0
 13 14  2  0  0  0  0
 13 12  1  0  0  0  0
 14 15  1  0  0  0  0
 15 19  1  0  0  0  0
 15 16  2  0  0  0  0
 18 12  1  0  0  0  0
 20  7  1  0  0  0  0
 21 20  1  0  0  0  0
 22 21  1  0  0  0  0
 23 21  1  0  0  0  0
 24 23  1  0  0  0  0
 25 27  1  0  0  0  0
 25 23  1  0  0  0  0
 26 25  1  0  0  0  0
 27 28  1  0  0  0  0
 28 20  1  0  0  0  0
M  END
>  <minimizedAffinity>
-5.14580727

>  <minimizedRMSD>
3.80051899

$$$$
