
 OpenBabel03272510003D

 21 22  0  0  0  0  0  0  0  0999 V2000
   38.3320   31.2210   50.3630 C   0  0  0  0  0  0  0  0  0  0  0  0
   38.5070   31.5430   49.0140 C   0  0  0  0  0  0  0  0  0  0  0  0
   37.5410   31.1090   48.1080 C   0  0  0  0  0  0  0  0  0  0  0  0
   36.4920   30.3980   48.5930 N   0  0  0  0  0  0  0  0  0  0  0  0
   36.3430   30.1000   49.8860 C   0  0  0  0  0  0  0  0  0  0  0  0
   37.2710   30.5160   50.7720 N   0  0  0  0  0  0  0  0  0  0  0  0
   39.1050   31.5730   51.0640 H   0  0  0  0  0  0  0  0  0  0  0  0
   39.3410   32.1110   48.6130 H   0  0  0  0  0  0  0  0  0  0  0  0
   37.5930   31.3640   46.7160 N   0  0  0  0  0  0  0  0  0  0  0  0
   36.8760   30.5710   45.7240 C   0  0  0  0  0  3  0  0  0  0  0  0
   36.0070   30.0470   46.1770 H   0  0  0  0  0  0  0  0  0  0  0  0
   36.3620   31.4100   44.5980 C   0  0  0  0  0  3  0  0  0  0  0  0
   36.1600   30.7290   43.7470 H   0  0  0  0  0  0  0  0  0  0  0  0
   37.2370   32.4510   44.1560 N   0  0  0  0  0  0  0  0  0  0  0  0
   36.7970   33.3730   44.4200 H   0  0  0  0  0  0  0  0  0  0  0  0
   38.5310   32.4260   44.7770 C   0  0  0  0  0  2  0  0  0  0  0  0
   38.4110   32.4790   46.2990 C   0  0  0  0  0  2  0  0  0  0  0  0
   35.1530   29.3160   50.3020 C   0  0  0  0  0  0  0  0  0  0  0  0
   35.1590   29.0420   51.6630 F   0  0  0  0  0  0  0  0  0  0  0  0
   33.9850   30.0190   50.0530 F   0  0  0  0  0  0  0  0  0  0  0  0
   35.0440   28.1200   49.6380 F   0  0  0  0  0  0  0  0  0  0  0  0
  1  6  1  0  0  0  0
  1  7  1  0  0  0  0
  2  1  2  0  0  0  0
  3  4  2  0  0  0  0
  3  2  1  0  0  0  0
  4  5  1  0  0  0  0
  5 18  1  0  0  0  0
  5  6  2  0  0  0  0
  8  2  1  0  0  0  0
  9  3  1  0  0  0  0
 10 11  1  0  0  0  0
 10  9  1  0  0  0  0
 12 10  1  0  0  0  0
 13 12  1  0  0  0  0
 14 15  1  0  0  0  0
 14 12  1  0  0  0  0
 14 16  1  0  0  0  0
 16 17  1  0  0  0  0
 17  9  1  0  0  0  0
 18 19  1  0  0  0  0
 20 18  1  0  0  0  0
 21 18  1  0  0  0  0
M  END
>  <minimizedAffinity>
-5.18211555

>  <minimizedRMSD>
0.524177074

$$$$
