
 OpenBabel03272508553D

 38 41  0  0  1  0  0  0  0  0999 V2000
   36.1260   28.8440   34.0910 C   0  0  0  0  0  0  0  0  0  0  0  0
   36.6810   27.9120   34.7060 O   0  0  0  0  0  0  0  0  0  0  0  0
   36.2630   28.9730   32.6550 N   0  0  0  0  0  0  0  0  0  0  0  0
   35.9860   29.8040   32.1160 H   0  0  0  0  0  0  0  0  0  0  0  0
   35.2990   29.8690   34.7850 C   0  0  0  0  0  0  0  0  0  0  0  0
   35.9250   30.9060   35.4240 C   0  0  0  0  0  0  0  0  0  0  0  0
   35.1220   31.8330   36.0620 C   0  0  0  0  0  0  0  0  0  0  0  0
   33.7580   31.6590   36.0150 C   0  0  0  0  0  0  0  0  0  0  0  0
   33.1260   30.6130   35.3690 C   0  0  0  0  0  0  0  0  0  0  0  0
   33.9510   29.7410   34.7670 N   0  0  0  0  0  0  0  0  0  0  0  0
   37.0010   31.0220   35.4480 H   0  0  0  0  0  0  0  0  0  0  0  0
   35.5300   32.6830   36.5920 H   0  0  0  0  0  0  0  0  0  0  0  0
   33.1030   32.3810   36.5130 H   0  0  0  0  0  0  0  0  0  0  0  0
   31.7480   30.3840   35.2870 N   0  0  0  0  0  0  0  0  0  0  0  0
   31.1610   29.0590   35.1800 C   0  0  0  0  0  3  0  0  0  0  0  0
   31.0980   28.8250   34.0820 H   0  0  0  0  0  0  0  0  0  0  0  0
   29.7440   29.1020   35.6710 C   0  0  0  0  0  3  0  0  0  0  0  0
   29.0400   29.3670   34.8610 H   0  0  0  0  0  0  0  0  0  0  0  0
   29.5430   29.9490   36.8230 N   0  0  0  0  0  0  0  0  0  0  0  0
   29.8490   29.5420   37.7130 H   0  0  0  0  0  0  0  0  0  0  0  0
   29.9410   31.3200   36.5970 C   0  0  0  0  0  2  0  0  0  0  0  0
   30.7350   31.4210   35.2950 C   0  0  0  0  0  2  0  0  0  0  0  0
   35.9390   26.9240   31.2830 C   0  0  2  0  0  0  0  0  0  0  0  0
   36.6050   27.9090   30.4140 C   0  0  0  0  0  0  0  0  0  0  0  0
   36.8360   27.8380   31.9470 C   0  0  1  0  0  0  0  0  0  0  0  0
   34.8380   27.0510   31.3320 H   0  0  0  0  0  0  0  0  0  0  0  0
   36.0400   28.7600   30.0230 H   0  0  0  0  0  0  0  0  0  0  0  0
   37.4480   27.5750   29.7710 H   0  0  0  0  0  0  0  0  0  0  0  0
   37.8730   27.5310   32.2050 H   0  0  0  0  0  0  0  0  0  0  0  0
   35.6660   23.2290   31.4160 C   0  0  0  0  0  0  0  0  0  0  0  0
   36.9910   22.8150   31.0640 C   0  0  0  0  0  0  0  0  0  0  0  0
   37.9640   23.8490   30.7930 C   0  0  0  0  0  0  0  0  0  0  0  0
   37.5820   25.1510   30.8820 N   0  0  0  0  0  0  0  0  0  0  0  0
   36.3010   25.4690   31.2240 C   0  0  0  0  0  0  0  0  0  0  0  0
   35.3230   24.5330   31.4960 N   0  0  0  0  0  0  0  0  0  0  0  0
   34.9740   22.4240   31.6110 H   0  0  0  0  0  0  0  0  0  0  0  0
   37.2260   21.7780   31.0120 H   0  0  0  0  0  0  0  0  0  0  0  0
   38.9550   23.5450   30.5290 H   0  0  0  0  0  0  0  0  0  0  0  0
  1  2  2  0  0  0  0
  1  5  1  0  0  0  0
  3  1  1  0  0  0  0
  4  3  1  0  0  0  0
  5  6  1  0  0  0  0
  6 11  1  0  0  0  0
  6  7  2  0  0  0  0
  7 12  1  0  0  0  0
  8  7  1  0  0  0  0
  8 13  1  0  0  0  0
  9  8  2  0  0  0  0
 10  5  2  0  0  0  0
 10  9  1  0  0  0  0
 14 22  1  0  0  0  0
 14  9  1  0  0  0  0
 15 14  1  0  0  0  0
 15 17  1  0  0  0  0
 16 15  1  0  0  0  0
 17 19  1  0  0  0  0
 18 17  1  0  0  0  0
 19 20  1  0  0  0  0
 21 19  1  0  0  0  0
 22 21  1  0  0  0  0
 23 26  1  1  0  0  0
 23 25  1  0  0  0  0
 24 23  1  0  0  0  0
 24 25  1  0  0  0  0
 25 29  1  1  0  0  0
 25  3  1  0  0  0  0
 27 24  1  0  0  0  0
 28 24  1  0  0  0  0
 30 35  1  0  0  0  0
 30 36  1  0  0  0  0
 31 30  2  0  0  0  0
 32 33  2  0  0  0  0
 32 31  1  0  0  0  0
 33 34  1  0  0  0  0
 34 23  1  0  0  0  0
 34 35  2  0  0  0  0
 37 31  1  0  0  0  0
 38 32  1  0  0  0  0
M  END
>  <minimizedAffinity>
-5.56096458

$$$$

 OpenBabel03272508553D

 38 41  0  0  1  0  0  0  0  0999 V2000
   36.2390   27.5630   32.7030 C   0  0  0  0  0  0  0  0  0  0  0  0
   35.4210   27.7520   31.7820 O   0  0  0  0  0  0  0  0  0  0  0  0
   36.3410   28.4920   33.8100 N   0  0  0  0  0  0  0  0  0  0  0  0
   37.1040   28.4930   34.5000 H   0  0  0  0  0  0  0  0  0  0  0  0
   37.1520   26.3870   32.7220 C   0  0  0  0  0  0  0  0  0  0  0  0
   37.5330   25.8230   31.5330 C   0  0  0  0  0  0  0  0  0  0  0  0
   38.3760   24.7290   31.5940 C   0  0  0  0  0  0  0  0  0  0  0  0
   38.7760   24.2790   32.8310 C   0  0  0  0  0  0  0  0  0  0  0  0
   38.3910   24.8490   34.0310 C   0  0  0  0  0  0  0  0  0  0  0  0
   37.5740   25.9080   33.9160 N   0  0  0  0  0  0  0  0  0  0  0  0
   37.2050   26.1940   30.5710 H   0  0  0  0  0  0  0  0  0  0  0  0
   38.7270   24.2200   30.7060 H   0  0  0  0  0  0  0  0  0  0  0  0
   39.4430   23.4140   32.9030 H   0  0  0  0  0  0  0  0  0  0  0  0
   38.7650   24.4390   35.3150 N   0  0  0  0  0  0  0  0  0  0  0  0
   37.9220   24.6080   36.4880 C   0  0  0  0  0  3  0  0  0  0  0  0
   38.1730   25.6180   36.9160 H   0  0  0  0  0  0  0  0  0  0  0  0
   38.3170   23.6090   37.5340 C   0  0  0  0  0  3  0  0  0  0  0  0
   39.1240   23.9960   38.1840 H   0  0  0  0  0  0  0  0  0  0  0  0
   38.6620   22.3080   37.0090 N   0  0  0  0  0  0  0  0  0  0  0  0
   37.8610   21.7280   36.7430 H   0  0  0  0  0  0  0  0  0  0  0  0
   39.7440   22.3510   36.0520 C   0  0  0  0  0  2  0  0  0  0  0  0
   40.0230   23.7980   35.6480 C   0  0  0  0  0  2  0  0  0  0  0  0
   35.4430   30.5350   34.9070 C   0  0  2  0  0  0  0  0  0  0  0  0
   35.7350   30.9030   33.5110 C   0  0  0  0  0  0  0  0  0  0  0  0
   35.2820   29.4810   33.9350 C   0  0  1  0  0  0  0  0  0  0  0  0
   36.3300   30.5830   35.5710 H   0  0  0  0  0  0  0  0  0  0  0  0
   36.7720   31.0310   33.1870 H   0  0  0  0  0  0  0  0  0  0  0  0
   34.9940   31.5110   32.9490 H   0  0  0  0  0  0  0  0  0  0  0  0
   34.2760   29.2210   33.5390 H   0  0  0  0  0  0  0  0  0  0  0  0
   33.2940   32.3490   37.3220 C   0  0  0  0  0  0  0  0  0  0  0  0
   31.9780   32.0520   36.8410 C   0  0  0  0  0  0  0  0  0  0  0  0
   31.8710   31.2070   35.6720 C   0  0  0  0  0  0  0  0  0  0  0  0
   33.0080   30.7400   35.0910 N   0  0  0  0  0  0  0  0  0  0  0  0
   34.2270   31.0660   35.6080 C   0  0  0  0  0  0  0  0  0  0  0  0
   34.4020   31.8660   36.7190 N   0  0  0  0  0  0  0  0  0  0  0  0
   33.3260   32.9820   38.1970 H   0  0  0  0  0  0  0  0  0  0  0  0
   31.1280   32.4490   37.3420 H   0  0  0  0  0  0  0  0  0  0  0  0
   30.8910   30.9820   35.3080 H   0  0  0  0  0  0  0  0  0  0  0  0
  1  5  1  0  0  0  0
  1  3  1  0  0  0  0
  2  1  2  0  0  0  0
  3 25  1  0  0  0  0
  3  4  1  0  0  0  0
  5 10  1  0  0  0  0
  6  7  1  0  0  0  0
  6  5  2  0  0  0  0
  7  8  2  0  0  0  0
  8 13  1  0  0  0  0
  8  9  1  0  0  0  0
  9 14  1  0  0  0  0
 10  9  2  0  0  0  0
 11  6  1  0  0  0  0
 12  7  1  0  0  0  0
 14 22  1  0  0  0  0
 14 15  1  0  0  0  0
 15 16  1  0  0  0  0
 15 17  1  0  0  0  0
 17 18  1  0  0  0  0
 19 17  1  0  0  0  0
 20 19  1  0  0  0  0
 21 19  1  0  0  0  0
 22 21  1  0  0  0  0
 23 26  1  1  0  0  0
 23 34  1  0  0  0  0
 24 25  1  0  0  0  0
 24 23  1  0  0  0  0
 25 29  1  6  0  0  0
 25 23  1  0  0  0  0
 27 24  1  0  0  0  0
 28 24  1  0  0  0  0
 30 36  1  0  0  0  0
 31 30  1  0  0  0  0
 31 37  1  0  0  0  0
 32 31  2  0  0  0  0
 33 34  2  0  0  0  0
 33 32  1  0  0  0  0
 34 35  1  0  0  0  0
 35 30  2  0  0  0  0
 38 32  1  0  0  0  0
M  END
>  <minimizedAffinity>
-5.55507231

$$$$

 OpenBabel03272508553D

 38 41  0  0  1  0  0  0  0  0999 V2000
   36.9570   26.8680   32.4850 C   0  0  0  0  0  0  0  0  0  0  0  0
   36.9660   26.4300   33.6520 O   0  0  0  0  0  0  0  0  0  0  0  0
   37.3740   26.0370   31.3740 N   0  0  0  0  0  0  0  0  0  0  0  0
   37.5590   26.3860   30.4240 H   0  0  0  0  0  0  0  0  0  0  0  0
   36.5210   28.2550   32.1640 C   0  0  0  0  0  0  0  0  0  0  0  0
   36.5780   28.6840   30.8640 C   0  0  0  0  0  0  0  0  0  0  0  0
   36.1710   29.9810   30.6090 C   0  0  0  0  0  0  0  0  0  0  0  0
   35.7390   30.7510   31.6630 C   0  0  0  0  0  0  0  0  0  0  0  0
   35.6810   30.3170   32.9750 C   0  0  0  0  0  0  0  0  0  0  0  0
   36.0870   29.0520   33.1690 N   0  0  0  0  0  0  0  0  0  0  0  0
   36.9220   28.0600   30.0500 H   0  0  0  0  0  0  0  0  0  0  0  0
   36.1820   30.4040   29.6130 H   0  0  0  0  0  0  0  0  0  0  0  0
   35.4120   31.7800   31.4840 H   0  0  0  0  0  0  0  0  0  0  0  0
   35.2520   31.0510   34.0860 N   0  0  0  0  0  0  0  0  0  0  0  0
   35.7600   30.8400   35.4310 C   0  0  0  0  0  3  0  0  0  0  0  0
   35.1020   30.0570   35.9010 H   0  0  0  0  0  0  0  0  0  0  0  0
   35.5570   32.0860   36.2410 C   0  0  0  0  0  3  0  0  0  0  0  0
   34.5640   32.0990   36.7280 H   0  0  0  0  0  0  0  0  0  0  0  0
   35.7840   33.3110   35.5100 N   0  0  0  0  0  0  0  0  0  0  0  0
   36.7710   33.5490   35.3710 H   0  0  0  0  0  0  0  0  0  0  0  0
   34.9430   33.4380   34.3410 C   0  0  0  0  0  2  0  0  0  0  0  0
   34.2570   32.1050   34.0480 C   0  0  0  0  0  2  0  0  0  0  0  0
   36.6220   23.6930   31.0230 C   0  0  2  0  0  0  0  0  0  0  0  0
   37.9430   23.8090   30.3820 C   0  0  0  0  0  0  0  0  0  0  0  0
   37.5390   24.6170   31.6440 C   0  0  1  0  0  0  0  0  0  0  0  0
   35.7880   24.0440   30.3810 H   0  0  0  0  0  0  0  0  0  0  0  0
   38.0450   24.3550   29.4400 H   0  0  0  0  0  0  0  0  0  0  0  0
   38.6870   22.9970   30.5330 H   0  0  0  0  0  0  0  0  0  0  0  0
   38.1240   24.3210   32.5420 H   0  0  0  0  0  0  0  0  0  0  0  0
   35.0220   20.4530   31.8520 C   0  0  0  0  0  0  0  0  0  0  0  0
   35.5680   20.1670   33.1450 C   0  0  0  0  0  0  0  0  0  0  0  0
   36.4880   21.1300   33.7070 C   0  0  0  0  0  0  0  0  0  0  0  0
   36.7900   22.2470   32.9930 N   0  0  0  0  0  0  0  0  0  0  0  0
   36.2300   22.4500   31.7680 C   0  0  0  0  0  0  0  0  0  0  0  0
   35.3450   21.5750   31.1720 N   0  0  0  0  0  0  0  0  0  0  0  0
   34.3400   19.7080   31.4710 H   0  0  0  0  0  0  0  0  0  0  0  0
   35.2900   19.2740   33.6520 H   0  0  0  0  0  0  0  0  0  0  0  0
   36.8990   20.9210   34.6730 H   0  0  0  0  0  0  0  0  0  0  0  0
  1  2  2  0  0  0  0
  3 25  1  0  0  0  0
  3  1  1  0  0  0  0
  4  3  1  0  0  0  0
  5  1  1  0  0  0  0
  5 10  1  0  0  0  0
  6  5  2  0  0  0  0
  7  6  1  0  0  0  0
  7  8  2  0  0  0  0
  8  9  1  0  0  0  0
  9 10  2  0  0  0  0
  9 14  1  0  0  0  0
 11  6  1  0  0  0  0
 12  7  1  0  0  0  0
 13  8  1  0  0  0  0
 14 15  1  0  0  0  0
 15 16  1  0  0  0  0
 15 17  1  0  0  0  0
 17 18  1  0  0  0  0
 19 17  1  0  0  0  0
 20 19  1  0  0  0  0
 21 19  1  0  0  0  0
 22 14  1  0  0  0  0
 22 21  1  0  0  0  0
 23 26  1  6  0  0  0
 23 25  1  0  0  0  0
 23 34  1  0  0  0  0
 24 28  1  0  0  0  0
 24 23  1  0  0  0  0
 24 25  1  0  0  0  0
 25 29  1  1  0  0  0
 27 24  1  0  0  0  0
 30 31  1  0  0  0  0
 31 37  1  0  0  0  0
 31 32  2  0  0  0  0
 32 38  1  0  0  0  0
 33 32  1  0  0  0  0
 34 33  2  0  0  0  0
 35 34  1  0  0  0  0
 35 30  2  0  0  0  0
 36 30  1  0  0  0  0
M  END
>  <minimizedAffinity>
-5.46063614

$$$$

 OpenBabel03272508553D

 38 41  0  0  1  0  0  0  0  0999 V2000
   35.7580   25.7040   31.1810 C   0  0  0  0  0  0  0  0  0  0  0  0
   34.5290   25.6440   30.9850 O   0  0  0  0  0  0  0  0  0  0  0  0
   36.3890   26.9450   31.5800 N   0  0  0  0  0  0  0  0  0  0  0  0
   37.4050   27.1070   31.5840 H   0  0  0  0  0  0  0  0  0  0  0  0
   36.6440   24.5180   31.0190 C   0  0  0  0  0  0  0  0  0  0  0  0
   37.8580   24.6750   30.4040 C   0  0  0  0  0  0  0  0  0  0  0  0
   38.6480   23.5490   30.2680 C   0  0  0  0  0  0  0  0  0  0  0  0
   38.1720   22.3530   30.7530 C   0  0  0  0  0  0  0  0  0  0  0  0
   36.9470   22.1950   31.3740 C   0  0  0  0  0  0  0  0  0  0  0  0
   36.2190   23.3190   31.4810 N   0  0  0  0  0  0  0  0  0  0  0  0
   38.2110   25.6270   30.0290 H   0  0  0  0  0  0  0  0  0  0  0  0
   39.6200   23.5800   29.7940 H   0  0  0  0  0  0  0  0  0  0  0  0
   38.7800   21.4490   30.6550 H   0  0  0  0  0  0  0  0  0  0  0  0
   36.4100   21.0090   31.8870 N   0  0  0  0  0  0  0  0  0  0  0  0
   34.9840   20.7340   31.9460 C   0  0  0  0  0  3  0  0  0  0  0  0
   34.6240   21.1310   32.9350 H   0  0  0  0  0  0  0  0  0  0  0  0
   34.7650   19.2510   31.9960 C   0  0  0  0  0  3  0  0  0  0  0  0
   34.7780   18.8710   33.0340 H   0  0  0  0  0  0  0  0  0  0  0  0
   35.6680   18.4910   31.1620 N   0  0  0  0  0  0  0  0  0  0  0  0
   35.4390   18.5020   30.1630 H   0  0  0  0  0  0  0  0  0  0  0  0
   37.0600   18.7130   31.4840 C   0  0  0  0  0  2  0  0  0  0  0  0
   37.1910   19.9100   32.4230 C   0  0  0  0  0  2  0  0  0  0  0  0
   36.0540   29.0740   32.8220 C   0  0  2  0  0  0  0  0  0  0  0  0
   35.9070   29.3950   31.3930 C   0  0  0  0  0  0  0  0  0  0  0  0
   35.5070   28.0240   31.9980 C   0  0  1  0  0  0  0  0  0  0  0  0
   37.1090   29.0540   33.1640 H   0  0  0  0  0  0  0  0  0  0  0  0
   36.7900   29.4300   30.7480 H   0  0  0  0  0  0  0  0  0  0  0  0
   35.0730   30.0570   31.0740 H   0  0  0  0  0  0  0  0  0  0  0  0
   34.4100   27.8470   31.9560 H   0  0  0  0  0  0  0  0  0  0  0  0
   34.9210   31.2160   35.6280 C   0  0  0  0  0  0  0  0  0  0  0  0
   33.5250   30.9030   35.7030 C   0  0  0  0  0  0  0  0  0  0  0  0
   33.0080   29.9320   34.7660 C   0  0  0  0  0  0  0  0  0  0  0  0
   33.8570   29.3690   33.8660 N   0  0  0  0  0  0  0  0  0  0  0  0
   35.1750   29.7170   33.8550 C   0  0  0  0  0  0  0  0  0  0  0  0
   35.7350   30.6350   34.7200 N   0  0  0  0  0  0  0  0  0  0  0  0
   35.2640   31.9450   36.3470 H   0  0  0  0  0  0  0  0  0  0  0  0
   32.9140   31.3800   36.4320 H   0  0  0  0  0  0  0  0  0  0  0  0
   31.9660   29.6950   34.8180 H   0  0  0  0  0  0  0  0  0  0  0  0
  1  3  1  0  0  0  0
  2  1  2  0  0  0  0
  3  4  1  0  0  0  0
  3 25  1  0  0  0  0
  5  1  1  0  0  0  0
  5 10  1  0  0  0  0
  6  5  2  0  0  0  0
  7  6  1  0  0  0  0
  7  8  2  0  0  0  0
  8  9  1  0  0  0  0
  9 10  2  0  0  0  0
  9 14  1  0  0  0  0
 11  6  1  0  0  0  0
 12  7  1  0  0  0  0
 13  8  1  0  0  0  0
 14 15  1  0  0  0  0
 14 22  1  0  0  0  0
 15 17  1  0  0  0  0
 15 16  1  0  0  0  0
 17 18  1  0  0  0  0
 19 21  1  0  0  0  0
 19 17  1  0  0  0  0
 20 19  1  0  0  0  0
 21 22  1  0  0  0  0
 23 26  1  1  0  0  0
 23 34  1  0  0  0  0
 24 25  1  0  0  0  0
 24 23  1  0  0  0  0
 25 29  1  1  0  0  0
 25 23  1  0  0  0  0
 27 24  1  0  0  0  0
 28 24  1  0  0  0  0
 30 31  1  0  0  0  0
 30 36  1  0  0  0  0
 31 37  1  0  0  0  0
 32 38  1  0  0  0  0
 32 31  2  0  0  0  0
 33 32  1  0  0  0  0
 34 33  2  0  0  0  0
 34 35  1  0  0  0  0
 35 30  2  0  0  0  0
M  END
>  <minimizedAffinity>
-5.43828201

$$$$

 OpenBabel03272508553D

 38 41  0  0  1  0  0  0  0  0999 V2000
   36.4050   27.1530   32.2940 C   0  0  0  0  0  0  0  0  0  0  0  0
   35.6040   27.2330   31.3420 O   0  0  0  0  0  0  0  0  0  0  0  0
   36.5540   28.2440   33.2350 N   0  0  0  0  0  0  0  0  0  0  0  0
   37.3120   28.3160   33.9270 H   0  0  0  0  0  0  0  0  0  0  0  0
   37.2460   25.9450   32.5210 C   0  0  0  0  0  0  0  0  0  0  0  0
   37.5960   25.1690   31.4480 C   0  0  0  0  0  0  0  0  0  0  0  0
   38.3720   24.0530   31.7020 C   0  0  0  0  0  0  0  0  0  0  0  0
   38.7420   23.7950   33.0020 C   0  0  0  0  0  0  0  0  0  0  0  0
   38.3890   24.5800   34.0840 C   0  0  0  0  0  0  0  0  0  0  0  0
   37.6360   25.6500   33.7840 N   0  0  0  0  0  0  0  0  0  0  0  0
   37.2930   25.3910   30.4340 H   0  0  0  0  0  0  0  0  0  0  0  0
   38.6950   23.3830   30.9160 H   0  0  0  0  0  0  0  0  0  0  0  0
   39.3560   22.9180   33.2260 H   0  0  0  0  0  0  0  0  0  0  0  0
   38.7340   24.3700   35.4240 N   0  0  0  0  0  0  0  0  0  0  0  0
   37.9000   24.7820   36.5410 C   0  0  0  0  0  3  0  0  0  0  0  0
   38.2090   25.8330   36.7980 H   0  0  0  0  0  0  0  0  0  0  0  0
   38.2330   23.9520   37.7440 C   0  0  0  0  0  3  0  0  0  0  0  0
   39.0600   24.3950   38.3300 H   0  0  0  0  0  0  0  0  0  0  0  0
   38.5020   22.5630   37.4490 N   0  0  0  0  0  0  0  0  0  0  0  0
   37.6680   21.9940   37.2740 H   0  0  0  0  0  0  0  0  0  0  0  0
   39.5870   22.3830   36.5110 C   0  0  0  0  0  2  0  0  0  0  0  0
   39.9510   23.7230   35.8740 C   0  0  0  0  0  2  0  0  0  0  0  0
   34.4630   29.2570   34.1210 C   0  0  2  0  0  0  0  0  0  0  0  0
   35.5520   30.1920   34.4470 C   0  0  0  0  0  0  0  0  0  0  0  0
   35.5540   29.2990   33.1790 C   0  0  1  0  0  0  0  0  0  0  0  0
   34.3570   28.4290   34.8510 H   0  0  0  0  0  0  0  0  0  0  0  0
   36.2600   29.9470   35.2440 H   0  0  0  0  0  0  0  0  0  0  0  0
   35.3930   31.2810   34.2860 H   0  0  0  0  0  0  0  0  0  0  0  0
   35.4760   29.8940   32.2420 H   0  0  0  0  0  0  0  0  0  0  0  0
   31.8120   30.9910   32.1940 C   0  0  0  0  0  0  0  0  0  0  0  0
   30.6270   30.6220   32.9090 C   0  0  0  0  0  0  0  0  0  0  0  0
   30.7850   29.7710   34.0670 C   0  0  0  0  0  0  0  0  0  0  0  0
   32.0330   29.3650   34.4200 N   0  0  0  0  0  0  0  0  0  0  0  0
   33.1150   29.7590   33.6900 C   0  0  0  0  0  0  0  0  0  0  0  0
   33.0370   30.5680   32.5750 N   0  0  0  0  0  0  0  0  0  0  0  0
   31.6470   31.6270   31.3360 H   0  0  0  0  0  0  0  0  0  0  0  0
   29.6780   30.9740   32.5800 H   0  0  0  0  0  0  0  0  0  0  0  0
   29.9030   29.4930   34.6050 H   0  0  0  0  0  0  0  0  0  0  0  0
  1  5  1  0  0  0  0
  1  3  1  0  0  0  0
  2  1  2  0  0  0  0
  3  4  1  0  0  0  0
  5 10  1  0  0  0  0
  6  7  1  0  0  0  0
  6  5  2  0  0  0  0
  7  8  2  0  0  0  0
  8 13  1  0  0  0  0
  8  9  1  0  0  0  0
  9 14  1  0  0  0  0
 10  9  2  0  0  0  0
 11  6  1  0  0  0  0
 12  7  1  0  0  0  0
 14 22  1  0  0  0  0
 14 15  1  0  0  0  0
 15 16  1  0  0  0  0
 15 17  1  0  0  0  0
 17 18  1  0  0  0  0
 19 17  1  0  0  0  0
 20 19  1  0  0  0  0
 21 19  1  0  0  0  0
 22 21  1  0  0  0  0
 23 24  1  0  0  0  0
 23 26  1  1  0  0  0
 24 27  1  0  0  0  0
 25 29  1  6  0  0  0
 25  3  1  0  0  0  0
 25 23  1  0  0  0  0
 25 24  1  0  0  0  0
 28 24  1  0  0  0  0
 30 35  2  0  0  0  0
 30 31  1  0  0  0  0
 31 32  2  0  0  0  0
 32 33  1  0  0  0  0
 32 38  1  0  0  0  0
 34 23  1  0  0  0  0
 34 33  2  0  0  0  0
 35 34  1  0  0  0  0
 36 30  1  0  0  0  0
 37 31  1  0  0  0  0
M  END
>  <minimizedAffinity>
-5.34739256

$$$$

 OpenBabel03272508553D

 38 41  0  0  1  0  0  0  0  0999 V2000
   36.7230   26.9430   32.3290 C   0  0  0  0  0  0  0  0  0  0  0  0
   36.9880   26.6580   33.5130 O   0  0  0  0  0  0  0  0  0  0  0  0
   36.9430   25.9840   31.2650 N   0  0  0  0  0  0  0  0  0  0  0  0
   36.9170   26.2110   30.2620 H   0  0  0  0  0  0  0  0  0  0  0  0
   36.1720   28.2700   31.9380 C   0  0  0  0  0  0  0  0  0  0  0  0
   36.8950   29.0650   31.0890 C   0  0  0  0  0  0  0  0  0  0  0  0
   36.3510   30.2920   30.7560 C   0  0  0  0  0  0  0  0  0  0  0  0
   35.1320   30.6340   31.2910 C   0  0  0  0  0  0  0  0  0  0  0  0
   34.4010   29.8300   32.1480 C   0  0  0  0  0  0  0  0  0  0  0  0
   34.9730   28.6510   32.4390 N   0  0  0  0  0  0  0  0  0  0  0  0
   37.8540   28.7750   30.6810 H   0  0  0  0  0  0  0  0  0  0  0  0
   36.8530   30.9840   30.0930 H   0  0  0  0  0  0  0  0  0  0  0  0
   34.6830   31.6000   31.0410 H   0  0  0  0  0  0  0  0  0  0  0  0
   33.1590   30.1220   32.7210 N   0  0  0  0  0  0  0  0  0  0  0  0
   32.7340   29.6140   34.0150 C   0  0  0  0  0  3  0  0  0  0  0  0
   32.2270   28.6290   33.8190 H   0  0  0  0  0  0  0  0  0  0  0  0
   31.6770   30.5140   34.5810 C   0  0  0  0  0  3  0  0  0  0  0  0
   30.6660   30.2160   34.2460 H   0  0  0  0  0  0  0  0  0  0  0  0
   31.9040   31.9190   34.3370 N   0  0  0  0  0  0  0  0  0  0  0  0
   32.6090   32.3500   34.9430 H   0  0  0  0  0  0  0  0  0  0  0  0
   32.0100   32.2420   32.9320 C   0  0  0  0  0  2  0  0  0  0  0  0
   32.1420   30.9590   32.1140 C   0  0  0  0  0  2  0  0  0  0  0  0
   36.5020   23.5500   31.0070 C   0  0  2  0  0  0  0  0  0  0  0  0
   37.8790   23.7790   30.5350 C   0  0  0  0  0  0  0  0  0  0  0  0
   37.2210   24.6130   31.6660 C   0  0  1  0  0  0  0  0  0  0  0  0
   35.7310   23.7590   30.2370 H   0  0  0  0  0  0  0  0  0  0  0  0
   38.0500   24.2710   29.5730 H   0  0  0  0  0  0  0  0  0  0  0  0
   38.6780   23.0700   30.8450 H   0  0  0  0  0  0  0  0  0  0  0  0
   37.7060   24.4460   32.6530 H   0  0  0  0  0  0  0  0  0  0  0  0
   34.9910   20.2970   31.9440 C   0  0  0  0  0  0  0  0  0  0  0  0
   35.5530   20.0640   33.2400 C   0  0  0  0  0  0  0  0  0  0  0  0
   36.4530   21.0650   33.7670 C   0  0  0  0  0  0  0  0  0  0  0  0
   36.7220   22.1680   33.0180 N   0  0  0  0  0  0  0  0  0  0  0  0
   36.1470   22.3210   31.7910 C   0  0  0  0  0  0  0  0  0  0  0  0
   35.2800   21.4060   31.2290 N   0  0  0  0  0  0  0  0  0  0  0  0
   34.3240   19.5240   31.5900 H   0  0  0  0  0  0  0  0  0  0  0  0
   35.3020   19.1790   33.7750 H   0  0  0  0  0  0  0  0  0  0  0  0
   36.8760   20.8950   34.7340 H   0  0  0  0  0  0  0  0  0  0  0  0
  1  2  2  0  0  0  0
  3 25  1  0  0  0  0
  3  1  1  0  0  0  0
  4  3  1  0  0  0  0
  5  1  1  0  0  0  0
  5 10  1  0  0  0  0
  6  5  2  0  0  0  0
  7  6  1  0  0  0  0
  7  8  2  0  0  0  0
  8  9  1  0  0  0  0
  9 10  2  0  0  0  0
  9 14  1  0  0  0  0
 11  6  1  0  0  0  0
 12  7  1  0  0  0  0
 13  8  1  0  0  0  0
 14 15  1  0  0  0  0
 15 17  1  0  0  0  0
 16 15  1  0  0  0  0
 18 17  1  0  0  0  0
 19 17  1  0  0  0  0
 19 20  1  0  0  0  0
 21 19  1  0  0  0  0
 22 14  1  0  0  0  0
 22 21  1  0  0  0  0
 23 26  1  6  0  0  0
 23 25  1  0  0  0  0
 23 34  1  0  0  0  0
 24 28  1  0  0  0  0
 24 23  1  0  0  0  0
 24 25  1  0  0  0  0
 25 29  1  1  0  0  0
 27 24  1  0  0  0  0
 30 31  1  0  0  0  0
 31 32  2  0  0  0  0
 31 37  1  0  0  0  0
 32 38  1  0  0  0  0
 33 32  1  0  0  0  0
 34 33  2  0  0  0  0
 35 34  1  0  0  0  0
 35 30  2  0  0  0  0
 36 30  1  0  0  0  0
M  END
>  <minimizedAffinity>
-5.22930813

$$$$

 OpenBabel03272508553D

 38 41  0  0  1  0  0  0  0  0999 V2000
   37.4850   27.4970   34.2970 C   0  0  0  0  0  0  0  0  0  0  0  0
   38.0100   27.6120   35.4220 O   0  0  0  0  0  0  0  0  0  0  0  0
   37.9520   26.5000   33.3560 N   0  0  0  0  0  0  0  0  0  0  0  0
   37.6880   26.4700   32.3610 H   0  0  0  0  0  0  0  0  0  0  0  0
   36.3590   28.3670   33.8560 C   0  0  0  0  0  0  0  0  0  0  0  0
   35.8240   28.1790   32.6090 C   0  0  0  0  0  0  0  0  0  0  0  0
   34.7850   29.0110   32.2350 C   0  0  0  0  0  0  0  0  0  0  0  0
   34.3570   29.9650   33.1290 C   0  0  0  0  0  0  0  0  0  0  0  0
   34.8970   30.1540   34.3880 C   0  0  0  0  0  0  0  0  0  0  0  0
   35.9020   29.3210   34.7010 N   0  0  0  0  0  0  0  0  0  0  0  0
   36.1780   27.4210   31.9230 H   0  0  0  0  0  0  0  0  0  0  0  0
   34.3030   28.9340   31.2700 H   0  0  0  0  0  0  0  0  0  0  0  0
   33.5360   30.6340   32.8540 H   0  0  0  0  0  0  0  0  0  0  0  0
   34.5050   31.1030   35.3380 N   0  0  0  0  0  0  0  0  0  0  0  0
   35.4140   31.6850   36.3120 C   0  0  0  0  0  3  0  0  0  0  0  0
   35.3860   31.0130   37.2140 H   0  0  0  0  0  0  0  0  0  0  0  0
   34.8730   33.0070   36.7690 C   0  0  0  0  0  3  0  0  0  0  0  0
   34.1870   32.8930   37.6290 H   0  0  0  0  0  0  0  0  0  0  0  0
   34.2560   33.7880   35.7220 N   0  0  0  0  0  0  0  0  0  0  0  0
   34.9150   34.2620   35.0960 H   0  0  0  0  0  0  0  0  0  0  0  0
   33.1640   33.1010   35.0700 C   0  0  0  0  0  2  0  0  0  0  0  0
   33.1610   31.6280   35.4780 C   0  0  0  0  0  2  0  0  0  0  0  0
   38.2830   24.3280   34.5220 C   0  0  2  0  0  0  0  0  0  0  0  0
   38.7190   24.1270   33.1300 C   0  0  0  0  0  0  0  0  0  0  0  0
   38.8540   25.4830   33.8730 C   0  0  1  0  0  0  0  0  0  0  0  0
   37.1870   24.2220   34.6610 H   0  0  0  0  0  0  0  0  0  0  0  0
   37.9760   24.0560   32.3310 H   0  0  0  0  0  0  0  0  0  0  0  0
   39.6640   23.5730   32.9370 H   0  0  0  0  0  0  0  0  0  0  0  0
   39.9150   25.7670   34.0470 H   0  0  0  0  0  0  0  0  0  0  0  0
   39.1380   23.1590   37.9340 C   0  0  0  0  0  0  0  0  0  0  0  0
   40.3920   22.4990   37.7230 C   0  0  0  0  0  0  0  0  0  0  0  0
   40.9200   22.4860   36.3770 C   0  0  0  0  0  0  0  0  0  0  0  0
   40.2120   23.0900   35.3870 N   0  0  0  0  0  0  0  0  0  0  0  0
   39.0250   23.6990   35.6650 C   0  0  0  0  0  0  0  0  0  0  0  0
   38.4630   23.7500   36.9250 N   0  0  0  0  0  0  0  0  0  0  0  0
   38.7820   23.1450   38.9540 H   0  0  0  0  0  0  0  0  0  0  0  0
   40.8960   22.0450   38.5430 H   0  0  0  0  0  0  0  0  0  0  0  0
   41.8560   21.9940   36.2150 H   0  0  0  0  0  0  0  0  0  0  0  0
  1  2  2  0  0  0  0
  3 25  1  0  0  0  0
  3  1  1  0  0  0  0
  4  3  1  0  0  0  0
  5  1  1  0  0  0  0
  5 10  1  0  0  0  0
  6  5  2  0  0  0  0
  7  6  1  0  0  0  0
  7  8  2  0  0  0  0
  8  9  1  0  0  0  0
  9 10  2  0  0  0  0
  9 14  1  0  0  0  0
 11  6  1  0  0  0  0
 12  7  1  0  0  0  0
 13  8  1  0  0  0  0
 14 22  1  0  0  0  0
 14 15  1  0  0  0  0
 15 17  1  0  0  0  0
 15 16  1  0  0  0  0
 17 18  1  0  0  0  0
 19 17  1  0  0  0  0
 20 19  1  0  0  0  0
 21 22  1  0  0  0  0
 21 19  1  0  0  0  0
 23 26  1  1  0  0  0
 23 34  1  0  0  0  0
 24 25  1  0  0  0  0
 24 23  1  0  0  0  0
 25 29  1  1  0  0  0
 25 23  1  0  0  0  0
 27 24  1  0  0  0  0
 28 24  1  0  0  0  0
 30 36  1  0  0  0  0
 31 30  1  0  0  0  0
 31 37  1  0  0  0  0
 32 31  2  0  0  0  0
 33 34  2  0  0  0  0
 33 32  1  0  0  0  0
 34 35  1  0  0  0  0
 35 30  2  0  0  0  0
 38 32  1  0  0  0  0
M  END
>  <minimizedAffinity>
-5.21209335

$$$$

 OpenBabel03272508553D

 38 41  0  0  1  0  0  0  0  0999 V2000
   38.3010   26.5170   35.3220 C   0  0  0  0  0  0  0  0  0  0  0  0
   38.7380   27.5760   35.8150 O   0  0  0  0  0  0  0  0  0  0  0  0
   37.4090   26.5400   34.1820 N   0  0  0  0  0  0  0  0  0  0  0  0
   36.8770   25.7270   33.8430 H   0  0  0  0  0  0  0  0  0  0  0  0
   38.6650   25.1800   35.8690 C   0  0  0  0  0  0  0  0  0  0  0  0
   37.8220   24.5780   36.7650 C   0  0  0  0  0  0  0  0  0  0  0  0
   38.1990   23.3410   37.2530 C   0  0  0  0  0  0  0  0  0  0  0  0
   39.3830   22.7970   36.8130 C   0  0  0  0  0  0  0  0  0  0  0  0
   40.2330   23.4050   35.9080 C   0  0  0  0  0  0  0  0  0  0  0  0
   39.8220   24.6040   35.4650 N   0  0  0  0  0  0  0  0  0  0  0  0
   36.8950   25.0260   37.0970 H   0  0  0  0  0  0  0  0  0  0  0  0
   37.5950   22.7930   37.9640 H   0  0  0  0  0  0  0  0  0  0  0  0
   39.7010   21.8180   37.1870 H   0  0  0  0  0  0  0  0  0  0  0  0
   41.4460   22.9030   35.4250 N   0  0  0  0  0  0  0  0  0  0  0  0
   42.5580   23.7460   35.0170 C   0  0  0  0  0  3  0  0  0  0  0  0
   42.4040   23.9690   33.9250 H   0  0  0  0  0  0  0  0  0  0  0  0
   43.8340   22.9630   35.0990 C   0  0  0  0  0  3  0  0  0  0  0  0
   44.0380   22.4150   34.1610 H   0  0  0  0  0  0  0  0  0  0  0  0
   43.9110   22.0750   36.2370 N   0  0  0  0  0  0  0  0  0  0  0  0
   44.1250   22.5370   37.1260 H   0  0  0  0  0  0  0  0  0  0  0  0
   42.8330   21.1130   36.2790 C   0  0  0  0  0  2  0  0  0  0  0  0
   41.7560   21.4950   35.2660 C   0  0  0  0  0  2  0  0  0  0  0  0
   36.3460   27.8820   32.3780 C   0  0  2  0  0  0  0  0  0  0  0  0
   35.8580   28.4340   33.6530 C   0  0  0  0  0  0  0  0  0  0  0  0
   37.2680   27.8090   33.4850 C   0  0  1  0  0  0  0  0  0  0  0  0
   35.7780   26.9930   32.0350 H   0  0  0  0  0  0  0  0  0  0  0  0
   35.1220   27.8770   34.2410 H   0  0  0  0  0  0  0  0  0  0  0  0
   35.8180   29.5370   33.7820 H   0  0  0  0  0  0  0  0  0  0  0  0
   38.0800   28.5600   33.6000 H   0  0  0  0  0  0  0  0  0  0  0  0
   36.8450   30.9340   30.3330 C   0  0  0  0  0  0  0  0  0  0  0  0
   37.3230   30.3950   29.0950 C   0  0  0  0  0  0  0  0  0  0  0  0
   37.4530   28.9580   29.0000 C   0  0  0  0  0  0  0  0  0  0  0  0
   37.1220   28.1950   30.0750 N   0  0  0  0  0  0  0  0  0  0  0  0
   36.6740   28.7810   31.2210 C   0  0  0  0  0  0  0  0  0  0  0  0
   36.5250   30.1440   31.3800 N   0  0  0  0  0  0  0  0  0  0  0  0
   36.7630   32.0110   30.3590 H   0  0  0  0  0  0  0  0  0  0  0  0
   37.5650   31.0480   28.2900 H   0  0  0  0  0  0  0  0  0  0  0  0
   37.8090   28.5500   28.0770 H   0  0  0  0  0  0  0  0  0  0  0  0
  1  2  2  0  0  0  0
  1  5  1  0  0  0  0
  3  1  1  0  0  0  0
  4  3  1  0  0  0  0
  5  6  1  0  0  0  0
  6 11  1  0  0  0  0
  6  7  2  0  0  0  0
  7 12  1  0  0  0  0
  8 13  1  0  0  0  0
  8  7  1  0  0  0  0
  9  8  2  0  0  0  0
 10  5  2  0  0  0  0
 10  9  1  0  0  0  0
 14  9  1  0  0  0  0
 15 17  1  0  0  0  0
 15 14  1  0  0  0  0
 16 15  1  0  0  0  0
 17 19  1  0  0  0  0
 18 17  1  0  0  0  0
 19 21  1  0  0  0  0
 19 20  1  0  0  0  0
 22 14  1  0  0  0  0
 22 21  1  0  0  0  0
 23 26  1  6  0  0  0
 23 25  1  0  0  0  0
 23 24  1  0  0  0  0
 24 28  1  0  0  0  0
 24 27  1  0  0  0  0
 25 29  1  6  0  0  0
 25 24  1  0  0  0  0
 25  3  1  0  0  0  0
 30 36  1  0  0  0  0
 30 35  1  0  0  0  0
 31 30  2  0  0  0  0
 32 31  1  0  0  0  0
 32 33  2  0  0  0  0
 33 34  1  0  0  0  0
 34 35  2  0  0  0  0
 34 23  1  0  0  0  0
 37 31  1  0  0  0  0
 38 32  1  0  0  0  0
M  END
>  <minimizedAffinity>
-5.20131731

$$$$

 OpenBabel03272508553D

 38 41  0  0  1  0  0  0  0  0999 V2000
   37.3490   27.2080   32.6250 C   0  0  0  0  0  0  0  0  0  0  0  0
   37.4940   26.0060   32.3290 O   0  0  0  0  0  0  0  0  0  0  0  0
   37.2270   27.6260   34.0060 N   0  0  0  0  0  0  0  0  0  0  0  0
   36.9310   28.5640   34.3070 H   0  0  0  0  0  0  0  0  0  0  0  0
   37.2940   28.2780   31.5890 C   0  0  0  0  0  0  0  0  0  0  0  0
   36.2550   29.1700   31.6120 C   0  0  0  0  0  0  0  0  0  0  0  0
   36.2360   30.1430   30.6300 C   0  0  0  0  0  0  0  0  0  0  0  0
   37.2510   30.1550   29.7020 C   0  0  0  0  0  0  0  0  0  0  0  0
   38.3000   29.2540   29.6800 C   0  0  0  0  0  0  0  0  0  0  0  0
   38.2710   28.3310   30.6540 N   0  0  0  0  0  0  0  0  0  0  0  0
   35.4660   29.1400   32.3520 H   0  0  0  0  0  0  0  0  0  0  0  0
   35.4540   30.8870   30.5700 H   0  0  0  0  0  0  0  0  0  0  0  0
   37.2560   30.9160   28.9150 H   0  0  0  0  0  0  0  0  0  0  0  0
   39.3580   29.2170   28.7650 N   0  0  0  0  0  0  0  0  0  0  0  0
   40.0410   27.9940   28.3790 C   0  0  0  0  0  3  0  0  0  0  0  0
   40.8850   27.8560   29.1090 H   0  0  0  0  0  0  0  0  0  0  0  0
   40.6860   28.1850   27.0390 C   0  0  0  0  0  3  0  0  0  0  0  0
   41.7050   28.6040   27.1320 H   0  0  0  0  0  0  0  0  0  0  0  0
   39.8980   28.9600   26.1080 N   0  0  0  0  0  0  0  0  0  0  0  0
   39.1240   28.4480   25.6730 H   0  0  0  0  0  0  0  0  0  0  0  0
   39.5730   30.2790   26.6010 C   0  0  0  0  0  2  0  0  0  0  0  0
   39.9090   30.3750   28.0880 C   0  0  0  0  0  2  0  0  0  0  0  0
   38.9320   26.2700   35.2060 C   0  0  2  0  0  0  0  0  0  0  0  0
   38.3860   27.2200   36.1890 C   0  0  0  0  0  0  0  0  0  0  0  0
   37.5490   26.6340   35.0210 C   0  0  1  0  0  0  0  0  0  0  0  0
   39.7360   26.7010   34.5750 H   0  0  0  0  0  0  0  0  0  0  0  0
   38.6620   28.2770   36.1370 H   0  0  0  0  0  0  0  0  0  0  0  0
   38.1350   26.8540   37.2090 H   0  0  0  0  0  0  0  0  0  0  0  0
   36.7330   25.9680   35.3770 H   0  0  0  0  0  0  0  0  0  0  0  0
   40.6660   22.9990   35.4110 C   0  0  0  0  0  0  0  0  0  0  0  0
   39.8630   22.2900   36.3620 C   0  0  0  0  0  0  0  0  0  0  0  0
   38.7160   22.9770   36.9110 C   0  0  0  0  0  0  0  0  0  0  0  0
   38.4540   24.2480   36.5060 N   0  0  0  0  0  0  0  0  0  0  0  0
   39.2640   24.8580   35.5950 C   0  0  0  0  0  0  0  0  0  0  0  0
   40.3740   24.2620   35.0310 N   0  0  0  0  0  0  0  0  0  0  0  0
   41.5110   22.4470   35.0280 H   0  0  0  0  0  0  0  0  0  0  0  0
   40.1230   21.2950   36.6380 H   0  0  0  0  0  0  0  0  0  0  0  0
   38.1130   22.4520   37.6220 H   0  0  0  0  0  0  0  0  0  0  0  0
  1  3  1  0  0  0  0
  2  1  2  0  0  0  0
  3  4  1  0  0  0  0
  3 25  1  0  0  0  0
  5  6  1  0  0  0  0
  5  1  1  0  0  0  0
  6 11  1  0  0  0  0
  7  6  2  0  0  0  0
  8  7  1  0  0  0  0
  9  8  2  0  0  0  0
  9 10  1  0  0  0  0
 10  5  2  0  0  0  0
 12  7  1  0  0  0  0
 13  8  1  0  0  0  0
 14  9  1  0  0  0  0
 15 14  1  0  0  0  0
 15 16  1  0  0  0  0
 17 18  1  0  0  0  0
 17 15  1  0  0  0  0
 19 21  1  0  0  0  0
 19 17  1  0  0  0  0
 20 19  1  0  0  0  0
 21 22  1  0  0  0  0
 22 14  1  0  0  0  0
 23 26  1  6  0  0  0
 23 34  1  0  0  0  0
 23 24  1  0  0  0  0
 24 28  1  0  0  0  0
 25 23  1  0  0  0  0
 25 29  1  1  0  0  0
 25 24  1  0  0  0  0
 27 24  1  0  0  0  0
 30 31  1  0  0  0  0
 31 37  1  0  0  0  0
 31 32  2  0  0  0  0
 32 38  1  0  0  0  0
 33 32  1  0  0  0  0
 34 33  2  0  0  0  0
 35 30  2  0  0  0  0
 35 34  1  0  0  0  0
 36 30  1  0  0  0  0
M  END
>  <minimizedAffinity>
-5.16902018

$$$$
