
 OpenBabel03272510003D

 21 22  0  0  0  0  0  0  0  0999 V2000
   38.3330   31.2210   50.3630 C   0  0  0  0  0  0  0  0  0  0  0  0
   38.5070   31.5440   49.0140 C   0  0  0  0  0  0  0  0  0  0  0  0
   37.5420   31.1090   48.1080 C   0  0  0  0  0  0  0  0  0  0  0  0
   36.4920   30.3990   48.5940 N   0  0  0  0  0  0  0  0  0  0  0  0
   36.3430   30.1010   49.8870 C   0  0  0  0  0  0  0  0  0  0  0  0
   37.2720   30.5170   50.7730 N   0  0  0  0  0  0  0  0  0  0  0  0
   39.1060   31.5740   51.0640 H   0  0  0  0  0  0  0  0  0  0  0  0
   39.3410   32.1100   48.6130 H   0  0  0  0  0  0  0  0  0  0  0  0
   37.5930   31.3640   46.7160 N   0  0  0  0  0  0  0  0  0  0  0  0
   36.8760   30.5710   45.7250 C   0  0  0  0  0  3  0  0  0  0  0  0
   36.0070   30.0470   46.1780 H   0  0  0  0  0  0  0  0  0  0  0  0
   36.3620   31.4110   44.5990 C   0  0  0  0  0  3  0  0  0  0  0  0
   36.1590   30.7300   43.7480 H   0  0  0  0  0  0  0  0  0  0  0  0
   37.2380   32.4510   44.1560 N   0  0  0  0  0  0  0  0  0  0  0  0
   36.7980   33.3730   44.4200 H   0  0  0  0  0  0  0  0  0  0  0  0
   38.5310   32.4250   44.7770 C   0  0  0  0  0  2  0  0  0  0  0  0
   38.4110   32.4800   46.2980 C   0  0  0  0  0  2  0  0  0  0  0  0
   35.1530   29.3180   50.3030 C   0  0  0  0  0  0  0  0  0  0  0  0
   35.1600   29.0420   51.6640 F   0  0  0  0  0  0  0  0  0  0  0  0
   33.9850   30.0230   50.0570 F   0  0  0  0  0  0  0  0  0  0  0  0
   35.0410   28.1240   49.6370 F   0  0  0  0  0  0  0  0  0  0  0  0
  1  6  1  0  0  0  0
  1  7  1  0  0  0  0
  2  1  2  0  0  0  0
  3  4  2  0  0  0  0
  3  2  1  0  0  0  0
  4  5  1  0  0  0  0
  5 18  1  0  0  0  0
  5  6  2  0  0  0  0
  8  2  1  0  0  0  0
  9  3  1  0  0  0  0
 10 11  1  0  0  0  0
 10  9  1  0  0  0  0
 12 10  1  0  0  0  0
 13 12  1  0  0  0  0
 14 15  1  0  0  0  0
 14 12  1  0  0  0  0
 14 16  1  0  0  0  0
 16 17  1  0  0  0  0
 17  9  1  0  0  0  0
 18 19  1  0  0  0  0
 20 18  1  0  0  0  0
 21 18  1  0  0  0  0
M  END
>  <minimizedAffinity>
-5.18046665

>  <minimizedRMSD>
0.582407892

$$$$
