
 OpenBabel03272504383D

 42 44  0  0  1  0  0  0  0  0999 V2000
   37.4070   30.2770   48.6740 Cl  0  0  0  0  0  0  0  0  0  0  0  0
   36.2840   30.1620   47.3230 C   0  0  0  0  0  0  0  0  0  0  0  0
   36.6710   30.5980   46.0930 C   0  0  0  0  0  0  0  0  0  0  0  0
   35.8080   30.5140   45.0340 C   0  0  0  0  0  0  0  0  0  0  0  0
   34.5480   29.9820   45.2400 C   0  0  0  0  0  0  0  0  0  0  0  0
   34.1990   29.5480   46.5200 C   0  0  0  0  0  0  0  0  0  0  0  0
   35.0440   29.6250   47.5860 C   0  0  0  0  0  0  0  0  0  0  0  0
   36.1600   30.8770   44.0600 H   0  0  0  0  0  0  0  0  0  0  0  0
   33.9460   29.9620   44.3370 H   0  0  0  0  0  0  0  0  0  0  0  0
   33.2310   29.1890   46.4700 H   0  0  0  0  0  0  0  0  0  0  0  0
   39.6550   32.7700   46.2940 C   0  0  0  0  0  0  0  0  0  0  0  0
   40.5340   32.1060   45.3980 C   0  0  0  0  0  0  0  0  0  0  0  0
   40.0670   30.9430   44.7640 C   0  0  0  0  0  0  0  0  0  0  0  0
   38.8090   30.5030   45.0280 N   0  0  0  0  0  0  0  0  0  0  0  0
   38.0010   31.1600   45.8850 C   0  0  0  0  0  0  0  0  0  0  0  0
   38.4270   32.2790   46.5070 N   0  0  0  0  0  0  0  0  0  0  0  0
   40.0570   33.6550   46.7550 H   0  0  0  0  0  0  0  0  0  0  0  0
   41.5320   32.4700   45.1990 H   0  0  0  0  0  0  0  0  0  0  0  0
   40.9590   30.2990   43.8770 N   0  0  0  0  0  0  0  0  0  0  0  0
   41.3760   29.3600   43.9940 H   0  0  0  0  0  0  0  0  0  0  0  0
   41.2460   30.7970   43.0020 H   0  0  0  0  0  0  0  0  0  0  0  0
   34.6620   29.1760   48.9060 C   0  0  0  0  0  0  0  0  0  0  0  0
   34.2180   30.0700   49.4360 H   0  0  0  0  0  0  0  0  0  0  0  0
   35.5790   28.9610   49.4930 H   0  0  0  0  0  0  0  0  0  0  0  0
   33.7400   28.0550   49.0450 C   0  0  0  0  0  0  0  0  0  0  0  0
   34.0900   27.2890   49.7700 H   0  0  0  0  0  0  0  0  0  0  0  0
   33.6440   27.5240   48.0720 H   0  0  0  0  0  0  0  0  0  0  0  0
   32.4990   28.4550   49.4740 O   0  0  0  0  0  0  0  0  0  0  0  0
   31.8640   26.4420   47.8980 O   0  0  0  0  0  0  0  0  0  0  0  0
   31.2980   27.5960   48.6880 P   0  0  2  0  0  0  0  0  0  0  0  0
   30.5030   28.7100   47.6500 O   0  0  0  0  0  0  0  0  0  0  0  0
   30.2900   29.5050   48.1730 H   0  0  0  0  0  0  0  0  0  0  0  0
   30.1360   27.0190   49.7400 O   0  0  0  0  0  0  0  0  0  0  0  0
   28.3910   28.6520   51.1550 H   0  0  0  0  0  0  0  0  0  0  0  0
   28.8960   28.9010   50.2670 N   0  0  0  0  0  0  0  0  0  0  0  0
   28.9540   27.7030   49.4170 C   0  0  2  0  0  0  0  0  0  0  0  0
   27.7190   26.8990   49.6330 C   0  0  0  0  0  0  0  0  0  0  0  0
   27.8860   26.0860   50.3600 H   0  0  0  0  0  0  0  0  0  0  0  0
   26.6860   27.7760   50.1530 N   0  0  0  0  0  0  0  0  0  0  0  0
   25.7610   27.3340   49.9600 H   0  0  0  0  0  0  0  0  0  0  0  0
   26.6640   29.0630   49.4750 C   0  0  0  0  0  0  0  0  0  0  0  0
   27.9690   29.7920   49.5520 C   0  0  0  0  0  0  0  0  0  0  0  0
  2  7  1  0  0  0  0
  2  1  1  0  0  0  0
  3  2  2  0  0  0  0
  4  5  2  0  0  0  0
  4  3  1  0  0  0  0
  5  6  1  0  0  0  0
  6  7  2  0  0  0  0
  7 22  1  0  0  0  0
  8  4  1  0  0  0  0
  9  5  1  0  0  0  0
 10  6  1  0  0  0  0
 11 16  1  0  0  0  0
 11 17  1  0  0  0  0
 12 11  2  0  0  0  0
 13 14  2  0  0  0  0
 13 12  1  0  0  0  0
 14 15  1  0  0  0  0
 15  3  1  0  0  0  0
 15 16  2  0  0  0  0
 18 12  1  0  0  0  0
 19 20  1  0  0  0  0
 19 13  1  0  0  0  0
 21 19  1  0  0  0  0
 22 25  1  0  0  0  0
 22 23  1  0  0  0  0
 22 24  1  0  0  0  0
 25 28  1  0  0  0  0
 25 26  1  0  0  0  0
 27 25  1  0  0  0  0
 30 29  2  6  0  0  0
 30 28  1  0  0  0  0
 30 33  1  0  0  0  0
 31 32  1  0  0  0  0
 31 30  1  0  0  0  0
 35 34  1  0  0  0  0
 36 37  1  0  0  0  0
 36 33  1  1  0  0  0
 36 35  1  0  0  0  0
 37 39  1  0  0  0  0
 37 38  1  0  0  0  0
 40 39  1  0  0  0  0
 41 42  1  0  0  0  0
 41 39  1  0  0  0  0
 42 35  1  0  0  0  0
M  END
>  <minimizedAffinity>
-6.54858685

>  <minimizedRMSD>
2.29070687

$$$$
