
 OpenBabel03272509253D

 24 25  0  0  0  0  0  0  0  0999 V2000
   37.9880   26.3740   35.8110 C   0  0  0  0  0  0  0  0  0  0  0  0
   38.4340   27.2450   36.3290 H   0  0  0  0  0  0  0  0  0  0  0  0
   37.2040   25.9980   36.5150 H   0  0  0  0  0  0  0  0  0  0  0  0
   36.0650   28.4090   33.2580 C   0  0  0  0  0  0  0  0  0  0  0  0
   36.6840   28.0370   34.4600 C   0  0  0  0  0  0  0  0  0  0  0  0
   37.2910   26.8120   34.5860 C   0  0  0  0  0  0  0  0  0  0  0  0
   37.2570   25.9910   33.4880 N   0  0  0  0  0  0  0  0  0  0  0  0
   36.6630   26.3540   32.3440 C   0  0  0  0  0  0  0  0  0  0  0  0
   36.0630   27.5620   32.2180 N   0  0  0  0  0  0  0  0  0  0  0  0
   35.5710   29.3690   33.0950 H   0  0  0  0  0  0  0  0  0  0  0  0
   36.6000   28.7990   35.1790 H   0  0  0  0  0  0  0  0  0  0  0  0
   36.6920   25.6350   31.5380 H   0  0  0  0  0  0  0  0  0  0  0  0
   38.9320   25.2540   35.5680 C   0  0  0  0  0  0  0  0  0  0  0  0
   39.9090   25.5410   36.0360 H   0  0  0  0  0  0  0  0  0  0  0  0
   39.1230   25.1840   34.4710 H   0  0  0  0  0  0  0  0  0  0  0  0
   38.5930   23.9690   36.0900 N   0  0  0  0  0  0  0  0  0  0  0  0
   37.6660   24.1020   37.1620 C   0  0  0  0  0  3  0  0  0  0  0  0
   37.0690   25.0310   37.0300 H   0  0  0  0  0  0  0  0  0  0  0  0
   38.2600   24.0460   38.5430 C   0  0  0  0  0  3  0  0  0  0  0  0
   37.4590   24.1750   39.3010 H   0  0  0  0  0  0  0  0  0  0  0  0
   38.8390   22.6950   38.6280 N   0  0  0  0  0  0  0  0  0  0  0  0
   38.1660   22.0090   38.2370 H   0  0  0  0  0  0  0  0  0  0  0  0
   39.9930   22.7460   37.7520 C   0  0  0  0  0  2  0  0  0  0  0  0
   39.7170   23.1290   36.3530 C   0  0  0  0  0  2  0  0  0  0  0  0
  1  2  1  0  0  0  0
  1  3  1  0  0  0  0
  4  5  1  0  0  0  0
  5  6  2  0  0  0  0
  5 11  1  0  0  0  0
  6  1  1  0  0  0  0
  7  6  1  0  0  0  0
  8  7  2  0  0  0  0
  9  8  1  0  0  0  0
  9  4  2  0  0  0  0
 10  4  1  0  0  0  0
 12  8  1  0  0  0  0
 13  1  1  0  0  0  0
 13 14  1  0  0  0  0
 13 16  1  0  0  0  0
 15 13  1  0  0  0  0
 16 24  1  0  0  0  0
 16 17  1  0  0  0  0
 17 19  1  0  0  0  0
 18 17  1  0  0  0  0
 19 21  1  0  0  0  0
 19 20  1  0  0  0  0
 22 21  1  0  0  0  0
 23 21  1  0  0  0  0
 24 23  1  0  0  0  0
M  END
>  <minimizedAffinity>
-4.43309784

$$$$

 OpenBabel03272509253D

 24 25  0  0  0  0  0  0  0  0999 V2000
   38.4280   22.8440   33.5410 C   0  0  0  0  0  0  0  0  0  0  0  0
   39.2880   22.1500   33.4900 H   0  0  0  0  0  0  0  0  0  0  0  0
   38.7010   23.6840   32.8540 H   0  0  0  0  0  0  0  0  0  0  0  0
   35.5760   21.8540   31.2510 C   0  0  0  0  0  0  0  0  0  0  0  0
   36.7060   22.5200   31.7450 C   0  0  0  0  0  0  0  0  0  0  0  0
   37.2220   22.2040   32.9780 C   0  0  0  0  0  0  0  0  0  0  0  0
   36.5800   21.2180   33.6810 N   0  0  0  0  0  0  0  0  0  0  0  0
   35.5010   20.5870   33.2010 C   0  0  0  0  0  0  0  0  0  0  0  0
   34.9890   20.8970   31.9860 N   0  0  0  0  0  0  0  0  0  0  0  0
   35.1230   22.0560   30.2780 H   0  0  0  0  0  0  0  0  0  0  0  0
   37.0480   23.2410   31.0610 H   0  0  0  0  0  0  0  0  0  0  0  0
   35.0680   19.8250   33.8340 H   0  0  0  0  0  0  0  0  0  0  0  0
   38.1930   23.4340   34.8840 C   0  0  0  0  0  0  0  0  0  0  0  0
   37.1510   23.8440   34.8840 H   0  0  0  0  0  0  0  0  0  0  0  0
   38.8720   24.3110   35.0090 H   0  0  0  0  0  0  0  0  0  0  0  0
   38.2920   22.5710   36.0170 N   0  0  0  0  0  0  0  0  0  0  0  0
   37.5000   23.0720   37.0890 C   0  0  0  0  0  3  0  0  0  0  0  0
   36.6560   23.6720   36.6840 H   0  0  0  0  0  0  0  0  0  0  0  0
   38.2470   23.8500   38.1370 C   0  0  0  0  0  3  0  0  0  0  0  0
   37.5390   24.2080   38.9140 H   0  0  0  0  0  0  0  0  0  0  0  0
   39.1870   22.8710   38.7070 N   0  0  0  0  0  0  0  0  0  0  0  0
   38.6920   21.9730   38.8660 H   0  0  0  0  0  0  0  0  0  0  0  0
   40.1680   22.6660   37.6580 C   0  0  0  0  0  2  0  0  0  0  0  0
   39.6300   22.2090   36.3610 C   0  0  0  0  0  2  0  0  0  0  0  0
  1 13  1  0  0  0  0
  2  1  1  0  0  0  0
  3  1  1  0  0  0  0
  4  5  2  0  0  0  0
  4  9  1  0  0  0  0
  5  6  1  0  0  0  0
  6  1  1  0  0  0  0
  6  7  2  0  0  0  0
  8  7  1  0  0  0  0
  8 12  1  0  0  0  0
  9  8  2  0  0  0  0
 10  4  1  0  0  0  0
 11  5  1  0  0  0  0
 13 14  1  0  0  0  0
 13 15  1  0  0  0  0
 13 16  1  0  0  0  0
 16 24  1  0  0  0  0
 16 17  1  0  0  0  0
 17 19  1  0  0  0  0
 18 17  1  0  0  0  0
 19 21  1  0  0  0  0
 19 20  1  0  0  0  0
 21 22  1  0  0  0  0
 23 21  1  0  0  0  0
 24 23  1  0  0  0  0
M  END
>  <minimizedAffinity>
-4.25808001

$$$$

 OpenBabel03272509253D

 24 25  0  0  0  0  0  0  0  0999 V2000
   38.5960   24.4310   33.7690 C   0  0  0  0  0  0  0  0  0  0  0  0
   39.1400   23.5020   33.5170 H   0  0  0  0  0  0  0  0  0  0  0  0
   39.3260   25.2530   33.5630 H   0  0  0  0  0  0  0  0  0  0  0  0
   35.9410   25.9770   31.5510 C   0  0  0  0  0  0  0  0  0  0  0  0
   37.0030   25.8600   32.4590 C   0  0  0  0  0  0  0  0  0  0  0  0
   37.4610   24.6240   32.8440 C   0  0  0  0  0  0  0  0  0  0  0  0
   36.8320   23.5350   32.2980 N   0  0  0  0  0  0  0  0  0  0  0  0
   35.8180   23.6570   31.4310 C   0  0  0  0  0  0  0  0  0  0  0  0
   35.3630   24.8750   31.0510 N   0  0  0  0  0  0  0  0  0  0  0  0
   35.5350   26.9300   31.2030 H   0  0  0  0  0  0  0  0  0  0  0  0
   37.3450   26.8050   32.7640 H   0  0  0  0  0  0  0  0  0  0  0  0
   35.3910   22.7370   31.0590 H   0  0  0  0  0  0  0  0  0  0  0  0
   38.2000   24.5440   35.1960 C   0  0  0  0  0  0  0  0  0  0  0  0
   37.1530   24.9410   35.2160 H   0  0  0  0  0  0  0  0  0  0  0  0
   38.8360   25.3240   35.6790 H   0  0  0  0  0  0  0  0  0  0  0  0
   38.2010   23.3540   35.9840 N   0  0  0  0  0  0  0  0  0  0  0  0
   37.4420   23.5490   37.1730 C   0  0  0  0  0  3  0  0  0  0  0  0
   36.6640   24.3240   36.9990 H   0  0  0  0  0  0  0  0  0  0  0  0
   38.2420   23.8690   38.4060 C   0  0  0  0  0  3  0  0  0  0  0  0
   37.5580   24.0180   39.2680 H   0  0  0  0  0  0  0  0  0  0  0  0
   39.0780   22.6740   38.6100 N   0  0  0  0  0  0  0  0  0  0  0  0
   38.4990   21.8240   38.4750 H   0  0  0  0  0  0  0  0  0  0  0  0
   40.0510   22.7320   37.5370 C   0  0  0  0  0  2  0  0  0  0  0  0
   39.4930   22.7760   36.1700 C   0  0  0  0  0  2  0  0  0  0  0  0
  1 13  1  0  0  0  0
  2  1  1  0  0  0  0
  3  1  1  0  0  0  0
  4  5  1  0  0  0  0
  5 11  1  0  0  0  0
  5  6  2  0  0  0  0
  6  1  1  0  0  0  0
  7  6  1  0  0  0  0
  8  7  2  0  0  0  0
  9  8  1  0  0  0  0
  9  4  2  0  0  0  0
 10  4  1  0  0  0  0
 12  8  1  0  0  0  0
 13 14  1  0  0  0  0
 13 15  1  0  0  0  0
 13 16  1  0  0  0  0
 16 24  1  0  0  0  0
 16 17  1  0  0  0  0
 17 19  1  0  0  0  0
 18 17  1  0  0  0  0
 19 21  1  0  0  0  0
 19 20  1  0  0  0  0
 22 21  1  0  0  0  0
 23 21  1  0  0  0  0
 24 23  1  0  0  0  0
M  END
>  <minimizedAffinity>
-4.24411011

$$$$

 OpenBabel03272509253D

 24 25  0  0  0  0  0  0  0  0999 V2000
   37.7610   26.3050   34.9890 C   0  0  0  0  0  0  0  0  0  0  0  0
   37.0830   27.1650   35.1490 H   0  0  0  0  0  0  0  0  0  0  0  0
   37.1180   25.5240   34.5110 H   0  0  0  0  0  0  0  0  0  0  0  0
   39.5880   27.2390   31.8030 C   0  0  0  0  0  0  0  0  0  0  0  0
   38.5540   26.8750   32.6780 C   0  0  0  0  0  0  0  0  0  0  0  0
   38.8080   26.6570   34.0100 C   0  0  0  0  0  0  0  0  0  0  0  0
   40.1060   26.8140   34.4240 N   0  0  0  0  0  0  0  0  0  0  0  0
   41.0870   27.1620   33.5810 C   0  0  0  0  0  0  0  0  0  0  0  0
   40.8390   27.3770   32.2670 N   0  0  0  0  0  0  0  0  0  0  0  0
   39.4480   27.4300   30.7370 H   0  0  0  0  0  0  0  0  0  0  0  0
   37.6370   26.8030   32.1700 H   0  0  0  0  0  0  0  0  0  0  0  0
   42.0750   27.2600   34.0070 H   0  0  0  0  0  0  0  0  0  0  0  0
   38.3120   25.7160   36.2360 C   0  0  0  0  0  0  0  0  0  0  0  0
   37.7290   26.1500   37.0890 H   0  0  0  0  0  0  0  0  0  0  0  0
   39.3610   26.0750   36.3630 H   0  0  0  0  0  0  0  0  0  0  0  0
   38.2560   24.2970   36.3850 N   0  0  0  0  0  0  0  0  0  0  0  0
   37.6900   23.9550   37.6450 C   0  0  0  0  0  3  0  0  0  0  0  0
   37.0050   24.7640   37.9810 H   0  0  0  0  0  0  0  0  0  0  0  0
   38.6780   23.6130   38.7270 C   0  0  0  0  0  3  0  0  0  0  0  0
   38.1370   23.3800   39.6680 H   0  0  0  0  0  0  0  0  0  0  0  0
   39.3670   22.4170   38.2170 N   0  0  0  0  0  0  0  0  0  0  0  0
   38.6680   21.7640   37.8150 H   0  0  0  0  0  0  0  0  0  0  0  0
   40.1930   22.9160   37.1340 C   0  0  0  0  0  2  0  0  0  0  0  0
   39.4740   23.6270   36.0580 C   0  0  0  0  0  2  0  0  0  0  0  0
  1  2  1  0  0  0  0
  1 13  1  0  0  0  0
  3  1  1  0  0  0  0
  4  9  2  0  0  0  0
  4  5  1  0  0  0  0
  5  6  2  0  0  0  0
  6  7  1  0  0  0  0
  6  1  1  0  0  0  0
  8 12  1  0  0  0  0
  8  7  2  0  0  0  0
  9  8  1  0  0  0  0
 10  4  1  0  0  0  0
 11  5  1  0  0  0  0
 13 15  1  0  0  0  0
 13 16  1  0  0  0  0
 13 14  1  0  0  0  0
 16 17  1  0  0  0  0
 17 18  1  0  0  0  0
 17 19  1  0  0  0  0
 19 20  1  0  0  0  0
 21 19  1  0  0  0  0
 22 21  1  0  0  0  0
 23 21  1  0  0  0  0
 24 16  1  0  0  0  0
 24 23  1  0  0  0  0
M  END
>  <minimizedAffinity>
-3.91725588

$$$$

 OpenBabel03272509253D

 24 25  0  0  0  0  0  0  0  0999 V2000
   38.3450   24.7790   33.8360 C   0  0  0  0  0  0  0  0  0  0  0  0
   38.6200   23.8930   33.2320 H   0  0  0  0  0  0  0  0  0  0  0  0
   39.3020   25.3420   33.9670 H   0  0  0  0  0  0  0  0  0  0  0  0
   35.8170   26.0890   31.3350 C   0  0  0  0  0  0  0  0  0  0  0  0
   36.6900   25.2170   32.0020 C   0  0  0  0  0  0  0  0  0  0  0  0
   37.4340   25.6530   33.0710 C   0  0  0  0  0  0  0  0  0  0  0  0
   37.2740   26.9640   33.4400 N   0  0  0  0  0  0  0  0  0  0  0  0
   36.4380   27.7890   32.7970 C   0  0  0  0  0  0  0  0  0  0  0  0
   35.7040   27.3620   31.7410 N   0  0  0  0  0  0  0  0  0  0  0  0
   35.1970   25.8010   30.4840 H   0  0  0  0  0  0  0  0  0  0  0  0
   36.6730   24.2600   31.5680 H   0  0  0  0  0  0  0  0  0  0  0  0
   36.3850   28.8040   33.1660 H   0  0  0  0  0  0  0  0  0  0  0  0
   37.8330   24.4620   35.1940 C   0  0  0  0  0  0  0  0  0  0  0  0
   37.4450   23.4110   35.1610 H   0  0  0  0  0  0  0  0  0  0  0  0
   36.9500   25.1120   35.4000 H   0  0  0  0  0  0  0  0  0  0  0  0
   38.7530   24.5220   36.2840 N   0  0  0  0  0  0  0  0  0  0  0  0
   39.8460   23.6390   36.0560 C   0  0  0  0  0  3  0  0  0  0  0  0
   39.9990   23.5040   34.9630 H   0  0  0  0  0  0  0  0  0  0  0  0
   39.7570   22.3060   36.7470 C   0  0  0  0  0  3  0  0  0  0  0  0
   40.6450   21.6910   36.4910 H   0  0  0  0  0  0  0  0  0  0  0  0
   39.7580   22.6450   38.1800 N   0  0  0  0  0  0  0  0  0  0  0  0
   40.4820   23.3670   38.3600 H   0  0  0  0  0  0  0  0  0  0  0  0
   38.4570   23.2450   38.4060 C   0  0  0  0  0  2  0  0  0  0  0  0
   38.1420   24.4210   37.5710 C   0  0  0  0  0  2  0  0  0  0  0  0
  1  3  1  0  0  0  0
  1 13  1  0  0  0  0
  2  1  1  0  0  0  0
  4  9  2  0  0  0  0
  4  5  1  0  0  0  0
  5  6  2  0  0  0  0
  6  7  1  0  0  0  0
  6  1  1  0  0  0  0
  8 12  1  0  0  0  0
  8  7  2  0  0  0  0
  9  8  1  0  0  0  0
 10  4  1  0  0  0  0
 11  5  1  0  0  0  0
 13 15  1  0  0  0  0
 13 16  1  0  0  0  0
 14 13  1  0  0  0  0
 16 24  1  0  0  0  0
 17 16  1  0  0  0  0
 17 19  1  0  0  0  0
 18 17  1  0  0  0  0
 19 21  1  0  0  0  0
 20 19  1  0  0  0  0
 21 22  1  0  0  0  0
 21 23  1  0  0  0  0
 24 23  1  0  0  0  0
M  END
>  <minimizedAffinity>
-3.91017675

$$$$

 OpenBabel03272509253D

 24 25  0  0  0  0  0  0  0  0999 V2000
   37.9490   27.4950   35.2470 C   0  0  0  0  0  0  0  0  0  0  0  0
   37.5600   27.5470   36.2820 H   0  0  0  0  0  0  0  0  0  0  0  0
   38.4060   28.5000   35.0660 H   0  0  0  0  0  0  0  0  0  0  0  0
   41.3200   25.8420   34.7320 C   0  0  0  0  0  0  0  0  0  0  0  0
   40.3160   26.8210   34.7600 C   0  0  0  0  0  0  0  0  0  0  0  0
   39.0420   26.5050   35.1640 C   0  0  0  0  0  0  0  0  0  0  0  0
   38.8150   25.2040   35.5300 N   0  0  0  0  0  0  0  0  0  0  0  0
   39.7800   24.2760   35.5000 C   0  0  0  0  0  0  0  0  0  0  0  0
   41.0380   24.5840   35.1020 N   0  0  0  0  0  0  0  0  0  0  0  0
   42.3510   26.0320   34.4270 H   0  0  0  0  0  0  0  0  0  0  0  0
   40.6860   27.7510   34.4410 H   0  0  0  0  0  0  0  0  0  0  0  0
   39.4990   23.2790   35.8090 H   0  0  0  0  0  0  0  0  0  0  0  0
   36.9070   27.2920   34.2090 C   0  0  0  0  0  0  0  0  0  0  0  0
   36.3370   28.2520   34.1250 H   0  0  0  0  0  0  0  0  0  0  0  0
   36.1800   26.5310   34.5810 H   0  0  0  0  0  0  0  0  0  0  0  0
   37.3380   26.9560   32.8890 N   0  0  0  0  0  0  0  0  0  0  0  0
   37.3580   28.1180   32.0670 C   0  0  0  0  0  3  0  0  0  0  0  0
   37.5250   29.0200   32.6950 H   0  0  0  0  0  0  0  0  0  0  0  0
   36.1570   28.3040   31.1800 C   0  0  0  0  0  3  0  0  0  0  0  0
   36.2650   29.2430   30.5960 H   0  0  0  0  0  0  0  0  0  0  0  0
   36.1870   27.1340   30.2870 N   0  0  0  0  0  0  0  0  0  0  0  0
   37.1580   26.9800   29.9570 H   0  0  0  0  0  0  0  0  0  0  0  0
   35.8200   26.0230   31.1440 C   0  0  0  0  0  2  0  0  0  0  0  0
   36.6760   25.8210   32.3300 C   0  0  0  0  0  2  0  0  0  0  0  0
  1  2  1  0  0  0  0
  3  1  1  0  0  0  0
  4  5  2  0  0  0  0
  4  9  1  0  0  0  0
  5  6  1  0  0  0  0
  6  1  1  0  0  0  0
  6  7  2  0  0  0  0
  8  7  1  0  0  0  0
  8 12  1  0  0  0  0
  9  8  2  0  0  0  0
 10  4  1  0  0  0  0
 11  5  1  0  0  0  0
 13 15  1  0  0  0  0
 13  1  1  0  0  0  0
 14 13  1  0  0  0  0
 16 13  1  0  0  0  0
 17 18  1  0  0  0  0
 17 16  1  0  0  0  0
 19 17  1  0  0  0  0
 20 19  1  0  0  0  0
 21 23  1  0  0  0  0
 21 19  1  0  0  0  0
 22 21  1  0  0  0  0
 23 24  1  0  0  0  0
 24 16  1  0  0  0  0
M  END
>  <minimizedAffinity>
-3.8620472

$$$$

 OpenBabel03272509253D

 24 25  0  0  0  0  0  0  0  0999 V2000
   38.7150   23.3530   34.1430 C   0  0  0  0  0  0  0  0  0  0  0  0
   39.7250   23.2960   33.6930 H   0  0  0  0  0  0  0  0  0  0  0  0
   38.2050   22.4130   33.8150 H   0  0  0  0  0  0  0  0  0  0  0  0
   39.9200   22.7420   37.6830 C   0  0  0  0  0  0  0  0  0  0  0  0
   39.8710   22.7340   36.2820 C   0  0  0  0  0  0  0  0  0  0  0  0
   38.8110   23.2980   35.6150 C   0  0  0  0  0  0  0  0  0  0  0  0
   37.8250   23.8580   36.3860 N   0  0  0  0  0  0  0  0  0  0  0  0
   37.8800   23.8600   37.7240 C   0  0  0  0  0  0  0  0  0  0  0  0
   38.9240   23.3040   38.3840 N   0  0  0  0  0  0  0  0  0  0  0  0
   40.7370   22.3150   38.2690 H   0  0  0  0  0  0  0  0  0  0  0  0
   40.7160   22.2580   35.8770 H   0  0  0  0  0  0  0  0  0  0  0  0
   37.0530   24.3270   38.2390 H   0  0  0  0  0  0  0  0  0  0  0  0
   37.8910   24.4910   33.6620 C   0  0  0  0  0  0  0  0  0  0  0  0
   38.4130   25.4300   33.9780 H   0  0  0  0  0  0  0  0  0  0  0  0
   36.9180   24.4780   34.2070 H   0  0  0  0  0  0  0  0  0  0  0  0
   37.6660   24.6030   32.2560 N   0  0  0  0  0  0  0  0  0  0  0  0
   37.6080   25.9720   31.8740 C   0  0  0  0  0  3  0  0  0  0  0  0
   38.2090   26.5850   32.5790 H   0  0  0  0  0  0  0  0  0  0  0  0
   36.2250   26.5450   31.7200 C   0  0  0  0  0  3  0  0  0  0  0  0
   36.2920   27.6160   31.4380 H   0  0  0  0  0  0  0  0  0  0  0  0
   35.6320   25.7580   30.6260 N   0  0  0  0  0  0  0  0  0  0  0  0
   36.3260   25.6560   29.8620 H   0  0  0  0  0  0  0  0  0  0  0  0
   35.4070   24.4490   31.2090 C   0  0  0  0  0  2  0  0  0  0  0  0
   36.6020   23.7850   31.7680 C   0  0  0  0  0  2  0  0  0  0  0  0
  1  6  1  0  0  0  0
  2  1  1  0  0  0  0
  3  1  1  0  0  0  0
  4 10  1  0  0  0  0
  4  9  1  0  0  0  0
  5  4  2  0  0  0  0
  6  5  1  0  0  0  0
  6  7  2  0  0  0  0
  7  8  1  0  0  0  0
  8 12  1  0  0  0  0
  8  9  2  0  0  0  0
 11  5  1  0  0  0  0
 13 14  1  0  0  0  0
 13  1  1  0  0  0  0
 13 15  1  0  0  0  0
 16 13  1  0  0  0  0
 17 16  1  0  0  0  0
 17 18  1  0  0  0  0
 19 17  1  0  0  0  0
 20 19  1  0  0  0  0
 21 23  1  0  0  0  0
 21 19  1  0  0  0  0
 22 21  1  0  0  0  0
 23 24  1  0  0  0  0
 24 16  1  0  0  0  0
M  END
>  <minimizedAffinity>
-3.84158111

$$$$

 OpenBabel03272509253D

 24 25  0  0  0  0  0  0  0  0999 V2000
   38.6480   24.0920   34.4510 C   0  0  0  0  0  0  0  0  0  0  0  0
   39.5600   23.6940   33.9660 H   0  0  0  0  0  0  0  0  0  0  0  0
   37.8190   23.4440   34.0720 H   0  0  0  0  0  0  0  0  0  0  0  0
   37.9400   24.2110   38.1720 C   0  0  0  0  0  0  0  0  0  0  0  0
   37.8420   24.4690   36.7970 C   0  0  0  0  0  0  0  0  0  0  0  0
   38.7180   23.8890   35.9120 C   0  0  0  0  0  0  0  0  0  0  0  0
   39.6730   23.0610   36.4420 N   0  0  0  0  0  0  0  0  0  0  0  0
   39.7600   22.8210   37.7570 C   0  0  0  0  0  0  0  0  0  0  0  0
   38.8980   23.3920   38.6320 N   0  0  0  0  0  0  0  0  0  0  0  0
   37.2720   24.6360   38.9230 H   0  0  0  0  0  0  0  0  0  0  0  0
   37.0500   25.1280   36.5920 H   0  0  0  0  0  0  0  0  0  0  0  0
   40.5480   22.1530   38.0730 H   0  0  0  0  0  0  0  0  0  0  0  0
   38.3150   25.4910   34.0790 C   0  0  0  0  0  0  0  0  0  0  0  0
   39.1680   25.8780   33.4640 H   0  0  0  0  0  0  0  0  0  0  0  0
   38.2980   26.1100   35.0080 H   0  0  0  0  0  0  0  0  0  0  0  0
   37.1280   25.7150   33.3180 N   0  0  0  0  0  0  0  0  0  0  0  0
   36.9420   24.6650   32.3750 C   0  0  0  0  0  3  0  0  0  0  0  0
   37.4180   23.7330   32.7510 H   0  0  0  0  0  0  0  0  0  0  0  0
   37.3990   24.9650   30.9730 C   0  0  0  0  0  3  0  0  0  0  0  0
   37.2260   24.0800   30.3250 H   0  0  0  0  0  0  0  0  0  0  0  0
   36.5470   26.0890   30.5530 N   0  0  0  0  0  0  0  0  0  0  0  0
   35.5670   25.9010   30.8360 H   0  0  0  0  0  0  0  0  0  0  0  0
   37.0330   27.2150   31.3280 C   0  0  0  0  0  2  0  0  0  0  0  0
   37.0110   27.0380   32.7940 C   0  0  0  0  0  2  0  0  0  0  0  0
  1  6  1  0  0  0  0
  2  1  1  0  0  0  0
  3  1  1  0  0  0  0
  4  9  1  0  0  0  0
  4 10  1  0  0  0  0
  5  4  2  0  0  0  0
  6  7  2  0  0  0  0
  6  5  1  0  0  0  0
  7  8  1  0  0  0  0
  8 12  1  0  0  0  0
  8  9  2  0  0  0  0
 11  5  1  0  0  0  0
 13  1  1  0  0  0  0
 13 15  1  0  0  0  0
 14 13  1  0  0  0  0
 16 13  1  0  0  0  0
 17 18  1  0  0  0  0
 17 16  1  0  0  0  0
 19 17  1  0  0  0  0
 20 19  1  0  0  0  0
 21 22  1  0  0  0  0
 21 19  1  0  0  0  0
 21 23  1  0  0  0  0
 23 24  1  0  0  0  0
 24 16  1  0  0  0  0
M  END
>  <minimizedAffinity>
-3.82259107

$$$$

 OpenBabel03272509253D

 24 25  0  0  0  0  0  0  0  0999 V2000
   37.4230   22.7460   32.7930 C   0  0  0  0  0  0  0  0  0  0  0  0
   36.6630   22.0870   33.2540 H   0  0  0  0  0  0  0  0  0  0  0  0
   37.8090   22.1660   31.9190 H   0  0  0  0  0  0  0  0  0  0  0  0
   35.1540   25.1210   30.9040 C   0  0  0  0  0  0  0  0  0  0  0  0
   35.7430   23.9320   31.3560 C   0  0  0  0  0  0  0  0  0  0  0  0
   36.7830   23.9620   32.2530 C   0  0  0  0  0  0  0  0  0  0  0  0
   37.2020   25.1990   32.6700 N   0  0  0  0  0  0  0  0  0  0  0  0
   36.6340   26.3300   32.2310 C   0  0  0  0  0  0  0  0  0  0  0  0
   35.6080   26.3030   31.3470 N   0  0  0  0  0  0  0  0  0  0  0  0
   34.3230   25.1620   30.1970 H   0  0  0  0  0  0  0  0  0  0  0  0
   35.2840   23.0930   30.9190 H   0  0  0  0  0  0  0  0  0  0  0  0
   37.0380   27.2530   32.6220 H   0  0  0  0  0  0  0  0  0  0  0  0
   38.5850   23.0480   33.6670 C   0  0  0  0  0  0  0  0  0  0  0  0
   38.4300   24.0800   34.0750 H   0  0  0  0  0  0  0  0  0  0  0  0
   39.5020   23.1000   33.0320 H   0  0  0  0  0  0  0  0  0  0  0  0
   38.8140   22.1960   34.7900 N   0  0  0  0  0  0  0  0  0  0  0  0
   37.6770   22.1950   35.6470 C   0  0  0  0  0  3  0  0  0  0  0  0
   36.7610   22.4150   35.0570 H   0  0  0  0  0  0  0  0  0  0  0  0
   37.7670   23.1030   36.8440 C   0  0  0  0  0  3  0  0  0  0  0  0
   36.8280   23.0390   37.4330 H   0  0  0  0  0  0  0  0  0  0  0  0
   38.9000   22.5650   37.6160 N   0  0  0  0  0  0  0  0  0  0  0  0
   38.8290   21.5310   37.6520 H   0  0  0  0  0  0  0  0  0  0  0  0
   40.0660   22.9100   36.8260 C   0  0  0  0  0  2  0  0  0  0  0  0
   40.0690   22.4070   35.4380 C   0  0  0  0  0  2  0  0  0  0  0  0
  1  2  1  0  0  0  0
  1 13  1  0  0  0  0
  3  1  1  0  0  0  0
  4  9  2  0  0  0  0
  4  5  1  0  0  0  0
  5  6  2  0  0  0  0
  6  7  1  0  0  0  0
  6  1  1  0  0  0  0
  8 12  1  0  0  0  0
  8  7  2  0  0  0  0
  9  8  1  0  0  0  0
 10  4  1  0  0  0  0
 11  5  1  0  0  0  0
 13 14  1  0  0  0  0
 13 16  1  0  0  0  0
 15 13  1  0  0  0  0
 16 24  1  0  0  0  0
 16 17  1  0  0  0  0
 17 19  1  0  0  0  0
 18 17  1  0  0  0  0
 19 20  1  0  0  0  0
 19 21  1  0  0  0  0
 21 22  1  0  0  0  0
 23 21  1  0  0  0  0
 24 23  1  0  0  0  0
M  END
>  <minimizedAffinity>
-3.77284861

$$$$
