
 OpenBabel03272500143D

 31 33  0  0  0  0  0  0  0  0999 V2000
   32.9200   30.9190   46.4730 Cl  0  0  0  0  0  0  0  0  0  0  0  0
   33.0060   29.2660   47.0480 C   0  0  0  0  0  0  0  0  0  0  0  0
   34.0920   28.8450   47.8150 C   0  0  0  0  0  0  0  0  0  0  0  0
   34.1890   27.5430   48.2850 C   0  0  0  0  0  0  0  0  0  0  0  0
   33.1640   26.6650   47.9660 C   0  0  0  0  0  0  0  0  0  0  0  0
   32.0830   27.0480   47.2140 C   0  0  0  0  0  0  0  0  0  0  0  0
   30.8170   25.8990   46.8390 Cl  0  0  0  0  0  0  0  0  0  0  0  0
   32.0100   28.3520   46.7570 C   0  0  0  0  0  0  0  0  0  0  0  0
   35.0260   27.2250   48.8750 H   0  0  0  0  0  0  0  0  0  0  0  0
   33.2120   25.6370   48.3190 H   0  0  0  0  0  0  0  0  0  0  0  0
   30.8890   28.7890   45.9630 N   0  0  0  0  0  0  0  0  0  0  0  0
   30.9630   28.6500   44.5410 C   0  0  0  0  0  0  0  0  0  0  0  0
   31.8590   28.0580   44.2390 H   0  0  0  0  0  0  0  0  0  0  0  0
   29.7790   27.9660   43.9120 C   0  0  0  0  0  0  0  0  0  0  0  0
   29.8400   26.8510   43.9900 H   0  0  0  0  0  0  0  0  0  0  0  0
   28.5210   28.4780   44.3600 N   0  0  0  0  0  0  0  0  0  0  0  0
   27.7840   27.7630   44.1160 H   0  0  0  0  0  0  0  0  0  0  0  0
   28.4320   28.6910   45.7690 C   0  0  0  0  0  0  0  0  0  0  0  0
   29.6340   29.3780   46.3630 C   0  0  0  0  0  0  0  0  0  0  0  0
   36.2310   31.1600   49.7190 C   0  0  0  0  0  0  0  0  0  0  0  0
   37.1880   31.5260   48.7280 C   0  0  0  0  0  0  0  0  0  0  0  0
   37.0750   30.9740   47.4490 C   0  0  0  0  0  0  0  0  0  0  0  0
   36.0520   30.1110   47.2090 N   0  0  0  0  0  0  0  0  0  0  0  0
   35.1610   29.7770   48.1440 C   0  0  0  0  0  0  0  0  0  0  0  0
   35.2490   30.2930   49.3790 N   0  0  0  0  0  0  0  0  0  0  0  0
   36.2550   31.5440   50.7260 H   0  0  0  0  0  0  0  0  0  0  0  0
   37.7960   31.2540   46.7150 H   0  0  0  0  0  0  0  0  0  0  0  0
   38.2680   32.4870   49.1230 C   0  0  0  0  0  0  0  0  0  0  0  0
   39.1700   32.6540   48.0570 F   0  0  0  0  0  0  0  0  0  0  0  0
   37.6920   33.6970   49.3640 F   0  0  0  0  0  0  0  0  0  0  0  0
   38.9750   32.0660   50.2310 F   0  0  0  0  0  0  0  0  0  0  0  0
  1  2  1  0  0  0  0
  2  3  1  0  0  0  0
  3 24  1  0  0  0  0
  3  4  2  0  0  0  0
  4  9  1  0  0  0  0
  5  4  1  0  0  0  0
  5 10  1  0  0  0  0
  6  5  2  0  0  0  0
  7  6  1  0  0  0  0
  8  2  2  0  0  0  0
  8  6  1  0  0  0  0
 11 19  1  0  0  0  0
 11  8  1  0  0  0  0
 12 11  1  0  0  0  0
 13 12  1  0  0  0  0
 14 15  1  0  0  0  0
 14 16  1  0  0  0  0
 14 12  1  0  0  0  0
 16 18  1  0  0  0  0
 17 16  1  0  0  0  0
 18 19  1  0  0  0  0
 20 26  1  0  0  0  0
 21 28  1  0  0  0  0
 21 20  2  0  0  0  0
 22 21  1  0  0  0  0
 23 22  2  0  0  0  0
 23 24  1  0  0  0  0
 24 25  2  0  0  0  0
 25 20  1  0  0  0  0
 27 22  1  0  0  0  0
 28 30  1  0  0  0  0
 28 31  1  0  0  0  0
 29 28  1  0  0  0  0
M  END
>  <minimizedAffinity>
-5.66014671

>  <minimizedRMSD>
1.79869258

$$$$
