
 OpenBabel03272500133D

 21 22  0  0  0  0  0  0  0  0999 V2000
   38.2100   22.8880   36.1250 C   0  0  0  0  0  0  0  0  0  0  0  0
   38.1710   24.0190   36.9660 C   0  0  0  0  0  0  0  0  0  0  0  0
   38.1390   25.2920   36.3820 C   0  0  0  0  0  0  0  0  0  0  0  0
   38.1460   25.3590   35.0160 N   0  0  0  0  0  0  0  0  0  0  0  0
   38.1820   24.2670   34.2470 C   0  0  0  0  0  0  0  0  0  0  0  0
   38.2140   23.0440   34.7690 N   0  0  0  0  0  0  0  0  0  0  0  0
   38.2350   21.9180   36.6170 H   0  0  0  0  0  0  0  0  0  0  0  0
   38.1090   26.1330   37.0330 H   0  0  0  0  0  0  0  0  0  0  0  0
   38.1870   24.4430   32.8370 N   0  0  0  0  0  0  0  0  0  0  0  0
   38.4730   25.7250   32.2230 C   0  0  0  0  0  3  0  0  0  0  0  0
   38.7720   26.4650   32.9620 H   0  0  0  0  0  0  0  0  0  0  0  0
   37.1940   26.1430   31.5270 C   0  0  0  0  0  3  0  0  0  0  0  0
   36.4500   26.3670   32.3390 H   0  0  0  0  0  0  0  0  0  0  0  0
   36.6320   25.1110   30.7190 N   0  0  0  0  0  0  0  0  0  0  0  0
   36.3960   25.4420   29.7570 H   0  0  0  0  0  0  0  0  0  0  0  0
   37.3990   23.9180   30.5800 C   0  0  0  0  0  2  0  0  0  0  0  0
   37.9120   23.3760   31.8940 C   0  0  0  0  0  2  0  0  0  0  0  0
   38.1670   23.7920   38.4550 C   0  0  0  0  0  0  0  0  0  0  0  0
   39.4410   23.4550   38.9000 F   0  0  0  0  0  0  0  0  0  0  0  0
   37.8340   24.9930   39.0560 F   0  0  0  0  0  0  0  0  0  0  0  0
   37.2790   22.8360   38.8410 F   0  0  0  0  0  0  0  0  0  0  0  0
  1  7  1  0  0  0  0
  1  2  1  0  0  0  0
  2 18  1  0  0  0  0
  3  2  2  0  0  0  0
  3  8  1  0  0  0  0
  4  3  1  0  0  0  0
  5  6  1  0  0  0  0
  5  4  2  0  0  0  0
  6  1  2  0  0  0  0
  9  5  1  0  0  0  0
 10  9  1  0  0  0  0
 10 11  1  0  0  0  0
 12 10  1  0  0  0  0
 12 13  1  0  0  0  0
 14 12  1  0  0  0  0
 15 14  1  0  0  0  0
 16 14  1  0  0  0  0
 16 17  1  0  0  0  0
 17  9  1  0  0  0  0
 18 21  1  0  0  0  0
 18 19  1  0  0  0  0
 18 20  1  0  0  0  0
M  END
>  <minimizedAffinity>
-5.19922781

$$$$

 OpenBabel03272500133D

 21 22  0  0  0  0  0  0  0  0999 V2000
   38.1020   25.3140   36.4360 C   0  0  0  0  0  0  0  0  0  0  0  0
   38.1730   23.9950   36.9280 C   0  0  0  0  0  0  0  0  0  0  0  0
   38.1580   22.9320   36.0150 C   0  0  0  0  0  0  0  0  0  0  0  0
   38.0750   23.2460   34.6860 N   0  0  0  0  0  0  0  0  0  0  0  0
   38.0100   24.5070   34.2520 C   0  0  0  0  0  0  0  0  0  0  0  0
   38.0220   25.5390   35.0910 N   0  0  0  0  0  0  0  0  0  0  0  0
   38.1170   26.1100   37.1770 H   0  0  0  0  0  0  0  0  0  0  0  0
   38.2130   21.9450   36.4060 H   0  0  0  0  0  0  0  0  0  0  0  0
   37.9250   24.7280   32.8510 N   0  0  0  0  0  0  0  0  0  0  0  0
   37.5910   23.6640   31.9230 C   0  0  0  0  0  3  0  0  0  0  0  0
   37.3240   22.7470   32.4450 H   0  0  0  0  0  0  0  0  0  0  0  0
   38.8240   23.4590   31.0680 C   0  0  0  0  0  3  0  0  0  0  0  0
   39.6090   23.0220   31.7450 H   0  0  0  0  0  0  0  0  0  0  0  0
   39.3540   24.6750   30.5460 N   0  0  0  0  0  0  0  0  0  0  0  0
   39.5320   24.6240   29.5180 H   0  0  0  0  0  0  0  0  0  0  0  0
   38.5950   25.8580   30.7850 C   0  0  0  0  0  2  0  0  0  0  0  0
   38.1620   26.0140   32.2240 C   0  0  0  0  0  2  0  0  0  0  0  0
   38.2620   23.8010   38.4200 C   0  0  0  0  0  0  0  0  0  0  0  0
   37.9280   24.9760   39.0850 F   0  0  0  0  0  0  0  0  0  0  0  0
   37.3160   22.8550   38.7710 F   0  0  0  0  0  0  0  0  0  0  0  0
   39.4910   23.3790   38.8240 F   0  0  0  0  0  0  0  0  0  0  0  0
  1  2  1  0  0  0  0
  1  7  1  0  0  0  0
  2 18  1  0  0  0  0
  3  8  1  0  0  0  0
  3  2  2  0  0  0  0
  4  3  1  0  0  0  0
  5  4  2  0  0  0  0
  5  6  1  0  0  0  0
  6  1  2  0  0  0  0
  9  5  1  0  0  0  0
 10 11  1  0  0  0  0
 10  9  1  0  0  0  0
 12 13  1  0  0  0  0
 12 10  1  0  0  0  0
 14 16  1  0  0  0  0
 14 12  1  0  0  0  0
 15 14  1  0  0  0  0
 16 17  1  0  0  0  0
 17  9  1  0  0  0  0
 18 20  1  0  0  0  0
 18 21  1  0  0  0  0
 18 19  1  0  0  0  0
M  END
>  <minimizedAffinity>
-4.69418573

$$$$

 OpenBabel03272500133D

 21 22  0  0  0  0  0  0  0  0999 V2000
   37.0390   27.7930   34.5340 C   0  0  0  0  0  0  0  0  0  0  0  0
   36.9100   27.5390   33.1530 C   0  0  0  0  0  0  0  0  0  0  0  0
   37.2010   26.2540   32.6750 C   0  0  0  0  0  0  0  0  0  0  0  0
   37.5950   25.3160   33.5890 N   0  0  0  0  0  0  0  0  0  0  0  0
   37.7060   25.5900   34.8920 C   0  0  0  0  0  0  0  0  0  0  0  0
   37.4390   26.7980   35.3790 N   0  0  0  0  0  0  0  0  0  0  0  0
   36.8040   28.8030   34.8650 H   0  0  0  0  0  0  0  0  0  0  0  0
   37.0970   26.0810   31.6310 H   0  0  0  0  0  0  0  0  0  0  0  0
   38.1240   24.5460   35.7600 N   0  0  0  0  0  0  0  0  0  0  0  0
   38.7270   23.3260   35.2620 C   0  0  0  0  0  3  0  0  0  0  0  0
   38.9000   23.3740   34.1880 H   0  0  0  0  0  0  0  0  0  0  0  0
   37.7550   22.2160   35.6030 C   0  0  0  0  0  3  0  0  0  0  0  0
   36.8490   22.3790   34.9580 H   0  0  0  0  0  0  0  0  0  0  0  0
   37.3140   22.2520   36.9580 N   0  0  0  0  0  0  0  0  0  0  0  0
   37.3980   21.3240   37.4300 H   0  0  0  0  0  0  0  0  0  0  0  0
   37.9340   23.2160   37.8060 C   0  0  0  0  0  2  0  0  0  0  0  0
   37.9900   24.6000   37.2040 C   0  0  0  0  0  2  0  0  0  0  0  0
   36.4650   28.6700   32.2640 C   0  0  0  0  0  0  0  0  0  0  0  0
   37.4510   28.9740   31.3310 F   0  0  0  0  0  0  0  0  0  0  0  0
   35.3600   28.2310   31.5570 F   0  0  0  0  0  0  0  0  0  0  0  0
   36.1340   29.7910   32.9630 F   0  0  0  0  0  0  0  0  0  0  0  0
  1  7  1  0  0  0  0
  1  6  1  0  0  0  0
  2  1  2  0  0  0  0
  3  2  1  0  0  0  0
  3  4  2  0  0  0  0
  4  5  1  0  0  0  0
  5  6  2  0  0  0  0
  5  9  1  0  0  0  0
  8  3  1  0  0  0  0
  9 17  1  0  0  0  0
 10 12  1  0  0  0  0
 10  9  1  0  0  0  0
 11 10  1  0  0  0  0
 12 14  1  0  0  0  0
 13 12  1  0  0  0  0
 14 15  1  0  0  0  0
 14 16  1  0  0  0  0
 17 16  1  0  0  0  0
 18 21  1  0  0  0  0
 18  2  1  0  0  0  0
 19 18  1  0  0  0  0
 20 18  1  0  0  0  0
M  END
>  <minimizedAffinity>
-4.63064766

$$$$

 OpenBabel03272500133D

 21 22  0  0  0  0  0  0  0  0999 V2000
   35.5110   20.6670   34.4400 C   0  0  0  0  0  0  0  0  0  0  0  0
   36.1730   20.3720   33.2310 C   0  0  0  0  0  0  0  0  0  0  0  0
   37.4610   20.8850   33.0250 C   0  0  0  0  0  0  0  0  0  0  0  0
   38.0020   21.6490   34.0230 N   0  0  0  0  0  0  0  0  0  0  0  0
   37.3470   21.9090   35.1580 C   0  0  0  0  0  0  0  0  0  0  0  0
   36.1240   21.4380   35.3850 N   0  0  0  0  0  0  0  0  0  0  0  0
   34.5140   20.2500   34.5610 H   0  0  0  0  0  0  0  0  0  0  0  0
   37.9450   20.6520   32.1070 H   0  0  0  0  0  0  0  0  0  0  0  0
   37.9950   22.7140   36.1330 N   0  0  0  0  0  0  0  0  0  0  0  0
   39.1690   23.5050   35.8210 C   0  0  0  0  0  3  0  0  0  0  0  0
   39.4010   23.4750   34.7580 H   0  0  0  0  0  0  0  0  0  0  0  0
   40.2980   22.9110   36.6360 C   0  0  0  0  0  3  0  0  0  0  0  0
   40.5040   21.8960   36.1980 H   0  0  0  0  0  0  0  0  0  0  0  0
   39.9560   22.7120   38.0060 N   0  0  0  0  0  0  0  0  0  0  0  0
   40.6740   23.1010   38.6570 H   0  0  0  0  0  0  0  0  0  0  0  0
   38.6890   23.2090   38.4280 C   0  0  0  0  0  2  0  0  0  0  0  0
   37.5540   22.8180   37.5110 C   0  0  0  0  0  2  0  0  0  0  0  0
   35.4540   19.5170   32.2210 C   0  0  0  0  0  0  0  0  0  0  0  0
   36.1600   19.4790   31.0230 F   0  0  0  0  0  0  0  0  0  0  0  0
   35.4280   18.2250   32.7160 F   0  0  0  0  0  0  0  0  0  0  0  0
   34.1800   19.9340   31.9890 F   0  0  0  0  0  0  0  0  0  0  0  0
  1  7  1  0  0  0  0
  1  6  1  0  0  0  0
  2  1  2  0  0  0  0
  3  2  1  0  0  0  0
  3  4  2  0  0  0  0
  4  5  1  0  0  0  0
  5  6  2  0  0  0  0
  5  9  1  0  0  0  0
  8  3  1  0  0  0  0
  9 17  1  0  0  0  0
 10  9  1  0  0  0  0
 10 12  1  0  0  0  0
 11 10  1  0  0  0  0
 12 14  1  0  0  0  0
 13 12  1  0  0  0  0
 14 16  1  0  0  0  0
 14 15  1  0  0  0  0
 17 16  1  0  0  0  0
 18 20  1  0  0  0  0
 18  2  1  0  0  0  0
 19 18  1  0  0  0  0
 21 18  1  0  0  0  0
M  END
>  <minimizedAffinity>
-4.62875795

$$$$

 OpenBabel03272500133D

 21 22  0  0  0  0  0  0  0  0999 V2000
   38.2780   25.6220   33.1200 C   0  0  0  0  0  0  0  0  0  0  0  0
   37.4630   26.6430   33.6490 C   0  0  0  0  0  0  0  0  0  0  0  0
   37.0560   26.5570   34.9870 C   0  0  0  0  0  0  0  0  0  0  0  0
   37.4810   25.4730   35.7050 N   0  0  0  0  0  0  0  0  0  0  0  0
   38.2540   24.5220   35.1740 C   0  0  0  0  0  0  0  0  0  0  0  0
   38.6580   24.5730   33.9080 N   0  0  0  0  0  0  0  0  0  0  0  0
   38.5720   25.7260   32.0780 H   0  0  0  0  0  0  0  0  0  0  0  0
   36.4420   27.3370   35.3680 H   0  0  0  0  0  0  0  0  0  0  0  0
   38.6420   23.4350   36.0030 N   0  0  0  0  0  0  0  0  0  0  0  0
   37.9870   23.1610   37.2680 C   0  0  0  0  0  3  0  0  0  0  0  0
   37.1300   23.8130   37.4240 H   0  0  0  0  0  0  0  0  0  0  0  0
   39.0380   23.3860   38.3350 C   0  0  0  0  0  3  0  0  0  0  0  0
   39.2460   24.4910   38.3460 H   0  0  0  0  0  0  0  0  0  0  0  0
   40.2730   22.7320   38.0520 N   0  0  0  0  0  0  0  0  0  0  0  0
   40.6250   22.1750   38.8630 H   0  0  0  0  0  0  0  0  0  0  0  0
   40.2990   21.8790   36.9110 C   0  0  0  0  0  2  0  0  0  0  0  0
   39.7120   22.5130   35.6720 C   0  0  0  0  0  2  0  0  0  0  0  0
   37.0720   27.7780   32.7390 C   0  0  0  0  0  0  0  0  0  0  0  0
   36.0070   27.4070   31.9260 F   0  0  0  0  0  0  0  0  0  0  0  0
   36.6280   28.8160   33.5390 F   0  0  0  0  0  0  0  0  0  0  0  0
   38.1060   28.2160   31.9690 F   0  0  0  0  0  0  0  0  0  0  0  0
  1  2  2  0  0  0  0
  1  6  1  0  0  0  0
  2  3  1  0  0  0  0
  3  8  1  0  0  0  0
  3  4  2  0  0  0  0
  5  4  1  0  0  0  0
  5  9  1  0  0  0  0
  6  5  2  0  0  0  0
  7  1  1  0  0  0  0
  9 10  1  0  0  0  0
 10 11  1  0  0  0  0
 10 12  1  0  0  0  0
 12 13  1  0  0  0  0
 14 12  1  0  0  0  0
 14 15  1  0  0  0  0
 16 14  1  0  0  0  0
 17  9  1  0  0  0  0
 17 16  1  0  0  0  0
 18 20  1  0  0  0  0
 18  2  1  0  0  0  0
 19 18  1  0  0  0  0
 21 18  1  0  0  0  0
M  END
>  <minimizedAffinity>
-4.55874443

$$$$

 OpenBabel03272500133D

 21 22  0  0  0  0  0  0  0  0999 V2000
   39.0690   24.3060   36.1090 C   0  0  0  0  0  0  0  0  0  0  0  0
   39.7230   23.0580   36.0480 C   0  0  0  0  0  0  0  0  0  0  0  0
   39.5590   22.2660   34.9040 C   0  0  0  0  0  0  0  0  0  0  0  0
   38.7640   22.7600   33.9050 N   0  0  0  0  0  0  0  0  0  0  0  0
   38.1590   23.9470   33.9940 C   0  0  0  0  0  0  0  0  0  0  0  0
   38.2940   24.7230   35.0660 N   0  0  0  0  0  0  0  0  0  0  0  0
   39.2220   24.8900   37.0140 H   0  0  0  0  0  0  0  0  0  0  0  0
   40.0600   21.3290   34.8760 H   0  0  0  0  0  0  0  0  0  0  0  0
   37.3540   24.3700   32.9030 N   0  0  0  0  0  0  0  0  0  0  0  0
   36.9180   23.4530   31.8680 C   0  0  0  0  0  3  0  0  0  0  0  0
   37.1950   22.4260   32.1000 H   0  0  0  0  0  0  0  0  0  0  0  0
   37.5890   23.9180   30.5930 C   0  0  0  0  0  3  0  0  0  0  0  0
   38.6870   23.7130   30.7210 H   0  0  0  0  0  0  0  0  0  0  0  0
   37.4500   25.3180   30.3640 N   0  0  0  0  0  0  0  0  0  0  0  0
   37.1180   25.5330   29.3970 H   0  0  0  0  0  0  0  0  0  0  0  0
   36.6120   26.0340   31.2680 C   0  0  0  0  0  2  0  0  0  0  0  0
   36.9010   25.7360   32.7200 C   0  0  0  0  0  2  0  0  0  0  0  0
   40.5670   22.6440   37.2250 C   0  0  0  0  0  0  0  0  0  0  0  0
   40.7880   21.2710   37.2070 F   0  0  0  0  0  0  0  0  0  0  0  0
   41.8000   23.2550   37.0850 F   0  0  0  0  0  0  0  0  0  0  0  0
   40.0200   23.0040   38.4180 F   0  0  0  0  0  0  0  0  0  0  0  0
  1  7  1  0  0  0  0
  2  1  1  0  0  0  0
  2 18  1  0  0  0  0
  3  2  2  0  0  0  0
  4  5  2  0  0  0  0
  4  3  1  0  0  0  0
  5  6  1  0  0  0  0
  6  1  2  0  0  0  0
  8  3  1  0  0  0  0
  9  5  1  0  0  0  0
 10 11  1  0  0  0  0
 10  9  1  0  0  0  0
 12 13  1  0  0  0  0
 12 10  1  0  0  0  0
 14 12  1  0  0  0  0
 14 16  1  0  0  0  0
 15 14  1  0  0  0  0
 16 17  1  0  0  0  0
 17  9  1  0  0  0  0
 18 21  1  0  0  0  0
 19 18  1  0  0  0  0
 20 18  1  0  0  0  0
M  END
>  <minimizedAffinity>
-4.49205828

$$$$

 OpenBabel03272500133D

 21 22  0  0  0  0  0  0  0  0999 V2000
   38.4800   24.6180   35.3610 C   0  0  0  0  0  0  0  0  0  0  0  0
   38.0950   25.8950   34.9040 C   0  0  0  0  0  0  0  0  0  0  0  0
   37.4720   26.0050   33.6530 C   0  0  0  0  0  0  0  0  0  0  0  0
   37.2730   24.8510   32.9460 N   0  0  0  0  0  0  0  0  0  0  0  0
   37.6490   23.6550   33.4080 C   0  0  0  0  0  0  0  0  0  0  0  0
   38.2440   23.5160   34.5900 N   0  0  0  0  0  0  0  0  0  0  0  0
   38.9610   24.5760   36.3360 H   0  0  0  0  0  0  0  0  0  0  0  0
   37.1890   26.9760   33.3260 H   0  0  0  0  0  0  0  0  0  0  0  0
   37.3990   22.5160   32.5970 N   0  0  0  0  0  0  0  0  0  0  0  0
   37.0560   22.6320   31.1930 C   0  0  0  0  0  3  0  0  0  0  0  0
   37.1220   23.6630   30.8490 H   0  0  0  0  0  0  0  0  0  0  0  0
   35.6390   22.1120   31.0700 C   0  0  0  0  0  3  0  0  0  0  0  0
   34.9810   22.8570   31.5950 H   0  0  0  0  0  0  0  0  0  0  0  0
   35.4440   20.8560   31.7160 N   0  0  0  0  0  0  0  0  0  0  0  0
   34.9710   20.1590   31.0980 H   0  0  0  0  0  0  0  0  0  0  0  0
   36.6050   20.2270   32.2530 C   0  0  0  0  0  2  0  0  0  0  0  0
   37.4600   21.1520   33.0860 C   0  0  0  0  0  2  0  0  0  0  0  0
   38.3780   27.0790   35.7920 C   0  0  0  0  0  0  0  0  0  0  0  0
   38.2400   26.7280   37.1310 F   0  0  0  0  0  0  0  0  0  0  0  0
   39.7020   27.4330   35.6010 F   0  0  0  0  0  0  0  0  0  0  0  0
   37.5830   28.1480   35.5140 F   0  0  0  0  0  0  0  0  0  0  0  0
  1  7  1  0  0  0  0
  2  1  1  0  0  0  0
  2 18  1  0  0  0  0
  3  2  2  0  0  0  0
  4  5  2  0  0  0  0
  4  3  1  0  0  0  0
  5  6  1  0  0  0  0
  6  1  2  0  0  0  0
  8  3  1  0  0  0  0
  9 17  1  0  0  0  0
  9  5  1  0  0  0  0
 10  9  1  0  0  0  0
 11 10  1  0  0  0  0
 12 10  1  0  0  0  0
 12 13  1  0  0  0  0
 12 14  1  0  0  0  0
 14 16  1  0  0  0  0
 15 14  1  0  0  0  0
 16 17  1  0  0  0  0
 18 19  1  0  0  0  0
 20 18  1  0  0  0  0
 21 18  1  0  0  0  0
M  END
>  <minimizedAffinity>
-4.4915967

$$$$

 OpenBabel03272500133D

 21 22  0  0  0  0  0  0  0  0999 V2000
   38.3850   22.7630   34.6370 C   0  0  0  0  0  0  0  0  0  0  0  0
   37.8200   22.4860   35.8990 C   0  0  0  0  0  0  0  0  0  0  0  0
   36.7010   21.6450   35.9670 C   0  0  0  0  0  0  0  0  0  0  0  0
   36.2210   21.1390   34.7900 N   0  0  0  0  0  0  0  0  0  0  0  0
   36.7800   21.4210   33.6100 C   0  0  0  0  0  0  0  0  0  0  0  0
   37.8420   22.2160   33.5100 N   0  0  0  0  0  0  0  0  0  0  0  0
   39.2520   23.4200   34.6270 H   0  0  0  0  0  0  0  0  0  0  0  0
   36.2900   21.4480   36.9280 H   0  0  0  0  0  0  0  0  0  0  0  0
   36.2060   20.8460   32.4450 N   0  0  0  0  0  0  0  0  0  0  0  0
   34.8860   20.2460   32.4530 C   0  0  0  0  0  3  0  0  0  0  0  0
   34.3860   20.3920   33.4090 H   0  0  0  0  0  0  0  0  0  0  0  0
   35.1000   18.7730   32.1750 C   0  0  0  0  0  3  0  0  0  0  0  0
   35.6180   18.3530   33.0800 H   0  0  0  0  0  0  0  0  0  0  0  0
   35.9500   18.5310   31.0570 N   0  0  0  0  0  0  0  0  0  0  0  0
   35.5390   17.8450   30.3850 H   0  0  0  0  0  0  0  0  0  0  0  0
   36.3560   19.6700   30.3030 C   0  0  0  0  0  2  0  0  0  0  0  0
   36.8730   20.8030   31.1570 C   0  0  0  0  0  2  0  0  0  0  0  0
   38.4570   23.1140   37.1110 C   0  0  0  0  0  0  0  0  0  0  0  0
   38.6890   24.4680   36.8930 F   0  0  0  0  0  0  0  0  0  0  0  0
   37.5480   23.0220   38.1500 F   0  0  0  0  0  0  0  0  0  0  0  0
   39.6170   22.5020   37.4740 F   0  0  0  0  0  0  0  0  0  0  0  0
  1  2  1  0  0  0  0
  2  3  2  0  0  0  0
  2 18  1  0  0  0  0
  3  8  1  0  0  0  0
  4  3  1  0  0  0  0
  5  4  2  0  0  0  0
  6  5  1  0  0  0  0
  6  1  2  0  0  0  0
  7  1  1  0  0  0  0
  9 10  1  0  0  0  0
  9  5  1  0  0  0  0
 10 11  1  0  0  0  0
 12 10  1  0  0  0  0
 12 13  1  0  0  0  0
 14 12  1  0  0  0  0
 15 14  1  0  0  0  0
 16 14  1  0  0  0  0
 16 17  1  0  0  0  0
 17  9  1  0  0  0  0
 18 21  1  0  0  0  0
 18 20  1  0  0  0  0
 19 18  1  0  0  0  0
M  END
>  <minimizedAffinity>
-4.44779301

$$$$

 OpenBabel03272500133D

 21 22  0  0  0  0  0  0  0  0999 V2000
   35.4250   21.6200   31.1740 C   0  0  0  0  0  0  0  0  0  0  0  0
   35.7900   20.7120   32.1900 C   0  0  0  0  0  0  0  0  0  0  0  0
   36.6410   21.1520   33.2120 C   0  0  0  0  0  0  0  0  0  0  0  0
   37.0690   22.4510   33.1600 N   0  0  0  0  0  0  0  0  0  0  0  0
   36.7030   23.2850   32.1840 C   0  0  0  0  0  0  0  0  0  0  0  0
   35.8970   22.9000   31.1980 N   0  0  0  0  0  0  0  0  0  0  0  0
   34.7630   21.2390   30.3990 H   0  0  0  0  0  0  0  0  0  0  0  0
   36.9040   20.4540   33.9700 H   0  0  0  0  0  0  0  0  0  0  0  0
   37.2020   24.6150   32.2190 N   0  0  0  0  0  0  0  0  0  0  0  0
   38.3150   24.9960   33.0680 C   0  0  0  0  0  3  0  0  0  0  0  0
   38.7540   24.1330   33.5640 H   0  0  0  0  0  0  0  0  0  0  0  0
   37.7480   25.9700   34.0790 C   0  0  0  0  0  3  0  0  0  0  0  0
   37.0640   25.3740   34.7440 H   0  0  0  0  0  0  0  0  0  0  0  0
   36.9600   27.0000   33.4870 N   0  0  0  0  0  0  0  0  0  0  0  0
   37.2330   27.9520   33.8190 H   0  0  0  0  0  0  0  0  0  0  0  0
   36.9300   27.0420   32.0620 C   0  0  0  0  0  2  0  0  0  0  0  0
   36.6570   25.7000   31.4260 C   0  0  0  0  0  2  0  0  0  0  0  0
   35.2410   19.3120   32.1170 C   0  0  0  0  0  0  0  0  0  0  0  0
   35.3610   18.6760   33.3490 F   0  0  0  0  0  0  0  0  0  0  0  0
   33.8880   19.4100   31.8440 F   0  0  0  0  0  0  0  0  0  0  0  0
   35.8390   18.5600   31.1530 F   0  0  0  0  0  0  0  0  0  0  0  0
  1  6  2  0  0  0  0
  1  2  1  0  0  0  0
  2  3  2  0  0  0  0
  3  8  1  0  0  0  0
  4  3  1  0  0  0  0
  5  9  1  0  0  0  0
  5  4  2  0  0  0  0
  6  5  1  0  0  0  0
  7  1  1  0  0  0  0
  9 10  1  0  0  0  0
 10 11  1  0  0  0  0
 10 12  1  0  0  0  0
 12 13  1  0  0  0  0
 14 15  1  0  0  0  0
 14 12  1  0  0  0  0
 16 14  1  0  0  0  0
 17 16  1  0  0  0  0
 17  9  1  0  0  0  0
 18  2  1  0  0  0  0
 18 19  1  0  0  0  0
 20 18  1  0  0  0  0
 21 18  1  0  0  0  0
M  END
>  <minimizedAffinity>
-4.35467911

$$$$
