
 OpenBabel03272510003D

 21 22  0  0  0  0  0  0  0  0999 V2000
   38.2990   32.9710   49.3370 C   0  0  0  0  0  0  0  0  0  0  0  0
   38.7580   32.8330   48.0240 C   0  0  0  0  0  0  0  0  0  0  0  0
   38.1940   31.8310   47.2370 C   0  0  0  0  0  0  0  0  0  0  0  0
   37.2340   31.0510   47.7960 N   0  0  0  0  0  0  0  0  0  0  0  0
   36.8090   31.1990   49.0540 C   0  0  0  0  0  0  0  0  0  0  0  0
   37.3480   32.1660   49.8240 N   0  0  0  0  0  0  0  0  0  0  0  0
   38.7570   33.7690   49.9440 H   0  0  0  0  0  0  0  0  0  0  0  0
   39.5240   33.4500   47.5650 H   0  0  0  0  0  0  0  0  0  0  0  0
   38.5640   31.5810   45.8930 N   0  0  0  0  0  0  0  0  0  0  0  0
   39.5240   30.5560   45.4990 C   0  0  0  0  0  3  0  0  0  0  0  0
   39.6080   29.7630   46.2720 H   0  0  0  0  0  0  0  0  0  0  0  0
   39.1440   29.8970   44.2110 C   0  0  0  0  0  3  0  0  0  0  0  0
   40.0570   29.4160   43.8080 H   0  0  0  0  0  0  0  0  0  0  0  0
   38.6020   30.7620   43.2120 N   0  0  0  0  0  0  0  0  0  0  0  0
   37.5830   30.5150   43.0930 H   0  0  0  0  0  0  0  0  0  0  0  0
   38.6440   32.1550   43.5620 C   0  0  0  0  0  2  0  0  0  0  0  0
   37.9320   32.4070   44.8900 C   0  0  0  0  0  2  0  0  0  0  0  0
   35.7530   30.2860   49.5580 C   0  0  0  0  0  0  0  0  0  0  0  0
   35.9960   29.8790   50.8630 F   0  0  0  0  0  0  0  0  0  0  0  0
   34.5190   30.9180   49.5730 F   0  0  0  0  0  0  0  0  0  0  0  0
   35.6110   29.1590   48.7900 F   0  0  0  0  0  0  0  0  0  0  0  0
  1  6  1  0  0  0  0
  1  7  1  0  0  0  0
  2  1  2  0  0  0  0
  3  4  2  0  0  0  0
  3  2  1  0  0  0  0
  4  5  1  0  0  0  0
  5 18  1  0  0  0  0
  5  6  2  0  0  0  0
  8  2  1  0  0  0  0
  9  3  1  0  0  0  0
 10  9  1  0  0  0  0
 10 11  1  0  0  0  0
 12 10  1  0  0  0  0
 13 12  1  0  0  0  0
 14 16  1  0  0  0  0
 14 12  1  0  0  0  0
 15 14  1  0  0  0  0
 16 17  1  0  0  0  0
 17  9  1  0  0  0  0
 18 20  1  0  0  0  0
 18 19  1  0  0  0  0
 21 18  1  0  0  0  0
M  END
>  <minimizedAffinity>
-5.12283611

>  <minimizedRMSD>
1.91643047

$$$$
