
 OpenBabel03272510003D

 21 22  0  0  0  0  0  0  0  0999 V2000
   38.2480   31.4480   50.1870 C   0  0  0  0  0  0  0  0  0  0  0  0
   38.5340   31.4600   48.8190 C   0  0  0  0  0  0  0  0  0  0  0  0
   37.6890   30.7500   47.9680 C   0  0  0  0  0  0  0  0  0  0  0  0
   36.6390   30.0920   48.5230 N   0  0  0  0  0  0  0  0  0  0  0  0
   36.3830   30.0930   49.8340 C   0  0  0  0  0  0  0  0  0  0  0  0
   37.1940   30.7770   50.6660 N   0  0  0  0  0  0  0  0  0  0  0  0
   38.9270   32.0150   50.8440 H   0  0  0  0  0  0  0  0  0  0  0  0
   39.3690   31.9810   48.3630 H   0  0  0  0  0  0  0  0  0  0  0  0
   37.8610   30.6770   46.5650 N   0  0  0  0  0  0  0  0  0  0  0  0
   36.7530   30.5600   45.6220 C   0  0  0  0  0  3  0  0  0  0  0  0
   35.8060   30.9370   46.0630 H   0  0  0  0  0  0  0  0  0  0  0  0
   37.0050   31.3250   44.3630 C   0  0  0  0  0  3  0  0  0  0  0  0
   36.3250   30.9140   43.5890 H   0  0  0  0  0  0  0  0  0  0  0  0
   38.3460   31.2780   43.8690 N   0  0  0  0  0  0  0  0  0  0  0  0
   38.7620   32.2420   43.9800 H   0  0  0  0  0  0  0  0  0  0  0  0
   39.2000   30.3800   44.5940 C   0  0  0  0  0  2  0  0  0  0  0  0
   39.2220   30.7240   46.0820 C   0  0  0  0  0  2  0  0  0  0  0  0
   35.2050   29.3370   50.3280 C   0  0  0  0  0  0  0  0  0  0  0  0
   35.2770   29.0930   51.6920 F   0  0  0  0  0  0  0  0  0  0  0  0
   34.0350   30.0530   50.1240 F   0  0  0  0  0  0  0  0  0  0  0  0
   35.0440   28.1300   49.6970 F   0  0  0  0  0  0  0  0  0  0  0  0
  1  6  1  0  0  0  0
  1  7  1  0  0  0  0
  2  1  2  0  0  0  0
  3  4  2  0  0  0  0
  3  2  1  0  0  0  0
  4  5  1  0  0  0  0
  5 18  1  0  0  0  0
  5  6  2  0  0  0  0
  8  2  1  0  0  0  0
  9  3  1  0  0  0  0
 10 11  1  0  0  0  0
 10  9  1  0  0  0  0
 12 10  1  0  0  0  0
 13 12  1  0  0  0  0
 14 15  1  0  0  0  0
 14 12  1  0  0  0  0
 14 16  1  0  0  0  0
 16 17  1  0  0  0  0
 17  9  1  0  0  0  0
 18 19  1  0  0  0  0
 20 18  1  0  0  0  0
 21 18  1  0  0  0  0
M  END
>  <minimizedAffinity>
-5.11712217

>  <minimizedRMSD>
1.07303536

$$$$
