
 OpenBabel03272502433D

 28 30  0  0  0  0  0  0  0  0999 V2000
   35.5170   28.6360   31.7990 C   0  0  0  0  0  0  0  0  0  0  0  0
   36.4090   27.6350   32.1760 C   0  0  0  0  0  0  0  0  0  0  0  0
   36.8520   27.6310   33.5080 C   0  0  0  0  0  0  0  0  0  0  0  0
   36.3860   28.5950   34.3330 N   0  0  0  0  0  0  0  0  0  0  0  0
   35.5220   29.5500   33.9300 C   0  0  0  0  0  0  0  0  0  0  0  0
   35.0860   29.5670   32.6570 N   0  0  0  0  0  0  0  0  0  0  0  0
   35.2000   28.6100   30.7790 H   0  0  0  0  0  0  0  0  0  0  0  0
   36.8130   26.8490   31.5750 H   0  0  0  0  0  0  0  0  0  0  0  0
   37.7550   26.7130   34.1110 N   0  0  0  0  0  0  0  0  0  0  0  0
   38.8600   27.0880   34.9830 C   0  0  0  0  0  3  0  0  0  0  0  0
   38.9640   28.1990   35.0360 H   0  0  0  0  0  0  0  0  0  0  0  0
   38.5180   26.5050   36.3420 C   0  0  0  0  0  3  0  0  0  0  0  0
   37.4270   26.6480   36.4850 H   0  0  0  0  0  0  0  0  0  0  0  0
   38.7770   25.0780   36.2140 N   0  0  0  0  0  0  0  0  0  0  0  0
   38.5730   24.6240   37.1340 H   0  0  0  0  0  0  0  0  0  0  0  0
   37.8750   24.5130   35.2450 C   0  0  0  0  0  2  0  0  0  0  0  0
   37.7420   25.2940   33.9740 C   0  0  0  0  0  2  0  0  0  0  0  0
   32.6800   29.3390   34.7220 Cl  0  0  0  0  0  0  0  0  0  0  0  0
   33.7730   30.5470   35.3290 C   0  0  0  0  0  0  0  0  0  0  0  0
   35.0700   30.5540   34.8950 C   0  0  0  0  0  0  0  0  0  0  0  0
   35.9790   31.4970   35.3500 C   0  0  0  0  0  0  0  0  0  0  0  0
   35.5870   32.4600   36.2600 C   0  0  0  0  0  0  0  0  0  0  0  0
   34.2850   32.4770   36.7150 C   0  0  0  0  0  0  0  0  0  0  0  0
   33.6320   33.6260   37.8640 Cl  0  0  0  0  0  0  0  0  0  0  0  0
   33.4120   31.5110   36.2300 C   0  0  0  0  0  0  0  0  0  0  0  0
   36.9990   31.5440   35.0420 H   0  0  0  0  0  0  0  0  0  0  0  0
   36.2430   33.2080   36.6430 H   0  0  0  0  0  0  0  0  0  0  0  0
   32.3720   31.4930   36.5680 H   0  0  0  0  0  0  0  0  0  0  0  0
  1  2  2  0  0  0  0
  1  6  1  0  0  0  0
  2  3  1  0  0  0  0
  3  9  1  0  0  0  0
  3  4  2  0  0  0  0
  5  4  1  0  0  0  0
  5 20  1  0  0  0  0
  6  5  2  0  0  0  0
  7  1  1  0  0  0  0
  8  2  1  0  0  0  0
  9 10  1  0  0  0  0
 10 11  1  0  0  0  0
 10 12  1  0  0  0  0
 12 13  1  0  0  0  0
 14 12  1  0  0  0  0
 14 15  1  0  0  0  0
 16 14  1  0  0  0  0
 17  9  1  0  0  0  0
 17 16  1  0  0  0  0
 18 19  1  0  0  0  0
 19 25  1  0  0  0  0
 20 19  2  0  0  0  0
 20 21  1  0  0  0  0
 21 22  2  0  0  0  0
 22 27  1  0  0  0  0
 22 23  1  0  0  0  0
 23 24  1  0  0  0  0
 25 28  1  0  0  0  0
 25 23  2  0  0  0  0
 26 21  1  0  0  0  0
M  END
>  <minimizedAffinity>
-5.3221941

$$$$

 OpenBabel03272502433D

 28 30  0  0  0  0  0  0  0  0999 V2000
   38.1680   27.5090   35.6000 C   0  0  0  0  0  0  0  0  0  0  0  0
   37.5420   27.4230   34.3580 C   0  0  0  0  0  0  0  0  0  0  0  0
   37.7030   26.2310   33.6350 C   0  0  0  0  0  0  0  0  0  0  0  0
   38.4510   25.2500   34.1880 N   0  0  0  0  0  0  0  0  0  0  0  0
   39.0430   25.3720   35.3940 C   0  0  0  0  0  0  0  0  0  0  0  0
   38.8980   26.5080   36.1020 N   0  0  0  0  0  0  0  0  0  0  0  0
   38.0250   28.4300   36.1240 H   0  0  0  0  0  0  0  0  0  0  0  0
   36.9410   28.1580   33.8680 H   0  0  0  0  0  0  0  0  0  0  0  0
   37.1610   25.9210   32.3570 N   0  0  0  0  0  0  0  0  0  0  0  0
   37.9030   25.2970   31.2700 C   0  0  0  0  0  3  0  0  0  0  0  0
   38.9820   25.1840   31.5390 H   0  0  0  0  0  0  0  0  0  0  0  0
   37.2480   23.9450   31.0580 C   0  0  0  0  0  3  0  0  0  0  0  0
   37.0040   23.5470   32.0640 H   0  0  0  0  0  0  0  0  0  0  0  0
   36.0000   24.2370   30.3680 N   0  0  0  0  0  0  0  0  0  0  0  0
   35.5100   23.3320   30.1800 H   0  0  0  0  0  0  0  0  0  0  0  0
   35.1490   25.0150   31.2290 C   0  0  0  0  0  2  0  0  0  0  0  0
   35.8250   26.1590   31.9200 C   0  0  0  0  0  2  0  0  0  0  0  0
   37.6230   23.6060   37.2950 Cl  0  0  0  0  0  0  0  0  0  0  0  0
   39.2740   23.3780   36.8010 C   0  0  0  0  0  0  0  0  0  0  0  0
   39.8350   24.2560   35.9140 C   0  0  0  0  0  0  0  0  0  0  0  0
   41.1470   24.1160   35.4910 C   0  0  0  0  0  0  0  0  0  0  0  0
   41.9240   23.0750   35.9610 C   0  0  0  0  0  0  0  0  0  0  0  0
   41.3850   22.1740   36.8570 C   0  0  0  0  0  0  0  0  0  0  0  0
   42.2330   20.8050   37.5450 Cl  0  0  0  0  0  0  0  0  0  0  0  0
   40.0660   22.3560   37.2510 C   0  0  0  0  0  0  0  0  0  0  0  0
   41.6290   24.7740   34.8030 H   0  0  0  0  0  0  0  0  0  0  0  0
   42.9380   22.9190   35.6700 H   0  0  0  0  0  0  0  0  0  0  0  0
   39.6040   21.6630   37.9580 H   0  0  0  0  0  0  0  0  0  0  0  0
  1  6  1  0  0  0  0
  1  7  1  0  0  0  0
  2  1  2  0  0  0  0
  3  4  2  0  0  0  0
  3  2  1  0  0  0  0
  4  5  1  0  0  0  0
  5 20  1  0  0  0  0
  5  6  2  0  0  0  0
  8  2  1  0  0  0  0
  9  3  1  0  0  0  0
 10 11  1  0  0  0  0
 10  9  1  0  0  0  0
 12 10  1  0  0  0  0
 12 13  1  0  0  0  0
 14 12  1  0  0  0  0
 14 16  1  0  0  0  0
 15 14  1  0  0  0  0
 16 17  1  0  0  0  0
 17  9  1  0  0  0  0
 19 25  1  0  0  0  0
 19 18  1  0  0  0  0
 20 19  2  0  0  0  0
 21 20  1  0  0  0  0
 21 22  2  0  0  0  0
 22 23  1  0  0  0  0
 23 25  2  0  0  0  0
 23 24  1  0  0  0  0
 25 28  1  0  0  0  0
 26 21  1  0  0  0  0
 27 22  1  0  0  0  0
M  END
>  <minimizedAffinity>
-5.20798826

$$$$

 OpenBabel03272502433D

 28 30  0  0  0  0  0  0  0  0999 V2000
   36.4120   29.8950   30.4160 C   0  0  0  0  0  0  0  0  0  0  0  0
   35.5720   30.6080   31.2670 C   0  0  0  0  0  0  0  0  0  0  0  0
   34.9000   29.8870   32.2660 C   0  0  0  0  0  0  0  0  0  0  0  0
   35.1110   28.5530   32.3360 N   0  0  0  0  0  0  0  0  0  0  0  0
   35.9340   27.8970   31.4900 C   0  0  0  0  0  0  0  0  0  0  0  0
   36.5870   28.5750   30.5270 N   0  0  0  0  0  0  0  0  0  0  0  0
   36.9080   30.4750   29.6670 H   0  0  0  0  0  0  0  0  0  0  0  0
   35.3620   31.6560   31.2650 H   0  0  0  0  0  0  0  0  0  0  0  0
   34.0000   30.4000   33.2400 N   0  0  0  0  0  0  0  0  0  0  0  0
   32.7240   29.7910   33.5940 C   0  0  0  0  0  3  0  0  0  0  0  0
   32.5010   28.9220   32.9290 H   0  0  0  0  0  0  0  0  0  0  0  0
   32.8740   29.3510   35.0380 C   0  0  0  0  0  3  0  0  0  0  0  0
   33.9020   28.9460   35.1430 H   0  0  0  0  0  0  0  0  0  0  0  0
   32.7860   30.5790   35.8160 N   0  0  0  0  0  0  0  0  0  0  0  0
   32.8660   30.3310   36.8290 H   0  0  0  0  0  0  0  0  0  0  0  0
   33.8990   31.4310   35.4910 C   0  0  0  0  0  2  0  0  0  0  0  0
   34.1790   31.5760   34.0270 C   0  0  0  0  0  2  0  0  0  0  0  0
   38.2170   27.0700   33.1790 Cl  0  0  0  0  0  0  0  0  0  0  0  0
   37.1280   25.9610   32.4020 C   0  0  0  0  0  0  0  0  0  0  0  0
   36.1020   26.4510   31.6410 C   0  0  0  0  0  0  0  0  0  0  0  0
   35.2090   25.6060   31.0020 C   0  0  0  0  0  0  0  0  0  0  0  0
   35.3380   24.2350   31.1220 C   0  0  0  0  0  0  0  0  0  0  0  0
   36.3630   23.7120   31.8820 C   0  0  0  0  0  0  0  0  0  0  0  0
   36.6630   22.0050   32.1340 Cl  0  0  0  0  0  0  0  0  0  0  0  0
   37.2330   24.5990   32.5040 C   0  0  0  0  0  0  0  0  0  0  0  0
   34.3950   25.9390   30.3990 H   0  0  0  0  0  0  0  0  0  0  0  0
   34.6800   23.5390   30.6530 H   0  0  0  0  0  0  0  0  0  0  0  0
   38.0570   24.2220   33.1150 H   0  0  0  0  0  0  0  0  0  0  0  0
  1  6  2  0  0  0  0
  1  2  1  0  0  0  0
  2  3  2  0  0  0  0
  3  4  1  0  0  0  0
  3  9  1  0  0  0  0
  5 20  1  0  0  0  0
  5  4  2  0  0  0  0
  6  5  1  0  0  0  0
  7  1  1  0  0  0  0
  8  2  1  0  0  0  0
  9 10  1  0  0  0  0
  9 17  1  0  0  0  0
 10 12  1  0  0  0  0
 11 10  1  0  0  0  0
 12 13  1  0  0  0  0
 12 14  1  0  0  0  0
 14 15  1  0  0  0  0
 16 14  1  0  0  0  0
 17 16  1  0  0  0  0
 19 25  1  0  0  0  0
 19 18  1  0  0  0  0
 20 19  2  0  0  0  0
 21 22  2  0  0  0  0
 21 20  1  0  0  0  0
 22 23  1  0  0  0  0
 23 24  1  0  0  0  0
 23 25  2  0  0  0  0
 25 28  1  0  0  0  0
 26 21  1  0  0  0  0
 27 22  1  0  0  0  0
M  END
>  <minimizedAffinity>
-5.10660648

$$$$

 OpenBabel03272502433D

 28 30  0  0  0  0  0  0  0  0999 V2000
   37.1420   29.1350   30.8510 C   0  0  0  0  0  0  0  0  0  0  0  0
   35.9040   29.7570   30.9930 C   0  0  0  0  0  0  0  0  0  0  0  0
   35.1510   29.4470   32.1350 C   0  0  0  0  0  0  0  0  0  0  0  0
   35.6750   28.5690   33.0200 N   0  0  0  0  0  0  0  0  0  0  0  0
   36.8790   27.9850   32.8470 C   0  0  0  0  0  0  0  0  0  0  0  0
   37.6140   28.2720   31.7560 N   0  0  0  0  0  0  0  0  0  0  0  0
   37.6890   29.3930   29.9700 H   0  0  0  0  0  0  0  0  0  0  0  0
   35.4360   30.4560   30.3330 H   0  0  0  0  0  0  0  0  0  0  0  0
   33.8710   29.9570   32.4870 N   0  0  0  0  0  0  0  0  0  0  0  0
   32.7630   29.1490   32.9810 C   0  0  0  0  0  3  0  0  0  0  0  0
   33.0210   28.0630   32.9550 H   0  0  0  0  0  0  0  0  0  0  0  0
   32.5240   29.6210   34.4040 C   0  0  0  0  0  3  0  0  0  0  0  0
   33.5230   29.7980   34.8530 H   0  0  0  0  0  0  0  0  0  0  0  0
   31.8520   30.9050   34.2660 N   0  0  0  0  0  0  0  0  0  0  0  0
   31.6460   31.2710   35.2240 H   0  0  0  0  0  0  0  0  0  0  0  0
   32.7380   31.8420   33.6280 C   0  0  0  0  0  2  0  0  0  0  0  0
   33.4500   31.3170   32.4190 C   0  0  0  0  0  2  0  0  0  0  0  0
   36.7640   25.1330   32.0690 Cl  0  0  0  0  0  0  0  0  0  0  0  0
   37.3570   25.7020   33.6010 C   0  0  0  0  0  0  0  0  0  0  0  0
   37.3660   27.0450   33.8590 C   0  0  0  0  0  0  0  0  0  0  0  0
   37.8280   27.5460   35.0650 C   0  0  0  0  0  0  0  0  0  0  0  0
   38.2950   26.6890   36.0430 C   0  0  0  0  0  0  0  0  0  0  0  0
   38.2970   25.3290   35.8120 C   0  0  0  0  0  0  0  0  0  0  0  0
   38.8530   24.1130   36.9430 Cl  0  0  0  0  0  0  0  0  0  0  0  0
   37.8240   24.8750   34.5870 C   0  0  0  0  0  0  0  0  0  0  0  0
   37.8550   28.5830   35.3130 H   0  0  0  0  0  0  0  0  0  0  0  0
   38.6610   27.0180   36.9880 H   0  0  0  0  0  0  0  0  0  0  0  0
   37.8110   23.8050   34.3670 H   0  0  0  0  0  0  0  0  0  0  0  0
  1  2  2  0  0  0  0
  1  6  1  0  0  0  0
  2  3  1  0  0  0  0
  3  9  1  0  0  0  0
  3  4  2  0  0  0  0
  5  4  1  0  0  0  0
  5 20  1  0  0  0  0
  6  5  2  0  0  0  0
  7  1  1  0  0  0  0
  8  2  1  0  0  0  0
  9 10  1  0  0  0  0
 10 12  1  0  0  0  0
 11 10  1  0  0  0  0
 12 13  1  0  0  0  0
 14 12  1  0  0  0  0
 14 15  1  0  0  0  0
 16 14  1  0  0  0  0
 17  9  1  0  0  0  0
 17 16  1  0  0  0  0
 18 19  1  0  0  0  0
 19 20  2  0  0  0  0
 19 25  1  0  0  0  0
 20 21  1  0  0  0  0
 21 26  1  0  0  0  0
 21 22  2  0  0  0  0
 22 27  1  0  0  0  0
 23 22  1  0  0  0  0
 23 24  1  0  0  0  0
 25 23  2  0  0  0  0
 28 25  1  0  0  0  0
M  END
>  <minimizedAffinity>
-5.0906558

$$$$

 OpenBabel03272502433D

 28 30  0  0  0  0  0  0  0  0999 V2000
   36.4000   29.4060   30.6760 C   0  0  0  0  0  0  0  0  0  0  0  0
   37.1250   28.2320   30.8680 C   0  0  0  0  0  0  0  0  0  0  0  0
   37.1620   27.6990   32.1650 C   0  0  0  0  0  0  0  0  0  0  0  0
   36.4960   28.3570   33.1400 N   0  0  0  0  0  0  0  0  0  0  0  0
   35.8050   29.4950   32.9160 C   0  0  0  0  0  0  0  0  0  0  0  0
   35.7580   30.0180   31.6760 N   0  0  0  0  0  0  0  0  0  0  0  0
   36.3930   29.7850   29.6770 H   0  0  0  0  0  0  0  0  0  0  0  0
   37.6710   27.6660   30.1430 H   0  0  0  0  0  0  0  0  0  0  0  0
   37.8340   26.5200   32.5920 N   0  0  0  0  0  0  0  0  0  0  0  0
   38.6450   26.4170   33.7970 C   0  0  0  0  0  3  0  0  0  0  0  0
   38.7520   27.4140   34.2900 H   0  0  0  0  0  0  0  0  0  0  0  0
   37.9120   25.4380   34.6950 C   0  0  0  0  0  3  0  0  0  0  0  0
   36.8300   25.6580   34.5900 H   0  0  0  0  0  0  0  0  0  0  0  0
   38.1700   24.1290   34.1120 N   0  0  0  0  0  0  0  0  0  0  0  0
   37.6980   23.4080   34.7050 H   0  0  0  0  0  0  0  0  0  0  0  0
   37.5760   24.0640   32.8020 C   0  0  0  0  0  2  0  0  0  0  0  0
   37.8330   25.2560   31.9320 C   0  0  0  0  0  2  0  0  0  0  0  0
   32.8790   29.0690   32.9910 Cl  0  0  0  0  0  0  0  0  0  0  0  0
   33.7580   30.0060   34.1630 C   0  0  0  0  0  0  0  0  0  0  0  0
   35.1140   30.1390   34.0330 C   0  0  0  0  0  0  0  0  0  0  0  0
   35.8570   30.8760   34.9410 C   0  0  0  0  0  0  0  0  0  0  0  0
   35.2370   31.4980   36.0080 C   0  0  0  0  0  0  0  0  0  0  0  0
   33.8710   31.3820   36.1640 C   0  0  0  0  0  0  0  0  0  0  0  0
   32.9380   32.1060   37.4570 Cl  0  0  0  0  0  0  0  0  0  0  0  0
   33.1700   30.6320   35.2280 C   0  0  0  0  0  0  0  0  0  0  0  0
   36.9140   31.0090   34.8830 H   0  0  0  0  0  0  0  0  0  0  0  0
   35.7590   32.0770   36.7360 H   0  0  0  0  0  0  0  0  0  0  0  0
   32.0870   30.5170   35.3190 H   0  0  0  0  0  0  0  0  0  0  0  0
  1  2  2  0  0  0  0
  1  6  1  0  0  0  0
  2  3  1  0  0  0  0
  3  9  1  0  0  0  0
  3  4  2  0  0  0  0
  5  4  1  0  0  0  0
  5 20  1  0  0  0  0
  6  5  2  0  0  0  0
  7  1  1  0  0  0  0
  8  2  1  0  0  0  0
  9 10  1  0  0  0  0
 10 11  1  0  0  0  0
 10 12  1  0  0  0  0
 13 12  1  0  0  0  0
 14 12  1  0  0  0  0
 14 15  1  0  0  0  0
 16 14  1  0  0  0  0
 17  9  1  0  0  0  0
 17 16  1  0  0  0  0
 18 19  1  0  0  0  0
 19 25  1  0  0  0  0
 20 19  2  0  0  0  0
 20 21  1  0  0  0  0
 21 22  2  0  0  0  0
 22 23  1  0  0  0  0
 22 27  1  0  0  0  0
 23 24  1  0  0  0  0
 25 28  1  0  0  0  0
 25 23  2  0  0  0  0
 26 21  1  0  0  0  0
M  END
>  <minimizedAffinity>
-5.04818296

$$$$

 OpenBabel03272502433D

 28 30  0  0  0  0  0  0  0  0999 V2000
   35.3720   30.6210   32.0920 C   0  0  0  0  0  0  0  0  0  0  0  0
   34.1580   30.8860   32.7210 C   0  0  0  0  0  0  0  0  0  0  0  0
   33.8240   30.1070   33.8390 C   0  0  0  0  0  0  0  0  0  0  0  0
   34.6990   29.1540   34.2310 N   0  0  0  0  0  0  0  0  0  0  0  0
   35.8670   28.9250   33.5940 C   0  0  0  0  0  0  0  0  0  0  0  0
   36.2030   29.6650   32.5200 N   0  0  0  0  0  0  0  0  0  0  0  0
   35.5950   31.2330   31.2450 H   0  0  0  0  0  0  0  0  0  0  0  0
   33.4260   31.6220   32.4630 H   0  0  0  0  0  0  0  0  0  0  0  0
   32.6470   30.1990   34.6320 N   0  0  0  0  0  0  0  0  0  0  0  0
   31.8550   29.0600   35.0760 C   0  0  0  0  0  3  0  0  0  0  0  0
   32.2390   28.1110   34.6300 H   0  0  0  0  0  0  0  0  0  0  0  0
   31.9830   29.0450   36.5880 C   0  0  0  0  0  3  0  0  0  0  0  0
   33.0370   29.3050   36.8220 H   0  0  0  0  0  0  0  0  0  0  0  0
   31.1320   30.1330   37.0490 N   0  0  0  0  0  0  0  0  0  0  0  0
   31.1690   30.1580   38.0940 H   0  0  0  0  0  0  0  0  0  0  0  0
   31.6550   31.3850   36.5690 C   0  0  0  0  0  2  0  0  0  0  0  0
   32.0440   31.3950   35.1220 C   0  0  0  0  0  2  0  0  0  0  0  0
   36.0500   26.5280   31.8710 Cl  0  0  0  0  0  0  0  0  0  0  0  0
   36.9100   26.7190   33.3690 C   0  0  0  0  0  0  0  0  0  0  0  0
   36.7530   27.8710   34.0900 C   0  0  0  0  0  0  0  0  0  0  0  0
   37.4170   28.0690   35.2900 C   0  0  0  0  0  0  0  0  0  0  0  0
   38.2610   27.0950   35.7890 C   0  0  0  0  0  0  0  0  0  0  0  0
   38.4390   25.9220   35.0840 C   0  0  0  0  0  0  0  0  0  0  0  0
   39.4690   24.5950   35.5770 Cl  0  0  0  0  0  0  0  0  0  0  0  0
   37.7520   25.7710   33.8860 C   0  0  0  0  0  0  0  0  0  0  0  0
   37.3270   28.9480   35.8880 H   0  0  0  0  0  0  0  0  0  0  0  0
   38.7960   27.1930   36.7060 H   0  0  0  0  0  0  0  0  0  0  0  0
   37.8680   24.8560   33.3000 H   0  0  0  0  0  0  0  0  0  0  0  0
  1  6  2  0  0  0  0
  1  2  1  0  0  0  0
  2  3  2  0  0  0  0
  3  4  1  0  0  0  0
  3  9  1  0  0  0  0
  5 20  1  0  0  0  0
  5  4  2  0  0  0  0
  6  5  1  0  0  0  0
  7  1  1  0  0  0  0
  8  2  1  0  0  0  0
  9 10  1  0  0  0  0
  9 17  1  0  0  0  0
 10 12  1  0  0  0  0
 11 10  1  0  0  0  0
 12 13  1  0  0  0  0
 12 14  1  0  0  0  0
 14 15  1  0  0  0  0
 16 14  1  0  0  0  0
 17 16  1  0  0  0  0
 18 19  1  0  0  0  0
 19 25  2  0  0  0  0
 19 20  1  0  0  0  0
 20 21  2  0  0  0  0
 21 22  1  0  0  0  0
 21 26  1  0  0  0  0
 22 27  1  0  0  0  0
 23 24  1  0  0  0  0
 23 22  2  0  0  0  0
 25 23  1  0  0  0  0
 28 25  1  0  0  0  0
M  END
>  <minimizedAffinity>
-4.98773956

$$$$

 OpenBabel03272502433D

 28 30  0  0  0  0  0  0  0  0999 V2000
   38.6320   22.7950   36.0940 C   0  0  0  0  0  0  0  0  0  0  0  0
   38.5640   24.1800   35.9570 C   0  0  0  0  0  0  0  0  0  0  0  0
   38.1660   24.6880   34.7110 C   0  0  0  0  0  0  0  0  0  0  0  0
   37.8760   23.8040   33.7290 N   0  0  0  0  0  0  0  0  0  0  0  0
   37.9550   22.4680   33.9000 C   0  0  0  0  0  0  0  0  0  0  0  0
   38.3340   21.9640   35.0900 N   0  0  0  0  0  0  0  0  0  0  0  0
   38.9380   22.4430   37.0550 H   0  0  0  0  0  0  0  0  0  0  0  0
   38.7790   24.9290   36.6890 H   0  0  0  0  0  0  0  0  0  0  0  0
   38.0270   26.0550   34.3440 N   0  0  0  0  0  0  0  0  0  0  0  0
   38.5170   26.6340   33.1000 C   0  0  0  0  0  3  0  0  0  0  0  0
   39.1030   25.8830   32.5160 H   0  0  0  0  0  0  0  0  0  0  0  0
   37.2770   27.0690   32.3410 C   0  0  0  0  0  3  0  0  0  0  0  0
   36.5130   26.2800   32.4990 H   0  0  0  0  0  0  0  0  0  0  0  0
   36.8290   28.2790   33.0170 N   0  0  0  0  0  0  0  0  0  0  0  0
   35.9790   28.6350   32.5220 H   0  0  0  0  0  0  0  0  0  0  0  0
   36.4380   27.9560   34.3640 C   0  0  0  0  0  2  0  0  0  0  0  0
   37.3980   27.0800   35.1090 C   0  0  0  0  0  2  0  0  0  0  0  0
   35.6330   20.6920   34.3520 Cl  0  0  0  0  0  0  0  0  0  0  0  0
   36.5640   20.7240   32.8840 C   0  0  0  0  0  0  0  0  0  0  0  0
   37.6210   21.5860   32.7800 C   0  0  0  0  0  0  0  0  0  0  0  0
   38.3930   21.6480   31.6310 C   0  0  0  0  0  0  0  0  0  0  0  0
   38.1070   20.8300   30.5550 C   0  0  0  0  0  0  0  0  0  0  0  0
   37.0480   19.9500   30.6310 C   0  0  0  0  0  0  0  0  0  0  0  0
   36.5550   18.8510   29.3590 Cl  0  0  0  0  0  0  0  0  0  0  0  0
   36.3030   19.9260   31.8030 C   0  0  0  0  0  0  0  0  0  0  0  0
   39.2260   22.3020   31.5030 H   0  0  0  0  0  0  0  0  0  0  0  0
   38.6670   20.8360   29.6470 H   0  0  0  0  0  0  0  0  0  0  0  0
   35.4560   19.2420   31.9000 H   0  0  0  0  0  0  0  0  0  0  0  0
  1  7  1  0  0  0  0
  2  1  1  0  0  0  0
  2  8  1  0  0  0  0
  3  2  2  0  0  0  0
  4  5  2  0  0  0  0
  4  3  1  0  0  0  0
  5  6  1  0  0  0  0
  6  1  2  0  0  0  0
  9  3  1  0  0  0  0
  9 17  1  0  0  0  0
 10  9  1  0  0  0  0
 11 10  1  0  0  0  0
 12 13  1  0  0  0  0
 12 14  1  0  0  0  0
 12 10  1  0  0  0  0
 14 16  1  0  0  0  0
 15 14  1  0  0  0  0
 16 17  1  0  0  0  0
 19 18  1  0  0  0  0
 20 19  1  0  0  0  0
 20  5  1  0  0  0  0
 21 20  2  0  0  0  0
 22 23  2  0  0  0  0
 22 21  1  0  0  0  0
 23 25  1  0  0  0  0
 24 23  1  0  0  0  0
 25 28  1  0  0  0  0
 25 19  2  0  0  0  0
 26 21  1  0  0  0  0
 27 22  1  0  0  0  0
M  END
>  <minimizedAffinity>
-4.97432613

$$$$

 OpenBabel03272502433D

 28 30  0  0  0  0  0  0  0  0999 V2000
   38.2290   23.5840   37.5000 C   0  0  0  0  0  0  0  0  0  0  0  0
   39.4880   22.9990   37.3870 C   0  0  0  0  0  0  0  0  0  0  0  0
   40.2100   23.2410   36.2090 C   0  0  0  0  0  0  0  0  0  0  0  0
   39.6390   24.0220   35.2650 N   0  0  0  0  0  0  0  0  0  0  0  0
   38.4140   24.5710   35.4110 C   0  0  0  0  0  0  0  0  0  0  0  0
   37.7090   24.3500   36.5360 N   0  0  0  0  0  0  0  0  0  0  0  0
   37.7070   23.3790   38.4100 H   0  0  0  0  0  0  0  0  0  0  0  0
   39.9940   22.3750   38.0930 H   0  0  0  0  0  0  0  0  0  0  0  0
   41.5040   22.7520   35.8760 N   0  0  0  0  0  0  0  0  0  0  0  0
   41.8700   22.1860   34.5850 C   0  0  0  0  0  3  0  0  0  0  0  0
   40.9750   22.0950   33.9230 H   0  0  0  0  0  0  0  0  0  0  0  0
   42.8900   23.1440   33.9990 C   0  0  0  0  0  3  0  0  0  0  0  0
   42.5450   24.1690   34.2460 H   0  0  0  0  0  0  0  0  0  0  0  0
   44.1170   22.8850   34.7390 N   0  0  0  0  0  0  0  0  0  0  0  0
   44.8660   23.5120   34.3620 H   0  0  0  0  0  0  0  0  0  0  0  0
   43.9230   23.2320   36.1220 C   0  0  0  0  0  2  0  0  0  0  0  0
   42.6480   22.7290   36.7270 C   0  0  0  0  0  2  0  0  0  0  0  0
   38.5620   27.4860   35.8900 Cl  0  0  0  0  0  0  0  0  0  0  0  0
   37.8950   26.7670   34.4550 C   0  0  0  0  0  0  0  0  0  0  0  0
   37.8760   25.4050   34.3350 C   0  0  0  0  0  0  0  0  0  0  0  0
   37.3530   24.7850   33.2100 C   0  0  0  0  0  0  0  0  0  0  0  0
   36.8360   25.5410   32.1750 C   0  0  0  0  0  0  0  0  0  0  0  0
   36.8410   26.9170   32.2680 C   0  0  0  0  0  0  0  0  0  0  0  0
   36.2260   28.0140   31.0500 Cl  0  0  0  0  0  0  0  0  0  0  0  0
   37.3750   27.4910   33.4150 C   0  0  0  0  0  0  0  0  0  0  0  0
   37.3160   23.7290   33.0710 H   0  0  0  0  0  0  0  0  0  0  0  0
   36.4220   25.1180   31.2880 H   0  0  0  0  0  0  0  0  0  0  0  0
   37.3980   28.5780   33.5250 H   0  0  0  0  0  0  0  0  0  0  0  0
  1  7  1  0  0  0  0
  2  1  1  0  0  0  0
  2  8  1  0  0  0  0
  3  2  2  0  0  0  0
  4  5  2  0  0  0  0
  4  3  1  0  0  0  0
  5  6  1  0  0  0  0
  6  1  2  0  0  0  0
  9  3  1  0  0  0  0
  9 17  1  0  0  0  0
 10  9  1  0  0  0  0
 11 10  1  0  0  0  0
 12 13  1  0  0  0  0
 12 10  1  0  0  0  0
 12 14  1  0  0  0  0
 14 16  1  0  0  0  0
 15 14  1  0  0  0  0
 16 17  1  0  0  0  0
 19 18  1  0  0  0  0
 20 19  1  0  0  0  0
 20  5  1  0  0  0  0
 21 20  2  0  0  0  0
 22 23  2  0  0  0  0
 22 21  1  0  0  0  0
 23 25  1  0  0  0  0
 24 23  1  0  0  0  0
 25 28  1  0  0  0  0
 25 19  2  0  0  0  0
 26 21  1  0  0  0  0
 27 22  1  0  0  0  0
M  END
>  <minimizedAffinity>
-4.97070217

$$$$

 OpenBabel03272502433D

 28 30  0  0  0  0  0  0  0  0999 V2000
   38.8700   26.8530   31.0400 C   0  0  0  0  0  0  0  0  0  0  0  0
   37.9610   27.8990   30.9080 C   0  0  0  0  0  0  0  0  0  0  0  0
   37.0880   28.1370   31.9800 C   0  0  0  0  0  0  0  0  0  0  0  0
   37.1860   27.3370   33.0660 N   0  0  0  0  0  0  0  0  0  0  0  0
   38.0800   26.3310   33.1560 C   0  0  0  0  0  0  0  0  0  0  0  0
   38.9260   26.0910   32.1370 N   0  0  0  0  0  0  0  0  0  0  0  0
   39.5200   26.7000   30.2050 H   0  0  0  0  0  0  0  0  0  0  0  0
   37.8330   28.5650   30.0810 H   0  0  0  0  0  0  0  0  0  0  0  0
   36.0850   29.1420   32.0670 N   0  0  0  0  0  0  0  0  0  0  0  0
   34.7280   28.9200   32.5490 C   0  0  0  0  0  3  0  0  0  0  0  0
   34.5490   27.8360   32.7480 H   0  0  0  0  0  0  0  0  0  0  0  0
   34.6130   29.7370   33.8220 C   0  0  0  0  0  3  0  0  0  0  0  0
   35.5790   29.6280   34.3590 H   0  0  0  0  0  0  0  0  0  0  0  0
   34.4940   31.1170   33.3740 N   0  0  0  0  0  0  0  0  0  0  0  0
   34.3950   31.7280   34.2180 H   0  0  0  0  0  0  0  0  0  0  0  0
   35.7060   31.5070   32.7010 C   0  0  0  0  0  2  0  0  0  0  0  0
   36.2240   30.5140   31.7070 C   0  0  0  0  0  2  0  0  0  0  0  0
   38.1370   27.8600   35.6880 Cl  0  0  0  0  0  0  0  0  0  0  0  0
   38.1420   26.1240   35.5980 C   0  0  0  0  0  0  0  0  0  0  0  0
   38.1150   25.5160   34.3720 C   0  0  0  0  0  0  0  0  0  0  0  0
   38.1190   24.1360   34.2500 C   0  0  0  0  0  0  0  0  0  0  0  0
   38.1510   23.3360   35.3760 C   0  0  0  0  0  0  0  0  0  0  0  0
   38.1800   23.9200   36.6250 C   0  0  0  0  0  0  0  0  0  0  0  0
   38.2230   23.0520   38.1450 Cl  0  0  0  0  0  0  0  0  0  0  0  0
   38.1740   25.3080   36.6970 C   0  0  0  0  0  0  0  0  0  0  0  0
   38.0990   23.6170   33.3180 H   0  0  0  0  0  0  0  0  0  0  0  0
   38.1560   22.2710   35.3410 H   0  0  0  0  0  0  0  0  0  0  0  0
   38.1960   25.8070   37.6690 H   0  0  0  0  0  0  0  0  0  0  0  0
  1  6  1  0  0  0  0
  2  1  2  0  0  0  0
  2  3  1  0  0  0  0
  3  9  1  0  0  0  0
  3  4  2  0  0  0  0
  4  5  1  0  0  0  0
  5 20  1  0  0  0  0
  6  5  2  0  0  0  0
  7  1  1  0  0  0  0
  8  2  1  0  0  0  0
  9 10  1  0  0  0  0
 10 11  1  0  0  0  0
 10 12  1  0  0  0  0
 12 13  1  0  0  0  0
 14 12  1  0  0  0  0
 14 15  1  0  0  0  0
 16 14  1  0  0  0  0
 17  9  1  0  0  0  0
 17 16  1  0  0  0  0
 19 18  1  0  0  0  0
 19 25  1  0  0  0  0
 20 19  2  0  0  0  0
 21 20  1  0  0  0  0
 21 22  2  0  0  0  0
 22 23  1  0  0  0  0
 23 25  2  0  0  0  0
 23 24  1  0  0  0  0
 25 28  1  0  0  0  0
 26 21  1  0  0  0  0
 27 22  1  0  0  0  0
M  END
>  <minimizedAffinity>
-4.9548564

$$$$
