
 OpenBabel03272502533D

 27 29  0  0  0  0  0  0  0  0999 V2000
   38.0000   26.9170   33.8120 C   0  0  0  0  0  0  0  0  0  0  0  0
   39.1020   26.9750   32.9950 C   0  0  0  0  0  0  0  0  0  0  0  0
   40.2310   26.2120   33.2290 C   0  0  0  0  0  0  0  0  0  0  0  0
   40.1780   25.3860   34.3370 C   0  0  0  0  0  0  0  0  0  0  0  0
   39.0810   25.3010   35.1830 C   0  0  0  0  0  0  0  0  0  0  0  0
   38.0270   26.0930   34.8640 N   0  0  0  0  0  0  0  0  0  0  0  0
   39.1570   27.6210   32.1200 H   0  0  0  0  0  0  0  0  0  0  0  0
   41.1030   26.2480   32.5970 H   0  0  0  0  0  0  0  0  0  0  0  0
   41.0530   24.7790   34.5380 H   0  0  0  0  0  0  0  0  0  0  0  0
   39.0810   24.4310   36.3140 N   0  0  0  0  0  0  0  0  0  0  0  0
   40.1260   23.4260   36.3140 C   0  0  0  0  0  3  0  0  0  0  0  0
   39.9880   22.7340   35.4350 H   0  0  0  0  0  0  0  0  0  0  0  0
   40.1050   22.5760   37.5470 C   0  0  0  0  0  3  0  0  0  0  0  0
   40.8660   22.9650   38.2560 H   0  0  0  0  0  0  0  0  0  0  0  0
   38.8320   22.5910   38.2470 N   0  0  0  0  0  0  0  0  0  0  0  0
   38.0720   22.1430   37.6910 H   0  0  0  0  0  0  0  0  0  0  0  0
   38.4200   23.9360   38.5820 C   0  0  0  0  0  2  0  0  0  0  0  0
   38.0520   24.6490   37.3140 C   0  0  0  0  0  2  0  0  0  0  0  0
   35.1740   28.4310   32.0510 C   0  0  0  0  0  0  0  0  0  0  0  0
   34.6140   29.2730   33.0100 C   0  0  0  0  0  0  0  0  0  0  0  0
   35.2230   29.3110   34.2670 C   0  0  0  0  0  0  0  0  0  0  0  0
   36.3200   28.5300   34.4860 N   0  0  0  0  0  0  0  0  0  0  0  0
   36.8300   27.7330   33.5380 C   0  0  0  0  0  0  0  0  0  0  0  0
   36.2540   27.6860   32.3240 N   0  0  0  0  0  0  0  0  0  0  0  0
   34.7660   28.3390   31.0460 H   0  0  0  0  0  0  0  0  0  0  0  0
   33.7440   29.8560   32.7510 H   0  0  0  0  0  0  0  0  0  0  0  0
   34.8070   29.9560   35.0300 H   0  0  0  0  0  0  0  0  0  0  0  0
  1  6  1  0  0  0  0
  2  3  1  0  0  0  0
  2  1  2  0  0  0  0
  3  4  2  0  0  0  0
  4  9  1  0  0  0  0
  4  5  1  0  0  0  0
  5 10  1  0  0  0  0
  6  5  2  0  0  0  0
  7  2  1  0  0  0  0
  8  3  1  0  0  0  0
 10 18  1  0  0  0  0
 11 10  1  0  0  0  0
 11 13  1  0  0  0  0
 12 11  1  0  0  0  0
 13 15  1  0  0  0  0
 13 14  1  0  0  0  0
 15 17  1  0  0  0  0
 16 15  1  0  0  0  0
 18 17  1  0  0  0  0
 19 24  2  0  0  0  0
 19 20  1  0  0  0  0
 20 21  2  0  0  0  0
 21 22  1  0  0  0  0
 21 27  1  0  0  0  0
 23  1  1  0  0  0  0
 23 22  2  0  0  0  0
 24 23  1  0  0  0  0
 25 19  1  0  0  0  0
 26 20  1  0  0  0  0
M  END
>  <minimizedAffinity>
-5.06253672

$$$$

 OpenBabel03272502533D

 27 29  0  0  0  0  0  0  0  0999 V2000
   38.0130   26.9260   33.8400 C   0  0  0  0  0  0  0  0  0  0  0  0
   39.1230   26.9970   33.0360 C   0  0  0  0  0  0  0  0  0  0  0  0
   40.2560   26.2430   33.2790 C   0  0  0  0  0  0  0  0  0  0  0  0
   40.1980   25.4120   34.3840 C   0  0  0  0  0  0  0  0  0  0  0  0
   39.0930   25.3150   35.2180 C   0  0  0  0  0  0  0  0  0  0  0  0
   38.0360   26.0990   34.8890 N   0  0  0  0  0  0  0  0  0  0  0  0
   39.1830   27.6460   32.1630 H   0  0  0  0  0  0  0  0  0  0  0  0
   41.1350   26.2890   32.6570 H   0  0  0  0  0  0  0  0  0  0  0  0
   41.0760   24.8120   34.5930 H   0  0  0  0  0  0  0  0  0  0  0  0
   39.0870   24.4410   36.3450 N   0  0  0  0  0  0  0  0  0  0  0  0
   40.1420   23.4460   36.3540 C   0  0  0  0  0  3  0  0  0  0  0  0
   40.0190   22.7550   35.4710 H   0  0  0  0  0  0  0  0  0  0  0  0
   40.1140   22.5910   37.5830 C   0  0  0  0  0  3  0  0  0  0  0  0
   40.8630   22.9840   38.3020 H   0  0  0  0  0  0  0  0  0  0  0  0
   38.8330   22.5930   38.2690 N   0  0  0  0  0  0  0  0  0  0  0  0
   38.0830   22.1400   37.7040 H   0  0  0  0  0  0  0  0  0  0  0  0
   38.4060   23.9330   38.6050 C   0  0  0  0  0  2  0  0  0  0  0  0
   38.0450   24.6470   37.3350 C   0  0  0  0  0  2  0  0  0  0  0  0
   35.2300   29.2580   34.2790 C   0  0  0  0  0  0  0  0  0  0  0  0
   34.6150   29.2630   33.0270 C   0  0  0  0  0  0  0  0  0  0  0  0
   35.1730   28.4530   32.0350 C   0  0  0  0  0  0  0  0  0  0  0  0
   36.2770   27.7110   32.3410 N   0  0  0  0  0  0  0  0  0  0  0  0
   36.8390   27.7330   33.5560 C   0  0  0  0  0  0  0  0  0  0  0  0
   36.3120   28.5070   34.5210 N   0  0  0  0  0  0  0  0  0  0  0  0
   34.8630   29.8580   35.1110 H   0  0  0  0  0  0  0  0  0  0  0  0
   33.7460   29.8820   32.8730 H   0  0  0  0  0  0  0  0  0  0  0  0
   34.7160   28.4390   31.0550 H   0  0  0  0  0  0  0  0  0  0  0  0
  1  6  1  0  0  0  0
  2  3  1  0  0  0  0
  2  1  2  0  0  0  0
  3  4  2  0  0  0  0
  4  9  1  0  0  0  0
  4  5  1  0  0  0  0
  5 10  1  0  0  0  0
  6  5  2  0  0  0  0
  7  2  1  0  0  0  0
  8  3  1  0  0  0  0
 10 11  1  0  0  0  0
 10 18  1  0  0  0  0
 11 13  1  0  0  0  0
 12 11  1  0  0  0  0
 13 15  1  0  0  0  0
 13 14  1  0  0  0  0
 15 17  1  0  0  0  0
 16 15  1  0  0  0  0
 18 17  1  0  0  0  0
 19 24  1  0  0  0  0
 19 25  1  0  0  0  0
 20 19  2  0  0  0  0
 21 22  2  0  0  0  0
 21 20  1  0  0  0  0
 22 23  1  0  0  0  0
 23  1  1  0  0  0  0
 23 24  2  0  0  0  0
 26 20  1  0  0  0  0
 27 21  1  0  0  0  0
M  END
>  <minimizedAffinity>
-5.0612402

$$$$

 OpenBabel03272502533D

 27 29  0  0  0  0  0  0  0  0999 V2000
   38.4380   24.6630   36.0460 C   0  0  0  0  0  0  0  0  0  0  0  0
   37.9290   24.5590   37.3160 C   0  0  0  0  0  0  0  0  0  0  0  0
   38.4380   23.6670   38.2410 C   0  0  0  0  0  0  0  0  0  0  0  0
   39.4940   22.8870   37.8050 C   0  0  0  0  0  0  0  0  0  0  0  0
   40.0340   22.9650   36.5290 C   0  0  0  0  0  0  0  0  0  0  0  0
   39.4600   23.8730   35.7010 N   0  0  0  0  0  0  0  0  0  0  0  0
   37.0980   25.1670   37.6730 H   0  0  0  0  0  0  0  0  0  0  0  0
   38.0480   23.5740   39.2420 H   0  0  0  0  0  0  0  0  0  0  0  0
   39.9080   22.1810   38.5150 H   0  0  0  0  0  0  0  0  0  0  0  0
   41.1240   22.1360   36.1320 N   0  0  0  0  0  0  0  0  0  0  0  0
   41.8250   21.4810   37.2190 C   0  0  0  0  0  3  0  0  0  0  0  0
   42.2990   22.2580   37.8870 H   0  0  0  0  0  0  0  0  0  0  0  0
   42.9260   20.5880   36.7380 C   0  0  0  0  0  3  0  0  0  0  0  0
   42.5500   19.5430   36.7240 H   0  0  0  0  0  0  0  0  0  0  0  0
   43.3780   20.8900   35.3900 N   0  0  0  0  0  0  0  0  0  0  0  0
   43.8460   21.8200   35.3320 H   0  0  0  0  0  0  0  0  0  0  0  0
   42.2890   20.8650   34.4410 C   0  0  0  0  0  2  0  0  0  0  0  0
   41.4000   22.0450   34.7090 C   0  0  0  0  0  2  0  0  0  0  0  0
   37.1740   26.1000   32.9290 C   0  0  0  0  0  0  0  0  0  0  0  0
   36.8220   27.3990   33.2950 C   0  0  0  0  0  0  0  0  0  0  0  0
   37.0280   27.7690   34.6260 C   0  0  0  0  0  0  0  0  0  0  0  0
   37.5540   26.8500   35.4870 N   0  0  0  0  0  0  0  0  0  0  0  0
   37.8800   25.6110   35.0980 C   0  0  0  0  0  0  0  0  0  0  0  0
   37.6880   25.2400   33.8190 N   0  0  0  0  0  0  0  0  0  0  0  0
   37.0490   25.7260   31.9140 H   0  0  0  0  0  0  0  0  0  0  0  0
   36.4120   28.0600   32.5490 H   0  0  0  0  0  0  0  0  0  0  0  0
   36.7630   28.7710   34.9370 H   0  0  0  0  0  0  0  0  0  0  0  0
  1  2  1  0  0  0  0
  2  7  1  0  0  0  0
  2  3  2  0  0  0  0
  3  8  1  0  0  0  0
  4  3  1  0  0  0  0
  4  9  1  0  0  0  0
  5  4  2  0  0  0  0
  6  1  2  0  0  0  0
  6  5  1  0  0  0  0
 10  5  1  0  0  0  0
 10 11  1  0  0  0  0
 11 12  1  0  0  0  0
 13 11  1  0  0  0  0
 14 13  1  0  0  0  0
 15 13  1  0  0  0  0
 16 15  1  0  0  0  0
 17 18  1  0  0  0  0
 17 15  1  0  0  0  0
 18 10  1  0  0  0  0
 19 20  2  0  0  0  0
 19 24  1  0  0  0  0
 20 21  1  0  0  0  0
 21 27  1  0  0  0  0
 21 22  2  0  0  0  0
 23 22  1  0  0  0  0
 23  1  1  0  0  0  0
 24 23  2  0  0  0  0
 25 19  1  0  0  0  0
 26 20  1  0  0  0  0
M  END
>  <minimizedAffinity>
-4.95463133

$$$$

 OpenBabel03272502533D

 27 29  0  0  0  0  0  0  0  0999 V2000
   35.5660   29.7740   34.1130 C   0  0  0  0  0  0  0  0  0  0  0  0
   35.6590   30.2520   32.8290 C   0  0  0  0  0  0  0  0  0  0  0  0
   36.2930   29.5430   31.8260 C   0  0  0  0  0  0  0  0  0  0  0  0
   36.8260   28.3220   32.1980 C   0  0  0  0  0  0  0  0  0  0  0  0
   36.7510   27.8090   33.4850 C   0  0  0  0  0  0  0  0  0  0  0  0
   36.1070   28.5840   34.3930 N   0  0  0  0  0  0  0  0  0  0  0  0
   35.2430   31.2110   32.5220 H   0  0  0  0  0  0  0  0  0  0  0  0
   36.3740   29.9060   30.8140 H   0  0  0  0  0  0  0  0  0  0  0  0
   37.3280   27.7510   31.4260 H   0  0  0  0  0  0  0  0  0  0  0  0
   37.3190   26.5420   33.8150 N   0  0  0  0  0  0  0  0  0  0  0  0
   37.6600   25.7090   32.6780 C   0  0  0  0  0  3  0  0  0  0  0  0
   36.7240   25.4490   32.1040 H   0  0  0  0  0  0  0  0  0  0  0  0
   38.2960   24.4160   33.0840 C   0  0  0  0  0  3  0  0  0  0  0  0
   39.3970   24.5190   32.9820 H   0  0  0  0  0  0  0  0  0  0  0  0
   38.0350   24.0420   34.4640 N   0  0  0  0  0  0  0  0  0  0  0  0
   37.0290   23.8210   34.6280 H   0  0  0  0  0  0  0  0  0  0  0  0
   38.4300   25.0840   35.3850 C   0  0  0  0  0  2  0  0  0  0  0  0
   37.4880   26.2410   35.2250 C   0  0  0  0  0  2  0  0  0  0  0  0
   32.9290   31.0980   36.2750 C   0  0  0  0  0  0  0  0  0  0  0  0
   33.6080   31.9980   37.0940 C   0  0  0  0  0  0  0  0  0  0  0  0
   34.9830   32.1410   36.8900 C   0  0  0  0  0  0  0  0  0  0  0  0
   35.5790   31.3990   35.9120 N   0  0  0  0  0  0  0  0  0  0  0  0
   34.8920   30.5440   35.1440 C   0  0  0  0  0  0  0  0  0  0  0  0
   33.5680   30.3960   35.3290 N   0  0  0  0  0  0  0  0  0  0  0  0
   31.8570   30.9230   36.3630 H   0  0  0  0  0  0  0  0  0  0  0  0
   33.0560   32.5430   37.8430 H   0  0  0  0  0  0  0  0  0  0  0  0
   35.5340   32.8330   37.5130 H   0  0  0  0  0  0  0  0  0  0  0  0
  1  6  1  0  0  0  0
  1 23  1  0  0  0  0
  2  1  2  0  0  0  0
  3  4  2  0  0  0  0
  3  2  1  0  0  0  0
  4  5  1  0  0  0  0
  5 10  1  0  0  0  0
  5  6  2  0  0  0  0
  7  2  1  0  0  0  0
  8  3  1  0  0  0  0
  9  4  1  0  0  0  0
 10 18  1  0  0  0  0
 11 13  1  0  0  0  0
 11 10  1  0  0  0  0
 12 11  1  0  0  0  0
 13 15  1  0  0  0  0
 14 13  1  0  0  0  0
 15 16  1  0  0  0  0
 15 17  1  0  0  0  0
 18 17  1  0  0  0  0
 19 25  1  0  0  0  0
 19 20  1  0  0  0  0
 20 26  1  0  0  0  0
 21 20  2  0  0  0  0
 21 27  1  0  0  0  0
 22 21  1  0  0  0  0
 23 24  1  0  0  0  0
 23 22  2  0  0  0  0
 24 19  2  0  0  0  0
M  END
>  <minimizedAffinity>
-4.8927474

$$$$

 OpenBabel03272502533D

 27 29  0  0  0  0  0  0  0  0999 V2000
   39.3020   26.7700   33.5860 C   0  0  0  0  0  0  0  0  0  0  0  0
   38.0750   27.3850   33.5990 C   0  0  0  0  0  0  0  0  0  0  0  0
   37.0900   27.0400   34.5060 C   0  0  0  0  0  0  0  0  0  0  0  0
   37.4210   26.0380   35.3990 C   0  0  0  0  0  0  0  0  0  0  0  0
   38.6510   25.3950   35.4150 C   0  0  0  0  0  0  0  0  0  0  0  0
   39.5450   25.8090   34.4830 N   0  0  0  0  0  0  0  0  0  0  0  0
   37.8010   28.1770   32.9020 H   0  0  0  0  0  0  0  0  0  0  0  0
   36.1220   27.5140   34.5280 H   0  0  0  0  0  0  0  0  0  0  0  0
   36.6630   25.7520   36.1190 H   0  0  0  0  0  0  0  0  0  0  0  0
   38.9400   24.3660   36.3590 N   0  0  0  0  0  0  0  0  0  0  0  0
   38.0210   24.2850   37.4780 C   0  0  0  0  0  3  0  0  0  0  0  0
   38.0760   25.2360   38.0830 H   0  0  0  0  0  0  0  0  0  0  0  0
   38.3460   23.1570   38.4080 C   0  0  0  0  0  3  0  0  0  0  0  0
   37.6840   22.2990   38.1650 H   0  0  0  0  0  0  0  0  0  0  0  0
   39.7130   22.6780   38.2930 N   0  0  0  0  0  0  0  0  0  0  0  0
   40.4070   23.3910   38.6060 H   0  0  0  0  0  0  0  0  0  0  0  0
   40.0330   22.2920   36.9370 C   0  0  0  0  0  2  0  0  0  0  0  0
   40.0990   23.5330   36.0940 C   0  0  0  0  0  2  0  0  0  0  0  0
   40.9430   27.4980   30.3990 C   0  0  0  0  0  0  0  0  0  0  0  0
   42.2260   27.8870   30.7810 C   0  0  0  0  0  0  0  0  0  0  0  0
   42.5150   27.8930   32.1480 C   0  0  0  0  0  0  0  0  0  0  0  0
   41.5370   27.5240   33.0250 N   0  0  0  0  0  0  0  0  0  0  0  0
   40.3150   27.1570   32.6190 C   0  0  0  0  0  0  0  0  0  0  0  0
   40.0230   27.1460   31.3070 N   0  0  0  0  0  0  0  0  0  0  0  0
   40.6310   27.4630   29.3560 H   0  0  0  0  0  0  0  0  0  0  0  0
   42.9380   28.1640   30.0200 H   0  0  0  0  0  0  0  0  0  0  0  0
   43.5040   28.1910   32.4710 H   0  0  0  0  0  0  0  0  0  0  0  0
  1  2  2  0  0  0  0
  1  6  1  0  0  0  0
  2  3  1  0  0  0  0
  3  8  1  0  0  0  0
  3  4  2  0  0  0  0
  4  5  1  0  0  0  0
  4  9  1  0  0  0  0
  5 10  1  0  0  0  0
  6  5  2  0  0  0  0
  7  2  1  0  0  0  0
 10 11  1  0  0  0  0
 11 12  1  0  0  0  0
 11 13  1  0  0  0  0
 14 13  1  0  0  0  0
 15 13  1  0  0  0  0
 15 16  1  0  0  0  0
 17 15  1  0  0  0  0
 18 10  1  0  0  0  0
 18 17  1  0  0  0  0
 19 20  2  0  0  0  0
 19 24  1  0  0  0  0
 20 21  1  0  0  0  0
 21 27  1  0  0  0  0
 21 22  2  0  0  0  0
 23 22  1  0  0  0  0
 23  1  1  0  0  0  0
 24 23  2  0  0  0  0
 25 19  1  0  0  0  0
 26 20  1  0  0  0  0
M  END
>  <minimizedAffinity>
-4.86826754

$$$$

 OpenBabel03272502533D

 27 29  0  0  0  0  0  0  0  0999 V2000
   38.1170   24.0460   34.5540 C   0  0  0  0  0  0  0  0  0  0  0  0
   38.2160   23.0250   33.6410 C   0  0  0  0  0  0  0  0  0  0  0  0
   37.9350   23.2080   32.3010 C   0  0  0  0  0  0  0  0  0  0  0  0
   37.5490   24.4860   31.9370 C   0  0  0  0  0  0  0  0  0  0  0  0
   37.4390   25.5410   32.8320 C   0  0  0  0  0  0  0  0  0  0  0  0
   37.7370   25.2530   34.1230 N   0  0  0  0  0  0  0  0  0  0  0  0
   38.5190   22.0140   33.9130 H   0  0  0  0  0  0  0  0  0  0  0  0
   38.0080   22.4160   31.5730 H   0  0  0  0  0  0  0  0  0  0  0  0
   37.3240   24.6510   30.8900 H   0  0  0  0  0  0  0  0  0  0  0  0
   37.0350   26.8400   32.4030 N   0  0  0  0  0  0  0  0  0  0  0  0
   37.0860   27.0550   30.9700 C   0  0  0  0  0  3  0  0  0  0  0  0
   38.1510   26.9650   30.6100 H   0  0  0  0  0  0  0  0  0  0  0  0
   36.6050   28.4180   30.5760 C   0  0  0  0  0  3  0  0  0  0  0  0
   35.5490   28.3360   30.2440 H   0  0  0  0  0  0  0  0  0  0  0  0
   36.6300   29.3840   31.6620 N   0  0  0  0  0  0  0  0  0  0  0  0
   37.6020   29.6040   31.9700 H   0  0  0  0  0  0  0  0  0  0  0  0
   35.8810   28.9210   32.8080 C   0  0  0  0  0  2  0  0  0  0  0  0
   36.6280   27.7780   33.4330 C   0  0  0  0  0  2  0  0  0  0  0  0
   39.7440   22.8010   37.5840 C   0  0  0  0  0  0  0  0  0  0  0  0
   39.0010   23.3840   38.6090 C   0  0  0  0  0  0  0  0  0  0  0  0
   37.9350   24.2080   38.2410 C   0  0  0  0  0  0  0  0  0  0  0  0
   37.6820   24.3970   36.9130 N   0  0  0  0  0  0  0  0  0  0  0  0
   38.4200   23.8190   35.9560 C   0  0  0  0  0  0  0  0  0  0  0  0
   39.4490   23.0230   36.2960 N   0  0  0  0  0  0  0  0  0  0  0  0
   40.5910   22.1440   37.7780 H   0  0  0  0  0  0  0  0  0  0  0  0
   39.2710   23.1800   39.6330 H   0  0  0  0  0  0  0  0  0  0  0  0
   37.3420   24.6730   39.0170 H   0  0  0  0  0  0  0  0  0  0  0  0
  1 23  1  0  0  0  0
  2  7  1  0  0  0  0
  2  1  2  0  0  0  0
  3  2  1  0  0  0  0
  4  3  2  0  0  0  0
  4  5  1  0  0  0  0
  5  6  2  0  0  0  0
  6  1  1  0  0  0  0
  8  3  1  0  0  0  0
  9  4  1  0  0  0  0
 10  5  1  0  0  0  0
 10 18  1  0  0  0  0
 11 10  1  0  0  0  0
 12 11  1  0  0  0  0
 13 11  1  0  0  0  0
 13 15  1  0  0  0  0
 14 13  1  0  0  0  0
 15 16  1  0  0  0  0
 15 17  1  0  0  0  0
 17 18  1  0  0  0  0
 19 25  1  0  0  0  0
 19 20  1  0  0  0  0
 20 26  1  0  0  0  0
 21 20  2  0  0  0  0
 21 27  1  0  0  0  0
 22 21  1  0  0  0  0
 23 24  1  0  0  0  0
 23 22  2  0  0  0  0
 24 19  2  0  0  0  0
M  END
>  <minimizedAffinity>
-4.86007547

$$$$

 OpenBabel03272502533D

 27 29  0  0  0  0  0  0  0  0999 V2000
   40.0760   24.7480   34.8540 C   0  0  0  0  0  0  0  0  0  0  0  0
   40.6360   26.0010   34.8880 C   0  0  0  0  0  0  0  0  0  0  0  0
   40.1390   27.0480   34.1350 C   0  0  0  0  0  0  0  0  0  0  0  0
   39.0400   26.7540   33.3480 C   0  0  0  0  0  0  0  0  0  0  0  0
   38.4480   25.5000   33.2900 C   0  0  0  0  0  0  0  0  0  0  0  0
   39.0150   24.5440   34.0670 N   0  0  0  0  0  0  0  0  0  0  0  0
   41.5010   26.2470   35.5030 H   0  0  0  0  0  0  0  0  0  0  0  0
   40.5690   28.0370   34.1510 H   0  0  0  0  0  0  0  0  0  0  0  0
   38.6350   27.5620   32.7500 H   0  0  0  0  0  0  0  0  0  0  0  0
   37.3150   25.2520   32.4600 N   0  0  0  0  0  0  0  0  0  0  0  0
   36.6420   26.4390   31.9700 C   0  0  0  0  0  3  0  0  0  0  0  0
   36.2220   27.0220   32.8390 H   0  0  0  0  0  0  0  0  0  0  0  0
   35.4920   26.1150   31.0660 C   0  0  0  0  0  3  0  0  0  0  0  0
   35.8330   26.2160   30.0140 H   0  0  0  0  0  0  0  0  0  0  0  0
   34.9920   24.7590   31.2180 N   0  0  0  0  0  0  0  0  0  0  0  0
   34.5520   24.6040   32.1510 H   0  0  0  0  0  0  0  0  0  0  0  0
   36.0380   23.7780   31.0370 C   0  0  0  0  0  2  0  0  0  0  0  0
   36.9750   23.8630   32.2060 C   0  0  0  0  0  2  0  0  0  0  0  0
   42.2960   22.0840   36.0150 C   0  0  0  0  0  0  0  0  0  0  0  0
   41.6680   21.6250   37.1720 C   0  0  0  0  0  0  0  0  0  0  0  0
   40.4720   22.2450   37.5420 C   0  0  0  0  0  0  0  0  0  0  0  0
   39.9900   23.2550   36.7620 N   0  0  0  0  0  0  0  0  0  0  0  0
   40.6230   23.6690   35.6570 C   0  0  0  0  0  0  0  0  0  0  0  0
   41.7750   23.0810   35.2880 N   0  0  0  0  0  0  0  0  0  0  0  0
   43.2310   21.6590   35.6510 H   0  0  0  0  0  0  0  0  0  0  0  0
   42.1200   20.8200   37.7290 H   0  0  0  0  0  0  0  0  0  0  0  0
   39.9640   21.9070   38.4360 H   0  0  0  0  0  0  0  0  0  0  0  0
  1  2  1  0  0  0  0
  1 23  1  0  0  0  0
  2  7  1  0  0  0  0
  3  8  1  0  0  0  0
  3  2  2  0  0  0  0
  4  3  1  0  0  0  0
  5  4  2  0  0  0  0
  5  6  1  0  0  0  0
  6  1  2  0  0  0  0
  9  4  1  0  0  0  0
 10  5  1  0  0  0  0
 11 10  1  0  0  0  0
 11 12  1  0  0  0  0
 13 15  1  0  0  0  0
 13 11  1  0  0  0  0
 14 13  1  0  0  0  0
 15 16  1  0  0  0  0
 17 15  1  0  0  0  0
 17 18  1  0  0  0  0
 18 10  1  0  0  0  0
 19 20  1  0  0  0  0
 20 21  2  0  0  0  0
 20 26  1  0  0  0  0
 21 27  1  0  0  0  0
 22 21  1  0  0  0  0
 23 22  2  0  0  0  0
 24 23  1  0  0  0  0
 24 19  2  0  0  0  0
 25 19  1  0  0  0  0
M  END
>  <minimizedAffinity>
-4.83624935

$$$$

 OpenBabel03272502533D

 27 29  0  0  0  0  0  0  0  0999 V2000
   37.5030   26.4370   34.1240 C   0  0  0  0  0  0  0  0  0  0  0  0
   36.6640   27.3750   34.6740 C   0  0  0  0  0  0  0  0  0  0  0  0
   36.2280   28.4760   33.9620 C   0  0  0  0  0  0  0  0  0  0  0  0
   36.6890   28.5720   32.6610 C   0  0  0  0  0  0  0  0  0  0  0  0
   37.5370   27.6430   32.0740 C   0  0  0  0  0  0  0  0  0  0  0  0
   37.9050   26.6010   32.8600 N   0  0  0  0  0  0  0  0  0  0  0  0
   36.2920   27.3120   35.6960 H   0  0  0  0  0  0  0  0  0  0  0  0
   35.5690   29.2210   34.3800 H   0  0  0  0  0  0  0  0  0  0  0  0
   36.3580   29.4290   32.0860 H   0  0  0  0  0  0  0  0  0  0  0  0
   37.9830   27.7920   30.7280 N   0  0  0  0  0  0  0  0  0  0  0  0
   37.2400   28.7550   29.9380 C   0  0  0  0  0  3  0  0  0  0  0  0
   36.1680   28.4160   29.8370 H   0  0  0  0  0  0  0  0  0  0  0  0
   37.7840   28.9020   28.5510 C   0  0  0  0  0  3  0  0  0  0  0  0
   38.4340   29.8020   28.5220 H   0  0  0  0  0  0  0  0  0  0  0  0
   38.6000   27.7800   28.1190 N   0  0  0  0  0  0  0  0  0  0  0  0
   38.0420   26.9050   28.0150 H   0  0  0  0  0  0  0  0  0  0  0  0
   39.6860   27.5220   29.0380 C   0  0  0  0  0  2  0  0  0  0  0  0
   39.1100   26.9760   30.3120 C   0  0  0  0  0  2  0  0  0  0  0  0
   38.3070   24.2940   36.9770 C   0  0  0  0  0  0  0  0  0  0  0  0
   38.7740   23.1250   36.3780 C   0  0  0  0  0  0  0  0  0  0  0  0
   38.8070   23.0880   34.9820 C   0  0  0  0  0  0  0  0  0  0  0  0
   38.3850   24.1840   34.2880 N   0  0  0  0  0  0  0  0  0  0  0  0
   37.9430   25.2900   34.9000 C   0  0  0  0  0  0  0  0  0  0  0  0
   37.9060   25.3410   36.2440 N   0  0  0  0  0  0  0  0  0  0  0  0
   38.2480   24.4110   38.0590 H   0  0  0  0  0  0  0  0  0  0  0  0
   39.0880   22.3050   37.0040 H   0  0  0  0  0  0  0  0  0  0  0  0
   39.1640   22.1920   34.4920 H   0  0  0  0  0  0  0  0  0  0  0  0
  1  2  1  0  0  0  0
  1 23  1  0  0  0  0
  2  7  1  0  0  0  0
  3  8  1  0  0  0  0
  3  2  2  0  0  0  0
  4  3  1  0  0  0  0
  5  4  2  0  0  0  0
  5  6  1  0  0  0  0
  6  1  2  0  0  0  0
  9  4  1  0  0  0  0
 10  5  1  0  0  0  0
 11 10  1  0  0  0  0
 12 11  1  0  0  0  0
 13 11  1  0  0  0  0
 14 13  1  0  0  0  0
 15 13  1  0  0  0  0
 15 17  1  0  0  0  0
 16 15  1  0  0  0  0
 17 18  1  0  0  0  0
 18 10  1  0  0  0  0
 19 25  1  0  0  0  0
 20 19  1  0  0  0  0
 20 26  1  0  0  0  0
 21 20  2  0  0  0  0
 22 23  2  0  0  0  0
 22 21  1  0  0  0  0
 23 24  1  0  0  0  0
 24 19  2  0  0  0  0
 27 21  1  0  0  0  0
M  END
>  <minimizedAffinity>
-4.75081205

$$$$

 OpenBabel03272502533D

 27 29  0  0  0  0  0  0  0  0999 V2000
   37.0680   24.9690   32.8090 C   0  0  0  0  0  0  0  0  0  0  0  0
   36.1590   25.5610   31.9670 C   0  0  0  0  0  0  0  0  0  0  0  0
   35.4710   24.8430   31.0080 C   0  0  0  0  0  0  0  0  0  0  0  0
   35.7540   23.4900   30.9520 C   0  0  0  0  0  0  0  0  0  0  0  0
   36.6660   22.8590   31.7860 C   0  0  0  0  0  0  0  0  0  0  0  0
   37.2870   23.6560   32.6920 N   0  0  0  0  0  0  0  0  0  0  0  0
   35.9260   26.6250   32.0010 H   0  0  0  0  0  0  0  0  0  0  0  0
   34.7550   25.2940   30.3400 H   0  0  0  0  0  0  0  0  0  0  0  0
   35.2250   22.9090   30.2060 H   0  0  0  0  0  0  0  0  0  0  0  0
   36.9210   21.4590   31.6850 N   0  0  0  0  0  0  0  0  0  0  0  0
   35.9450   20.7130   30.9150 C   0  0  0  0  0  3  0  0  0  0  0  0
   34.9370   20.7720   31.4200 H   0  0  0  0  0  0  0  0  0  0  0  0
   36.2910   19.2600   30.8030 C   0  0  0  0  0  3  0  0  0  0  0  0
   36.7800   19.0900   29.8200 H   0  0  0  0  0  0  0  0  0  0  0  0
   37.2210   18.7990   31.8200 N   0  0  0  0  0  0  0  0  0  0  0  0
   36.8020   18.8240   32.7750 H   0  0  0  0  0  0  0  0  0  0  0  0
   38.4340   19.5840   31.8330 C   0  0  0  0  0  2  0  0  0  0  0  0
   38.1070   20.9540   32.3520 C   0  0  0  0  0  2  0  0  0  0  0  0
   37.7480   27.4240   35.4330 C   0  0  0  0  0  0  0  0  0  0  0  0
   39.1050   27.2420   35.6980 C   0  0  0  0  0  0  0  0  0  0  0  0
   39.7770   26.2650   34.9610 C   0  0  0  0  0  0  0  0  0  0  0  0
   39.0790   25.5490   34.0330 N   0  0  0  0  0  0  0  0  0  0  0  0
   37.7750   25.7530   33.8070 C   0  0  0  0  0  0  0  0  0  0  0  0
   37.1140   26.6910   34.5090 N   0  0  0  0  0  0  0  0  0  0  0  0
   37.1450   28.1640   35.9590 H   0  0  0  0  0  0  0  0  0  0  0  0
   39.5780   27.8540   36.4500 H   0  0  0  0  0  0  0  0  0  0  0  0
   40.8310   26.1030   35.1470 H   0  0  0  0  0  0  0  0  0  0  0  0
  1 23  1  0  0  0  0
  2  7  1  0  0  0  0
  2  1  2  0  0  0  0
  3  2  1  0  0  0  0
  4  3  2  0  0  0  0
  4  5  1  0  0  0  0
  5  6  2  0  0  0  0
  6  1  1  0  0  0  0
  8  3  1  0  0  0  0
  9  4  1  0  0  0  0
 10  5  1  0  0  0  0
 10 18  1  0  0  0  0
 11 12  1  0  0  0  0
 11 10  1  0  0  0  0
 13 11  1  0  0  0  0
 13 15  1  0  0  0  0
 14 13  1  0  0  0  0
 15 17  1  0  0  0  0
 15 16  1  0  0  0  0
 17 18  1  0  0  0  0
 19 20  1  0  0  0  0
 19 25  1  0  0  0  0
 20 26  1  0  0  0  0
 21 27  1  0  0  0  0
 21 20  2  0  0  0  0
 22 21  1  0  0  0  0
 23 22  2  0  0  0  0
 23 24  1  0  0  0  0
 24 19  2  0  0  0  0
M  END
>  <minimizedAffinity>
-4.71387911

$$$$
