
 OpenBabel03272510033D

 37 39  0  0  0  0  0  0  0  0999 V2000
   35.0900   29.7720   45.5930 C   0  0  0  0  0  0  0  0  0  0  0  0
   34.9290   29.6850   46.9420 C   0  0  0  0  0  0  0  0  0  0  0  0
   33.7550   29.1510   47.4600 C   0  0  0  0  0  0  0  0  0  0  0  0
   32.7260   28.6990   46.6610 C   0  0  0  0  0  0  0  0  0  0  0  0
   32.8590   28.7770   45.2870 C   0  0  0  0  0  0  0  0  0  0  0  0
   34.0270   29.3060   44.8140 C   0  0  0  0  0  0  0  0  0  0  0  0
   33.6530   29.0910   48.5530 H   0  0  0  0  0  0  0  0  0  0  0  0
   31.8680   28.3060   47.1580 H   0  0  0  0  0  0  0  0  0  0  0  0
   32.0290   28.4140   44.7000 H   0  0  0  0  0  0  0  0  0  0  0  0
   34.0080   29.3170   43.7170 H   0  0  0  0  0  0  0  0  0  0  0  0
   37.6410   31.7390   48.3390 C   0  0  0  0  0  0  0  0  0  0  0  0
   36.6560   31.2500   47.4910 C   0  0  0  0  0  0  0  0  0  0  0  0
   35.9220   30.1610   47.8440 C   0  0  0  0  0  0  0  0  0  0  0  0
   36.1950   29.5890   49.0500 N   0  0  0  0  0  0  0  0  0  0  0  0
   37.1420   30.0590   49.8730 C   0  0  0  0  0  0  0  0  0  0  0  0
   37.8580   31.1270   49.5100 N   0  0  0  0  0  0  0  0  0  0  0  0
   38.3020   32.5700   48.2170 H   0  0  0  0  0  0  0  0  0  0  0  0
   36.6620   31.9230   46.6680 H   0  0  0  0  0  0  0  0  0  0  0  0
   37.2870   29.3770   51.1870 C   0  0  0  0  0  0  0  0  0  0  0  0
   37.7260   30.2430   52.1740 F   0  0  0  0  0  0  0  0  0  0  0  0
   35.9690   29.0170   51.6650 F   0  0  0  0  0  0  0  0  0  0  0  0
   37.9440   28.2400   51.2080 F   0  0  0  0  0  0  0  0  0  0  0  0
   36.5000   30.3720   44.8350 S   0  0  0  0  0  0  0  0  0  0  0  0
   36.2380   31.5230   43.9760 O   0  0  0  0  0  0  0  0  0  0  0  0
   36.6240   29.3360   43.7260 O   0  0  0  0  0  0  0  0  0  0  0  0
   38.1330   30.0090   45.1840 C   0  0  0  0  0  0  0  0  0  0  0  0
   38.4700   28.9600   45.0620 H   0  0  0  0  0  0  0  0  0  0  0  0
   38.1550   30.0560   46.3410 H   0  0  0  0  0  0  0  0  0  0  0  0
   39.0380   31.0260   44.8180 N   0  0  0  0  0  0  0  0  0  0  0  0
   40.2200   30.9780   45.6420 C   0  0  0  0  0  3  0  0  0  0  0  0
   40.9030   30.1330   45.3960 H   0  0  0  0  0  0  0  0  0  0  0  0
   40.9760   32.3010   45.6060 C   0  0  0  0  0  3  0  0  0  0  0  0
   42.0540   32.0490   45.6950 H   0  0  0  0  0  0  0  0  0  0  0  0
   40.8030   32.9730   44.3410 N   0  0  0  0  0  0  0  0  0  0  0  0
   41.2710   32.5110   43.5460 H   0  0  0  0  0  0  0  0  0  0  0  0
   39.4230   33.2920   44.0590 C   0  0  0  0  0  2  0  0  0  0  0  0
   38.5190   32.3750   44.8470 C   0  0  0  0  0  2  0  0  0  0  0  0
  1  2  1  0  0  0  0
  2  3  2  0  0  0  0
  2 13  1  0  0  0  0
  3  7  1  0  0  0  0
  4  8  1  0  0  0  0
  4  3  1  0  0  0  0
  5  4  2  0  0  0  0
  6  5  1  0  0  0  0
  6  1  2  0  0  0  0
  9  5  1  0  0  0  0
 10  6  1  0  0  0  0
 11 16  1  0  0  0  0
 12 13  1  0  0  0  0
 12 11  2  0  0  0  0
 13 14  2  0  0  0  0
 14 15  1  0  0  0  0
 15 19  1  0  0  0  0
 16 15  2  0  0  0  0
 17 11  1  0  0  0  0
 18 12  1  0  0  0  0
 19 22  1  0  0  0  0
 19 21  1  0  0  0  0
 19 20  1  0  0  0  0
 23 26  1  0  0  0  0
 23  1  1  0  0  0  0
 24 23  2  0  0  0  0
 25 23  2  0  0  0  0
 26 28  1  0  0  0  0
 27 26  1  0  0  0  0
 29 37  1  0  0  0  0
 29 26  1  0  0  0  0
 29 30  1  0  0  0  0
 31 30  1  0  0  0  0
 32 30  1  0  0  0  0
 32 33  1  0  0  0  0
 34 32  1  0  0  0  0
 35 34  1  0  0  0  0
 36 34  1  0  0  0  0
 36 37  1  0  0  0  0
M  END
>  <minimizedAffinity>
-5.41249323

>  <minimizedRMSD>
3.02500796

$$$$
