
 OpenBabel03272510003D

 21 22  0  0  0  0  0  0  0  0999 V2000
   38.2470   32.6780   49.7510 C   0  0  0  0  0  0  0  0  0  0  0  0
   38.8420   32.9280   48.5110 C   0  0  0  0  0  0  0  0  0  0  0  0
   38.3320   32.2660   47.3960 C   0  0  0  0  0  0  0  0  0  0  0  0
   37.2890   31.4190   47.5850 N   0  0  0  0  0  0  0  0  0  0  0  0
   36.7340   31.1930   48.7790 C   0  0  0  0  0  0  0  0  0  0  0  0
   37.2200   31.8290   49.8640 N   0  0  0  0  0  0  0  0  0  0  0  0
   38.6640   33.2110   50.6210 H   0  0  0  0  0  0  0  0  0  0  0  0
   39.6760   33.6030   48.3460 H   0  0  0  0  0  0  0  0  0  0  0  0
   38.8380   32.4250   46.0830 N   0  0  0  0  0  0  0  0  0  0  0  0
   40.2140   32.8110   45.7900 C   0  0  0  0  0  3  0  0  0  0  0  0
   40.8890   32.5690   46.6380 H   0  0  0  0  0  0  0  0  0  0  0  0
   40.7430   32.1210   44.5740 C   0  0  0  0  0  3  0  0  0  0  0  0
   41.6160   32.7060   44.2200 H   0  0  0  0  0  0  0  0  0  0  0  0
   39.8180   31.9760   43.4950 N   0  0  0  0  0  0  0  0  0  0  0  0
   39.5940   30.9490   43.4020 H   0  0  0  0  0  0  0  0  0  0  0  0
   38.5670   32.6480   43.7070 C   0  0  0  0  0  2  0  0  0  0  0  0
   37.9070   32.1830   45.0030 C   0  0  0  0  0  2  0  0  0  0  0  0
   35.5950   30.2440   48.8650 C   0  0  0  0  0  0  0  0  0  0  0  0
   34.6830   30.6120   49.8450 F   0  0  0  0  0  0  0  0  0  0  0  0
   34.8890   30.2080   47.6730 F   0  0  0  0  0  0  0  0  0  0  0  0
   35.9930   28.9580   49.1280 F   0  0  0  0  0  0  0  0  0  0  0  0
  1  6  1  0  0  0  0
  1  7  1  0  0  0  0
  2  1  2  0  0  0  0
  3  4  2  0  0  0  0
  3  2  1  0  0  0  0
  4  5  1  0  0  0  0
  5 18  1  0  0  0  0
  5  6  2  0  0  0  0
  8  2  1  0  0  0  0
  9  3  1  0  0  0  0
 10  9  1  0  0  0  0
 10 11  1  0  0  0  0
 12 10  1  0  0  0  0
 13 12  1  0  0  0  0
 14 16  1  0  0  0  0
 14 12  1  0  0  0  0
 15 14  1  0  0  0  0
 16 17  1  0  0  0  0
 17  9  1  0  0  0  0
 18 21  1  0  0  0  0
 18 19  1  0  0  0  0
 20 18  1  0  0  0  0
M  END
>  <minimizedAffinity>
-5.36292982

>  <minimizedRMSD>
2.37776446

$$$$
