
 OpenBabel03262523043D

 26 28  0  0  0  0  0  0  0  0999 V2000
   37.8870   26.0770   33.5920 C   0  0  0  0  0  0  0  0  0  0  0  0
   38.7820   25.7220   32.6250 C   0  0  0  0  0  0  0  0  0  0  0  0
   39.6010   24.6380   32.8120 C   0  0  0  0  0  0  0  0  0  0  0  0
   39.5110   23.9220   33.9640 N   0  0  0  0  0  0  0  0  0  0  0  0
   38.6270   24.2920   34.8910 C   0  0  0  0  0  0  0  0  0  0  0  0
   37.8170   25.3550   34.7220 N   0  0  0  0  0  0  0  0  0  0  0  0
   38.8440   26.3110   31.6960 H   0  0  0  0  0  0  0  0  0  0  0  0
   40.3190   24.3440   32.0510 H   0  0  0  0  0  0  0  0  0  0  0  0
   38.5370   23.5400   36.0960 N   0  0  0  0  0  0  0  0  0  0  0  0
   39.3990   22.3890   36.3030 C   0  0  0  0  0  3  0  0  0  0  0  0
   40.0520   22.1920   35.4340 H   0  0  0  0  0  0  0  0  0  0  0  0
   40.1670   22.6510   37.5890 C   0  0  0  0  0  3  0  0  0  0  0  0
   40.7100   23.6090   37.5670 H   0  0  0  0  0  0  0  0  0  0  0  0
   39.1890   22.7160   38.6540 N   0  0  0  0  0  0  0  0  0  0  0  0
   39.7290   22.8800   39.5410 H   0  0  0  0  0  0  0  0  0  0  0  0
   38.2510   23.8000   38.5180 C   0  0  0  0  0  2  0  0  0  0  0  0
   37.6130   23.8610   37.1560 C   0  0  0  0  0  2  0  0  0  0  0  0
   35.7940   29.0000   34.3080 C   0  0  0  0  0  0  0  0  0  0  0  0
   35.3120   29.3620   33.0500 C   0  0  0  0  0  0  0  0  0  0  0  0
   35.7230   28.5770   31.9520 C   0  0  0  0  0  0  0  0  0  0  0  0
   36.5570   27.5290   32.1940 N   0  0  0  0  0  0  0  0  0  0  0  0
   37.0010   27.2150   33.4400 C   0  0  0  0  0  0  0  0  0  0  0  0
   36.6080   27.9630   34.4850 N   0  0  0  0  0  0  0  0  0  0  0  0
   35.4630   29.6200   35.1430 H   0  0  0  0  0  0  0  0  0  0  0  0
   34.6480   30.1910   32.8320 H   0  0  0  0  0  0  0  0  0  0  0  0
   35.4240   28.7470   30.9180 H   0  0  0  0  0  0  0  0  0  0  0  0
  1  6  1  0  0  0  0
  2  3  1  0  0  0  0
  2  1  2  0  0  0  0
  3  4  2  0  0  0  0
  4  5  1  0  0  0  0
  5  9  1  0  0  0  0
  6  5  2  0  0  0  0
  7  2  1  0  0  0  0
  8  3  1  0  0  0  0
  9 10  1  0  0  0  0
  9 17  1  0  0  0  0
 10 12  1  0  0  0  0
 11 10  1  0  0  0  0
 12 14  1  0  0  0  0
 13 12  1  0  0  0  0
 14 15  1  0  0  0  0
 16 14  1  0  0  0  0
 17 16  1  0  0  0  0
 18 23  1  0  0  0  0
 18 24  1  0  0  0  0
 19 18  2  0  0  0  0
 20 21  2  0  0  0  0
 20 19  1  0  0  0  0
 21 22  1  0  0  0  0
 22  1  1  0  0  0  0
 22 23  2  0  0  0  0
 25 19  1  0  0  0  0
 26 20  1  0  0  0  0
M  END
>  <minimizedAffinity>
-5.35281992

$$$$

 OpenBabel03262523043D

 26 28  0  0  0  0  0  0  0  0999 V2000
   38.2930   22.8940   34.1680 C   0  0  0  0  0  0  0  0  0  0  0  0
   38.8090   23.7510   33.2400 C   0  0  0  0  0  0  0  0  0  0  0  0
   38.5160   23.5820   31.9110 C   0  0  0  0  0  0  0  0  0  0  0  0
   37.7100   22.5570   31.5290 N   0  0  0  0  0  0  0  0  0  0  0  0
   37.2200   21.7350   32.4580 C   0  0  0  0  0  0  0  0  0  0  0  0
   37.5000   21.8880   33.7670 N   0  0  0  0  0  0  0  0  0  0  0  0
   39.4620   24.5780   33.5640 H   0  0  0  0  0  0  0  0  0  0  0  0
   38.9210   24.2570   31.1610 H   0  0  0  0  0  0  0  0  0  0  0  0
   36.3770   20.6630   32.0530 N   0  0  0  0  0  0  0  0  0  0  0  0
   36.0600   20.4740   30.6480 C   0  0  0  0  0  3  0  0  0  0  0  0
   36.5130   21.2520   30.0080 H   0  0  0  0  0  0  0  0  0  0  0  0
   36.5030   19.0640   30.2900 C   0  0  0  0  0  3  0  0  0  0  0  0
   37.5620   18.8820   30.5310 H   0  0  0  0  0  0  0  0  0  0  0  0
   35.7030   18.1600   31.0880 N   0  0  0  0  0  0  0  0  0  0  0  0
   36.0030   17.1880   30.8230 H   0  0  0  0  0  0  0  0  0  0  0  0
   35.9070   18.2980   32.5070 C   0  0  0  0  0  2  0  0  0  0  0  0
   35.7990   19.7220   32.9830 C   0  0  0  0  0  2  0  0  0  0  0  0
   39.9140   22.6840   37.4500 C   0  0  0  0  0  0  0  0  0  0  0  0
   39.0200   23.3470   38.2890 C   0  0  0  0  0  0  0  0  0  0  0  0
   37.8470   23.8680   37.7000 C   0  0  0  0  0  0  0  0  0  0  0  0
   37.6720   23.6880   36.3630 N   0  0  0  0  0  0  0  0  0  0  0  0
   38.5740   23.0330   35.5850 C   0  0  0  0  0  0  0  0  0  0  0  0
   39.6910   22.5380   36.1470 N   0  0  0  0  0  0  0  0  0  0  0  0
   40.8140   22.2900   37.9260 H   0  0  0  0  0  0  0  0  0  0  0  0
   39.1370   23.5030   39.3560 H   0  0  0  0  0  0  0  0  0  0  0  0
   37.0670   24.4060   38.2370 H   0  0  0  0  0  0  0  0  0  0  0  0
  1 22  1  0  0  0  0
  2  7  1  0  0  0  0
  2  1  2  0  0  0  0
  3  2  1  0  0  0  0
  4  3  2  0  0  0  0
  4  5  1  0  0  0  0
  5  6  2  0  0  0  0
  6  1  1  0  0  0  0
  8  3  1  0  0  0  0
  9  5  1  0  0  0  0
  9 17  1  0  0  0  0
 10  9  1  0  0  0  0
 11 10  1  0  0  0  0
 12 13  1  0  0  0  0
 12 10  1  0  0  0  0
 12 14  1  0  0  0  0
 14 16  1  0  0  0  0
 15 14  1  0  0  0  0
 16 17  1  0  0  0  0
 18 24  1  0  0  0  0
 18 19  1  0  0  0  0
 19 25  1  0  0  0  0
 20 26  1  0  0  0  0
 20 19  2  0  0  0  0
 21 20  1  0  0  0  0
 22 23  1  0  0  0  0
 22 21  2  0  0  0  0
 23 18  2  0  0  0  0
M  END
>  <minimizedAffinity>
-4.74456739

$$$$

 OpenBabel03262523043D

 26 28  0  0  0  0  0  0  0  0999 V2000
   38.0740   24.6540   34.7790 C   0  0  0  0  0  0  0  0  0  0  0  0
   38.2770   23.8970   33.6620 C   0  0  0  0  0  0  0  0  0  0  0  0
   37.9710   24.4040   32.4250 C   0  0  0  0  0  0  0  0  0  0  0  0
   37.4670   25.6620   32.3220 N   0  0  0  0  0  0  0  0  0  0  0  0
   37.2800   26.3780   33.4320 C   0  0  0  0  0  0  0  0  0  0  0  0
   37.5740   25.8940   34.6540 N   0  0  0  0  0  0  0  0  0  0  0  0
   38.6860   22.8790   33.7590 H   0  0  0  0  0  0  0  0  0  0  0  0
   38.1280   23.8120   31.5260 H   0  0  0  0  0  0  0  0  0  0  0  0
   36.7510   27.6950   33.3200 N   0  0  0  0  0  0  0  0  0  0  0  0
   36.4240   28.2410   32.0140 C   0  0  0  0  0  3  0  0  0  0  0  0
   36.6660   27.5410   31.1940 H   0  0  0  0  0  0  0  0  0  0  0  0
   34.9550   28.6300   32.0630 C   0  0  0  0  0  3  0  0  0  0  0  0
   34.3080   27.7920   32.3640 H   0  0  0  0  0  0  0  0  0  0  0  0
   34.8320   29.6700   33.0630 N   0  0  0  0  0  0  0  0  0  0  0  0
   33.8170   29.9450   33.0790 H   0  0  0  0  0  0  0  0  0  0  0  0
   35.1800   29.2430   34.3930 C   0  0  0  0  0  2  0  0  0  0  0  0
   36.5130   28.5470   34.4600 C   0  0  0  0  0  2  0  0  0  0  0  0
   37.9460   24.0030   38.3840 C   0  0  0  0  0  0  0  0  0  0  0  0
   39.0500   23.1770   38.5980 C   0  0  0  0  0  0  0  0  0  0  0  0
   39.8380   22.8510   37.4740 C   0  0  0  0  0  0  0  0  0  0  0  0
   39.4690   23.3610   36.2670 N   0  0  0  0  0  0  0  0  0  0  0  0
   38.3820   24.1620   36.1090 C   0  0  0  0  0  0  0  0  0  0  0  0
   37.6320   24.4720   37.1800 N   0  0  0  0  0  0  0  0  0  0  0  0
   37.3500   24.2420   39.2670 H   0  0  0  0  0  0  0  0  0  0  0  0
   39.3640   22.7590   39.5480 H   0  0  0  0  0  0  0  0  0  0  0  0
   40.7250   22.2190   37.4970 H   0  0  0  0  0  0  0  0  0  0  0  0
  1 22  1  0  0  0  0
  2  7  1  0  0  0  0
  2  1  2  0  0  0  0
  3  2  1  0  0  0  0
  4  3  2  0  0  0  0
  4  5  1  0  0  0  0
  5  6  2  0  0  0  0
  6  1  1  0  0  0  0
  8  3  1  0  0  0  0
  9  5  1  0  0  0  0
  9 17  1  0  0  0  0
 10 12  1  0  0  0  0
 10  9  1  0  0  0  0
 11 10  1  0  0  0  0
 12 13  1  0  0  0  0
 12 14  1  0  0  0  0
 14 15  1  0  0  0  0
 14 16  1  0  0  0  0
 16 17  1  0  0  0  0
 18 19  1  0  0  0  0
 18 24  1  0  0  0  0
 19 25  1  0  0  0  0
 20 26  1  0  0  0  0
 20 19  2  0  0  0  0
 21 20  1  0  0  0  0
 22 21  2  0  0  0  0
 22 23  1  0  0  0  0
 23 18  2  0  0  0  0
M  END
>  <minimizedAffinity>
-4.70428896

$$$$

 OpenBabel03262523043D

 26 28  0  0  0  0  0  0  0  0999 V2000
   39.1320   26.5680   33.6870 C   0  0  0  0  0  0  0  0  0  0  0  0
   40.4570   26.7430   33.4100 C   0  0  0  0  0  0  0  0  0  0  0  0
   41.3950   25.9400   34.0080 C   0  0  0  0  0  0  0  0  0  0  0  0
   40.9940   24.9730   34.8740 N   0  0  0  0  0  0  0  0  0  0  0  0
   39.6930   24.8250   35.1250 C   0  0  0  0  0  0  0  0  0  0  0  0
   38.7600   25.6060   34.5460 N   0  0  0  0  0  0  0  0  0  0  0  0
   40.7680   27.5310   32.7060 H   0  0  0  0  0  0  0  0  0  0  0  0
   42.4540   26.0690   33.7970 H   0  0  0  0  0  0  0  0  0  0  0  0
   39.2770   23.8110   36.0330 N   0  0  0  0  0  0  0  0  0  0  0  0
   40.2630   22.9560   36.6720 C   0  0  0  0  0  3  0  0  0  0  0  0
   41.2920   23.1790   36.3380 H   0  0  0  0  0  0  0  0  0  0  0  0
   40.0660   23.1140   38.1710 C   0  0  0  0  0  3  0  0  0  0  0  0
   40.1210   24.1650   38.4940 H   0  0  0  0  0  0  0  0  0  0  0  0
   38.7380   22.6230   38.4720 N   0  0  0  0  0  0  0  0  0  0  0  0
   38.6160   22.7190   39.5120 H   0  0  0  0  0  0  0  0  0  0  0  0
   37.6830   23.3760   37.8460 C   0  0  0  0  0  2  0  0  0  0  0  0
   37.8940   23.5740   36.3690 C   0  0  0  0  0  2  0  0  0  0  0  0
   36.0930   28.5500   33.1670 C   0  0  0  0  0  0  0  0  0  0  0  0
   36.2020   28.9560   31.8370 C   0  0  0  0  0  0  0  0  0  0  0  0
   37.3440   28.5320   31.1250 C   0  0  0  0  0  0  0  0  0  0  0  0
   38.2540   27.7610   31.7800 N   0  0  0  0  0  0  0  0  0  0  0  0
   38.1040   27.3910   33.0800 C   0  0  0  0  0  0  0  0  0  0  0  0
   37.0160   27.7960   33.7570 N   0  0  0  0  0  0  0  0  0  0  0  0
   35.2020   28.8890   33.6990 H   0  0  0  0  0  0  0  0  0  0  0  0
   35.4910   29.5680   31.2930 H   0  0  0  0  0  0  0  0  0  0  0  0
   37.5550   28.7750   30.0840 H   0  0  0  0  0  0  0  0  0  0  0  0
  1  6  1  0  0  0  0
  2  1  2  0  0  0  0
  2  3  1  0  0  0  0
  3  4  2  0  0  0  0
  4  5  1  0  0  0  0
  5  9  1  0  0  0  0
  6  5  2  0  0  0  0
  7  2  1  0  0  0  0
  8  3  1  0  0  0  0
  9 17  1  0  0  0  0
  9 10  1  0  0  0  0
 10 12  1  0  0  0  0
 11 10  1  0  0  0  0
 12 14  1  0  0  0  0
 12 13  1  0  0  0  0
 14 15  1  0  0  0  0
 16 14  1  0  0  0  0
 17 16  1  0  0  0  0
 18 24  1  0  0  0  0
 18 23  1  0  0  0  0
 19 18  2  0  0  0  0
 20 21  2  0  0  0  0
 20 19  1  0  0  0  0
 21 22  1  0  0  0  0
 22  1  1  0  0  0  0
 22 23  2  0  0  0  0
 25 19  1  0  0  0  0
 26 20  1  0  0  0  0
M  END
>  <minimizedAffinity>
-4.69410515

$$$$

 OpenBabel03262523043D

 26 28  0  0  0  0  0  0  0  0999 V2000
   38.3690   25.6120   35.1500 C   0  0  0  0  0  0  0  0  0  0  0  0
   37.7560   26.7140   35.6730 C   0  0  0  0  0  0  0  0  0  0  0  0
   37.2250   27.6650   34.8390 C   0  0  0  0  0  0  0  0  0  0  0  0
   37.3130   27.5000   33.4940 N   0  0  0  0  0  0  0  0  0  0  0  0
   37.9180   26.4130   33.0110 C   0  0  0  0  0  0  0  0  0  0  0  0
   38.4450   25.4720   33.8170 N   0  0  0  0  0  0  0  0  0  0  0  0
   37.6910   26.8350   36.7660 H   0  0  0  0  0  0  0  0  0  0  0  0
   36.7340   28.5470   35.2420 H   0  0  0  0  0  0  0  0  0  0  0  0
   38.0090   26.2450   31.6010 N   0  0  0  0  0  0  0  0  0  0  0  0
   37.4490   27.2460   30.7090 C   0  0  0  0  0  3  0  0  0  0  0  0
   36.9550   28.0680   31.2580 H   0  0  0  0  0  0  0  0  0  0  0  0
   38.5880   27.7160   29.8170 C   0  0  0  0  0  3  0  0  0  0  0  0
   39.4540   28.0760   30.3940 H   0  0  0  0  0  0  0  0  0  0  0  0
   39.0120   26.5680   29.0430 N   0  0  0  0  0  0  0  0  0  0  0  0
   39.7870   26.9040   28.4170 H   0  0  0  0  0  0  0  0  0  0  0  0
   39.5430   25.4930   29.8400 C   0  0  0  0  0  2  0  0  0  0  0  0
   38.6430   25.1060   30.9830 C   0  0  0  0  0  2  0  0  0  0  0  0
   40.5460   22.9560   36.4300 C   0  0  0  0  0  0  0  0  0  0  0  0
   39.9670   22.6340   37.6580 C   0  0  0  0  0  0  0  0  0  0  0  0
   38.8110   23.3510   38.0330 C   0  0  0  0  0  0  0  0  0  0  0  0
   38.3450   24.3020   37.1780 N   0  0  0  0  0  0  0  0  0  0  0  0
   38.9460   24.5800   35.9900 C   0  0  0  0  0  0  0  0  0  0  0  0
   40.0470   23.8960   35.6340 N   0  0  0  0  0  0  0  0  0  0  0  0
   41.4390   22.3890   36.1600 H   0  0  0  0  0  0  0  0  0  0  0  0
   40.3190   21.8820   38.3550 H   0  0  0  0  0  0  0  0  0  0  0  0
   38.2600   23.2020   38.9610 H   0  0  0  0  0  0  0  0  0  0  0  0
  1  2  1  0  0  0  0
  1 22  1  0  0  0  0
  2  7  1  0  0  0  0
  3  8  1  0  0  0  0
  3  2  2  0  0  0  0
  4  3  1  0  0  0  0
  5  4  2  0  0  0  0
  5  6  1  0  0  0  0
  6  1  2  0  0  0  0
  9  5  1  0  0  0  0
 10 11  1  0  0  0  0
 10  9  1  0  0  0  0
 12 13  1  0  0  0  0
 12 10  1  0  0  0  0
 14 12  1  0  0  0  0
 14 16  1  0  0  0  0
 15 14  1  0  0  0  0
 16 17  1  0  0  0  0
 17  9  1  0  0  0  0
 18 19  1  0  0  0  0
 19 20  2  0  0  0  0
 19 25  1  0  0  0  0
 20 26  1  0  0  0  0
 21 20  1  0  0  0  0
 22 21  2  0  0  0  0
 23 22  1  0  0  0  0
 23 18  2  0  0  0  0
 24 18  1  0  0  0  0
M  END
>  <minimizedAffinity>
-4.63439131

$$$$

 OpenBabel03262523043D

 26 28  0  0  0  0  0  0  0  0999 V2000
   35.5050   29.8130   34.0420 C   0  0  0  0  0  0  0  0  0  0  0  0
   35.5570   30.2480   32.7500 C   0  0  0  0  0  0  0  0  0  0  0  0
   36.2190   29.5080   31.8030 C   0  0  0  0  0  0  0  0  0  0  0  0
   36.8190   28.3430   32.1630 N   0  0  0  0  0  0  0  0  0  0  0  0
   36.7510   27.9430   33.4330 C   0  0  0  0  0  0  0  0  0  0  0  0
   36.1060   28.6590   34.3740 N   0  0  0  0  0  0  0  0  0  0  0  0
   35.0670   31.1940   32.4720 H   0  0  0  0  0  0  0  0  0  0  0  0
   36.2690   29.8430   30.7700 H   0  0  0  0  0  0  0  0  0  0  0  0
   37.3820   26.7230   33.8050 N   0  0  0  0  0  0  0  0  0  0  0  0
   38.0850   25.9320   32.8100 C   0  0  0  0  0  3  0  0  0  0  0  0
   38.0240   26.3770   31.8010 H   0  0  0  0  0  0  0  0  0  0  0  0
   39.5100   25.7710   33.3140 C   0  0  0  0  0  3  0  0  0  0  0  0
   39.9930   26.7370   33.5290 H   0  0  0  0  0  0  0  0  0  0  0  0
   39.4340   25.0250   34.5520 N   0  0  0  0  0  0  0  0  0  0  0  0
   40.4230   24.9030   34.8860 H   0  0  0  0  0  0  0  0  0  0  0  0
   38.7110   25.7040   35.5970 C   0  0  0  0  0  2  0  0  0  0  0  0
   37.3640   26.2070   35.1530 C   0  0  0  0  0  2  0  0  0  0  0  0
   32.8970   31.1580   36.2390 C   0  0  0  0  0  0  0  0  0  0  0  0
   33.6010   32.0230   37.0760 C   0  0  0  0  0  0  0  0  0  0  0  0
   34.9920   32.1330   36.8660 C   0  0  0  0  0  0  0  0  0  0  0  0
   35.5470   31.3920   35.8690 N   0  0  0  0  0  0  0  0  0  0  0  0
   34.8180   30.5600   35.0780 C   0  0  0  0  0  0  0  0  0  0  0  0
   33.4930   30.4560   35.2790 N   0  0  0  0  0  0  0  0  0  0  0  0
   31.8220   31.0880   36.4190 H   0  0  0  0  0  0  0  0  0  0  0  0
   33.1820   32.6240   37.8760 H   0  0  0  0  0  0  0  0  0  0  0  0
   35.6600   32.7690   37.4450 H   0  0  0  0  0  0  0  0  0  0  0  0
  1  6  1  0  0  0  0
  1 22  1  0  0  0  0
  2  1  2  0  0  0  0
  3  4  2  0  0  0  0
  3  2  1  0  0  0  0
  4  5  1  0  0  0  0
  5  9  1  0  0  0  0
  5  6  2  0  0  0  0
  7  2  1  0  0  0  0
  8  3  1  0  0  0  0
  9 17  1  0  0  0  0
 10 12  1  0  0  0  0
 10  9  1  0  0  0  0
 11 10  1  0  0  0  0
 12 13  1  0  0  0  0
 12 14  1  0  0  0  0
 14 15  1  0  0  0  0
 14 16  1  0  0  0  0
 17 16  1  0  0  0  0
 18 24  1  0  0  0  0
 18 19  1  0  0  0  0
 19 25  1  0  0  0  0
 20 19  2  0  0  0  0
 20 26  1  0  0  0  0
 21 20  1  0  0  0  0
 22 23  1  0  0  0  0
 22 21  2  0  0  0  0
 23 18  2  0  0  0  0
M  END
>  <minimizedAffinity>
-4.59048033

$$$$

 OpenBabel03262523043D

 26 28  0  0  0  0  0  0  0  0999 V2000
   39.8320   26.9200   34.3630 C   0  0  0  0  0  0  0  0  0  0  0  0
   39.1050   27.0250   35.5120 C   0  0  0  0  0  0  0  0  0  0  0  0
   37.7800   27.3770   35.4570 C   0  0  0  0  0  0  0  0  0  0  0  0
   37.2020   27.6190   34.2510 N   0  0  0  0  0  0  0  0  0  0  0  0
   37.9380   27.5090   33.1440 C   0  0  0  0  0  0  0  0  0  0  0  0
   39.2390   27.1650   33.1830 N   0  0  0  0  0  0  0  0  0  0  0  0
   39.5860   26.8270   36.4830 H   0  0  0  0  0  0  0  0  0  0  0  0
   37.1890   27.4650   36.3650 H   0  0  0  0  0  0  0  0  0  0  0  0
   37.3270   27.7630   31.8840 N   0  0  0  0  0  0  0  0  0  0  0  0
   35.9260   28.1370   31.8140 C   0  0  0  0  0  3  0  0  0  0  0  0
   35.4450   28.1540   32.8090 H   0  0  0  0  0  0  0  0  0  0  0  0
   35.8700   29.4740   31.0930 C   0  0  0  0  0  3  0  0  0  0  0  0
   36.5040   30.2370   31.5710 H   0  0  0  0  0  0  0  0  0  0  0  0
   36.3730   29.2490   29.7550 N   0  0  0  0  0  0  0  0  0  0  0  0
   36.3150   30.1730   29.2580 H   0  0  0  0  0  0  0  0  0  0  0  0
   37.7490   28.8270   29.7140 C   0  0  0  0  0  2  0  0  0  0  0  0
   38.0390   27.6700   30.6320 C   0  0  0  0  0  2  0  0  0  0  0  0
   43.4530   26.9230   33.7900 C   0  0  0  0  0  0  0  0  0  0  0  0
   43.8790   25.7650   34.4400 C   0  0  0  0  0  0  0  0  0  0  0  0
   42.8910   24.9840   35.0780 C   0  0  0  0  0  0  0  0  0  0  0  0
   41.6010   25.4120   35.0160 N   0  0  0  0  0  0  0  0  0  0  0  0
   41.2350   26.5510   34.3700 C   0  0  0  0  0  0  0  0  0  0  0  0
   42.1760   27.2940   33.7630 N   0  0  0  0  0  0  0  0  0  0  0  0
   44.2330   27.5130   33.3040 H   0  0  0  0  0  0  0  0  0  0  0  0
   44.8990   25.4030   34.5030 H   0  0  0  0  0  0  0  0  0  0  0  0
   43.0840   24.0590   35.6200 H   0  0  0  0  0  0  0  0  0  0  0  0
  1 22  1  0  0  0  0
  1  2  1  0  0  0  0
  2  7  1  0  0  0  0
  3  2  2  0  0  0  0
  3  8  1  0  0  0  0
  4  3  1  0  0  0  0
  5  6  1  0  0  0  0
  5  4  2  0  0  0  0
  6  1  2  0  0  0  0
  9  5  1  0  0  0  0
 10  9  1  0  0  0  0
 10 11  1  0  0  0  0
 12 13  1  0  0  0  0
 12 10  1  0  0  0  0
 14 12  1  0  0  0  0
 15 14  1  0  0  0  0
 16 14  1  0  0  0  0
 16 17  1  0  0  0  0
 17  9  1  0  0  0  0
 18 19  1  0  0  0  0
 19 25  1  0  0  0  0
 19 20  2  0  0  0  0
 20 26  1  0  0  0  0
 21 20  1  0  0  0  0
 22 21  2  0  0  0  0
 23 18  2  0  0  0  0
 23 22  1  0  0  0  0
 24 18  1  0  0  0  0
M  END
>  <minimizedAffinity>
-4.55438042

$$$$

 OpenBabel03262523043D

 26 28  0  0  0  0  0  0  0  0999 V2000
   39.1130   24.5980   34.5370 C   0  0  0  0  0  0  0  0  0  0  0  0
   39.9000   23.9230   33.6500 C   0  0  0  0  0  0  0  0  0  0  0  0
   40.0100   24.3630   32.3560 C   0  0  0  0  0  0  0  0  0  0  0  0
   39.3300   25.4730   31.9660 N   0  0  0  0  0  0  0  0  0  0  0  0
   38.5680   26.1130   32.8540 C   0  0  0  0  0  0  0  0  0  0  0  0
   38.4490   25.6920   34.1290 N   0  0  0  0  0  0  0  0  0  0  0  0
   40.4450   23.0240   33.9790 H   0  0  0  0  0  0  0  0  0  0  0  0
   40.6330   23.8340   31.6390 H   0  0  0  0  0  0  0  0  0  0  0  0
   37.8580   27.2750   32.4420 N   0  0  0  0  0  0  0  0  0  0  0  0
   37.9670   27.7490   31.0730 C   0  0  0  0  0  3  0  0  0  0  0  0
   38.6580   27.1340   30.4700 H   0  0  0  0  0  0  0  0  0  0  0  0
   36.5530   27.7910   30.5160 C   0  0  0  0  0  3  0  0  0  0  0  0
   36.0360   26.8220   30.6050 H   0  0  0  0  0  0  0  0  0  0  0  0
   35.8220   28.7610   31.3020 N   0  0  0  0  0  0  0  0  0  0  0  0
   34.8510   28.7970   30.9010 H   0  0  0  0  0  0  0  0  0  0  0  0
   35.6960   28.4080   32.6930 C   0  0  0  0  0  2  0  0  0  0  0  0
   37.0090   28.0340   33.3280 C   0  0  0  0  0  2  0  0  0  0  0  0
   37.8690   24.2070   37.9630 C   0  0  0  0  0  0  0  0  0  0  0  0
   38.7690   23.3020   38.5260 C   0  0  0  0  0  0  0  0  0  0  0  0
   39.8120   22.8310   37.7000 C   0  0  0  0  0  0  0  0  0  0  0  0
   39.8670   23.2890   36.4200 N   0  0  0  0  0  0  0  0  0  0  0  0
   38.9650   24.1720   35.9150 C   0  0  0  0  0  0  0  0  0  0  0  0
   37.9720   24.6200   36.7030 N   0  0  0  0  0  0  0  0  0  0  0  0
   37.0700   24.5580   38.6190 H   0  0  0  0  0  0  0  0  0  0  0  0
   38.7460   22.9230   39.5420 H   0  0  0  0  0  0  0  0  0  0  0  0
   40.5810   22.1250   38.0110 H   0  0  0  0  0  0  0  0  0  0  0  0
  1 22  1  0  0  0  0
  2  7  1  0  0  0  0
  2  1  2  0  0  0  0
  3  2  1  0  0  0  0
  4  3  2  0  0  0  0
  4  5  1  0  0  0  0
  5  6  2  0  0  0  0
  6  1  1  0  0  0  0
  8  3  1  0  0  0  0
  9  5  1  0  0  0  0
  9 17  1  0  0  0  0
 10  9  1  0  0  0  0
 11 10  1  0  0  0  0
 12 13  1  0  0  0  0
 12 10  1  0  0  0  0
 12 14  1  0  0  0  0
 14 16  1  0  0  0  0
 15 14  1  0  0  0  0
 16 17  1  0  0  0  0
 18 19  1  0  0  0  0
 18 24  1  0  0  0  0
 19 25  1  0  0  0  0
 20 26  1  0  0  0  0
 20 19  2  0  0  0  0
 21 20  1  0  0  0  0
 22 21  2  0  0  0  0
 22 23  1  0  0  0  0
 23 18  2  0  0  0  0
M  END
>  <minimizedAffinity>
-4.5128355

$$$$

 OpenBabel03262523043D

 26 28  0  0  0  0  0  0  0  0999 V2000
   37.2990   25.1280   31.8290 C   0  0  0  0  0  0  0  0  0  0  0  0
   38.2490   25.2090   30.8530 C   0  0  0  0  0  0  0  0  0  0  0  0
   38.5590   24.1040   30.1030 C   0  0  0  0  0  0  0  0  0  0  0  0
   37.9110   22.9320   30.3380 N   0  0  0  0  0  0  0  0  0  0  0  0
   36.9860   22.8830   31.2980 C   0  0  0  0  0  0  0  0  0  0  0  0
   36.6730   23.9600   32.0440 N   0  0  0  0  0  0  0  0  0  0  0  0
   38.7670   26.1650   30.6730 H   0  0  0  0  0  0  0  0  0  0  0  0
   39.3140   24.1530   29.3230 H   0  0  0  0  0  0  0  0  0  0  0  0
   36.3110   21.6540   31.5410 N   0  0  0  0  0  0  0  0  0  0  0  0
   36.6320   20.4770   30.7520 C   0  0  0  0  0  3  0  0  0  0  0  0
   37.3920   20.6850   29.9770 H   0  0  0  0  0  0  0  0  0  0  0  0
   37.0520   19.3970   31.7360 C   0  0  0  0  0  3  0  0  0  0  0  0
   37.8730   19.7230   32.3930 H   0  0  0  0  0  0  0  0  0  0  0  0
   35.9000   19.1180   32.5670 N   0  0  0  0  0  0  0  0  0  0  0  0
   36.1930   18.3600   33.2330 H   0  0  0  0  0  0  0  0  0  0  0  0
   35.4690   20.2400   33.3600 C   0  0  0  0  0  2  0  0  0  0  0  0
   35.2970   21.5010   32.5560 C   0  0  0  0  0  2  0  0  0  0  0  0
   35.9840   28.3690   32.9280 C   0  0  0  0  0  0  0  0  0  0  0  0
   36.2920   28.3930   34.2870 C   0  0  0  0  0  0  0  0  0  0  0  0
   36.9630   27.2690   34.8160 C   0  0  0  0  0  0  0  0  0  0  0  0
   37.2600   26.2470   33.9680 N   0  0  0  0  0  0  0  0  0  0  0  0
   36.9370   26.2690   32.6480 C   0  0  0  0  0  0  0  0  0  0  0  0
   36.2980   27.3400   32.1450 N   0  0  0  0  0  0  0  0  0  0  0  0
   35.4640   29.2480   32.5400 H   0  0  0  0  0  0  0  0  0  0  0  0
   36.0670   29.1940   34.9820 H   0  0  0  0  0  0  0  0  0  0  0  0
   37.2640   27.1570   35.8570 H   0  0  0  0  0  0  0  0  0  0  0  0
  1  6  1  0  0  0  0
  1 22  1  0  0  0  0
  2  1  2  0  0  0  0
  3  4  2  0  0  0  0
  3  2  1  0  0  0  0
  4  5  1  0  0  0  0
  5  9  1  0  0  0  0
  5  6  2  0  0  0  0
  7  2  1  0  0  0  0
  8  3  1  0  0  0  0
  9 17  1  0  0  0  0
 10  9  1  0  0  0  0
 10 12  1  0  0  0  0
 11 10  1  0  0  0  0
 12 13  1  0  0  0  0
 12 14  1  0  0  0  0
 14 15  1  0  0  0  0
 14 16  1  0  0  0  0
 17 16  1  0  0  0  0
 18 19  1  0  0  0  0
 19 20  2  0  0  0  0
 19 25  1  0  0  0  0
 20 26  1  0  0  0  0
 21 20  1  0  0  0  0
 22 21  2  0  0  0  0
 23 22  1  0  0  0  0
 23 18  2  0  0  0  0
 24 18  1  0  0  0  0
M  END
>  <minimizedAffinity>
-4.49060488

$$$$
