
 OpenBabel03272510033D

 21 22  0  0  0  0  0  0  0  0999 V2000
   37.6290   23.5330   32.3970 C   0  0  0  0  0  0  0  0  0  0  0  0
   38.2410   23.8070   33.6220 C   0  0  0  0  0  0  0  0  0  0  0  0
   38.0300   22.9160   34.6730 C   0  0  0  0  0  0  0  0  0  0  0  0
   37.2420   21.8360   34.4380 N   0  0  0  0  0  0  0  0  0  0  0  0
   36.6650   21.5910   33.2590 C   0  0  0  0  0  0  0  0  0  0  0  0
   36.8630   22.4470   32.2350 N   0  0  0  0  0  0  0  0  0  0  0  0
   37.8070   24.2480   31.5780 H   0  0  0  0  0  0  0  0  0  0  0  0
   38.8740   24.6660   33.8230 H   0  0  0  0  0  0  0  0  0  0  0  0
   38.5880   23.0710   35.9650 N   0  0  0  0  0  0  0  0  0  0  0  0
   38.1460   24.0860   36.9160 C   0  0  0  0  0  3  0  0  0  0  0  0
   37.1110   24.4220   36.6950 H   0  0  0  0  0  0  0  0  0  0  0  0
   38.1720   23.5840   38.3240 C   0  0  0  0  0  3  0  0  0  0  0  0
   38.1770   24.4710   38.9880 H   0  0  0  0  0  0  0  0  0  0  0  0
   39.2820   22.7500   38.6620 N   0  0  0  0  0  0  0  0  0  0  0  0
   38.9130   21.7730   38.8190 H   0  0  0  0  0  0  0  0  0  0  0  0
   40.2710   22.6490   37.6250 C   0  0  0  0  0  2  0  0  0  0  0  0
   39.6480   22.1560   36.3200 C   0  0  0  0  0  2  0  0  0  0  0  0
   35.8220   20.3780   33.1190 C   0  0  0  0  0  0  0  0  0  0  0  0
   35.4640   19.8460   34.3500 F   0  0  0  0  0  0  0  0  0  0  0  0
   34.6350   20.6710   32.4640 F   0  0  0  0  0  0  0  0  0  0  0  0
   36.4340   19.3840   32.3990 F   0  0  0  0  0  0  0  0  0  0  0  0
  1  2  1  0  0  0  0
  2  8  1  0  0  0  0
  2  3  2  0  0  0  0
  3  9  1  0  0  0  0
  4  3  1  0  0  0  0
  5  4  2  0  0  0  0
  6  1  2  0  0  0  0
  6  5  1  0  0  0  0
  7  1  1  0  0  0  0
  9 17  1  0  0  0  0
  9 10  1  0  0  0  0
 10 12  1  0  0  0  0
 11 10  1  0  0  0  0
 12 14  1  0  0  0  0
 12 13  1  0  0  0  0
 14 15  1  0  0  0  0
 16 14  1  0  0  0  0
 17 16  1  0  0  0  0
 18  5  1  0  0  0  0
 18 19  1  0  0  0  0
 20 18  1  0  0  0  0
 21 18  1  0  0  0  0
M  END
>  <minimizedAffinity>
-5.0419364

$$$$

 OpenBabel03272510033D

 21 22  0  0  0  0  0  0  0  0999 V2000
   39.0110   22.3150   35.0090 C   0  0  0  0  0  0  0  0  0  0  0  0
   38.6290   23.3670   34.1730 C   0  0  0  0  0  0  0  0  0  0  0  0
   38.1460   24.5320   34.7660 C   0  0  0  0  0  0  0  0  0  0  0  0
   38.0760   24.5710   36.1210 N   0  0  0  0  0  0  0  0  0  0  0  0
   38.4470   23.5530   36.9040 C   0  0  0  0  0  0  0  0  0  0  0  0
   38.9160   22.4220   36.3400 N   0  0  0  0  0  0  0  0  0  0  0  0
   39.3910   21.4030   34.5220 H   0  0  0  0  0  0  0  0  0  0  0  0
   38.6800   23.3500   33.0890 H   0  0  0  0  0  0  0  0  0  0  0  0
   37.7240   25.6730   34.0400 N   0  0  0  0  0  0  0  0  0  0  0  0
   37.9490   25.8430   32.6080 C   0  0  0  0  0  3  0  0  0  0  0  0
   38.0960   24.8660   32.1040 H   0  0  0  0  0  0  0  0  0  0  0  0
   36.8030   26.5340   31.9400 C   0  0  0  0  0  3  0  0  0  0  0  0
   37.1800   26.9380   30.9790 H   0  0  0  0  0  0  0  0  0  0  0  0
   36.2060   27.5990   32.6830 N   0  0  0  0  0  0  0  0  0  0  0  0
   35.2380   27.2860   32.9670 H   0  0  0  0  0  0  0  0  0  0  0  0
   36.9020   27.9230   33.8960 C   0  0  0  0  0  2  0  0  0  0  0  0
   37.0400   26.6960   34.7950 C   0  0  0  0  0  2  0  0  0  0  0  0
   38.3260   23.7090   38.3750 C   0  0  0  0  0  0  0  0  0  0  0  0
   37.9380   24.9930   38.7340 F   0  0  0  0  0  0  0  0  0  0  0  0
   37.3600   22.8560   38.8860 F   0  0  0  0  0  0  0  0  0  0  0  0
   39.4940   23.4270   39.0380 F   0  0  0  0  0  0  0  0  0  0  0  0
  1  6  1  0  0  0  0
  2  3  1  0  0  0  0
  2  1  2  0  0  0  0
  3  4  2  0  0  0  0
  4  5  1  0  0  0  0
  5 18  1  0  0  0  0
  6  5  2  0  0  0  0
  7  1  1  0  0  0  0
  8  2  1  0  0  0  0
  9  3  1  0  0  0  0
  9 17  1  0  0  0  0
 10  9  1  0  0  0  0
 11 10  1  0  0  0  0
 12 10  1  0  0  0  0
 12 14  1  0  0  0  0
 13 12  1  0  0  0  0
 14 15  1  0  0  0  0
 14 16  1  0  0  0  0
 16 17  1  0  0  0  0
 18 19  1  0  0  0  0
 18 20  1  0  0  0  0
 18 21  1  0  0  0  0
M  END
>  <minimizedAffinity>
-4.74787807

$$$$

 OpenBabel03272510033D

 21 22  0  0  0  0  0  0  0  0999 V2000
   39.9770   22.5650   35.4680 C   0  0  0  0  0  0  0  0  0  0  0  0
   39.3710   23.3530   34.4850 C   0  0  0  0  0  0  0  0  0  0  0  0
   38.4100   24.2780   34.8900 C   0  0  0  0  0  0  0  0  0  0  0  0
   38.1220   24.3550   36.2140 N   0  0  0  0  0  0  0  0  0  0  0  0
   38.7130   23.5920   37.1380 C   0  0  0  0  0  0  0  0  0  0  0  0
   39.6450   22.6940   36.7570 N   0  0  0  0  0  0  0  0  0  0  0  0
   40.7340   21.8410   35.1290 H   0  0  0  0  0  0  0  0  0  0  0  0
   39.5910   23.3020   33.4240 H   0  0  0  0  0  0  0  0  0  0  0  0
   37.7180   25.1380   34.0020 N   0  0  0  0  0  0  0  0  0  0  0  0
   37.2640   26.4750   34.3670 C   0  0  0  0  0  3  0  0  0  0  0  0
   37.8500   26.8820   35.2180 H   0  0  0  0  0  0  0  0  0  0  0  0
   37.3830   27.4380   33.2290 C   0  0  0  0  0  3  0  0  0  0  0  0
   36.7140   28.2940   33.4530 H   0  0  0  0  0  0  0  0  0  0  0  0
   37.0470   26.9170   31.9420 N   0  0  0  0  0  0  0  0  0  0  0  0
   37.9370   26.8670   31.3750 H   0  0  0  0  0  0  0  0  0  0  0  0
   36.5110   25.5850   31.9750 C   0  0  0  0  0  2  0  0  0  0  0  0
   37.4710   24.6240   32.6750 C   0  0  0  0  0  2  0  0  0  0  0  0
   38.3180   23.7640   38.5580 C   0  0  0  0  0  0  0  0  0  0  0  0
   37.7170   24.9940   38.7880 F   0  0  0  0  0  0  0  0  0  0  0  0
   37.3900   22.8040   38.9340 F   0  0  0  0  0  0  0  0  0  0  0  0
   39.3760   23.6500   39.4230 F   0  0  0  0  0  0  0  0  0  0  0  0
  1  6  1  0  0  0  0
  2  3  1  0  0  0  0
  2  1  2  0  0  0  0
  3  4  2  0  0  0  0
  4  5  1  0  0  0  0
  5 18  1  0  0  0  0
  6  5  2  0  0  0  0
  7  1  1  0  0  0  0
  8  2  1  0  0  0  0
  9 10  1  0  0  0  0
  9  3  1  0  0  0  0
 10 11  1  0  0  0  0
 12 13  1  0  0  0  0
 12 10  1  0  0  0  0
 14 16  1  0  0  0  0
 14 12  1  0  0  0  0
 15 14  1  0  0  0  0
 16 17  1  0  0  0  0
 17  9  1  0  0  0  0
 18 19  1  0  0  0  0
 18 20  1  0  0  0  0
 18 21  1  0  0  0  0
M  END
>  <minimizedAffinity>
-4.67720366

$$$$

 OpenBabel03272510033D

 21 22  0  0  0  0  0  0  0  0999 V2000
   37.6390   27.5690   34.8620 C   0  0  0  0  0  0  0  0  0  0  0  0
   38.0120   26.6490   35.8450 C   0  0  0  0  0  0  0  0  0  0  0  0
   38.0190   25.2970   35.5060 C   0  0  0  0  0  0  0  0  0  0  0  0
   37.6620   24.9590   34.2410 N   0  0  0  0  0  0  0  0  0  0  0  0
   37.3080   25.8550   33.3150 C   0  0  0  0  0  0  0  0  0  0  0  0
   37.2990   27.1660   33.6330 N   0  0  0  0  0  0  0  0  0  0  0  0
   37.6400   28.6330   35.1480 H   0  0  0  0  0  0  0  0  0  0  0  0
   38.3000   26.9050   36.8590 H   0  0  0  0  0  0  0  0  0  0  0  0
   38.3750   24.2590   36.4020 N   0  0  0  0  0  0  0  0  0  0  0  0
   39.0450   23.0320   35.9870 C   0  0  0  0  0  3  0  0  0  0  0  0
   39.5910   23.1740   35.0300 H   0  0  0  0  0  0  0  0  0  0  0  0
   40.0310   22.5590   37.0070 C   0  0  0  0  0  3  0  0  0  0  0  0
   40.2220   21.4860   36.8050 H   0  0  0  0  0  0  0  0  0  0  0  0
   39.6250   22.7040   38.3700 N   0  0  0  0  0  0  0  0  0  0  0  0
   40.2380   23.4430   38.8090 H   0  0  0  0  0  0  0  0  0  0  0  0
   38.2700   23.1520   38.5300 C   0  0  0  0  0  2  0  0  0  0  0  0
   38.0380   24.4690   37.7910 C   0  0  0  0  0  2  0  0  0  0  0  0
   36.9360   25.3690   31.9620 C   0  0  0  0  0  0  0  0  0  0  0  0
   37.8940   24.5140   31.4340 F   0  0  0  0  0  0  0  0  0  0  0  0
   35.7530   24.6480   32.0030 F   0  0  0  0  0  0  0  0  0  0  0  0
   36.7480   26.3880   31.0640 F   0  0  0  0  0  0  0  0  0  0  0  0
  1  7  1  0  0  0  0
  1  2  1  0  0  0  0
  2  8  1  0  0  0  0
  3  2  2  0  0  0  0
  3  9  1  0  0  0  0
  4  3  1  0  0  0  0
  5  6  1  0  0  0  0
  5  4  2  0  0  0  0
  6  1  2  0  0  0  0
  9 17  1  0  0  0  0
 10  9  1  0  0  0  0
 10 12  1  0  0  0  0
 11 10  1  0  0  0  0
 12 14  1  0  0  0  0
 13 12  1  0  0  0  0
 14 16  1  0  0  0  0
 14 15  1  0  0  0  0
 17 16  1  0  0  0  0
 18 20  1  0  0  0  0
 18  5  1  0  0  0  0
 19 18  1  0  0  0  0
 21 18  1  0  0  0  0
M  END
>  <minimizedAffinity>
-4.6748991

$$$$

 OpenBabel03272510033D

 21 22  0  0  0  0  0  0  0  0999 V2000
   37.6700   23.4060   32.4980 C   0  0  0  0  0  0  0  0  0  0  0  0
   38.1050   23.0160   33.7680 C   0  0  0  0  0  0  0  0  0  0  0  0
   38.1780   23.9890   34.7620 C   0  0  0  0  0  0  0  0  0  0  0  0
   37.8220   25.2570   34.4340 N   0  0  0  0  0  0  0  0  0  0  0  0
   37.4080   25.6110   33.2140 C   0  0  0  0  0  0  0  0  0  0  0  0
   37.3330   24.6760   32.2450 N   0  0  0  0  0  0  0  0  0  0  0  0
   37.6190   22.6230   31.7250 H   0  0  0  0  0  0  0  0  0  0  0  0
   38.3930   22.0060   34.0430 H   0  0  0  0  0  0  0  0  0  0  0  0
   38.6020   23.7330   36.0890 N   0  0  0  0  0  0  0  0  0  0  0  0
   38.1490   24.5050   37.2410 C   0  0  0  0  0  3  0  0  0  0  0  0
   37.1790   25.0040   37.0370 H   0  0  0  0  0  0  0  0  0  0  0  0
   37.9740   23.6490   38.4550 C   0  0  0  0  0  3  0  0  0  0  0  0
   37.9850   24.3230   39.3360 H   0  0  0  0  0  0  0  0  0  0  0  0
   38.9630   22.6340   38.6420 N   0  0  0  0  0  0  0  0  0  0  0  0
   38.4930   21.6990   38.4950 H   0  0  0  0  0  0  0  0  0  0  0  0
   40.0470   22.6970   37.7020 C   0  0  0  0  0  2  0  0  0  0  0  0
   39.5300   22.6410   36.2660 C   0  0  0  0  0  2  0  0  0  0  0  0
   37.0440   27.0290   32.9710 C   0  0  0  0  0  0  0  0  0  0  0  0
   38.0460   27.7170   32.3020 F   0  0  0  0  0  0  0  0  0  0  0  0
   35.9120   27.1200   32.1740 F   0  0  0  0  0  0  0  0  0  0  0  0
   36.7690   27.7140   34.1270 F   0  0  0  0  0  0  0  0  0  0  0  0
  1  2  1  0  0  0  0
  2  8  1  0  0  0  0
  2  3  2  0  0  0  0
  3  9  1  0  0  0  0
  4  3  1  0  0  0  0
  5  4  2  0  0  0  0
  6  1  2  0  0  0  0
  6  5  1  0  0  0  0
  7  1  1  0  0  0  0
  9 17  1  0  0  0  0
  9 10  1  0  0  0  0
 10 12  1  0  0  0  0
 11 10  1  0  0  0  0
 12 14  1  0  0  0  0
 12 13  1  0  0  0  0
 15 14  1  0  0  0  0
 16 14  1  0  0  0  0
 17 16  1  0  0  0  0
 18  5  1  0  0  0  0
 18 21  1  0  0  0  0
 19 18  1  0  0  0  0
 20 18  1  0  0  0  0
M  END
>  <minimizedAffinity>
-4.67064667

$$$$

 OpenBabel03272510033D

 21 22  0  0  0  0  0  0  0  0999 V2000
   40.7400   26.6870   33.8080 C   0  0  0  0  0  0  0  0  0  0  0  0
   40.6460   25.6910   34.7840 C   0  0  0  0  0  0  0  0  0  0  0  0
   39.3740   25.3020   35.2000 C   0  0  0  0  0  0  0  0  0  0  0  0
   38.3060   25.9150   34.6300 N   0  0  0  0  0  0  0  0  0  0  0  0
   38.4170   26.8660   33.6980 C   0  0  0  0  0  0  0  0  0  0  0  0
   39.6430   27.2490   33.2880 N   0  0  0  0  0  0  0  0  0  0  0  0
   41.7530   26.9810   33.4910 H   0  0  0  0  0  0  0  0  0  0  0  0
   41.4910   25.1930   35.2470 H   0  0  0  0  0  0  0  0  0  0  0  0
   39.1330   24.3080   36.1800 N   0  0  0  0  0  0  0  0  0  0  0  0
   39.8820   23.0580   36.2590 C   0  0  0  0  0  3  0  0  0  0  0  0
   40.8740   23.1510   35.7700 H   0  0  0  0  0  0  0  0  0  0  0  0
   40.1100   22.6310   37.6740 C   0  0  0  0  0  3  0  0  0  0  0  0
   40.3480   21.5480   37.6550 H   0  0  0  0  0  0  0  0  0  0  0  0
   39.0140   22.8440   38.5670 N   0  0  0  0  0  0  0  0  0  0  0  0
   39.2990   23.6000   39.2470 H   0  0  0  0  0  0  0  0  0  0  0  0
   37.8180   23.3060   37.9210 C   0  0  0  0  0  2  0  0  0  0  0  0
   38.0820   24.5860   37.1300 C   0  0  0  0  0  2  0  0  0  0  0  0
   37.1770   27.4670   33.1450 C   0  0  0  0  0  0  0  0  0  0  0  0
   36.4510   28.1470   34.1130 F   0  0  0  0  0  0  0  0  0  0  0  0
   37.4740   28.3950   32.1590 F   0  0  0  0  0  0  0  0  0  0  0  0
   36.3430   26.5380   32.5750 F   0  0  0  0  0  0  0  0  0  0  0  0
  1  2  1  0  0  0  0
  2  3  2  0  0  0  0
  2  8  1  0  0  0  0
  3  9  1  0  0  0  0
  4  3  1  0  0  0  0
  5  4  2  0  0  0  0
  6  5  1  0  0  0  0
  6  1  2  0  0  0  0
  7  1  1  0  0  0  0
  9 10  1  0  0  0  0
  9 17  1  0  0  0  0
 10 12  1  0  0  0  0
 11 10  1  0  0  0  0
 12 14  1  0  0  0  0
 13 12  1  0  0  0  0
 14 15  1  0  0  0  0
 16 14  1  0  0  0  0
 17 16  1  0  0  0  0
 18  5  1  0  0  0  0
 18 19  1  0  0  0  0
 20 18  1  0  0  0  0
 21 18  1  0  0  0  0
M  END
>  <minimizedAffinity>
-4.63594389

$$$$

 OpenBabel03272510033D

 21 22  0  0  0  0  0  0  0  0999 V2000
   40.6720   23.7550   34.7910 C   0  0  0  0  0  0  0  0  0  0  0  0
   39.8150   24.0850   33.7380 C   0  0  0  0  0  0  0  0  0  0  0  0
   38.4720   24.3120   34.0340 C   0  0  0  0  0  0  0  0  0  0  0  0
   38.0810   24.1970   35.3280 N   0  0  0  0  0  0  0  0  0  0  0  0
   38.9160   23.8800   36.3220 C   0  0  0  0  0  0  0  0  0  0  0  0
   40.2180   23.6590   36.0460 N   0  0  0  0  0  0  0  0  0  0  0  0
   41.7300   23.5800   34.5380 H   0  0  0  0  0  0  0  0  0  0  0  0
   40.1150   24.1810   32.6990 H   0  0  0  0  0  0  0  0  0  0  0  0
   37.4960   24.6530   33.0660 N   0  0  0  0  0  0  0  0  0  0  0  0
   36.9890   26.0080   32.8780 C   0  0  0  0  0  3  0  0  0  0  0  0
   37.7070   26.7650   33.2570 H   0  0  0  0  0  0  0  0  0  0  0  0
   36.7250   26.3130   31.4380 C   0  0  0  0  0  3  0  0  0  0  0  0
   36.0320   27.1780   31.4070 H   0  0  0  0  0  0  0  0  0  0  0  0
   36.1580   25.2450   30.6750 N   0  0  0  0  0  0  0  0  0  0  0  0
   36.8890   24.9220   29.9840 H   0  0  0  0  0  0  0  0  0  0  0  0
   35.8030   24.0950   31.4580 C   0  0  0  0  0  2  0  0  0  0  0  0
   37.0060   23.5730   32.2420 C   0  0  0  0  0  2  0  0  0  0  0  0
   38.3750   23.7820   37.7010 C   0  0  0  0  0  0  0  0  0  0  0  0
   37.2560   22.9630   37.7650 F   0  0  0  0  0  0  0  0  0  0  0  0
   39.3100   23.2280   38.5620 F   0  0  0  0  0  0  0  0  0  0  0  0
   38.0280   25.0020   38.2240 F   0  0  0  0  0  0  0  0  0  0  0  0
  1  6  1  0  0  0  0
  2  3  1  0  0  0  0
  2  1  2  0  0  0  0
  3  4  2  0  0  0  0
  4  5  1  0  0  0  0
  5 18  1  0  0  0  0
  6  5  2  0  0  0  0
  7  1  1  0  0  0  0
  8  2  1  0  0  0  0
  9  3  1  0  0  0  0
 10  9  1  0  0  0  0
 10 11  1  0  0  0  0
 12 10  1  0  0  0  0
 13 12  1  0  0  0  0
 14 12  1  0  0  0  0
 14 16  1  0  0  0  0
 15 14  1  0  0  0  0
 16 17  1  0  0  0  0
 17  9  1  0  0  0  0
 18 19  1  0  0  0  0
 18 21  1  0  0  0  0
 18 20  1  0  0  0  0
M  END
>  <minimizedAffinity>
-4.57515955

$$$$

 OpenBabel03272510033D

 21 22  0  0  0  0  0  0  0  0999 V2000
   37.8290   22.3710   34.9060 C   0  0  0  0  0  0  0  0  0  0  0  0
   38.3580   23.4030   34.1270 C   0  0  0  0  0  0  0  0  0  0  0  0
   38.8480   24.5320   34.7820 C   0  0  0  0  0  0  0  0  0  0  0  0
   38.7780   24.5570   36.1370 N   0  0  0  0  0  0  0  0  0  0  0  0
   38.2680   23.5590   36.8650 C   0  0  0  0  0  0  0  0  0  0  0  0
   37.7930   22.4620   36.2400 N   0  0  0  0  0  0  0  0  0  0  0  0
   37.4480   21.4860   34.3710 H   0  0  0  0  0  0  0  0  0  0  0  0
   38.4200   23.3950   33.0440 H   0  0  0  0  0  0  0  0  0  0  0  0
   39.4100   25.6490   34.1180 N   0  0  0  0  0  0  0  0  0  0  0  0
   40.2590   26.6350   34.7790 C   0  0  0  0  0  3  0  0  0  0  0  0
   40.7320   26.2130   35.6900 H   0  0  0  0  0  0  0  0  0  0  0  0
   41.3510   27.1230   33.8830 C   0  0  0  0  0  3  0  0  0  0  0  0
   41.7120   28.0850   34.3000 H   0  0  0  0  0  0  0  0  0  0  0  0
   40.9850   27.3250   32.5160 N   0  0  0  0  0  0  0  0  0  0  0  0
   41.4830   26.5930   31.9400 H   0  0  0  0  0  0  0  0  0  0  0  0
   39.5820   27.1580   32.2590 C   0  0  0  0  0  2  0  0  0  0  0  0
   39.1010   25.7810   32.7130 C   0  0  0  0  0  2  0  0  0  0  0  0
   38.2440   23.6980   38.3420 C   0  0  0  0  0  0  0  0  0  0  0  0
   37.3270   22.8380   38.9320 F   0  0  0  0  0  0  0  0  0  0  0  0
   39.4780   23.3810   38.8900 F   0  0  0  0  0  0  0  0  0  0  0  0
   37.9440   24.9710   38.7530 F   0  0  0  0  0  0  0  0  0  0  0  0
  1  6  1  0  0  0  0
  2  3  1  0  0  0  0
  2  1  2  0  0  0  0
  3  4  2  0  0  0  0
  4  5  1  0  0  0  0
  5 18  1  0  0  0  0
  6  5  2  0  0  0  0
  7  1  1  0  0  0  0
  8  2  1  0  0  0  0
  9 10  1  0  0  0  0
  9  3  1  0  0  0  0
 10 11  1  0  0  0  0
 12 13  1  0  0  0  0
 12 10  1  0  0  0  0
 14 12  1  0  0  0  0
 15 14  1  0  0  0  0
 16 14  1  0  0  0  0
 16 17  1  0  0  0  0
 17  9  1  0  0  0  0
 18 21  1  0  0  0  0
 18 20  1  0  0  0  0
 18 19  1  0  0  0  0
M  END
>  <minimizedAffinity>
-4.5669055

$$$$

 OpenBabel03272510033D

 21 22  0  0  0  0  0  0  0  0999 V2000
   40.8980   22.2370   36.0440 C   0  0  0  0  0  0  0  0  0  0  0  0
   40.1780   22.1540   34.8490 C   0  0  0  0  0  0  0  0  0  0  0  0
   38.8530   22.5870   34.8520 C   0  0  0  0  0  0  0  0  0  0  0  0
   38.3460   23.0620   36.0180 N   0  0  0  0  0  0  0  0  0  0  0  0
   39.0510   23.1330   37.1500 C   0  0  0  0  0  0  0  0  0  0  0  0
   40.3330   22.7170   37.1570 N   0  0  0  0  0  0  0  0  0  0  0  0
   41.9430   21.8900   36.0210 H   0  0  0  0  0  0  0  0  0  0  0  0
   40.5720   21.7760   33.9110 H   0  0  0  0  0  0  0  0  0  0  0  0
   38.0100   22.5600   33.7150 N   0  0  0  0  0  0  0  0  0  0  0  0
   37.4340   21.3350   33.1690 C   0  0  0  0  0  3  0  0  0  0  0  0
   37.3840   20.5360   33.9380 H   0  0  0  0  0  0  0  0  0  0  0  0
   36.0500   21.5520   32.6470 C   0  0  0  0  0  3  0  0  0  0  0  0
   35.8270   20.7160   31.9530 H   0  0  0  0  0  0  0  0  0  0  0  0
   35.8350   22.7880   31.9610 N   0  0  0  0  0  0  0  0  0  0  0  0
   35.1940   23.3770   32.5580 H   0  0  0  0  0  0  0  0  0  0  0  0
   37.0300   23.5590   31.7640 C   0  0  0  0  0  2  0  0  0  0  0  0
   37.7320   23.8330   33.0930 C   0  0  0  0  0  2  0  0  0  0  0  0
   38.3900   23.6710   38.3660 C   0  0  0  0  0  0  0  0  0  0  0  0
   37.8690   24.9410   38.1570 F   0  0  0  0  0  0  0  0  0  0  0  0
   37.3220   22.8720   38.7440 F   0  0  0  0  0  0  0  0  0  0  0  0
   39.2340   23.7400   39.4440 F   0  0  0  0  0  0  0  0  0  0  0  0
  1  6  1  0  0  0  0
  2  3  1  0  0  0  0
  2  1  2  0  0  0  0
  3  4  2  0  0  0  0
  4  5  1  0  0  0  0
  5  6  2  0  0  0  0
  5 18  1  0  0  0  0
  7  1  1  0  0  0  0
  8  2  1  0  0  0  0
  9  3  1  0  0  0  0
 10  9  1  0  0  0  0
 10 11  1  0  0  0  0
 12 10  1  0  0  0  0
 13 12  1  0  0  0  0
 14 15  1  0  0  0  0
 14 12  1  0  0  0  0
 16 14  1  0  0  0  0
 16 17  1  0  0  0  0
 17  9  1  0  0  0  0
 18 20  1  0  0  0  0
 18 21  1  0  0  0  0
 19 18  1  0  0  0  0
M  END
>  <minimizedAffinity>
-4.55630159

$$$$
