
 OpenBabel03272510003D

 21 22  0  0  0  0  0  0  0  0999 V2000
   38.2970   31.3480   50.1890 C   0  0  0  0  0  0  0  0  0  0  0  0
   38.4140   31.5930   48.8180 C   0  0  0  0  0  0  0  0  0  0  0  0
   37.4250   31.0860   47.9770 C   0  0  0  0  0  0  0  0  0  0  0  0
   36.4100   30.3870   48.5430 N   0  0  0  0  0  0  0  0  0  0  0  0
   36.3160   30.1630   49.8570 C   0  0  0  0  0  0  0  0  0  0  0  0
   37.2670   30.6490   50.6800 N   0  0  0  0  0  0  0  0  0  0  0  0
   39.0880   31.7560   50.8380 H   0  0  0  0  0  0  0  0  0  0  0  0
   39.2210   32.1500   48.3530 H   0  0  0  0  0  0  0  0  0  0  0  0
   37.4190   31.2590   46.5710 N   0  0  0  0  0  0  0  0  0  0  0  0
   38.2530   32.2340   45.8760 C   0  0  0  0  0  3  0  0  0  0  0  0
   39.1420   32.5100   46.4830 H   0  0  0  0  0  0  0  0  0  0  0  0
   38.7440   31.7160   44.5620 C   0  0  0  0  0  3  0  0  0  0  0  0
   39.0480   32.5930   43.9570 H   0  0  0  0  0  0  0  0  0  0  0  0
   37.8010   30.9460   43.8110 N   0  0  0  0  0  0  0  0  0  0  0  0
   38.1420   29.9480   43.7970 H   0  0  0  0  0  0  0  0  0  0  0  0
   36.4850   30.9180   44.3870 C   0  0  0  0  0  2  0  0  0  0  0  0
   36.5260   30.4060   45.8250 C   0  0  0  0  0  2  0  0  0  0  0  0
   35.1590   29.3840   50.3640 C   0  0  0  0  0  0  0  0  0  0  0  0
   35.2620   29.1210   51.7230 F   0  0  0  0  0  0  0  0  0  0  0  0
   33.9750   30.0860   50.1940 F   0  0  0  0  0  0  0  0  0  0  0  0
   35.0020   28.1830   49.7190 F   0  0  0  0  0  0  0  0  0  0  0  0
  1  6  1  0  0  0  0
  1  7  1  0  0  0  0
  2  1  2  0  0  0  0
  3  4  2  0  0  0  0
  3  2  1  0  0  0  0
  4  5  1  0  0  0  0
  5 18  1  0  0  0  0
  5  6  2  0  0  0  0
  8  2  1  0  0  0  0
  9  3  1  0  0  0  0
 10 11  1  0  0  0  0
 10  9  1  0  0  0  0
 12 10  1  0  0  0  0
 13 12  1  0  0  0  0
 14 16  1  0  0  0  0
 14 12  1  0  0  0  0
 15 14  1  0  0  0  0
 16 17  1  0  0  0  0
 17  9  1  0  0  0  0
 18 19  1  0  0  0  0
 20 18  1  0  0  0  0
 21 18  1  0  0  0  0
M  END
>  <minimizedAffinity>
-5.12420797

>  <minimizedRMSD>
0.424952656

$$$$
