
 OpenBabel03272508223D

 42 45  0  0  1  0  0  0  0  0999 V2000
   36.8350   27.1760   34.9280 C   0  0  0  0  0  0  0  0  0  0  0  0
   36.0320   27.2150   35.7230 H   0  0  0  0  0  0  0  0  0  0  0  0
   36.7210   26.1520   34.5050 H   0  0  0  0  0  0  0  0  0  0  0  0
   37.5240   26.5990   32.3050 F   0  0  0  0  0  0  0  0  0  0  0  0
   36.8890   27.7400   32.6310 C   0  0  0  0  0  0  0  0  0  0  0  0
   36.5020   28.1320   33.9250 C   0  0  0  0  0  0  0  0  0  0  0  0
   35.8960   29.3370   34.0390 C   0  0  0  0  0  0  0  0  0  0  0  0
   35.6450   30.1560   32.9880 C   0  0  0  0  0  0  0  0  0  0  0  0
   36.0320   29.7600   31.6900 C   0  0  0  0  0  0  0  0  0  0  0  0
   36.6740   28.5150   31.5270 C   0  0  0  0  0  0  0  0  0  0  0  0
   35.6220   29.8000   34.9380 H   0  0  0  0  0  0  0  0  0  0  0  0
   35.1500   31.1400   33.0340 H   0  0  0  0  0  0  0  0  0  0  0  0
   35.8220   30.4360   30.8430 H   0  0  0  0  0  0  0  0  0  0  0  0
   37.0050   28.2680   30.2240 O   0  0  0  0  0  0  0  0  0  0  0  0
   38.8900   26.6000   30.2100 H   0  0  0  0  0  0  0  0  0  0  0  0
   38.6770   27.0150   29.2690 N   0  0  0  0  0  0  0  0  0  0  0  0
   38.2000   28.3740   29.5740 C   0  0  1  0  0  3  0  0  0  0  0  0
   37.9980   29.0990   28.2320 C   0  0  0  0  0  3  0  0  0  0  0  0
   37.8340   30.1740   28.4480 H   0  0  0  0  0  0  0  0  0  0  0  0
   39.1510   28.9950   27.3970 N   0  0  0  0  0  0  0  0  0  0  0  0
   39.8360   29.7550   27.4810 H   0  0  0  0  0  0  0  0  0  0  0  0
   39.6810   27.6780   27.2280 C   0  0  0  0  0  2  0  0  0  0  0  0
   39.9640   27.1010   28.5980 C   0  0  0  0  0  2  0  0  0  0  0  0
   38.1240   27.3560   35.6320 C   0  0  0  0  0  0  0  0  0  0  0  0
   37.9750   27.4520   36.7270 H   0  0  0  0  0  0  0  0  0  0  0  0
   38.5080   28.3820   35.3380 H   0  0  0  0  0  0  0  0  0  0  0  0
   39.1190   25.1190   35.7500 C   0  0  0  0  0  0  0  0  0  0  0  0
   39.1670   26.4220   35.3450 C   0  0  0  0  0  0  0  0  0  0  0  0
   40.3210   26.7470   34.7120 C   0  0  0  0  0  0  0  0  0  0  0  0
   41.3220   25.8910   34.5010 N   0  0  0  0  0  0  0  0  0  0  0  0
   41.2770   24.6260   34.8960 C   0  0  0  0  0  0  0  0  0  0  0  0
   40.1740   24.2260   35.5270 N   0  0  0  0  0  0  0  0  0  0  0  0
   40.5050   27.7620   34.3250 H   0  0  0  0  0  0  0  0  0  0  0  0
   42.0610   23.9270   34.7410 H   0  0  0  0  0  0  0  0  0  0  0  0
   37.8420   24.5200   36.3370 C   0  0  0  0  0  0  0  0  0  0  0  0
   37.7960   23.2740   36.9400 C   0  0  0  0  0  0  0  0  0  0  0  0
   38.0930   24.4130   37.9010 C   0  0  0  0  0  0  0  0  0  0  0  0
   36.9240   25.0190   36.1610 H   0  0  0  0  0  0  0  0  0  0  0  0
   38.6830   22.5790   36.8270 H   0  0  0  0  0  0  0  0  0  0  0  0
   36.8990   22.7090   37.1640 H   0  0  0  0  0  0  0  0  0  0  0  0
   39.0960   24.5390   38.2760 H   0  0  0  0  0  0  0  0  0  0  0  0
   37.2620   24.8390   38.4790 H   0  0  0  0  0  0  0  0  0  0  0  0
  1 24  1  0  0  0  0
  1  2  1  0  0  0  0
  3  1  1  0  0  0  0
  4  5  1  0  0  0  0
  5  6  1  0  0  0  0
  6  7  2  0  0  0  0
  6  1  1  0  0  0  0
  7 11  1  0  0  0  0
  8 12  1  0  0  0  0
  8  7  1  0  0  0  0
  9  8  2  0  0  0  0
 10  9  1  0  0  0  0
 10  5  2  0  0  0  0
 13  9  1  0  0  0  0
 14 10  1  0  0  0  0
 16 17  1  0  0  0  0
 16 15  1  0  0  0  0
 17 14  1  6  0  0  0
 18 19  1  0  0  0  0
 18 17  1  0  0  0  0
 20 21  1  0  0  0  0
 20 18  1  0  0  0  0
 22 20  1  0  0  0  0
 22 23  1  0  0  0  0
 23 16  1  0  0  0  0
 24 25  1  0  0  0  0
 26 24  1  0  0  0  0
 27 35  1  0  0  0  0
 28 24  1  0  0  0  0
 28 27  2  0  0  0  0
 29 28  1  0  0  0  0
 30 29  2  0  0  0  0
 30 31  1  0  0  0  0
 31 32  2  0  0  0  0
 32 27  1  0  0  0  0
 33 29  1  0  0  0  0
 34 31  1  0  0  0  0
 35 36  1  0  0  0  0
 35 37  1  0  0  0  0
 36 40  1  0  0  0  0
 36 37  1  0  0  0  0
 37 41  1  0  0  0  0
 37 42  1  0  0  0  0
 38 35  1  0  0  0  0
 39 36  1  0  0  0  0
M  END
>  <minimizedAffinity>
-5.72108698

$$$$

 OpenBabel03272508223D

 42 45  0  0  1  0  0  0  0  0999 V2000
   36.2010   29.1000   33.1220 C   0  0  0  0  0  0  0  0  0  0  0  0
   36.9110   29.6650   33.7970 H   0  0  0  0  0  0  0  0  0  0  0  0
   36.4190   29.5240   32.1150 H   0  0  0  0  0  0  0  0  0  0  0  0
   37.4000   28.1150   35.4190 F   0  0  0  0  0  0  0  0  0  0  0  0
   37.1760   27.3280   34.3500 C   0  0  0  0  0  0  0  0  0  0  0  0
   36.5840   27.7280   33.1380 C   0  0  0  0  0  0  0  0  0  0  0  0
   36.4760   26.7830   32.1760 C   0  0  0  0  0  0  0  0  0  0  0  0
   36.8940   25.5020   32.3270 C   0  0  0  0  0  0  0  0  0  0  0  0
   37.4860   25.1020   33.5440 C   0  0  0  0  0  0  0  0  0  0  0  0
   37.6260   26.0580   34.5720 C   0  0  0  0  0  0  0  0  0  0  0  0
   36.1330   26.9420   31.1990 H   0  0  0  0  0  0  0  0  0  0  0  0
   36.8210   24.7010   31.5730 H   0  0  0  0  0  0  0  0  0  0  0  0
   37.8220   24.0570   33.6540 H   0  0  0  0  0  0  0  0  0  0  0  0
   38.2270   25.5390   35.6840 O   0  0  0  0  0  0  0  0  0  0  0  0
   40.1190   24.1740   34.7390 H   0  0  0  0  0  0  0  0  0  0  0  0
   40.0060   24.0880   35.7790 N   0  0  0  0  0  0  0  0  0  0  0  0
   38.5600   24.2540   35.9990 C   0  0  1  0  0  3  0  0  0  0  0  0
   38.2920   24.0000   37.4930 C   0  0  0  0  0  3  0  0  0  0  0  0
   37.1950   23.9240   37.6330 H   0  0  0  0  0  0  0  0  0  0  0  0
   38.8720   22.7710   37.9310 N   0  0  0  0  0  0  0  0  0  0  0  0
   38.2640   21.9460   37.8830 H   0  0  0  0  0  0  0  0  0  0  0  0
   40.2440   22.5710   37.5840 C   0  0  0  0  0  2  0  0  0  0  0  0
   40.3790   22.7160   36.0840 C   0  0  0  0  0  2  0  0  0  0  0  0
   34.8360   29.4270   33.5890 C   0  0  0  0  0  0  0  0  0  0  0  0
   34.2170   28.5120   33.6970 H   0  0  0  0  0  0  0  0  0  0  0  0
   34.3290   29.9750   32.7350 H   0  0  0  0  0  0  0  0  0  0  0  0
   33.5340   30.4280   35.4090 C   0  0  0  0  0  0  0  0  0  0  0  0
   34.7170   30.2560   34.7470 C   0  0  0  0  0  0  0  0  0  0  0  0
   35.7320   30.9960   35.2550 C   0  0  0  0  0  0  0  0  0  0  0  0
   35.6050   31.8190   36.2970 N   0  0  0  0  0  0  0  0  0  0  0  0
   34.4570   31.9890   36.9390 C   0  0  0  0  0  0  0  0  0  0  0  0
   33.4080   31.2950   36.5000 N   0  0  0  0  0  0  0  0  0  0  0  0
   36.7470   30.9610   34.8280 H   0  0  0  0  0  0  0  0  0  0  0  0
   34.3310   32.6400   37.7690 H   0  0  0  0  0  0  0  0  0  0  0  0
   32.3160   29.5640   35.0890 C   0  0  0  0  0  0  0  0  0  0  0  0
   31.0440   29.8430   35.5600 C   0  0  0  0  0  0  0  0  0  0  0  0
   31.3560   30.4770   34.2140 C   0  0  0  0  0  0  0  0  0  0  0  0
   32.4690   28.6400   34.5950 H   0  0  0  0  0  0  0  0  0  0  0  0
   30.9200   30.6230   36.3710 H   0  0  0  0  0  0  0  0  0  0  0  0
   30.2020   29.1610   35.5600 H   0  0  0  0  0  0  0  0  0  0  0  0
   31.5510   31.5360   34.1620 H   0  0  0  0  0  0  0  0  0  0  0  0
   31.0190   29.9630   33.3050 H   0  0  0  0  0  0  0  0  0  0  0  0
  1  6  1  0  0  0  0
  1 24  1  0  0  0  0
  1  2  1  0  0  0  0
  3  1  1  0  0  0  0
  5 10  1  0  0  0  0
  5  4  1  0  0  0  0
  6  5  2  0  0  0  0
  7  8  2  0  0  0  0
  7  6  1  0  0  0  0
  8  9  1  0  0  0  0
  9 13  1  0  0  0  0
  9 10  2  0  0  0  0
 10 14  1  0  0  0  0
 11  7  1  0  0  0  0
 12  8  1  0  0  0  0
 15 16  1  0  0  0  0
 16 17  1  0  0  0  0
 16 23  1  0  0  0  0
 17 14  1  1  0  0  0
 17 18  1  0  0  0  0
 18 19  1  0  0  0  0
 18 20  1  0  0  0  0
 21 20  1  0  0  0  0
 22 20  1  0  0  0  0
 23 22  1  0  0  0  0
 24 25  1  0  0  0  0
 24 28  1  0  0  0  0
 26 24  1  0  0  0  0
 27 32  1  0  0  0  0
 28 29  1  0  0  0  0
 28 27  2  0  0  0  0
 29 30  2  0  0  0  0
 30 31  1  0  0  0  0
 31 34  1  0  0  0  0
 32 31  2  0  0  0  0
 33 29  1  0  0  0  0
 35 27  1  0  0  0  0
 35 36  1  0  0  0  0
 36 40  1  0  0  0  0
 36 39  1  0  0  0  0
 37 35  1  0  0  0  0
 37 36  1  0  0  0  0
 38 35  1  0  0  0  0
 41 37  1  0  0  0  0
 42 37  1  0  0  0  0
M  END
>  <minimizedAffinity>
-5.70223999

$$$$

 OpenBabel03272508223D

 42 45  0  0  1  0  0  0  0  0999 V2000
   37.0160   27.0620   34.9020 C   0  0  0  0  0  0  0  0  0  0  0  0
   36.2260   27.4470   35.6140 H   0  0  0  0  0  0  0  0  0  0  0  0
   36.7040   26.0070   34.7260 H   0  0  0  0  0  0  0  0  0  0  0  0
   34.9710   28.9220   34.6980 F   0  0  0  0  0  0  0  0  0  0  0  0
   35.8330   28.7110   33.6860 C   0  0  0  0  0  0  0  0  0  0  0  0
   36.8970   27.7900   33.6840 C   0  0  0  0  0  0  0  0  0  0  0  0
   37.6320   27.7160   32.5500 C   0  0  0  0  0  0  0  0  0  0  0  0
   37.3990   28.4730   31.4500 C   0  0  0  0  0  0  0  0  0  0  0  0
   36.3320   29.3970   31.4540 C   0  0  0  0  0  0  0  0  0  0  0  0
   35.5350   29.5030   32.6130 C   0  0  0  0  0  0  0  0  0  0  0  0
   38.4010   27.0290   32.3650 H   0  0  0  0  0  0  0  0  0  0  0  0
   37.9740   28.4480   30.5100 H   0  0  0  0  0  0  0  0  0  0  0  0
   36.1540   30.0080   30.5520 H   0  0  0  0  0  0  0  0  0  0  0  0
   34.5350   30.4220   32.4730 O   0  0  0  0  0  0  0  0  0  0  0  0
   32.7010   29.6170   33.9990 H   0  0  0  0  0  0  0  0  0  0  0  0
   32.4340   30.4400   33.4050 N   0  0  0  0  0  0  0  0  0  0  0  0
   33.2140   30.2610   32.1690 C   0  0  1  0  0  3  0  0  0  0  0  0
   32.7710   31.3580   31.1850 C   0  0  0  0  0  3  0  0  0  0  0  0
   33.1980   31.1150   30.1910 H   0  0  0  0  0  0  0  0  0  0  0  0
   31.3500   31.4010   31.0480 N   0  0  0  0  0  0  0  0  0  0  0  0
   30.9550   30.8340   30.2890 H   0  0  0  0  0  0  0  0  0  0  0  0
   30.6070   31.4340   32.2680 C   0  0  0  0  0  2  0  0  0  0  0  0
   31.0230   30.2470   33.1090 C   0  0  0  0  0  2  0  0  0  0  0  0
   38.3050   27.1560   35.6230 C   0  0  0  0  0  0  0  0  0  0  0  0
   38.1480   27.3250   36.7090 H   0  0  0  0  0  0  0  0  0  0  0  0
   38.7900   28.1240   35.2840 H   0  0  0  0  0  0  0  0  0  0  0  0
   39.1020   24.8570   35.9210 C   0  0  0  0  0  0  0  0  0  0  0  0
   39.2580   26.1130   35.4080 C   0  0  0  0  0  0  0  0  0  0  0  0
   40.4270   26.2810   34.7410 C   0  0  0  0  0  0  0  0  0  0  0  0
   41.3450   25.3250   34.5950 N   0  0  0  0  0  0  0  0  0  0  0  0
   41.1960   24.1060   35.0960 C   0  0  0  0  0  0  0  0  0  0  0  0
   40.0710   23.8590   35.7660 N   0  0  0  0  0  0  0  0  0  0  0  0
   40.6930   27.2410   34.2700 H   0  0  0  0  0  0  0  0  0  0  0  0
   41.9130   23.3300   34.9940 H   0  0  0  0  0  0  0  0  0  0  0  0
   37.7860   24.4240   36.5650 C   0  0  0  0  0  0  0  0  0  0  0  0
   37.6310   23.2270   37.2430 C   0  0  0  0  0  0  0  0  0  0  0  0
   38.0610   24.3860   38.1280 C   0  0  0  0  0  0  0  0  0  0  0  0
   36.9180   25.0010   36.3750 H   0  0  0  0  0  0  0  0  0  0  0  0
   38.4430   22.4420   37.1580 H   0  0  0  0  0  0  0  0  0  0  0  0
   36.6880   22.7680   37.5170 H   0  0  0  0  0  0  0  0  0  0  0  0
   39.0800   24.4330   38.4770 H   0  0  0  0  0  0  0  0  0  0  0  0
   37.2900   24.9250   38.6930 H   0  0  0  0  0  0  0  0  0  0  0  0
  1  2  1  0  0  0  0
  1 24  1  0  0  0  0
  3  1  1  0  0  0  0
  5  4  1  0  0  0  0
  6  5  1  0  0  0  0
  6  1  1  0  0  0  0
  7  6  2  0  0  0  0
  8  9  2  0  0  0  0
  8  7  1  0  0  0  0
  9 10  1  0  0  0  0
 10  5  2  0  0  0  0
 11  7  1  0  0  0  0
 12  8  1  0  0  0  0
 13  9  1  0  0  0  0
 14 10  1  0  0  0  0
 16 15  1  0  0  0  0
 17 14  1  1  0  0  0
 17 16  1  0  0  0  0
 18 17  1  0  0  0  0
 19 18  1  0  0  0  0
 20 18  1  0  0  0  0
 20 22  1  0  0  0  0
 21 20  1  0  0  0  0
 22 23  1  0  0  0  0
 23 16  1  0  0  0  0
 24 25  1  0  0  0  0
 26 24  1  0  0  0  0
 27 35  1  0  0  0  0
 28 24  1  0  0  0  0
 28 27  2  0  0  0  0
 29 28  1  0  0  0  0
 30 29  2  0  0  0  0
 30 31  1  0  0  0  0
 31 32  2  0  0  0  0
 32 27  1  0  0  0  0
 33 29  1  0  0  0  0
 34 31  1  0  0  0  0
 35 36  1  0  0  0  0
 35 37  1  0  0  0  0
 36 40  1  0  0  0  0
 36 37  1  0  0  0  0
 37 41  1  0  0  0  0
 37 42  1  0  0  0  0
 38 35  1  0  0  0  0
 39 36  1  0  0  0  0
M  END
>  <minimizedAffinity>
-5.63531876

$$$$

 OpenBabel03272508223D

 42 45  0  0  1  0  0  0  0  0999 V2000
   36.2860   28.5980   34.2450 C   0  0  0  0  0  0  0  0  0  0  0  0
   35.5260   28.4330   35.0660 H   0  0  0  0  0  0  0  0  0  0  0  0
   37.0590   29.2290   34.7410 H   0  0  0  0  0  0  0  0  0  0  0  0
   38.0370   27.4610   36.0700 F   0  0  0  0  0  0  0  0  0  0  0  0
   37.7260   26.8440   34.9140 C   0  0  0  0  0  0  0  0  0  0  0  0
   36.8580   27.3340   33.9220 C   0  0  0  0  0  0  0  0  0  0  0  0
   36.7020   26.5650   32.8190 C   0  0  0  0  0  0  0  0  0  0  0  0
   37.3220   25.3730   32.6380 C   0  0  0  0  0  0  0  0  0  0  0  0
   38.1900   24.8820   33.6350 C   0  0  0  0  0  0  0  0  0  0  0  0
   38.3880   25.6550   34.7990 C   0  0  0  0  0  0  0  0  0  0  0  0
   36.1570   26.8280   31.9640 H   0  0  0  0  0  0  0  0  0  0  0  0
   37.2200   24.7140   31.7600 H   0  0  0  0  0  0  0  0  0  0  0  0
   38.6880   23.9100   33.4760 H   0  0  0  0  0  0  0  0  0  0  0  0
   39.2620   25.0680   35.6700 O   0  0  0  0  0  0  0  0  0  0  0  0
   40.9620   23.4910   34.6910 H   0  0  0  0  0  0  0  0  0  0  0  0
   40.8670   23.4250   35.7340 N   0  0  0  0  0  0  0  0  0  0  0  0
   39.4550   23.7550   35.9880 C   0  0  1  0  0  3  0  0  0  0  0  0
   39.1990   23.5420   37.4900 C   0  0  0  0  0  3  0  0  0  0  0  0
   38.1040   23.5920   37.6590 H   0  0  0  0  0  0  0  0  0  0  0  0
   39.6470   22.2590   37.9250 N   0  0  0  0  0  0  0  0  0  0  0  0
   38.9480   21.5070   37.9000 H   0  0  0  0  0  0  0  0  0  0  0  0
   40.9780   21.9010   37.5460 C   0  0  0  0  0  2  0  0  0  0  0  0
   41.0900   22.0200   36.0420 C   0  0  0  0  0  2  0  0  0  0  0  0
   35.5790   29.3180   33.1630 C   0  0  0  0  0  0  0  0  0  0  0  0
   35.4620   28.6780   32.2640 H   0  0  0  0  0  0  0  0  0  0  0  0
   36.2860   30.1300   32.8050 H   0  0  0  0  0  0  0  0  0  0  0  0
   34.2830   31.1120   34.2170 C   0  0  0  0  0  0  0  0  0  0  0  0
   34.3430   29.9550   33.4940 C   0  0  0  0  0  0  0  0  0  0  0  0
   33.1240   29.4470   33.1870 C   0  0  0  0  0  0  0  0  0  0  0  0
   31.9700   30.0080   33.5510 N   0  0  0  0  0  0  0  0  0  0  0  0
   31.9110   31.1300   34.2550 C   0  0  0  0  0  0  0  0  0  0  0  0
   33.0680   31.6940   34.5970 N   0  0  0  0  0  0  0  0  0  0  0  0
   33.0120   28.5180   32.6050 H   0  0  0  0  0  0  0  0  0  0  0  0
   31.0050   31.5940   34.5580 H   0  0  0  0  0  0  0  0  0  0  0  0
   35.5420   31.9200   34.5210 C   0  0  0  0  0  0  0  0  0  0  0  0
   35.5670   32.9800   35.4120 C   0  0  0  0  0  0  0  0  0  0  0  0
   35.8830   31.6340   36.0450 C   0  0  0  0  0  0  0  0  0  0  0  0
   36.4060   31.7510   33.9310 H   0  0  0  0  0  0  0  0  0  0  0  0
   34.5850   33.3990   35.7890 H   0  0  0  0  0  0  0  0  0  0  0  0
   36.3530   33.7210   35.4980 H   0  0  0  0  0  0  0  0  0  0  0  0
   35.1400   31.1540   36.6620 H   0  0  0  0  0  0  0  0  0  0  0  0
   36.9360   31.3570   36.1850 H   0  0  0  0  0  0  0  0  0  0  0  0
  1  3  1  0  0  0  0
  1  2  1  0  0  0  0
  5  4  1  0  0  0  0
  6  1  1  0  0  0  0
  6  5  2  0  0  0  0
  7  6  1  0  0  0  0
  8  7  2  0  0  0  0
  8  9  1  0  0  0  0
  9 10  2  0  0  0  0
 10  5  1  0  0  0  0
 10 14  1  0  0  0  0
 11  7  1  0  0  0  0
 12  8  1  0  0  0  0
 13  9  1  0  0  0  0
 15 16  1  0  0  0  0
 16 17  1  0  0  0  0
 16 23  1  0  0  0  0
 17 14  1  1  0  0  0
 17 18  1  0  0  0  0
 18 19  1  0  0  0  0
 18 20  1  0  0  0  0
 21 20  1  0  0  0  0
 22 20  1  0  0  0  0
 23 22  1  0  0  0  0
 24 28  1  0  0  0  0
 24  1  1  0  0  0  0
 25 24  1  0  0  0  0
 26 24  1  0  0  0  0
 27 35  1  0  0  0  0
 27 32  1  0  0  0  0
 28 27  2  0  0  0  0
 29 28  1  0  0  0  0
 29 30  2  0  0  0  0
 30 31  1  0  0  0  0
 31 34  1  0  0  0  0
 31 32  2  0  0  0  0
 33 29  1  0  0  0  0
 35 36  1  0  0  0  0
 35 37  1  0  0  0  0
 36 40  1  0  0  0  0
 36 39  1  0  0  0  0
 36 37  1  0  0  0  0
 37 42  1  0  0  0  0
 37 41  1  0  0  0  0
 38 35  1  0  0  0  0
M  END
>  <minimizedAffinity>
-5.58410025

$$$$

 OpenBabel03272508223D

 42 45  0  0  1  0  0  0  0  0999 V2000
   35.0900   30.4650   34.9030 C   0  0  0  0  0  0  0  0  0  0  0  0
   34.1590   31.0830   34.7300 H   0  0  0  0  0  0  0  0  0  0  0  0
   34.6950   29.5480   35.3960 H   0  0  0  0  0  0  0  0  0  0  0  0
   36.1370   27.9170   34.5940 F   0  0  0  0  0  0  0  0  0  0  0  0
   36.1220   28.7990   33.5780 C   0  0  0  0  0  0  0  0  0  0  0  0
   35.6230   30.1130   33.6300 C   0  0  0  0  0  0  0  0  0  0  0  0
   35.7290   30.8470   32.4980 C   0  0  0  0  0  0  0  0  0  0  0  0
   36.2710   30.3820   31.3460 C   0  0  0  0  0  0  0  0  0  0  0  0
   36.7700   29.0630   31.2950 C   0  0  0  0  0  0  0  0  0  0  0  0
   36.6870   28.2640   32.4550 C   0  0  0  0  0  0  0  0  0  0  0  0
   35.4780   31.8600   32.4010 H   0  0  0  0  0  0  0  0  0  0  0  0
   36.3720   30.9420   30.4020 H   0  0  0  0  0  0  0  0  0  0  0  0
   37.2090   28.6960   30.3510 H   0  0  0  0  0  0  0  0  0  0  0  0
   37.2190   27.0200   32.2680 O   0  0  0  0  0  0  0  0  0  0  0  0
   35.4200   26.1400   30.7420 H   0  0  0  0  0  0  0  0  0  0  0  0
   36.1910   25.4550   30.9360 N   0  0  0  0  0  0  0  0  0  0  0  0
   36.6350   25.7880   32.3000 C   0  0  1  0  0  3  0  0  0  0  0  0
   37.6740   24.7310   32.7140 C   0  0  0  0  0  3  0  0  0  0  0  0
   37.8660   24.8500   33.7990 H   0  0  0  0  0  0  0  0  0  0  0  0
   37.1910   23.4040   32.5000 N   0  0  0  0  0  0  0  0  0  0  0  0
   36.7170   22.9660   33.2980 H   0  0  0  0  0  0  0  0  0  0  0  0
   36.6360   23.1430   31.2100 C   0  0  0  0  0  2  0  0  0  0  0  0
   35.5400   24.1540   30.9510 C   0  0  0  0  0  2  0  0  0  0  0  0
   35.9550   31.2620   35.8020 C   0  0  0  0  0  0  0  0  0  0  0  0
   36.9770   31.3700   35.3850 H   0  0  0  0  0  0  0  0  0  0  0  0
   36.1240   30.6270   36.7260 H   0  0  0  0  0  0  0  0  0  0  0  0
   35.9410   33.7130   35.7810 C   0  0  0  0  0  0  0  0  0  0  0  0
   35.4560   32.5240   36.2480 C   0  0  0  0  0  0  0  0  0  0  0  0
   34.5140   32.6680   37.2120 C   0  0  0  0  0  0  0  0  0  0  0  0
   34.0940   33.8470   37.6740 N   0  0  0  0  0  0  0  0  0  0  0  0
   34.5670   35.0020   37.2230 C   0  0  0  0  0  0  0  0  0  0  0  0
   35.4970   34.9460   36.2720 N   0  0  0  0  0  0  0  0  0  0  0  0
   34.0290   31.7990   37.6840 H   0  0  0  0  0  0  0  0  0  0  0  0
   34.2500   35.9510   37.5760 H   0  0  0  0  0  0  0  0  0  0  0  0
   36.8880   33.7650   34.5840 C   0  0  0  0  0  0  0  0  0  0  0  0
   37.4360   34.9410   34.1000 C   0  0  0  0  0  0  0  0  0  0  0  0
   38.2850   34.2560   35.1580 C   0  0  0  0  0  0  0  0  0  0  0  0
   37.0330   32.8810   34.0170 H   0  0  0  0  0  0  0  0  0  0  0  0
   37.0220   35.9280   34.4700 H   0  0  0  0  0  0  0  0  0  0  0  0
   37.9190   35.0690   33.1380 H   0  0  0  0  0  0  0  0  0  0  0  0
   38.3200   34.6680   36.1540 H   0  0  0  0  0  0  0  0  0  0  0  0
   39.1120   33.6140   34.8290 H   0  0  0  0  0  0  0  0  0  0  0  0
  1  3  1  0  0  0  0
  1 24  1  0  0  0  0
  2  1  1  0  0  0  0
  5  6  1  0  0  0  0
  5  4  1  0  0  0  0
  6  1  1  0  0  0  0
  7  6  2  0  0  0  0
  8  7  1  0  0  0  0
  9  8  2  0  0  0  0
  9 10  1  0  0  0  0
 10  5  2  0  0  0  0
 11  7  1  0  0  0  0
 12  8  1  0  0  0  0
 13  9  1  0  0  0  0
 14 10  1  0  0  0  0
 15 16  1  0  0  0  0
 16 23  1  0  0  0  0
 16 17  1  0  0  0  0
 17 14  1  6  0  0  0
 17 18  1  0  0  0  0
 18 19  1  0  0  0  0
 20 18  1  0  0  0  0
 20 21  1  0  0  0  0
 22 20  1  0  0  0  0
 23 22  1  0  0  0  0
 24 28  1  0  0  0  0
 24 26  1  0  0  0  0
 25 24  1  0  0  0  0
 27 28  2  0  0  0  0
 27 32  1  0  0  0  0
 28 29  1  0  0  0  0
 29 30  2  0  0  0  0
 29 33  1  0  0  0  0
 31 34  1  0  0  0  0
 31 30  1  0  0  0  0
 32 31  2  0  0  0  0
 35 37  1  0  0  0  0
 35 27  1  0  0  0  0
 36 39  1  0  0  0  0
 36 35  1  0  0  0  0
 36 37  1  0  0  0  0
 37 41  1  0  0  0  0
 38 35  1  0  0  0  0
 40 36  1  0  0  0  0
 42 37  1  0  0  0  0
M  END
>  <minimizedAffinity>
-5.55114031

$$$$

 OpenBabel03272508223D

 42 45  0  0  1  0  0  0  0  0999 V2000
   35.7980   28.3330   32.2850 C   0  0  0  0  0  0  0  0  0  0  0  0
   35.6110   28.3250   31.1700 H   0  0  0  0  0  0  0  0  0  0  0  0
   35.0620   27.5910   32.6690 H   0  0  0  0  0  0  0  0  0  0  0  0
   36.3960   27.3240   34.7980 F   0  0  0  0  0  0  0  0  0  0  0  0
   37.3120   27.3430   33.8110 C   0  0  0  0  0  0  0  0  0  0  0  0
   37.1150   27.8370   32.5090 C   0  0  0  0  0  0  0  0  0  0  0  0
   38.1790   27.7860   31.6740 C   0  0  0  0  0  0  0  0  0  0  0  0
   39.3900   27.2880   32.0260 C   0  0  0  0  0  0  0  0  0  0  0  0
   39.5850   26.7920   33.3330 C   0  0  0  0  0  0  0  0  0  0  0  0
   38.5040   26.8320   34.2380 C   0  0  0  0  0  0  0  0  0  0  0  0
   38.2150   28.1840   30.7060 H   0  0  0  0  0  0  0  0  0  0  0  0
   40.2800   27.2230   31.3790 H   0  0  0  0  0  0  0  0  0  0  0  0
   40.5760   26.3890   33.6060 H   0  0  0  0  0  0  0  0  0  0  0  0
   38.8380   26.3350   35.4660 O   0  0  0  0  0  0  0  0  0  0  0  0
   38.6910   25.5570   37.8560 H   0  0  0  0  0  0  0  0  0  0  0  0
   38.1250   24.9840   37.1820 N   0  0  0  0  0  0  0  0  0  0  0  0
   38.8860   25.0500   35.9240 C   0  0  1  0  0  3  0  0  0  0  0  0
   38.1920   24.1150   34.9190 C   0  0  0  0  0  3  0  0  0  0  0  0
   38.8610   24.0020   34.0420 H   0  0  0  0  0  0  0  0  0  0  0  0
   37.9740   22.8160   35.4710 N   0  0  0  0  0  0  0  0  0  0  0  0
   38.7160   22.1270   35.3000 H   0  0  0  0  0  0  0  0  0  0  0  0
   37.3580   22.7810   36.7590 C   0  0  0  0  0  2  0  0  0  0  0  0
   38.1850   23.6270   37.7030 C   0  0  0  0  0  2  0  0  0  0  0  0
   35.5070   29.7080   32.7460 C   0  0  0  0  0  0  0  0  0  0  0  0
   35.5090   30.4260   31.9000 H   0  0  0  0  0  0  0  0  0  0  0  0
   36.4040   30.0360   33.3580 H   0  0  0  0  0  0  0  0  0  0  0  0
   34.4260   30.3540   34.8500 C   0  0  0  0  0  0  0  0  0  0  0  0
   34.3510   29.8980   33.5650 C   0  0  0  0  0  0  0  0  0  0  0  0
   33.0900   29.5830   33.1780 C   0  0  0  0  0  0  0  0  0  0  0  0
   32.0190   29.7000   33.9640 N   0  0  0  0  0  0  0  0  0  0  0  0
   32.0910   30.1400   35.2120 C   0  0  0  0  0  0  0  0  0  0  0  0
   33.2980   30.4710   35.6700 N   0  0  0  0  0  0  0  0  0  0  0  0
   32.8710   29.2040   32.1670 H   0  0  0  0  0  0  0  0  0  0  0  0
   31.2530   30.2390   35.8570 H   0  0  0  0  0  0  0  0  0  0  0  0
   35.7320   30.9090   35.4160 C   0  0  0  0  0  0  0  0  0  0  0  0
   36.1400   32.2200   35.2360 C   0  0  0  0  0  0  0  0  0  0  0  0
   35.3090   32.0000   36.4890 C   0  0  0  0  0  0  0  0  0  0  0  0
   36.4190   30.2330   35.8540 H   0  0  0  0  0  0  0  0  0  0  0  0
   35.5950   32.8630   34.4800 H   0  0  0  0  0  0  0  0  0  0  0  0
   37.1380   32.6050   35.4110 H   0  0  0  0  0  0  0  0  0  0  0  0
   34.2850   32.3380   36.5100 H   0  0  0  0  0  0  0  0  0  0  0  0
   35.8310   31.8590   37.4440 H   0  0  0  0  0  0  0  0  0  0  0  0
  1  6  1  0  0  0  0
  1  3  1  0  0  0  0
  1 24  1  0  0  0  0
  2  1  1  0  0  0  0
  5 10  1  0  0  0  0
  5  4  1  0  0  0  0
  6  5  2  0  0  0  0
  7  8  2  0  0  0  0
  7  6  1  0  0  0  0
  8  9  1  0  0  0  0
  9 13  1  0  0  0  0
  9 10  2  0  0  0  0
 10 14  1  0  0  0  0
 11  7  1  0  0  0  0
 12  8  1  0  0  0  0
 16 23  1  0  0  0  0
 16 15  1  0  0  0  0
 17 14  1  6  0  0  0
 17 16  1  0  0  0  0
 18 20  1  0  0  0  0
 18 17  1  0  0  0  0
 19 18  1  0  0  0  0
 20 22  1  0  0  0  0
 21 20  1  0  0  0  0
 22 23  1  0  0  0  0
 24 26  1  0  0  0  0
 24 28  1  0  0  0  0
 25 24  1  0  0  0  0
 27 35  1  0  0  0  0
 27 32  1  0  0  0  0
 28 27  2  0  0  0  0
 29 28  1  0  0  0  0
 29 30  2  0  0  0  0
 30 31  1  0  0  0  0
 31 32  2  0  0  0  0
 31 34  1  0  0  0  0
 33 29  1  0  0  0  0
 35 38  1  0  0  0  0
 35 37  1  0  0  0  0
 36 40  1  0  0  0  0
 36 35  1  0  0  0  0
 36 37  1  0  0  0  0
 37 41  1  0  0  0  0
 37 42  1  0  0  0  0
 39 36  1  0  0  0  0
M  END
>  <minimizedAffinity>
-5.51358747

$$$$

 OpenBabel03272508223D

 42 45  0  0  1  0  0  0  0  0999 V2000
   35.6430   29.9000   34.2590 C   0  0  0  0  0  0  0  0  0  0  0  0
   35.7830   29.7100   35.3660 H   0  0  0  0  0  0  0  0  0  0  0  0
   36.4070   30.6810   34.0400 H   0  0  0  0  0  0  0  0  0  0  0  0
   37.4560   28.1800   35.4610 F   0  0  0  0  0  0  0  0  0  0  0  0
   36.9100   27.9020   34.2620 C   0  0  0  0  0  0  0  0  0  0  0  0
   35.9900   28.7050   33.5650 C   0  0  0  0  0  0  0  0  0  0  0  0
   35.5830   28.2530   32.3560 C   0  0  0  0  0  0  0  0  0  0  0  0
   36.0050   27.0870   31.8070 C   0  0  0  0  0  0  0  0  0  0  0  0
   36.9270   26.2810   32.5090 C   0  0  0  0  0  0  0  0  0  0  0  0
   37.3830   26.7190   33.7700 C   0  0  0  0  0  0  0  0  0  0  0  0
   34.9670   28.7710   31.6860 H   0  0  0  0  0  0  0  0  0  0  0  0
   35.6970   26.6790   30.8310 H   0  0  0  0  0  0  0  0  0  0  0  0
   37.2620   25.3340   32.0510 H   0  0  0  0  0  0  0  0  0  0  0  0
   38.2800   25.8510   34.3270 O   0  0  0  0  0  0  0  0  0  0  0  0
   39.1330   23.5320   33.8510 H   0  0  0  0  0  0  0  0  0  0  0  0
   39.2270   23.8260   34.8540 N   0  0  0  0  0  0  0  0  0  0  0  0
   38.0840   24.7270   35.0740 C   0  0  1  0  0  3  0  0  0  0  0  0
   38.0710   25.0920   36.5690 C   0  0  0  0  0  3  0  0  0  0  0  0
   37.1100   25.6020   36.7850 H   0  0  0  0  0  0  0  0  0  0  0  0
   38.1430   23.9310   37.3960 N   0  0  0  0  0  0  0  0  0  0  0  0
   37.2430   23.5310   37.6880 H   0  0  0  0  0  0  0  0  0  0  0  0
   39.1780   23.0000   37.0750 C   0  0  0  0  0  2  0  0  0  0  0  0
   39.0270   22.6060   35.6220 C   0  0  0  0  0  2  0  0  0  0  0  0
   34.2600   30.4010   34.0960 C   0  0  0  0  0  0  0  0  0  0  0  0
   33.8510   30.1350   33.1000 H   0  0  0  0  0  0  0  0  0  0  0  0
   34.3340   31.5310   34.0450 H   0  0  0  0  0  0  0  0  0  0  0  0
   33.0660   30.9340   36.1690 C   0  0  0  0  0  0  0  0  0  0  0  0
   33.3210   30.0890   35.1270 C   0  0  0  0  0  0  0  0  0  0  0  0
   32.6510   28.9130   35.2100 C   0  0  0  0  0  0  0  0  0  0  0  0
   31.8230   28.5970   36.2060 N   0  0  0  0  0  0  0  0  0  0  0  0
   31.5760   29.4160   37.2200 C   0  0  0  0  0  0  0  0  0  0  0  0
   32.1970   30.5940   37.2120 N   0  0  0  0  0  0  0  0  0  0  0  0
   32.7540   28.1310   34.4410 H   0  0  0  0  0  0  0  0  0  0  0  0
   30.9230   29.1850   38.0240 H   0  0  0  0  0  0  0  0  0  0  0  0
   33.5980   32.3660   36.1740 C   0  0  0  0  0  0  0  0  0  0  0  0
   33.6840   33.1390   37.3200 C   0  0  0  0  0  0  0  0  0  0  0  0
   34.9360   32.3260   37.0290 C   0  0  0  0  0  0  0  0  0  0  0  0
   33.7890   32.8360   35.2450 H   0  0  0  0  0  0  0  0  0  0  0  0
   33.1630   32.7820   38.2600 H   0  0  0  0  0  0  0  0  0  0  0  0
   33.8330   34.2120   37.3540 H   0  0  0  0  0  0  0  0  0  0  0  0
   35.1470   31.4510   37.6230 H   0  0  0  0  0  0  0  0  0  0  0  0
   35.7680   32.8180   36.5100 H   0  0  0  0  0  0  0  0  0  0  0  0
  1  2  1  0  0  0  0
  3  1  1  0  0  0  0
  5  4  1  0  0  0  0
  6  1  1  0  0  0  0
  6  5  2  0  0  0  0
  7  6  1  0  0  0  0
  8  7  2  0  0  0  0
  8  9  1  0  0  0  0
  9 10  2  0  0  0  0
 10  5  1  0  0  0  0
 10 14  1  0  0  0  0
 11  7  1  0  0  0  0
 12  8  1  0  0  0  0
 13  9  1  0  0  0  0
 15 16  1  0  0  0  0
 16 17  1  0  0  0  0
 16 23  1  0  0  0  0
 17 14  1  6  0  0  0
 17 18  1  0  0  0  0
 18 19  1  0  0  0  0
 18 20  1  0  0  0  0
 20 21  1  0  0  0  0
 22 20  1  0  0  0  0
 23 22  1  0  0  0  0
 24  1  1  0  0  0  0
 24 28  1  0  0  0  0
 25 24  1  0  0  0  0
 26 24  1  0  0  0  0
 27 35  1  0  0  0  0
 27 32  1  0  0  0  0
 28 29  1  0  0  0  0
 28 27  2  0  0  0  0
 29 30  2  0  0  0  0
 30 31  1  0  0  0  0
 31 34  1  0  0  0  0
 32 31  2  0  0  0  0
 33 29  1  0  0  0  0
 35 37  1  0  0  0  0
 35 36  1  0  0  0  0
 36 40  1  0  0  0  0
 36 39  1  0  0  0  0
 37 36  1  0  0  0  0
 37 41  1  0  0  0  0
 38 35  1  0  0  0  0
 42 37  1  0  0  0  0
M  END
>  <minimizedAffinity>
-5.48170042

$$$$

 OpenBabel03272508223D

 42 45  0  0  1  0  0  0  0  0999 V2000
   36.6980   27.4430   34.8990 C   0  0  0  0  0  0  0  0  0  0  0  0
   35.9910   27.6520   35.7570 H   0  0  0  0  0  0  0  0  0  0  0  0
   36.4030   26.4200   34.5730 H   0  0  0  0  0  0  0  0  0  0  0  0
   37.4240   26.7560   32.3130 F   0  0  0  0  0  0  0  0  0  0  0  0
   36.8020   27.9190   32.5830 C   0  0  0  0  0  0  0  0  0  0  0  0
   36.3980   28.3660   33.8540 C   0  0  0  0  0  0  0  0  0  0  0  0
   35.8100   29.5830   33.9110 C   0  0  0  0  0  0  0  0  0  0  0  0
   35.5920   30.3660   32.8260 C   0  0  0  0  0  0  0  0  0  0  0  0
   35.9960   29.9160   31.5510 C   0  0  0  0  0  0  0  0  0  0  0  0
   36.6200   28.6550   31.4470 C   0  0  0  0  0  0  0  0  0  0  0  0
   35.5280   30.0850   34.7860 H   0  0  0  0  0  0  0  0  0  0  0  0
   35.1140   31.3590   32.8260 H   0  0  0  0  0  0  0  0  0  0  0  0
   35.8120   30.5620   30.6750 H   0  0  0  0  0  0  0  0  0  0  0  0
   36.9700   28.3540   30.1610 O   0  0  0  0  0  0  0  0  0  0  0  0
   38.7820   26.6080   30.2410 H   0  0  0  0  0  0  0  0  0  0  0  0
   38.6080   27.0020   29.2840 N   0  0  0  0  0  0  0  0  0  0  0  0
   38.1830   28.3890   29.5370 C   0  0  1  0  0  3  0  0  0  0  0  0
   38.0440   29.0810   28.1700 C   0  0  0  0  0  3  0  0  0  0  0  0
   37.9210   30.1680   28.3500 H   0  0  0  0  0  0  0  0  0  0  0  0
   39.2100   28.9030   27.3670 N   0  0  0  0  0  0  0  0  0  0  0  0
   39.9250   29.6360   27.4450 H   0  0  0  0  0  0  0  0  0  0  0  0
   39.6870   27.5610   27.2490 C   0  0  0  0  0  2  0  0  0  0  0  0
   39.9140   27.0140   28.6410 C   0  0  0  0  0  2  0  0  0  0  0  0
   38.0640   27.4840   35.4660 C   0  0  0  0  0  0  0  0  0  0  0  0
   38.0770   28.0060   36.4450 H   0  0  0  0  0  0  0  0  0  0  0  0
   38.6650   28.1790   34.8010 H   0  0  0  0  0  0  0  0  0  0  0  0
   39.9890   26.0660   34.9300 C   0  0  0  0  0  0  0  0  0  0  0  0
   38.7830   26.2520   35.5420 C   0  0  0  0  0  0  0  0  0  0  0  0
   38.3150   25.1400   36.1600 C   0  0  0  0  0  0  0  0  0  0  0  0
   38.9570   23.9710   36.1760 N   0  0  0  0  0  0  0  0  0  0  0  0
   40.1280   23.7880   35.5800 C   0  0  0  0  0  0  0  0  0  0  0  0
   40.6560   24.8350   34.9490 N   0  0  0  0  0  0  0  0  0  0  0  0
   37.3540   25.1360   36.6990 H   0  0  0  0  0  0  0  0  0  0  0  0
   40.6560   22.8670   35.5780 H   0  0  0  0  0  0  0  0  0  0  0  0
   40.7540   27.2380   34.3180 C   0  0  0  0  0  0  0  0  0  0  0  0
   41.8920   27.0810   33.5440 C   0  0  0  0  0  0  0  0  0  0  0  0
   40.5980   27.0840   32.7460 C   0  0  0  0  0  0  0  0  0  0  0  0
   40.4820   28.2210   34.6030 H   0  0  0  0  0  0  0  0  0  0  0  0
   42.3980   26.0680   33.5170 H   0  0  0  0  0  0  0  0  0  0  0  0
   42.5950   27.8620   33.2790 H   0  0  0  0  0  0  0  0  0  0  0  0
   40.2200   26.1540   32.3500 H   0  0  0  0  0  0  0  0  0  0  0  0
   40.2800   28.0210   32.2720 H   0  0  0  0  0  0  0  0  0  0  0  0
  1 24  1  0  0  0  0
  1  2  1  0  0  0  0
  3  1  1  0  0  0  0
  4  5  1  0  0  0  0
  5  6  1  0  0  0  0
  6  7  2  0  0  0  0
  6  1  1  0  0  0  0
  7 11  1  0  0  0  0
  8 12  1  0  0  0  0
  8  7  1  0  0  0  0
  9  8  2  0  0  0  0
 10  9  1  0  0  0  0
 10  5  2  0  0  0  0
 13  9  1  0  0  0  0
 14 10  1  0  0  0  0
 16 17  1  0  0  0  0
 16 15  1  0  0  0  0
 17 14  1  6  0  0  0
 18 19  1  0  0  0  0
 18 17  1  0  0  0  0
 20 21  1  0  0  0  0
 20 18  1  0  0  0  0
 22 20  1  0  0  0  0
 22 23  1  0  0  0  0
 23 16  1  0  0  0  0
 24 28  1  0  0  0  0
 24 25  1  0  0  0  0
 26 24  1  0  0  0  0
 27 32  2  0  0  0  0
 27 28  1  0  0  0  0
 28 29  2  0  0  0  0
 29 30  1  0  0  0  0
 29 33  1  0  0  0  0
 31 30  2  0  0  0  0
 32 31  1  0  0  0  0
 34 31  1  0  0  0  0
 35 38  1  0  0  0  0
 35 27  1  0  0  0  0
 36 35  1  0  0  0  0
 37 36  1  0  0  0  0
 37 35  1  0  0  0  0
 39 36  1  0  0  0  0
 40 36  1  0  0  0  0
 41 37  1  0  0  0  0
 42 37  1  0  0  0  0
M  END
>  <minimizedAffinity>
-5.44861937

$$$$

 OpenBabel03272508223D

 42 45  0  0  1  0  0  0  0  0999 V2000
   37.9650   26.0810   31.0460 C   0  0  0  0  0  0  0  0  0  0  0  0
   38.6730   26.3660   30.2110 H   0  0  0  0  0  0  0  0  0  0  0  0
   37.8190   24.9880   30.8890 H   0  0  0  0  0  0  0  0  0  0  0  0
   37.0900   24.6560   33.2580 F   0  0  0  0  0  0  0  0  0  0  0  0
   38.1270   25.5110   33.3360 C   0  0  0  0  0  0  0  0  0  0  0  0
   38.6440   26.2850   32.2820 C   0  0  0  0  0  0  0  0  0  0  0  0
   39.6780   27.1050   32.5810 C   0  0  0  0  0  0  0  0  0  0  0  0
   40.2270   27.2040   33.8160 C   0  0  0  0  0  0  0  0  0  0  0  0
   39.7090   26.4270   34.8730 C   0  0  0  0  0  0  0  0  0  0  0  0
   38.6250   25.5630   34.6070 C   0  0  0  0  0  0  0  0  0  0  0  0
   40.1180   27.7960   31.9280 H   0  0  0  0  0  0  0  0  0  0  0  0
   41.0710   27.8530   34.1030 H   0  0  0  0  0  0  0  0  0  0  0  0
   40.1650   26.5170   35.8740 H   0  0  0  0  0  0  0  0  0  0  0  0
   38.2170   24.8850   35.7210 O   0  0  0  0  0  0  0  0  0  0  0  0
   39.7850   23.2270   34.6570 H   0  0  0  0  0  0  0  0  0  0  0  0
   39.9350   23.3600   35.6870 N   0  0  0  0  0  0  0  0  0  0  0  0
   38.5940   23.6690   36.2110 C   0  0  1  0  0  3  0  0  0  0  0  0
   38.7070   23.7390   37.7440 C   0  0  0  0  0  3  0  0  0  0  0  0
   37.6800   23.7710   38.1590 H   0  0  0  0  0  0  0  0  0  0  0  0
   39.3570   22.5860   38.2790 N   0  0  0  0  0  0  0  0  0  0  0  0
   38.7410   21.8130   38.5560 H   0  0  0  0  0  0  0  0  0  0  0  0
   40.5920   22.2230   37.6600 C   0  0  0  0  0  2  0  0  0  0  0  0
   40.3480   22.0540   36.1760 C   0  0  0  0  0  2  0  0  0  0  0  0
   36.7240   26.8540   30.8200 C   0  0  0  0  0  0  0  0  0  0  0  0
   36.0040   26.7140   31.6530 H   0  0  0  0  0  0  0  0  0  0  0  0
   36.1960   26.3620   29.9450 H   0  0  0  0  0  0  0  0  0  0  0  0
   36.4880   29.2330   31.3610 C   0  0  0  0  0  0  0  0  0  0  0  0
   36.8610   28.2400   30.5010 C   0  0  0  0  0  0  0  0  0  0  0  0
   37.3030   28.7010   29.3050 C   0  0  0  0  0  0  0  0  0  0  0  0
   37.3700   29.9940   28.9830 N   0  0  0  0  0  0  0  0  0  0  0  0
   37.0060   30.9590   29.8170 C   0  0  0  0  0  0  0  0  0  0  0  0
   36.5590   30.5880   31.0160 N   0  0  0  0  0  0  0  0  0  0  0  0
   37.6400   28.0190   28.5080 H   0  0  0  0  0  0  0  0  0  0  0  0
   37.0490   31.9940   29.5830 H   0  0  0  0  0  0  0  0  0  0  0  0
   36.1150   28.9250   32.8100 C   0  0  0  0  0  0  0  0  0  0  0  0
   35.5920   29.8700   33.6760 C   0  0  0  0  0  0  0  0  0  0  0  0
   34.5400   29.0970   32.8980 C   0  0  0  0  0  0  0  0  0  0  0  0
   36.3890   27.9840   33.2120 H   0  0  0  0  0  0  0  0  0  0  0  0
   35.6180   30.9620   33.3740 H   0  0  0  0  0  0  0  0  0  0  0  0
   35.5230   29.7770   34.7540 H   0  0  0  0  0  0  0  0  0  0  0  0
   34.0240   29.5820   32.0830 H   0  0  0  0  0  0  0  0  0  0  0  0
   34.0600   28.2370   33.3810 H   0  0  0  0  0  0  0  0  0  0  0  0
  1  6  1  0  0  0  0
  2  1  1  0  0  0  0
  3  1  1  0  0  0  0
  4  5  1  0  0  0  0
  5 10  1  0  0  0  0
  6  7  1  0  0  0  0
  6  5  2  0  0  0  0
  7  8  2  0  0  0  0
  8 12  1  0  0  0  0
  8  9  1  0  0  0  0
  9 13  1  0  0  0  0
 10  9  2  0  0  0  0
 10 14  1  0  0  0  0
 11  7  1  0  0  0  0
 15 16  1  0  0  0  0
 16 23  1  0  0  0  0
 16 17  1  0  0  0  0
 17 14  1  6  0  0  0
 17 18  1  0  0  0  0
 18 19  1  0  0  0  0
 18 20  1  0  0  0  0
 20 21  1  0  0  0  0
 22 20  1  0  0  0  0
 23 22  1  0  0  0  0
 24  1  1  0  0  0  0
 24 25  1  0  0  0  0
 26 24  1  0  0  0  0
 27 35  1  0  0  0  0
 28 24  1  0  0  0  0
 28 27  2  0  0  0  0
 29 28  1  0  0  0  0
 30 29  2  0  0  0  0
 30 31  1  0  0  0  0
 31 32  2  0  0  0  0
 32 27  1  0  0  0  0
 33 29  1  0  0  0  0
 34 31  1  0  0  0  0
 35 37  1  0  0  0  0
 35 38  1  0  0  0  0
 35 36  1  0  0  0  0
 36 40  1  0  0  0  0
 37 42  1  0  0  0  0
 37 36  1  0  0  0  0
 39 36  1  0  0  0  0
 41 37  1  0  0  0  0
M  END
>  <minimizedAffinity>
-5.42892313

$$$$
