
 OpenBabel03262521383D

 28 30  0  0  0  0  0  0  0  0999 V2000
   37.2210   25.5550   34.4390 F   0  0  0  0  0  0  0  0  0  0  0  0
   38.5540   25.9040   34.3520 C   0  0  0  0  0  0  0  0  0  0  0  0
   39.0090   26.8490   33.4440 C   0  0  0  0  0  0  0  0  0  0  0  0
   40.3570   27.1580   33.4020 C   0  0  0  0  0  0  0  0  0  0  0  0
   41.2560   26.5300   34.2610 C   0  0  0  0  0  0  0  0  0  0  0  0
   40.7490   25.5930   35.1480 C   0  0  0  0  0  0  0  0  0  0  0  0
   39.4280   25.2660   35.2140 C   0  0  0  0  0  0  0  0  0  0  0  0
   40.7000   27.8970   32.6900 H   0  0  0  0  0  0  0  0  0  0  0  0
   42.3170   26.7740   34.2270 H   0  0  0  0  0  0  0  0  0  0  0  0
   41.4650   25.1160   35.8070 H   0  0  0  0  0  0  0  0  0  0  0  0
   38.2490   27.2750   31.2220 C   0  0  0  0  0  0  0  0  0  0  0  0
   38.0230   27.4440   32.6020 C   0  0  0  0  0  0  0  0  0  0  0  0
   36.8920   28.1540   32.9730 C   0  0  0  0  0  0  0  0  0  0  0  0
   36.0630   28.6490   32.0100 N   0  0  0  0  0  0  0  0  0  0  0  0
   36.3200   28.4610   30.7000 C   0  0  0  0  0  0  0  0  0  0  0  0
   37.4050   27.7790   30.3000 N   0  0  0  0  0  0  0  0  0  0  0  0
   39.0910   26.7410   30.7590 H   0  0  0  0  0  0  0  0  0  0  0  0
   36.7540   28.2620   34.0370 H   0  0  0  0  0  0  0  0  0  0  0  0
   35.5830   28.9050   30.0510 H   0  0  0  0  0  0  0  0  0  0  0  0
   39.0250   24.2910   36.1660 N   0  0  0  0  0  0  0  0  0  0  0  0
   38.1590   24.6220   37.2820 C   0  0  0  0  0  3  0  0  0  0  0  0
   37.1680   24.8920   36.8470 H   0  0  0  0  0  0  0  0  0  0  0  0
   37.9390   23.4210   38.1390 C   0  0  0  0  0  3  0  0  0  0  0  0
   37.1810   22.7650   37.6340 H   0  0  0  0  0  0  0  0  0  0  0  0
   39.1270   22.6840   38.4820 N   0  0  0  0  0  0  0  0  0  0  0  0
   38.8960   21.6690   38.6490 H   0  0  0  0  0  0  0  0  0  0  0  0
   40.1450   22.6790   37.4660 C   0  0  0  0  0  2  0  0  0  0  0  0
   39.4290   22.8870   36.1260 C   0  0  0  0  0  2  0  0  0  0  0  0
  2  1  1  0  0  0  0
  2  7  1  0  0  0  0
  3  2  2  0  0  0  0
  4  3  1  0  0  0  0
  4  5  2  0  0  0  0
  5  6  1  0  0  0  0
  6  7  2  0  0  0  0
  6 10  1  0  0  0  0
  7 20  1  0  0  0  0
  8  4  1  0  0  0  0
  9  5  1  0  0  0  0
 11 12  1  0  0  0  0
 12 13  2  0  0  0  0
 12  3  1  0  0  0  0
 13 18  1  0  0  0  0
 14 13  1  0  0  0  0
 15 14  2  0  0  0  0
 16 15  1  0  0  0  0
 16 11  2  0  0  0  0
 17 11  1  0  0  0  0
 19 15  1  0  0  0  0
 20 21  1  0  0  0  0
 21 23  1  0  0  0  0
 22 21  1  0  0  0  0
 23 25  1  0  0  0  0
 24 23  1  0  0  0  0
 25 26  1  0  0  0  0
 27 25  1  0  0  0  0
 28 20  1  0  0  0  0
 28 27  1  0  0  0  0
M  END
>  <minimizedAffinity>
-5.31615591

$$$$

 OpenBabel03262521383D

 28 30  0  0  0  0  0  0  0  0999 V2000
   38.5300   25.6130   34.2500 F   0  0  0  0  0  0  0  0  0  0  0  0
   38.0240   24.4210   33.7720 C   0  0  0  0  0  0  0  0  0  0  0  0
   37.4510   24.3180   32.5130 C   0  0  0  0  0  0  0  0  0  0  0  0
   36.9600   23.0970   32.0860 C   0  0  0  0  0  0  0  0  0  0  0  0
   37.0370   21.9750   32.9080 C   0  0  0  0  0  0  0  0  0  0  0  0
   37.6180   22.1330   34.1570 C   0  0  0  0  0  0  0  0  0  0  0  0
   38.1110   23.3210   34.6070 C   0  0  0  0  0  0  0  0  0  0  0  0
   36.5160   23.0290   31.1020 H   0  0  0  0  0  0  0  0  0  0  0  0
   36.6500   21.0140   32.5710 H   0  0  0  0  0  0  0  0  0  0  0  0
   37.6680   21.2480   34.7820 H   0  0  0  0  0  0  0  0  0  0  0  0
   36.2000   26.2260   31.8110 C   0  0  0  0  0  0  0  0  0  0  0  0
   37.4130   25.5140   31.7350 C   0  0  0  0  0  0  0  0  0  0  0  0
   38.4070   26.0470   30.9300 C   0  0  0  0  0  0  0  0  0  0  0  0
   38.1770   27.2120   30.2600 N   0  0  0  0  0  0  0  0  0  0  0  0
   36.9990   27.8600   30.3640 C   0  0  0  0  0  0  0  0  0  0  0  0
   36.0110   27.3760   31.1340 N   0  0  0  0  0  0  0  0  0  0  0  0
   35.3150   25.9460   32.4000 H   0  0  0  0  0  0  0  0  0  0  0  0
   39.3200   25.4740   30.8970 H   0  0  0  0  0  0  0  0  0  0  0  0
   36.9550   28.7660   29.7820 H   0  0  0  0  0  0  0  0  0  0  0  0
   38.6850   23.3610   35.9050 N   0  0  0  0  0  0  0  0  0  0  0  0
   39.7670   22.4750   36.2920 C   0  0  0  0  0  3  0  0  0  0  0  0
   40.6520   22.7650   35.6780 H   0  0  0  0  0  0  0  0  0  0  0  0
   40.1400   22.7060   37.7180 C   0  0  0  0  0  3  0  0  0  0  0  0
   40.7670   23.6350   37.7680 H   0  0  0  0  0  0  0  0  0  0  0  0
   39.0360   22.7660   38.6410 N   0  0  0  0  0  0  0  0  0  0  0  0
   39.2810   23.3690   39.4690 H   0  0  0  0  0  0  0  0  0  0  0  0
   37.8310   23.3350   38.0990 C   0  0  0  0  0  2  0  0  0  0  0  0
   38.2600   24.2740   36.9650 C   0  0  0  0  0  2  0  0  0  0  0  0
  2  1  1  0  0  0  0
  2  7  1  0  0  0  0
  3  2  2  0  0  0  0
  4  3  1  0  0  0  0
  4  5  2  0  0  0  0
  5  6  1  0  0  0  0
  6  7  2  0  0  0  0
  6 10  1  0  0  0  0
  7 20  1  0  0  0  0
  8  4  1  0  0  0  0
  9  5  1  0  0  0  0
 11 17  1  0  0  0  0
 12 11  1  0  0  0  0
 12  3  1  0  0  0  0
 13 12  2  0  0  0  0
 14 15  2  0  0  0  0
 14 13  1  0  0  0  0
 15 16  1  0  0  0  0
 16 11  2  0  0  0  0
 18 13  1  0  0  0  0
 19 15  1  0  0  0  0
 20 21  1  0  0  0  0
 20 28  1  0  0  0  0
 21 23  1  0  0  0  0
 22 21  1  0  0  0  0
 23 24  1  0  0  0  0
 23 25  1  0  0  0  0
 25 26  1  0  0  0  0
 27 25  1  0  0  0  0
 28 27  1  0  0  0  0
M  END
>  <minimizedAffinity>
-5.09778786

$$$$

 OpenBabel03262521383D

 28 30  0  0  0  0  0  0  0  0999 V2000
   37.0510   21.3600   34.8560 F   0  0  0  0  0  0  0  0  0  0  0  0
   37.5150   22.3730   34.0410 C   0  0  0  0  0  0  0  0  0  0  0  0
   38.2900   23.4130   34.5310 C   0  0  0  0  0  0  0  0  0  0  0  0
   38.7270   24.4020   33.6660 C   0  0  0  0  0  0  0  0  0  0  0  0
   38.3950   24.3590   32.3150 C   0  0  0  0  0  0  0  0  0  0  0  0
   37.6160   23.2980   31.8770 C   0  0  0  0  0  0  0  0  0  0  0  0
   37.1710   22.3100   32.7020 C   0  0  0  0  0  0  0  0  0  0  0  0
   39.3320   25.2080   34.0600 H   0  0  0  0  0  0  0  0  0  0  0  0
   38.7390   25.1380   31.6350 H   0  0  0  0  0  0  0  0  0  0  0  0
   37.3690   23.2840   30.8220 H   0  0  0  0  0  0  0  0  0  0  0  0
   37.6840   24.1020   36.7350 C   0  0  0  0  0  0  0  0  0  0  0  0
   38.5850   23.3810   35.9260 C   0  0  0  0  0  0  0  0  0  0  0  0
   39.6310   22.7360   36.5680 C   0  0  0  0  0  0  0  0  0  0  0  0
   39.7440   22.8240   37.9250 N   0  0  0  0  0  0  0  0  0  0  0  0
   38.8560   23.5270   38.6570 C   0  0  0  0  0  0  0  0  0  0  0  0
   37.8290   24.1650   38.0730 N   0  0  0  0  0  0  0  0  0  0  0  0
   36.8060   24.6660   36.3900 H   0  0  0  0  0  0  0  0  0  0  0  0
   40.2980   22.1960   35.9170 H   0  0  0  0  0  0  0  0  0  0  0  0
   39.0650   23.5110   39.7150 H   0  0  0  0  0  0  0  0  0  0  0  0
   36.3810   21.2720   32.1400 N   0  0  0  0  0  0  0  0  0  0  0  0
   35.2840   20.6620   32.8690 C   0  0  0  0  0  3  0  0  0  0  0  0
   34.5080   21.4530   32.9950 H   0  0  0  0  0  0  0  0  0  0  0  0
   34.6640   19.5760   32.0570 C   0  0  0  0  0  3  0  0  0  0  0  0
   34.0010   20.0520   31.2860 H   0  0  0  0  0  0  0  0  0  0  0  0
   35.5890   18.6520   31.4560 N   0  0  0  0  0  0  0  0  0  0  0  0
   35.1830   18.2440   30.5730 H   0  0  0  0  0  0  0  0  0  0  0  0
   36.8470   19.2310   31.0620 C   0  0  0  0  0  2  0  0  0  0  0  0
   36.5820   20.7190   30.8010 C   0  0  0  0  0  2  0  0  0  0  0  0
  2  3  1  0  0  0  0
  2  1  1  0  0  0  0
  3 12  1  0  0  0  0
  4  8  1  0  0  0  0
  4  3  2  0  0  0  0
  5  4  1  0  0  0  0
  6  5  2  0  0  0  0
  6  7  1  0  0  0  0
  7  2  2  0  0  0  0
  9  5  1  0  0  0  0
 10  6  1  0  0  0  0
 11 16  1  0  0  0  0
 12 13  1  0  0  0  0
 12 11  2  0  0  0  0
 13 14  2  0  0  0  0
 14 15  1  0  0  0  0
 15 19  1  0  0  0  0
 16 15  2  0  0  0  0
 17 11  1  0  0  0  0
 18 13  1  0  0  0  0
 20  7  1  0  0  0  0
 20 21  1  0  0  0  0
 21 22  1  0  0  0  0
 23 21  1  0  0  0  0
 24 23  1  0  0  0  0
 25 23  1  0  0  0  0
 26 25  1  0  0  0  0
 27 25  1  0  0  0  0
 28 27  1  0  0  0  0
 28 20  1  0  0  0  0
M  END
>  <minimizedAffinity>
-4.95667934

$$$$

 OpenBabel03262521383D

 28 30  0  0  0  0  0  0  0  0999 V2000
   35.3090   28.7410   34.6240 F   0  0  0  0  0  0  0  0  0  0  0  0
   35.6850   29.5370   33.5610 C   0  0  0  0  0  0  0  0  0  0  0  0
   36.2490   29.0080   32.4100 C   0  0  0  0  0  0  0  0  0  0  0  0
   36.6070   29.8550   31.3760 C   0  0  0  0  0  0  0  0  0  0  0  0
   36.4050   31.2290   31.4830 C   0  0  0  0  0  0  0  0  0  0  0  0
   35.8390   31.7060   32.6550 C   0  0  0  0  0  0  0  0  0  0  0  0
   35.4760   30.8990   33.6910 C   0  0  0  0  0  0  0  0  0  0  0  0
   37.0450   29.4300   30.4820 H   0  0  0  0  0  0  0  0  0  0  0  0
   36.6870   31.8940   30.6680 H   0  0  0  0  0  0  0  0  0  0  0  0
   35.6910   32.7780   32.7180 H   0  0  0  0  0  0  0  0  0  0  0  0
   35.6310   26.9220   31.4260 C   0  0  0  0  0  0  0  0  0  0  0  0
   36.4200   27.5920   32.3820 C   0  0  0  0  0  0  0  0  0  0  0  0
   37.2550   26.8120   33.1680 C   0  0  0  0  0  0  0  0  0  0  0  0
   37.2780   25.4600   32.9880 N   0  0  0  0  0  0  0  0  0  0  0  0
   36.5040   24.8640   32.0590 C   0  0  0  0  0  0  0  0  0  0  0  0
   35.6820   25.5830   31.2790 N   0  0  0  0  0  0  0  0  0  0  0  0
   34.9210   27.3860   30.7270 H   0  0  0  0  0  0  0  0  0  0  0  0
   37.8420   27.3600   33.8870 H   0  0  0  0  0  0  0  0  0  0  0  0
   36.6230   23.7930   32.0260 H   0  0  0  0  0  0  0  0  0  0  0  0
   34.9040   31.5020   34.8420 N   0  0  0  0  0  0  0  0  0  0  0  0
   35.7100   31.8940   35.9840 C   0  0  0  0  0  3  0  0  0  0  0  0
   36.3710   32.7220   35.6370 H   0  0  0  0  0  0  0  0  0  0  0  0
   34.8440   32.4560   37.0600 C   0  0  0  0  0  3  0  0  0  0  0  0
   34.5760   33.5090   36.7780 H   0  0  0  0  0  0  0  0  0  0  0  0
   33.6720   31.6820   37.3740 N   0  0  0  0  0  0  0  0  0  0  0  0
   32.9070   32.3050   37.7450 H   0  0  0  0  0  0  0  0  0  0  0  0
   33.0890   30.9920   36.2540 C   0  0  0  0  0  2  0  0  0  0  0  0
   33.4780   31.7850   35.0000 C   0  0  0  0  0  2  0  0  0  0  0  0
  2  7  1  0  0  0  0
  2  1  1  0  0  0  0
  3  2  2  0  0  0  0
  4  5  2  0  0  0  0
  4  3  1  0  0  0  0
  5  6  1  0  0  0  0
  6 10  1  0  0  0  0
  6  7  2  0  0  0  0
  7 20  1  0  0  0  0
  8  4  1  0  0  0  0
  9  5  1  0  0  0  0
 11 12  1  0  0  0  0
 12  3  1  0  0  0  0
 12 13  2  0  0  0  0
 13 18  1  0  0  0  0
 14 13  1  0  0  0  0
 15 14  2  0  0  0  0
 16 11  2  0  0  0  0
 16 15  1  0  0  0  0
 17 11  1  0  0  0  0
 19 15  1  0  0  0  0
 20 28  1  0  0  0  0
 20 21  1  0  0  0  0
 21 23  1  0  0  0  0
 22 21  1  0  0  0  0
 23 25  1  0  0  0  0
 24 23  1  0  0  0  0
 25 26  1  0  0  0  0
 27 25  1  0  0  0  0
 28 27  1  0  0  0  0
M  END
>  <minimizedAffinity>
-4.9139576

$$$$

 OpenBabel03262521383D

 28 30  0  0  0  0  0  0  0  0999 V2000
   36.2540   28.0280   34.8960 F   0  0  0  0  0  0  0  0  0  0  0  0
   36.1950   28.6480   33.6650 C   0  0  0  0  0  0  0  0  0  0  0  0
   35.6530   29.9150   33.5050 C   0  0  0  0  0  0  0  0  0  0  0  0
   35.6190   30.4870   32.2450 C   0  0  0  0  0  0  0  0  0  0  0  0
   36.1230   29.8020   31.1420 C   0  0  0  0  0  0  0  0  0  0  0  0
   36.6520   28.5390   31.3570 C   0  0  0  0  0  0  0  0  0  0  0  0
   36.7000   27.9480   32.5830 C   0  0  0  0  0  0  0  0  0  0  0  0
   35.1940   31.4760   32.1340 H   0  0  0  0  0  0  0  0  0  0  0  0
   36.0960   30.2540   30.1510 H   0  0  0  0  0  0  0  0  0  0  0  0
   37.0390   28.0230   30.4850 H   0  0  0  0  0  0  0  0  0  0  0  0
   33.7800   30.3710   34.9140 C   0  0  0  0  0  0  0  0  0  0  0  0
   35.1590   30.5460   34.6860 C   0  0  0  0  0  0  0  0  0  0  0  0
   35.8620   31.2950   35.6170 C   0  0  0  0  0  0  0  0  0  0  0  0
   35.2060   31.8200   36.6910 N   0  0  0  0  0  0  0  0  0  0  0  0
   33.8830   31.6260   36.8670 C   0  0  0  0  0  0  0  0  0  0  0  0
   33.1670   30.9070   35.9880 N   0  0  0  0  0  0  0  0  0  0  0  0
   33.0800   29.8090   34.2790 H   0  0  0  0  0  0  0  0  0  0  0  0
   36.9140   31.4060   35.4080 H   0  0  0  0  0  0  0  0  0  0  0  0
   33.4960   32.0970   37.7560 H   0  0  0  0  0  0  0  0  0  0  0  0
   37.2670   26.6500   32.6810 N   0  0  0  0  0  0  0  0  0  0  0  0
   36.5510   25.4650   32.2450 C   0  0  0  0  0  3  0  0  0  0  0  0
   36.4420   25.5490   31.1380 H   0  0  0  0  0  0  0  0  0  0  0  0
   37.3650   24.2430   32.5060 C   0  0  0  0  0  3  0  0  0  0  0  0
   38.1490   24.1690   31.7070 H   0  0  0  0  0  0  0  0  0  0  0  0
   37.9450   24.1590   33.8210 N   0  0  0  0  0  0  0  0  0  0  0  0
   38.8310   23.5890   33.7980 H   0  0  0  0  0  0  0  0  0  0  0  0
   38.3230   25.4250   34.3930 C   0  0  0  0  0  2  0  0  0  0  0  0
   38.5980   26.3720   33.2180 C   0  0  0  0  0  2  0  0  0  0  0  0
  2  1  1  0  0  0  0
  3  2  1  0  0  0  0
  3 12  1  0  0  0  0
  4  3  2  0  0  0  0
  5  6  2  0  0  0  0
  5  4  1  0  0  0  0
  6  7  1  0  0  0  0
  7 20  1  0  0  0  0
  7  2  2  0  0  0  0
  8  4  1  0  0  0  0
  9  5  1  0  0  0  0
 10  6  1  0  0  0  0
 11 16  1  0  0  0  0
 12 11  2  0  0  0  0
 12 13  1  0  0  0  0
 13 14  2  0  0  0  0
 14 15  1  0  0  0  0
 15 19  1  0  0  0  0
 16 15  2  0  0  0  0
 17 11  1  0  0  0  0
 18 13  1  0  0  0  0
 20 28  1  0  0  0  0
 21 23  1  0  0  0  0
 21 20  1  0  0  0  0
 22 21  1  0  0  0  0
 23 25  1  0  0  0  0
 24 23  1  0  0  0  0
 25 27  1  0  0  0  0
 26 25  1  0  0  0  0
 28 27  1  0  0  0  0
M  END
>  <minimizedAffinity>
-4.79918146

$$$$

 OpenBabel03262521383D

 28 30  0  0  0  0  0  0  0  0999 V2000
   38.0760   23.4580   33.0550 F   0  0  0  0  0  0  0  0  0  0  0  0
   37.1250   24.1830   32.3660 C   0  0  0  0  0  0  0  0  0  0  0  0
   36.1230   23.5670   31.6300 C   0  0  0  0  0  0  0  0  0  0  0  0
   35.1960   24.3450   30.9580 C   0  0  0  0  0  0  0  0  0  0  0  0
   35.2620   25.7350   31.0170 C   0  0  0  0  0  0  0  0  0  0  0  0
   36.2830   26.2990   31.7660 C   0  0  0  0  0  0  0  0  0  0  0  0
   37.2110   25.5620   32.4380 C   0  0  0  0  0  0  0  0  0  0  0  0
   34.4190   23.8530   30.3880 H   0  0  0  0  0  0  0  0  0  0  0  0
   34.5310   26.3460   30.4880 H   0  0  0  0  0  0  0  0  0  0  0  0
   36.3160   27.3820   31.7980 H   0  0  0  0  0  0  0  0  0  0  0  0
   35.1470   21.5450   32.4400 C   0  0  0  0  0  0  0  0  0  0  0  0
   36.1280   22.1400   31.6230 C   0  0  0  0  0  0  0  0  0  0  0  0
   36.9650   21.2880   30.9210 C   0  0  0  0  0  0  0  0  0  0  0  0
   36.8110   19.9390   31.0470 N   0  0  0  0  0  0  0  0  0  0  0  0
   35.8560   19.4150   31.8420 C   0  0  0  0  0  0  0  0  0  0  0  0
   35.0250   20.2060   32.5380 N   0  0  0  0  0  0  0  0  0  0  0  0
   34.4060   22.0710   33.0590 H   0  0  0  0  0  0  0  0  0  0  0  0
   37.7020   21.7800   30.3070 H   0  0  0  0  0  0  0  0  0  0  0  0
   35.8470   18.3370   31.8470 H   0  0  0  0  0  0  0  0  0  0  0  0
   38.2110   26.2510   33.1740 N   0  0  0  0  0  0  0  0  0  0  0  0
   39.5440   26.4640   32.6420 C   0  0  0  0  0  3  0  0  0  0  0  0
   39.4330   27.1510   31.7700 H   0  0  0  0  0  0  0  0  0  0  0  0
   40.3940   27.1720   33.6430 C   0  0  0  0  0  3  0  0  0  0  0  0
   40.1190   28.2600   33.6260 H   0  0  0  0  0  0  0  0  0  0  0  0
   40.3440   26.6380   34.9790 N   0  0  0  0  0  0  0  0  0  0  0  0
   40.5440   27.3940   35.6850 H   0  0  0  0  0  0  0  0  0  0  0  0
   39.0700   26.0890   35.3600 C   0  0  0  0  0  2  0  0  0  0  0  0
   38.0120   26.8060   34.5120 C   0  0  0  0  0  2  0  0  0  0  0  0
  2  7  1  0  0  0  0
  2  1  1  0  0  0  0
  3  2  2  0  0  0  0
  4  5  2  0  0  0  0
  4  3  1  0  0  0  0
  5  6  1  0  0  0  0
  6 10  1  0  0  0  0
  6  7  2  0  0  0  0
  7 20  1  0  0  0  0
  8  4  1  0  0  0  0
  9  5  1  0  0  0  0
 11 16  1  0  0  0  0
 11 17  1  0  0  0  0
 12  3  1  0  0  0  0
 12 11  2  0  0  0  0
 13 14  2  0  0  0  0
 13 12  1  0  0  0  0
 14 15  1  0  0  0  0
 15 19  1  0  0  0  0
 15 16  2  0  0  0  0
 18 13  1  0  0  0  0
 20 28  1  0  0  0  0
 21 20  1  0  0  0  0
 21 23  1  0  0  0  0
 22 21  1  0  0  0  0
 23 25  1  0  0  0  0
 24 23  1  0  0  0  0
 25 27  1  0  0  0  0
 25 26  1  0  0  0  0
 28 27  1  0  0  0  0
M  END
>  <minimizedAffinity>
-4.73472643

$$$$

 OpenBabel03262521383D

 28 30  0  0  0  0  0  0  0  0999 V2000
   40.5250   24.2190   34.6530 F   0  0  0  0  0  0  0  0  0  0  0  0
   39.8500   23.9630   35.8290 C   0  0  0  0  0  0  0  0  0  0  0  0
   38.5950   24.4960   36.0870 C   0  0  0  0  0  0  0  0  0  0  0  0
   37.9650   24.2050   37.2850 C   0  0  0  0  0  0  0  0  0  0  0  0
   38.5790   23.3840   38.2270 C   0  0  0  0  0  0  0  0  0  0  0  0
   39.8330   22.8780   37.9200 C   0  0  0  0  0  0  0  0  0  0  0  0
   40.4800   23.1460   36.7510 C   0  0  0  0  0  0  0  0  0  0  0  0
   36.9870   24.6260   37.4750 H   0  0  0  0  0  0  0  0  0  0  0  0
   38.0830   23.1550   39.1700 H   0  0  0  0  0  0  0  0  0  0  0  0
   40.2940   22.2420   38.6670 H   0  0  0  0  0  0  0  0  0  0  0  0
   37.8030   26.6590   35.4590 C   0  0  0  0  0  0  0  0  0  0  0  0
   38.0380   25.3250   35.0690 C   0  0  0  0  0  0  0  0  0  0  0  0
   37.7070   24.9820   33.7680 C   0  0  0  0  0  0  0  0  0  0  0  0
   37.1790   25.9270   32.9370 N   0  0  0  0  0  0  0  0  0  0  0  0
   36.9730   27.1920   33.3550 C   0  0  0  0  0  0  0  0  0  0  0  0
   37.2800   27.5630   34.6080 N   0  0  0  0  0  0  0  0  0  0  0  0
   38.0080   27.0940   36.4480 H   0  0  0  0  0  0  0  0  0  0  0  0
   37.9000   23.9540   33.5070 H   0  0  0  0  0  0  0  0  0  0  0  0
   36.5520   27.8310   32.5960 H   0  0  0  0  0  0  0  0  0  0  0  0
   41.7620   22.5700   36.5460 N   0  0  0  0  0  0  0  0  0  0  0  0
   42.9570   23.3840   36.4200 C   0  0  0  0  0  3  0  0  0  0  0  0
   43.1160   23.8700   37.4110 H   0  0  0  0  0  0  0  0  0  0  0  0
   44.1460   22.5200   36.1680 C   0  0  0  0  0  3  0  0  0  0  0  0
   44.4570   22.0610   37.1440 H   0  0  0  0  0  0  0  0  0  0  0  0
   43.9750   21.5200   35.1470 N   0  0  0  0  0  0  0  0  0  0  0  0
   44.6010   20.6930   35.3330 H   0  0  0  0  0  0  0  0  0  0  0  0
   42.6460   20.9770   35.0540 C   0  0  0  0  0  2  0  0  0  0  0  0
   42.0110   21.1330   36.4410 C   0  0  0  0  0  2  0  0  0  0  0  0
  1  2  1  0  0  0  0
  2  3  2  0  0  0  0
  2  7  1  0  0  0  0
  3  4  1  0  0  0  0
  4  8  1  0  0  0  0
  4  5  2  0  0  0  0
  5  9  1  0  0  0  0
  6  5  1  0  0  0  0
  6 10  1  0  0  0  0
  7  6  2  0  0  0  0
 11 17  1  0  0  0  0
 12 11  1  0  0  0  0
 12  3  1  0  0  0  0
 13 12  2  0  0  0  0
 14 15  2  0  0  0  0
 14 13  1  0  0  0  0
 15 16  1  0  0  0  0
 16 11  2  0  0  0  0
 18 13  1  0  0  0  0
 19 15  1  0  0  0  0
 20  7  1  0  0  0  0
 21 20  1  0  0  0  0
 21 22  1  0  0  0  0
 23 21  1  0  0  0  0
 23 24  1  0  0  0  0
 25 26  1  0  0  0  0
 25 23  1  0  0  0  0
 27 25  1  0  0  0  0
 27 28  1  0  0  0  0
 28 20  1  0  0  0  0
M  END
>  <minimizedAffinity>
-4.7086544

$$$$

 OpenBabel03262521383D

 28 30  0  0  0  0  0  0  0  0999 V2000
   36.4710   26.3980   35.1130 F   0  0  0  0  0  0  0  0  0  0  0  0
   37.2930   26.5370   34.0130 C   0  0  0  0  0  0  0  0  0  0  0  0
   37.1670   27.6000   33.1300 C   0  0  0  0  0  0  0  0  0  0  0  0
   38.0200   27.6880   32.0440 C   0  0  0  0  0  0  0  0  0  0  0  0
   38.9990   26.7200   31.8310 C   0  0  0  0  0  0  0  0  0  0  0  0
   39.0810   25.6780   32.7420 C   0  0  0  0  0  0  0  0  0  0  0  0
   38.2580   25.5640   33.8210 C   0  0  0  0  0  0  0  0  0  0  0  0
   37.9120   28.5220   31.3630 H   0  0  0  0  0  0  0  0  0  0  0  0
   39.6700   26.7900   30.9760 H   0  0  0  0  0  0  0  0  0  0  0  0
   39.8500   24.9360   32.5580 H   0  0  0  0  0  0  0  0  0  0  0  0
   35.1240   28.6290   32.4490 C   0  0  0  0  0  0  0  0  0  0  0  0
   36.1400   28.5460   33.4210 C   0  0  0  0  0  0  0  0  0  0  0  0
   36.0240   29.3760   34.5260 C   0  0  0  0  0  0  0  0  0  0  0  0
   34.9570   30.2200   34.6240 N   0  0  0  0  0  0  0  0  0  0  0  0
   34.0090   30.2640   33.6670 C   0  0  0  0  0  0  0  0  0  0  0  0
   34.0840   29.4760   32.5820 N   0  0  0  0  0  0  0  0  0  0  0  0
   35.0620   28.0450   31.5200 H   0  0  0  0  0  0  0  0  0  0  0  0
   36.8200   29.2840   35.2470 H   0  0  0  0  0  0  0  0  0  0  0  0
   33.2250   30.9740   33.8730 H   0  0  0  0  0  0  0  0  0  0  0  0
   38.4370   24.4520   34.6880 N   0  0  0  0  0  0  0  0  0  0  0  0
   38.0640   23.1060   34.2950 C   0  0  0  0  0  3  0  0  0  0  0  0
   38.7460   22.8170   33.4610 H   0  0  0  0  0  0  0  0  0  0  0  0
   38.3210   22.1510   35.4120 C   0  0  0  0  0  3  0  0  0  0  0  0
   39.4220   21.9320   35.4370 H   0  0  0  0  0  0  0  0  0  0  0  0
   37.8390   22.5700   36.7020 N   0  0  0  0  0  0  0  0  0  0  0  0
   38.4250   22.1460   37.4690 H   0  0  0  0  0  0  0  0  0  0  0  0
   37.8860   23.9900   36.9300 C   0  0  0  0  0  2  0  0  0  0  0  0
   39.0020   24.5410   36.0330 C   0  0  0  0  0  2  0  0  0  0  0  0
  2  1  1  0  0  0  0
  3 12  1  0  0  0  0
  3  2  2  0  0  0  0
  4  3  1  0  0  0  0
  5  4  2  0  0  0  0
  5  6  1  0  0  0  0
  6  7  2  0  0  0  0
  7  2  1  0  0  0  0
  7 20  1  0  0  0  0
  8  4  1  0  0  0  0
  9  5  1  0  0  0  0
 10  6  1  0  0  0  0
 11 16  2  0  0  0  0
 11 12  1  0  0  0  0
 12 13  2  0  0  0  0
 13 14  1  0  0  0  0
 13 18  1  0  0  0  0
 15 19  1  0  0  0  0
 15 14  2  0  0  0  0
 16 15  1  0  0  0  0
 17 11  1  0  0  0  0
 20 28  1  0  0  0  0
 21 20  1  0  0  0  0
 21 23  1  0  0  0  0
 22 21  1  0  0  0  0
 23 24  1  0  0  0  0
 23 25  1  0  0  0  0
 25 27  1  0  0  0  0
 25 26  1  0  0  0  0
 28 27  1  0  0  0  0
M  END
>  <minimizedAffinity>
-4.69505453

$$$$

 OpenBabel03262521383D

 28 30  0  0  0  0  0  0  0  0999 V2000
   35.5340   28.3640   34.3440 F   0  0  0  0  0  0  0  0  0  0  0  0
   35.8050   29.2880   33.3550 C   0  0  0  0  0  0  0  0  0  0  0  0
   35.4650   30.6260   33.4860 C   0  0  0  0  0  0  0  0  0  0  0  0
   35.7620   31.5080   32.4620 C   0  0  0  0  0  0  0  0  0  0  0  0
   36.3970   31.0620   31.3050 C   0  0  0  0  0  0  0  0  0  0  0  0
   36.7140   29.7150   31.2250 C   0  0  0  0  0  0  0  0  0  0  0  0
   36.4360   28.8220   32.2150 C   0  0  0  0  0  0  0  0  0  0  0  0
   35.4920   32.5500   32.5760 H   0  0  0  0  0  0  0  0  0  0  0  0
   36.6310   31.7570   30.5000 H   0  0  0  0  0  0  0  0  0  0  0  0
   37.2090   29.3890   30.3160 H   0  0  0  0  0  0  0  0  0  0  0  0
   35.6550   31.6200   35.6480 C   0  0  0  0  0  0  0  0  0  0  0  0
   34.8170   30.9990   34.7020 C   0  0  0  0  0  0  0  0  0  0  0  0
   33.4880   30.8250   35.0540 C   0  0  0  0  0  0  0  0  0  0  0  0
   33.0550   31.2530   36.2750 N   0  0  0  0  0  0  0  0  0  0  0  0
   33.8950   31.8440   37.1490 C   0  0  0  0  0  0  0  0  0  0  0  0
   35.1890   32.0300   36.8450 N   0  0  0  0  0  0  0  0  0  0  0  0
   36.7270   31.8330   35.5300 H   0  0  0  0  0  0  0  0  0  0  0  0
   32.8790   30.3470   34.3050 H   0  0  0  0  0  0  0  0  0  0  0  0
   33.4190   32.1310   38.0730 H   0  0  0  0  0  0  0  0  0  0  0  0
   36.8100   27.4660   32.0200 N   0  0  0  0  0  0  0  0  0  0  0  0
   36.0110   26.5580   31.2180 C   0  0  0  0  0  3  0  0  0  0  0  0
   36.0660   26.9290   30.1680 H   0  0  0  0  0  0  0  0  0  0  0  0
   36.6160   25.1940   31.2250 C   0  0  0  0  0  3  0  0  0  0  0  0
   37.4850   25.1940   30.5150 H   0  0  0  0  0  0  0  0  0  0  0  0
   36.9950   24.6950   32.5210 N   0  0  0  0  0  0  0  0  0  0  0  0
   37.7940   24.0140   32.4340 H   0  0  0  0  0  0  0  0  0  0  0  0
   37.4540   25.7020   33.4410 C   0  0  0  0  0  2  0  0  0  0  0  0
   38.0080   26.8530   32.5920 C   0  0  0  0  0  2  0  0  0  0  0  0
  2  3  1  0  0  0  0
  2  1  1  0  0  0  0
  3 12  1  0  0  0  0
  4  8  1  0  0  0  0
  4  3  2  0  0  0  0
  5  4  1  0  0  0  0
  6  5  2  0  0  0  0
  6  7  1  0  0  0  0
  7  2  2  0  0  0  0
  9  5  1  0  0  0  0
 10  6  1  0  0  0  0
 11 16  1  0  0  0  0
 12 13  1  0  0  0  0
 12 11  2  0  0  0  0
 13 14  2  0  0  0  0
 14 15  1  0  0  0  0
 15 19  1  0  0  0  0
 16 15  2  0  0  0  0
 17 11  1  0  0  0  0
 18 13  1  0  0  0  0
 20  7  1  0  0  0  0
 20 28  1  0  0  0  0
 21 23  1  0  0  0  0
 21 20  1  0  0  0  0
 22 21  1  0  0  0  0
 23 25  1  0  0  0  0
 24 23  1  0  0  0  0
 25 27  1  0  0  0  0
 26 25  1  0  0  0  0
 28 27  1  0  0  0  0
M  END
>  <minimizedAffinity>
-4.66302443

$$$$
