
 OpenBabel03272510323D

 28 30  0  0  0  0  0  0  0  0999 V2000
   36.0400   30.4470   46.5520 C   0  0  0  0  0  0  0  0  0  0  0  0
   35.3950   30.2660   45.3510 C   0  0  0  0  0  0  0  0  0  0  0  0
   34.0860   29.8190   45.2880 C   0  0  0  0  0  0  0  0  0  0  0  0
   33.4410   29.5590   46.4770 C   0  0  0  0  0  0  0  0  0  0  0  0
   34.0680   29.7350   47.7000 C   0  0  0  0  0  0  0  0  0  0  0  0
   35.3880   30.1850   47.7460 C   0  0  0  0  0  0  0  0  0  0  0  0
   35.8240   30.4450   44.3580 H   0  0  0  0  0  0  0  0  0  0  0  0
   33.5520   29.6660   44.3590 H   0  0  0  0  0  0  0  0  0  0  0  0
   32.4340   29.2110   46.5600 H   0  0  0  0  0  0  0  0  0  0  0  0
   33.6320   29.5530   48.6700 H   0  0  0  0  0  0  0  0  0  0  0  0
   38.9050   32.6720   46.8600 C   0  0  0  0  0  0  0  0  0  0  0  0
   39.9910   31.9110   46.4230 C   0  0  0  0  0  0  0  0  0  0  0  0
   39.7150   30.5850   46.0100 C   0  0  0  0  0  0  0  0  0  0  0  0
   38.4350   30.1680   46.0710 N   0  0  0  0  0  0  0  0  0  0  0  0
   37.4110   30.9190   46.4950 C   0  0  0  0  0  0  0  0  0  0  0  0
   37.6490   32.1960   46.8980 N   0  0  0  0  0  0  0  0  0  0  0  0
   39.1090   33.6880   47.1770 H   0  0  0  0  0  0  0  0  0  0  0  0
   40.9720   32.3550   46.4190 H   0  0  0  0  0  0  0  0  0  0  0  0
   40.5420   29.9870   45.6710 H   0  0  0  0  0  0  0  0  0  0  0  0
   36.0650   30.3770   48.9830 N   0  0  0  0  0  0  0  0  0  0  0  0
   36.4960   31.5720   49.6730 C   0  0  0  0  0  3  0  0  0  0  0  0
   35.8200   31.8700   50.4850 H   0  0  0  0  0  0  0  0  0  0  0  0
   37.8650   31.4160   50.2910 C   0  0  0  0  0  3  0  0  0  0  0  0
   38.4890   32.3160   50.2040 H   0  0  0  0  0  0  0  0  0  0  0  0
   38.5380   30.3300   49.5770 N   0  0  0  0  0  0  0  0  0  0  0  0
   39.5380   30.2890   49.8130 H   0  0  0  0  0  0  0  0  0  0  0  0
   37.8830   29.1130   50.0810 C   0  0  0  0  0  2  0  0  0  0  0  0
   36.4160   29.1690   49.7370 C   0  0  0  0  0  2  0  0  0  0  0  0
  1  6  1  0  0  0  0
  2  1  2  0  0  0  0
  3  2  1  0  0  0  0
  3  4  2  0  0  0  0
  4  9  1  0  0  0  0
  4  5  1  0  0  0  0
  5  6  2  0  0  0  0
  5 10  1  0  0  0  0
  6 20  1  0  0  0  0
  7  2  1  0  0  0  0
  8  3  1  0  0  0  0
 11 16  1  0  0  0  0
 11 17  1  0  0  0  0
 12 11  2  0  0  0  0
 13 14  2  0  0  0  0
 13 12  1  0  0  0  0
 14 15  1  0  0  0  0
 15  1  1  0  0  0  0
 15 16  2  0  0  0  0
 18 12  1  0  0  0  0
 19 13  1  0  0  0  0
 20 21  1  0  0  0  0
 20 28  1  0  0  0  0
 21 23  1  0  0  0  0
 21 22  1  0  0  0  0
 24 23  1  0  0  0  0
 25 26  1  0  0  0  0
 25 27  1  0  0  0  0
 25 23  1  0  0  0  0
 28 27  1  0  0  0  0
M  END
>  <minimizedAffinity>
-4.40317678

>  <minimizedRMSD>
2.36138749

$$$$
