
 OpenBabel03262521363D

 28 30  0  0  0  0  0  0  0  0999 V2000
   38.2970   31.1470   46.9210 F   0  0  0  0  0  0  0  0  0  0  0  0
   37.0360   30.7120   46.5690 C   0  0  0  0  0  0  0  0  0  0  0  0
   36.1050   30.3100   47.5160 C   0  0  0  0  0  0  0  0  0  0  0  0
   34.8550   29.8830   47.1040 C   0  0  0  0  0  0  0  0  0  0  0  0
   34.5260   29.8540   45.7520 C   0  0  0  0  0  0  0  0  0  0  0  0
   35.4930   30.2650   44.8460 C   0  0  0  0  0  0  0  0  0  0  0  0
   36.7320   30.6900   45.2190 C   0  0  0  0  0  0  0  0  0  0  0  0
   34.1380   29.5730   47.8530 H   0  0  0  0  0  0  0  0  0  0  0  0
   33.5420   29.5180   45.4290 H   0  0  0  0  0  0  0  0  0  0  0  0
   35.2160   30.2350   43.7980 H   0  0  0  0  0  0  0  0  0  0  0  0
   36.6160   29.1210   49.5230 C   0  0  0  0  0  0  0  0  0  0  0  0
   36.5230   30.3710   48.8790 C   0  0  0  0  0  0  0  0  0  0  0  0
   36.8430   31.4910   49.6300 C   0  0  0  0  0  0  0  0  0  0  0  0
   37.2250   31.3420   50.9310 N   0  0  0  0  0  0  0  0  0  0  0  0
   37.2990   30.1240   51.5040 C   0  0  0  0  0  0  0  0  0  0  0  0
   36.9980   29.0150   50.8110 N   0  0  0  0  0  0  0  0  0  0  0  0
   36.4010   28.1400   49.0750 H   0  0  0  0  0  0  0  0  0  0  0  0
   36.7600   32.4280   49.1040 H   0  0  0  0  0  0  0  0  0  0  0  0
   37.6140   30.1540   52.5350 H   0  0  0  0  0  0  0  0  0  0  0  0
   37.6390   31.0890   44.2010 N   0  0  0  0  0  0  0  0  0  0  0  0
   38.5200   30.1400   43.5450 C   0  0  0  0  0  0  0  0  0  0  0  0
   37.8660   29.4480   42.9650 H   0  0  0  0  0  0  0  0  0  0  0  0
   39.3900   30.8410   42.5560 C   0  0  0  0  0  0  0  0  0  0  0  0
   38.7790   31.0420   41.6360 H   0  0  0  0  0  0  0  0  0  0  0  0
   40.0270   32.0380   43.0370 N   0  0  0  0  0  0  0  0  0  0  0  0
   40.2090   32.7040   42.2420 H   0  0  0  0  0  0  0  0  0  0  0  0
   39.2550   32.7880   43.9910 C   0  0  0  0  0  0  0  0  0  0  0  0
   37.7820   32.4610   43.7180 C   0  0  0  0  0  0  0  0  0  0  0  0
  2  1  1  0  0  0  0
  2  3  1  0  0  0  0
  3 12  1  0  0  0  0
  4  3  2  0  0  0  0
  4  8  1  0  0  0  0
  5  4  1  0  0  0  0
  6  7  1  0  0  0  0
  6  5  2  0  0  0  0
  7  2  2  0  0  0  0
  9  5  1  0  0  0  0
 10  6  1  0  0  0  0
 11 16  1  0  0  0  0
 12 11  2  0  0  0  0
 12 13  1  0  0  0  0
 13 14  2  0  0  0  0
 14 15  1  0  0  0  0
 15 19  1  0  0  0  0
 16 15  2  0  0  0  0
 17 11  1  0  0  0  0
 18 13  1  0  0  0  0
 20  7  1  0  0  0  0
 21 20  1  0  0  0  0
 22 21  1  0  0  0  0
 23 25  1  0  0  0  0
 23 21  1  0  0  0  0
 24 23  1  0  0  0  0
 25 27  1  0  0  0  0
 26 25  1  0  0  0  0
 28 27  1  0  0  0  0
 28 20  1  0  0  0  0
M  END
>  <minimizedAffinity>
-5.20529222

>  <minimizedRMSD>
5.72202349

$$$$
