
 OpenBabel03272502383D

 30 32  0  0  1  0  0  0  0  0999 V2000
   38.2780   26.4210   33.7910 N   0  0  0  0  0  0  0  0  0  0  0  0
   38.9700   27.1920   34.7900 C   0  0  0  0  0  0  0  0  0  0  0  0
   38.6010   26.4780   36.0950 C   0  0  0  0  0  0  0  0  0  0  0  0
   37.7360   25.3140   35.6910 C   0  0  1  0  0  0  0  0  0  0  0  0
   38.2430   25.0490   34.2980 C   0  0  0  0  0  0  0  0  0  0  0  0
   38.5940   28.2260   34.8900 H   0  0  0  0  0  0  0  0  0  0  0  0
   40.0600   27.2180   34.6140 H   0  0  0  0  0  0  0  0  0  0  0  0
   38.1110   27.1380   36.8130 H   0  0  0  0  0  0  0  0  0  0  0  0
   39.5710   26.1160   36.5190 H   0  0  0  0  0  0  0  0  0  0  0  0
   36.6860   25.6570   35.6130 H   0  0  0  0  0  0  0  0  0  0  0  0
   39.2690   24.6390   34.3270 H   0  0  0  0  0  0  0  0  0  0  0  0
   37.5470   24.4300   33.6940 H   0  0  0  0  0  0  0  0  0  0  0  0
   37.7370   26.8730   32.5670 C   0  0  0  0  0  0  0  0  0  0  0  0
   38.5910   27.5570   31.7120 C   0  0  0  0  0  0  0  0  0  0  0  0
   38.0940   28.0260   30.4800 C   0  0  0  0  0  0  0  0  0  0  0  0
   36.7690   27.7660   30.2070 N   0  0  0  0  0  0  0  0  0  0  0  0
   35.9760   27.1010   31.0620 C   0  0  0  0  0  0  0  0  0  0  0  0
   36.4540   26.6500   32.2480 N   0  0  0  0  0  0  0  0  0  0  0  0
   39.6120   27.7660   31.9030 H   0  0  0  0  0  0  0  0  0  0  0  0
   38.7220   28.5640   29.7820 H   0  0  0  0  0  0  0  0  0  0  0  0
   34.9460   26.9330   30.7850 H   0  0  0  0  0  0  0  0  0  0  0  0
   37.7670   24.2160   36.5870 N   0  0  2  0  0  0  0  0  0  0  0  0
   38.0710   24.5490   37.9500 C   0  0  0  0  0  3  0  0  0  0  0  0
   38.9930   25.1320   38.0910 H   0  0  0  0  0  0  0  0  0  0  0  0
   38.2360   23.2190   38.6960 C   0  0  0  0  0  3  0  0  0  0  0  0
   38.2720   23.4760   39.7730 H   0  0  0  0  0  0  0  0  0  0  0  0
   39.4390   22.5390   38.2620 N   0  0  0  0  0  0  0  0  0  0  0  0
   39.3390   21.5180   38.3220 H   0  0  0  0  0  0  0  0  0  0  0  0
   39.8280   23.0280   36.9450 C   0  0  0  0  0  2  0  0  0  0  0  0
   38.6250   23.1930   36.0430 C   0  0  0  0  0  2  0  0  0  0  0  0
  1  5  1  0  0  0  0
  1  2  1  0  0  0  0
  2  6  1  0  0  0  0
  2  3  1  0  0  0  0
  3  9  1  0  0  0  0
  3  8  1  0  0  0  0
  4 10  1  6  0  0  0
  4  3  1  0  0  0  0
  4 22  1  0  0  0  0
  5 11  1  0  0  0  0
  5  4  1  0  0  0  0
  7  2  1  0  0  0  0
 12  5  1  0  0  0  0
 13  1  1  0  0  0  0
 14 19  1  0  0  0  0
 14 13  2  0  0  0  0
 15 14  1  0  0  0  0
 16 15  2  0  0  0  0
 16 17  1  0  0  0  0
 17 18  2  0  0  0  0
 18 13  1  0  0  0  0
 20 15  1  0  0  0  0
 21 17  1  0  0  0  0
 22 30  1  6  0  0  0
 22 23  1  0  0  0  0
 23 24  1  0  0  0  0
 23 25  1  0  0  0  0
 25 26  1  0  0  0  0
 27 28  1  0  0  0  0
 27 25  1  0  0  0  0
 29 27  1  0  0  0  0
 30 29  1  0  0  0  0
M  END
>  <minimizedAffinity>
-4.8650589

$$$$

 OpenBabel03272502383D

 30 32  0  0  1  0  0  0  0  0999 V2000
   38.1300   25.3160   35.2340 N   0  0  0  0  0  0  0  0  0  0  0  0
   37.6240   26.6390   35.4830 C   0  0  0  0  0  0  0  0  0  0  0  0
   37.8630   27.3580   34.1520 C   0  0  0  0  0  0  0  0  0  0  0  0
   38.4690   26.3280   33.2370 C   0  0  1  0  0  0  0  0  0  0  0  0
   37.8970   25.0600   33.8120 C   0  0  0  0  0  0  0  0  0  0  0  0
   38.2030   27.1980   36.2410 H   0  0  0  0  0  0  0  0  0  0  0  0
   36.5590   26.6290   35.7760 H   0  0  0  0  0  0  0  0  0  0  0  0
   38.4880   28.2470   34.2590 H   0  0  0  0  0  0  0  0  0  0  0  0
   36.8480   27.6550   33.7890 H   0  0  0  0  0  0  0  0  0  0  0  0
   39.5660   26.3100   33.3930 H   0  0  0  0  0  0  0  0  0  0  0  0
   36.8100   25.0000   33.6210 H   0  0  0  0  0  0  0  0  0  0  0  0
   38.4430   24.1510   33.4870 H   0  0  0  0  0  0  0  0  0  0  0  0
   38.7310   24.4280   36.1540 C   0  0  0  0  0  0  0  0  0  0  0  0
   38.1000   24.2660   37.3810 C   0  0  0  0  0  0  0  0  0  0  0  0
   38.6650   23.3900   38.3290 C   0  0  0  0  0  0  0  0  0  0  0  0
   39.8250   22.7440   37.9620 N   0  0  0  0  0  0  0  0  0  0  0  0
   40.4030   22.9290   36.7660 C   0  0  0  0  0  0  0  0  0  0  0  0
   39.8610   23.7710   35.8530 N   0  0  0  0  0  0  0  0  0  0  0  0
   37.2090   24.7530   37.6810 H   0  0  0  0  0  0  0  0  0  0  0  0
   38.2100   23.2330   39.2980 H   0  0  0  0  0  0  0  0  0  0  0  0
   41.3130   22.3910   36.5440 H   0  0  0  0  0  0  0  0  0  0  0  0
   38.2330   26.5510   31.8570 N   0  0  2  0  0  0  0  0  0  0  0  0
   38.1320   27.9300   31.4700 C   0  0  0  0  0  3  0  0  0  0  0  0
   37.4010   28.5210   32.0430 H   0  0  0  0  0  0  0  0  0  0  0  0
   37.6950   27.9380   30.0000 C   0  0  0  0  0  3  0  0  0  0  0  0
   37.8100   28.9840   29.6540 H   0  0  0  0  0  0  0  0  0  0  0  0
   36.3290   27.4740   29.8730 N   0  0  0  0  0  0  0  0  0  0  0  0
   36.1720   27.0010   28.9740 H   0  0  0  0  0  0  0  0  0  0  0  0
   35.9740   26.6770   31.0400 C   0  0  0  0  0  2  0  0  0  0  0  0
   37.1040   25.7560   31.4410 C   0  0  0  0  0  2  0  0  0  0  0  0
  1  2  1  0  0  0  0
  1 13  1  0  0  0  0
  2  7  1  0  0  0  0
  2  6  1  0  0  0  0
  3  8  1  0  0  0  0
  3  2  1  0  0  0  0
  4 10  1  1  0  0  0
  4  5  1  0  0  0  0
  4  3  1  0  0  0  0
  5  1  1  0  0  0  0
  9  3  1  0  0  0  0
 11  5  1  0  0  0  0
 12  5  1  0  0  0  0
 13 14  1  0  0  0  0
 14 19  1  0  0  0  0
 14 15  2  0  0  0  0
 15 20  1  0  0  0  0
 16 15  1  0  0  0  0
 17 16  2  0  0  0  0
 18 13  2  0  0  0  0
 18 17  1  0  0  0  0
 21 17  1  0  0  0  0
 22 30  1  1  0  0  0
 22  4  1  0  0  0  0
 23 22  1  0  0  0  0
 23 24  1  0  0  0  0
 25 23  1  0  0  0  0
 26 25  1  0  0  0  0
 27 25  1  0  0  0  0
 27 29  1  0  0  0  0
 28 27  1  0  0  0  0
 29 30  1  0  0  0  0
M  END
>  <minimizedAffinity>
-4.71777678

$$$$

 OpenBabel03272502383D

 30 32  0  0  1  0  0  0  0  0999 V2000
   38.0240   25.3830   33.2960 N   0  0  0  0  0  0  0  0  0  0  0  0
   38.9990   26.4320   33.4300 C   0  0  0  0  0  0  0  0  0  0  0  0
   39.3460   26.3950   34.9220 C   0  0  0  0  0  0  0  0  0  0  0  0
   38.5330   25.2670   35.5000 C   0  0  1  0  0  0  0  0  0  0  0  0
   38.3810   24.3750   34.2960 C   0  0  0  0  0  0  0  0  0  0  0  0
   38.5920   27.4410   33.2360 H   0  0  0  0  0  0  0  0  0  0  0  0
   39.8800   26.2670   32.7840 H   0  0  0  0  0  0  0  0  0  0  0  0
   39.1600   27.3470   35.4220 H   0  0  0  0  0  0  0  0  0  0  0  0
   40.4370   26.1520   34.9660 H   0  0  0  0  0  0  0  0  0  0  0  0
   37.5290   25.6500   35.7700 H   0  0  0  0  0  0  0  0  0  0  0  0
   39.3490   23.9140   34.0270 H   0  0  0  0  0  0  0  0  0  0  0  0
   37.5640   23.6330   34.4060 H   0  0  0  0  0  0  0  0  0  0  0  0
   36.9390   25.3150   32.3930 C   0  0  0  0  0  0  0  0  0  0  0  0
   36.5480   24.0520   31.9680 C   0  0  0  0  0  0  0  0  0  0  0  0
   35.4700   23.9380   31.0680 C   0  0  0  0  0  0  0  0  0  0  0  0
   34.8710   25.1110   30.6670 N   0  0  0  0  0  0  0  0  0  0  0  0
   35.2810   26.3130   31.1010 C   0  0  0  0  0  0  0  0  0  0  0  0
   36.3170   26.4240   31.9670 N   0  0  0  0  0  0  0  0  0  0  0  0
   36.9950   23.1390   32.2660 H   0  0  0  0  0  0  0  0  0  0  0  0
   35.1300   22.9750   30.7090 H   0  0  0  0  0  0  0  0  0  0  0  0
   34.7660   27.1930   30.7450 H   0  0  0  0  0  0  0  0  0  0  0  0
   39.0920   24.6670   36.6560 N   0  0  2  0  0  0  0  0  0  0  0  0
   39.5920   23.3330   36.4690 C   0  0  0  0  0  3  0  0  0  0  0  0
   38.8740   22.6250   36.0280 H   0  0  0  0  0  0  0  0  0  0  0  0
   39.9710   22.8130   37.8620 C   0  0  0  0  0  3  0  0  0  0  0  0
   40.5340   21.8740   37.6930 H   0  0  0  0  0  0  0  0  0  0  0  0
   38.7850   22.5960   38.6630 N   0  0  0  0  0  0  0  0  0  0  0  0
   38.9720   22.7430   39.6630 H   0  0  0  0  0  0  0  0  0  0  0  0
   37.6860   23.3930   38.1350 C   0  0  0  0  0  2  0  0  0  0  0  0
   38.1500   24.7780   37.7420 C   0  0  0  0  0  2  0  0  0  0  0  0
  1  2  1  0  0  0  0
  1  5  1  0  0  0  0
  2  3  1  0  0  0  0
  3  9  1  0  0  0  0
  3  8  1  0  0  0  0
  3  4  1  0  0  0  0
  4 10  1  1  0  0  0
  4 22  1  0  0  0  0
  5 12  1  0  0  0  0
  5  4  1  0  0  0  0
  6  2  1  0  0  0  0
  7  2  1  0  0  0  0
 11  5  1  0  0  0  0
 13  1  1  0  0  0  0
 14 19  1  0  0  0  0
 14 13  1  0  0  0  0
 15 14  2  0  0  0  0
 16 15  1  0  0  0  0
 16 17  2  0  0  0  0
 17 18  1  0  0  0  0
 18 13  2  0  0  0  0
 20 15  1  0  0  0  0
 21 17  1  0  0  0  0
 22 30  1  1  0  0  0
 23 22  1  0  0  0  0
 23 25  1  0  0  0  0
 24 23  1  0  0  0  0
 25 27  1  0  0  0  0
 26 25  1  0  0  0  0
 27 28  1  0  0  0  0
 29 27  1  0  0  0  0
 30 29  1  0  0  0  0
M  END
>  <minimizedAffinity>
-4.71166277

$$$$

 OpenBabel03272502383D

 30 32  0  0  1  0  0  0  0  0999 V2000
   38.4260   23.1540   34.5460 N   0  0  0  0  0  0  0  0  0  0  0  0
   37.9040   22.0710   33.7550 C   0  0  0  0  0  0  0  0  0  0  0  0
   37.2270   22.7920   32.5840 C   0  0  0  0  0  0  0  0  0  0  0  0
   37.4690   24.2600   32.8160 C   0  0  1  0  0  0  0  0  0  0  0  0
   38.7550   24.2190   33.5970 C   0  0  0  0  0  0  0  0  0  0  0  0
   37.1090   21.4970   34.2620 H   0  0  0  0  0  0  0  0  0  0  0  0
   38.6980   21.3770   33.4250 H   0  0  0  0  0  0  0  0  0  0  0  0
   36.1660   22.5480   32.4970 H   0  0  0  0  0  0  0  0  0  0  0  0
   37.7690   22.4460   31.6700 H   0  0  0  0  0  0  0  0  0  0  0  0
   36.6770   24.6530   33.4830 H   0  0  0  0  0  0  0  0  0  0  0  0
   39.5940   23.8950   32.9540 H   0  0  0  0  0  0  0  0  0  0  0  0
   38.9660   25.1660   34.1360 H   0  0  0  0  0  0  0  0  0  0  0  0
   38.5950   23.2030   35.9480 C   0  0  0  0  0  0  0  0  0  0  0  0
   39.7870   22.7050   36.4580 C   0  0  0  0  0  0  0  0  0  0  0  0
   39.9990   22.7340   37.8510 C   0  0  0  0  0  0  0  0  0  0  0  0
   38.9870   23.2650   38.6200 N   0  0  0  0  0  0  0  0  0  0  0  0
   37.8490   23.7350   38.0870 C   0  0  0  0  0  0  0  0  0  0  0  0
   37.6450   23.7080   36.7470 N   0  0  0  0  0  0  0  0  0  0  0  0
   40.5760   22.2930   35.8830 H   0  0  0  0  0  0  0  0  0  0  0  0
   40.9110   22.3560   38.2940 H   0  0  0  0  0  0  0  0  0  0  0  0
   37.0970   24.1380   38.7490 H   0  0  0  0  0  0  0  0  0  0  0  0
   37.4770   25.0500   31.6390 N   0  0  2  0  0  0  0  0  0  0  0  0
   37.9400   26.3980   31.8140 C   0  0  0  0  0  3  0  0  0  0  0  0
   37.4290   26.9660   32.6050 H   0  0  0  0  0  0  0  0  0  0  0  0
   37.6910   27.1180   30.4820 C   0  0  0  0  0  3  0  0  0  0  0  0
   38.2260   28.0860   30.5550 H   0  0  0  0  0  0  0  0  0  0  0  0
   36.2730   27.3000   30.2600 N   0  0  0  0  0  0  0  0  0  0  0  0
   36.0430   27.2930   29.2580 H   0  0  0  0  0  0  0  0  0  0  0  0
   35.5260   26.3300   31.0520 C   0  0  0  0  0  2  0  0  0  0  0  0
   36.1810   24.9680   31.0120 C   0  0  0  0  0  2  0  0  0  0  0  0
  1 13  1  0  0  0  0
  2  6  1  0  0  0  0
  2  1  1  0  0  0  0
  3  4  1  0  0  0  0
  3  2  1  0  0  0  0
  4 10  1  1  0  0  0
  4  5  1  0  0  0  0
  5 12  1  0  0  0  0
  5  1  1  0  0  0  0
  7  2  1  0  0  0  0
  8  3  1  0  0  0  0
  9  3  1  0  0  0  0
 11  5  1  0  0  0  0
 13 14  2  0  0  0  0
 13 18  1  0  0  0  0
 14 15  1  0  0  0  0
 15 20  1  0  0  0  0
 15 16  2  0  0  0  0
 17 16  1  0  0  0  0
 17 21  1  0  0  0  0
 18 17  2  0  0  0  0
 19 14  1  0  0  0  0
 22 30  1  1  0  0  0
 22 23  1  0  0  0  0
 22  4  1  0  0  0  0
 23 24  1  0  0  0  0
 25 26  1  0  0  0  0
 25 23  1  0  0  0  0
 27 25  1  0  0  0  0
 27 29  1  0  0  0  0
 28 27  1  0  0  0  0
 30 29  1  0  0  0  0
M  END
>  <minimizedAffinity>
-4.59909058

$$$$

 OpenBabel03272502383D

 30 32  0  0  1  0  0  0  0  0999 V2000
   36.7030   23.4100   31.5130 N   0  0  0  0  0  0  0  0  0  0  0  0
   35.9690   24.5450   31.0190 C   0  0  0  0  0  0  0  0  0  0  0  0
   36.3630   25.6630   31.9900 C   0  0  0  0  0  0  0  0  0  0  0  0
   37.3410   25.0400   32.9510 C   0  0  1  0  0  0  0  0  0  0  0  0
   37.9320   23.9520   32.0950 C   0  0  0  0  0  0  0  0  0  0  0  0
   34.8730   24.4350   31.1070 H   0  0  0  0  0  0  0  0  0  0  0  0
   36.2270   24.7830   29.9710 H   0  0  0  0  0  0  0  0  0  0  0  0
   35.5020   26.1060   32.4940 H   0  0  0  0  0  0  0  0  0  0  0  0
   36.8710   26.4360   31.3620 H   0  0  0  0  0  0  0  0  0  0  0  0
   36.7780   24.5580   33.7750 H   0  0  0  0  0  0  0  0  0  0  0  0
   38.5610   24.3820   31.2940 H   0  0  0  0  0  0  0  0  0  0  0  0
   38.4570   23.1720   32.6850 H   0  0  0  0  0  0  0  0  0  0  0  0
   36.3340   22.0470   31.4590 C   0  0  0  0  0  0  0  0  0  0  0  0
   35.2130   21.6660   32.1850 C   0  0  0  0  0  0  0  0  0  0  0  0
   34.8090   20.3170   32.1600 C   0  0  0  0  0  0  0  0  0  0  0  0
   35.5710   19.4560   31.4010 N   0  0  0  0  0  0  0  0  0  0  0  0
   36.6480   19.8650   30.7130 C   0  0  0  0  0  0  0  0  0  0  0  0
   37.0370   21.1640   30.7370 N   0  0  0  0  0  0  0  0  0  0  0  0
   34.6150   22.3130   32.7740 H   0  0  0  0  0  0  0  0  0  0  0  0
   33.9430   19.9730   32.7110 H   0  0  0  0  0  0  0  0  0  0  0  0
   37.2010   19.1360   30.1390 H   0  0  0  0  0  0  0  0  0  0  0  0
   38.2610   25.9490   33.5300 N   0  0  2  0  0  0  0  0  0  0  0  0
   38.9780   25.4480   34.6690 C   0  0  0  0  0  3  0  0  0  0  0  0
   38.3470   25.0400   35.4730 H   0  0  0  0  0  0  0  0  0  0  0  0
   39.7640   26.6340   35.2430 C   0  0  0  0  0  3  0  0  0  0  0  0
   40.4610   26.2040   35.9900 H   0  0  0  0  0  0  0  0  0  0  0  0
   38.8640   27.6000   35.8380 N   0  0  0  0  0  0  0  0  0  0  0  0
   39.2370   28.5560   35.7690 H   0  0  0  0  0  0  0  0  0  0  0  0
   37.5300   27.4350   35.2750 C   0  0  0  0  0  2  0  0  0  0  0  0
   37.5880   27.1980   33.7830 C   0  0  0  0  0  2  0  0  0  0  0  0
  1  5  1  0  0  0  0
  2  6  1  0  0  0  0
  2  1  1  0  0  0  0
  2  3  1  0  0  0  0
  3  8  1  0  0  0  0
  3  4  1  0  0  0  0
  4 22  1  0  0  0  0
  4 10  1  1  0  0  0
  5 12  1  0  0  0  0
  5  4  1  0  0  0  0
  7  2  1  0  0  0  0
  9  3  1  0  0  0  0
 11  5  1  0  0  0  0
 13  1  1  0  0  0  0
 13 14  1  0  0  0  0
 14 19  1  0  0  0  0
 15 14  2  0  0  0  0
 15 20  1  0  0  0  0
 16 15  1  0  0  0  0
 17 18  1  0  0  0  0
 17 16  2  0  0  0  0
 18 13  2  0  0  0  0
 21 17  1  0  0  0  0
 22 30  1  1  0  0  0
 22 23  1  0  0  0  0
 23 25  1  0  0  0  0
 23 24  1  0  0  0  0
 25 27  1  0  0  0  0
 25 26  1  0  0  0  0
 28 27  1  0  0  0  0
 29 27  1  0  0  0  0
 30 29  1  0  0  0  0
M  END
>  <minimizedAffinity>
-4.58218718

$$$$

 OpenBabel03272502383D

 30 32  0  0  1  0  0  0  0  0999 V2000
   38.9080   25.7900   35.2610 N   0  0  0  0  0  0  0  0  0  0  0  0
   39.9510   26.7380   34.9690 C   0  0  0  0  0  0  0  0  0  0  0  0
   39.8680   26.8860   33.4460 C   0  0  0  0  0  0  0  0  0  0  0  0
   38.7260   26.0060   33.0140 C   0  0  1  0  0  0  0  0  0  0  0  0
   37.8710   26.0140   34.2530 C   0  0  0  0  0  0  0  0  0  0  0  0
   40.9660   26.3580   35.1850 H   0  0  0  0  0  0  0  0  0  0  0  0
   39.8020   27.6960   35.4990 H   0  0  0  0  0  0  0  0  0  0  0  0
   40.8060   26.6360   32.9470 H   0  0  0  0  0  0  0  0  0  0  0  0
   39.6220   27.9630   33.2670 H   0  0  0  0  0  0  0  0  0  0  0  0
   39.1030   24.9750   32.8660 H   0  0  0  0  0  0  0  0  0  0  0  0
   37.4150   27.0100   34.4070 H   0  0  0  0  0  0  0  0  0  0  0  0
   37.1270   25.1910   34.2720 H   0  0  0  0  0  0  0  0  0  0  0  0
   38.8700   24.8330   36.2990 C   0  0  0  0  0  0  0  0  0  0  0  0
   39.7260   23.7450   36.1880 C   0  0  0  0  0  0  0  0  0  0  0  0
   39.7220   22.7660   37.2010 C   0  0  0  0  0  0  0  0  0  0  0  0
   38.8510   22.9630   38.2500 N   0  0  0  0  0  0  0  0  0  0  0  0
   38.0390   24.0290   38.3190 C   0  0  0  0  0  0  0  0  0  0  0  0
   38.0430   24.9720   37.3450 N   0  0  0  0  0  0  0  0  0  0  0  0
   40.4020   23.5760   35.3900 H   0  0  0  0  0  0  0  0  0  0  0  0
   40.3700   21.9000   37.1570 H   0  0  0  0  0  0  0  0  0  0  0  0
   37.3800   24.1210   39.1700 H   0  0  0  0  0  0  0  0  0  0  0  0
   38.0900   26.4100   31.8130 N   0  0  2  0  0  0  0  0  0  0  0  0
   37.0870   27.4260   31.9660 C   0  0  0  0  0  3  0  0  0  0  0  0
   36.3070   27.2000   32.7080 H   0  0  0  0  0  0  0  0  0  0  0  0
   36.4080   27.5750   30.5990 C   0  0  0  0  0  3  0  0  0  0  0  0
   35.7810   28.4860   30.6680 H   0  0  0  0  0  0  0  0  0  0  0  0
   35.6210   26.4000   30.2910 N   0  0  0  0  0  0  0  0  0  0  0  0
   35.5790   26.2260   29.2790 H   0  0  0  0  0  0  0  0  0  0  0  0
   36.1060   25.2690   31.0730 C   0  0  0  0  0  2  0  0  0  0  0  0
   37.6170   25.2390   31.1180 C   0  0  0  0  0  2  0  0  0  0  0  0
  1 13  1  0  0  0  0
  2  6  1  0  0  0  0
  2  1  1  0  0  0  0
  2  7  1  0  0  0  0
  3  2  1  0  0  0  0
  4 10  1  6  0  0  0
  4  3  1  0  0  0  0
  4  5  1  0  0  0  0
  5 12  1  0  0  0  0
  5 11  1  0  0  0  0
  5  1  1  0  0  0  0
  8  3  1  0  0  0  0
  9  3  1  0  0  0  0
 13 18  1  0  0  0  0
 14 13  2  0  0  0  0
 14 15  1  0  0  0  0
 15 16  2  0  0  0  0
 16 17  1  0  0  0  0
 17 21  1  0  0  0  0
 18 17  2  0  0  0  0
 19 14  1  0  0  0  0
 20 15  1  0  0  0  0
 22 30  1  1  0  0  0
 22 23  1  0  0  0  0
 22  4  1  0  0  0  0
 23 24  1  0  0  0  0
 25 26  1  0  0  0  0
 25 23  1  0  0  0  0
 27 25  1  0  0  0  0
 27 29  1  0  0  0  0
 28 27  1  0  0  0  0
 29 30  1  0  0  0  0
M  END
>  <minimizedAffinity>
-4.52078295

$$$$

 OpenBabel03272502383D

 30 32  0  0  1  0  0  0  0  0999 V2000
   38.7470   24.7860   34.7360 N   0  0  0  0  0  0  0  0  0  0  0  0
   38.5380   24.0860   33.4960 C   0  0  0  0  0  0  0  0  0  0  0  0
   37.7520   25.0970   32.6560 C   0  0  0  0  0  0  0  0  0  0  0  0
   37.6170   26.3250   33.5170 C   0  0  1  0  0  0  0  0  0  0  0  0
   38.8420   26.2030   34.3840 C   0  0  0  0  0  0  0  0  0  0  0  0
   37.8890   23.1980   33.5940 H   0  0  0  0  0  0  0  0  0  0  0  0
   39.4910   23.7880   33.0220 H   0  0  0  0  0  0  0  0  0  0  0  0
   36.7880   24.7090   32.3220 H   0  0  0  0  0  0  0  0  0  0  0  0
   38.3980   25.3120   31.7690 H   0  0  0  0  0  0  0  0  0  0  0  0
   36.7270   26.2110   34.1670 H   0  0  0  0  0  0  0  0  0  0  0  0
   39.7590   26.3760   33.7920 H   0  0  0  0  0  0  0  0  0  0  0  0
   38.7920   26.8330   35.2960 H   0  0  0  0  0  0  0  0  0  0  0  0
   38.8440   24.2400   36.0360 C   0  0  0  0  0  0  0  0  0  0  0  0
   37.9180   24.6750   36.9750 C   0  0  0  0  0  0  0  0  0  0  0  0
   37.9770   24.1560   38.2840 C   0  0  0  0  0  0  0  0  0  0  0  0
   38.9700   23.2360   38.5410 N   0  0  0  0  0  0  0  0  0  0  0  0
   39.8460   22.8430   37.6040 C   0  0  0  0  0  0  0  0  0  0  0  0
   39.7890   23.3410   36.3450 N   0  0  0  0  0  0  0  0  0  0  0  0
   37.1480   25.3800   36.7960 H   0  0  0  0  0  0  0  0  0  0  0  0
   37.2780   24.4660   39.0490 H   0  0  0  0  0  0  0  0  0  0  0  0
   40.6000   22.1180   37.8750 H   0  0  0  0  0  0  0  0  0  0  0  0
   37.4770   27.5390   32.7990 N   0  0  2  0  0  0  0  0  0  0  0  0
   36.2310   28.2250   32.9980 C   0  0  0  0  0  3  0  0  0  0  0  0
   35.3320   27.6160   32.8210 H   0  0  0  0  0  0  0  0  0  0  0  0
   36.2140   29.3910   32.0020 C   0  0  0  0  0  3  0  0  0  0  0  0
   35.3540   30.0260   32.2920 H   0  0  0  0  0  0  0  0  0  0  0  0
   36.0900   28.8990   30.6460 N   0  0  0  0  0  0  0  0  0  0  0  0
   36.5570   29.5210   29.9740 H   0  0  0  0  0  0  0  0  0  0  0  0
   36.5330   27.5120   30.5870 C   0  0  0  0  0  2  0  0  0  0  0  0
   37.7820   27.2980   31.4110 C   0  0  0  0  0  2  0  0  0  0  0  0
  1 13  1  0  0  0  0
  2  6  1  0  0  0  0
  2  1  1  0  0  0  0
  3  2  1  0  0  0  0
  3  4  1  0  0  0  0
  4 10  1  1  0  0  0
  4  5  1  0  0  0  0
  5  1  1  0  0  0  0
  5 12  1  0  0  0  0
  7  2  1  0  0  0  0
  8  3  1  0  0  0  0
  9  3  1  0  0  0  0
 11  5  1  0  0  0  0
 13 18  2  0  0  0  0
 13 14  1  0  0  0  0
 14 15  2  0  0  0  0
 15 16  1  0  0  0  0
 15 20  1  0  0  0  0
 17 21  1  0  0  0  0
 17 16  2  0  0  0  0
 18 17  1  0  0  0  0
 19 14  1  0  0  0  0
 22 30  1  6  0  0  0
 22 23  1  0  0  0  0
 22  4  1  0  0  0  0
 24 23  1  0  0  0  0
 25 26  1  0  0  0  0
 25 23  1  0  0  0  0
 27 25  1  0  0  0  0
 28 27  1  0  0  0  0
 29 27  1  0  0  0  0
 29 30  1  0  0  0  0
M  END
>  <minimizedAffinity>
-4.4679656

$$$$

 OpenBabel03272502383D

 30 32  0  0  1  0  0  0  0  0999 V2000
   36.8930   26.8320   33.6340 N   0  0  0  0  0  0  0  0  0  0  0  0
   37.0140   25.6550   32.8160 C   0  0  0  0  0  0  0  0  0  0  0  0
   38.1310   24.8660   33.5070 C   0  0  0  0  0  0  0  0  0  0  0  0
   38.5230   25.6840   34.7090 C   0  0  1  0  0  0  0  0  0  0  0  0
   37.2360   26.4110   34.9940 C   0  0  0  0  0  0  0  0  0  0  0  0
   37.3740   25.8630   31.7930 H   0  0  0  0  0  0  0  0  0  0  0  0
   36.0670   25.0890   32.7590 H   0  0  0  0  0  0  0  0  0  0  0  0
   38.9740   24.6600   32.8450 H   0  0  0  0  0  0  0  0  0  0  0  0
   37.6600   23.9030   33.8270 H   0  0  0  0  0  0  0  0  0  0  0  0
   39.2780   26.4340   34.4020 H   0  0  0  0  0  0  0  0  0  0  0  0
   36.4660   25.7120   35.3700 H   0  0  0  0  0  0  0  0  0  0  0  0
   37.3730   27.2950   35.6500 H   0  0  0  0  0  0  0  0  0  0  0  0
   36.5210   28.1350   33.2320 C   0  0  0  0  0  0  0  0  0  0  0  0
   35.8810   28.9290   34.1750 C   0  0  0  0  0  0  0  0  0  0  0  0
   35.4930   30.2350   33.8170 C   0  0  0  0  0  0  0  0  0  0  0  0
   35.7830   30.6370   32.5320 N   0  0  0  0  0  0  0  0  0  0  0  0
   36.4030   29.8380   31.6500 C   0  0  0  0  0  0  0  0  0  0  0  0
   36.7770   28.5810   31.9940 N   0  0  0  0  0  0  0  0  0  0  0  0
   35.6500   28.6380   35.1660 H   0  0  0  0  0  0  0  0  0  0  0  0
   34.9900   30.8900   34.5170 H   0  0  0  0  0  0  0  0  0  0  0  0
   36.5990   30.2180   30.6590 H   0  0  0  0  0  0  0  0  0  0  0  0
   39.0680   24.9350   35.7820 N   0  0  2  0  0  0  0  0  0  0  0  0
   39.7260   23.7160   35.4020 C   0  0  0  0  0  3  0  0  0  0  0  0
   39.1230   23.0370   34.7810 H   0  0  0  0  0  0  0  0  0  0  0  0
   40.0680   22.9840   36.7060 C   0  0  0  0  0  3  0  0  0  0  0  0
   40.7430   22.1530   36.4200 H   0  0  0  0  0  0  0  0  0  0  0  0
   38.8640   22.5040   37.3510 N   0  0  0  0  0  0  0  0  0  0  0  0
   38.9660   22.4780   38.3730 H   0  0  0  0  0  0  0  0  0  0  0  0
   37.7190   23.2750   36.8820 C   0  0  0  0  0  2  0  0  0  0  0  0
   38.0500   24.7470   36.7850 C   0  0  0  0  0  2  0  0  0  0  0  0
  1  5  1  0  0  0  0
  2  3  1  0  0  0  0
  2  1  1  0  0  0  0
  3  9  1  0  0  0  0
  3  4  1  0  0  0  0
  4 10  1  6  0  0  0
  4  5  1  0  0  0  0
  4 22  1  0  0  0  0
  5 11  1  0  0  0  0
  5 12  1  0  0  0  0
  6  2  1  0  0  0  0
  7  2  1  0  0  0  0
  8  3  1  0  0  0  0
 13  1  1  0  0  0  0
 13 14  1  0  0  0  0
 14 19  1  0  0  0  0
 15 14  2  0  0  0  0
 15 20  1  0  0  0  0
 16 15  1  0  0  0  0
 17 18  1  0  0  0  0
 17 16  2  0  0  0  0
 18 13  2  0  0  0  0
 21 17  1  0  0  0  0
 22 30  1  1  0  0  0
 23 22  1  0  0  0  0
 23 25  1  0  0  0  0
 24 23  1  0  0  0  0
 25 27  1  0  0  0  0
 26 25  1  0  0  0  0
 27 28  1  0  0  0  0
 29 27  1  0  0  0  0
 30 29  1  0  0  0  0
M  END
>  <minimizedAffinity>
-4.4642005

$$$$

 OpenBabel03272502383D

 30 32  0  0  1  0  0  0  0  0999 V2000
   37.4510   25.7690   33.3130 N   0  0  0  0  0  0  0  0  0  0  0  0
   37.4400   24.3830   32.9260 C   0  0  0  0  0  0  0  0  0  0  0  0
   38.4060   23.7360   33.9240 C   0  0  0  0  0  0  0  0  0  0  0  0
   38.8590   24.8490   34.8310 C   0  0  1  0  0  0  0  0  0  0  0  0
   37.6760   25.7770   34.7600 C   0  0  0  0  0  0  0  0  0  0  0  0
   37.8680   24.2010   31.9230 H   0  0  0  0  0  0  0  0  0  0  0  0
   36.4260   23.9460   32.9720 H   0  0  0  0  0  0  0  0  0  0  0  0
   39.2390   23.2270   33.4350 H   0  0  0  0  0  0  0  0  0  0  0  0
   37.7920   22.9940   34.4920 H   0  0  0  0  0  0  0  0  0  0  0  0
   39.7240   25.3620   34.3660 H   0  0  0  0  0  0  0  0  0  0  0  0
   36.8010   25.3360   35.2720 H   0  0  0  0  0  0  0  0  0  0  0  0
   37.9080   26.8040   35.1090 H   0  0  0  0  0  0  0  0  0  0  0  0
   37.2820   26.9030   32.4870 C   0  0  0  0  0  0  0  0  0  0  0  0
   38.2400   27.1180   31.5050 C   0  0  0  0  0  0  0  0  0  0  0  0
   38.1110   28.2370   30.6590 C   0  0  0  0  0  0  0  0  0  0  0  0
   37.0220   29.0520   30.8710 N   0  0  0  0  0  0  0  0  0  0  0  0
   36.1180   28.8090   31.8340 C   0  0  0  0  0  0  0  0  0  0  0  0
   36.2410   27.7320   32.6480 N   0  0  0  0  0  0  0  0  0  0  0  0
   39.0830   26.5030   31.3260 H   0  0  0  0  0  0  0  0  0  0  0  0
   38.8330   28.4450   29.8800 H   0  0  0  0  0  0  0  0  0  0  0  0
   35.2880   29.4910   31.9450 H   0  0  0  0  0  0  0  0  0  0  0  0
   39.2490   24.4330   36.1280 N   0  0  2  0  0  0  0  0  0  0  0  0
   39.7750   23.0990   36.2080 C   0  0  0  0  0  3  0  0  0  0  0  0
   39.1300   22.3180   35.7770 H   0  0  0  0  0  0  0  0  0  0  0  0
   39.9530   22.7910   37.7000 C   0  0  0  0  0  3  0  0  0  0  0  0
   40.5380   21.8510   37.7490 H   0  0  0  0  0  0  0  0  0  0  0  0
   38.6660   22.6610   38.3500 N   0  0  0  0  0  0  0  0  0  0  0  0
   38.7080   22.9530   39.3340 H   0  0  0  0  0  0  0  0  0  0  0  0
   37.6500   23.3490   37.5630 C   0  0  0  0  0  2  0  0  0  0  0  0
   38.1620   24.6740   37.0430 C   0  0  0  0  0  2  0  0  0  0  0  0
  1  5  1  0  0  0  0
  2  7  1  0  0  0  0
  2  1  1  0  0  0  0
  2  3  1  0  0  0  0
  3  9  1  0  0  0  0
  3  4  1  0  0  0  0
  4 10  1  6  0  0  0
  4 22  1  0  0  0  0
  5  4  1  0  0  0  0
  5 12  1  0  0  0  0
  5 11  1  0  0  0  0
  6  2  1  0  0  0  0
  8  3  1  0  0  0  0
 13 18  1  0  0  0  0
 13  1  1  0  0  0  0
 14 13  2  0  0  0  0
 15 16  2  0  0  0  0
 15 14  1  0  0  0  0
 16 17  1  0  0  0  0
 17 21  1  0  0  0  0
 17 18  2  0  0  0  0
 19 14  1  0  0  0  0
 20 15  1  0  0  0  0
 22 23  1  0  0  0  0
 22 30  1  1  0  0  0
 23 25  1  0  0  0  0
 24 23  1  0  0  0  0
 25 26  1  0  0  0  0
 25 27  1  0  0  0  0
 27 28  1  0  0  0  0
 29 27  1  0  0  0  0
 30 29  1  0  0  0  0
M  END
>  <minimizedAffinity>
-4.46072721

$$$$
