
 OpenBabel03272510063D

 30 32  0  0  0  0  0  0  0  0999 V2000
   38.8290   32.2060   47.7690 C   0  0  0  0  0  0  0  0  0  0  0  0
   38.7740   31.5920   46.5120 C   0  0  0  0  0  0  0  0  0  0  0  0
   37.8250   30.5880   46.3100 C   0  0  0  0  0  0  0  0  0  0  0  0
   37.0090   30.2630   47.3380 N   0  0  0  0  0  0  0  0  0  0  0  0
   37.0710   30.8570   48.5340 C   0  0  0  0  0  0  0  0  0  0  0  0
   37.9760   31.8180   48.7360 N   0  0  0  0  0  0  0  0  0  0  0  0
   36.1780   30.4680   49.5810 N   0  0  0  0  0  0  0  0  0  0  0  0
   34.7230   30.5780   49.4520 C   0  0  0  0  0  0  0  0  0  0  0  0
   34.1740   29.7920   50.5820 C   0  0  0  0  0  0  0  0  0  0  0  0
   35.3540   29.1080   51.2400 C   0  0  0  0  0  0  0  0  0  0  0  0
   36.5420   29.9310   50.8700 C   0  0  0  0  0  0  0  0  0  0  0  0
   39.5710   32.9620   47.8640 H   0  0  0  0  0  0  0  0  0  0  0  0
   37.6300   30.0090   45.4310 H   0  0  0  0  0  0  0  0  0  0  0  0
   34.4210   30.2400   48.4410 H   0  0  0  0  0  0  0  0  0  0  0  0
   34.4450   31.6410   49.5540 H   0  0  0  0  0  0  0  0  0  0  0  0
   33.4840   29.0220   50.1740 H   0  0  0  0  0  0  0  0  0  0  0  0
   33.6130   30.4300   51.2980 H   0  0  0  0  0  0  0  0  0  0  0  0
   35.4380   28.0330   50.9910 H   0  0  0  0  0  0  0  0  0  0  0  0
   35.1930   29.1830   52.3450 H   0  0  0  0  0  0  0  0  0  0  0  0
   37.4450   29.2690   50.7290 H   0  0  0  0  0  0  0  0  0  0  0  0
   36.7840   30.7250   51.6100 H   0  0  0  0  0  0  0  0  0  0  0  0
   39.5930   31.8740   45.3830 N   0  0  0  0  0  0  0  0  0  0  0  0
   39.7140   31.0260   44.2150 C   0  0  0  0  0  3  0  0  0  0  0  0
   40.4020   30.1990   44.4840 H   0  0  0  0  0  0  0  0  0  0  0  0
   40.1630   31.7970   43.0170 C   0  0  0  0  0  3  0  0  0  0  0  0
   39.9130   31.2610   42.0740 H   0  0  0  0  0  0  0  0  0  0  0  0
   39.4260   33.0580   42.9730 N   0  0  0  0  0  0  0  0  0  0  0  0
   38.4190   32.9240   43.1380 H   0  0  0  0  0  0  0  0  0  0  0  0
   40.0040   33.8840   44.0220 C   0  0  0  0  0  2  0  0  0  0  0  0
   40.4290   33.0340   45.2090 C   0  0  0  0  0  2  0  0  0  0  0  0
  1 12  1  0  0  0  0
  1  6  1  0  0  0  0
  2  1  2  0  0  0  0
  3  2  1  0  0  0  0
  3  4  2  0  0  0  0
  4  5  1  0  0  0  0
  5  6  2  0  0  0  0
  5  7  1  0  0  0  0
  7 11  1  0  0  0  0
  8 15  1  0  0  0  0
  8  7  1  0  0  0  0
  8  9  1  0  0  0  0
  9 10  1  0  0  0  0
  9 17  1  0  0  0  0
 10 19  1  0  0  0  0
 11 10  1  0  0  0  0
 11 21  1  0  0  0  0
 13  3  1  0  0  0  0
 14  8  1  0  0  0  0
 16  9  1  0  0  0  0
 18 10  1  0  0  0  0
 20 11  1  0  0  0  0
 22  2  1  0  0  0  0
 23 24  1  0  0  0  0
 23 22  1  0  0  0  0
 25 23  1  0  0  0  0
 26 25  1  0  0  0  0
 27 25  1  0  0  0  0
 27 28  1  0  0  0  0
 27 29  1  0  0  0  0
 29 30  1  0  0  0  0
 30 22  1  0  0  0  0
M  END
>  <minimizedAffinity>
-4.87341022

>  <minimizedRMSD>
2.8270793

$$$$
