
 OpenBabel03272505213D

 28 30  0  0  0  0  0  0  0  0999 V2000
   38.1470   30.9700   47.8000 Br  0  0  0  0  0  0  0  0  0  0  0  0
   36.7250   30.4570   46.6180 C   0  0  0  0  0  0  0  0  0  0  0  0
   35.5740   29.9000   47.1210 C   0  0  0  0  0  0  0  0  0  0  0  0
   34.5830   29.5480   46.2320 C   0  0  0  0  0  0  0  0  0  0  0  0
   34.7540   29.7540   44.8790 C   0  0  0  0  0  0  0  0  0  0  0  0
   35.9140   30.3150   44.3630 C   0  0  0  0  0  0  0  0  0  0  0  0
   36.9010   30.6640   45.2610 C   0  0  0  0  0  0  0  0  0  0  0  0
   33.6760   29.1100   46.6340 H   0  0  0  0  0  0  0  0  0  0  0  0
   33.9320   29.4540   44.2340 H   0  0  0  0  0  0  0  0  0  0  0  0
   36.0180   30.4630   43.3110 H   0  0  0  0  0  0  0  0  0  0  0  0
   36.4810   29.1330   50.7270 C   0  0  0  0  0  0  0  0  0  0  0  0
   36.5650   29.3000   49.3360 C   0  0  0  0  0  0  0  0  0  0  0  0
   35.4930   29.7250   48.5620 C   0  0  0  0  0  0  0  0  0  0  0  0
   34.3470   29.9690   49.2580 N   0  0  0  0  0  0  0  0  0  0  0  0
   34.2630   29.8090   50.5930 C   0  0  0  0  0  0  0  0  0  0  0  0
   35.3050   29.4000   51.3190 N   0  0  0  0  0  0  0  0  0  0  0  0
   37.4150   28.7950   51.1670 H   0  0  0  0  0  0  0  0  0  0  0  0
   37.4860   29.1060   48.7730 H   0  0  0  0  0  0  0  0  0  0  0  0
   33.3520   30.0020   51.1480 H   0  0  0  0  0  0  0  0  0  0  0  0
   38.0690   31.2360   44.6880 N   0  0  0  0  0  0  0  0  0  0  0  0
   39.2520   30.4440   44.4550 C   0  0  0  0  0  0  0  0  0  0  0  0
   39.0310   29.3570   44.4190 H   0  0  0  0  0  0  0  0  0  0  0  0
   40.0210   30.8100   43.2320 C   0  0  0  0  0  0  0  0  0  0  0  0
   39.7500   30.1590   42.3570 H   0  0  0  0  0  0  0  0  0  0  0  0
   40.0490   32.1880   42.8890 N   0  0  0  0  0  0  0  0  0  0  0  0
   40.8720   32.7310   43.2200 H   0  0  0  0  0  0  0  0  0  0  0  0
   38.7900   32.8700   42.9960 C   0  0  0  0  0  0  0  0  0  0  0  0
   38.1030   32.6320   44.3190 C   0  0  0  0  0  0  0  0  0  0  0  0
  2  3  1  0  0  0  0
  2  1  1  0  0  0  0
  3 13  1  0  0  0  0
  4  8  1  0  0  0  0
  4  3  2  0  0  0  0
  5  4  1  0  0  0  0
  6  5  2  0  0  0  0
  6  7  1  0  0  0  0
  7  2  2  0  0  0  0
  9  5  1  0  0  0  0
 10  6  1  0  0  0  0
 11 17  1  0  0  0  0
 11 16  1  0  0  0  0
 12 11  2  0  0  0  0
 13 14  2  0  0  0  0
 13 12  1  0  0  0  0
 14 15  1  0  0  0  0
 15 19  1  0  0  0  0
 15 16  2  0  0  0  0
 18 12  1  0  0  0  0
 20  7  1  0  0  0  0
 21 20  1  0  0  0  0
 22 21  1  0  0  0  0
 23 21  1  0  0  0  0
 24 23  1  0  0  0  0
 25 27  1  0  0  0  0
 25 26  1  0  0  0  0
 25 23  1  0  0  0  0
 27 28  1  0  0  0  0
 28 20  1  0  0  0  0
M  END
>  <minimizedAffinity>
-4.8444705

>  <minimizedRMSD>
4.28171206

$$$$
