
 OpenBabel03272505563D

 34 36  0  0  1  0  0  0  0  0999 V2000
   37.8460   26.2980   33.3820 C   0  0  2  0  0  0  0  0  0  0  0  0
   38.5400   25.2510   34.2350 C   0  0  0  0  0  0  0  0  0  0  0  0
   38.1050   25.3110   35.6710 C   0  0  2  0  0  0  0  0  0  0  0  0
   38.3510   26.6850   36.2630 C   0  0  0  0  0  0  0  0  0  0  0  0
   37.8010   27.7730   35.4030 C   0  0  0  0  0  0  0  0  0  0  0  0
   37.0630   27.2820   34.1780 C   0  0  0  0  0  0  0  0  0  0  0  0
   38.5800   26.7990   32.7160 H   0  0  0  0  0  0  0  0  0  0  0  0
   39.6260   25.3850   34.1270 H   0  0  0  0  0  0  0  0  0  0  0  0
   38.3350   24.2050   33.8800 H   0  0  0  0  0  0  0  0  0  0  0  0
   36.9880   25.2100   35.6550 H   0  0  0  0  0  0  0  0  0  0  0  0
   37.9260   26.6890   37.2860 H   0  0  0  0  0  0  0  0  0  0  0  0
   39.4570   26.8320   36.3360 H   0  0  0  0  0  0  0  0  0  0  0  0
   37.0580   28.3480   36.0140 H   0  0  0  0  0  0  0  0  0  0  0  0
   38.5430   28.5170   35.0830 H   0  0  0  0  0  0  0  0  0  0  0  0
   36.9160   28.1910   33.5380 H   0  0  0  0  0  0  0  0  0  0  0  0
   36.0290   26.9480   34.4240 H   0  0  0  0  0  0  0  0  0  0  0  0
   36.8920   25.6200   32.4490 C   0  0  0  0  0  0  0  0  0  0  0  0
   37.0550   24.2200   32.3230 C   0  0  0  0  0  0  0  0  0  0  0  0
   36.1780   23.5690   31.4490 C   0  0  0  0  0  0  0  0  0  0  0  0
   35.2220   24.2940   30.7650 N   0  0  0  0  0  0  0  0  0  0  0  0
   35.1160   25.6470   30.9300 C   0  0  0  0  0  0  0  0  0  0  0  0
   35.9390   26.2910   31.7580 N   0  0  0  0  0  0  0  0  0  0  0  0
   37.7840   23.6480   32.8410 H   0  0  0  0  0  0  0  0  0  0  0  0
   36.1940   22.5170   31.2630 H   0  0  0  0  0  0  0  0  0  0  0  0
   34.3440   26.1420   30.3610 H   0  0  0  0  0  0  0  0  0  0  0  0
   38.6230   24.2470   36.3960 N   0  0  1  0  0  0  0  0  0  0  0  0
   37.8510   23.6170   37.3880 C   0  0  0  0  0  3  0  0  0  0  0  0
   36.9600   24.1900   37.6320 H   0  0  0  0  0  0  0  0  0  0  0  0
   38.7840   23.4040   38.5870 C   0  0  0  0  0  3  0  0  0  0  0  0
   39.3140   24.3730   38.7270 H   0  0  0  0  0  0  0  0  0  0  0  0
   39.7840   22.4360   38.1900 N   0  0  0  0  0  0  0  0  0  0  0  0
   39.4480   21.4860   38.5200 H   0  0  0  0  0  0  0  0  0  0  0  0
   39.9520   22.3210   36.7610 C   0  0  0  0  0  2  0  0  0  0  0  0
   39.8740   23.6900   36.0790 C   0  0  0  0  0  2  0  0  0  0  0  0
  1  7  1  6  0  0  0
  1  6  1  0  0  0  0
  1  2  1  0  0  0  0
  2  3  1  0  0  0  0
  3 10  1  6  0  0  0
  3  4  1  0  0  0  0
  3 26  1  0  0  0  0
  4 12  1  0  0  0  0
  4 11  1  0  0  0  0
  5 13  1  0  0  0  0
  5  4  1  0  0  0  0
  6 16  1  0  0  0  0
  6  5  1  0  0  0  0
  8  2  1  0  0  0  0
  9  2  1  0  0  0  0
 14  5  1  0  0  0  0
 15  6  1  0  0  0  0
 17  1  1  0  0  0  0
 18 17  1  0  0  0  0
 18 23  1  0  0  0  0
 19 18  2  0  0  0  0
 20 21  2  0  0  0  0
 20 19  1  0  0  0  0
 21 22  1  0  0  0  0
 22 17  2  0  0  0  0
 24 19  1  0  0  0  0
 25 21  1  0  0  0  0
 26 34  1  6  0  0  0
 26 27  1  0  0  0  0
 27 28  1  0  0  0  0
 27 29  1  0  0  0  0
 29 30  1  0  0  0  0
 31 32  1  0  0  0  0
 31 29  1  0  0  0  0
 33 31  1  0  0  0  0
 34 33  1  0  0  0  0
M  END
>  <minimizedAffinity>
-5.86951876

$$$$

 OpenBabel03272505563D

 34 36  0  0  1  0  0  0  0  0999 V2000
   37.7760   22.4330   32.3430 C   0  0  2  0  0  0  0  0  0  0  0  0
   38.4830   22.3890   33.6860 C   0  0  0  0  0  0  0  0  0  0  0  0
   38.0070   23.4710   34.6120 C   0  0  2  0  0  0  0  0  0  0  0  0
   38.1910   24.8430   33.9950 C   0  0  0  0  0  0  0  0  0  0  0  0
   37.6280   24.9160   32.6140 C   0  0  0  0  0  0  0  0  0  0  0  0
   36.9390   23.6500   32.1580 C   0  0  0  0  0  0  0  0  0  0  0  0
   38.5100   22.3090   31.5190 H   0  0  0  0  0  0  0  0  0  0  0  0
   39.5660   22.4440   33.5070 H   0  0  0  0  0  0  0  0  0  0  0  0
   38.3230   21.4140   34.2220 H   0  0  0  0  0  0  0  0  0  0  0  0
   36.8950   23.3430   34.6850 H   0  0  0  0  0  0  0  0  0  0  0  0
   37.7390   25.5830   34.6830 H   0  0  0  0  0  0  0  0  0  0  0  0
   39.2890   25.0430   33.9270 H   0  0  0  0  0  0  0  0  0  0  0  0
   36.8490   25.7220   32.6070 H   0  0  0  0  0  0  0  0  0  0  0  0
   38.3520   25.2120   31.8440 H   0  0  0  0  0  0  0  0  0  0  0  0
   36.7780   23.7820   31.0560 H   0  0  0  0  0  0  0  0  0  0  0  0
   35.9110   23.5630   32.5780 H   0  0  0  0  0  0  0  0  0  0  0  0
   36.8710   21.2470   32.2220 C   0  0  0  0  0  0  0  0  0  0  0  0
   35.4860   21.5360   32.2110 C   0  0  0  0  0  0  0  0  0  0  0  0
   34.6240   20.4400   32.1070 C   0  0  0  0  0  0  0  0  0  0  0  0
   35.1400   19.1630   32.0250 N   0  0  0  0  0  0  0  0  0  0  0  0
   36.4900   18.9480   32.0420 C   0  0  0  0  0  0  0  0  0  0  0  0
   37.3340   19.9760   32.1380 N   0  0  0  0  0  0  0  0  0  0  0  0
   35.0730   22.5130   32.2730 H   0  0  0  0  0  0  0  0  0  0  0  0
   33.5580   20.5210   32.0880 H   0  0  0  0  0  0  0  0  0  0  0  0
   36.8150   17.9210   31.9730 H   0  0  0  0  0  0  0  0  0  0  0  0
   38.5420   23.3120   35.8830 N   0  0  1  0  0  0  0  0  0  0  0  0
   39.9260   23.4320   36.0950 C   0  0  0  0  0  3  0  0  0  0  0  0
   40.4800   23.4360   35.1600 H   0  0  0  0  0  0  0  0  0  0  0  0
   40.3190   22.2790   37.0280 C   0  0  0  0  0  3  0  0  0  0  0  0
   39.8260   21.3740   36.6070 H   0  0  0  0  0  0  0  0  0  0  0  0
   39.7000   22.5310   38.3120 N   0  0  0  0  0  0  0  0  0  0  0  0
   40.4210   23.0200   38.9160 H   0  0  0  0  0  0  0  0  0  0  0  0
   38.5680   23.4240   38.2490 C   0  0  0  0  0  2  0  0  0  0  0  0
   37.7120   23.1530   37.0070 C   0  0  0  0  0  2  0  0  0  0  0  0
  1  7  1  6  0  0  0
  1  2  1  0  0  0  0
  2  9  1  0  0  0  0
  2  3  1  0  0  0  0
  3 10  1  1  0  0  0
  3 26  1  0  0  0  0
  4  3  1  0  0  0  0
  4 11  1  0  0  0  0
  5  4  1  0  0  0  0
  6  1  1  0  0  0  0
  6 16  1  0  0  0  0
  6  5  1  0  0  0  0
  8  2  1  0  0  0  0
 12  4  1  0  0  0  0
 13  5  1  0  0  0  0
 14  5  1  0  0  0  0
 15  6  1  0  0  0  0
 17  1  1  0  0  0  0
 18 17  1  0  0  0  0
 18 23  1  0  0  0  0
 19 18  2  0  0  0  0
 20 21  2  0  0  0  0
 20 19  1  0  0  0  0
 21 22  1  0  0  0  0
 22 17  2  0  0  0  0
 24 19  1  0  0  0  0
 25 21  1  0  0  0  0
 26 27  1  0  0  0  0
 26 34  1  1  0  0  0
 27 29  1  0  0  0  0
 28 27  1  0  0  0  0
 29 31  1  0  0  0  0
 30 29  1  0  0  0  0
 31 32  1  0  0  0  0
 33 31  1  0  0  0  0
 34 33  1  0  0  0  0
M  END
>  <minimizedAffinity>
-5.09058905

$$$$

 OpenBabel03272505563D

 34 36  0  0  1  0  0  0  0  0999 V2000
   39.4580   26.1840   35.1800 C   0  0  2  0  0  0  0  0  0  0  0  0
   38.6400   26.8720   34.1010 C   0  0  0  0  0  0  0  0  0  0  0  0
   39.3220   26.8380   32.7650 C   0  0  2  0  0  0  0  0  0  0  0  0
   40.6970   27.4730   32.8330 C   0  0  0  0  0  0  0  0  0  0  0  0
   41.5110   26.9290   33.9590 C   0  0  0  0  0  0  0  0  0  0  0  0
   40.8320   25.8240   34.7360 C   0  0  0  0  0  0  0  0  0  0  0  0
   39.4720   26.8000   36.1030 H   0  0  0  0  0  0  0  0  0  0  0  0
   38.4290   27.8980   34.4320 H   0  0  0  0  0  0  0  0  0  0  0  0
   37.6320   26.3950   33.9600 H   0  0  0  0  0  0  0  0  0  0  0  0
   39.5250   25.7550   32.5530 H   0  0  0  0  0  0  0  0  0  0  0  0
   41.1790   27.3340   31.8460 H   0  0  0  0  0  0  0  0  0  0  0  0
   40.5580   28.5690   33.0100 H   0  0  0  0  0  0  0  0  0  0  0  0
   42.4430   26.4850   33.5210 H   0  0  0  0  0  0  0  0  0  0  0  0
   41.8630   27.6860   34.6710 H   0  0  0  0  0  0  0  0  0  0  0  0
   41.4570   25.6850   35.6570 H   0  0  0  0  0  0  0  0  0  0  0  0
   40.8980   24.8450   34.2090 H   0  0  0  0  0  0  0  0  0  0  0  0
   38.7740   24.9160   35.5850 C   0  0  0  0  0  0  0  0  0  0  0  0
   38.1550   24.9360   36.8570 C   0  0  0  0  0  0  0  0  0  0  0  0
   37.5180   23.7570   37.2570 C   0  0  0  0  0  0  0  0  0  0  0  0
   37.5190   22.6560   36.4230 N   0  0  0  0  0  0  0  0  0  0  0  0
   38.1350   22.7000   35.2030 C   0  0  0  0  0  0  0  0  0  0  0  0
   38.7490   23.8120   34.7980 N   0  0  0  0  0  0  0  0  0  0  0  0
   38.1450   25.7740   37.5100 H   0  0  0  0  0  0  0  0  0  0  0  0
   37.0140   23.6390   38.1920 H   0  0  0  0  0  0  0  0  0  0  0  0
   38.0920   21.7990   34.6100 H   0  0  0  0  0  0  0  0  0  0  0  0
   38.4900   27.3220   31.7650 N   0  0  1  0  0  0  0  0  0  0  0  0
   37.2100   27.8130   32.0790 C   0  0  0  0  0  3  0  0  0  0  0  0
   36.9170   27.5610   33.0950 H   0  0  0  0  0  0  0  0  0  0  0  0
   36.2600   27.2460   31.0150 C   0  0  0  0  0  3  0  0  0  0  0  0
   36.5140   26.1650   30.9360 H   0  0  0  0  0  0  0  0  0  0  0  0
   36.6170   27.8520   29.7500 N   0  0  0  0  0  0  0  0  0  0  0  0
   35.9770   28.6850   29.6110 H   0  0  0  0  0  0  0  0  0  0  0  0
   37.9610   28.3760   29.7120 C   0  0  0  0  0  2  0  0  0  0  0  0
   38.9410   27.4520   30.4410 C   0  0  0  0  0  2  0  0  0  0  0  0
  1 17  1  0  0  0  0
  1  7  1  1  0  0  0
  2  8  1  0  0  0  0
  2  1  1  0  0  0  0
  3 10  1  6  0  0  0
  3  4  1  0  0  0  0
  3  2  1  0  0  0  0
  4 12  1  0  0  0  0
  4  5  1  0  0  0  0
  5 14  1  0  0  0  0
  5  6  1  0  0  0  0
  6  1  1  0  0  0  0
  6 15  1  0  0  0  0
  9  2  1  0  0  0  0
 11  4  1  0  0  0  0
 13  5  1  0  0  0  0
 16  6  1  0  0  0  0
 17 18  1  0  0  0  0
 18 19  2  0  0  0  0
 18 23  1  0  0  0  0
 19 24  1  0  0  0  0
 20 19  1  0  0  0  0
 21 20  2  0  0  0  0
 22 21  1  0  0  0  0
 22 17  2  0  0  0  0
 25 21  1  0  0  0  0
 26 34  1  1  0  0  0
 26 27  1  0  0  0  0
 26  3  1  0  0  0  0
 27 28  1  0  0  0  0
 29 27  1  0  0  0  0
 30 29  1  0  0  0  0
 31 29  1  0  0  0  0
 32 31  1  0  0  0  0
 33 31  1  0  0  0  0
 33 34  1  0  0  0  0
M  END
>  <minimizedAffinity>
-4.98522186

$$$$

 OpenBabel03272505563D

 34 36  0  0  1  0  0  0  0  0999 V2000
   39.2820   26.5230   33.3810 C   0  0  2  0  0  0  0  0  0  0  0  0
   39.7310   25.5020   34.4110 C   0  0  0  0  0  0  0  0  0  0  0  0
   38.6530   25.1930   35.4090 C   0  0  2  0  0  0  0  0  0  0  0  0
   38.1840   26.4470   36.1190 C   0  0  0  0  0  0  0  0  0  0  0  0
   37.8460   27.5400   35.1610 C   0  0  0  0  0  0  0  0  0  0  0  0
   37.9710   27.1490   33.7060 C   0  0  0  0  0  0  0  0  0  0  0  0
   40.0740   27.2850   33.2250 H   0  0  0  0  0  0  0  0  0  0  0  0
   40.6440   25.8780   34.8920 H   0  0  0  0  0  0  0  0  0  0  0  0
   40.0260   24.5230   33.9430 H   0  0  0  0  0  0  0  0  0  0  0  0
   37.7650   24.8630   34.8080 H   0  0  0  0  0  0  0  0  0  0  0  0
   37.3320   26.1660   36.7690 H   0  0  0  0  0  0  0  0  0  0  0  0
   39.0220   26.8060   36.7660 H   0  0  0  0  0  0  0  0  0  0  0  0
   36.7730   27.8180   35.3260 H   0  0  0  0  0  0  0  0  0  0  0  0
   38.4090   28.4700   35.3170 H   0  0  0  0  0  0  0  0  0  0  0  0
   37.9080   28.1120   33.1350 H   0  0  0  0  0  0  0  0  0  0  0  0
   37.0890   26.5650   33.3570 H   0  0  0  0  0  0  0  0  0  0  0  0
   39.1380   25.8520   32.0510 C   0  0  0  0  0  0  0  0  0  0  0  0
   37.9420   25.1190   31.8650 C   0  0  0  0  0  0  0  0  0  0  0  0
   37.7920   24.4760   30.6320 C   0  0  0  0  0  0  0  0  0  0  0  0
   38.7840   24.5780   29.6770 N   0  0  0  0  0  0  0  0  0  0  0  0
   39.9190   25.3020   29.9180 C   0  0  0  0  0  0  0  0  0  0  0  0
   40.0850   25.9250   31.0850 N   0  0  0  0  0  0  0  0  0  0  0  0
   37.1690   25.0300   32.5890 H   0  0  0  0  0  0  0  0  0  0  0  0
   36.9380   23.8920   30.3640 H   0  0  0  0  0  0  0  0  0  0  0  0
   40.6470   25.3340   29.1220 H   0  0  0  0  0  0  0  0  0  0  0  0
   39.0240   24.1420   36.2370 N   0  0  1  0  0  0  0  0  0  0  0  0
   38.1010   23.5840   37.1380 C   0  0  0  0  0  3  0  0  0  0  0  0
   37.2100   24.1990   37.2380 H   0  0  0  0  0  0  0  0  0  0  0  0
   38.8550   23.3880   38.4600 C   0  0  0  0  0  3  0  0  0  0  0  0
   39.4020   24.3420   38.6340 H   0  0  0  0  0  0  0  0  0  0  0  0
   39.8580   22.3680   38.2390 N   0  0  0  0  0  0  0  0  0  0  0  0
   39.4410   21.4470   38.5550 H   0  0  0  0  0  0  0  0  0  0  0  0
   40.2100   22.1860   36.8520 C   0  0  0  0  0  2  0  0  0  0  0  0
   40.2820   23.5270   36.1140 C   0  0  0  0  0  2  0  0  0  0  0  0
  1  7  1  6  0  0  0
  1  6  1  0  0  0  0
  1  2  1  0  0  0  0
  2  8  1  0  0  0  0
  2  3  1  0  0  0  0
  3 10  1  6  0  0  0
  3  4  1  0  0  0  0
  3 26  1  0  0  0  0
  4 12  1  0  0  0  0
  4 11  1  0  0  0  0
  5 14  1  0  0  0  0
  5 13  1  0  0  0  0
  5  4  1  0  0  0  0
  6  5  1  0  0  0  0
  9  2  1  0  0  0  0
 15  6  1  0  0  0  0
 16  6  1  0  0  0  0
 17  1  1  0  0  0  0
 18 17  1  0  0  0  0
 18 23  1  0  0  0  0
 19 18  2  0  0  0  0
 20 21  2  0  0  0  0
 20 19  1  0  0  0  0
 21 22  1  0  0  0  0
 22 17  2  0  0  0  0
 24 19  1  0  0  0  0
 25 21  1  0  0  0  0
 26 34  1  6  0  0  0
 26 27  1  0  0  0  0
 27 28  1  0  0  0  0
 27 29  1  0  0  0  0
 29 30  1  0  0  0  0
 31 29  1  0  0  0  0
 31 32  1  0  0  0  0
 33 31  1  0  0  0  0
 34 33  1  0  0  0  0
M  END
>  <minimizedAffinity>
-4.97041512

$$$$

 OpenBabel03272505563D

 34 36  0  0  1  0  0  0  0  0999 V2000
   37.6990   25.3890   35.7430 C   0  0  2  0  0  0  0  0  0  0  0  0
   37.6360   25.0540   34.2630 C   0  0  0  0  0  0  0  0  0  0  0  0
   38.3340   26.0820   33.4200 C   0  0  2  0  0  0  0  0  0  0  0  0
   37.7540   27.4640   33.6460 C   0  0  0  0  0  0  0  0  0  0  0  0
   37.6700   27.8060   35.0960 C   0  0  0  0  0  0  0  0  0  0  0  0
   38.2380   26.7490   36.0160 C   0  0  0  0  0  0  0  0  0  0  0  0
   36.7060   25.2380   36.2130 H   0  0  0  0  0  0  0  0  0  0  0  0
   36.5800   24.9360   33.9830 H   0  0  0  0  0  0  0  0  0  0  0  0
   38.1150   24.0650   34.0270 H   0  0  0  0  0  0  0  0  0  0  0  0
   39.3790   26.1470   33.8210 H   0  0  0  0  0  0  0  0  0  0  0  0
   38.3680   28.1830   33.0690 H   0  0  0  0  0  0  0  0  0  0  0  0
   36.7150   27.4700   33.2320 H   0  0  0  0  0  0  0  0  0  0  0  0
   38.2770   28.7330   35.2630 H   0  0  0  0  0  0  0  0  0  0  0  0
   36.6600   28.0590   35.4440 H   0  0  0  0  0  0  0  0  0  0  0  0
   37.9030   27.0430   37.0450 H   0  0  0  0  0  0  0  0  0  0  0  0
   39.3500   26.7970   36.0640 H   0  0  0  0  0  0  0  0  0  0  0  0
   38.5960   24.4080   36.4330 C   0  0  0  0  0  0  0  0  0  0  0  0
   38.2240   24.0690   37.7550 C   0  0  0  0  0  0  0  0  0  0  0  0
   39.0540   23.1600   38.4200 C   0  0  0  0  0  0  0  0  0  0  0  0
   40.1660   22.6480   37.7810 N   0  0  0  0  0  0  0  0  0  0  0  0
   40.4720   23.0160   36.5000 C   0  0  0  0  0  0  0  0  0  0  0  0
   39.6970   23.8800   35.8440 N   0  0  0  0  0  0  0  0  0  0  0  0
   37.3730   24.4530   38.2610 H   0  0  0  0  0  0  0  0  0  0  0  0
   38.8870   22.8210   39.4200 H   0  0  0  0  0  0  0  0  0  0  0  0
   41.3570   22.5730   36.0700 H   0  0  0  0  0  0  0  0  0  0  0  0
   38.4070   25.6750   32.0950 N   0  0  1  0  0  0  0  0  0  0  0  0
   37.2400   25.3490   31.3820 C   0  0  0  0  0  3  0  0  0  0  0  0
   36.3790   25.2520   32.0390 H   0  0  0  0  0  0  0  0  0  0  0  0
   37.5560   24.0670   30.6020 C   0  0  0  0  0  3  0  0  0  0  0  0
   38.0540   23.3890   31.3320 H   0  0  0  0  0  0  0  0  0  0  0  0
   38.5480   24.4020   29.6020 N   0  0  0  0  0  0  0  0  0  0  0  0
   38.0280   24.6010   28.7010 H   0  0  0  0  0  0  0  0  0  0  0  0
   39.2950   25.6000   29.9000 C   0  0  0  0  0  2  0  0  0  0  0  0
   39.6250   25.6960   31.3930 C   0  0  0  0  0  2  0  0  0  0  0  0
  1  6  1  0  0  0  0
  1  7  1  1  0  0  0
  1 17  1  0  0  0  0
  2  1  1  0  0  0  0
  3  4  1  0  0  0  0
  3 10  1  1  0  0  0
  3  2  1  0  0  0  0
  4  5  1  0  0  0  0
  5 13  1  0  0  0  0
  5 14  1  0  0  0  0
  5  6  1  0  0  0  0
  6 16  1  0  0  0  0
  6 15  1  0  0  0  0
  8  2  1  0  0  0  0
  9  2  1  0  0  0  0
 11  4  1  0  0  0  0
 12  4  1  0  0  0  0
 17 18  1  0  0  0  0
 18 23  1  0  0  0  0
 18 19  2  0  0  0  0
 19 24  1  0  0  0  0
 20 19  1  0  0  0  0
 21 20  2  0  0  0  0
 22 17  2  0  0  0  0
 22 21  1  0  0  0  0
 25 21  1  0  0  0  0
 26 34  1  6  0  0  0
 26  3  1  0  0  0  0
 27 28  1  0  0  0  0
 27 26  1  0  0  0  0
 29 30  1  0  0  0  0
 29 27  1  0  0  0  0
 31 33  1  0  0  0  0
 31 29  1  0  0  0  0
 32 31  1  0  0  0  0
 33 34  1  0  0  0  0
M  END
>  <minimizedAffinity>
-4.91833544

$$$$

 OpenBabel03272505563D

 34 36  0  0  1  0  0  0  0  0999 V2000
   36.4950   23.6570   31.3390 C   0  0  2  0  0  0  0  0  0  0  0  0
   37.4750   24.4530   32.1830 C   0  0  0  0  0  0  0  0  0  0  0  0
   36.8430   25.6770   32.7800 C   0  0  2  0  0  0  0  0  0  0  0  0
   36.2610   26.5750   31.7070 C   0  0  0  0  0  0  0  0  0  0  0  0
   35.3840   25.8240   30.7620 C   0  0  0  0  0  0  0  0  0  0  0  0
   35.2050   24.3630   31.1110 C   0  0  0  0  0  0  0  0  0  0  0  0
   36.9710   23.3520   30.3840 H   0  0  0  0  0  0  0  0  0  0  0  0
   38.3450   24.7000   31.5580 H   0  0  0  0  0  0  0  0  0  0  0  0
   37.8880   23.8540   33.0390 H   0  0  0  0  0  0  0  0  0  0  0  0
   35.9510   25.3110   33.3530 H   0  0  0  0  0  0  0  0  0  0  0  0
   35.7340   27.4060   32.2160 H   0  0  0  0  0  0  0  0  0  0  0  0
   37.1120   27.0000   31.1190 H   0  0  0  0  0  0  0  0  0  0  0  0
   34.3650   26.2880   30.8010 H   0  0  0  0  0  0  0  0  0  0  0  0
   35.6880   25.8920   29.7090 H   0  0  0  0  0  0  0  0  0  0  0  0
   34.7240   23.9010   30.2100 H   0  0  0  0  0  0  0  0  0  0  0  0
   34.4590   24.2210   31.9250 H   0  0  0  0  0  0  0  0  0  0  0  0
   36.1810   22.3680   32.0320 C   0  0  0  0  0  0  0  0  0  0  0  0
   35.2970   21.5050   31.3430 C   0  0  0  0  0  0  0  0  0  0  0  0
   34.9840   20.2990   31.9790 C   0  0  0  0  0  0  0  0  0  0  0  0
   35.5310   20.0090   33.2130 N   0  0  0  0  0  0  0  0  0  0  0  0
   36.3810   20.8860   33.8280 C   0  0  0  0  0  0  0  0  0  0  0  0
   36.6960   22.0410   33.2430 N   0  0  0  0  0  0  0  0  0  0  0  0
   34.8680   21.7130   30.3940 H   0  0  0  0  0  0  0  0  0  0  0  0
   34.3300   19.5610   31.5670 H   0  0  0  0  0  0  0  0  0  0  0  0
   36.7660   20.5870   34.7910 H   0  0  0  0  0  0  0  0  0  0  0  0
   37.7030   26.2980   33.6760 N   0  0  1  0  0  0  0  0  0  0  0  0
   38.7730   27.0830   33.2110 C   0  0  0  0  0  3  0  0  0  0  0  0
   38.9400   26.9480   32.1450 H   0  0  0  0  0  0  0  0  0  0  0  0
   39.9870   26.7060   34.0680 C   0  0  0  0  0  3  0  0  0  0  0  0
   39.9950   25.5930   34.1000 H   0  0  0  0  0  0  0  0  0  0  0  0
   39.7220   27.1590   35.4170 N   0  0  0  0  0  0  0  0  0  0  0  0
   40.1770   28.1100   35.5220 H   0  0  0  0  0  0  0  0  0  0  0  0
   38.3220   27.3570   35.7020 C   0  0  0  0  0  2  0  0  0  0  0  0
   37.4620   26.2640   35.0600 C   0  0  0  0  0  2  0  0  0  0  0  0
  1  7  1  6  0  0  0
  1 17  1  0  0  0  0
  1  2  1  0  0  0  0
  2  3  1  0  0  0  0
  2  9  1  0  0  0  0
  3 10  1  1  0  0  0
  3 26  1  0  0  0  0
  4 11  1  0  0  0  0
  4  3  1  0  0  0  0
  5 13  1  0  0  0  0
  5  6  1  0  0  0  0
  5  4  1  0  0  0  0
  6  1  1  0  0  0  0
  6 16  1  0  0  0  0
  8  2  1  0  0  0  0
 12  4  1  0  0  0  0
 14  5  1  0  0  0  0
 15  6  1  0  0  0  0
 17 22  1  0  0  0  0
 18 19  1  0  0  0  0
 18 17  2  0  0  0  0
 19 20  2  0  0  0  0
 20 21  1  0  0  0  0
 21 25  1  0  0  0  0
 22 21  2  0  0  0  0
 23 18  1  0  0  0  0
 24 19  1  0  0  0  0
 26 34  1  1  0  0  0
 27 26  1  0  0  0  0
 27 29  1  0  0  0  0
 28 27  1  0  0  0  0
 29 30  1  0  0  0  0
 29 31  1  0  0  0  0
 31 32  1  0  0  0  0
 31 33  1  0  0  0  0
 34 33  1  0  0  0  0
M  END
>  <minimizedAffinity>
-4.88445616

$$$$

 OpenBabel03272505563D

 34 36  0  0  1  0  0  0  0  0999 V2000
   37.9220   24.9490   32.6780 C   0  0  2  0  0  0  0  0  0  0  0  0
   38.0640   24.1320   33.9500 C   0  0  0  0  0  0  0  0  0  0  0  0
   39.4920   24.0330   34.4030 C   0  0  2  0  0  0  0  0  0  0  0  0
   40.3720   23.4370   33.3230 C   0  0  0  0  0  0  0  0  0  0  0  0
   40.1840   24.1160   32.0070 C   0  0  0  0  0  0  0  0  0  0  0  0
   39.2260   25.2860   32.0460 C   0  0  0  0  0  0  0  0  0  0  0  0
   37.2400   24.4370   31.9670 H   0  0  0  0  0  0  0  0  0  0  0  0
   37.6170   23.1440   33.7750 H   0  0  0  0  0  0  0  0  0  0  0  0
   37.4840   24.5700   34.8070 H   0  0  0  0  0  0  0  0  0  0  0  0
   39.8530   25.0910   34.5050 H   0  0  0  0  0  0  0  0  0  0  0  0
   41.4180   23.4770   33.6830 H   0  0  0  0  0  0  0  0  0  0  0  0
   40.0790   22.3640   33.1980 H   0  0  0  0  0  0  0  0  0  0  0  0
   41.1780   24.5290   31.6930 H   0  0  0  0  0  0  0  0  0  0  0  0
   39.8810   23.4480   31.1910 H   0  0  0  0  0  0  0  0  0  0  0  0
   39.0240   25.5360   30.9710 H   0  0  0  0  0  0  0  0  0  0  0  0
   39.7080   26.2020   32.4560 H   0  0  0  0  0  0  0  0  0  0  0  0
   37.2340   26.2400   32.9960 C   0  0  0  0  0  0  0  0  0  0  0  0
   37.3650   26.6870   34.3320 C   0  0  0  0  0  0  0  0  0  0  0  0
   36.7230   27.8880   34.6510 C   0  0  0  0  0  0  0  0  0  0  0  0
   36.0090   28.5660   33.6830 N   0  0  0  0  0  0  0  0  0  0  0  0
   35.9200   28.0810   32.4070 C   0  0  0  0  0  0  0  0  0  0  0  0
   36.5240   26.9390   32.0770 N   0  0  0  0  0  0  0  0  0  0  0  0
   37.9100   26.1780   35.0880 H   0  0  0  0  0  0  0  0  0  0  0  0
   36.7430   28.3350   35.6220 H   0  0  0  0  0  0  0  0  0  0  0  0
   35.3440   28.6690   31.7090 H   0  0  0  0  0  0  0  0  0  0  0  0
   39.5810   23.4270   35.6480 N   0  0  1  0  0  0  0  0  0  0  0  0
   38.4260   22.9600   36.2980 C   0  0  0  0  0  3  0  0  0  0  0  0
   37.5180   23.3230   35.8230 H   0  0  0  0  0  0  0  0  0  0  0  0
   38.5550   23.3880   37.7650 C   0  0  0  0  0  3  0  0  0  0  0  0
   38.8700   24.4560   37.7370 H   0  0  0  0  0  0  0  0  0  0  0  0
   39.6580   22.6450   38.3380 N   0  0  0  0  0  0  0  0  0  0  0  0
   39.2470   21.7940   38.8160 H   0  0  0  0  0  0  0  0  0  0  0  0
   40.5890   22.1360   37.3590 C   0  0  0  0  0  2  0  0  0  0  0  0
   40.8280   23.1500   36.2360 C   0  0  0  0  0  2  0  0  0  0  0  0
  1  7  1  6  0  0  0
  1 17  1  0  0  0  0
  1  2  1  0  0  0  0
  2  3  1  0  0  0  0
  2  9  1  0  0  0  0
  3 10  1  1  0  0  0
  3 26  1  0  0  0  0
  4 11  1  0  0  0  0
  4  3  1  0  0  0  0
  5  6  1  0  0  0  0
  5  4  1  0  0  0  0
  6 16  1  0  0  0  0
  6  1  1  0  0  0  0
  8  2  1  0  0  0  0
 12  4  1  0  0  0  0
 13  5  1  0  0  0  0
 14  5  1  0  0  0  0
 15  6  1  0  0  0  0
 17 18  1  0  0  0  0
 18 19  2  0  0  0  0
 18 23  1  0  0  0  0
 19 24  1  0  0  0  0
 20 19  1  0  0  0  0
 21 20  2  0  0  0  0
 22 21  1  0  0  0  0
 22 17  2  0  0  0  0
 25 21  1  0  0  0  0
 26 34  1  6  0  0  0
 26 27  1  0  0  0  0
 27 29  1  0  0  0  0
 28 27  1  0  0  0  0
 29 31  1  0  0  0  0
 30 29  1  0  0  0  0
 31 32  1  0  0  0  0
 33 31  1  0  0  0  0
 34 33  1  0  0  0  0
M  END
>  <minimizedAffinity>
-4.73728466

$$$$

 OpenBabel03272505563D

 34 36  0  0  1  0  0  0  0  0999 V2000
   39.7540   22.4110   36.3150 C   0  0  2  0  0  0  0  0  0  0  0  0
   39.0870   23.4210   35.3960 C   0  0  0  0  0  0  0  0  0  0  0  0
   38.8330   24.7310   36.0840 C   0  0  2  0  0  0  0  0  0  0  0  0
   37.9830   24.5450   37.3260 C   0  0  0  0  0  0  0  0  0  0  0  0
   38.5160   23.4710   38.2140 C   0  0  0  0  0  0  0  0  0  0  0  0
   39.8110   22.8560   37.7340 C   0  0  0  0  0  0  0  0  0  0  0  0
   39.2660   21.4200   36.2130 H   0  0  0  0  0  0  0  0  0  0  0  0
   38.1620   22.9720   35.0070 H   0  0  0  0  0  0  0  0  0  0  0  0
   39.7080   23.6490   34.4890 H   0  0  0  0  0  0  0  0  0  0  0  0
   39.8280   25.0680   36.4750 H   0  0  0  0  0  0  0  0  0  0  0  0
   37.9110   25.5270   37.8320 H   0  0  0  0  0  0  0  0  0  0  0  0
   36.9590   24.2380   36.9950 H   0  0  0  0  0  0  0  0  0  0  0  0
   38.7330   23.9320   39.2130 H   0  0  0  0  0  0  0  0  0  0  0  0
   37.8050   22.6600   38.4230 H   0  0  0  0  0  0  0  0  0  0  0  0
   39.9550   21.9410   38.3670 H   0  0  0  0  0  0  0  0  0  0  0  0
   40.6890   23.4980   37.9750 H   0  0  0  0  0  0  0  0  0  0  0  0
   41.1620   22.1870   35.8610 C   0  0  0  0  0  0  0  0  0  0  0  0
   42.1650   22.7400   36.6910 C   0  0  0  0  0  0  0  0  0  0  0  0
   43.4880   22.5490   36.2790 C   0  0  0  0  0  0  0  0  0  0  0  0
   43.7540   21.8520   35.1170 N   0  0  0  0  0  0  0  0  0  0  0  0
   42.7380   21.3410   34.3560 C   0  0  0  0  0  0  0  0  0  0  0  0
   41.4690   21.5090   34.7280 N   0  0  0  0  0  0  0  0  0  0  0  0
   41.9780   23.2780   37.5880 H   0  0  0  0  0  0  0  0  0  0  0  0
   44.3380   22.9150   36.8140 H   0  0  0  0  0  0  0  0  0  0  0  0
   43.0270   20.8100   33.4630 H   0  0  0  0  0  0  0  0  0  0  0  0
   38.3770   25.6870   35.1870 N   0  0  1  0  0  0  0  0  0  0  0  0
   38.5430   27.0560   35.4590 C   0  0  0  0  0  3  0  0  0  0  0  0
   38.8440   27.2310   36.4880 H   0  0  0  0  0  0  0  0  0  0  0  0
   37.2150   27.7310   35.0920 C   0  0  0  0  0  3  0  0  0  0  0  0
   36.4220   27.0940   35.5460 H   0  0  0  0  0  0  0  0  0  0  0  0
   37.0600   27.6290   33.6560 N   0  0  0  0  0  0  0  0  0  0  0  0
   37.4210   28.5330   33.2380 H   0  0  0  0  0  0  0  0  0  0  0  0
   37.8440   26.5760   33.0580 C   0  0  0  0  0  2  0  0  0  0  0  0
   37.8540   25.3200   33.9350 C   0  0  0  0  0  2  0  0  0  0  0  0
  1  7  1  6  0  0  0
  1  6  1  0  0  0  0
  2  3  1  0  0  0  0
  2  1  1  0  0  0  0
  3 10  1  1  0  0  0
  3  4  1  0  0  0  0
  4 11  1  0  0  0  0
  4  5  1  0  0  0  0
  5 14  1  0  0  0  0
  5 13  1  0  0  0  0
  6 16  1  0  0  0  0
  6  5  1  0  0  0  0
  6 15  1  0  0  0  0
  8  2  1  0  0  0  0
  9  2  1  0  0  0  0
 12  4  1  0  0  0  0
 17  1  1  0  0  0  0
 17 18  1  0  0  0  0
 18 23  1  0  0  0  0
 19 18  2  0  0  0  0
 19 24  1  0  0  0  0
 20 19  1  0  0  0  0
 21 22  1  0  0  0  0
 21 20  2  0  0  0  0
 22 17  2  0  0  0  0
 25 21  1  0  0  0  0
 26 34  1  6  0  0  0
 26 27  1  0  0  0  0
 26  3  1  0  0  0  0
 27 28  1  0  0  0  0
 29 27  1  0  0  0  0
 29 30  1  0  0  0  0
 31 29  1  0  0  0  0
 32 31  1  0  0  0  0
 33 31  1  0  0  0  0
 33 34  1  0  0  0  0
M  END
>  <minimizedAffinity>
-4.59014988

$$$$

 OpenBabel03272505563D

 34 36  0  0  1  0  0  0  0  0999 V2000
   36.3770   27.9320   32.9480 C   0  0  2  0  0  0  0  0  0  0  0  0
   36.8320   28.1690   31.5190 C   0  0  0  0  0  0  0  0  0  0  0  0
   36.7480   29.6170   31.1300 C   0  0  2  0  0  0  0  0  0  0  0  0
   35.3410   30.1520   31.3030 C   0  0  0  0  0  0  0  0  0  0  0  0
   34.7830   29.8390   32.6520 C   0  0  0  0  0  0  0  0  0  0  0  0
   35.7510   29.1300   33.5720 C   0  0  0  0  0  0  0  0  0  0  0  0
   35.7100   27.0470   32.9960 H   0  0  0  0  0  0  0  0  0  0  0  0
   36.2330   27.5280   30.8570 H   0  0  0  0  0  0  0  0  0  0  0  0
   37.8970   27.8520   31.3510 H   0  0  0  0  0  0  0  0  0  0  0  0
   37.3540   30.1730   31.8930 H   0  0  0  0  0  0  0  0  0  0  0  0
   35.3670   31.2390   31.0900 H   0  0  0  0  0  0  0  0  0  0  0  0
   34.6910   29.6550   30.5410 H   0  0  0  0  0  0  0  0  0  0  0  0
   34.5250   30.8100   33.1470 H   0  0  0  0  0  0  0  0  0  0  0  0
   33.8440   29.2700   32.6330 H   0  0  0  0  0  0  0  0  0  0  0  0
   35.1290   28.7720   34.4340 H   0  0  0  0  0  0  0  0  0  0  0  0
   36.4790   29.8360   34.0320 H   0  0  0  0  0  0  0  0  0  0  0  0
   37.5590   27.5600   33.7870 C   0  0  0  0  0  0  0  0  0  0  0  0
   38.7200   27.1830   33.0700 C   0  0  0  0  0  0  0  0  0  0  0  0
   39.8330   26.8220   33.8370 C   0  0  0  0  0  0  0  0  0  0  0  0
   39.7580   26.8470   35.2150 N   0  0  0  0  0  0  0  0  0  0  0  0
   38.6060   27.2210   35.8490 C   0  0  0  0  0  0  0  0  0  0  0  0
   37.5310   27.5700   35.1420 N   0  0  0  0  0  0  0  0  0  0  0  0
   38.7950   27.1580   32.0110 H   0  0  0  0  0  0  0  0  0  0  0  0
   40.7700   26.5180   33.4200 H   0  0  0  0  0  0  0  0  0  0  0  0
   38.6270   27.2150   36.9280 H   0  0  0  0  0  0  0  0  0  0  0  0
   37.3210   29.8350   29.8850 N   0  0  1  0  0  0  0  0  0  0  0  0
   37.7830   31.1130   29.5260 C   0  0  0  0  0  3  0  0  0  0  0  0
   37.4410   31.8770   30.2200 H   0  0  0  0  0  0  0  0  0  0  0  0
   37.3150   31.3500   28.0850 C   0  0  0  0  0  3  0  0  0  0  0  0
   36.2450   31.0420   28.0650 H   0  0  0  0  0  0  0  0  0  0  0  0
   38.0310   30.4190   27.2380 N   0  0  0  0  0  0  0  0  0  0  0  0
   38.8740   30.9330   26.8520 H   0  0  0  0  0  0  0  0  0  0  0  0
   38.5550   29.2750   27.9430 C   0  0  0  0  0  2  0  0  0  0  0  0
   37.5690   28.7700   29.0010 C   0  0  0  0  0  2  0  0  0  0  0  0
  1  7  1  1  0  0  0
  1  6  1  0  0  0  0
  1 17  1  0  0  0  0
  2  1  1  0  0  0  0
  3  4  1  0  0  0  0
  3  2  1  0  0  0  0
  3 10  1  1  0  0  0
  4  5  1  0  0  0  0
  5 13  1  0  0  0  0
  5  6  1  0  0  0  0
  6 16  1  0  0  0  0
  6 15  1  0  0  0  0
  8  2  1  0  0  0  0
  9  2  1  0  0  0  0
 11  4  1  0  0  0  0
 12  4  1  0  0  0  0
 14  5  1  0  0  0  0
 17 22  1  0  0  0  0
 18 17  2  0  0  0  0
 18 19  1  0  0  0  0
 19 20  2  0  0  0  0
 20 21  1  0  0  0  0
 21 25  1  0  0  0  0
 22 21  2  0  0  0  0
 23 18  1  0  0  0  0
 24 19  1  0  0  0  0
 26 34  1  1  0  0  0
 26  3  1  0  0  0  0
 27 26  1  0  0  0  0
 27 28  1  0  0  0  0
 29 27  1  0  0  0  0
 30 29  1  0  0  0  0
 31 33  1  0  0  0  0
 31 29  1  0  0  0  0
 32 31  1  0  0  0  0
 33 34  1  0  0  0  0
M  END
>  <minimizedAffinity>
-4.58558464

$$$$
