
 OpenBabel03272510063D

 30 32  0  0  0  0  0  0  0  0999 V2000
   35.4610   30.1680   49.2410 C   0  0  0  0  0  0  0  0  0  0  0  0
   36.3040   30.5160   48.1800 C   0  0  0  0  0  0  0  0  0  0  0  0
   35.9120   30.1680   46.8860 C   0  0  0  0  0  0  0  0  0  0  0  0
   34.7400   29.5140   46.7270 N   0  0  0  0  0  0  0  0  0  0  0  0
   33.9420   29.1870   47.7490 C   0  0  0  0  0  0  0  0  0  0  0  0
   34.3100   29.5160   48.9900 N   0  0  0  0  0  0  0  0  0  0  0  0
   32.7130   28.4960   47.5140 N   0  0  0  0  0  0  0  0  0  0  0  0
   31.6440   29.0570   46.6840 C   0  0  0  0  0  0  0  0  0  0  0  0
   30.7170   27.9290   46.4340 C   0  0  0  0  0  0  0  0  0  0  0  0
   31.3830   26.6940   47.0010 C   0  0  0  0  0  0  0  0  0  0  0  0
   32.3410   27.2000   48.0270 C   0  0  0  0  0  0  0  0  0  0  0  0
   35.8120   30.4580   50.2020 H   0  0  0  0  0  0  0  0  0  0  0  0
   36.4140   30.3450   45.9560 H   0  0  0  0  0  0  0  0  0  0  0  0
   32.0890   29.5230   45.7830 H   0  0  0  0  0  0  0  0  0  0  0  0
   31.1360   29.8490   47.2620 H   0  0  0  0  0  0  0  0  0  0  0  0
   30.5960   27.8090   45.3350 H   0  0  0  0  0  0  0  0  0  0  0  0
   29.7160   28.1050   46.8840 H   0  0  0  0  0  0  0  0  0  0  0  0
   31.8310   26.0380   46.2310 H   0  0  0  0  0  0  0  0  0  0  0  0
   30.5820   26.1040   47.5150 H   0  0  0  0  0  0  0  0  0  0  0  0
   33.2660   26.5540   48.0470 H   0  0  0  0  0  0  0  0  0  0  0  0
   31.9110   27.2540   49.0520 H   0  0  0  0  0  0  0  0  0  0  0  0
   37.5490   31.2000   48.2620 N   0  0  0  0  0  0  0  0  0  0  0  0
   38.2880   31.7150   47.1260 C   0  0  0  0  0  3  0  0  0  0  0  0
   38.8120   30.8550   46.6630 H   0  0  0  0  0  0  0  0  0  0  0  0
   39.2090   32.8210   47.5220 C   0  0  0  0  0  3  0  0  0  0  0  0
   39.4920   33.4460   46.6460 H   0  0  0  0  0  0  0  0  0  0  0  0
   38.5010   33.7110   48.4410 N   0  0  0  0  0  0  0  0  0  0  0  0
   37.5540   33.9380   48.1070 H   0  0  0  0  0  0  0  0  0  0  0  0
   38.4310   32.9900   49.7030 C   0  0  0  0  0  2  0  0  0  0  0  0
   38.2790   31.4960   49.4660 C   0  0  0  0  0  2  0  0  0  0  0  0
  1 12  1  0  0  0  0
  2 22  1  0  0  0  0
  2  1  2  0  0  0  0
  3  2  1  0  0  0  0
  4  3  2  0  0  0  0
  4  5  1  0  0  0  0
  5  6  2  0  0  0  0
  6  1  1  0  0  0  0
  7  5  1  0  0  0  0
  7 11  1  0  0  0  0
  8 15  1  0  0  0  0
  8  7  1  0  0  0  0
  9  8  1  0  0  0  0
  9 17  1  0  0  0  0
  9 10  1  0  0  0  0
 10 19  1  0  0  0  0
 10 11  1  0  0  0  0
 11 20  1  0  0  0  0
 11 21  1  0  0  0  0
 13  3  1  0  0  0  0
 14  8  1  0  0  0  0
 16  9  1  0  0  0  0
 18 10  1  0  0  0  0
 22 30  1  0  0  0  0
 23 25  1  0  0  0  0
 23 22  1  0  0  0  0
 24 23  1  0  0  0  0
 25 27  1  0  0  0  0
 26 25  1  0  0  0  0
 27 29  1  0  0  0  0
 28 27  1  0  0  0  0
 30 29  1  0  0  0  0
M  END
>  <minimizedAffinity>
-4.56507015

>  <minimizedRMSD>
3.8659358

$$$$
