
 OpenBabel03272510063D

 30 32  0  0  0  0  0  0  0  0999 V2000
   38.7910   32.3940   47.4220 C   0  0  0  0  0  0  0  0  0  0  0  0
   38.7910   31.6650   46.2270 C   0  0  0  0  0  0  0  0  0  0  0  0
   37.9420   30.5600   46.1300 C   0  0  0  0  0  0  0  0  0  0  0  0
   37.1660   30.2540   47.1930 N   0  0  0  0  0  0  0  0  0  0  0  0
   37.1750   30.9580   48.3300 C   0  0  0  0  0  0  0  0  0  0  0  0
   37.9840   32.0160   48.4320 N   0  0  0  0  0  0  0  0  0  0  0  0
   36.3290   30.5830   49.4190 N   0  0  0  0  0  0  0  0  0  0  0  0
   34.8690   30.5400   49.3000 C   0  0  0  0  0  0  0  0  0  0  0  0
   34.4040   29.8130   50.5040 C   0  0  0  0  0  0  0  0  0  0  0  0
   35.6470   29.3080   51.2050 C   0  0  0  0  0  0  0  0  0  0  0  0
   36.7490   30.2040   50.7460 C   0  0  0  0  0  0  0  0  0  0  0  0
   39.4570   33.2230   47.4370 H   0  0  0  0  0  0  0  0  0  0  0  0
   37.8000   29.8860   45.3100 H   0  0  0  0  0  0  0  0  0  0  0  0
   34.5970   30.0840   48.3280 H   0  0  0  0  0  0  0  0  0  0  0  0
   34.4900   31.5770   49.3080 H   0  0  0  0  0  0  0  0  0  0  0  0
   33.7900   28.9460   50.1770 H   0  0  0  0  0  0  0  0  0  0  0  0
   33.7870   30.4570   51.1660 H   0  0  0  0  0  0  0  0  0  0  0  0
   35.8340   28.2280   51.0550 H   0  0  0  0  0  0  0  0  0  0  0  0
   35.4850   29.4690   52.3010 H   0  0  0  0  0  0  0  0  0  0  0  0
   37.7110   29.6210   50.6550 H   0  0  0  0  0  0  0  0  0  0  0  0
   36.9160   31.0830   51.4080 H   0  0  0  0  0  0  0  0  0  0  0  0
   39.5740   31.9190   45.0660 N   0  0  0  0  0  0  0  0  0  0  0  0
   40.2750   30.9080   44.3030 C   0  0  0  0  0  0  0  0  0  0  0  0
   41.2070   30.6700   44.8550 H   0  0  0  0  0  0  0  0  0  0  0  0
   40.5230   31.3500   42.8970 C   0  0  0  0  0  0  0  0  0  0  0  0
   40.7180   30.4820   42.2280 H   0  0  0  0  0  0  0  0  0  0  0  0
   39.3100   31.9880   42.3890 N   0  0  0  0  0  0  0  0  0  0  0  0
   38.4660   31.4400   42.6050 H   0  0  0  0  0  0  0  0  0  0  0  0
   39.2490   33.2850   43.0450 C   0  0  0  0  0  0  0  0  0  0  0  0
   39.8000   33.2050   44.4600 C   0  0  0  0  0  0  0  0  0  0  0  0
  1 12  1  0  0  0  0
  1  6  1  0  0  0  0
  2  1  2  0  0  0  0
  3  2  1  0  0  0  0
  3  4  2  0  0  0  0
  4  5  1  0  0  0  0
  5  6  2  0  0  0  0
  5  7  1  0  0  0  0
  7 11  1  0  0  0  0
  8 15  1  0  0  0  0
  8  7  1  0  0  0  0
  8  9  1  0  0  0  0
  9 17  1  0  0  0  0
  9 10  1  0  0  0  0
 10 19  1  0  0  0  0
 11 10  1  0  0  0  0
 11 21  1  0  0  0  0
 13  3  1  0  0  0  0
 14  8  1  0  0  0  0
 16  9  1  0  0  0  0
 18 10  1  0  0  0  0
 20 11  1  0  0  0  0
 22  2  1  0  0  0  0
 23 24  1  0  0  0  0
 23 22  1  0  0  0  0
 25 23  1  0  0  0  0
 26 25  1  0  0  0  0
 27 28  1  0  0  0  0
 27 25  1  0  0  0  0
 27 29  1  0  0  0  0
 29 30  1  0  0  0  0
 30 22  1  0  0  0  0
M  END
>  <minimizedAffinity>
-4.94001007

>  <minimizedRMSD>
3.54970264

$$$$
