
 OpenBabel03272510063D

 30 32  0  0  0  0  0  0  0  0999 V2000
   38.7840   32.3910   47.4060 C   0  0  0  0  0  0  0  0  0  0  0  0
   38.7760   31.6620   46.2100 C   0  0  0  0  0  0  0  0  0  0  0  0
   37.9240   30.5600   46.1170 C   0  0  0  0  0  0  0  0  0  0  0  0
   37.1530   30.2540   47.1840 N   0  0  0  0  0  0  0  0  0  0  0  0
   37.1690   30.9580   48.3210 C   0  0  0  0  0  0  0  0  0  0  0  0
   37.9810   32.0150   48.4190 N   0  0  0  0  0  0  0  0  0  0  0  0
   36.3270   30.5840   49.4140 N   0  0  0  0  0  0  0  0  0  0  0  0
   34.8670   30.5440   49.3020 C   0  0  0  0  0  0  0  0  0  0  0  0
   34.4060   29.8170   50.5080 C   0  0  0  0  0  0  0  0  0  0  0  0
   35.6510   29.3100   51.2030 C   0  0  0  0  0  0  0  0  0  0  0  0
   36.7530   30.2040   50.7390 C   0  0  0  0  0  0  0  0  0  0  0  0
   39.4510   33.2180   47.4190 H   0  0  0  0  0  0  0  0  0  0  0  0
   37.7770   29.8870   45.2970 H   0  0  0  0  0  0  0  0  0  0  0  0
   34.5890   30.0890   48.3310 H   0  0  0  0  0  0  0  0  0  0  0  0
   34.4900   31.5820   49.3120 H   0  0  0  0  0  0  0  0  0  0  0  0
   33.7880   28.9520   50.1830 H   0  0  0  0  0  0  0  0  0  0  0  0
   33.7930   30.4620   51.1730 H   0  0  0  0  0  0  0  0  0  0  0  0
   35.8350   28.2290   51.0510 H   0  0  0  0  0  0  0  0  0  0  0  0
   35.4950   29.4700   52.3000 H   0  0  0  0  0  0  0  0  0  0  0  0
   37.7130   29.6190   50.6430 H   0  0  0  0  0  0  0  0  0  0  0  0
   36.9250   31.0810   51.4010 H   0  0  0  0  0  0  0  0  0  0  0  0
   39.5540   31.9160   45.0460 N   0  0  0  0  0  0  0  0  0  0  0  0
   40.3010   30.9130   44.3150 C   0  0  0  0  0  3  0  0  0  0  0  0
   41.2390   30.7320   44.8790 H   0  0  0  0  0  0  0  0  0  0  0  0
   40.5380   31.3240   42.8980 C   0  0  0  0  0  3  0  0  0  0  0  0
   40.7730   30.4460   42.2560 H   0  0  0  0  0  0  0  0  0  0  0  0
   39.3020   31.8960   42.3680 N   0  0  0  0  0  0  0  0  0  0  0  0
   38.4800   31.3190   42.5950 H   0  0  0  0  0  0  0  0  0  0  0  0
   39.1830   33.2080   42.9840 C   0  0  0  0  0  2  0  0  0  0  0  0
   39.7290   33.1920   44.4030 C   0  0  0  0  0  2  0  0  0  0  0  0
  1 12  1  0  0  0  0
  1  6  1  0  0  0  0
  2  1  2  0  0  0  0
  3  2  1  0  0  0  0
  3  4  2  0  0  0  0
  4  5  1  0  0  0  0
  5  6  2  0  0  0  0
  5  7  1  0  0  0  0
  7 11  1  0  0  0  0
  8 15  1  0  0  0  0
  8  7  1  0  0  0  0
  8  9  1  0  0  0  0
  9 17  1  0  0  0  0
  9 10  1  0  0  0  0
 10 19  1  0  0  0  0
 11 10  1  0  0  0  0
 11 21  1  0  0  0  0
 13  3  1  0  0  0  0
 14  8  1  0  0  0  0
 16  9  1  0  0  0  0
 18 10  1  0  0  0  0
 20 11  1  0  0  0  0
 22  2  1  0  0  0  0
 23 24  1  0  0  0  0
 23 22  1  0  0  0  0
 25 23  1  0  0  0  0
 26 25  1  0  0  0  0
 27 28  1  0  0  0  0
 27 25  1  0  0  0  0
 27 29  1  0  0  0  0
 29 30  1  0  0  0  0
 30 22  1  0  0  0  0
M  END
>  <minimizedAffinity>
-4.93865824

>  <minimizedRMSD>
3.47185874

$$$$
