
 OpenBabel03272510333D

 28 30  0  0  0  0  0  0  0  0999 V2000
   35.4900   30.0750   48.1640 C   0  0  0  0  0  0  0  0  0  0  0  0
   34.7470   30.2170   47.0160 C   0  0  0  0  0  0  0  0  0  0  0  0
   33.6240   29.4450   46.7760 C   0  0  0  0  0  0  0  0  0  0  0  0
   33.2670   28.5190   47.7330 C   0  0  0  0  0  0  0  0  0  0  0  0
   33.9990   28.3570   48.8980 C   0  0  0  0  0  0  0  0  0  0  0  0
   35.1290   29.1440   49.1240 C   0  0  0  0  0  0  0  0  0  0  0  0
   34.9500   30.9230   46.2020 H   0  0  0  0  0  0  0  0  0  0  0  0
   33.0190   29.5330   45.8830 H   0  0  0  0  0  0  0  0  0  0  0  0
   32.4240   27.8660   47.6630 H   0  0  0  0  0  0  0  0  0  0  0  0
   33.7850   27.6570   49.6900 H   0  0  0  0  0  0  0  0  0  0  0  0
   37.5950   32.8020   49.3410 C   0  0  0  0  0  0  0  0  0  0  0  0
   38.7970   32.6430   48.6490 C   0  0  0  0  0  0  0  0  0  0  0  0
   38.8750   31.5550   47.7470 C   0  0  0  0  0  0  0  0  0  0  0  0
   37.7890   30.7650   47.6310 N   0  0  0  0  0  0  0  0  0  0  0  0
   36.6470   30.9390   48.3070 C   0  0  0  0  0  0  0  0  0  0  0  0
   36.5470   31.9780   49.1800 N   0  0  0  0  0  0  0  0  0  0  0  0
   37.5300   33.6340   50.0320 H   0  0  0  0  0  0  0  0  0  0  0  0
   39.5990   33.3410   48.8270 H   0  0  0  0  0  0  0  0  0  0  0  0
   39.7960   31.4200   47.2080 H   0  0  0  0  0  0  0  0  0  0  0  0
   35.9050   29.0060   50.3090 N   0  0  0  0  0  0  0  0  0  0  0  0
   35.8530   29.6870   51.5830 C   0  0  0  0  0  3  0  0  0  0  0  0
   35.3400   29.1070   52.3610 H   0  0  0  0  0  0  0  0  0  0  0  0
   37.2280   30.0040   52.1210 C   0  0  0  0  0  3  0  0  0  0  0  0
   37.2920   30.9870   52.6070 H   0  0  0  0  0  0  0  0  0  0  0  0
   38.1460   30.0040   50.9820 N   0  0  0  0  0  0  0  0  0  0  0  0
   39.0630   30.3930   51.2390 H   0  0  0  0  0  0  0  0  0  0  0  0
   38.3130   28.5780   50.6610 C   0  0  0  0  0  2  0  0  0  0  0  0
   36.9720   28.0000   50.2840 C   0  0  0  0  0  2  0  0  0  0  0  0
  1 15  1  0  0  0  0
  1  6  1  0  0  0  0
  2  1  2  0  0  0  0
  3  2  1  0  0  0  0
  3  4  2  0  0  0  0
  4  5  1  0  0  0  0
  5  6  2  0  0  0  0
  5 10  1  0  0  0  0
  6 20  1  0  0  0  0
  7  2  1  0  0  0  0
  8  3  1  0  0  0  0
  9  4  1  0  0  0  0
 11 17  1  0  0  0  0
 12 18  1  0  0  0  0
 12 11  2  0  0  0  0
 13 12  1  0  0  0  0
 14 13  2  0  0  0  0
 14 15  1  0  0  0  0
 15 16  2  0  0  0  0
 16 11  1  0  0  0  0
 19 13  1  0  0  0  0
 20 21  1  0  0  0  0
 21 23  1  0  0  0  0
 21 22  1  0  0  0  0
 23 24  1  0  0  0  0
 25 26  1  0  0  0  0
 25 23  1  0  0  0  0
 27 25  1  0  0  0  0
 28 20  1  0  0  0  0
 28 27  1  0  0  0  0
M  END
>  <minimizedAffinity>
-2.84666228

>  <minimizedRMSD>
1.01106548

$$$$
