
 OpenBabel03272510333D

 28 30  0  0  0  0  0  0  0  0999 V2000
   36.2540   30.2890   46.8770 C   0  0  0  0  0  0  0  0  0  0  0  0
   37.5190   30.8050   47.0380 C   0  0  0  0  0  0  0  0  0  0  0  0
   38.2860   31.2020   45.9560 C   0  0  0  0  0  0  0  0  0  0  0  0
   37.7390   31.0660   44.6990 C   0  0  0  0  0  0  0  0  0  0  0  0
   36.4660   30.5500   44.5110 C   0  0  0  0  0  0  0  0  0  0  0  0
   35.7070   30.1540   45.6120 C   0  0  0  0  0  0  0  0  0  0  0  0
   38.0370   30.9510   47.9940 H   0  0  0  0  0  0  0  0  0  0  0  0
   39.2840   31.6100   46.0500 H   0  0  0  0  0  0  0  0  0  0  0  0
   38.2300   31.3360   43.7890 H   0  0  0  0  0  0  0  0  0  0  0  0
   35.9710   30.4130   43.5620 H   0  0  0  0  0  0  0  0  0  0  0  0
   34.4830   30.5930   50.0430 C   0  0  0  0  0  0  0  0  0  0  0  0
   34.1850   29.2790   50.4070 C   0  0  0  0  0  0  0  0  0  0  0  0
   34.6130   28.2590   49.5240 C   0  0  0  0  0  0  0  0  0  0  0  0
   35.2710   28.6370   48.4090 N   0  0  0  0  0  0  0  0  0  0  0  0
   35.5440   29.9060   48.0830 C   0  0  0  0  0  0  0  0  0  0  0  0
   35.1430   30.9050   48.9150 N   0  0  0  0  0  0  0  0  0  0  0  0
   34.1580   31.3780   50.7150 H   0  0  0  0  0  0  0  0  0  0  0  0
   33.6510   29.0990   51.3260 H   0  0  0  0  0  0  0  0  0  0  0  0
   34.3900   27.2420   49.7920 H   0  0  0  0  0  0  0  0  0  0  0  0
   34.3970   29.6200   45.4570 N   0  0  0  0  0  0  0  0  0  0  0  0
   33.9270   28.2910   45.1390 C   0  0  0  0  0  3  0  0  0  0  0  0
   33.5920   27.7280   46.0210 H   0  0  0  0  0  0  0  0  0  0  0  0
   32.7650   28.3070   44.1740 C   0  0  0  0  0  3  0  0  0  0  0  0
   32.8060   27.5070   43.4250 H   0  0  0  0  0  0  0  0  0  0  0  0
   32.8110   29.5890   43.4690 N   0  0  0  0  0  0  0  0  0  0  0  0
   32.1670   29.5990   42.6660 H   0  0  0  0  0  0  0  0  0  0  0  0
   32.3390   30.5620   44.4650 C   0  0  0  0  0  2  0  0  0  0  0  0
   33.2800   30.5500   45.6440 C   0  0  0  0  0  2  0  0  0  0  0  0
  1  2  1  0  0  0  0
  1 15  1  0  0  0  0
  2  7  1  0  0  0  0
  3  8  1  0  0  0  0
  3  2  2  0  0  0  0
  4  3  1  0  0  0  0
  5  4  2  0  0  0  0
  5  6  1  0  0  0  0
  6  1  2  0  0  0  0
  9  4  1  0  0  0  0
 10  5  1  0  0  0  0
 11 12  1  0  0  0  0
 11 17  1  0  0  0  0
 12 18  1  0  0  0  0
 13 19  1  0  0  0  0
 13 12  2  0  0  0  0
 14 13  1  0  0  0  0
 15 14  2  0  0  0  0
 15 16  1  0  0  0  0
 16 11  2  0  0  0  0
 20  6  1  0  0  0  0
 20 28  1  0  0  0  0
 21 20  1  0  0  0  0
 21 22  1  0  0  0  0
 23 21  1  0  0  0  0
 24 23  1  0  0  0  0
 25 23  1  0  0  0  0
 25 27  1  0  0  0  0
 26 25  1  0  0  0  0
 27 28  1  0  0  0  0
M  END
>  <minimizedAffinity>
-3.53792763

>  <minimizedRMSD>
6.21264172

$$$$
