
 OpenBabel03272510063D

 30 32  0  0  0  0  0  0  0  0999 V2000
   35.5310   29.5540   48.4410 C   0  0  0  0  0  0  0  0  0  0  0  0
   35.8520   30.1960   47.2400 C   0  0  0  0  0  0  0  0  0  0  0  0
   35.0290   29.9740   46.1340 C   0  0  0  0  0  0  0  0  0  0  0  0
   33.9660   29.1520   46.2820 N   0  0  0  0  0  0  0  0  0  0  0  0
   33.6700   28.5440   47.4360 C   0  0  0  0  0  0  0  0  0  0  0  0
   34.4520   28.7510   48.4990 N   0  0  0  0  0  0  0  0  0  0  0  0
   32.5290   27.6870   47.5280 N   0  0  0  0  0  0  0  0  0  0  0  0
   31.1670   28.1620   47.2720 C   0  0  0  0  0  0  0  0  0  0  0  0
   30.3460   26.9350   47.1530 C   0  0  0  0  0  0  0  0  0  0  0  0
   31.3110   25.7700   47.1800 C   0  0  0  0  0  0  0  0  0  0  0  0
   32.5300   26.2850   47.8690 C   0  0  0  0  0  0  0  0  0  0  0  0
   36.1930   29.7600   49.2480 H   0  0  0  0  0  0  0  0  0  0  0  0
   35.1080   30.3700   45.1420 H   0  0  0  0  0  0  0  0  0  0  0  0
   31.1740   28.8250   46.3840 H   0  0  0  0  0  0  0  0  0  0  0  0
   30.8400   28.7590   48.1410 H   0  0  0  0  0  0  0  0  0  0  0  0
   29.8220   26.9560   46.1720 H   0  0  0  0  0  0  0  0  0  0  0  0
   29.5860   26.8630   47.9600 H   0  0  0  0  0  0  0  0  0  0  0  0
   31.4940   25.3220   46.1840 H   0  0  0  0  0  0  0  0  0  0  0  0
   30.8420   24.9790   47.8190 H   0  0  0  0  0  0  0  0  0  0  0  0
   33.4560   25.8170   47.4220 H   0  0  0  0  0  0  0  0  0  0  0  0
   32.5290   26.1130   48.9680 H   0  0  0  0  0  0  0  0  0  0  0  0
   36.9480   31.0720   47.0020 N   0  0  0  0  0  0  0  0  0  0  0  0
   37.6430   31.8250   48.0260 C   0  0  0  0  0  3  0  0  0  0  0  0
   37.0140   32.7060   48.2650 H   0  0  0  0  0  0  0  0  0  0  0  0
   39.0270   32.1890   47.5980 C   0  0  0  0  0  3  0  0  0  0  0  0
   39.6710   32.4310   48.4730 H   0  0  0  0  0  0  0  0  0  0  0  0
   39.6380   31.0270   46.9550 N   0  0  0  0  0  0  0  0  0  0  0  0
   39.4880   30.1630   47.4950 H   0  0  0  0  0  0  0  0  0  0  0  0
   39.0010   30.9240   45.6510 C   0  0  0  0  0  2  0  0  0  0  0  0
   37.5450   31.3570   45.7240 C   0  0  0  0  0  2  0  0  0  0  0  0
  1  6  1  0  0  0  0
  1 12  1  0  0  0  0
  2  1  2  0  0  0  0
  3  4  2  0  0  0  0
  3  2  1  0  0  0  0
  4  5  1  0  0  0  0
  5  7  1  0  0  0  0
  5  6  2  0  0  0  0
  7 11  1  0  0  0  0
  8  7  1  0  0  0  0
  8 15  1  0  0  0  0
  9 10  1  0  0  0  0
  9  8  1  0  0  0  0
  9 17  1  0  0  0  0
 10 19  1  0  0  0  0
 10 11  1  0  0  0  0
 11 21  1  0  0  0  0
 13  3  1  0  0  0  0
 14  8  1  0  0  0  0
 16  9  1  0  0  0  0
 18 10  1  0  0  0  0
 20 11  1  0  0  0  0
 22  2  1  0  0  0  0
 22 23  1  0  0  0  0
 23 24  1  0  0  0  0
 25 23  1  0  0  0  0
 25 26  1  0  0  0  0
 27 28  1  0  0  0  0
 27 25  1  0  0  0  0
 29 30  1  0  0  0  0
 29 27  1  0  0  0  0
 30 22  1  0  0  0  0
M  END
>  <minimizedAffinity>
-4.09465551

>  <minimizedRMSD>
4.42224693

$$$$
