
 OpenBabel03272508143D

 28 30  0  0  0  0  0  0  0  0999 V2000
   38.9240   31.1130   47.2400 Cl  0  0  0  0  0  0  0  0  0  0  0  0
   37.3520   30.6790   46.6210 C   0  0  0  0  0  0  0  0  0  0  0  0
   36.4750   30.2600   47.5860 C   0  0  0  0  0  0  0  0  0  0  0  0
   35.1770   29.8860   47.1980 C   0  0  0  0  0  0  0  0  0  0  0  0
   34.7840   29.9310   45.8960 C   0  0  0  0  0  0  0  0  0  0  0  0
   35.6830   30.3550   44.9410 C   0  0  0  0  0  0  0  0  0  0  0  0
   35.2140   30.4270   43.2610 Cl  0  0  0  0  0  0  0  0  0  0  0  0
   36.9370   30.7180   45.3080 C   0  0  0  0  0  0  0  0  0  0  0  0
   34.4170   29.5430   47.8870 H   0  0  0  0  0  0  0  0  0  0  0  0
   33.7820   29.6460   45.5620 H   0  0  0  0  0  0  0  0  0  0  0  0
   37.7850   30.7950   49.6160 C   0  0  0  0  0  0  0  0  0  0  0  0
   36.6780   30.1310   49.0410 C   0  0  0  0  0  0  0  0  0  0  0  0
   35.8470   29.3950   49.8880 C   0  0  0  0  0  0  0  0  0  0  0  0
   36.1370   29.3510   51.2110 N   0  0  0  0  0  0  0  0  0  0  0  0
   37.2140   30.0060   51.7240 C   0  0  0  0  0  0  0  0  0  0  0  0
   38.0330   30.7240   50.9280 N   0  0  0  0  0  0  0  0  0  0  0  0
   38.4230   31.3640   48.9540 H   0  0  0  0  0  0  0  0  0  0  0  0
   35.0050   28.8930   49.4340 H   0  0  0  0  0  0  0  0  0  0  0  0
   37.4590   29.9830   52.7690 H   0  0  0  0  0  0  0  0  0  0  0  0
   37.9350   31.1710   44.3890 N   0  0  0  0  0  0  0  0  0  0  0  0
   38.0850   32.5650   44.0540 C   0  0  0  0  0  0  0  0  0  0  0  0
   37.2970   33.1810   44.5680 H   0  0  0  0  0  0  0  0  0  0  0  0
   37.9610   32.7290   42.5740 C   0  0  0  0  0  0  0  0  0  0  0  0
   38.5970   33.5910   42.2630 H   0  0  0  0  0  0  0  0  0  0  0  0
   38.2700   31.5570   41.8130 N   0  0  0  0  0  0  0  0  0  0  0  0
   37.4740   31.0700   41.3800 H   0  0  0  0  0  0  0  0  0  0  0  0
   39.2250   30.6830   42.4410 C   0  0  0  0  0  0  0  0  0  0  0  0
   38.8000   30.1970   43.7940 C   0  0  0  0  0  0  0  0  0  0  0  0
  2  1  1  0  0  0  0
  2  3  1  0  0  0  0
  3 12  1  0  0  0  0
  4  3  2  0  0  0  0
  4  9  1  0  0  0  0
  5  4  1  0  0  0  0
  6  8  1  0  0  0  0
  6  5  2  0  0  0  0
  7  6  1  0  0  0  0
  8  2  2  0  0  0  0
 10  5  1  0  0  0  0
 11 16  1  0  0  0  0
 12 11  2  0  0  0  0
 12 13  1  0  0  0  0
 13 14  2  0  0  0  0
 14 15  1  0  0  0  0
 15 19  1  0  0  0  0
 16 15  2  0  0  0  0
 17 11  1  0  0  0  0
 18 13  1  0  0  0  0
 20  8  1  0  0  0  0
 21 20  1  0  0  0  0
 21 22  1  0  0  0  0
 23 21  1  0  0  0  0
 24 23  1  0  0  0  0
 25 27  1  0  0  0  0
 25 23  1  0  0  0  0
 26 25  1  0  0  0  0
 27 28  1  0  0  0  0
 28 20  1  0  0  0  0
M  END
>  <minimizedAffinity>
-5.4311676

>  <minimizedRMSD>
4.59615421

$$$$
