
 OpenBabel03272506053D

 30 32  0  0  0  0  0  0  0  0999 V2000
   34.8250   28.3670   49.4080 C   0  0  0  0  0  0  0  0  0  0  0  0
   34.8220   27.5420   50.1490 H   0  0  0  0  0  0  0  0  0  0  0  0
   35.7180   28.1740   48.7640 H   0  0  0  0  0  0  0  0  0  0  0  0
   33.5890   28.3080   48.5580 C   0  0  0  0  0  0  0  0  0  0  0  0
   33.6840   28.6950   47.1710 C   0  0  0  0  0  0  0  0  0  0  0  0
   32.0100   28.4530   46.6400 S   0  0  0  0  0  0  0  0  0  0  0  0
   31.4030   27.8720   48.3220 C   0  0  0  0  0  0  0  0  0  0  0  0
   32.4090   27.9310   48.9720 N   0  0  0  0  0  0  0  0  0  0  0  0
   34.5360   29.0230   46.6590 H   0  0  0  0  0  0  0  0  0  0  0  0
   30.0830   27.4530   48.7720 N   0  0  0  0  0  0  0  0  0  0  0  0
   29.2440   26.8410   47.7940 C   0  0  0  0  0  0  0  0  0  0  0  0
   29.5530   25.7800   47.5610 H   0  0  0  0  0  0  0  0  0  0  0  0
   27.7970   26.8050   48.1600 C   0  0  0  0  0  0  0  0  0  0  0  0
   27.4550   25.7550   48.3950 H   0  0  0  0  0  0  0  0  0  0  0  0
   27.4830   27.5520   49.3740 N   0  0  0  0  0  0  0  0  0  0  0  0
   26.5040   27.2500   49.6500 H   0  0  0  0  0  0  0  0  0  0  0  0
   28.3770   27.0340   50.4010 C   0  0  0  0  0  0  0  0  0  0  0  0
   29.7140   27.6760   50.1520 C   0  0  0  0  0  0  0  0  0  0  0  0
   34.9530   29.6600   50.1190 C   0  0  0  0  0  0  0  0  0  0  0  0
   35.1100   29.5500   51.2260 H   0  0  0  0  0  0  0  0  0  0  0  0
   34.0330   30.2640   49.9560 H   0  0  0  0  0  0  0  0  0  0  0  0
   37.5090   32.2990   49.5530 C   0  0  0  0  0  0  0  0  0  0  0  0
   38.2870   31.7610   48.5270 C   0  0  0  0  0  0  0  0  0  0  0  0
   37.9260   30.4950   48.0380 C   0  0  0  0  0  0  0  0  0  0  0  0
   36.8540   29.8610   48.5770 N   0  0  0  0  0  0  0  0  0  0  0  0
   36.1350   30.4380   49.5750 C   0  0  0  0  0  0  0  0  0  0  0  0
   36.4590   31.6350   50.0520 N   0  0  0  0  0  0  0  0  0  0  0  0
   37.7550   33.2690   49.9540 H   0  0  0  0  0  0  0  0  0  0  0  0
   39.1320   32.2860   48.1170 H   0  0  0  0  0  0  0  0  0  0  0  0
   38.5010   30.0210   47.2320 H   0  0  0  0  0  0  0  0  0  0  0  0
  1 19  1  0  0  0  0
  1  2  1  0  0  0  0
  3  1  1  0  0  0  0
  4  8  1  0  0  0  0
  4  1  1  0  0  0  0
  5  4  2  0  0  0  0
  6  5  1  0  0  0  0
  6  7  1  0  0  0  0
  7 10  1  0  0  0  0
  7  8  2  0  0  0  0
  9  5  1  0  0  0  0
 10 18  1  0  0  0  0
 11 13  1  0  0  0  0
 11 10  1  0  0  0  0
 12 11  1  0  0  0  0
 13 14  1  0  0  0  0
 13 15  1  0  0  0  0
 15 16  1  0  0  0  0
 15 17  1  0  0  0  0
 18 17  1  0  0  0  0
 19 20  1  0  0  0  0
 21 19  1  0  0  0  0
 22 28  1  0  0  0  0
 22 27  1  0  0  0  0
 23 22  2  0  0  0  0
 24 23  1  0  0  0  0
 24 25  2  0  0  0  0
 25 26  1  0  0  0  0
 26 27  2  0  0  0  0
 26 19  1  0  0  0  0
 29 23  1  0  0  0  0
 30 24  1  0  0  0  0
M  END
>  <minimizedAffinity>
-5.56915808

>  <minimizedRMSD>
1.63707316

$$$$
