
 OpenBabel03272503543D

 44 47  0  0  1  0  0  0  0  0999 V2000
   39.0660   24.0180   33.4780 C   0  0  1  0  0  0  0  0  0  0  0  0
   39.0480   23.1640   32.1910 C   0  0  0  0  0  0  0  0  0  0  0  0
   37.6530   22.5230   32.1940 C   0  0  0  0  0  0  0  0  0  0  0  0
   37.6340   21.5110   33.2840 C   0  0  0  0  0  0  0  0  0  0  0  0
   37.9330   22.1580   34.6180 C   0  0  0  0  0  0  0  0  0  0  0  0
   39.1700   23.0080   34.5830 C   0  0  2  0  0  0  0  0  0  0  0  0
   38.1170   24.5650   33.3920 H   0  0  0  0  0  0  0  0  0  0  0  0
   39.7650   22.3310   32.3380 H   0  0  0  0  0  0  0  0  0  0  0  0
   39.2410   23.7810   31.3160 H   0  0  0  0  0  0  0  0  0  0  0  0
   36.9420   23.3530   32.4330 H   0  0  0  0  0  0  0  0  0  0  0  0
   37.5070   22.0950   31.2040 H   0  0  0  0  0  0  0  0  0  0  0  0
   36.6830   20.9770   33.3960 H   0  0  0  0  0  0  0  0  0  0  0  0
   38.4680   20.7910   33.0650 H   0  0  0  0  0  0  0  0  0  0  0  0
   37.0290   22.6430   34.9740 H   0  0  0  0  0  0  0  0  0  0  0  0
   38.1410   21.2960   35.3100 H   0  0  0  0  0  0  0  0  0  0  0  0
   40.0170   22.3280   34.3470 H   0  0  0  0  0  0  0  0  0  0  0  0
   40.0200   26.3340   33.6410 C   0  0  0  0  0  0  0  0  0  0  0  0
   41.1250   27.1790   33.6770 C   0  0  0  0  0  0  0  0  0  0  0  0
   42.4170   26.6470   33.5410 C   0  0  0  0  0  0  0  0  0  0  0  0
   42.5360   25.2880   33.3760 C   0  0  0  0  0  0  0  0  0  0  0  0
   41.4560   24.4450   33.3370 C   0  0  0  0  0  0  0  0  0  0  0  0
   40.1600   24.9880   33.4760 C   0  0  0  0  0  0  0  0  0  0  0  0
   41.0240   28.2510   33.8080 H   0  0  0  0  0  0  0  0  0  0  0  0
   43.2650   27.3070   33.5720 H   0  0  0  0  0  0  0  0  0  0  0  0
   43.5650   24.9250   33.2750 H   0  0  0  0  0  0  0  0  0  0  0  0
   41.6970   23.4060   33.2020 H   0  0  0  0  0  0  0  0  0  0  0  0
   36.8790   27.9490   34.9760 C   0  0  0  0  0  0  0  0  0  0  0  0
   38.1260   27.2970   34.9840 C   0  0  0  0  0  0  0  0  0  0  0  0
   38.7370   26.9950   33.7670 C   0  0  0  0  0  0  0  0  0  0  0  0
   38.0700   27.3590   32.6550 N   0  0  0  0  0  0  0  0  0  0  0  0
   36.8790   27.9830   32.6540 C   0  0  0  0  0  0  0  0  0  0  0  0
   36.2930   28.2720   33.8050 N   0  0  0  0  0  0  0  0  0  0  0  0
   36.5250   28.1200   36.0010 H   0  0  0  0  0  0  0  0  0  0  0  0
   38.6650   27.0020   35.8710 H   0  0  0  0  0  0  0  0  0  0  0  0
   36.3900   28.2520   31.7440 H   0  0  0  0  0  0  0  0  0  0  0  0
   39.4120   23.6130   35.8310 N   0  0  2  0  0  0  0  0  0  0  0  0
   40.6120   23.2280   36.5010 C   0  0  0  0  0  3  0  0  0  0  0  0
   41.3060   22.7690   35.7760 H   0  0  0  0  0  0  0  0  0  0  0  0
   40.4350   22.3320   37.6630 C   0  0  0  0  0  3  0  0  0  0  0  0
   40.5060   21.2710   37.3450 H   0  0  0  0  0  0  0  0  0  0  0  0
   39.3110   22.6090   38.4680 N   0  0  0  0  0  0  0  0  0  0  0  0
   38.9230   21.8290   38.9930 H   0  0  0  0  0  0  0  0  0  0  0  0
   38.4650   23.6790   38.1060 C   0  0  0  0  0  2  0  0  0  0  0  0
   38.3340   23.9790   36.6520 C   0  0  0  0  0  2  0  0  0  0  0  0
  1  7  1  1  0  0  0
  1  6  1  0  0  0  0
  2  3  1  0  0  0  0
  2  8  1  0  0  0  0
  2  1  1  0  0  0  0
  3 10  1  0  0  0  0
  3  4  1  0  0  0  0
  4 12  1  0  0  0  0
  4  5  1  0  0  0  0
  5 14  1  0  0  0  0
  5 15  1  0  0  0  0
  6 16  1  6  0  0  0
  6  5  1  0  0  0  0
  6 36  1  0  0  0  0
  9  2  1  0  0  0  0
 11  3  1  0  0  0  0
 13  4  1  0  0  0  0
 17 18  1  0  0  0  0
 17 29  1  0  0  0  0
 18 23  1  0  0  0  0
 19 24  1  0  0  0  0
 19 18  2  0  0  0  0
 20 19  1  0  0  0  0
 21 20  2  0  0  0  0
 21 22  1  0  0  0  0
 22  1  1  0  0  0  0
 22 17  2  0  0  0  0
 25 20  1  0  0  0  0
 26 21  1  0  0  0  0
 27 28  1  0  0  0  0
 27 33  1  0  0  0  0
 28 34  1  0  0  0  0
 29 28  2  0  0  0  0
 30 29  1  0  0  0  0
 31 30  2  0  0  0  0
 31 32  1  0  0  0  0
 32 27  2  0  0  0  0
 35 31  1  0  0  0  0
 36 37  1  0  0  0  0
 36 44  1  1  0  0  0
 37 39  1  0  0  0  0
 38 37  1  0  0  0  0
 39 41  1  0  0  0  0
 40 39  1  0  0  0  0
 41 42  1  0  0  0  0
 43 41  1  0  0  0  0
 44 43  1  0  0  0  0
M  END
>  <minimizedAffinity>
-5.60196686

$$$$

 OpenBabel03272503543D

 44 47  0  0  1  0  0  0  0  0999 V2000
   39.8800   25.9420   34.0110 C   0  0  1  0  0  0  0  0  0  0  0  0
   41.0960   26.8400   34.3350 C   0  0  0  0  0  0  0  0  0  0  0  0
   42.2990   25.8980   34.1820 C   0  0  0  0  0  0  0  0  0  0  0  0
   42.2600   24.9420   35.3200 C   0  0  0  0  0  0  0  0  0  0  0  0
   40.9640   24.1630   35.3190 C   0  0  0  0  0  0  0  0  0  0  0  0
   39.7560   25.0510   35.2130 C   0  0  2  0  0  0  0  0  0  0  0  0
   40.2000   25.4690   33.0730 H   0  0  0  0  0  0  0  0  0  0  0  0
   41.0430   27.0910   35.4130 H   0  0  0  0  0  0  0  0  0  0  0  0
   41.1290   27.6980   33.6680 H   0  0  0  0  0  0  0  0  0  0  0  0
   42.1320   25.3510   33.2210 H   0  0  0  0  0  0  0  0  0  0  0  0
   43.1870   26.5280   34.1770 H   0  0  0  0  0  0  0  0  0  0  0  0
   43.0720   24.2060   35.3280 H   0  0  0  0  0  0  0  0  0  0  0  0
   42.2790   25.5600   36.2570 H   0  0  0  0  0  0  0  0  0  0  0  0
   41.0390   23.3700   34.5800 H   0  0  0  0  0  0  0  0  0  0  0  0
   40.9260   23.6720   36.3300 H   0  0  0  0  0  0  0  0  0  0  0  0
   39.7560   25.6960   36.1190 H   0  0  0  0  0  0  0  0  0  0  0  0
   37.9930   26.7490   32.5670 C   0  0  0  0  0  0  0  0  0  0  0  0
   36.8240   27.4880   32.4200 C   0  0  0  0  0  0  0  0  0  0  0  0
   36.3240   28.2310   33.5010 C   0  0  0  0  0  0  0  0  0  0  0  0
   37.0280   28.1950   34.6820 C   0  0  0  0  0  0  0  0  0  0  0  0
   38.1820   27.4730   34.8390 C   0  0  0  0  0  0  0  0  0  0  0  0
   38.6760   26.7270   33.7470 C   0  0  0  0  0  0  0  0  0  0  0  0
   36.2730   27.5110   31.4850 H   0  0  0  0  0  0  0  0  0  0  0  0
   35.4190   28.7980   33.3790 H   0  0  0  0  0  0  0  0  0  0  0  0
   36.5960   28.7920   35.4930 H   0  0  0  0  0  0  0  0  0  0  0  0
   38.6260   27.5370   35.8160 H   0  0  0  0  0  0  0  0  0  0  0  0
   39.6370   25.7810   29.3090 C   0  0  0  0  0  0  0  0  0  0  0  0
   39.2840   26.5730   30.4170 C   0  0  0  0  0  0  0  0  0  0  0  0
   38.4260   26.0410   31.3800 C   0  0  0  0  0  0  0  0  0  0  0  0
   37.9950   24.7830   31.1690 N   0  0  0  0  0  0  0  0  0  0  0  0
   38.3370   24.0310   30.1080 C   0  0  0  0  0  0  0  0  0  0  0  0
   39.1500   24.5290   29.1900 N   0  0  0  0  0  0  0  0  0  0  0  0
   40.3140   26.3300   28.6410 H   0  0  0  0  0  0  0  0  0  0  0  0
   39.6250   27.5810   30.5920 H   0  0  0  0  0  0  0  0  0  0  0  0
   37.9680   23.0370   29.9850 H   0  0  0  0  0  0  0  0  0  0  0  0
   38.5670   24.2990   35.1930 N   0  0  2  0  0  0  0  0  0  0  0  0
   37.8040   24.2860   36.4000 C   0  0  0  0  0  3  0  0  0  0  0  0
   38.1110   25.1330   37.0370 H   0  0  0  0  0  0  0  0  0  0  0  0
   37.8580   23.0300   37.1750 C   0  0  0  0  0  3  0  0  0  0  0  0
   38.6760   23.0750   37.9250 H   0  0  0  0  0  0  0  0  0  0  0  0
   37.8610   21.8490   36.4040 N   0  0  0  0  0  0  0  0  0  0  0  0
   38.2950   21.0300   36.8240 H   0  0  0  0  0  0  0  0  0  0  0  0
   37.8230   21.9580   34.9970 C   0  0  0  0  0  2  0  0  0  0  0  0
   38.4770   23.1520   34.3910 C   0  0  0  0  0  2  0  0  0  0  0  0
  1  7  1  6  0  0  0
  1  2  1  0  0  0  0
  1  6  1  0  0  0  0
  2  8  1  0  0  0  0
  3  2  1  0  0  0  0
  3  4  1  0  0  0  0
  4 12  1  0  0  0  0
  4 13  1  0  0  0  0
  5  4  1  0  0  0  0
  5 15  1  0  0  0  0
  6  5  1  0  0  0  0
  6 16  1  1  0  0  0
  9  2  1  0  0  0  0
 10  3  1  0  0  0  0
 11  3  1  0  0  0  0
 14  5  1  0  0  0  0
 17 22  1  0  0  0  0
 18 17  2  0  0  0  0
 18 19  1  0  0  0  0
 19 20  2  0  0  0  0
 20 21  1  0  0  0  0
 20 25  1  0  0  0  0
 21 26  1  0  0  0  0
 22  1  1  0  0  0  0
 22 21  2  0  0  0  0
 23 18  1  0  0  0  0
 24 19  1  0  0  0  0
 27 28  1  0  0  0  0
 28 34  1  0  0  0  0
 28 29  2  0  0  0  0
 29 17  1  0  0  0  0
 30 29  1  0  0  0  0
 31 30  2  0  0  0  0
 32 27  2  0  0  0  0
 32 31  1  0  0  0  0
 33 27  1  0  0  0  0
 35 31  1  0  0  0  0
 36 44  1  1  0  0  0
 36  6  1  0  0  0  0
 36 37  1  0  0  0  0
 37 38  1  0  0  0  0
 37 39  1  0  0  0  0
 39 40  1  0  0  0  0
 41 42  1  0  0  0  0
 41 39  1  0  0  0  0
 43 41  1  0  0  0  0
 44 43  1  0  0  0  0
M  END
>  <minimizedAffinity>
-5.51370001

$$$$

 OpenBabel03272503543D

 44 47  0  0  1  0  0  0  0  0999 V2000
   38.6360   26.0940   34.5360 C   0  0  1  0  0  0  0  0  0  0  0  0
   38.5090   27.5090   35.1450 C   0  0  0  0  0  0  0  0  0  0  0  0
   37.0240   27.8540   34.9680 C   0  0  0  0  0  0  0  0  0  0  0  0
   36.7920   28.0780   33.5160 C   0  0  0  0  0  0  0  0  0  0  0  0
   37.1560   26.8450   32.7210 C   0  0  0  0  0  0  0  0  0  0  0  0
   38.5250   26.3250   33.0570 C   0  0  2  0  0  0  0  0  0  0  0  0
   37.8010   25.5710   35.0210 H   0  0  0  0  0  0  0  0  0  0  0  0
   39.0630   28.2040   34.4820 H   0  0  0  0  0  0  0  0  0  0  0  0
   38.8350   27.5130   36.1820 H   0  0  0  0  0  0  0  0  0  0  0  0
   36.4630   26.9480   35.3070 H   0  0  0  0  0  0  0  0  0  0  0  0
   36.8360   28.7370   35.5760 H   0  0  0  0  0  0  0  0  0  0  0  0
   35.7580   28.3320   33.2510 H   0  0  0  0  0  0  0  0  0  0  0  0
   37.4920   28.8980   33.2040 H   0  0  0  0  0  0  0  0  0  0  0  0
   36.3410   26.1310   32.8000 H   0  0  0  0  0  0  0  0  0  0  0  0
   37.1880   27.1950   31.6520 H   0  0  0  0  0  0  0  0  0  0  0  0
   39.2460   27.1240   32.7790 H   0  0  0  0  0  0  0  0  0  0  0  0
   39.9790   24.2110   35.5090 C   0  0  0  0  0  0  0  0  0  0  0  0
   41.2140   23.6420   35.8010 C   0  0  0  0  0  0  0  0  0  0  0  0
   42.3950   24.3380   35.4980 C   0  0  0  0  0  0  0  0  0  0  0  0
   42.2760   25.5760   34.9120 C   0  0  0  0  0  0  0  0  0  0  0  0
   41.0660   26.1480   34.6200 C   0  0  0  0  0  0  0  0  0  0  0  0
   39.8830   25.4410   34.9280 C   0  0  0  0  0  0  0  0  0  0  0  0
   41.3010   22.6630   36.2620 H   0  0  0  0  0  0  0  0  0  0  0  0
   43.3450   23.8900   35.7260 H   0  0  0  0  0  0  0  0  0  0  0  0
   43.2270   26.0760   34.6970 H   0  0  0  0  0  0  0  0  0  0  0  0
   41.1230   27.1210   34.1650 H   0  0  0  0  0  0  0  0  0  0  0  0
   37.0240   22.7290   37.3320 C   0  0  0  0  0  0  0  0  0  0  0  0
   38.1310   23.5610   37.0830 C   0  0  0  0  0  0  0  0  0  0  0  0
   38.8300   23.4130   35.8860 C   0  0  0  0  0  0  0  0  0  0  0  0
   38.3810   22.4640   35.0420 N   0  0  0  0  0  0  0  0  0  0  0  0
   37.3220   21.6720   35.2860 C   0  0  0  0  0  0  0  0  0  0  0  0
   36.6530   21.8070   36.4200 N   0  0  0  0  0  0  0  0  0  0  0  0
   36.5760   22.9600   38.3080 H   0  0  0  0  0  0  0  0  0  0  0  0
   38.4960   24.3230   37.7540 H   0  0  0  0  0  0  0  0  0  0  0  0
   37.0040   20.9330   34.5840 H   0  0  0  0  0  0  0  0  0  0  0  0
   38.8290   25.1660   32.3170 N   0  0  2  0  0  0  0  0  0  0  0  0
   39.8020   25.3100   31.2840 C   0  0  0  0  0  3  0  0  0  0  0  0
   40.3880   26.2290   31.4570 H   0  0  0  0  0  0  0  0  0  0  0  0
   39.2740   25.3050   29.9040 C   0  0  0  0  0  3  0  0  0  0  0  0
   39.0550   26.3410   29.5710 H   0  0  0  0  0  0  0  0  0  0  0  0
   38.2180   24.4000   29.6700 N   0  0  0  0  0  0  0  0  0  0  0  0
   37.5750   24.6330   28.9170 H   0  0  0  0  0  0  0  0  0  0  0  0
   37.7570   23.6030   30.7410 C   0  0  0  0  0  2  0  0  0  0  0  0
   37.8430   24.1900   32.1080 C   0  0  0  0  0  2  0  0  0  0  0  0
  1 22  1  0  0  0  0
  1  7  1  1  0  0  0
  1  2  1  0  0  0  0
  2  9  1  0  0  0  0
  3  2  1  0  0  0  0
  3 10  1  0  0  0  0
  3 11  1  0  0  0  0
  4  3  1  0  0  0  0
  5 14  1  0  0  0  0
  5  6  1  0  0  0  0
  5  4  1  0  0  0  0
  6 16  1  6  0  0  0
  6  1  1  0  0  0  0
  8  2  1  0  0  0  0
 12  4  1  0  0  0  0
 13  4  1  0  0  0  0
 15  5  1  0  0  0  0
 17 18  1  0  0  0  0
 17 29  1  0  0  0  0
 18 23  1  0  0  0  0
 19 24  1  0  0  0  0
 19 18  2  0  0  0  0
 20 19  1  0  0  0  0
 21 20  2  0  0  0  0
 21 22  1  0  0  0  0
 22 17  2  0  0  0  0
 25 20  1  0  0  0  0
 26 21  1  0  0  0  0
 27 33  1  0  0  0  0
 28 27  1  0  0  0  0
 28 34  1  0  0  0  0
 29 28  2  0  0  0  0
 30 31  2  0  0  0  0
 30 29  1  0  0  0  0
 31 32  1  0  0  0  0
 32 27  2  0  0  0  0
 35 31  1  0  0  0  0
 36 44  1  6  0  0  0
 36  6  1  0  0  0  0
 37 38  1  0  0  0  0
 37 36  1  0  0  0  0
 39 37  1  0  0  0  0
 40 39  1  0  0  0  0
 41 39  1  0  0  0  0
 41 43  1  0  0  0  0
 42 41  1  0  0  0  0
 43 44  1  0  0  0  0
M  END
>  <minimizedAffinity>
-5.36915874

$$$$

 OpenBabel03272503543D

 44 47  0  0  1  0  0  0  0  0999 V2000
   39.7750   24.7620   34.0210 C   0  0  1  0  0  0  0  0  0  0  0  0
   41.1900   24.5390   33.4390 C   0  0  0  0  0  0  0  0  0  0  0  0
   42.0340   25.6420   34.0930 C   0  0  0  0  0  0  0  0  0  0  0  0
   41.6100   26.9370   33.4950 C   0  0  0  0  0  0  0  0  0  0  0  0
   40.1360   27.1760   33.7300 C   0  0  0  0  0  0  0  0  0  0  0  0
   39.2890   26.0020   33.3300 C   0  0  2  0  0  0  0  0  0  0  0  0
   39.9910   24.8430   35.0950 H   0  0  0  0  0  0  0  0  0  0  0  0
   41.1450   24.7910   32.3600 H   0  0  0  0  0  0  0  0  0  0  0  0
   41.5440   23.5340   33.6580 H   0  0  0  0  0  0  0  0  0  0  0  0
   41.7670   25.6210   35.1790 H   0  0  0  0  0  0  0  0  0  0  0  0
   43.0750   25.3940   33.8940 H   0  0  0  0  0  0  0  0  0  0  0  0
   42.1410   27.8150   33.8820 H   0  0  0  0  0  0  0  0  0  0  0  0
   41.7630   26.8410   32.3860 H   0  0  0  0  0  0  0  0  0  0  0  0
   40.0040   27.5370   34.7460 H   0  0  0  0  0  0  0  0  0  0  0  0
   39.8730   28.0250   33.0400 H   0  0  0  0  0  0  0  0  0  0  0  0
   39.4330   25.8640   32.2360 H   0  0  0  0  0  0  0  0  0  0  0  0
   38.2750   22.9030   34.7920 C   0  0  0  0  0  0  0  0  0  0  0  0
   37.4250   21.8430   34.4940 C   0  0  0  0  0  0  0  0  0  0  0  0
   37.2070   21.4760   33.1560 C   0  0  0  0  0  0  0  0  0  0  0  0
   37.8560   22.1950   32.1810 C   0  0  0  0  0  0  0  0  0  0  0  0
   38.6960   23.2400   32.4610 C   0  0  0  0  0  0  0  0  0  0  0  0
   38.9090   23.6030   33.8090 C   0  0  0  0  0  0  0  0  0  0  0  0
   36.9150   21.2800   35.2690 H   0  0  0  0  0  0  0  0  0  0  0  0
   36.5470   20.6560   32.9350 H   0  0  0  0  0  0  0  0  0  0  0  0
   37.6510   21.8670   31.1560 H   0  0  0  0  0  0  0  0  0  0  0  0
   39.1360   23.7100   31.6000 H   0  0  0  0  0  0  0  0  0  0  0  0
   37.8280   24.1320   38.3340 C   0  0  0  0  0  0  0  0  0  0  0  0
   37.5590   23.9420   36.9650 C   0  0  0  0  0  0  0  0  0  0  0  0
   38.4430   23.1780   36.2040 C   0  0  0  0  0  0  0  0  0  0  0  0
   39.5080   22.6700   36.8530 N   0  0  0  0  0  0  0  0  0  0  0  0
   39.7600   22.8540   38.1600 C   0  0  0  0  0  0  0  0  0  0  0  0
   38.9250   23.5790   38.8900 N   0  0  0  0  0  0  0  0  0  0  0  0
   37.0490   24.7500   38.8000 H   0  0  0  0  0  0  0  0  0  0  0  0
   36.7080   24.3460   36.4400 H   0  0  0  0  0  0  0  0  0  0  0  0
   40.6190   22.4300   38.6300 H   0  0  0  0  0  0  0  0  0  0  0  0
   37.9250   26.2450   33.5790 N   0  0  2  0  0  0  0  0  0  0  0  0
   37.0930   26.4190   32.4330 C   0  0  0  0  0  3  0  0  0  0  0  0
   37.6010   26.0090   31.5440 H   0  0  0  0  0  0  0  0  0  0  0  0
   36.6560   27.8060   32.1660 C   0  0  0  0  0  3  0  0  0  0  0  0
   37.3700   28.3080   31.4790 H   0  0  0  0  0  0  0  0  0  0  0  0
   36.3410   28.5660   33.3110 N   0  0  0  0  0  0  0  0  0  0  0  0
   36.4400   29.5750   33.2300 H   0  0  0  0  0  0  0  0  0  0  0  0
   36.4720   27.9650   34.5820 C   0  0  0  0  0  2  0  0  0  0  0  0
   37.5370   26.9340   34.7380 C   0  0  0  0  0  2  0  0  0  0  0  0
  1  7  1  1  0  0  0
  2  9  1  0  0  0  0
  2  1  1  0  0  0  0
  2  3  1  0  0  0  0
  3 10  1  0  0  0  0
  4  5  1  0  0  0  0
  4 12  1  0  0  0  0
  4  3  1  0  0  0  0
  5 14  1  0  0  0  0
  6 16  1  6  0  0  0
  6 36  1  0  0  0  0
  6  5  1  0  0  0  0
  6  1  1  0  0  0  0
  8  2  1  0  0  0  0
 11  3  1  0  0  0  0
 13  4  1  0  0  0  0
 15  5  1  0  0  0  0
 17 29  1  0  0  0  0
 18 17  1  0  0  0  0
 18 23  1  0  0  0  0
 19 18  2  0  0  0  0
 20 21  2  0  0  0  0
 20 19  1  0  0  0  0
 21 22  1  0  0  0  0
 22  1  1  0  0  0  0
 22 17  2  0  0  0  0
 24 19  1  0  0  0  0
 25 20  1  0  0  0  0
 26 21  1  0  0  0  0
 27 33  1  0  0  0  0
 27 32  1  0  0  0  0
 28 27  2  0  0  0  0
 29 30  2  0  0  0  0
 29 28  1  0  0  0  0
 30 31  1  0  0  0  0
 31 35  1  0  0  0  0
 31 32  2  0  0  0  0
 34 28  1  0  0  0  0
 36 44  1  1  0  0  0
 37 36  1  0  0  0  0
 38 37  1  0  0  0  0
 39 37  1  0  0  0  0
 39 41  1  0  0  0  0
 40 39  1  0  0  0  0
 41 43  1  0  0  0  0
 42 41  1  0  0  0  0
 43 44  1  0  0  0  0
M  END
>  <minimizedAffinity>
-5.3587842

$$$$

 OpenBabel03272503543D

 44 47  0  0  1  0  0  0  0  0999 V2000
   38.1050   26.4470   33.1740 C   0  0  1  0  0  0  0  0  0  0  0  0
   38.1230   26.0160   34.6580 C   0  0  0  0  0  0  0  0  0  0  0  0
   38.9770   27.0930   35.3430 C   0  0  0  0  0  0  0  0  0  0  0  0
   40.3830   26.8880   34.9040 C   0  0  0  0  0  0  0  0  0  0  0  0
   40.4920   26.9900   33.3990 C   0  0  0  0  0  0  0  0  0  0  0  0
   39.4880   26.1290   32.6870 C   0  0  2  0  0  0  0  0  0  0  0  0
   37.8390   27.5090   33.2570 H   0  0  0  0  0  0  0  0  0  0  0  0
   38.7100   25.0780   34.7230 H   0  0  0  0  0  0  0  0  0  0  0  0
   37.1120   25.9480   35.0530 H   0  0  0  0  0  0  0  0  0  0  0  0
   38.5960   28.0700   34.9540 H   0  0  0  0  0  0  0  0  0  0  0  0
   38.8360   26.9650   36.4150 H   0  0  0  0  0  0  0  0  0  0  0  0
   41.1020   27.6010   35.3240 H   0  0  0  0  0  0  0  0  0  0  0  0
   40.6560   25.8370   35.1900 H   0  0  0  0  0  0  0  0  0  0  0  0
   40.4990   28.0410   33.1260 H   0  0  0  0  0  0  0  0  0  0  0  0
   41.5110   26.5790   33.1600 H   0  0  0  0  0  0  0  0  0  0  0  0
   39.7170   25.0770   32.9660 H   0  0  0  0  0  0  0  0  0  0  0  0
   36.1070   26.3790   31.6570 C   0  0  0  0  0  0  0  0  0  0  0  0
   35.1750   25.6450   30.9290 C   0  0  0  0  0  0  0  0  0  0  0  0
   35.2000   24.2420   30.9730 C   0  0  0  0  0  0  0  0  0  0  0  0
   36.1640   23.6430   31.7480 C   0  0  0  0  0  0  0  0  0  0  0  0
   37.0870   24.3530   32.4700 C   0  0  0  0  0  0  0  0  0  0  0  0
   37.0550   25.7640   32.4200 C   0  0  0  0  0  0  0  0  0  0  0  0
   34.4170   26.1250   30.3190 H   0  0  0  0  0  0  0  0  0  0  0  0
   34.4770   23.6830   30.4060 H   0  0  0  0  0  0  0  0  0  0  0  0
   36.1390   22.5480   31.7470 H   0  0  0  0  0  0  0  0  0  0  0  0
   37.7810   23.7540   33.0320 H   0  0  0  0  0  0  0  0  0  0  0  0
   35.2500   30.0020   32.2830 C   0  0  0  0  0  0  0  0  0  0  0  0
   35.3080   28.6110   32.4900 C   0  0  0  0  0  0  0  0  0  0  0  0
   35.9720   27.8170   31.5550 C   0  0  0  0  0  0  0  0  0  0  0  0
   36.5190   28.4580   30.5050 N   0  0  0  0  0  0  0  0  0  0  0  0
   36.4610   29.7870   30.3120 C   0  0  0  0  0  0  0  0  0  0  0  0
   35.8320   30.5480   31.1950 N   0  0  0  0  0  0  0  0  0  0  0  0
   34.6990   30.4930   33.0960 H   0  0  0  0  0  0  0  0  0  0  0  0
   34.8710   28.0920   33.3290 H   0  0  0  0  0  0  0  0  0  0  0  0
   36.9110   30.2490   29.4620 H   0  0  0  0  0  0  0  0  0  0  0  0
   39.6000   26.2600   31.2900 N   0  0  2  0  0  0  0  0  0  0  0  0
   40.1350   25.1380   30.5890 C   0  0  0  0  0  3  0  0  0  0  0  0
   40.0640   24.2390   31.2250 H   0  0  0  0  0  0  0  0  0  0  0  0
   41.5190   25.2950   30.0940 C   0  0  0  0  0  3  0  0  0  0  0  0
   42.2420   24.9180   30.8480 H   0  0  0  0  0  0  0  0  0  0  0  0
   41.8350   26.5750   29.5950 N   0  0  0  0  0  0  0  0  0  0  0  0
   42.8140   26.8510   29.6340 H   0  0  0  0  0  0  0  0  0  0  0  0
   40.8400   27.5760   29.6150 C   0  0  0  0  0  2  0  0  0  0  0  0
   39.8430   27.5190   30.7220 C   0  0  0  0  0  2  0  0  0  0  0  0
  1  7  1  6  0  0  0
  1  2  1  0  0  0  0
  2  8  1  0  0  0  0
  2  9  1  0  0  0  0
  2  3  1  0  0  0  0
  3 11  1  0  0  0  0
  4 13  1  0  0  0  0
  4 12  1  0  0  0  0
  4  3  1  0  0  0  0
  5  4  1  0  0  0  0
  6 16  1  1  0  0  0
  6  1  1  0  0  0  0
  6  5  1  0  0  0  0
 10  3  1  0  0  0  0
 14  5  1  0  0  0  0
 15  5  1  0  0  0  0
 17 22  1  0  0  0  0
 18 19  1  0  0  0  0
 18 17  2  0  0  0  0
 19 20  2  0  0  0  0
 20 21  1  0  0  0  0
 21 26  1  0  0  0  0
 22 21  2  0  0  0  0
 22  1  1  0  0  0  0
 23 18  1  0  0  0  0
 24 19  1  0  0  0  0
 25 20  1  0  0  0  0
 27 28  1  0  0  0  0
 27 33  1  0  0  0  0
 28 34  1  0  0  0  0
 29 17  1  0  0  0  0
 29 28  2  0  0  0  0
 30 29  1  0  0  0  0
 31 30  2  0  0  0  0
 31 32  1  0  0  0  0
 32 27  2  0  0  0  0
 35 31  1  0  0  0  0
 36 44  1  1  0  0  0
 36  6  1  0  0  0  0
 37 38  1  0  0  0  0
 37 36  1  0  0  0  0
 39 37  1  0  0  0  0
 39 40  1  0  0  0  0
 41 43  1  0  0  0  0
 41 42  1  0  0  0  0
 41 39  1  0  0  0  0
 43 44  1  0  0  0  0
M  END
>  <minimizedAffinity>
-5.30689716

$$$$

 OpenBabel03272503543D

 44 47  0  0  1  0  0  0  0  0999 V2000
   39.7420   26.0630   34.5650 C   0  0  1  0  0  0  0  0  0  0  0  0
   39.2470   27.2520   35.4180 C   0  0  0  0  0  0  0  0  0  0  0  0
   37.7870   26.8960   35.7330 C   0  0  0  0  0  0  0  0  0  0  0  0
   37.0170   27.0300   34.4670 C   0  0  0  0  0  0  0  0  0  0  0  0
   37.5770   26.1150   33.4020 C   0  0  0  0  0  0  0  0  0  0  0  0
   39.0630   26.2590   33.2410 C   0  0  2  0  0  0  0  0  0  0  0  0
   39.4150   25.2070   35.1700 H   0  0  0  0  0  0  0  0  0  0  0  0
   39.2060   28.1400   34.7550 H   0  0  0  0  0  0  0  0  0  0  0  0
   39.8640   27.3740   36.3050 H   0  0  0  0  0  0  0  0  0  0  0  0
   37.8020   25.8250   36.0560 H   0  0  0  0  0  0  0  0  0  0  0  0
   37.4610   27.5830   36.5120 H   0  0  0  0  0  0  0  0  0  0  0  0
   35.9480   26.7990   34.5550 H   0  0  0  0  0  0  0  0  0  0  0  0
   37.1640   28.0860   34.1150 H   0  0  0  0  0  0  0  0  0  0  0  0
   37.2110   25.1090   33.5850 H   0  0  0  0  0  0  0  0  0  0  0  0
   37.1040   26.4710   32.4450 H   0  0  0  0  0  0  0  0  0  0  0  0
   39.2480   27.3040   32.9110 H   0  0  0  0  0  0  0  0  0  0  0  0
   41.9960   25.0110   34.9010 C   0  0  0  0  0  0  0  0  0  0  0  0
   43.3750   25.0420   34.7210 C   0  0  0  0  0  0  0  0  0  0  0  0
   43.9740   26.1390   34.0810 C   0  0  0  0  0  0  0  0  0  0  0  0
   43.1540   27.1550   33.6520 C   0  0  0  0  0  0  0  0  0  0  0  0
   41.7950   27.1380   33.8250 C   0  0  0  0  0  0  0  0  0  0  0  0
   41.2010   26.0300   34.4680 C   0  0  0  0  0  0  0  0  0  0  0  0
   44.0170   24.2350   35.0610 H   0  0  0  0  0  0  0  0  0  0  0  0
   45.0400   26.1530   33.9440 H   0  0  0  0  0  0  0  0  0  0  0  0
   43.6700   27.9860   33.1600 H   0  0  0  0  0  0  0  0  0  0  0  0
   41.2780   28.0000   33.4400 H   0  0  0  0  0  0  0  0  0  0  0  0
   39.7930   22.2760   36.2860 C   0  0  0  0  0  0  0  0  0  0  0  0
   40.1590   23.4360   35.5790 C   0  0  0  0  0  0  0  0  0  0  0  0
   41.4920   23.8430   35.5930 C   0  0  0  0  0  0  0  0  0  0  0  0
   42.3460   23.0750   36.2980 N   0  0  0  0  0  0  0  0  0  0  0  0
   41.9900   21.9670   36.9720 C   0  0  0  0  0  0  0  0  0  0  0  0
   40.7260   21.5750   36.9630 N   0  0  0  0  0  0  0  0  0  0  0  0
   38.7170   22.0820   36.1830 H   0  0  0  0  0  0  0  0  0  0  0  0
   39.4810   24.0550   35.0120 H   0  0  0  0  0  0  0  0  0  0  0  0
   42.7050   21.3910   37.5170 H   0  0  0  0  0  0  0  0  0  0  0  0
   39.5590   25.3810   32.2580 N   0  0  2  0  0  0  0  0  0  0  0  0
   40.0020   25.9790   31.0400 C   0  0  0  0  0  3  0  0  0  0  0  0
   40.1840   27.0550   31.2030 H   0  0  0  0  0  0  0  0  0  0  0  0
   39.1110   25.7920   29.8760 C   0  0  0  0  0  3  0  0  0  0  0  0
   38.3950   26.6370   29.8000 H   0  0  0  0  0  0  0  0  0  0  0  0
   38.5020   24.5230   29.7850 N   0  0  0  0  0  0  0  0  0  0  0  0
   37.6160   24.4760   29.2870 H   0  0  0  0  0  0  0  0  0  0  0  0
   38.7760   23.5660   30.7860 C   0  0  0  0  0  2  0  0  0  0  0  0
   39.0470   24.0790   32.1590 C   0  0  0  0  0  2  0  0  0  0  0  0
  1  7  1  1  0  0  0
  1  2  1  0  0  0  0
  2  3  1  0  0  0  0
  2  9  1  0  0  0  0
  3 10  1  0  0  0  0
  3 11  1  0  0  0  0
  4 12  1  0  0  0  0
  4  3  1  0  0  0  0
  5 14  1  0  0  0  0
  5  4  1  0  0  0  0
  6 16  1  6  0  0  0
  6  5  1  0  0  0  0
  6  1  1  0  0  0  0
  8  2  1  0  0  0  0
 13  4  1  0  0  0  0
 15  5  1  0  0  0  0
 17 29  1  0  0  0  0
 18 17  1  0  0  0  0
 18 23  1  0  0  0  0
 19 18  2  0  0  0  0
 20 21  2  0  0  0  0
 20 19  1  0  0  0  0
 21 22  1  0  0  0  0
 22  1  1  0  0  0  0
 22 17  2  0  0  0  0
 24 19  1  0  0  0  0
 25 20  1  0  0  0  0
 26 21  1  0  0  0  0
 27 32  1  0  0  0  0
 28 29  1  0  0  0  0
 28 27  2  0  0  0  0
 29 30  2  0  0  0  0
 30 31  1  0  0  0  0
 31 35  1  0  0  0  0
 32 31  2  0  0  0  0
 33 27  1  0  0  0  0
 34 28  1  0  0  0  0
 36 44  1  6  0  0  0
 36  6  1  0  0  0  0
 37 38  1  0  0  0  0
 37 36  1  0  0  0  0
 39 37  1  0  0  0  0
 40 39  1  0  0  0  0
 41 39  1  0  0  0  0
 41 43  1  0  0  0  0
 42 41  1  0  0  0  0
 43 44  1  0  0  0  0
M  END
>  <minimizedAffinity>
-5.26200008

$$$$

 OpenBabel03272503543D

 44 47  0  0  1  0  0  0  0  0999 V2000
   38.1770   22.4920   31.2670 C   0  0  1  0  0  0  0  0  0  0  0  0
   38.7220   21.7730   30.0130 C   0  0  0  0  0  0  0  0  0  0  0  0
   39.9730   22.5820   29.6400 C   0  0  0  0  0  0  0  0  0  0  0  0
   39.5090   23.8950   29.1160 C   0  0  0  0  0  0  0  0  0  0  0  0
   38.6860   24.6240   30.1530 C   0  0  0  0  0  0  0  0  0  0  0  0
   37.5950   23.7670   30.7310 C   0  0  2  0  0  0  0  0  0  0  0  0
   39.0820   22.5790   31.8820 H   0  0  0  0  0  0  0  0  0  0  0  0
   37.9960   21.9430   29.1930 H   0  0  0  0  0  0  0  0  0  0  0  0
   38.9300   20.7270   30.2280 H   0  0  0  0  0  0  0  0  0  0  0  0
   40.5300   22.7320   30.5980 H   0  0  0  0  0  0  0  0  0  0  0  0
   40.5170   21.9910   28.9060 H   0  0  0  0  0  0  0  0  0  0  0  0
   40.3130   24.5760   28.8130 H   0  0  0  0  0  0  0  0  0  0  0  0
   38.8340   23.6710   28.2470 H   0  0  0  0  0  0  0  0  0  0  0  0
   39.3620   25.0830   30.8680 H   0  0  0  0  0  0  0  0  0  0  0  0
   38.1880   25.4570   29.5850 H   0  0  0  0  0  0  0  0  0  0  0  0
   36.9160   23.5080   29.8900 H   0  0  0  0  0  0  0  0  0  0  0  0
   37.1800   21.4830   33.3380 C   0  0  0  0  0  0  0  0  0  0  0  0
   36.1840   20.7260   33.9460 C   0  0  0  0  0  0  0  0  0  0  0  0
   35.1770   20.1360   33.1640 C   0  0  0  0  0  0  0  0  0  0  0  0
   35.2210   20.3380   31.8060 C   0  0  0  0  0  0  0  0  0  0  0  0
   36.1970   21.0810   31.1940 C   0  0  0  0  0  0  0  0  0  0  0  0
   37.2050   21.6710   31.9880 C   0  0  0  0  0  0  0  0  0  0  0  0
   36.1550   20.5710   35.0200 H   0  0  0  0  0  0  0  0  0  0  0  0
   34.4110   19.5530   33.6430 H   0  0  0  0  0  0  0  0  0  0  0  0
   34.4140   19.8570   31.2430 H   0  0  0  0  0  0  0  0  0  0  0  0
   36.1070   21.1540   30.1250 H   0  0  0  0  0  0  0  0  0  0  0  0
   40.4230   22.4580   35.0060 C   0  0  0  0  0  0  0  0  0  0  0  0
   39.5530   21.8800   34.0630 C   0  0  0  0  0  0  0  0  0  0  0  0
   38.1770   22.0230   34.2390 C   0  0  0  0  0  0  0  0  0  0  0  0
   37.7800   22.7190   35.3220 N   0  0  0  0  0  0  0  0  0  0  0  0
   38.6170   23.2690   36.2190 C   0  0  0  0  0  0  0  0  0  0  0  0
   39.9240   23.1380   36.0590 N   0  0  0  0  0  0  0  0  0  0  0  0
   41.4700   22.2650   34.7370 H   0  0  0  0  0  0  0  0  0  0  0  0
   39.8640   21.3220   33.1940 H   0  0  0  0  0  0  0  0  0  0  0  0
   38.2530   23.8130   37.0630 H   0  0  0  0  0  0  0  0  0  0  0  0
   36.8590   24.4650   31.7070 N   0  0  2  0  0  0  0  0  0  0  0  0
   35.5550   24.9030   31.3250 C   0  0  0  0  0  3  0  0  0  0  0  0
   35.2220   24.3350   30.4400 H   0  0  0  0  0  0  0  0  0  0  0  0
   35.4180   26.3530   31.0740 C   0  0  0  0  0  3  0  0  0  0  0  0
   35.5920   26.5750   30.0000 H   0  0  0  0  0  0  0  0  0  0  0  0
   36.1450   27.1850   31.9500 N   0  0  0  0  0  0  0  0  0  0  0  0
   36.4140   28.0990   31.5930 H   0  0  0  0  0  0  0  0  0  0  0  0
   36.9290   26.5860   32.9600 C   0  0  0  0  0  2  0  0  0  0  0  0
   37.5260   25.2550   32.6550 C   0  0  0  0  0  2  0  0  0  0  0  0
  1  7  1  1  0  0  0
  1 22  1  0  0  0  0
  2  9  1  0  0  0  0
  2  1  1  0  0  0  0
  3  2  1  0  0  0  0
  3 10  1  0  0  0  0
  4  3  1  0  0  0  0
  4  5  1  0  0  0  0
  5  6  1  0  0  0  0
  5 14  1  0  0  0  0
  6 16  1  6  0  0  0
  6  1  1  0  0  0  0
  6 36  1  0  0  0  0
  8  2  1  0  0  0  0
 11  3  1  0  0  0  0
 12  4  1  0  0  0  0
 13  4  1  0  0  0  0
 15  5  1  0  0  0  0
 17 18  1  0  0  0  0
 17 29  1  0  0  0  0
 18 23  1  0  0  0  0
 19 24  1  0  0  0  0
 19 18  2  0  0  0  0
 20 19  1  0  0  0  0
 21 20  2  0  0  0  0
 21 22  1  0  0  0  0
 22 17  2  0  0  0  0
 25 20  1  0  0  0  0
 26 21  1  0  0  0  0
 27 32  1  0  0  0  0
 28 29  1  0  0  0  0
 28 27  2  0  0  0  0
 29 30  2  0  0  0  0
 30 31  1  0  0  0  0
 31 35  1  0  0  0  0
 32 31  2  0  0  0  0
 33 27  1  0  0  0  0
 34 28  1  0  0  0  0
 36 44  1  6  0  0  0
 37 36  1  0  0  0  0
 38 37  1  0  0  0  0
 39 37  1  0  0  0  0
 39 41  1  0  0  0  0
 40 39  1  0  0  0  0
 41 43  1  0  0  0  0
 42 41  1  0  0  0  0
 44 43  1  0  0  0  0
M  END
>  <minimizedAffinity>
-5.25578594

$$$$

 OpenBabel03272503543D

 44 47  0  0  1  0  0  0  0  0999 V2000
   38.0840   26.9370   33.3500 C   0  0  1  0  0  0  0  0  0  0  0  0
   37.8460   27.5090   34.7660 C   0  0  0  0  0  0  0  0  0  0  0  0
   38.7730   26.6740   35.6610 C   0  0  0  0  0  0  0  0  0  0  0  0
   38.1970   25.3050   35.7370 C   0  0  0  0  0  0  0  0  0  0  0  0
   38.0860   24.6950   34.3590 C   0  0  0  0  0  0  0  0  0  0  0  0
   37.3990   25.6020   33.3790 C   0  0  2  0  0  0  0  0  0  0  0  0
   39.1810   26.9320   33.2970 H   0  0  0  0  0  0  0  0  0  0  0  0
   36.8130   27.2380   35.0620 H   0  0  0  0  0  0  0  0  0  0  0  0
   38.0620   28.5750   34.7920 H   0  0  0  0  0  0  0  0  0  0  0  0
   39.7560   26.6430   35.1280 H   0  0  0  0  0  0  0  0  0  0  0  0
   38.8130   27.1810   36.6230 H   0  0  0  0  0  0  0  0  0  0  0  0
   38.7720   24.6010   36.3510 H   0  0  0  0  0  0  0  0  0  0  0  0
   37.1550   25.4190   36.1390 H   0  0  0  0  0  0  0  0  0  0  0  0
   39.0660   24.3280   34.0650 H   0  0  0  0  0  0  0  0  0  0  0  0
   37.4250   23.7950   34.4990 H   0  0  0  0  0  0  0  0  0  0  0  0
   36.3650   25.7550   33.7580 H   0  0  0  0  0  0  0  0  0  0  0  0
   38.1490   28.0200   31.0870 C   0  0  0  0  0  0  0  0  0  0  0  0
   37.5640   28.8480   30.1340 C   0  0  0  0  0  0  0  0  0  0  0  0
   36.3570   29.5060   30.4230 C   0  0  0  0  0  0  0  0  0  0  0  0
   35.7950   29.2970   31.6600 C   0  0  0  0  0  0  0  0  0  0  0  0
   36.3610   28.4850   32.6080 C   0  0  0  0  0  0  0  0  0  0  0  0
   37.5740   27.8270   32.3080 C   0  0  0  0  0  0  0  0  0  0  0  0
   38.0130   29.0080   29.1590 H   0  0  0  0  0  0  0  0  0  0  0  0
   35.9120   30.1430   29.6810 H   0  0  0  0  0  0  0  0  0  0  0  0
   34.8560   29.8330   31.8340 H   0  0  0  0  0  0  0  0  0  0  0  0
   35.8120   28.4150   33.5300 H   0  0  0  0  0  0  0  0  0  0  0  0
   41.7400   26.8680   30.9270 C   0  0  0  0  0  0  0  0  0  0  0  0
   40.5870   27.5090   31.4160 C   0  0  0  0  0  0  0  0  0  0  0  0
   39.4020   27.4140   30.6880 C   0  0  0  0  0  0  0  0  0  0  0  0
   39.4550   26.6980   29.5480 N   0  0  0  0  0  0  0  0  0  0  0  0
   40.5600   26.0870   29.0860 C   0  0  0  0  0  0  0  0  0  0  0  0
   41.6890   26.1740   29.7720 N   0  0  0  0  0  0  0  0  0  0  0  0
   42.5900   27.0300   31.6030 H   0  0  0  0  0  0  0  0  0  0  0  0
   40.5380   28.0840   32.3280 H   0  0  0  0  0  0  0  0  0  0  0  0
   40.5510   25.5310   28.1750 H   0  0  0  0  0  0  0  0  0  0  0  0
   37.3280   25.0170   32.1000 N   0  0  2  0  0  0  0  0  0  0  0  0
   36.0210   24.8340   31.5580 C   0  0  0  0  0  3  0  0  0  0  0  0
   35.3070   25.4820   32.0940 H   0  0  0  0  0  0  0  0  0  0  0  0
   35.5240   23.4420   31.5450 C   0  0  0  0  0  3  0  0  0  0  0  0
   34.9540   23.2290   32.4730 H   0  0  0  0  0  0  0  0  0  0  0  0
   36.4900   22.4630   31.2350 N   0  0  0  0  0  0  0  0  0  0  0  0
   36.3270   21.5280   31.6020 H   0  0  0  0  0  0  0  0  0  0  0  0
   37.8160   22.8760   30.9800 C   0  0  0  0  0  2  0  0  0  0  0  0
   38.3000   24.0870   31.7010 C   0  0  0  0  0  2  0  0  0  0  0  0
  1  7  1  6  0  0  0
  1  6  1  0  0  0  0
  1  2  1  0  0  0  0
  2  9  1  0  0  0  0
  2  8  1  0  0  0  0
  2  3  1  0  0  0  0
  3  4  1  0  0  0  0
  3 11  1  0  0  0  0
  4 13  1  0  0  0  0
  4 12  1  0  0  0  0
  5 15  1  0  0  0  0
  5  4  1  0  0  0  0
  6 16  1  1  0  0  0
  6  5  1  0  0  0  0
 10  3  1  0  0  0  0
 14  5  1  0  0  0  0
 17 22  1  0  0  0  0
 18 19  1  0  0  0  0
 18 17  2  0  0  0  0
 19 20  2  0  0  0  0
 20 25  1  0  0  0  0
 20 21  1  0  0  0  0
 21 26  1  0  0  0  0
 22 21  2  0  0  0  0
 22  1  1  0  0  0  0
 23 18  1  0  0  0  0
 24 19  1  0  0  0  0
 27 28  1  0  0  0  0
 27 33  1  0  0  0  0
 28 34  1  0  0  0  0
 29 17  1  0  0  0  0
 29 28  2  0  0  0  0
 30 29  1  0  0  0  0
 31 30  2  0  0  0  0
 31 32  1  0  0  0  0
 32 27  2  0  0  0  0
 35 31  1  0  0  0  0
 36 44  1  1  0  0  0
 36  6  1  0  0  0  0
 37 38  1  0  0  0  0
 37 36  1  0  0  0  0
 39 37  1  0  0  0  0
 39 40  1  0  0  0  0
 41 39  1  0  0  0  0
 41 42  1  0  0  0  0
 43 41  1  0  0  0  0
 43 44  1  0  0  0  0
M  END
>  <minimizedAffinity>
-5.24944305

$$$$

 OpenBabel03272503543D

 44 47  0  0  1  0  0  0  0  0999 V2000
   38.6050   24.8240   34.2880 C   0  0  1  0  0  0  0  0  0  0  0  0
   39.3720   25.4390   35.4800 C   0  0  0  0  0  0  0  0  0  0  0  0
   38.2810   26.1530   36.2900 C   0  0  0  0  0  0  0  0  0  0  0  0
   37.8500   27.3390   35.5030 C   0  0  0  0  0  0  0  0  0  0  0  0
   37.3270   26.9200   34.1480 C   0  0  0  0  0  0  0  0  0  0  0  0
   38.2710   26.0030   33.4220 C   0  0  2  0  0  0  0  0  0  0  0  0
   37.7680   24.3290   34.7980 H   0  0  0  0  0  0  0  0  0  0  0  0
   40.0220   26.2400   35.0750 H   0  0  0  0  0  0  0  0  0  0  0  0
   39.8950   24.6680   36.0410 H   0  0  0  0  0  0  0  0  0  0  0  0
   37.4370   25.4220   36.3670 H   0  0  0  0  0  0  0  0  0  0  0  0
   38.7250   26.4100   37.2500 H   0  0  0  0  0  0  0  0  0  0  0  0
   37.0640   27.9410   35.9740 H   0  0  0  0  0  0  0  0  0  0  0  0
   38.7710   27.9590   35.3300 H   0  0  0  0  0  0  0  0  0  0  0  0
   36.3100   26.5590   34.2690 H   0  0  0  0  0  0  0  0  0  0  0  0
   37.2720   27.8750   33.5570 H   0  0  0  0  0  0  0  0  0  0  0  0
   39.2070   26.5800   33.2530 H   0  0  0  0  0  0  0  0  0  0  0  0
   39.0460   22.4930   33.4670 C   0  0  0  0  0  0  0  0  0  0  0  0
   39.8340   21.6020   32.7470 C   0  0  0  0  0  0  0  0  0  0  0  0
   41.0170   22.0490   32.1360 C   0  0  0  0  0  0  0  0  0  0  0  0
   41.3500   23.3750   32.2810 C   0  0  0  0  0  0  0  0  0  0  0  0
   40.5830   24.2630   32.9890 C   0  0  0  0  0  0  0  0  0  0  0  0
   39.3940   23.8050   33.5980 C   0  0  0  0  0  0  0  0  0  0  0  0
   39.5650   20.5570   32.6360 H   0  0  0  0  0  0  0  0  0  0  0  0
   41.6200   21.3540   31.5810 H   0  0  0  0  0  0  0  0  0  0  0  0
   42.2810   23.6720   31.7860 H   0  0  0  0  0  0  0  0  0  0  0  0
   40.9650   25.2680   33.0190 H   0  0  0  0  0  0  0  0  0  0  0  0
   36.4160   21.3170   35.9080 C   0  0  0  0  0  0  0  0  0  0  0  0
   37.6080   21.9020   35.4420 C   0  0  0  0  0  0  0  0  0  0  0  0
   37.8620   21.9160   34.0710 C   0  0  0  0  0  0  0  0  0  0  0  0
   36.9250   21.3570   33.2820 N   0  0  0  0  0  0  0  0  0  0  0  0
   35.7870   20.8000   33.7330 C   0  0  0  0  0  0  0  0  0  0  0  0
   35.5390   20.7830   35.0330 N   0  0  0  0  0  0  0  0  0  0  0  0
   36.3550   21.3800   37.0020 H   0  0  0  0  0  0  0  0  0  0  0  0
   38.3630   22.3520   36.0690 H   0  0  0  0  0  0  0  0  0  0  0  0
   35.0740   20.3680   33.0660 H   0  0  0  0  0  0  0  0  0  0  0  0
   37.7500   25.6130   32.1750 N   0  0  2  0  0  0  0  0  0  0  0  0
   38.2250   26.3310   31.0360 C   0  0  0  0  0  3  0  0  0  0  0  0
   39.1640   26.8490   31.2940 H   0  0  0  0  0  0  0  0  0  0  0  0
   37.2690   27.2890   30.4420 C   0  0  0  0  0  3  0  0  0  0  0  0
   37.4070   28.2960   30.8880 H   0  0  0  0  0  0  0  0  0  0  0  0
   35.9270   26.8590   30.4160 N   0  0  0  0  0  0  0  0  0  0  0  0
   35.2150   27.5860   30.4140 H   0  0  0  0  0  0  0  0  0  0  0  0
   35.6100   25.5920   30.9520 C   0  0  0  0  0  2  0  0  0  0  0  0
   36.4430   25.1090   32.0890 C   0  0  0  0  0  2  0  0  0  0  0  0
  1  7  1  1  0  0  0
  1  2  1  0  0  0  0
  2  9  1  0  0  0  0
  2  3  1  0  0  0  0
  3 10  1  0  0  0  0
  3 11  1  0  0  0  0
  4 12  1  0  0  0  0
  4  3  1  0  0  0  0
  5 14  1  0  0  0  0
  5  4  1  0  0  0  0
  6 16  1  6  0  0  0
  6  5  1  0  0  0  0
  6  1  1  0  0  0  0
  8  2  1  0  0  0  0
 13  4  1  0  0  0  0
 15  5  1  0  0  0  0
 17 22  1  0  0  0  0
 17 29  1  0  0  0  0
 18 17  2  0  0  0  0
 19 20  2  0  0  0  0
 19 18  1  0  0  0  0
 20 21  1  0  0  0  0
 21 26  1  0  0  0  0
 21 22  2  0  0  0  0
 22  1  1  0  0  0  0
 23 18  1  0  0  0  0
 24 19  1  0  0  0  0
 25 20  1  0  0  0  0
 27 33  1  0  0  0  0
 28 27  1  0  0  0  0
 28 34  1  0  0  0  0
 29 28  2  0  0  0  0
 30 31  2  0  0  0  0
 30 29  1  0  0  0  0
 31 32  1  0  0  0  0
 32 27  2  0  0  0  0
 35 31  1  0  0  0  0
 36 44  1  1  0  0  0
 36  6  1  0  0  0  0
 37 38  1  0  0  0  0
 37 36  1  0  0  0  0
 39 40  1  0  0  0  0
 39 37  1  0  0  0  0
 41 39  1  0  0  0  0
 41 43  1  0  0  0  0
 42 41  1  0  0  0  0
 43 44  1  0  0  0  0
M  END
>  <minimizedAffinity>
-5.22958231

$$$$
