
 OpenBabel03272501503D

 30 32  0  0  0  0  0  0  0  0999 V2000
   38.3950   32.2920   48.4700 C   0  0  0  0  0  0  0  0  0  0  0  0
   38.6580   33.1240   49.5220 C   0  0  0  0  0  0  0  0  0  0  0  0
   39.5260   34.2160   49.3860 C   0  0  0  0  0  0  0  0  0  0  0  0
   40.1270   34.4430   48.1310 C   0  0  0  0  0  0  0  0  0  0  0  0
   39.8700   33.5990   47.0310 C   0  0  0  0  0  0  0  0  0  0  0  0
   39.0090   32.5680   47.2860 C   0  0  0  0  0  0  0  0  0  0  0  0
   38.2350   33.0010   50.4900 H   0  0  0  0  0  0  0  0  0  0  0  0
   39.7600   34.8960   50.1950 H   0  0  0  0  0  0  0  0  0  0  0  0
   40.7970   35.3000   48.0570 H   0  0  0  0  0  0  0  0  0  0  0  0
   40.3460   33.8090   46.1050 H   0  0  0  0  0  0  0  0  0  0  0  0
   36.7890   29.0830   49.6130 C   0  0  0  0  0  0  0  0  0  0  0  0
   37.7880   30.0770   49.4870 C   0  0  0  0  0  0  0  0  0  0  0  0
   37.4870   31.1920   48.6980 C   0  0  0  0  0  0  0  0  0  0  0  0
   36.2570   31.2660   48.0930 N   0  0  0  0  0  0  0  0  0  0  0  0
   35.3350   30.2790   48.2500 C   0  0  0  0  0  0  0  0  0  0  0  0
   35.6050   29.1890   49.0110 N   0  0  0  0  0  0  0  0  0  0  0  0
   34.1180   30.4850   47.5770 N   0  0  0  0  0  0  0  0  0  0  0  0
   37.0460   28.2290   50.2290 H   0  0  0  0  0  0  0  0  0  0  0  0
   38.7600   30.0320   49.9580 H   0  0  0  0  0  0  0  0  0  0  0  0
   33.8940   30.6270   46.5660 H   0  0  0  0  0  0  0  0  0  0  0  0
   33.2840   30.4980   48.2100 H   0  0  0  0  0  0  0  0  0  0  0  0
   38.7580   31.7210   46.1650 N   0  0  0  0  0  0  0  0  0  0  0  0
   39.2940   30.4110   45.7830 C   0  0  0  0  0  3  0  0  0  0  0  0
   39.7920   29.9200   46.6210 H   0  0  0  0  0  0  0  0  0  0  0  0
   40.2840   30.7240   44.6520 C   0  0  0  0  0  3  0  0  0  0  0  0
   40.3340   29.8090   44.0290 H   0  0  0  0  0  0  0  0  0  0  0  0
   39.8610   31.8900   43.9160 N   0  0  0  0  0  0  0  0  0  0  0  0
   40.2260   31.8400   42.9320 H   0  0  0  0  0  0  0  0  0  0  0  0
   38.4090   31.9850   43.8270 C   0  0  0  0  0  2  0  0  0  0  0  0
   37.7840   32.2040   45.1740 C   0  0  0  0  0  2  0  0  0  0  0  0
  1 13  1  0  0  0  0
  1  2  1  0  0  0  0
  2  7  1  0  0  0  0
  3  2  2  0  0  0  0
  3  8  1  0  0  0  0
  4  3  1  0  0  0  0
  5  6  1  0  0  0  0
  5  4  2  0  0  0  0
  6  1  2  0  0  0  0
  9  4  1  0  0  0  0
 10  5  1  0  0  0  0
 11 18  1  0  0  0  0
 12 11  1  0  0  0  0
 12 19  1  0  0  0  0
 13 12  2  0  0  0  0
 14 15  2  0  0  0  0
 14 13  1  0  0  0  0
 15 16  1  0  0  0  0
 16 11  2  0  0  0  0
 17 21  1  0  0  0  0
 17 15  1  0  0  0  0
 20 17  1  0  0  0  0
 22  6  1  0  0  0  0
 23 22  1  0  0  0  0
 23 24  1  0  0  0  0
 25 23  1  0  0  0  0
 26 25  1  0  0  0  0
 27 25  1  0  0  0  0
 28 27  1  0  0  0  0
 29 27  1  0  0  0  0
 29 30  1  0  0  0  0
 30 22  1  0  0  0  0
M  END
>  <minimizedAffinity>
-5.92548466

>  <minimizedRMSD>
3.06177616

$$$$
