
 OpenBabel03272503533D

 44 47  0  0  1  0  0  0  0  0999 V2000
   36.3380   30.1590   45.9990 C   0  0  1  0  0  0  0  0  0  0  0  0
   34.9690   30.2290   45.2850 C   0  0  0  0  0  0  0  0  0  0  0  0
   35.2060   29.4850   43.9630 C   0  0  0  0  0  0  0  0  0  0  0  0
   36.0810   30.3450   43.1230 C   0  0  0  0  0  0  0  0  0  0  0  0
   37.3900   30.6240   43.8260 C   0  0  0  0  0  0  0  0  0  0  0  0
   37.1970   31.1200   45.2310 C   0  0  2  0  0  0  0  0  0  0  0  0
   36.5800   29.0920   45.9070 H   0  0  0  0  0  0  0  0  0  0  0  0
   34.7940   31.2880   45.0100 H   0  0  0  0  0  0  0  0  0  0  0  0
   34.1900   29.7830   45.9000 H   0  0  0  0  0  0  0  0  0  0  0  0
   35.7480   28.5470   44.2390 H   0  0  0  0  0  0  0  0  0  0  0  0
   34.2250   29.3090   43.5260 H   0  0  0  0  0  0  0  0  0  0  0  0
   36.3310   29.9240   42.1420 H   0  0  0  0  0  0  0  0  0  0  0  0
   35.5470   31.3260   43.0060 H   0  0  0  0  0  0  0  0  0  0  0  0
   38.0340   29.7560   43.7100 H   0  0  0  0  0  0  0  0  0  0  0  0
   37.8550   31.4630   43.2390 H   0  0  0  0  0  0  0  0  0  0  0  0
   36.6490   32.0850   45.1540 H   0  0  0  0  0  0  0  0  0  0  0  0
   35.3460   29.9270   48.2930 C   0  0  0  0  0  0  0  0  0  0  0  0
   35.3490   30.2630   49.6430 C   0  0  0  0  0  0  0  0  0  0  0  0
   36.2760   31.1980   50.1300 C   0  0  0  0  0  0  0  0  0  0  0  0
   37.1580   31.7520   49.2330 C   0  0  0  0  0  0  0  0  0  0  0  0
   37.1650   31.4310   47.9010 C   0  0  0  0  0  0  0  0  0  0  0  0
   36.2300   30.4880   47.4200 C   0  0  0  0  0  0  0  0  0  0  0  0
   34.6500   29.8210   50.3460 H   0  0  0  0  0  0  0  0  0  0  0  0
   36.2720   31.4510   51.1750 H   0  0  0  0  0  0  0  0  0  0  0  0
   37.8590   32.4750   49.6630 H   0  0  0  0  0  0  0  0  0  0  0  0
   37.9090   31.9410   47.3160 H   0  0  0  0  0  0  0  0  0  0  0  0
   33.4110   26.7600   47.6030 C   0  0  0  0  0  0  0  0  0  0  0  0
   34.4720   27.5870   48.0130 C   0  0  0  0  0  0  0  0  0  0  0  0
   34.3320   28.9700   47.9000 C   0  0  0  0  0  0  0  0  0  0  0  0
   33.1650   29.4150   47.3960 N   0  0  0  0  0  0  0  0  0  0  0  0
   32.1540   28.6190   47.0060 C   0  0  0  0  0  0  0  0  0  0  0  0
   32.2800   27.3060   47.1100 N   0  0  0  0  0  0  0  0  0  0  0  0
   33.6640   25.7020   47.7510 H   0  0  0  0  0  0  0  0  0  0  0  0
   35.4090   27.2370   48.4180 H   0  0  0  0  0  0  0  0  0  0  0  0
   31.2470   29.0210   46.6120 H   0  0  0  0  0  0  0  0  0  0  0  0
   38.4310   31.3510   45.8670 N   0  0  2  0  0  0  0  0  0  0  0  0
   38.8160   32.7160   46.0270 C   0  0  0  0  0  3  0  0  0  0  0  0
   37.9300   33.3640   45.9180 H   0  0  0  0  0  0  0  0  0  0  0  0
   39.8940   33.1840   45.1300 C   0  0  0  0  0  3  0  0  0  0  0  0
   39.4610   33.6190   44.2050 H   0  0  0  0  0  0  0  0  0  0  0  0
   40.9220   32.2500   44.8880 N   0  0  0  0  0  0  0  0  0  0  0  0
   41.4290   32.3460   44.0120 H   0  0  0  0  0  0  0  0  0  0  0  0
   40.8400   30.9780   45.4970 C   0  0  0  0  0  2  0  0  0  0  0  0
   39.4750   30.4250   45.7270 C   0  0  0  0  0  2  0  0  0  0  0  0
  1  7  1  6  0  0  0
  1 22  1  0  0  0  0
  2  9  1  0  0  0  0
  2  1  1  0  0  0  0
  3 10  1  0  0  0  0
  3  2  1  0  0  0  0
  4  5  1  0  0  0  0
  4  3  1  0  0  0  0
  5  6  1  0  0  0  0
  6 16  1  6  0  0  0
  6 36  1  0  0  0  0
  6  1  1  0  0  0  0
  8  2  1  0  0  0  0
 11  3  1  0  0  0  0
 12  4  1  0  0  0  0
 13  4  1  0  0  0  0
 14  5  1  0  0  0  0
 15  5  1  0  0  0  0
 17 18  1  0  0  0  0
 18 19  2  0  0  0  0
 18 23  1  0  0  0  0
 19 24  1  0  0  0  0
 20 25  1  0  0  0  0
 20 19  1  0  0  0  0
 21 20  2  0  0  0  0
 22 21  1  0  0  0  0
 22 17  2  0  0  0  0
 26 21  1  0  0  0  0
 27 33  1  0  0  0  0
 27 28  1  0  0  0  0
 28 34  1  0  0  0  0
 29 28  2  0  0  0  0
 29 17  1  0  0  0  0
 30 29  1  0  0  0  0
 31 32  1  0  0  0  0
 31 30  2  0  0  0  0
 32 27  2  0  0  0  0
 35 31  1  0  0  0  0
 36 44  1  6  0  0  0
 36 37  1  0  0  0  0
 38 37  1  0  0  0  0
 39 37  1  0  0  0  0
 40 39  1  0  0  0  0
 41 39  1  0  0  0  0
 41 43  1  0  0  0  0
 42 41  1  0  0  0  0
 43 44  1  0  0  0  0
M  END
>  <minimizedAffinity>
-5.59136772

>  <minimizedRMSD>
3.58732557

$$$$
