
 OpenBabel03262520493D

 48 52  0  0  1  0  0  0  0  0999 V2000
   40.4700   30.9930   43.7520 C   0  0  0  0  0  0  0  0  0  0  0  0
   41.5060   31.2500   44.0050 H   0  0  0  0  0  0  0  0  0  0  0  0
   39.9690   31.8360   43.2070 H   0  0  0  0  0  0  0  0  0  0  0  0
   39.4760   28.8170   43.1080 C   0  0  0  0  0  0  0  0  0  0  0  0
   40.3790   29.8250   42.8220 C   0  0  0  0  0  0  0  0  0  0  0  0
   41.1640   29.7110   41.6800 C   0  0  0  0  0  0  0  0  0  0  0  0
   41.0550   28.6190   40.8380 C   0  0  0  0  0  0  0  0  0  0  0  0
   41.7010   28.3130   39.7000 N   0  0  0  0  0  0  0  0  0  0  0  0
   41.2010   27.1300   39.2920 C   0  0  0  0  0  0  0  0  0  0  0  0
   40.2360   26.6540   40.1440 C   0  0  0  0  0  0  0  0  0  0  0  0
   40.1520   27.6260   41.1390 C   0  0  0  0  0  0  0  0  0  0  0  0
   39.3780   27.7370   42.2650 C   0  0  0  0  0  0  0  0  0  0  0  0
   38.7990   28.7630   43.9450 H   0  0  0  0  0  0  0  0  0  0  0  0
   41.8650   30.4960   41.4590 H   0  0  0  0  0  0  0  0  0  0  0  0
   42.4380   28.9020   39.2530 H   0  0  0  0  0  0  0  0  0  0  0  0
   41.5660   26.6640   38.3830 H   0  0  0  0  0  0  0  0  0  0  0  0
   39.6890   25.7420   40.0450 H   0  0  0  0  0  0  0  0  0  0  0  0
   38.4570   26.6520   42.5070 N   0  0  0  0  0  0  0  0  0  0  0  0
   37.1340   26.4560   41.9790 C   0  0  0  0  0  3  0  0  0  0  0  0
   36.6500   27.3870   41.6190 H   0  0  0  0  0  0  0  0  0  0  0  0
   36.2880   25.9010   43.0920 C   0  0  0  0  0  3  0  0  0  0  0  0
   35.2710   25.7390   42.6660 H   0  0  0  0  0  0  0  0  0  0  0  0
   36.7740   24.6600   43.6120 N   0  0  0  0  0  0  0  0  0  0  0  0
   36.3320   23.8230   43.1500 H   0  0  0  0  0  0  0  0  0  0  0  0
   38.1780   24.5130   43.7250 C   0  0  0  0  0  2  0  0  0  0  0  0
   39.0260   25.6860   43.4100 C   0  0  0  0  0  2  0  0  0  0  0  0
   39.6520   30.6450   44.9910 C   0  0  0  0  0  0  0  0  0  0  0  0
   39.8950   29.5900   45.2580 H   0  0  0  0  0  0  0  0  0  0  0  0
   38.5860   30.6940   44.6660 H   0  0  0  0  0  0  0  0  0  0  0  0
   38.7840   32.3000   46.6890 C   0  0  1  0  0  0  0  0  0  0  0  0
   39.9970   32.9800   46.0930 C   0  0  0  0  0  0  0  0  0  0  0  0
   39.9120   31.5080   46.1680 C   0  0  2  0  0  0  0  0  0  0  0  0
   37.8380   32.4370   46.1070 H   0  0  0  0  0  0  0  0  0  0  0  0
   39.8960   33.4370   45.0760 H   0  0  0  0  0  0  0  0  0  0  0  0
   40.7010   33.5390   46.7340 H   0  0  0  0  0  0  0  0  0  0  0  0
   40.5770   31.0480   46.9470 H   0  0  0  0  0  0  0  0  0  0  0  0
   38.5750   32.5290   48.1570 C   0  0  0  0  0  0  0  0  0  0  0  0
   39.5300   32.7810   48.6790 H   0  0  0  0  0  0  0  0  0  0  0  0
   37.9060   33.4250   48.3110 H   0  0  0  0  0  0  0  0  0  0  0  0
   37.5650   30.0010   50.7240 C   0  0  0  0  0  0  0  0  0  0  0  0
   38.2180   31.0980   50.0820 C   0  0  0  0  0  0  0  0  0  0  0  0
   37.8850   31.3940   48.7930 C   0  0  0  0  0  0  0  0  0  0  0  0
   36.9560   30.6350   48.1930 N   0  0  0  0  0  0  0  0  0  0  0  0
   36.3420   29.6080   48.7920 C   0  0  0  0  0  0  0  0  0  0  0  0
   36.6580   29.3060   50.0520 N   0  0  0  0  0  0  0  0  0  0  0  0
   37.8240   29.7570   51.7540 H   0  0  0  0  0  0  0  0  0  0  0  0
   38.9310   31.6030   50.6870 H   0  0  0  0  0  0  0  0  0  0  0  0
   35.6300   29.1260   48.1410 H   0  0  0  0  0  0  0  0  0  0  0  0
  1  2  1  0  0  0  0
  1 27  1  0  0  0  0
  3  1  1  0  0  0  0
  4 13  1  0  0  0  0
  5  4  1  0  0  0  0
  5  1  1  0  0  0  0
  6  5  2  0  0  0  0
  7 11  2  0  0  0  0
  7  6  1  0  0  0  0
  8  7  1  0  0  0  0
  9  8  1  0  0  0  0
  9 10  2  0  0  0  0
 10 11  1  0  0  0  0
 11 12  1  0  0  0  0
 12 18  1  0  0  0  0
 12  4  2  0  0  0  0
 14  6  1  0  0  0  0
 15  8  1  0  0  0  0
 16  9  1  0  0  0  0
 17 10  1  0  0  0  0
 18 26  1  0  0  0  0
 19 18  1  0  0  0  0
 19 21  1  0  0  0  0
 20 19  1  0  0  0  0
 21 23  1  0  0  0  0
 22 21  1  0  0  0  0
 23 25  1  0  0  0  0
 24 23  1  0  0  0  0
 26 25  1  0  0  0  0
 27 28  1  0  0  0  0
 27 32  1  0  0  0  0
 29 27  1  0  0  0  0
 30 33  1  6  0  0  0
 30 37  1  0  0  0  0
 31 32  1  0  0  0  0
 31 30  1  0  0  0  0
 31 35  1  0  0  0  0
 32 30  1  0  0  0  0
 32 36  1  1  0  0  0
 34 31  1  0  0  0  0
 37 39  1  0  0  0  0
 37 38  1  0  0  0  0
 37 42  1  0  0  0  0
 40 46  1  0  0  0  0
 41 47  1  0  0  0  0
 41 40  1  0  0  0  0
 42 41  2  0  0  0  0
 43 44  2  0  0  0  0
 43 42  1  0  0  0  0
 44 45  1  0  0  0  0
 45 40  2  0  0  0  0
 48 44  1  0  0  0  0
M  END
>  <minimizedAffinity>
-5.95841932

>  <minimizedRMSD>
0.594785929

$$$$
