
 OpenBabel03272503063D

 26 28  0  0  0  0  0  0  0  0999 V2000
   35.9460   28.1190   34.6370 F   0  0  0  0  0  0  0  0  0  0  0  0
   36.0940   28.8670   33.5210 C   0  0  0  0  0  0  0  0  0  0  0  0
   35.6380   30.1580   33.5030 C   0  0  0  0  0  0  0  0  0  0  0  0
   35.8170   30.8700   32.3430 C   0  0  0  0  0  0  0  0  0  0  0  0
   36.4230   30.3360   31.2340 C   0  0  0  0  0  0  0  0  0  0  0  0
   36.8730   29.0360   31.2780 C   0  0  0  0  0  0  0  0  0  0  0  0
   36.7080   28.2920   32.4320 C   0  0  0  0  0  0  0  0  0  0  0  0
   35.4490   31.8990   32.3390 H   0  0  0  0  0  0  0  0  0  0  0  0
   36.5160   30.9750   30.3750 H   0  0  0  0  0  0  0  0  0  0  0  0
   37.3550   28.6210   30.3930 H   0  0  0  0  0  0  0  0  0  0  0  0
   35.0080   31.9360   36.7950 C   0  0  0  0  0  0  0  0  0  0  0  0
   35.6670   31.4590   35.6470 C   0  0  0  0  0  0  0  0  0  0  0  0
   34.9960   30.6800   34.7150 C   0  0  0  0  0  0  0  0  0  0  0  0
   33.6760   30.4070   34.9740 N   0  0  0  0  0  0  0  0  0  0  0  0
   33.0660   30.8770   36.0820 C   0  0  0  0  0  0  0  0  0  0  0  0
   33.7200   31.6250   36.9740 N   0  0  0  0  0  0  0  0  0  0  0  0
   35.5370   32.5440   37.5190 H   0  0  0  0  0  0  0  0  0  0  0  0
   36.7100   31.6940   35.4780 H   0  0  0  0  0  0  0  0  0  0  0  0
   32.0330   30.5490   36.0950 H   0  0  0  0  0  0  0  0  0  0  0  0
   36.2820   25.9850   31.9230 C   0  0  0  0  0  0  0  0  0  0  0  0
   35.2360   26.4840   31.4090 O   0  0  0  0  0  0  0  0  0  0  0  0
   37.1660   26.9410   32.5060 N   0  0  0  0  0  0  0  0  0  0  0  0
   38.0590   26.6370   32.9370 H   0  0  0  0  0  0  0  0  0  0  0  0
   36.6310   24.5400   31.9590 C   0  0  0  0  0  3  0  0  0  0  0  0
   35.8120   23.5700   31.1980 C   0  0  0  0  0  2  0  0  0  0  0  0
   37.1980   23.8700   30.7480 C   0  0  0  0  0  2  0  0  0  0  0  0
  2  1  1  0  0  0  0
  3  2  1  0  0  0  0
  3 13  1  0  0  0  0
  4  3  2  0  0  0  0
  5  6  2  0  0  0  0
  5  4  1  0  0  0  0
  6  7  1  0  0  0  0
  7 22  1  0  0  0  0
  7  2  2  0  0  0  0
  8  4  1  0  0  0  0
  9  5  1  0  0  0  0
 10  6  1  0  0  0  0
 11 16  1  0  0  0  0
 11 17  1  0  0  0  0
 12 11  2  0  0  0  0
 13 14  2  0  0  0  0
 13 12  1  0  0  0  0
 14 15  1  0  0  0  0
 15 19  1  0  0  0  0
 15 16  2  0  0  0  0
 18 12  1  0  0  0  0
 20 24  1  0  0  0  0
 20 22  1  0  0  0  0
 21 20  2  0  0  0  0
 22 23  1  0  0  0  0
 25 24  1  0  0  0  0
 26 25  1  0  0  0  0
 26 24  1  0  0  0  0
M  END
>  <minimizedAffinity>
-4.96214628

$$$$

 OpenBabel03272503063D

 26 28  0  0  0  0  0  0  0  0999 V2000
   40.3360   23.9020   34.6900 F   0  0  0  0  0  0  0  0  0  0  0  0
   39.6890   23.8210   35.8740 C   0  0  0  0  0  0  0  0  0  0  0  0
   40.2450   23.1130   36.9050 C   0  0  0  0  0  0  0  0  0  0  0  0
   39.5430   23.0650   38.0830 C   0  0  0  0  0  0  0  0  0  0  0  0
   38.3330   23.6910   38.2490 C   0  0  0  0  0  0  0  0  0  0  0  0
   37.7950   24.3970   37.1970 C   0  0  0  0  0  0  0  0  0  0  0  0
   38.4780   24.4640   35.9960 C   0  0  0  0  0  0  0  0  0  0  0  0
   39.9950   22.4970   38.9000 H   0  0  0  0  0  0  0  0  0  0  0  0
   37.8620   23.5940   39.2110 H   0  0  0  0  0  0  0  0  0  0  0  0
   36.8340   24.8920   37.3380 H   0  0  0  0  0  0  0  0  0  0  0  0
   43.9240   22.5010   36.2110 C   0  0  0  0  0  0  0  0  0  0  0  0
   42.7060   23.1710   36.4260 C   0  0  0  0  0  0  0  0  0  0  0  0
   41.5400   22.4610   36.6750 C   0  0  0  0  0  0  0  0  0  0  0  0
   41.6420   21.0920   36.7010 N   0  0  0  0  0  0  0  0  0  0  0  0
   42.8230   20.4730   36.4920 C   0  0  0  0  0  0  0  0  0  0  0  0
   43.9400   21.1640   36.2520 N   0  0  0  0  0  0  0  0  0  0  0  0
   44.8310   23.0600   36.0170 H   0  0  0  0  0  0  0  0  0  0  0  0
   42.6640   24.2510   36.3970 H   0  0  0  0  0  0  0  0  0  0  0  0
   42.6860   19.3990   36.5550 H   0  0  0  0  0  0  0  0  0  0  0  0
   38.3320   26.5610   34.8380 C   0  0  0  0  0  0  0  0  0  0  0  0
   39.1100   26.9210   35.7710 O   0  0  0  0  0  0  0  0  0  0  0  0
   37.9440   25.1890   34.8880 N   0  0  0  0  0  0  0  0  0  0  0  0
   37.3230   24.7910   34.1590 H   0  0  0  0  0  0  0  0  0  0  0  0
   37.8200   27.4330   33.7460 C   0  0  0  0  0  3  0  0  0  0  0  0
   36.6800   26.9770   32.9200 C   0  0  0  0  0  2  0  0  0  0  0  0
   36.4890   28.1010   33.8760 C   0  0  0  0  0  2  0  0  0  0  0  0
  1  2  1  0  0  0  0
  2  7  2  0  0  0  0
  2  3  1  0  0  0  0
  3  4  2  0  0  0  0
  4  5  1  0  0  0  0
  4  8  1  0  0  0  0
  5  9  1  0  0  0  0
  6 10  1  0  0  0  0
  6  5  2  0  0  0  0
  7  6  1  0  0  0  0
 11 16  2  0  0  0  0
 11 12  1  0  0  0  0
 12 13  2  0  0  0  0
 13 14  1  0  0  0  0
 13  3  1  0  0  0  0
 15 19  1  0  0  0  0
 15 14  2  0  0  0  0
 16 15  1  0  0  0  0
 17 11  1  0  0  0  0
 18 12  1  0  0  0  0
 20 22  1  0  0  0  0
 20 21  2  0  0  0  0
 22  7  1  0  0  0  0
 23 22  1  0  0  0  0
 24 26  1  0  0  0  0
 24 20  1  0  0  0  0
 25 24  1  0  0  0  0
 25 26  1  0  0  0  0
M  END
>  <minimizedAffinity>
-4.87295437

$$$$

 OpenBabel03272503063D

 26 28  0  0  0  0  0  0  0  0999 V2000
   37.9280   25.7300   33.0360 F   0  0  0  0  0  0  0  0  0  0  0  0
   39.1750   26.1880   33.2910 C   0  0  0  0  0  0  0  0  0  0  0  0
   39.7340   27.1310   32.4720 C   0  0  0  0  0  0  0  0  0  0  0  0
   41.0010   27.5580   32.7800 C   0  0  0  0  0  0  0  0  0  0  0  0
   41.7020   27.0760   33.8570 C   0  0  0  0  0  0  0  0  0  0  0  0
   41.1180   26.1280   34.6660 C   0  0  0  0  0  0  0  0  0  0  0  0
   39.8410   25.6770   34.3820 C   0  0  0  0  0  0  0  0  0  0  0  0
   41.4380   28.3110   32.1200 H   0  0  0  0  0  0  0  0  0  0  0  0
   42.6880   27.4740   34.0140 H   0  0  0  0  0  0  0  0  0  0  0  0
   41.6810   25.7520   35.5200 H   0  0  0  0  0  0  0  0  0  0  0  0
   38.5790   27.9880   28.9610 C   0  0  0  0  0  0  0  0  0  0  0  0
   39.3750   27.5120   30.0190 C   0  0  0  0  0  0  0  0  0  0  0  0
   38.9420   27.6120   31.3330 C   0  0  0  0  0  0  0  0  0  0  0  0
   37.7150   28.1920   31.5380 N   0  0  0  0  0  0  0  0  0  0  0  0
   36.9700   28.6410   30.5060 C   0  0  0  0  0  0  0  0  0  0  0  0
   37.3950   28.5410   29.2440 N   0  0  0  0  0  0  0  0  0  0  0  0
   38.9230   27.9070   27.9370 H   0  0  0  0  0  0  0  0  0  0  0  0
   40.3370   27.0610   29.8190 H   0  0  0  0  0  0  0  0  0  0  0  0
   36.0440   29.0610   30.8810 H   0  0  0  0  0  0  0  0  0  0  0  0
   38.4100   25.2290   36.2560 C   0  0  0  0  0  0  0  0  0  0  0  0
   38.3620   26.4950   36.2870 O   0  0  0  0  0  0  0  0  0  0  0  0
   39.2110   24.6940   35.2040 N   0  0  0  0  0  0  0  0  0  0  0  0
   39.3010   23.6680   35.0810 H   0  0  0  0  0  0  0  0  0  0  0  0
   37.7210   24.3080   37.2000 C   0  0  0  0  0  3  0  0  0  0  0  0
   38.5030   23.2750   37.9160 C   0  0  0  0  0  2  0  0  0  0  0  0
   37.9470   24.4300   38.6730 C   0  0  0  0  0  2  0  0  0  0  0  0
  1  2  1  0  0  0  0
  2  7  1  0  0  0  0
  3  4  1  0  0  0  0
  3  2  2  0  0  0  0
  4  5  2  0  0  0  0
  5  9  1  0  0  0  0
  5  6  1  0  0  0  0
  6 10  1  0  0  0  0
  7  6  2  0  0  0  0
  7 22  1  0  0  0  0
  8  4  1  0  0  0  0
 11 16  2  0  0  0  0
 11 12  1  0  0  0  0
 12 13  2  0  0  0  0
 13 14  1  0  0  0  0
 13  3  1  0  0  0  0
 15 19  1  0  0  0  0
 15 14  2  0  0  0  0
 16 15  1  0  0  0  0
 17 11  1  0  0  0  0
 18 12  1  0  0  0  0
 20 21  2  0  0  0  0
 20 24  1  0  0  0  0
 22 20  1  0  0  0  0
 23 22  1  0  0  0  0
 24 25  1  0  0  0  0
 24 26  1  0  0  0  0
 25 26  1  0  0  0  0
M  END
>  <minimizedAffinity>
-4.67609692

$$$$

 OpenBabel03272503063D

 26 28  0  0  0  0  0  0  0  0999 V2000
   37.9740   23.1420   32.4530 F   0  0  0  0  0  0  0  0  0  0  0  0
   36.9340   23.8030   31.8970 C   0  0  0  0  0  0  0  0  0  0  0  0
   35.8310   23.1080   31.4820 C   0  0  0  0  0  0  0  0  0  0  0  0
   34.8070   23.8310   30.9250 C   0  0  0  0  0  0  0  0  0  0  0  0
   34.8590   25.1940   30.7780 C   0  0  0  0  0  0  0  0  0  0  0  0
   35.9790   25.8710   31.2040 C   0  0  0  0  0  0  0  0  0  0  0  0
   37.0290   25.1700   31.7690 C   0  0  0  0  0  0  0  0  0  0  0  0
   33.9300   23.2660   30.5970 H   0  0  0  0  0  0  0  0  0  0  0  0
   34.0040   25.6690   30.3310 H   0  0  0  0  0  0  0  0  0  0  0  0
   36.0120   26.9530   31.0840 H   0  0  0  0  0  0  0  0  0  0  0  0
   35.3480   19.6320   32.9270 C   0  0  0  0  0  0  0  0  0  0  0  0
   35.3300   21.0340   32.8010 C   0  0  0  0  0  0  0  0  0  0  0  0
   35.8260   21.6510   31.6610 C   0  0  0  0  0  0  0  0  0  0  0  0
   36.3260   20.8290   30.6810 N   0  0  0  0  0  0  0  0  0  0  0  0
   36.3310   19.4870   30.8250 C   0  0  0  0  0  0  0  0  0  0  0  0
   35.8520   18.9030   31.9260 N   0  0  0  0  0  0  0  0  0  0  0  0
   34.9590   19.1560   33.8180 H   0  0  0  0  0  0  0  0  0  0  0  0
   34.9290   21.6480   33.5950 H   0  0  0  0  0  0  0  0  0  0  0  0
   36.7660   19.0290   29.9440 H   0  0  0  0  0  0  0  0  0  0  0  0
   38.1350   26.3200   33.5630 C   0  0  0  0  0  0  0  0  0  0  0  0
   37.0500   26.0470   34.1600 O   0  0  0  0  0  0  0  0  0  0  0  0
   38.2040   25.8460   32.2190 N   0  0  0  0  0  0  0  0  0  0  0  0
   39.0570   26.0020   31.6500 H   0  0  0  0  0  0  0  0  0  0  0  0
   39.2850   27.0650   34.1430 C   0  0  0  0  0  3  0  0  0  0  0  0
   39.4350   27.1500   35.6120 C   0  0  0  0  0  2  0  0  0  0  0  0
   40.3940   26.3300   34.8240 C   0  0  0  0  0  2  0  0  0  0  0  0
  2  1  1  0  0  0  0
  3 13  1  0  0  0  0
  3  2  2  0  0  0  0
  4  3  1  0  0  0  0
  5  4  2  0  0  0  0
  5  6  1  0  0  0  0
  6  7  2  0  0  0  0
  7  2  1  0  0  0  0
  7 22  1  0  0  0  0
  8  4  1  0  0  0  0
  9  5  1  0  0  0  0
 10  6  1  0  0  0  0
 11 17  1  0  0  0  0
 12 11  1  0  0  0  0
 12 18  1  0  0  0  0
 13 12  2  0  0  0  0
 14 15  2  0  0  0  0
 14 13  1  0  0  0  0
 15 16  1  0  0  0  0
 16 11  2  0  0  0  0
 19 15  1  0  0  0  0
 20 24  1  0  0  0  0
 20 21  2  0  0  0  0
 22 20  1  0  0  0  0
 23 22  1  0  0  0  0
 24 26  1  0  0  0  0
 24 25  1  0  0  0  0
 26 25  1  0  0  0  0
M  END
>  <minimizedAffinity>
-4.6257

$$$$

 OpenBabel03272503063D

 26 28  0  0  0  0  0  0  0  0999 V2000
   36.1060   27.7260   34.9400 F   0  0  0  0  0  0  0  0  0  0  0  0
   36.2740   28.2580   33.7080 C   0  0  0  0  0  0  0  0  0  0  0  0
   35.8390   29.5300   33.4530 C   0  0  0  0  0  0  0  0  0  0  0  0
   36.0370   30.0180   32.1860 C   0  0  0  0  0  0  0  0  0  0  0  0
   36.6400   29.2830   31.1960 C   0  0  0  0  0  0  0  0  0  0  0  0
   37.0680   28.0060   31.4780 C   0  0  0  0  0  0  0  0  0  0  0  0
   36.8840   27.4860   32.7460 C   0  0  0  0  0  0  0  0  0  0  0  0
   35.6860   31.0350   31.9920 H   0  0  0  0  0  0  0  0  0  0  0  0
   36.7480   29.7550   30.2370 H   0  0  0  0  0  0  0  0  0  0  0  0
   37.5470   27.4300   30.6870 H   0  0  0  0  0  0  0  0  0  0  0  0
   35.2410   31.8190   36.4200 C   0  0  0  0  0  0  0  0  0  0  0  0
   35.8990   31.1290   35.3850 C   0  0  0  0  0  0  0  0  0  0  0  0
   35.2000   30.2730   34.5460 C   0  0  0  0  0  0  0  0  0  0  0  0
   33.8530   30.1420   34.7790 N   0  0  0  0  0  0  0  0  0  0  0  0
   33.2450   30.8150   35.7780 C   0  0  0  0  0  0  0  0  0  0  0  0
   33.9260   31.6360   36.5810 N   0  0  0  0  0  0  0  0  0  0  0  0
   35.7920   32.4860   37.0720 H   0  0  0  0  0  0  0  0  0  0  0  0
   36.9620   31.2580   35.2330 H   0  0  0  0  0  0  0  0  0  0  0  0
   32.1880   30.5720   35.7890 H   0  0  0  0  0  0  0  0  0  0  0  0
   38.6270   26.0910   33.6280 C   0  0  0  0  0  0  0  0  0  0  0  0
   39.1960   27.2140   33.7790 O   0  0  0  0  0  0  0  0  0  0  0  0
   37.3180   26.1630   33.0670 N   0  0  0  0  0  0  0  0  0  0  0  0
   36.7600   25.3010   32.9200 H   0  0  0  0  0  0  0  0  0  0  0  0
   39.2060   24.7670   33.9800 C   0  0  0  0  0  3  0  0  0  0  0  0
   40.3530   24.6950   34.9120 C   0  0  0  0  0  2  0  0  0  0  0  0
   39.0200   24.2020   35.3520 C   0  0  0  0  0  2  0  0  0  0  0  0
  2  1  1  0  0  0  0
  3  2  1  0  0  0  0
  3 13  1  0  0  0  0
  4  3  2  0  0  0  0
  5  6  2  0  0  0  0
  5  4  1  0  0  0  0
  6  7  1  0  0  0  0
  7 22  1  0  0  0  0
  7  2  2  0  0  0  0
  8  4  1  0  0  0  0
  9  5  1  0  0  0  0
 10  6  1  0  0  0  0
 11 16  1  0  0  0  0
 11 17  1  0  0  0  0
 12 11  2  0  0  0  0
 13 14  2  0  0  0  0
 13 12  1  0  0  0  0
 14 15  1  0  0  0  0
 15 19  1  0  0  0  0
 15 16  2  0  0  0  0
 18 12  1  0  0  0  0
 20 21  2  0  0  0  0
 20 24  1  0  0  0  0
 22 20  1  0  0  0  0
 23 22  1  0  0  0  0
 24 25  1  0  0  0  0
 24 26  1  0  0  0  0
 25 26  1  0  0  0  0
M  END
>  <minimizedAffinity>
-4.57973337

$$$$

 OpenBabel03272503063D

 26 28  0  0  0  0  0  0  0  0999 V2000
   35.8380   28.0510   34.2860 F   0  0  0  0  0  0  0  0  0  0  0  0
   35.9140   28.8270   33.1810 C   0  0  0  0  0  0  0  0  0  0  0  0
   36.1240   28.2480   31.9580 C   0  0  0  0  0  0  0  0  0  0  0  0
   36.1920   29.0850   30.8730 C   0  0  0  0  0  0  0  0  0  0  0  0
   36.0590   30.4470   30.9780 C   0  0  0  0  0  0  0  0  0  0  0  0
   35.8490   31.0030   32.2190 C   0  0  0  0  0  0  0  0  0  0  0  0
   35.7750   30.1870   33.3330 C   0  0  0  0  0  0  0  0  0  0  0  0
   36.3610   28.6130   29.9010 H   0  0  0  0  0  0  0  0  0  0  0  0
   36.1280   31.0150   30.0690 H   0  0  0  0  0  0  0  0  0  0  0  0
   35.7430   32.0860   32.2940 H   0  0  0  0  0  0  0  0  0  0  0  0
   35.5540   24.5810   31.1710 C   0  0  0  0  0  0  0  0  0  0  0  0
   35.3820   25.9770   31.1960 C   0  0  0  0  0  0  0  0  0  0  0  0
   36.2610   26.7880   31.9000 C   0  0  0  0  0  0  0  0  0  0  0  0
   37.2890   26.1610   32.5580 N   0  0  0  0  0  0  0  0  0  0  0  0
   37.4340   24.8190   32.5180 C   0  0  0  0  0  0  0  0  0  0  0  0
   36.5830   24.0470   31.8380 N   0  0  0  0  0  0  0  0  0  0  0  0
   34.8660   23.9530   30.6190 H   0  0  0  0  0  0  0  0  0  0  0  0
   34.5580   26.4360   30.6650 H   0  0  0  0  0  0  0  0  0  0  0  0
   38.3020   24.5300   33.0990 H   0  0  0  0  0  0  0  0  0  0  0  0
   34.1850   30.8500   35.0050 C   0  0  0  0  0  0  0  0  0  0  0  0
   33.3690   30.4220   34.1340 O   0  0  0  0  0  0  0  0  0  0  0  0
   35.5570   30.7380   34.6330 N   0  0  0  0  0  0  0  0  0  0  0  0
   36.3050   31.0440   35.2840 H   0  0  0  0  0  0  0  0  0  0  0  0
   33.8230   31.4340   36.3240 C   0  0  0  0  0  3  0  0  0  0  0  0
   34.7710   32.3420   37.0070 C   0  0  0  0  0  2  0  0  0  0  0  0
   33.5080   32.8910   36.4440 C   0  0  0  0  0  2  0  0  0  0  0  0
  2  7  1  0  0  0  0
  2  1  1  0  0  0  0
  3  2  2  0  0  0  0
  4  5  2  0  0  0  0
  4  3  1  0  0  0  0
  5  6  1  0  0  0  0
  6 10  1  0  0  0  0
  6  7  2  0  0  0  0
  7 22  1  0  0  0  0
  8  4  1  0  0  0  0
  9  5  1  0  0  0  0
 11 12  2  0  0  0  0
 11 16  1  0  0  0  0
 12 13  1  0  0  0  0
 13  3  1  0  0  0  0
 13 14  2  0  0  0  0
 15 14  1  0  0  0  0
 15 19  1  0  0  0  0
 16 15  2  0  0  0  0
 17 11  1  0  0  0  0
 18 12  1  0  0  0  0
 20 24  1  0  0  0  0
 21 20  2  0  0  0  0
 22 20  1  0  0  0  0
 22 23  1  0  0  0  0
 24 26  1  0  0  0  0
 24 25  1  0  0  0  0
 26 25  1  0  0  0  0
M  END
>  <minimizedAffinity>
-4.56955528

$$$$

 OpenBabel03272503063D

 26 28  0  0  0  0  0  0  0  0999 V2000
   36.8080   28.9900   35.4790 F   0  0  0  0  0  0  0  0  0  0  0  0
   36.4550   28.8000   34.1880 C   0  0  0  0  0  0  0  0  0  0  0  0
   36.9690   27.7400   33.4920 C   0  0  0  0  0  0  0  0  0  0  0  0
   36.5740   27.5960   32.1860 C   0  0  0  0  0  0  0  0  0  0  0  0
   35.7020   28.4630   31.5780 C   0  0  0  0  0  0  0  0  0  0  0  0
   35.1980   29.5220   32.2990 C   0  0  0  0  0  0  0  0  0  0  0  0
   35.5770   29.6940   33.6190 C   0  0  0  0  0  0  0  0  0  0  0  0
   36.9910   26.7470   31.6380 H   0  0  0  0  0  0  0  0  0  0  0  0
   35.4550   28.2650   30.5510 H   0  0  0  0  0  0  0  0  0  0  0  0
   34.5060   30.2050   31.8090 H   0  0  0  0  0  0  0  0  0  0  0  0
   40.1280   26.0740   34.7770 C   0  0  0  0  0  0  0  0  0  0  0  0
   39.2770   26.9600   34.0890 C   0  0  0  0  0  0  0  0  0  0  0  0
   37.8990   26.8420   34.1890 C   0  0  0  0  0  0  0  0  0  0  0  0
   37.4200   25.8300   34.9840 N   0  0  0  0  0  0  0  0  0  0  0  0
   38.2570   24.9940   35.6340 C   0  0  0  0  0  0  0  0  0  0  0  0
   39.5830   25.1140   35.5310 N   0  0  0  0  0  0  0  0  0  0  0  0
   41.2030   26.1720   34.6950 H   0  0  0  0  0  0  0  0  0  0  0  0
   39.6910   27.7460   33.4710 H   0  0  0  0  0  0  0  0  0  0  0  0
   37.6800   24.2720   36.2020 H   0  0  0  0  0  0  0  0  0  0  0  0
   33.8650   30.4950   35.0970 C   0  0  0  0  0  0  0  0  0  0  0  0
   33.4400   29.3100   34.9490 O   0  0  0  0  0  0  0  0  0  0  0  0
   35.0700   30.7830   34.3910 N   0  0  0  0  0  0  0  0  0  0  0  0
   35.5100   31.7200   34.4610 H   0  0  0  0  0  0  0  0  0  0  0  0
   33.2200   31.5560   35.9170 C   0  0  0  0  0  3  0  0  0  0  0  0
   32.5570   31.1940   37.1900 C   0  0  0  0  0  2  0  0  0  0  0  0
   33.8240   31.9750   37.2190 C   0  0  0  0  0  2  0  0  0  0  0  0
  2  1  1  0  0  0  0
  3  2  2  0  0  0  0
  3 13  1  0  0  0  0
  4  3  1  0  0  0  0
  5  4  2  0  0  0  0
  5  6  1  0  0  0  0
  6  7  2  0  0  0  0
  7  2  1  0  0  0  0
  7 22  1  0  0  0  0
  8  4  1  0  0  0  0
  9  5  1  0  0  0  0
 10  6  1  0  0  0  0
 11 16  1  0  0  0  0
 12 13  1  0  0  0  0
 12 11  2  0  0  0  0
 13 14  2  0  0  0  0
 14 15  1  0  0  0  0
 15 19  1  0  0  0  0
 16 15  2  0  0  0  0
 17 11  1  0  0  0  0
 18 12  1  0  0  0  0
 20 24  1  0  0  0  0
 21 20  2  0  0  0  0
 22 23  1  0  0  0  0
 22 20  1  0  0  0  0
 24 25  1  0  0  0  0
 24 26  1  0  0  0  0
 25 26  1  0  0  0  0
M  END
>  <minimizedAffinity>
-4.53857708

$$$$

 OpenBabel03272503063D

 26 28  0  0  0  0  0  0  0  0999 V2000
   35.1960   26.2350   31.5090 F   0  0  0  0  0  0  0  0  0  0  0  0
   36.5380   26.3950   31.4690 C   0  0  0  0  0  0  0  0  0  0  0  0
   37.0940   27.5740   31.8870 C   0  0  0  0  0  0  0  0  0  0  0  0
   38.4610   27.6790   31.8240 C   0  0  0  0  0  0  0  0  0  0  0  0
   39.2610   26.6630   31.3660 C   0  0  0  0  0  0  0  0  0  0  0  0
   38.6770   25.4870   30.9510 C   0  0  0  0  0  0  0  0  0  0  0  0
   37.3020   25.3500   31.0020 C   0  0  0  0  0  0  0  0  0  0  0  0
   38.8960   28.6240   32.1600 H   0  0  0  0  0  0  0  0  0  0  0  0
   40.3200   26.8440   31.3560 H   0  0  0  0  0  0  0  0  0  0  0  0
   39.3200   24.6850   30.5890 H   0  0  0  0  0  0  0  0  0  0  0  0
   35.0470   29.8550   34.1240 C   0  0  0  0  0  0  0  0  0  0  0  0
   35.9180   28.8290   33.7120 C   0  0  0  0  0  0  0  0  0  0  0  0
   36.1940   28.6300   32.3670 C   0  0  0  0  0  0  0  0  0  0  0  0
   35.5810   29.4760   31.4770 N   0  0  0  0  0  0  0  0  0  0  0  0
   34.7500   30.4540   31.8970 C   0  0  0  0  0  0  0  0  0  0  0  0
   34.4890   30.6370   33.1940 N   0  0  0  0  0  0  0  0  0  0  0  0
   34.8350   30.0060   35.1750 H   0  0  0  0  0  0  0  0  0  0  0  0
   36.3820   28.1810   34.4430 H   0  0  0  0  0  0  0  0  0  0  0  0
   34.3750   31.0040   31.0420 H   0  0  0  0  0  0  0  0  0  0  0  0
   36.6060   23.1260   31.5780 C   0  0  0  0  0  0  0  0  0  0  0  0
   37.0990   23.4600   32.6970 O   0  0  0  0  0  0  0  0  0  0  0  0
   36.6690   24.1410   30.5790 N   0  0  0  0  0  0  0  0  0  0  0  0
   36.2760   23.9740   29.6330 H   0  0  0  0  0  0  0  0  0  0  0  0
   35.9950   21.8090   31.2540 C   0  0  0  0  0  3  0  0  0  0  0  0
   36.3650   20.6160   32.0460 C   0  0  0  0  0  2  0  0  0  0  0  0
   34.9990   21.1900   32.1820 C   0  0  0  0  0  2  0  0  0  0  0  0
  2  1  1  0  0  0  0
  2  3  1  0  0  0  0
  3 13  1  0  0  0  0
  4  3  2  0  0  0  0
  4  8  1  0  0  0  0
  5  4  1  0  0  0  0
  6  7  1  0  0  0  0
  6  5  2  0  0  0  0
  7  2  2  0  0  0  0
  9  5  1  0  0  0  0
 10  6  1  0  0  0  0
 11 17  1  0  0  0  0
 12 11  1  0  0  0  0
 12 18  1  0  0  0  0
 13 12  2  0  0  0  0
 14 15  2  0  0  0  0
 14 13  1  0  0  0  0
 15 16  1  0  0  0  0
 16 11  2  0  0  0  0
 19 15  1  0  0  0  0
 20 21  2  0  0  0  0
 22  7  1  0  0  0  0
 22 20  1  0  0  0  0
 23 22  1  0  0  0  0
 24 20  1  0  0  0  0
 24 25  1  0  0  0  0
 24 26  1  0  0  0  0
 25 26  1  0  0  0  0
M  END
>  <minimizedAffinity>
-4.43861914

$$$$

 OpenBabel03272503063D

 26 28  0  0  0  0  0  0  0  0999 V2000
   39.0370   25.5670   34.4430 F   0  0  0  0  0  0  0  0  0  0  0  0
   38.4660   24.5240   33.8000 C   0  0  0  0  0  0  0  0  0  0  0  0
   38.1790   23.3760   34.4880 C   0  0  0  0  0  0  0  0  0  0  0  0
   37.5990   22.3510   33.7840 C   0  0  0  0  0  0  0  0  0  0  0  0
   37.3080   22.4450   32.4460 C   0  0  0  0  0  0  0  0  0  0  0  0
   37.6060   23.6100   31.7770 C   0  0  0  0  0  0  0  0  0  0  0  0
   38.1910   24.6610   32.4590 C   0  0  0  0  0  0  0  0  0  0  0  0
   37.3740   21.4390   34.3430 H   0  0  0  0  0  0  0  0  0  0  0  0
   36.8540   21.5870   31.9850 H   0  0  0  0  0  0  0  0  0  0  0  0
   37.3710   23.6760   30.7150 H   0  0  0  0  0  0  0  0  0  0  0  0
   38.0630   23.8110   38.2560 C   0  0  0  0  0  0  0  0  0  0  0  0
   37.7010   23.8830   36.8980 C   0  0  0  0  0  0  0  0  0  0  0  0
   38.5100   23.3270   35.9180 C   0  0  0  0  0  0  0  0  0  0  0  0
   39.6630   22.7140   36.3410 N   0  0  0  0  0  0  0  0  0  0  0  0
   39.9870   22.6570   37.6500 C   0  0  0  0  0  0  0  0  0  0  0  0
   39.2030   23.1960   38.5870 N   0  0  0  0  0  0  0  0  0  0  0  0
   37.4270   24.2470   39.0170 H   0  0  0  0  0  0  0  0  0  0  0  0
   36.7850   24.3760   36.6020 H   0  0  0  0  0  0  0  0  0  0  0  0
   40.9290   22.1330   37.7690 H   0  0  0  0  0  0  0  0  0  0  0  0
   37.4790   26.8650   31.8270 C   0  0  0  0  0  0  0  0  0  0  0  0
   36.4440   26.5140   32.4700 O   0  0  0  0  0  0  0  0  0  0  0  0
   38.5120   25.8820   31.7890 N   0  0  0  0  0  0  0  0  0  0  0  0
   39.4070   26.0780   31.3040 H   0  0  0  0  0  0  0  0  0  0  0  0
   37.6790   28.1710   31.1430 C   0  0  0  0  0  3  0  0  0  0  0  0
   38.5280   28.2410   29.9340 C   0  0  0  0  0  2  0  0  0  0  0  0
   37.0570   28.4260   29.8070 C   0  0  0  0  0  2  0  0  0  0  0  0
  2  1  1  0  0  0  0
  2  3  1  0  0  0  0
  3 13  1  0  0  0  0
  4  8  1  0  0  0  0
  4  3  2  0  0  0  0
  5  4  1  0  0  0  0
  6  5  2  0  0  0  0
  6  7  1  0  0  0  0
  7  2  2  0  0  0  0
  9  5  1  0  0  0  0
 10  6  1  0  0  0  0
 11 16  1  0  0  0  0
 11 17  1  0  0  0  0
 12 11  2  0  0  0  0
 13 14  2  0  0  0  0
 13 12  1  0  0  0  0
 14 15  1  0  0  0  0
 15 19  1  0  0  0  0
 15 16  2  0  0  0  0
 18 12  1  0  0  0  0
 20 21  2  0  0  0  0
 22 20  1  0  0  0  0
 22  7  1  0  0  0  0
 23 22  1  0  0  0  0
 24 20  1  0  0  0  0
 25 24  1  0  0  0  0
 26 25  1  0  0  0  0
 26 24  1  0  0  0  0
M  END
>  <minimizedAffinity>
-4.43383026

$$$$
