
 OpenBabel03272507173D

 20 22  0  0  1  0  0  0  0  0999 V2000
   37.9920   23.9140   36.8400 C   0  0  1  0  0  0  0  0  0  0  0  0
   38.7540   23.0330   37.6950 C   0  0  2  0  0  0  0  0  0  0  0  0
   38.0240   24.1810   38.3470 C   0  0  0  0  0  0  0  0  0  0  0  0
   36.9460   23.6770   36.5120 H   0  0  0  0  0  0  0  0  0  0  0  0
   38.4030   22.0130   37.8820 H   0  0  0  0  0  0  0  0  0  0  0  0
   38.5540   25.0530   38.7110 H   0  0  0  0  0  0  0  0  0  0  0  0
   37.1580   23.8780   38.9570 H   0  0  0  0  0  0  0  0  0  0  0  0
   38.6710   25.0260   36.0610 C   0  0  0  0  0  0  0  0  0  0  0  0
   38.2240   26.3200   36.3240 C   0  0  0  0  0  0  0  0  0  0  0  0
   38.8440   27.3150   35.5850 C   0  0  0  0  0  0  0  0  0  0  0  0
   39.8250   27.0200   34.6630 N   0  0  0  0  0  0  0  0  0  0  0  0
   40.2180   25.7280   34.4520 C   0  0  0  0  0  0  0  0  0  0  0  0
   39.6340   24.7220   35.1600 N   0  0  0  0  0  0  0  0  0  0  0  0
   37.4530   26.5210   37.0520 H   0  0  0  0  0  0  0  0  0  0  0  0
   38.5670   28.3420   35.7180 H   0  0  0  0  0  0  0  0  0  0  0  0
   40.9790   25.4700   33.7420 H   0  0  0  0  0  0  0  0  0  0  0  0
   40.1560   23.1130   37.6900 O   0  0  0  0  0  0  0  0  0  0  0  0
   40.6000   21.9550   37.0470 C   0  0  0  0  0  3  0  0  0  0  0  0
   41.7940   21.2290   37.5150 C   0  0  0  0  0  2  0  0  0  0  0  0
   41.9500   22.1690   36.3670 C   0  0  0  0  0  2  0  0  0  0  0  0
  1  4  1  6  0  0  0
  1  2  1  0  0  0  0
  1  3  1  0  0  0  0
  2  5  1  1  0  0  0
  2  3  1  0  0  0  0
  3  6  1  0  0  0  0
  3  7  1  0  0  0  0
  8  9  1  0  0  0  0
  8  1  1  0  0  0  0
  9 14  1  0  0  0  0
 10 15  1  0  0  0  0
 10  9  2  0  0  0  0
 11 10  1  0  0  0  0
 12 11  2  0  0  0  0
 12 13  1  0  0  0  0
 13  8  2  0  0  0  0
 16 12  1  0  0  0  0
 17  2  1  0  0  0  0
 18 19  1  0  0  0  0
 18 17  1  0  0  0  0
 20 18  1  0  0  0  0
 20 19  1  0  0  0  0
M  END
>  <minimizedAffinity>
-3.94165349

$$$$

 OpenBabel03272507173D

 20 22  0  0  1  0  0  0  0  0999 V2000
   37.9030   27.6620   35.3550 C   0  0  1  0  0  0  0  0  0  0  0  0
   38.1720   26.5490   36.2370 C   0  0  2  0  0  0  0  0  0  0  0  0
   39.2810   26.9980   35.3190 C   0  0  0  0  0  0  0  0  0  0  0  0
   37.9960   28.7290   35.6880 H   0  0  0  0  0  0  0  0  0  0  0  0
   38.2790   26.7170   37.3140 H   0  0  0  0  0  0  0  0  0  0  0  0
   39.5610   26.4220   34.4450 H   0  0  0  0  0  0  0  0  0  0  0  0
   40.1210   27.4930   35.8340 H   0  0  0  0  0  0  0  0  0  0  0  0
   37.1520   27.4620   34.0520 C   0  0  0  0  0  0  0  0  0  0  0  0
   36.2750   28.4830   33.6850 C   0  0  0  0  0  0  0  0  0  0  0  0
   35.5860   28.2660   32.5030 C   0  0  0  0  0  0  0  0  0  0  0  0
   35.7700   27.1190   31.7630 N   0  0  0  0  0  0  0  0  0  0  0  0
   36.6460   26.1540   32.1780 C   0  0  0  0  0  0  0  0  0  0  0  0
   37.3430   26.3300   33.3340 N   0  0  0  0  0  0  0  0  0  0  0  0
   36.1520   29.3710   34.2860 H   0  0  0  0  0  0  0  0  0  0  0  0
   34.8900   28.9960   32.1400 H   0  0  0  0  0  0  0  0  0  0  0  0
   36.8100   25.2520   31.6220 H   0  0  0  0  0  0  0  0  0  0  0  0
   37.6040   25.2970   35.9550 O   0  0  0  0  0  0  0  0  0  0  0  0
   37.9790   24.4620   37.0110 C   0  0  0  0  0  3  0  0  0  0  0  0
   39.0570   23.4700   36.8580 C   0  0  0  0  0  2  0  0  0  0  0  0
   37.6480   23.0000   36.7210 C   0  0  0  0  0  2  0  0  0  0  0  0
  1  4  1  1  0  0  0
  1  2  1  0  0  0  0
  2  5  1  1  0  0  0
  3  1  1  0  0  0  0
  3  7  1  0  0  0  0
  3  2  1  0  0  0  0
  6  3  1  0  0  0  0
  8  1  1  0  0  0  0
  9  8  1  0  0  0  0
  9 14  1  0  0  0  0
 10  9  2  0  0  0  0
 11 12  2  0  0  0  0
 11 10  1  0  0  0  0
 12 13  1  0  0  0  0
 13  8  2  0  0  0  0
 15 10  1  0  0  0  0
 16 12  1  0  0  0  0
 17  2  1  0  0  0  0
 17 18  1  0  0  0  0
 19 18  1  0  0  0  0
 20 19  1  0  0  0  0
 20 18  1  0  0  0  0
M  END
>  <minimizedAffinity>
-3.87182713

$$$$

 OpenBabel03272507173D

 20 22  0  0  1  0  0  0  0  0999 V2000
   37.6880   23.9990   37.0980 C   0  0  1  0  0  0  0  0  0  0  0  0
   38.6020   23.1870   37.8690 C   0  0  2  0  0  0  0  0  0  0  0  0
   37.9650   24.3680   38.5570 C   0  0  0  0  0  0  0  0  0  0  0  0
   36.6080   23.7280   36.9670 H   0  0  0  0  0  0  0  0  0  0  0  0
   38.3110   22.1780   38.1780 H   0  0  0  0  0  0  0  0  0  0  0  0
   38.5290   25.2690   38.7700 H   0  0  0  0  0  0  0  0  0  0  0  0
   37.2210   24.0980   39.3240 H   0  0  0  0  0  0  0  0  0  0  0  0
   38.2020   25.0630   36.1460 C   0  0  0  0  0  0  0  0  0  0  0  0
   38.6110   24.6160   34.8900 C   0  0  0  0  0  0  0  0  0  0  0  0
   39.0970   25.6030   34.0470 C   0  0  0  0  0  0  0  0  0  0  0  0
   39.1610   26.9200   34.4440 N   0  0  0  0  0  0  0  0  0  0  0  0
   38.7420   27.2940   35.6910 C   0  0  0  0  0  0  0  0  0  0  0  0
   38.2580   26.3540   36.5480 N   0  0  0  0  0  0  0  0  0  0  0  0
   38.5500   23.5770   34.6070 H   0  0  0  0  0  0  0  0  0  0  0  0
   39.4350   25.3550   33.0600 H   0  0  0  0  0  0  0  0  0  0  0  0
   38.7800   28.3120   36.0270 H   0  0  0  0  0  0  0  0  0  0  0  0
   39.9810   23.2820   37.6230 O   0  0  0  0  0  0  0  0  0  0  0  0
   40.3420   22.0800   37.0110 C   0  0  0  0  0  3  0  0  0  0  0  0
   41.6070   21.4000   37.3420 C   0  0  0  0  0  2  0  0  0  0  0  0
   41.5670   22.2470   36.1140 C   0  0  0  0  0  2  0  0  0  0  0  0
  1  4  1  6  0  0  0
  1  2  1  0  0  0  0
  1  3  1  0  0  0  0
  2  5  1  1  0  0  0
  2  3  1  0  0  0  0
  3  6  1  0  0  0  0
  3  7  1  0  0  0  0
  8 13  1  0  0  0  0
  8  1  1  0  0  0  0
  9  8  2  0  0  0  0
 10 11  2  0  0  0  0
 10  9  1  0  0  0  0
 11 12  1  0  0  0  0
 12 16  1  0  0  0  0
 12 13  2  0  0  0  0
 14  9  1  0  0  0  0
 15 10  1  0  0  0  0
 17  2  1  0  0  0  0
 18 19  1  0  0  0  0
 18 17  1  0  0  0  0
 20 18  1  0  0  0  0
 20 19  1  0  0  0  0
M  END
>  <minimizedAffinity>
-3.84381056

$$$$

 OpenBabel03272507173D

 20 22  0  0  1  0  0  0  0  0999 V2000
   38.8770   22.7710   36.0710 C   0  0  1  0  0  0  0  0  0  0  0  0
   38.8400   24.2060   36.2340 C   0  0  2  0  0  0  0  0  0  0  0  0
   38.5430   23.3570   37.4450 C   0  0  0  0  0  0  0  0  0  0  0  0
   39.8310   22.1840   36.1230 H   0  0  0  0  0  0  0  0  0  0  0  0
   39.7700   24.7840   36.2120 H   0  0  0  0  0  0  0  0  0  0  0  0
   37.5350   23.2510   37.8270 H   0  0  0  0  0  0  0  0  0  0  0  0
   39.3300   23.3800   38.2170 H   0  0  0  0  0  0  0  0  0  0  0  0
   37.6960   22.0210   35.4820 C   0  0  0  0  0  0  0  0  0  0  0  0
   37.6890   21.8800   34.0950 C   0  0  0  0  0  0  0  0  0  0  0  0
   36.5900   21.2120   33.5790 C   0  0  0  0  0  0  0  0  0  0  0  0
   35.5910   20.7330   34.3990 N   0  0  0  0  0  0  0  0  0  0  0  0
   35.6570   20.9040   35.7540 C   0  0  0  0  0  0  0  0  0  0  0  0
   36.7220   21.5550   36.2980 N   0  0  0  0  0  0  0  0  0  0  0  0
   38.4860   22.2670   33.4780 H   0  0  0  0  0  0  0  0  0  0  0  0
   36.4970   21.0550   32.5230 H   0  0  0  0  0  0  0  0  0  0  0  0
   34.8960   20.5410   36.4150 H   0  0  0  0  0  0  0  0  0  0  0  0
   37.7600   24.9300   35.7050 O   0  0  0  0  0  0  0  0  0  0  0  0
   38.3180   26.0590   35.1010 C   0  0  0  0  0  3  0  0  0  0  0  0
   38.4500   27.3330   35.8300 C   0  0  0  0  0  2  0  0  0  0  0  0
   37.2860   27.1680   34.9120 C   0  0  0  0  0  2  0  0  0  0  0  0
  1  4  1  6  0  0  0
  1  2  1  0  0  0  0
  1  3  1  0  0  0  0
  2  5  1  6  0  0  0
  2  3  1  0  0  0  0
  3  6  1  0  0  0  0
  3  7  1  0  0  0  0
  8  1  1  0  0  0  0
  8 13  1  0  0  0  0
  9  8  2  0  0  0  0
 10  9  1  0  0  0  0
 10 11  2  0  0  0  0
 11 12  1  0  0  0  0
 12 13  2  0  0  0  0
 12 16  1  0  0  0  0
 14  9  1  0  0  0  0
 15 10  1  0  0  0  0
 17  2  1  0  0  0  0
 18 17  1  0  0  0  0
 18 19  1  0  0  0  0
 20 18  1  0  0  0  0
 20 19  1  0  0  0  0
M  END
>  <minimizedAffinity>
-3.80679202

$$$$

 OpenBabel03272507173D

 20 22  0  0  1  0  0  0  0  0999 V2000
   37.5470   26.7440   35.0610 C   0  0  1  0  0  0  0  0  0  0  0  0
   38.0410   26.0810   36.2470 C   0  0  2  0  0  0  0  0  0  0  0  0
   38.8050   27.2810   35.7480 C   0  0  0  0  0  0  0  0  0  0  0  0
   36.7300   27.5100   35.0970 H   0  0  0  0  0  0  0  0  0  0  0  0
   37.4900   26.1630   37.1900 H   0  0  0  0  0  0  0  0  0  0  0  0
   39.7600   27.1750   35.2460 H   0  0  0  0  0  0  0  0  0  0  0  0
   38.7180   28.1720   36.3910 H   0  0  0  0  0  0  0  0  0  0  0  0
   37.8550   26.2000   33.6780 C   0  0  0  0  0  0  0  0  0  0  0  0
   38.4750   27.0840   32.7950 C   0  0  0  0  0  0  0  0  0  0  0  0
   38.7250   26.5720   31.5320 C   0  0  0  0  0  0  0  0  0  0  0  0
   38.3760   25.2810   31.1990 N   0  0  0  0  0  0  0  0  0  0  0  0
   37.7700   24.4640   32.1120 C   0  0  0  0  0  0  0  0  0  0  0  0
   37.5080   24.9300   33.3640 N   0  0  0  0  0  0  0  0  0  0  0  0
   38.7350   28.0900   33.0850 H   0  0  0  0  0  0  0  0  0  0  0  0
   39.1980   27.1770   30.7860 H   0  0  0  0  0  0  0  0  0  0  0  0
   37.4890   23.4560   31.8800 H   0  0  0  0  0  0  0  0  0  0  0  0
   38.6850   24.8400   36.1230 O   0  0  0  0  0  0  0  0  0  0  0  0
   38.0180   23.9760   36.9930 C   0  0  0  0  0  3  0  0  0  0  0  0
   38.0000   24.2150   38.4470 C   0  0  0  0  0  2  0  0  0  0  0  0
   38.9900   23.2360   37.9100 C   0  0  0  0  0  2  0  0  0  0  0  0
  1  4  1  1  0  0  0
  1  3  1  0  0  0  0
  1  2  1  0  0  0  0
  2  5  1  1  0  0  0
  3  2  1  0  0  0  0
  3  7  1  0  0  0  0
  6  3  1  0  0  0  0
  8  1  1  0  0  0  0
  9 14  1  0  0  0  0
  9  8  2  0  0  0  0
 10  9  1  0  0  0  0
 11 10  2  0  0  0  0
 11 12  1  0  0  0  0
 12 13  2  0  0  0  0
 13  8  1  0  0  0  0
 15 10  1  0  0  0  0
 16 12  1  0  0  0  0
 17  2  1  0  0  0  0
 17 18  1  0  0  0  0
 18 20  1  0  0  0  0
 18 19  1  0  0  0  0
 20 19  1  0  0  0  0
M  END
>  <minimizedAffinity>
-3.77801943

$$$$

 OpenBabel03272507173D

 20 22  0  0  1  0  0  0  0  0999 V2000
   39.0970   23.5700   34.2710 C   0  0  1  0  0  0  0  0  0  0  0  0
   38.1790   22.8020   33.4620 C   0  0  2  0  0  0  0  0  0  0  0  0
   37.8770   24.2660   33.6620 C   0  0  0  0  0  0  0  0  0  0  0  0
   40.0400   24.0110   33.8550 H   0  0  0  0  0  0  0  0  0  0  0  0
   38.4810   22.4580   32.4670 H   0  0  0  0  0  0  0  0  0  0  0  0
   37.0810   24.5940   34.3190 H   0  0  0  0  0  0  0  0  0  0  0  0
   38.0150   24.8830   32.7590 H   0  0  0  0  0  0  0  0  0  0  0  0
   39.0210   23.5340   35.7860 C   0  0  0  0  0  0  0  0  0  0  0  0
   39.9830   22.7580   36.4310 C   0  0  0  0  0  0  0  0  0  0  0  0
   39.8790   22.7240   37.8120 C   0  0  0  0  0  0  0  0  0  0  0  0
   38.8880   23.4140   38.4750 N   0  0  0  0  0  0  0  0  0  0  0  0
   37.9730   24.1590   37.7840 C   0  0  0  0  0  0  0  0  0  0  0  0
   38.0430   24.2180   36.4250 N   0  0  0  0  0  0  0  0  0  0  0  0
   40.7470   22.2280   35.8840 H   0  0  0  0  0  0  0  0  0  0  0  0
   40.5750   22.1540   38.3940 H   0  0  0  0  0  0  0  0  0  0  0  0
   37.1920   24.7060   38.2730 H   0  0  0  0  0  0  0  0  0  0  0  0
   37.3040   21.8980   34.0860 O   0  0  0  0  0  0  0  0  0  0  0  0
   36.7490   21.1340   33.0560 C   0  0  0  0  0  3  0  0  0  0  0  0
   35.3860   21.3940   32.5590 C   0  0  0  0  0  2  0  0  0  0  0  0
   35.5730   20.2920   33.5480 C   0  0  0  0  0  2  0  0  0  0  0  0
  1  4  1  6  0  0  0
  1  8  1  0  0  0  0
  2  5  1  6  0  0  0
  2  3  1  0  0  0  0
  2 17  1  0  0  0  0
  2  1  1  0  0  0  0
  3  1  1  0  0  0  0
  3  6  1  0  0  0  0
  7  3  1  0  0  0  0
  8 13  2  0  0  0  0
  8  9  1  0  0  0  0
  9 10  2  0  0  0  0
 10 15  1  0  0  0  0
 10 11  1  0  0  0  0
 12 16  1  0  0  0  0
 12 11  2  0  0  0  0
 13 12  1  0  0  0  0
 14  9  1  0  0  0  0
 18 20  1  0  0  0  0
 18 17  1  0  0  0  0
 19 18  1  0  0  0  0
 19 20  1  0  0  0  0
M  END
>  <minimizedAffinity>
-3.62177467

$$$$

 OpenBabel03272507173D

 20 22  0  0  1  0  0  0  0  0999 V2000
   38.5190   26.4230   34.6180 C   0  0  1  0  0  0  0  0  0  0  0  0
   37.9910   25.7430   35.7790 C   0  0  2  0  0  0  0  0  0  0  0  0
   38.5740   27.1200   35.9790 C   0  0  0  0  0  0  0  0  0  0  0  0
   37.8670   27.0030   33.9130 H   0  0  0  0  0  0  0  0  0  0  0  0
   36.9100   25.6080   35.8910 H   0  0  0  0  0  0  0  0  0  0  0  0
   39.5380   27.2620   36.4540 H   0  0  0  0  0  0  0  0  0  0  0  0
   37.8280   27.8980   36.2070 H   0  0  0  0  0  0  0  0  0  0  0  0
   39.9080   26.1100   34.0930 C   0  0  0  0  0  0  0  0  0  0  0  0
   40.8560   27.1240   34.2220 C   0  0  0  0  0  0  0  0  0  0  0  0
   42.1100   26.8220   33.7170 C   0  0  0  0  0  0  0  0  0  0  0  0
   42.3750   25.6020   33.1330 N   0  0  0  0  0  0  0  0  0  0  0  0
   41.4000   24.6480   33.0380 C   0  0  0  0  0  0  0  0  0  0  0  0
   40.1550   24.9070   33.5240 N   0  0  0  0  0  0  0  0  0  0  0  0
   40.6190   28.0710   34.6840 H   0  0  0  0  0  0  0  0  0  0  0  0
   42.9040   27.5400   33.7710 H   0  0  0  0  0  0  0  0  0  0  0  0
   41.5770   23.6900   32.5900 H   0  0  0  0  0  0  0  0  0  0  0  0
   38.7130   24.6770   36.3380 O   0  0  0  0  0  0  0  0  0  0  0  0
   37.8840   24.1280   37.3180 C   0  0  0  0  0  3  0  0  0  0  0  0
   37.9330   24.5960   38.7140 C   0  0  0  0  0  2  0  0  0  0  0  0
   38.6810   23.3540   38.3650 C   0  0  0  0  0  2  0  0  0  0  0  0
  1  4  1  6  0  0  0
  1  2  1  0  0  0  0
  1  3  1  0  0  0  0
  2  5  1  1  0  0  0
  2  3  1  0  0  0  0
  2 17  1  0  0  0  0
  3  7  1  0  0  0  0
  3  6  1  0  0  0  0
  8  9  1  0  0  0  0
  8  1  1  0  0  0  0
  9 14  1  0  0  0  0
 10 15  1  0  0  0  0
 10  9  2  0  0  0  0
 11 10  1  0  0  0  0
 12 11  2  0  0  0  0
 12 13  1  0  0  0  0
 13  8  2  0  0  0  0
 16 12  1  0  0  0  0
 17 18  1  0  0  0  0
 18 20  1  0  0  0  0
 18 19  1  0  0  0  0
 20 19  1  0  0  0  0
M  END
>  <minimizedAffinity>
-3.60317731

$$$$

 OpenBabel03272507173D

 20 22  0  0  1  0  0  0  0  0999 V2000
   38.3580   26.7680   34.3370 C   0  0  1  0  0  0  0  0  0  0  0  0
   37.4090   26.6560   33.2530 C   0  0  2  0  0  0  0  0  0  0  0  0
   36.9320   27.2860   34.5380 C   0  0  0  0  0  0  0  0  0  0  0  0
   39.0900   27.6150   34.4090 H   0  0  0  0  0  0  0  0  0  0  0  0
   37.5140   27.2880   32.3650 H   0  0  0  0  0  0  0  0  0  0  0  0
   36.2750   26.7560   35.2180 H   0  0  0  0  0  0  0  0  0  0  0  0
   36.7470   28.3710   34.4680 H   0  0  0  0  0  0  0  0  0  0  0  0
   38.6560   25.5860   35.2400 C   0  0  0  0  0  0  0  0  0  0  0  0
   39.7820   24.8310   34.9120 C   0  0  0  0  0  0  0  0  0  0  0  0
   40.0200   23.7450   35.7390 C   0  0  0  0  0  0  0  0  0  0  0  0
   39.1890   23.4520   36.7980 N   0  0  0  0  0  0  0  0  0  0  0  0
   38.0990   24.2330   37.0670 C   0  0  0  0  0  0  0  0  0  0  0  0
   37.8320   25.3100   36.2780 N   0  0  0  0  0  0  0  0  0  0  0  0
   40.4140   25.0850   34.0760 H   0  0  0  0  0  0  0  0  0  0  0  0
   40.8630   23.1060   35.5660 H   0  0  0  0  0  0  0  0  0  0  0  0
   37.4360   24.0290   37.8840 H   0  0  0  0  0  0  0  0  0  0  0  0
   36.8680   25.3990   32.9410 O   0  0  0  0  0  0  0  0  0  0  0  0
   36.5890   25.4340   31.5730 C   0  0  0  0  0  3  0  0  0  0  0  0
   35.2210   25.6610   31.0750 C   0  0  0  0  0  2  0  0  0  0  0  0
   35.7170   24.2560   31.1440 C   0  0  0  0  0  2  0  0  0  0  0  0
  1  4  1  6  0  0  0
  1  3  1  0  0  0  0
  1  8  1  0  0  0  0
  2  5  1  6  0  0  0
  2  1  1  0  0  0  0
  2  3  1  0  0  0  0
  3  6  1  0  0  0  0
  7  3  1  0  0  0  0
  8 13  1  0  0  0  0
  9  8  2  0  0  0  0
  9 10  1  0  0  0  0
 10 11  2  0  0  0  0
 11 12  1  0  0  0  0
 12 16  1  0  0  0  0
 13 12  2  0  0  0  0
 14  9  1  0  0  0  0
 15 10  1  0  0  0  0
 17  2  1  0  0  0  0
 18 17  1  0  0  0  0
 19 20  1  0  0  0  0
 19 18  1  0  0  0  0
 20 18  1  0  0  0  0
M  END
>  <minimizedAffinity>
-3.55889988

$$$$

 OpenBabel03272507173D

 20 22  0  0  1  0  0  0  0  0999 V2000
   38.0780   23.0120   34.5720 C   0  0  1  0  0  0  0  0  0  0  0  0
   38.1480   24.1830   33.7270 C   0  0  2  0  0  0  0  0  0  0  0  0
   39.2820   23.1920   33.6440 C   0  0  0  0  0  0  0  0  0  0  0  0
   37.5000   22.0960   34.2820 H   0  0  0  0  0  0  0  0  0  0  0  0
   37.4720   24.2830   32.8720 H   0  0  0  0  0  0  0  0  0  0  0  0
   40.2510   23.4030   34.0810 H   0  0  0  0  0  0  0  0  0  0  0  0
   39.3150   22.6210   32.7020 H   0  0  0  0  0  0  0  0  0  0  0  0
   38.4840   23.0780   36.0330 C   0  0  0  0  0  0  0  0  0  0  0  0
   37.5540   23.6440   36.9030 C   0  0  0  0  0  0  0  0  0  0  0  0
   37.9570   23.7120   38.2270 C   0  0  0  0  0  0  0  0  0  0  0  0
   39.1910   23.2490   38.6280 N   0  0  0  0  0  0  0  0  0  0  0  0
   40.0590   22.7040   37.7230 C   0  0  0  0  0  0  0  0  0  0  0  0
   39.6990   22.6180   36.4130 N   0  0  0  0  0  0  0  0  0  0  0  0
   36.5940   23.9990   36.5600 H   0  0  0  0  0  0  0  0  0  0  0  0
   37.3080   24.1320   38.9710 H   0  0  0  0  0  0  0  0  0  0  0  0
   41.0250   22.3350   38.0060 H   0  0  0  0  0  0  0  0  0  0  0  0
   38.4540   25.4270   34.3020 O   0  0  0  0  0  0  0  0  0  0  0  0
   37.3050   26.2070   34.1530 C   0  0  0  0  0  3  0  0  0  0  0  0
   37.3510   27.5200   33.4850 C   0  0  0  0  0  2  0  0  0  0  0  0
   37.3820   27.4910   34.9770 C   0  0  0  0  0  2  0  0  0  0  0  0
  1  4  1  6  0  0  0
  1  8  1  0  0  0  0
  2  5  1  6  0  0  0
  2 17  1  0  0  0  0
  2  1  1  0  0  0  0
  3  2  1  0  0  0  0
  3  6  1  0  0  0  0
  3  1  1  0  0  0  0
  7  3  1  0  0  0  0
  8 13  2  0  0  0  0
  8  9  1  0  0  0  0
  9 10  2  0  0  0  0
 10 11  1  0  0  0  0
 10 15  1  0  0  0  0
 12 16  1  0  0  0  0
 12 11  2  0  0  0  0
 13 12  1  0  0  0  0
 14  9  1  0  0  0  0
 18 17  1  0  0  0  0
 18 20  1  0  0  0  0
 19 18  1  0  0  0  0
 19 20  1  0  0  0  0
M  END
>  <minimizedAffinity>
-3.54671264

$$$$
