
 OpenBabel03272503393D

 23 25  0  0  0  0  0  0  0  0999 V2000
   36.7620   30.6290   49.0240 C   0  0  0  0  0  0  0  0  0  0  0  0
   37.8410   30.8250   48.1830 C   0  0  0  0  0  0  0  0  0  0  0  0
   37.6900   30.7420   46.8120 C   0  0  0  0  0  0  0  0  0  0  0  0
   36.4670   30.4670   46.3430 N   0  0  0  0  0  0  0  0  0  0  0  0
   35.4090   30.2750   47.1810 C   0  0  0  0  0  0  0  0  0  0  0  0
   35.5530   30.3540   48.4930 N   0  0  0  0  0  0  0  0  0  0  0  0
   38.8500   31.0500   48.5160 H   0  0  0  0  0  0  0  0  0  0  0  0
   34.4650   30.0590   46.7270 H   0  0  0  0  0  0  0  0  0  0  0  0
   38.8060   30.9420   45.8990 C   0  0  0  0  0  0  0  0  0  0  0  0
   40.0230   31.4560   46.2440 C   0  0  0  0  0  0  0  0  0  0  0  0
   40.7520   31.4560   45.0590 C   0  0  0  0  0  0  0  0  0  0  0  0
   39.9900   30.9620   44.0550 N   0  0  0  0  0  0  0  0  0  0  0  0
   38.8040   30.6520   44.5810 N   0  0  0  0  0  0  0  0  0  0  0  0
   40.3660   31.7970   47.2330 H   0  0  0  0  0  0  0  0  0  0  0  0
   41.7830   31.7980   44.9230 H   0  0  0  0  0  0  0  0  0  0  0  0
   40.3280   30.7750   42.6600 C   0  0  0  0  0  0  0  0  0  0  0  0
   41.1700   29.5270   42.3520 C   0  0  0  0  0  0  0  0  0  0  0  0
   39.7300   29.6300   41.9260 C   0  0  0  0  0  0  0  0  0  0  0  0
   37.0840   30.7480   50.3670 O   0  0  0  0  0  0  0  0  0  0  0  0
   37.0070   29.6940   51.2860 C   0  0  0  0  0  0  0  0  0  0  0  0
   35.6920   29.3070   51.5380 F   0  0  0  0  0  0  0  0  0  0  0  0
   37.6330   30.0650   52.4470 F   0  0  0  0  0  0  0  0  0  0  0  0
   37.7000   28.6200   50.7620 F   0  0  0  0  0  0  0  0  0  0  0  0
  1 19  1  0  0  0  0
  2  7  1  0  0  0  0
  2  1  2  0  0  0  0
  3  2  1  0  0  0  0
  4  3  2  0  0  0  0
  4  5  1  0  0  0  0
  5  6  2  0  0  0  0
  6  1  1  0  0  0  0
  8  5  1  0  0  0  0
  9 10  1  0  0  0  0
  9  3  1  0  0  0  0
 10 14  1  0  0  0  0
 11 10  2  0  0  0  0
 12 13  1  0  0  0  0
 12 11  1  0  0  0  0
 13  9  2  0  0  0  0
 15 11  1  0  0  0  0
 16 12  1  0  0  0  0
 17 16  1  0  0  0  0
 18 17  1  0  0  0  0
 18 16  1  0  0  0  0
 19 20  1  0  0  0  0
 20 21  1  0  0  0  0
 20 22  1  0  0  0  0
 23 20  1  0  0  0  0
M  END
>  <minimizedAffinity>
-5.72268534

>  <minimizedRMSD>
2.38392091

$$$$
