
 OpenBabel03272506433D

 26 28  0  0  1  0  0  0  0  0999 V2000
   32.1990   28.1940   47.5950 C   0  0  2  0  0  0  0  0  0  0  0  0
   33.4890   28.1500   48.3940 C   0  0  1  0  0  0  0  0  0  0  0  0
   34.0210   26.8830   48.2720 O   0  0  0  0  0  0  0  0  0  0  0  0
   33.3190   26.1860   47.3080 C   0  0  0  0  0  0  0  0  0  0  0  0
   32.5570   27.2390   46.4880 C   0  0  1  0  0  0  0  0  0  0  0  0
   31.3270   27.8640   48.1780 H   0  0  0  0  0  0  0  0  0  0  0  0
   33.2900   28.4300   49.4330 H   0  0  0  0  0  0  0  0  0  0  0  0
   34.0700   25.7050   46.6370 H   0  0  0  0  0  0  0  0  0  0  0  0
   32.6440   25.4080   47.6840 H   0  0  0  0  0  0  0  0  0  0  0  0
   33.2210   27.7120   45.7630 H   0  0  0  0  0  0  0  0  0  0  0  0
   31.9450   29.4730   47.1320 O   0  0  0  0  0  0  0  0  0  0  0  0
   32.5890   29.6700   46.4310 H   0  0  0  0  0  0  0  0  0  0  0  0
   34.6400   29.3070   47.5850 S   0  0  0  0  0  0  0  0  0  0  0  0
   37.2470   29.3100   50.5690 C   0  0  0  0  0  0  0  0  0  0  0  0
   37.7250   30.6250   50.6390 C   0  0  0  0  0  0  0  0  0  0  0  0
   37.2170   31.5410   49.7230 C   0  0  0  0  0  0  0  0  0  0  0  0
   36.2880   31.1310   48.8090 N   0  0  0  0  0  0  0  0  0  0  0  0
   35.8570   29.8500   48.7800 C   0  0  0  0  0  0  0  0  0  0  0  0
   36.3300   28.9390   49.6530 N   0  0  0  0  0  0  0  0  0  0  0  0
   37.6550   28.6140   51.2890 H   0  0  0  0  0  0  0  0  0  0  0  0
   38.4610   30.9510   51.3610 H   0  0  0  0  0  0  0  0  0  0  0  0
   37.5440   32.5930   49.7160 H   0  0  0  0  0  0  0  0  0  0  0  0
   31.4770   26.6640   45.8740 O   0  0  0  0  0  0  0  0  0  0  0  0
   30.6080   26.0030   46.7080 C   0  0  0  0  0  0  0  0  0  0  0  0
   29.5790   25.1480   45.9680 C   0  0  0  0  0  0  0  0  0  0  0  0
   29.1640   26.3300   46.7620 C   0  0  0  0  0  0  0  0  0  0  0  0
  1  6  1  1  0  0  0
  1  2  1  0  0  0  0
  2  7  1  1  0  0  0
  3  2  1  0  0  0  0
  4  9  1  0  0  0  0
  4  3  1  0  0  0  0
  5 10  1  6  0  0  0
  5  4  1  0  0  0  0
  5  1  1  0  0  0  0
  8  4  1  0  0  0  0
 11  1  1  0  0  0  0
 12 11  1  0  0  0  0
 13  2  1  0  0  0  0
 13 18  1  0  0  0  0
 14 15  1  0  0  0  0
 14 20  1  0  0  0  0
 15 21  1  0  0  0  0
 16 15  2  0  0  0  0
 17 16  1  0  0  0  0
 18 17  2  0  0  0  0
 18 19  1  0  0  0  0
 19 14  2  0  0  0  0
 22 16  1  0  0  0  0
 23  5  1  0  0  0  0
 23 24  1  0  0  0  0
 24 26  1  0  0  0  0
 25 24  1  0  0  0  0
 25 26  1  0  0  0  0
M  END
>  <minimizedAffinity>
-3.94719243

>  <minimizedRMSD>
1.65579343

$$$$
