
 OpenBabel03272508003D

 33 36  0  0  0  0  0  0  0  0999 V2000
   35.2980   29.1630   33.8940 C   0  0  0  0  0  0  0  0  0  0  0  0
   35.6270   29.5560   32.6060 C   0  0  0  0  0  0  0  0  0  0  0  0
   36.6940   28.9120   31.9670 C   0  0  0  0  0  0  0  0  0  0  0  0
   37.4000   27.9060   32.6100 C   0  0  0  0  0  0  0  0  0  0  0  0
   37.0390   27.5460   33.8910 C   0  0  0  0  0  0  0  0  0  0  0  0
   36.0170   28.1790   34.4740 N   0  0  0  0  0  0  0  0  0  0  0  0
   35.2310   30.2790   31.9150 H   0  0  0  0  0  0  0  0  0  0  0  0
   37.0750   29.0990   30.9750 H   0  0  0  0  0  0  0  0  0  0  0  0
   38.2320   27.3660   32.1820 H   0  0  0  0  0  0  0  0  0  0  0  0
   33.3090   31.7650   35.7180 C   0  0  0  0  0  0  0  0  0  0  0  0
   34.4270   31.0470   35.2070 C   0  0  0  0  0  0  0  0  0  0  0  0
   34.1890   29.9120   34.4250 C   0  0  0  0  0  0  0  0  0  0  0  0
   32.8920   29.5650   34.2030 N   0  0  0  0  0  0  0  0  0  0  0  0
   31.8490   30.2810   34.7110 C   0  0  0  0  0  0  0  0  0  0  0  0
   32.0630   31.3720   35.4630 N   0  0  0  0  0  0  0  0  0  0  0  0
   30.5990   29.7180   34.3410 N   0  0  0  0  0  0  0  0  0  0  0  0
   33.4740   32.6490   36.3260 H   0  0  0  0  0  0  0  0  0  0  0  0
   30.3440   28.8090   34.7900 H   0  0  0  0  0  0  0  0  0  0  0  0
   30.2160   30.4100   33.6560 H   0  0  0  0  0  0  0  0  0  0  0  0
   35.7870   31.5330   35.5260 C   0  0  0  0  0  0  0  0  0  0  0  0
   36.3860   32.1460   34.4220 F   0  0  0  0  0  0  0  0  0  0  0  0
   35.7320   32.4340   36.5270 F   0  0  0  0  0  0  0  0  0  0  0  0
   36.6550   30.5100   35.9150 F   0  0  0  0  0  0  0  0  0  0  0  0
   37.7230   26.4970   34.6300 C   0  0  0  0  0  0  0  0  0  0  0  0
   39.0670   26.2050   34.5820 C   0  0  0  0  0  0  0  0  0  0  0  0
   39.3520   25.1420   35.4230 C   0  0  0  0  0  0  0  0  0  0  0  0
   38.1380   24.8180   35.9650 N   0  0  0  0  0  0  0  0  0  0  0  0
   37.2050   25.6170   35.4910 N   0  0  0  0  0  0  0  0  0  0  0  0
   39.8420   26.6920   33.9980 H   0  0  0  0  0  0  0  0  0  0  0  0
   40.3320   24.6970   35.5850 H   0  0  0  0  0  0  0  0  0  0  0  0
   38.0080   23.7240   36.9230 C   0  0  0  0  0  3  0  0  0  0  0  0
   39.2000   23.3600   37.7590 C   0  0  0  0  0  2  0  0  0  0  0  0
   38.0720   24.0680   38.4150 C   0  0  0  0  0  2  0  0  0  0  0  0
  1 12  1  0  0  0  0
  1  6  1  0  0  0  0
  2  1  2  0  0  0  0
  3  2  1  0  0  0  0
  3  4  2  0  0  0  0
  4  5  1  0  0  0  0
  5  6  2  0  0  0  0
  5 24  1  0  0  0  0
  7  2  1  0  0  0  0
  8  3  1  0  0  0  0
  9  4  1  0  0  0  0
 10 17  1  0  0  0  0
 11 20  1  0  0  0  0
 11 10  2  0  0  0  0
 12 11  1  0  0  0  0
 13 12  2  0  0  0  0
 13 14  1  0  0  0  0
 14 15  2  0  0  0  0
 15 10  1  0  0  0  0
 16 14  1  0  0  0  0
 16 18  1  0  0  0  0
 19 16  1  0  0  0  0
 20 23  1  0  0  0  0
 20 22  1  0  0  0  0
 21 20  1  0  0  0  0
 24 28  2  0  0  0  0
 25 24  1  0  0  0  0
 25 26  2  0  0  0  0
 26 30  1  0  0  0  0
 26 27  1  0  0  0  0
 27 31  1  0  0  0  0
 28 27  1  0  0  0  0
 29 25  1  0  0  0  0
 31 32  1  0  0  0  0
 31 33  1  0  0  0  0
 32 33  1  0  0  0  0
M  END
>  <minimizedAffinity>
-5.94199896

$$$$

 OpenBabel03272508003D

 33 36  0  0  0  0  0  0  0  0999 V2000
   37.7690   26.3960   32.9840 C   0  0  0  0  0  0  0  0  0  0  0  0
   38.8730   26.5310   32.1550 C   0  0  0  0  0  0  0  0  0  0  0  0
   38.8710   27.5650   31.2110 C   0  0  0  0  0  0  0  0  0  0  0  0
   37.7920   28.4300   31.1100 C   0  0  0  0  0  0  0  0  0  0  0  0
   36.7150   28.2600   31.9540 C   0  0  0  0  0  0  0  0  0  0  0  0
   36.7450   27.2640   32.8450 N   0  0  0  0  0  0  0  0  0  0  0  0
   39.8080   26.0100   32.0560 H   0  0  0  0  0  0  0  0  0  0  0  0
   39.6450   27.8030   30.4960 H   0  0  0  0  0  0  0  0  0  0  0  0
   37.7190   29.2470   30.4080 H   0  0  0  0  0  0  0  0  0  0  0  0
   38.2960   24.4250   36.1300 C   0  0  0  0  0  0  0  0  0  0  0  0
   38.1620   25.5380   35.2520 C   0  0  0  0  0  0  0  0  0  0  0  0
   37.9070   25.2930   33.8980 C   0  0  0  0  0  0  0  0  0  0  0  0
   37.8030   23.9940   33.5060 N   0  0  0  0  0  0  0  0  0  0  0  0
   37.9360   22.9560   34.3800 C   0  0  0  0  0  0  0  0  0  0  0  0
   38.1810   23.1770   35.6810 N   0  0  0  0  0  0  0  0  0  0  0  0
   37.7860   21.7030   33.7300 N   0  0  0  0  0  0  0  0  0  0  0  0
   38.4930   24.5970   37.1820 H   0  0  0  0  0  0  0  0  0  0  0  0
   38.5600   21.4130   33.0880 H   0  0  0  0  0  0  0  0  0  0  0  0
   36.8650   21.3550   34.0840 H   0  0  0  0  0  0  0  0  0  0  0  0
   38.3010   26.9010   35.8090 C   0  0  0  0  0  0  0  0  0  0  0  0
   38.3570   26.8820   37.2060 F   0  0  0  0  0  0  0  0  0  0  0  0
   39.4340   27.4730   35.3520 F   0  0  0  0  0  0  0  0  0  0  0  0
   37.2330   27.7380   35.4780 F   0  0  0  0  0  0  0  0  0  0  0  0
   35.5490   29.1280   31.9180 C   0  0  0  0  0  0  0  0  0  0  0  0
   35.4350   30.3170   31.2330 C   0  0  0  0  0  0  0  0  0  0  0  0
   34.1770   30.8600   31.4340 C   0  0  0  0  0  0  0  0  0  0  0  0
   33.5560   29.9590   32.2550 N   0  0  0  0  0  0  0  0  0  0  0  0
   34.3710   28.9590   32.5230 N   0  0  0  0  0  0  0  0  0  0  0  0
   36.1760   30.8110   30.6130 H   0  0  0  0  0  0  0  0  0  0  0  0
   33.8070   31.7950   31.0160 H   0  0  0  0  0  0  0  0  0  0  0  0
   32.1850   30.1700   32.7080 C   0  0  0  0  0  3  0  0  0  0  0  0
   31.5230   29.0890   33.5130 C   0  0  0  0  0  2  0  0  0  0  0  0
   31.9460   30.3280   34.2140 C   0  0  0  0  0  2  0  0  0  0  0  0
  1 12  1  0  0  0  0
  2  1  2  0  0  0  0
  3  2  1  0  0  0  0
  4  3  2  0  0  0  0
  4  5  1  0  0  0  0
  5  6  2  0  0  0  0
  6  1  1  0  0  0  0
  7  2  1  0  0  0  0
  8  3  1  0  0  0  0
  9  4  1  0  0  0  0
 10 17  1  0  0  0  0
 11 20  1  0  0  0  0
 11 10  2  0  0  0  0
 12 11  1  0  0  0  0
 13 12  2  0  0  0  0
 13 14  1  0  0  0  0
 14 15  2  0  0  0  0
 15 10  1  0  0  0  0
 16 19  1  0  0  0  0
 16 14  1  0  0  0  0
 18 16  1  0  0  0  0
 20 21  1  0  0  0  0
 22 20  1  0  0  0  0
 23 20  1  0  0  0  0
 24  5  1  0  0  0  0
 24 28  2  0  0  0  0
 25 26  2  0  0  0  0
 25 24  1  0  0  0  0
 26 27  1  0  0  0  0
 27 28  1  0  0  0  0
 27 31  1  0  0  0  0
 29 25  1  0  0  0  0
 30 26  1  0  0  0  0
 31 32  1  0  0  0  0
 31 33  1  0  0  0  0
 32 33  1  0  0  0  0
M  END
>  <minimizedAffinity>
-5.70126581

$$$$

 OpenBabel03272508003D

 33 36  0  0  0  0  0  0  0  0999 V2000
   38.6440   24.2900   34.3980 C   0  0  0  0  0  0  0  0  0  0  0  0
   38.2860   23.3270   33.4670 C   0  0  0  0  0  0  0  0  0  0  0  0
   37.3820   23.6810   32.4590 C   0  0  0  0  0  0  0  0  0  0  0  0
   36.8600   24.9650   32.3950 C   0  0  0  0  0  0  0  0  0  0  0  0
   37.2430   25.8920   33.3410 C   0  0  0  0  0  0  0  0  0  0  0  0
   38.1070   25.5240   34.2910 N   0  0  0  0  0  0  0  0  0  0  0  0
   38.5590   22.2990   33.3040 H   0  0  0  0  0  0  0  0  0  0  0  0
   37.0040   23.0540   31.6650 H   0  0  0  0  0  0  0  0  0  0  0  0
   36.1610   25.3100   31.6490 H   0  0  0  0  0  0  0  0  0  0  0  0
   40.0440   22.8090   37.5450 C   0  0  0  0  0  0  0  0  0  0  0  0
   39.1000   23.3010   36.6000 C   0  0  0  0  0  0  0  0  0  0  0  0
   39.5730   23.7840   35.3750 C   0  0  0  0  0  0  0  0  0  0  0  0
   40.9170   23.7530   35.1660 N   0  0  0  0  0  0  0  0  0  0  0  0
   41.7880   23.2720   36.0980 C   0  0  0  0  0  0  0  0  0  0  0  0
   41.3480   22.8060   37.2770 N   0  0  0  0  0  0  0  0  0  0  0  0
   43.1310   23.3470   35.6450 N   0  0  0  0  0  0  0  0  0  0  0  0
   39.6950   22.4300   38.5000 H   0  0  0  0  0  0  0  0  0  0  0  0
   43.5510   24.3030   35.5780 H   0  0  0  0  0  0  0  0  0  0  0  0
   43.3860   22.3460   35.4780 H   0  0  0  0  0  0  0  0  0  0  0  0
   37.6640   23.2800   36.9550 C   0  0  0  0  0  0  0  0  0  0  0  0
   37.0740   24.5360   36.7840 F   0  0  0  0  0  0  0  0  0  0  0  0
   37.0090   22.3990   36.1740 F   0  0  0  0  0  0  0  0  0  0  0  0
   37.4370   22.9270   38.2870 F   0  0  0  0  0  0  0  0  0  0  0  0
   36.7490   27.2600   33.3390 C   0  0  0  0  0  0  0  0  0  0  0  0
   36.7280   28.1210   32.2660 C   0  0  0  0  0  0  0  0  0  0  0  0
   36.1840   29.3370   32.6440 C   0  0  0  0  0  0  0  0  0  0  0  0
   35.8850   29.1660   33.9680 N   0  0  0  0  0  0  0  0  0  0  0  0
   36.2210   27.9510   34.3520 N   0  0  0  0  0  0  0  0  0  0  0  0
   37.0710   27.9430   31.2510 H   0  0  0  0  0  0  0  0  0  0  0  0
   36.0440   30.2060   32.0020 H   0  0  0  0  0  0  0  0  0  0  0  0
   35.2810   30.2400   34.7510 C   0  0  0  0  0  3  0  0  0  0  0  0
   36.1500   30.9990   35.7120 C   0  0  0  0  0  2  0  0  0  0  0  0
   35.7290   31.6760   34.4590 C   0  0  0  0  0  2  0  0  0  0  0  0
  1 12  1  0  0  0  0
  2  1  2  0  0  0  0
  3  2  1  0  0  0  0
  4  3  2  0  0  0  0
  4  5  1  0  0  0  0
  5  6  2  0  0  0  0
  6  1  1  0  0  0  0
  7  2  1  0  0  0  0
  8  3  1  0  0  0  0
  9  4  1  0  0  0  0
 10 17  1  0  0  0  0
 11 20  1  0  0  0  0
 11 10  2  0  0  0  0
 12 11  1  0  0  0  0
 13 12  2  0  0  0  0
 13 14  1  0  0  0  0
 14 15  2  0  0  0  0
 15 10  1  0  0  0  0
 16 14  1  0  0  0  0
 18 16  1  0  0  0  0
 19 16  1  0  0  0  0
 20 23  1  0  0  0  0
 21 20  1  0  0  0  0
 22 20  1  0  0  0  0
 24  5  1  0  0  0  0
 24 28  2  0  0  0  0
 25 26  2  0  0  0  0
 25 24  1  0  0  0  0
 26 27  1  0  0  0  0
 27 28  1  0  0  0  0
 27 31  1  0  0  0  0
 29 25  1  0  0  0  0
 30 26  1  0  0  0  0
 31 32  1  0  0  0  0
 33 31  1  0  0  0  0
 33 32  1  0  0  0  0
M  END
>  <minimizedAffinity>
-5.65565205

$$$$

 OpenBabel03272508003D

 33 36  0  0  0  0  0  0  0  0999 V2000
   37.0650   27.2120   31.6270 C   0  0  0  0  0  0  0  0  0  0  0  0
   38.1760   27.6390   30.9150 C   0  0  0  0  0  0  0  0  0  0  0  0
   38.9860   26.6730   30.3060 C   0  0  0  0  0  0  0  0  0  0  0  0
   38.6820   25.3240   30.4150 C   0  0  0  0  0  0  0  0  0  0  0  0
   37.5680   24.9430   31.1320 C   0  0  0  0  0  0  0  0  0  0  0  0
   36.8140   25.8880   31.7010 N   0  0  0  0  0  0  0  0  0  0  0  0
   38.5980   28.6010   30.6830 H   0  0  0  0  0  0  0  0  0  0  0  0
   39.8800   26.8370   29.7220 H   0  0  0  0  0  0  0  0  0  0  0  0
   39.2580   24.5240   29.9740 H   0  0  0  0  0  0  0  0  0  0  0  0
   35.6690   29.6490   34.1100 C   0  0  0  0  0  0  0  0  0  0  0  0
   36.4080   28.5560   33.5740 C   0  0  0  0  0  0  0  0  0  0  0  0
   36.3310   28.3100   32.2000 C   0  0  0  0  0  0  0  0  0  0  0  0
   35.5470   29.1380   31.4570 N   0  0  0  0  0  0  0  0  0  0  0  0
   34.8560   30.1750   32.0100 C   0  0  0  0  0  0  0  0  0  0  0  0
   34.9200   30.4230   33.3280 N   0  0  0  0  0  0  0  0  0  0  0  0
   34.1130   30.8880   31.0320 N   0  0  0  0  0  0  0  0  0  0  0  0
   35.7170   29.8550   35.1740 H   0  0  0  0  0  0  0  0  0  0  0  0
   33.2820   30.3990   30.6260 H   0  0  0  0  0  0  0  0  0  0  0  0
   34.6250   31.7980   30.9560 H   0  0  0  0  0  0  0  0  0  0  0  0
   37.2210   27.7320   34.4940 C   0  0  0  0  0  0  0  0  0  0  0  0
   38.4890   27.4700   33.9660 F   0  0  0  0  0  0  0  0  0  0  0  0
   37.3810   28.3730   35.6690 F   0  0  0  0  0  0  0  0  0  0  0  0
   36.6500   26.4850   34.7590 F   0  0  0  0  0  0  0  0  0  0  0  0
   37.1760   23.5510   31.2860 C   0  0  0  0  0  0  0  0  0  0  0  0
   37.7920   22.4600   30.7160 C   0  0  0  0  0  0  0  0  0  0  0  0
   37.1390   21.2980   31.0910 C   0  0  0  0  0  0  0  0  0  0  0  0
   36.1230   21.7360   31.8960 N   0  0  0  0  0  0  0  0  0  0  0  0
   36.1630   23.0490   31.9960 N   0  0  0  0  0  0  0  0  0  0  0  0
   38.6590   22.4390   30.0630 H   0  0  0  0  0  0  0  0  0  0  0  0
   37.4050   20.2860   30.7910 H   0  0  0  0  0  0  0  0  0  0  0  0
   35.1850   20.7990   32.5070 C   0  0  0  0  0  3  0  0  0  0  0  0
   35.6490   19.3970   32.7740 C   0  0  0  0  0  2  0  0  0  0  0  0
   35.4840   20.3140   33.9300 C   0  0  0  0  0  2  0  0  0  0  0  0
  1  6  1  0  0  0  0
  1 12  1  0  0  0  0
  2  1  2  0  0  0  0
  3  4  2  0  0  0  0
  3  2  1  0  0  0  0
  4  5  1  0  0  0  0
  5 24  1  0  0  0  0
  5  6  2  0  0  0  0
  7  2  1  0  0  0  0
  8  3  1  0  0  0  0
  9  4  1  0  0  0  0
 10 17  1  0  0  0  0
 11 10  1  0  0  0  0
 11 20  1  0  0  0  0
 12 11  2  0  0  0  0
 13 14  2  0  0  0  0
 13 12  1  0  0  0  0
 14 15  1  0  0  0  0
 15 10  2  0  0  0  0
 16 14  1  0  0  0  0
 18 16  1  0  0  0  0
 19 16  1  0  0  0  0
 20 23  1  0  0  0  0
 20 22  1  0  0  0  0
 21 20  1  0  0  0  0
 24 28  2  0  0  0  0
 25 26  2  0  0  0  0
 25 24  1  0  0  0  0
 26 27  1  0  0  0  0
 27 28  1  0  0  0  0
 27 31  1  0  0  0  0
 29 25  1  0  0  0  0
 30 26  1  0  0  0  0
 31 32  1  0  0  0  0
 31 33  1  0  0  0  0
 32 33  1  0  0  0  0
M  END
>  <minimizedAffinity>
-5.62353277

$$$$

 OpenBabel03272508003D

 33 36  0  0  0  0  0  0  0  0999 V2000
   37.6370   25.3040   32.8590 C   0  0  0  0  0  0  0  0  0  0  0  0
   38.7470   25.5260   32.0580 C   0  0  0  0  0  0  0  0  0  0  0  0
   38.9640   26.8180   31.5660 C   0  0  0  0  0  0  0  0  0  0  0  0
   38.0870   27.8480   31.8740 C   0  0  0  0  0  0  0  0  0  0  0  0
   36.9960   27.5850   32.6730 C   0  0  0  0  0  0  0  0  0  0  0  0
   36.8160   26.3410   33.1270 N   0  0  0  0  0  0  0  0  0  0  0  0
   39.5550   24.9100   31.7030 H   0  0  0  0  0  0  0  0  0  0  0  0
   39.7730   27.1540   30.9350 H   0  0  0  0  0  0  0  0  0  0  0  0
   38.1890   28.8680   31.5320 H   0  0  0  0  0  0  0  0  0  0  0  0
   36.6960   21.6770   32.9980 C   0  0  0  0  0  0  0  0  0  0  0  0
   36.7730   23.0260   32.5470 C   0  0  0  0  0  0  0  0  0  0  0  0
   37.5390   23.9330   33.2870 C   0  0  0  0  0  0  0  0  0  0  0  0
   38.1660   23.4630   34.3990 N   0  0  0  0  0  0  0  0  0  0  0  0
   38.0670   22.1620   34.7960 C   0  0  0  0  0  0  0  0  0  0  0  0
   37.3350   21.2820   34.0960 N   0  0  0  0  0  0  0  0  0  0  0  0
   38.8070   21.9200   35.9830 N   0  0  0  0  0  0  0  0  0  0  0  0
   36.1070   20.9600   32.4360 H   0  0  0  0  0  0  0  0  0  0  0  0
   38.4300   22.3380   36.8650 H   0  0  0  0  0  0  0  0  0  0  0  0
   39.6110   21.3370   35.6520 H   0  0  0  0  0  0  0  0  0  0  0  0
   36.0400   23.4060   31.3200 C   0  0  0  0  0  0  0  0  0  0  0  0
   36.9010   23.9210   30.3460 F   0  0  0  0  0  0  0  0  0  0  0  0
   35.4180   22.3280   30.8020 F   0  0  0  0  0  0  0  0  0  0  0  0
   35.0780   24.3930   31.5430 F   0  0  0  0  0  0  0  0  0  0  0  0
   36.0350   28.6100   33.0480 C   0  0  0  0  0  0  0  0  0  0  0  0
   34.8990   28.9600   32.3540 C   0  0  0  0  0  0  0  0  0  0  0  0
   34.2320   29.9760   33.0190 C   0  0  0  0  0  0  0  0  0  0  0  0
   35.0080   30.2130   34.1200 N   0  0  0  0  0  0  0  0  0  0  0  0
   36.0510   29.4080   34.1180 N   0  0  0  0  0  0  0  0  0  0  0  0
   34.5230   28.5460   31.4240 H   0  0  0  0  0  0  0  0  0  0  0  0
   33.3050   30.4500   32.7010 H   0  0  0  0  0  0  0  0  0  0  0  0
   34.6400   31.2340   35.0960 C   0  0  0  0  0  3  0  0  0  0  0  0
   35.6410   31.6080   36.1500 C   0  0  0  0  0  2  0  0  0  0  0  0
   35.3880   32.5710   35.0480 C   0  0  0  0  0  2  0  0  0  0  0  0
  1  6  1  0  0  0  0
  1 12  1  0  0  0  0
  2  1  2  0  0  0  0
  3  4  2  0  0  0  0
  3  2  1  0  0  0  0
  4  5  1  0  0  0  0
  5 24  1  0  0  0  0
  5  6  2  0  0  0  0
  7  2  1  0  0  0  0
  8  3  1  0  0  0  0
  9  4  1  0  0  0  0
 10 15  1  0  0  0  0
 11 10  2  0  0  0  0
 11 12  1  0  0  0  0
 12 13  2  0  0  0  0
 13 14  1  0  0  0  0
 14 16  1  0  0  0  0
 15 14  2  0  0  0  0
 16 18  1  0  0  0  0
 17 10  1  0  0  0  0
 19 16  1  0  0  0  0
 20 23  1  0  0  0  0
 20 11  1  0  0  0  0
 21 20  1  0  0  0  0
 22 20  1  0  0  0  0
 24 28  2  0  0  0  0
 25 26  2  0  0  0  0
 25 24  1  0  0  0  0
 26 27  1  0  0  0  0
 27 31  1  0  0  0  0
 28 27  1  0  0  0  0
 29 25  1  0  0  0  0
 30 26  1  0  0  0  0
 31 32  1  0  0  0  0
 33 31  1  0  0  0  0
 33 32  1  0  0  0  0
M  END
>  <minimizedAffinity>
-5.58260727

$$$$

 OpenBabel03272508003D

 33 36  0  0  0  0  0  0  0  0999 V2000
   36.8770   26.8290   31.2250 C   0  0  0  0  0  0  0  0  0  0  0  0
   35.7970   26.1120   30.7320 C   0  0  0  0  0  0  0  0  0  0  0  0
   35.5510   24.8380   31.2580 C   0  0  0  0  0  0  0  0  0  0  0  0
   36.3690   24.3100   32.2460 C   0  0  0  0  0  0  0  0  0  0  0  0
   37.4320   25.0580   32.7080 C   0  0  0  0  0  0  0  0  0  0  0  0
   37.6410   26.2700   32.1860 N   0  0  0  0  0  0  0  0  0  0  0  0
   35.0330   26.3080   30.0010 H   0  0  0  0  0  0  0  0  0  0  0  0
   34.7600   24.1560   30.9850 H   0  0  0  0  0  0  0  0  0  0  0  0
   36.2420   23.3380   32.6980 H   0  0  0  0  0  0  0  0  0  0  0  0
   36.6210   30.5090   30.5510 C   0  0  0  0  0  0  0  0  0  0  0  0
   36.4740   29.2520   31.2040 C   0  0  0  0  0  0  0  0  0  0  0  0
   37.0100   28.1150   30.5910 C   0  0  0  0  0  0  0  0  0  0  0  0
   37.6420   28.2860   29.3980 N   0  0  0  0  0  0  0  0  0  0  0  0
   37.7620   29.5090   28.8060 C   0  0  0  0  0  0  0  0  0  0  0  0
   37.2520   30.6080   29.3840 N   0  0  0  0  0  0  0  0  0  0  0  0
   38.4590   29.4260   27.5730 N   0  0  0  0  0  0  0  0  0  0  0  0
   36.2120   31.4010   31.0130 H   0  0  0  0  0  0  0  0  0  0  0  0
   37.9560   28.9640   26.7800 H   0  0  0  0  0  0  0  0  0  0  0  0
   39.3770   29.8850   27.7810 H   0  0  0  0  0  0  0  0  0  0  0  0
   35.7610   29.2060   32.5000 C   0  0  0  0  0  0  0  0  0  0  0  0
   36.5470   28.6230   33.4990 F   0  0  0  0  0  0  0  0  0  0  0  0
   35.4400   30.4540   32.8940 F   0  0  0  0  0  0  0  0  0  0  0  0
   34.5850   28.4540   32.4490 F   0  0  0  0  0  0  0  0  0  0  0  0
   38.3300   24.5810   33.7460 C   0  0  0  0  0  0  0  0  0  0  0  0
   39.5790   25.0800   34.0410 C   0  0  0  0  0  0  0  0  0  0  0  0
   40.1360   24.3730   35.0930 C   0  0  0  0  0  0  0  0  0  0  0  0
   39.1800   23.4460   35.4090 N   0  0  0  0  0  0  0  0  0  0  0  0
   38.1390   23.5840   34.6140 N   0  0  0  0  0  0  0  0  0  0  0  0
   40.1080   25.8980   33.5620 H   0  0  0  0  0  0  0  0  0  0  0  0
   41.1140   24.5480   35.5380 H   0  0  0  0  0  0  0  0  0  0  0  0
   39.3870   22.4870   36.4900 C   0  0  0  0  0  3  0  0  0  0  0  0
   40.6060   22.6350   37.3530 C   0  0  0  0  0  2  0  0  0  0  0  0
   39.2880   23.0020   37.9300 C   0  0  0  0  0  2  0  0  0  0  0  0
  1  6  1  0  0  0  0
  2  1  2  0  0  0  0
  2  3  1  0  0  0  0
  3  4  2  0  0  0  0
  4  9  1  0  0  0  0
  4  5  1  0  0  0  0
  5 24  1  0  0  0  0
  6  5  2  0  0  0  0
  7  2  1  0  0  0  0
  8  3  1  0  0  0  0
 10 17  1  0  0  0  0
 10 11  1  0  0  0  0
 11 20  1  0  0  0  0
 12 11  2  0  0  0  0
 12  1  1  0  0  0  0
 13 12  1  0  0  0  0
 14 15  1  0  0  0  0
 14 13  2  0  0  0  0
 15 10  2  0  0  0  0
 16 19  1  0  0  0  0
 16 14  1  0  0  0  0
 18 16  1  0  0  0  0
 20 22  1  0  0  0  0
 20 21  1  0  0  0  0
 23 20  1  0  0  0  0
 24 25  1  0  0  0  0
 24 28  2  0  0  0  0
 25 26  2  0  0  0  0
 26 27  1  0  0  0  0
 26 30  1  0  0  0  0
 27 31  1  0  0  0  0
 28 27  1  0  0  0  0
 29 25  1  0  0  0  0
 31 32  1  0  0  0  0
 31 33  1  0  0  0  0
 32 33  1  0  0  0  0
M  END
>  <minimizedAffinity>
-5.55858755

$$$$

 OpenBabel03272508003D

 33 36  0  0  0  0  0  0  0  0999 V2000
   37.4410   26.7540   33.1770 C   0  0  0  0  0  0  0  0  0  0  0  0
   37.7430   27.0550   31.8570 C   0  0  0  0  0  0  0  0  0  0  0  0
   37.2170   28.2300   31.3070 C   0  0  0  0  0  0  0  0  0  0  0  0
   36.4160   29.0690   32.0670 C   0  0  0  0  0  0  0  0  0  0  0  0
   36.1410   28.7330   33.3750 C   0  0  0  0  0  0  0  0  0  0  0  0
   36.6570   27.6040   33.8710 N   0  0  0  0  0  0  0  0  0  0  0  0
   38.3360   26.5830   31.0940 H   0  0  0  0  0  0  0  0  0  0  0  0
   37.3540   28.6050   30.3040 H   0  0  0  0  0  0  0  0  0  0  0  0
   35.9760   29.9900   31.7120 H   0  0  0  0  0  0  0  0  0  0  0  0
   39.8040   24.3030   34.7470 C   0  0  0  0  0  0  0  0  0  0  0  0
   39.2320   25.5420   34.3410 C   0  0  0  0  0  0  0  0  0  0  0  0
   38.0440   25.5180   33.6040 C   0  0  0  0  0  0  0  0  0  0  0  0
   37.5060   24.3000   33.3210 N   0  0  0  0  0  0  0  0  0  0  0  0
   38.0860   23.1360   33.7300 C   0  0  0  0  0  0  0  0  0  0  0  0
   39.2270   23.1440   34.4370 N   0  0  0  0  0  0  0  0  0  0  0  0
   37.3380   22.0050   33.3100 N   0  0  0  0  0  0  0  0  0  0  0  0
   40.7250   24.3020   35.3200 H   0  0  0  0  0  0  0  0  0  0  0  0
   37.3520   21.7860   32.2870 H   0  0  0  0  0  0  0  0  0  0  0  0
   36.9260   21.6420   34.2020 H   0  0  0  0  0  0  0  0  0  0  0  0
   39.9210   26.7960   34.7150 C   0  0  0  0  0  0  0  0  0  0  0  0
   39.1770   27.5350   35.6400 F   0  0  0  0  0  0  0  0  0  0  0  0
   41.1190   26.5180   35.2670 F   0  0  0  0  0  0  0  0  0  0  0  0
   40.1350   27.6460   33.6280 F   0  0  0  0  0  0  0  0  0  0  0  0
   35.3170   29.5620   34.2390 C   0  0  0  0  0  0  0  0  0  0  0  0
   35.7380   30.6430   34.9800 C   0  0  0  0  0  0  0  0  0  0  0  0
   34.6710   31.1840   35.6780 C   0  0  0  0  0  0  0  0  0  0  0  0
   33.6120   30.3920   35.3260 N   0  0  0  0  0  0  0  0  0  0  0  0
   34.0090   29.4560   34.4890 N   0  0  0  0  0  0  0  0  0  0  0  0
   36.7370   31.0610   35.0540 H   0  0  0  0  0  0  0  0  0  0  0  0
   34.7100   32.0440   36.3440 H   0  0  0  0  0  0  0  0  0  0  0  0
   32.2760   30.6370   35.8600 C   0  0  0  0  0  3  0  0  0  0  0  0
   31.2070   29.6140   35.6080 C   0  0  0  0  0  2  0  0  0  0  0  0
   31.7730   29.7170   36.9770 C   0  0  0  0  0  2  0  0  0  0  0  0
  1 12  1  0  0  0  0
  1  6  1  0  0  0  0
  2  1  2  0  0  0  0
  3  2  1  0  0  0  0
  3  4  2  0  0  0  0
  4  5  1  0  0  0  0
  5  6  2  0  0  0  0
  5 24  1  0  0  0  0
  7  2  1  0  0  0  0
  8  3  1  0  0  0  0
  9  4  1  0  0  0  0
 10 17  1  0  0  0  0
 11 20  1  0  0  0  0
 11 10  2  0  0  0  0
 12 11  1  0  0  0  0
 13 12  2  0  0  0  0
 13 14  1  0  0  0  0
 14 15  2  0  0  0  0
 15 10  1  0  0  0  0
 16 14  1  0  0  0  0
 16 19  1  0  0  0  0
 18 16  1  0  0  0  0
 20 22  1  0  0  0  0
 20 21  1  0  0  0  0
 23 20  1  0  0  0  0
 24 28  2  0  0  0  0
 24 25  1  0  0  0  0
 25 29  1  0  0  0  0
 25 26  2  0  0  0  0
 26 30  1  0  0  0  0
 27 26  1  0  0  0  0
 27 31  1  0  0  0  0
 28 27  1  0  0  0  0
 31 33  1  0  0  0  0
 32 31  1  0  0  0  0
 32 33  1  0  0  0  0
M  END
>  <minimizedAffinity>
-5.51925182

$$$$

 OpenBabel03272508003D

 33 36  0  0  0  0  0  0  0  0999 V2000
   37.2500   25.2580   32.5120 C   0  0  0  0  0  0  0  0  0  0  0  0
   36.4220   26.1700   31.8750 C   0  0  0  0  0  0  0  0  0  0  0  0
   35.3610   25.6780   31.1050 C   0  0  0  0  0  0  0  0  0  0  0  0
   35.1470   24.3130   30.9850 C   0  0  0  0  0  0  0  0  0  0  0  0
   35.9940   23.4410   31.6360 C   0  0  0  0  0  0  0  0  0  0  0  0
   36.9980   23.9410   32.3630 N   0  0  0  0  0  0  0  0  0  0  0  0
   36.3780   27.2440   31.8300 H   0  0  0  0  0  0  0  0  0  0  0  0
   34.6330   26.2490   30.5490 H   0  0  0  0  0  0  0  0  0  0  0  0
   34.3520   23.8610   30.4100 H   0  0  0  0  0  0  0  0  0  0  0  0
   40.6090   26.5870   33.5150 C   0  0  0  0  0  0  0  0  0  0  0  0
   39.5970   25.9420   32.7490 C   0  0  0  0  0  0  0  0  0  0  0  0
   38.2960   25.9050   33.2610 C   0  0  0  0  0  0  0  0  0  0  0  0
   38.0810   26.4920   34.4690 N   0  0  0  0  0  0  0  0  0  0  0  0
   39.0790   27.1010   35.1710 C   0  0  0  0  0  0  0  0  0  0  0  0
   40.3320   27.1440   34.6910 N   0  0  0  0  0  0  0  0  0  0  0  0
   38.6050   27.6350   36.3980 N   0  0  0  0  0  0  0  0  0  0  0  0
   41.6240   26.6270   33.1320 H   0  0  0  0  0  0  0  0  0  0  0  0
   38.3470   26.9450   37.1410 H   0  0  0  0  0  0  0  0  0  0  0  0
   38.6340   28.6690   36.2390 H   0  0  0  0  0  0  0  0  0  0  0  0
   39.9660   25.3410   31.4490 C   0  0  0  0  0  0  0  0  0  0  0  0
   39.1710   25.8330   30.4100 F   0  0  0  0  0  0  0  0  0  0  0  0
   41.2530   25.6220   31.1600 F   0  0  0  0  0  0  0  0  0  0  0  0
   39.8140   23.9530   31.4260 F   0  0  0  0  0  0  0  0  0  0  0  0
   35.8330   21.9980   31.5680 C   0  0  0  0  0  0  0  0  0  0  0  0
   34.9590   21.2360   32.3110 C   0  0  0  0  0  0  0  0  0  0  0  0
   35.0880   19.9000   31.9710 C   0  0  0  0  0  0  0  0  0  0  0  0
   36.0600   19.8980   31.0080 N   0  0  0  0  0  0  0  0  0  0  0  0
   36.4790   21.1280   30.7890 N   0  0  0  0  0  0  0  0  0  0  0  0
   34.2510   21.5650   33.0650 H   0  0  0  0  0  0  0  0  0  0  0  0
   34.5250   19.0720   32.3980 H   0  0  0  0  0  0  0  0  0  0  0  0
   36.4970   18.6550   30.3780 C   0  0  0  0  0  3  0  0  0  0  0  0
   37.5090   18.7320   29.2730 C   0  0  0  0  0  2  0  0  0  0  0  0
   37.9490   18.2160   30.5940 C   0  0  0  0  0  2  0  0  0  0  0  0
  1 12  1  0  0  0  0
  2  1  2  0  0  0  0
  3  2  1  0  0  0  0
  4  3  2  0  0  0  0
  4  5  1  0  0  0  0
  5  6  2  0  0  0  0
  6  1  1  0  0  0  0
  7  2  1  0  0  0  0
  8  3  1  0  0  0  0
  9  4  1  0  0  0  0
 10 15  1  0  0  0  0
 11 12  1  0  0  0  0
 11 10  2  0  0  0  0
 12 13  2  0  0  0  0
 13 14  1  0  0  0  0
 14 16  1  0  0  0  0
 15 14  2  0  0  0  0
 16 18  1  0  0  0  0
 17 10  1  0  0  0  0
 19 16  1  0  0  0  0
 20 11  1  0  0  0  0
 21 20  1  0  0  0  0
 22 20  1  0  0  0  0
 23 20  1  0  0  0  0
 24  5  1  0  0  0  0
 24 25  1  0  0  0  0
 25 29  1  0  0  0  0
 26 25  2  0  0  0  0
 26 30  1  0  0  0  0
 27 26  1  0  0  0  0
 28 27  1  0  0  0  0
 28 24  2  0  0  0  0
 31 33  1  0  0  0  0
 31 27  1  0  0  0  0
 32 31  1  0  0  0  0
 32 33  1  0  0  0  0
M  END
>  <minimizedAffinity>
-5.49050665

$$$$

 OpenBabel03272508003D

 33 36  0  0  0  0  0  0  0  0999 V2000
   38.5880   23.0970   34.3730 C   0  0  0  0  0  0  0  0  0  0  0  0
   37.9330   21.9930   33.8480 C   0  0  0  0  0  0  0  0  0  0  0  0
   37.0060   22.1980   32.8190 C   0  0  0  0  0  0  0  0  0  0  0  0
   36.7530   23.4740   32.3390 C   0  0  0  0  0  0  0  0  0  0  0  0
   37.4270   24.5440   32.8880 C   0  0  0  0  0  0  0  0  0  0  0  0
   38.3050   24.3170   33.8700 N   0  0  0  0  0  0  0  0  0  0  0  0
   37.9690   20.9350   34.0390 H   0  0  0  0  0  0  0  0  0  0  0  0
   36.4160   21.4520   32.3080 H   0  0  0  0  0  0  0  0  0  0  0  0
   36.0540   23.7090   31.5500 H   0  0  0  0  0  0  0  0  0  0  0  0
   40.0850   22.5970   37.7740 C   0  0  0  0  0  0  0  0  0  0  0  0
   39.1560   22.9630   36.7590 C   0  0  0  0  0  0  0  0  0  0  0  0
   39.5050   22.7370   35.4230 C   0  0  0  0  0  0  0  0  0  0  0  0
   40.7210   22.1790   35.1790 N   0  0  0  0  0  0  0  0  0  0  0  0
   41.5820   21.8420   36.1810 C   0  0  0  0  0  0  0  0  0  0  0  0
   41.2600   22.0540   37.4670 N   0  0  0  0  0  0  0  0  0  0  0  0
   42.7820   21.2790   35.6730 N   0  0  0  0  0  0  0  0  0  0  0  0
   39.8300   22.7640   38.8150 H   0  0  0  0  0  0  0  0  0  0  0  0
   43.4330   21.9320   35.1770 H   0  0  0  0  0  0  0  0  0  0  0  0
   42.7100   20.2710   35.9420 H   0  0  0  0  0  0  0  0  0  0  0  0
   37.8660   23.5640   37.1610 C   0  0  0  0  0  0  0  0  0  0  0  0
   36.7850   22.7560   36.7960 F   0  0  0  0  0  0  0  0  0  0  0  0
   37.8320   23.7290   38.4990 F   0  0  0  0  0  0  0  0  0  0  0  0
   37.6340   24.8070   36.5690 F   0  0  0  0  0  0  0  0  0  0  0  0
   37.2250   25.9110   32.4360 C   0  0  0  0  0  0  0  0  0  0  0  0
   37.1140   27.0290   33.2320 C   0  0  0  0  0  0  0  0  0  0  0  0
   36.9300   28.1540   32.4470 C   0  0  0  0  0  0  0  0  0  0  0  0
   36.9360   27.6670   31.1680 N   0  0  0  0  0  0  0  0  0  0  0  0
   37.1090   26.3610   31.1850 N   0  0  0  0  0  0  0  0  0  0  0  0
   37.1550   27.0920   34.3150 H   0  0  0  0  0  0  0  0  0  0  0  0
   36.8120   29.1750   32.8060 H   0  0  0  0  0  0  0  0  0  0  0  0
   36.7670   28.5550   30.0210 C   0  0  0  0  0  3  0  0  0  0  0  0
   37.1940   29.9870   30.1580 C   0  0  0  0  0  2  0  0  0  0  0  0
   38.0300   29.0800   29.3310 C   0  0  0  0  0  2  0  0  0  0  0  0
  1 12  1  0  0  0  0
  2  7  1  0  0  0  0
  2  1  2  0  0  0  0
  3  2  1  0  0  0  0
  4  3  2  0  0  0  0
  4  5  1  0  0  0  0
  5  6  2  0  0  0  0
  6  1  1  0  0  0  0
  8  3  1  0  0  0  0
  9  4  1  0  0  0  0
 10 17  1  0  0  0  0
 11 20  1  0  0  0  0
 11 10  2  0  0  0  0
 12 11  1  0  0  0  0
 13 12  2  0  0  0  0
 13 14  1  0  0  0  0
 14 15  2  0  0  0  0
 15 10  1  0  0  0  0
 16 19  1  0  0  0  0
 16 14  1  0  0  0  0
 18 16  1  0  0  0  0
 20 22  1  0  0  0  0
 21 20  1  0  0  0  0
 23 20  1  0  0  0  0
 24  5  1  0  0  0  0
 24 25  1  0  0  0  0
 25 29  1  0  0  0  0
 26 30  1  0  0  0  0
 26 25  2  0  0  0  0
 27 28  1  0  0  0  0
 27 26  1  0  0  0  0
 28 24  2  0  0  0  0
 31 32  1  0  0  0  0
 31 27  1  0  0  0  0
 33 31  1  0  0  0  0
 33 32  1  0  0  0  0
M  END
>  <minimizedAffinity>
-5.4693284

$$$$
