
 OpenBabel03272508273D

 32 35  0  0  1  0  0  0  0  0999 V2000
   35.6230   30.3750   49.0320 C   0  0  1  0  0  0  0  0  0  0  0  0
   35.7040   28.9590   48.7610 C   0  0  1  0  0  0  0  0  0  0  0  0
   35.8910   29.3870   50.1790 C   0  0  0  0  0  0  0  0  0  0  0  0
   34.7080   30.9660   49.2500 H   0  0  0  0  0  0  0  0  0  0  0  0
   36.6440   28.6350   48.2220 H   0  0  0  0  0  0  0  0  0  0  0  0
   36.9040   29.3340   50.6120 H   0  0  0  0  0  0  0  0  0  0  0  0
   35.0670   29.1410   50.8720 H   0  0  0  0  0  0  0  0  0  0  0  0
   33.8240   28.9070   47.2290 C   0  0  2  0  0  0  0  0  0  0  0  0
   34.5320   28.1390   48.3360 C   0  0  2  0  0  0  0  0  0  0  0  0
   33.6150   27.9980   49.3350 O   0  0  0  0  0  0  0  0  0  0  0  0
   32.3480   28.0840   48.8390 C   0  0  0  0  0  0  0  0  0  0  0  0
   32.4370   28.2640   47.3390 C   0  0  1  0  0  0  0  0  0  0  0  0
   33.6830   29.9720   47.4630 H   0  0  0  0  0  0  0  0  0  0  0  0
   34.8010   27.1510   47.9040 H   0  0  0  0  0  0  0  0  0  0  0  0
   31.8890   29.0100   49.2420 H   0  0  0  0  0  0  0  0  0  0  0  0
   31.6920   27.2330   49.1040 H   0  0  0  0  0  0  0  0  0  0  0  0
   32.4690   27.2190   46.9220 H   0  0  0  0  0  0  0  0  0  0  0  0
   34.3800   28.6980   45.9780 O   0  0  0  0  0  0  0  0  0  0  0  0
   34.3880   29.5480   45.4990 H   0  0  0  0  0  0  0  0  0  0  0  0
   31.4620   29.0520   46.7980 O   0  0  0  0  0  0  0  0  0  0  0  0
   30.6740   28.4050   45.8620 C   0  0  0  0  0  3  0  0  0  0  0  0
   31.0920   28.2570   44.4580 C   0  0  0  0  0  2  0  0  0  0  0  0
   31.0280   27.0510   45.3680 C   0  0  0  0  0  2  0  0  0  0  0  0
   36.8080   31.2950   48.7940 C   0  0  0  0  0  0  0  0  0  0  0  0
   37.0570   32.2910   49.7360 C   0  0  0  0  0  0  0  0  0  0  0  0
   38.1380   33.1120   49.4550 C   0  0  0  0  0  0  0  0  0  0  0  0
   38.8870   32.9380   48.3330 N   0  0  0  0  0  0  0  0  0  0  0  0
   38.6090   31.9480   47.4350 C   0  0  0  0  0  0  0  0  0  0  0  0
   37.5550   31.1210   47.6760 N   0  0  0  0  0  0  0  0  0  0  0  0
   36.4240   32.3750   50.6050 H   0  0  0  0  0  0  0  0  0  0  0  0
   38.3710   33.9070   50.1660 H   0  0  0  0  0  0  0  0  0  0  0  0
   39.1910   31.7930   46.5360 H   0  0  0  0  0  0  0  0  0  0  0  0
  1  4  1  6  0  0  0
  1  3  1  0  0  0  0
  2  5  1  6  0  0  0
  2  1  1  0  0  0  0
  2  3  1  0  0  0  0
  3  6  1  0  0  0  0
  3  7  1  0  0  0  0
  8 12  1  0  0  0  0
  8 13  1  1  0  0  0
  8  9  1  0  0  0  0
  9 14  1  6  0  0  0
  9  2  1  0  0  0  0
  9 10  1  0  0  0  0
 11 16  1  0  0  0  0
 11 15  1  0  0  0  0
 11 10  1  0  0  0  0
 12 17  1  6  0  0  0
 12 11  1  0  0  0  0
 18  8  1  0  0  0  0
 19 18  1  0  0  0  0
 20 12  1  0  0  0  0
 21 20  1  0  0  0  0
 22 23  1  0  0  0  0
 22 21  1  0  0  0  0
 23 21  1  0  0  0  0
 24  1  1  0  0  0  0
 24 25  1  0  0  0  0
 25 30  1  0  0  0  0
 26 25  2  0  0  0  0
 26 31  1  0  0  0  0
 27 26  1  0  0  0  0
 28 29  1  0  0  0  0
 28 27  2  0  0  0  0
 29 24  2  0  0  0  0
 32 28  1  0  0  0  0
M  END
>  <minimizedAffinity>
-4.57995272

>  <minimizedRMSD>
0.5134359

$$$$
