
 OpenBabel03272503053D

 26 28  0  0  0  0  0  0  0  0999 V2000
   38.4570   30.4320   47.2870 F   0  0  0  0  0  0  0  0  0  0  0  0
   38.7500   31.6590   47.7730 C   0  0  0  0  0  0  0  0  0  0  0  0
   38.2040   32.0680   48.9600 C   0  0  0  0  0  0  0  0  0  0  0  0
   38.5380   33.3230   49.4040 C   0  0  0  0  0  0  0  0  0  0  0  0
   39.3790   34.1550   48.7090 C   0  0  0  0  0  0  0  0  0  0  0  0
   39.9150   33.7200   47.5180 C   0  0  0  0  0  0  0  0  0  0  0  0
   39.5980   32.4600   47.0430 C   0  0  0  0  0  0  0  0  0  0  0  0
   38.0960   33.6400   50.3530 H   0  0  0  0  0  0  0  0  0  0  0  0
   39.5780   35.1180   49.1410 H   0  0  0  0  0  0  0  0  0  0  0  0
   40.5830   34.3860   46.9720 H   0  0  0  0  0  0  0  0  0  0  0  0
   36.7950   29.5710   51.4450 C   0  0  0  0  0  0  0  0  0  0  0  0
   37.6890   30.4500   50.8060 C   0  0  0  0  0  0  0  0  0  0  0  0
   37.3100   31.1410   49.6640 C   0  0  0  0  0  0  0  0  0  0  0  0
   36.0360   30.9220   49.2020 N   0  0  0  0  0  0  0  0  0  0  0  0
   35.1970   30.0730   49.8340 C   0  0  0  0  0  0  0  0  0  0  0  0
   35.5710   29.4130   50.9320 N   0  0  0  0  0  0  0  0  0  0  0  0
   37.0960   29.0350   52.3370 H   0  0  0  0  0  0  0  0  0  0  0  0
   38.6860   30.5970   51.1990 H   0  0  0  0  0  0  0  0  0  0  0  0
   34.2480   30.0450   49.3110 H   0  0  0  0  0  0  0  0  0  0  0  0
   39.2990   32.1880   44.6770 C   0  0  0  0  0  0  0  0  0  0  0  0
   38.2090   32.7830   44.9330 O   0  0  0  0  0  0  0  0  0  0  0  0
   40.1400   31.9830   45.8100 N   0  0  0  0  0  0  0  0  0  0  0  0
   41.0630   31.5210   45.7040 H   0  0  0  0  0  0  0  0  0  0  0  0
   39.7370   31.7120   43.3380 C   0  0  0  0  0  0  0  0  0  0  0  0
   40.5880   30.5060   43.2320 C   0  0  0  0  0  0  0  0  0  0  0  0
   39.1760   30.4500   42.7650 C   0  0  0  0  0  0  0  0  0  0  0  0
  1  2  1  0  0  0  0
  2  3  1  0  0  0  0
  3  4  2  0  0  0  0
  3 13  1  0  0  0  0
  4  8  1  0  0  0  0
  5  9  1  0  0  0  0
  5  4  1  0  0  0  0
  6  5  2  0  0  0  0
  7  6  1  0  0  0  0
  7  2  2  0  0  0  0
 10  6  1  0  0  0  0
 11 17  1  0  0  0  0
 12 18  1  0  0  0  0
 12 11  2  0  0  0  0
 13 12  1  0  0  0  0
 14 13  2  0  0  0  0
 14 15  1  0  0  0  0
 15 16  2  0  0  0  0
 16 11  1  0  0  0  0
 19 15  1  0  0  0  0
 20 21  2  0  0  0  0
 20 22  1  0  0  0  0
 22  7  1  0  0  0  0
 23 22  1  0  0  0  0
 24 20  1  0  0  0  0
 25 24  1  0  0  0  0
 26 25  1  0  0  0  0
 26 24  1  0  0  0  0
M  END
>  <minimizedAffinity>
-6.14610767

>  <minimizedRMSD>
0.239412978

$$$$
