
 OpenBabel03272508343D

 19 21  0  0  0  0  0  0  0  0999 V2000
   35.5250   30.1280   47.7240 C   0  0  0  0  0  0  0  0  0  0  0  0
   36.2250   30.3700   46.5620 C   0  0  0  0  0  0  0  0  0  0  0  0
   37.3630   31.0990   46.9000 C   0  0  0  0  0  0  0  0  0  0  0  0
   37.3130   31.2700   48.2340 N   0  0  0  0  0  0  0  0  0  0  0  0
   36.2060   30.6880   48.7510 N   0  0  0  0  0  0  0  0  0  0  0  0
   35.9810   30.0740   45.5550 H   0  0  0  0  0  0  0  0  0  0  0  0
   38.1190   31.4500   46.2370 H   0  0  0  0  0  0  0  0  0  0  0  0
   32.6960   27.8490   48.7000 C   0  0  0  0  0  0  0  0  0  0  0  0
   33.9210   28.5080   48.7840 C   0  0  0  0  0  0  0  0  0  0  0  0
   34.2690   29.3830   47.7450 C   0  0  0  0  0  0  0  0  0  0  0  0
   33.3870   29.5440   46.7000 N   0  0  0  0  0  0  0  0  0  0  0  0
   32.2010   28.8780   46.6640 C   0  0  0  0  0  0  0  0  0  0  0  0
   31.8560   28.0370   47.6520 N   0  0  0  0  0  0  0  0  0  0  0  0
   32.4290   27.1750   49.5040 H   0  0  0  0  0  0  0  0  0  0  0  0
   34.6140   28.3900   49.5930 H   0  0  0  0  0  0  0  0  0  0  0  0
   31.6050   29.0970   45.7860 H   0  0  0  0  0  0  0  0  0  0  0  0
   38.2830   31.9680   49.0340 C   0  0  0  0  0  3  0  0  0  0  0  0
   39.0240   33.1170   48.4880 C   0  0  0  0  0  2  0  0  0  0  0  0
   37.9400   33.4180   49.4600 C   0  0  0  0  0  2  0  0  0  0  0  0
  1 10  1  0  0  0  0
  1  5  2  0  0  0  0
  2  3  2  0  0  0  0
  2  1  1  0  0  0  0
  3  4  1  0  0  0  0
  4  5  1  0  0  0  0
  4 17  1  0  0  0  0
  6  2  1  0  0  0  0
  7  3  1  0  0  0  0
  8  9  1  0  0  0  0
  8 14  1  0  0  0  0
  9 15  1  0  0  0  0
 10  9  2  0  0  0  0
 11 10  1  0  0  0  0
 12 11  2  0  0  0  0
 12 13  1  0  0  0  0
 13  8  2  0  0  0  0
 16 12  1  0  0  0  0
 17 19  1  0  0  0  0
 18 17  1  0  0  0  0
 18 19  1  0  0  0  0
M  END
>  <minimizedAffinity>
-4.19791889

>  <minimizedRMSD>
4.17518425

$$$$
