
 OpenBabel03272510313D

 26 28  0  0  0  0  0  0  0  0999 V2000
   36.9960   26.8640   33.6590 C   0  0  0  0  0  0  0  0  0  0  0  0
   36.5420   28.0400   33.0870 C   0  0  0  0  0  0  0  0  0  0  0  0
   36.1180   27.9160   31.7740 C   0  0  0  0  0  0  0  0  0  0  0  0
   36.1600   26.7190   31.1330 N   0  0  0  0  0  0  0  0  0  0  0  0
   36.6110   25.5950   31.7270 C   0  0  0  0  0  0  0  0  0  0  0  0
   37.0400   25.6760   33.0230 N   0  0  0  0  0  0  0  0  0  0  0  0
   36.5420   28.9490   33.6690 H   0  0  0  0  0  0  0  0  0  0  0  0
   35.7520   28.8130   31.2840 H   0  0  0  0  0  0  0  0  0  0  0  0
   37.4470   26.9180   35.0970 C   0  0  0  0  0  0  0  0  0  0  0  0
   38.2300   25.8950   35.7030 C   0  0  0  0  0  0  0  0  0  0  0  0
   38.9740   27.1300   35.2110 C   0  0  0  0  0  0  0  0  0  0  0  0
   36.8520   27.6360   35.7210 H   0  0  0  0  0  0  0  0  0  0  0  0
   38.2350   25.7870   36.7930 H   0  0  0  0  0  0  0  0  0  0  0  0
   38.5250   24.9730   35.1440 H   0  0  0  0  0  0  0  0  0  0  0  0
   39.2800   27.8740   35.9460 H   0  0  0  0  0  0  0  0  0  0  0  0
   39.5760   27.0630   34.3060 H   0  0  0  0  0  0  0  0  0  0  0  0
   36.6530   24.3030   31.0570 C   0  0  0  0  0  0  0  0  0  0  0  0
   37.6540   23.8610   31.0110 H   0  0  0  0  0  0  0  0  0  0  0  0
   36.2120   24.3610   30.0520 H   0  0  0  0  0  0  0  0  0  0  0  0
   35.9470   21.9930   31.6990 C   0  0  0  0  0  0  0  0  0  0  0  0
   36.7810   21.4200   30.9160 O   0  0  0  0  0  0  0  0  0  0  0  0
   35.8050   23.3990   31.8170 N   0  0  0  0  0  0  0  0  0  0  0  0
   35.0880   23.8190   32.4540 H   0  0  0  0  0  0  0  0  0  0  0  0
   35.0950   21.0890   32.5140 C   0  0  0  0  0  3  0  0  0  0  0  0
   35.5120   19.6690   32.7490 C   0  0  0  0  0  2  0  0  0  0  0  0
   35.5810   20.6390   33.8670 C   0  0  0  0  0  2  0  0  0  0  0  0
  1  9  1  0  0  0  0
  2  1  1  0  0  0  0
  2  7  1  0  0  0  0
  3  2  2  0  0  0  0
  4  5  2  0  0  0  0
  4  3  1  0  0  0  0
  5  6  1  0  0  0  0
  6  1  2  0  0  0  0
  8  3  1  0  0  0  0
  9 11  1  0  0  0  0
  9 10  1  0  0  0  0
  9 12  1  0  0  0  0
 10 13  1  0  0  0  0
 11 10  1  0  0  0  0
 11 15  1  0  0  0  0
 14 10  1  0  0  0  0
 16 11  1  0  0  0  0
 17  5  1  0  0  0  0
 17 22  1  0  0  0  0
 18 17  1  0  0  0  0
 19 17  1  0  0  0  0
 20 22  1  0  0  0  0
 20 24  1  0  0  0  0
 21 20  2  0  0  0  0
 22 23  1  0  0  0  0
 24 25  1  0  0  0  0
 24 26  1  0  0  0  0
 25 26  1  0  0  0  0
M  END
>  <minimizedAffinity>
-4.62080908

$$$$

 OpenBabel03272510313D

 26 28  0  0  0  0  0  0  0  0999 V2000
   36.1520   23.7410   31.6230 C   0  0  0  0  0  0  0  0  0  0  0  0
   35.4810   24.7690   30.9830 C   0  0  0  0  0  0  0  0  0  0  0  0
   35.8270   26.0390   31.4160 C   0  0  0  0  0  0  0  0  0  0  0  0
   36.7540   26.2200   32.3920 N   0  0  0  0  0  0  0  0  0  0  0  0
   37.3850   25.1890   32.9910 C   0  0  0  0  0  0  0  0  0  0  0  0
   37.0700   23.9190   32.5930 N   0  0  0  0  0  0  0  0  0  0  0  0
   34.7580   24.5370   30.2160 H   0  0  0  0  0  0  0  0  0  0  0  0
   35.3270   26.8780   30.9420 H   0  0  0  0  0  0  0  0  0  0  0  0
   35.8460   22.3320   31.1810 C   0  0  0  0  0  0  0  0  0  0  0  0
   36.4710   21.1880   31.7560 C   0  0  0  0  0  0  0  0  0  0  0  0
   35.0820   21.5440   32.2690 C   0  0  0  0  0  0  0  0  0  0  0  0
   35.3610   22.2790   30.1720 H   0  0  0  0  0  0  0  0  0  0  0  0
   36.5010   20.2460   31.1960 H   0  0  0  0  0  0  0  0  0  0  0  0
   37.2520   21.2820   32.5490 H   0  0  0  0  0  0  0  0  0  0  0  0
   34.2330   20.9650   31.9050 H   0  0  0  0  0  0  0  0  0  0  0  0
   34.9780   21.9910   33.2570 H   0  0  0  0  0  0  0  0  0  0  0  0
   38.3890   25.3660   34.0310 C   0  0  0  0  0  0  0  0  0  0  0  0
   38.6770   26.4100   34.1930 H   0  0  0  0  0  0  0  0  0  0  0  0
   39.2770   24.7480   33.8360 H   0  0  0  0  0  0  0  0  0  0  0  0
   38.5770   24.0640   36.1540 C   0  0  0  0  0  0  0  0  0  0  0  0
   39.7810   23.6930   35.9300 O   0  0  0  0  0  0  0  0  0  0  0  0
   37.8160   24.8680   35.2700 N   0  0  0  0  0  0  0  0  0  0  0  0
   36.8240   25.1230   35.4870 H   0  0  0  0  0  0  0  0  0  0  0  0
   37.9810   23.5960   37.4340 C   0  0  0  0  0  3  0  0  0  0  0  0
   38.8590   23.3140   38.6140 C   0  0  0  0  0  2  0  0  0  0  0  0
   37.9890   24.5140   38.6290 C   0  0  0  0  0  2  0  0  0  0  0  0
  1  6  1  0  0  0  0
  2  3  1  0  0  0  0
  2  1  2  0  0  0  0
  3  4  2  0  0  0  0
  4  5  1  0  0  0  0
  5 17  1  0  0  0  0
  6  5  2  0  0  0  0
  7  2  1  0  0  0  0
  8  3  1  0  0  0  0
  9  1  1  0  0  0  0
  9 10  1  0  0  0  0
  9 11  1  0  0  0  0
 10 11  1  0  0  0  0
 10 14  1  0  0  0  0
 11 16  1  0  0  0  0
 12  9  1  0  0  0  0
 13 10  1  0  0  0  0
 15 11  1  0  0  0  0
 17 18  1  0  0  0  0
 17 22  1  0  0  0  0
 19 17  1  0  0  0  0
 20 24  1  0  0  0  0
 21 20  2  0  0  0  0
 22 23  1  0  0  0  0
 22 20  1  0  0  0  0
 24 25  1  0  0  0  0
 24 26  1  0  0  0  0
 25 26  1  0  0  0  0
M  END
>  <minimizedAffinity>
-4.60604811

$$$$

 OpenBabel03272510313D

 26 28  0  0  0  0  0  0  0  0999 V2000
   38.1590   25.0510   36.1740 C   0  0  0  0  0  0  0  0  0  0  0  0
   37.8270   24.4140   37.3570 C   0  0  0  0  0  0  0  0  0  0  0  0
   37.5800   23.0560   37.2310 C   0  0  0  0  0  0  0  0  0  0  0  0
   37.6660   22.4370   36.0250 N   0  0  0  0  0  0  0  0  0  0  0  0
   37.9920   23.0950   34.8940 C   0  0  0  0  0  0  0  0  0  0  0  0
   38.2430   24.4370   34.9770 N   0  0  0  0  0  0  0  0  0  0  0  0
   37.7820   24.9820   38.2740 H   0  0  0  0  0  0  0  0  0  0  0  0
   37.3150   22.5140   38.1330 H   0  0  0  0  0  0  0  0  0  0  0  0
   38.4710   26.5250   36.2420 C   0  0  0  0  0  0  0  0  0  0  0  0
   39.1090   27.2310   35.1830 C   0  0  0  0  0  0  0  0  0  0  0  0
   37.5920   27.3410   35.2680 C   0  0  0  0  0  0  0  0  0  0  0  0
   38.4690   26.9310   37.2880 H   0  0  0  0  0  0  0  0  0  0  0  0
   39.6280   28.1730   35.3920 H   0  0  0  0  0  0  0  0  0  0  0  0
   39.4430   26.7140   34.2500 H   0  0  0  0  0  0  0  0  0  0  0  0
   37.1630   28.2510   35.6890 H   0  0  0  0  0  0  0  0  0  0  0  0
   36.9780   26.8020   34.5480 H   0  0  0  0  0  0  0  0  0  0  0  0
   38.1000   22.4440   33.5970 C   0  0  0  0  0  0  0  0  0  0  0  0
   37.4020   21.6100   33.4630 H   0  0  0  0  0  0  0  0  0  0  0  0
   39.1310   22.1180   33.3990 H   0  0  0  0  0  0  0  0  0  0  0  0
   36.5430   23.4450   31.9180 C   0  0  0  0  0  0  0  0  0  0  0  0
   35.6240   22.5760   32.1140 O   0  0  0  0  0  0  0  0  0  0  0  0
   37.7920   23.4440   32.5880 N   0  0  0  0  0  0  0  0  0  0  0  0
   38.5230   24.1620   32.3730 H   0  0  0  0  0  0  0  0  0  0  0  0
   36.2370   24.5000   30.9170 C   0  0  0  0  0  3  0  0  0  0  0  0
   34.8710   25.1130   30.8620 C   0  0  0  0  0  2  0  0  0  0  0  0
   36.0040   25.9130   31.3830 C   0  0  0  0  0  2  0  0  0  0  0  0
  1  9  1  0  0  0  0
  1  2  1  0  0  0  0
  2  7  1  0  0  0  0
  3  2  2  0  0  0  0
  3  8  1  0  0  0  0
  4  3  1  0  0  0  0
  5  6  1  0  0  0  0
  5  4  2  0  0  0  0
  6  1  2  0  0  0  0
  9 12  1  0  0  0  0
 10 11  1  0  0  0  0
 10 13  1  0  0  0  0
 10  9  1  0  0  0  0
 11 15  1  0  0  0  0
 11  9  1  0  0  0  0
 14 10  1  0  0  0  0
 16 11  1  0  0  0  0
 17  5  1  0  0  0  0
 18 17  1  0  0  0  0
 19 17  1  0  0  0  0
 20 21  2  0  0  0  0
 20 22  1  0  0  0  0
 22 17  1  0  0  0  0
 23 22  1  0  0  0  0
 24 26  1  0  0  0  0
 24 20  1  0  0  0  0
 25 24  1  0  0  0  0
 25 26  1  0  0  0  0
M  END
>  <minimizedAffinity>
-4.57322693

$$$$

 OpenBabel03272510313D

 26 28  0  0  0  0  0  0  0  0999 V2000
   36.4480   23.4170   31.9270 C   0  0  0  0  0  0  0  0  0  0  0  0
   35.6350   22.2990   31.8520 C   0  0  0  0  0  0  0  0  0  0  0  0
   35.9000   21.3290   32.8050 C   0  0  0  0  0  0  0  0  0  0  0  0
   36.8870   21.4980   33.7230 N   0  0  0  0  0  0  0  0  0  0  0  0
   37.6580   22.6040   33.7620 C   0  0  0  0  0  0  0  0  0  0  0  0
   37.4290   23.5840   32.8360 N   0  0  0  0  0  0  0  0  0  0  0  0
   34.8720   22.2450   31.0900 H   0  0  0  0  0  0  0  0  0  0  0  0
   35.2870   20.4330   32.7850 H   0  0  0  0  0  0  0  0  0  0  0  0
   36.1960   24.5270   30.9380 C   0  0  0  0  0  0  0  0  0  0  0  0
   34.9370   25.1810   30.8120 C   0  0  0  0  0  0  0  0  0  0  0  0
   35.9990   25.8880   31.6440 C   0  0  0  0  0  0  0  0  0  0  0  0
   36.9510   24.5620   30.1090 H   0  0  0  0  0  0  0  0  0  0  0  0
   34.6880   25.7060   29.8830 H   0  0  0  0  0  0  0  0  0  0  0  0
   34.0540   24.8760   31.4240 H   0  0  0  0  0  0  0  0  0  0  0  0
   36.5380   26.7210   31.1920 H   0  0  0  0  0  0  0  0  0  0  0  0
   35.9040   25.9010   32.7290 H   0  0  0  0  0  0  0  0  0  0  0  0
   38.7120   22.8050   34.7460 C   0  0  0  0  0  0  0  0  0  0  0  0
   39.6910   22.4320   34.4260 H   0  0  0  0  0  0  0  0  0  0  0  0
   38.4360   22.3760   35.7190 H   0  0  0  0  0  0  0  0  0  0  0  0
   38.1840   24.8720   36.0460 C   0  0  0  0  0  0  0  0  0  0  0  0
   37.4350   24.2640   36.8870 O   0  0  0  0  0  0  0  0  0  0  0  0
   38.8330   24.2380   34.9580 N   0  0  0  0  0  0  0  0  0  0  0  0
   39.4150   24.7850   34.2810 H   0  0  0  0  0  0  0  0  0  0  0  0
   38.3520   26.3330   36.2640 C   0  0  0  0  0  3  0  0  0  0  0  0
   39.1850   27.1450   35.3190 C   0  0  0  0  0  2  0  0  0  0  0  0
   37.7110   27.3000   35.3040 C   0  0  0  0  0  2  0  0  0  0  0  0
  1  6  1  0  0  0  0
  2  1  2  0  0  0  0
  2  3  1  0  0  0  0
  3  4  2  0  0  0  0
  4  5  1  0  0  0  0
  5 17  1  0  0  0  0
  6  5  2  0  0  0  0
  7  2  1  0  0  0  0
  8  3  1  0  0  0  0
  9 11  1  0  0  0  0
  9  1  1  0  0  0  0
 10  9  1  0  0  0  0
 10 14  1  0  0  0  0
 10 11  1  0  0  0  0
 11 16  1  0  0  0  0
 12  9  1  0  0  0  0
 13 10  1  0  0  0  0
 15 11  1  0  0  0  0
 17 22  1  0  0  0  0
 17 19  1  0  0  0  0
 18 17  1  0  0  0  0
 20 24  1  0  0  0  0
 20 21  2  0  0  0  0
 22 20  1  0  0  0  0
 23 22  1  0  0  0  0
 25 24  1  0  0  0  0
 26 25  1  0  0  0  0
 26 24  1  0  0  0  0
M  END
>  <minimizedAffinity>
-4.49059772

$$$$

 OpenBabel03272510313D

 26 28  0  0  0  0  0  0  0  0999 V2000
   36.3430   21.3690   32.9490 C   0  0  0  0  0  0  0  0  0  0  0  0
   36.5300   21.9260   31.6960 C   0  0  0  0  0  0  0  0  0  0  0  0
   37.6080   22.7920   31.6050 C   0  0  0  0  0  0  0  0  0  0  0  0
   38.3940   23.0490   32.6830 N   0  0  0  0  0  0  0  0  0  0  0  0
   38.1770   22.4850   33.8880 C   0  0  0  0  0  0  0  0  0  0  0  0
   37.1220   21.6240   34.0190 N   0  0  0  0  0  0  0  0  0  0  0  0
   35.8570   21.6670   30.8920 H   0  0  0  0  0  0  0  0  0  0  0  0
   37.7940   23.2540   30.6400 H   0  0  0  0  0  0  0  0  0  0  0  0
   35.2050   20.3930   33.1130 C   0  0  0  0  0  0  0  0  0  0  0  0
   34.6030   19.7130   32.0160 C   0  0  0  0  0  0  0  0  0  0  0  0
   35.6480   18.9420   32.8130 C   0  0  0  0  0  0  0  0  0  0  0  0
   34.6680   20.4990   34.0920 H   0  0  0  0  0  0  0  0  0  0  0  0
   33.5900   19.3080   32.1160 H   0  0  0  0  0  0  0  0  0  0  0  0
   34.9270   19.8980   30.9630 H   0  0  0  0  0  0  0  0  0  0  0  0
   35.3020   18.1990   33.5330 H   0  0  0  0  0  0  0  0  0  0  0  0
   36.6340   18.7800   32.3810 H   0  0  0  0  0  0  0  0  0  0  0  0
   39.0180   22.7400   35.0500 C   0  0  0  0  0  0  0  0  0  0  0  0
   40.0400   22.3620   34.9460 H   0  0  0  0  0  0  0  0  0  0  0  0
   38.5550   22.3530   35.9690 H   0  0  0  0  0  0  0  0  0  0  0  0
   38.2540   24.8580   36.1330 C   0  0  0  0  0  0  0  0  0  0  0  0
   37.3630   24.2820   36.8470 O   0  0  0  0  0  0  0  0  0  0  0  0
   39.0950   24.1830   35.2140 N   0  0  0  0  0  0  0  0  0  0  0  0
   39.7920   24.7050   34.6320 H   0  0  0  0  0  0  0  0  0  0  0  0
   38.3760   26.3290   36.3110 C   0  0  0  0  0  3  0  0  0  0  0  0
   39.1760   27.1410   35.3390 C   0  0  0  0  0  2  0  0  0  0  0  0
   37.6980   27.2490   35.3290 C   0  0  0  0  0  2  0  0  0  0  0  0
  1  9  1  0  0  0  0
  1  6  1  0  0  0  0
  2  1  2  0  0  0  0
  3  2  1  0  0  0  0
  3  4  2  0  0  0  0
  4  5  1  0  0  0  0
  5  6  2  0  0  0  0
  5 17  1  0  0  0  0
  7  2  1  0  0  0  0
  8  3  1  0  0  0  0
  9 12  1  0  0  0  0
 10 13  1  0  0  0  0
 10 11  1  0  0  0  0
 10  9  1  0  0  0  0
 11  9  1  0  0  0  0
 11 15  1  0  0  0  0
 14 10  1  0  0  0  0
 16 11  1  0  0  0  0
 17 22  1  0  0  0  0
 17 19  1  0  0  0  0
 18 17  1  0  0  0  0
 20 24  1  0  0  0  0
 20 21  2  0  0  0  0
 22 20  1  0  0  0  0
 23 22  1  0  0  0  0
 25 24  1  0  0  0  0
 26 25  1  0  0  0  0
 26 24  1  0  0  0  0
M  END
>  <minimizedAffinity>
-4.36928272

$$$$

 OpenBabel03272510313D

 26 28  0  0  0  0  0  0  0  0999 V2000
   37.9740   25.1390   35.7910 C   0  0  0  0  0  0  0  0  0  0  0  0
   37.8500   25.0910   37.1690 C   0  0  0  0  0  0  0  0  0  0  0  0
   37.8530   23.8120   37.7030 C   0  0  0  0  0  0  0  0  0  0  0  0
   37.9700   22.7190   36.9050 N   0  0  0  0  0  0  0  0  0  0  0  0
   38.0890   22.8100   35.5650 C   0  0  0  0  0  0  0  0  0  0  0  0
   38.0890   24.0550   34.9990 N   0  0  0  0  0  0  0  0  0  0  0  0
   37.7620   26.0090   37.7280 H   0  0  0  0  0  0  0  0  0  0  0  0
   37.7580   23.7240   38.7810 H   0  0  0  0  0  0  0  0  0  0  0  0
   38.0080   26.5010   35.1440 C   0  0  0  0  0  0  0  0  0  0  0  0
   38.3240   27.6910   35.8590 C   0  0  0  0  0  0  0  0  0  0  0  0
   39.4480   27.0550   35.0510 C   0  0  0  0  0  0  0  0  0  0  0  0
   37.4530   26.5430   34.1700 H   0  0  0  0  0  0  0  0  0  0  0  0
   38.0010   28.6630   35.4700 H   0  0  0  0  0  0  0  0  0  0  0  0
   38.5330   27.6770   36.9570 H   0  0  0  0  0  0  0  0  0  0  0  0
   39.7070   27.5000   34.0900 H   0  0  0  0  0  0  0  0  0  0  0  0
   40.2430   26.5230   35.5720 H   0  0  0  0  0  0  0  0  0  0  0  0
   38.2270   21.6480   34.6970 C   0  0  0  0  0  0  0  0  0  0  0  0
   37.9400   20.7050   35.1740 H   0  0  0  0  0  0  0  0  0  0  0  0
   39.2440   21.5780   34.2850 H   0  0  0  0  0  0  0  0  0  0  0  0
   36.0850   21.2100   33.4880 C   0  0  0  0  0  0  0  0  0  0  0  0
   35.6460   20.3930   34.3700 O   0  0  0  0  0  0  0  0  0  0  0  0
   37.3450   21.8550   33.5600 N   0  0  0  0  0  0  0  0  0  0  0  0
   37.6700   22.4950   32.7990 H   0  0  0  0  0  0  0  0  0  0  0  0
   35.1840   21.4650   32.3340 C   0  0  0  0  0  3  0  0  0  0  0  0
   35.6290   22.3530   31.2130 C   0  0  0  0  0  2  0  0  0  0  0  0
   35.5320   20.8920   30.9860 C   0  0  0  0  0  2  0  0  0  0  0  0
  1  2  1  0  0  0  0
  2  3  2  0  0  0  0
  2  7  1  0  0  0  0
  3  8  1  0  0  0  0
  4  3  1  0  0  0  0
  5  4  2  0  0  0  0
  6  5  1  0  0  0  0
  6  1  2  0  0  0  0
  9  1  1  0  0  0  0
  9 10  1  0  0  0  0
 10 14  1  0  0  0  0
 11  9  1  0  0  0  0
 11 16  1  0  0  0  0
 11 10  1  0  0  0  0
 12  9  1  0  0  0  0
 13 10  1  0  0  0  0
 15 11  1  0  0  0  0
 17 18  1  0  0  0  0
 17  5  1  0  0  0  0
 19 17  1  0  0  0  0
 20 22  1  0  0  0  0
 20 21  2  0  0  0  0
 22 17  1  0  0  0  0
 23 22  1  0  0  0  0
 24 20  1  0  0  0  0
 25 24  1  0  0  0  0
 26 25  1  0  0  0  0
 26 24  1  0  0  0  0
M  END
>  <minimizedAffinity>
-4.35188818

$$$$

 OpenBabel03272510313D

 26 28  0  0  0  0  0  0  0  0999 V2000
   38.3240   25.2630   35.7120 C   0  0  0  0  0  0  0  0  0  0  0  0
   38.2650   26.5100   36.3080 C   0  0  0  0  0  0  0  0  0  0  0  0
   37.9310   27.5440   35.4490 C   0  0  0  0  0  0  0  0  0  0  0  0
   37.6880   27.3120   34.1320 N   0  0  0  0  0  0  0  0  0  0  0  0
   37.7560   26.0790   33.5900 C   0  0  0  0  0  0  0  0  0  0  0  0
   38.0840   25.0310   34.4060 N   0  0  0  0  0  0  0  0  0  0  0  0
   38.4720   26.6070   37.3630 H   0  0  0  0  0  0  0  0  0  0  0  0
   37.8720   28.5430   35.8720 H   0  0  0  0  0  0  0  0  0  0  0  0
   38.6530   24.0850   36.5950 C   0  0  0  0  0  0  0  0  0  0  0  0
   38.2640   24.0100   37.9630 C   0  0  0  0  0  0  0  0  0  0  0  0
   37.3910   23.2700   36.9570 C   0  0  0  0  0  0  0  0  0  0  0  0
   39.4910   23.4540   36.1970 H   0  0  0  0  0  0  0  0  0  0  0  0
   38.8030   23.3440   38.6460 H   0  0  0  0  0  0  0  0  0  0  0  0
   37.7160   24.8450   38.4640 H   0  0  0  0  0  0  0  0  0  0  0  0
   37.5040   22.1890   36.8730 H   0  0  0  0  0  0  0  0  0  0  0  0
   36.4160   23.6800   36.6950 H   0  0  0  0  0  0  0  0  0  0  0  0
   37.4870   25.8110   32.1840 C   0  0  0  0  0  0  0  0  0  0  0  0
   38.3580   25.4440   31.6310 H   0  0  0  0  0  0  0  0  0  0  0  0
   37.0590   26.6930   31.6860 H   0  0  0  0  0  0  0  0  0  0  0  0
   36.6150   23.6440   31.3000 C   0  0  0  0  0  0  0  0  0  0  0  0
   37.6150   23.4490   30.5260 O   0  0  0  0  0  0  0  0  0  0  0  0
   36.4630   24.7810   32.1320 N   0  0  0  0  0  0  0  0  0  0  0  0
   35.6120   24.9070   32.7280 H   0  0  0  0  0  0  0  0  0  0  0  0
   35.5720   22.5850   31.2900 C   0  0  0  0  0  3  0  0  0  0  0  0
   35.9500   21.1580   31.0390 C   0  0  0  0  0  2  0  0  0  0  0  0
   35.5430   21.5690   32.4020 C   0  0  0  0  0  2  0  0  0  0  0  0
  1  2  1  0  0  0  0
  1  9  1  0  0  0  0
  2  7  1  0  0  0  0
  3  8  1  0  0  0  0
  3  2  2  0  0  0  0
  4  3  1  0  0  0  0
  5  4  2  0  0  0  0
  5  6  1  0  0  0  0
  6  1  2  0  0  0  0
  9 11  1  0  0  0  0
  9 10  1  0  0  0  0
 10 14  1  0  0  0  0
 10 13  1  0  0  0  0
 11 10  1  0  0  0  0
 12  9  1  0  0  0  0
 15 11  1  0  0  0  0
 16 11  1  0  0  0  0
 17  5  1  0  0  0  0
 18 17  1  0  0  0  0
 19 17  1  0  0  0  0
 20 22  1  0  0  0  0
 21 20  2  0  0  0  0
 22 17  1  0  0  0  0
 22 23  1  0  0  0  0
 24 20  1  0  0  0  0
 24 26  1  0  0  0  0
 25 24  1  0  0  0  0
 25 26  1  0  0  0  0
M  END
>  <minimizedAffinity>
-4.34382534

$$$$

 OpenBabel03272510313D

 26 28  0  0  0  0  0  0  0  0999 V2000
   38.1390   24.7980   35.2920 C   0  0  0  0  0  0  0  0  0  0  0  0
   37.7730   24.3370   36.5450 C   0  0  0  0  0  0  0  0  0  0  0  0
   37.8260   22.9600   36.6900 C   0  0  0  0  0  0  0  0  0  0  0  0
   38.2110   22.1600   35.6610 N   0  0  0  0  0  0  0  0  0  0  0  0
   38.5610   22.6500   34.4550 C   0  0  0  0  0  0  0  0  0  0  0  0
   38.5200   24.0050   34.2710 N   0  0  0  0  0  0  0  0  0  0  0  0
   37.4800   25.0420   37.3070 H   0  0  0  0  0  0  0  0  0  0  0  0
   37.5470   22.5510   37.6560 H   0  0  0  0  0  0  0  0  0  0  0  0
   38.1340   26.2900   35.0720 C   0  0  0  0  0  0  0  0  0  0  0  0
   38.4380   27.2260   36.1010 C   0  0  0  0  0  0  0  0  0  0  0  0
   39.5600   26.8820   35.1290 C   0  0  0  0  0  0  0  0  0  0  0  0
   37.5600   26.6010   34.1590 H   0  0  0  0  0  0  0  0  0  0  0  0
   38.0880   28.2610   36.0160 H   0  0  0  0  0  0  0  0  0  0  0  0
   38.6670   26.8970   37.1440 H   0  0  0  0  0  0  0  0  0  0  0  0
   39.7930   27.5950   34.3380 H   0  0  0  0  0  0  0  0  0  0  0  0
   40.3750   26.2410   35.4630 H   0  0  0  0  0  0  0  0  0  0  0  0
   38.9870   21.8080   33.3460 C   0  0  0  0  0  0  0  0  0  0  0  0
   39.7940   21.1140   33.6040 H   0  0  0  0  0  0  0  0  0  0  0  0
   39.2640   22.4120   32.4700 H   0  0  0  0  0  0  0  0  0  0  0  0
   37.0740   21.3670   31.8000 C   0  0  0  0  0  0  0  0  0  0  0  0
   37.3050   22.3930   31.0710 O   0  0  0  0  0  0  0  0  0  0  0  0
   37.8360   21.0160   32.9420 N   0  0  0  0  0  0  0  0  0  0  0  0
   37.5900   20.1800   33.5220 H   0  0  0  0  0  0  0  0  0  0  0  0
   35.9250   20.5210   31.3840 C   0  0  0  0  0  3  0  0  0  0  0  0
   35.4860   19.3730   32.2410 C   0  0  0  0  0  2  0  0  0  0  0  0
   34.6400   20.5880   32.1680 C   0  0  0  0  0  2  0  0  0  0  0  0
  1  2  1  0  0  0  0
  2  3  2  0  0  0  0
  2  7  1  0  0  0  0
  3  8  1  0  0  0  0
  4  3  1  0  0  0  0
  5  4  2  0  0  0  0
  6  5  1  0  0  0  0
  6  1  2  0  0  0  0
  9 11  1  0  0  0  0
  9  1  1  0  0  0  0
  9 10  1  0  0  0  0
 10 14  1  0  0  0  0
 11 16  1  0  0  0  0
 11 10  1  0  0  0  0
 12  9  1  0  0  0  0
 13 10  1  0  0  0  0
 15 11  1  0  0  0  0
 17 18  1  0  0  0  0
 17  5  1  0  0  0  0
 19 17  1  0  0  0  0
 20 22  1  0  0  0  0
 21 20  2  0  0  0  0
 22 17  1  0  0  0  0
 22 23  1  0  0  0  0
 24 20  1  0  0  0  0
 24 26  1  0  0  0  0
 24 25  1  0  0  0  0
 26 25  1  0  0  0  0
M  END
>  <minimizedAffinity>
-4.32225227

$$$$

 OpenBabel03272510313D

 26 28  0  0  0  0  0  0  0  0999 V2000
   38.0440   25.7500   33.6700 C   0  0  0  0  0  0  0  0  0  0  0  0
   39.3660   25.8670   33.2790 C   0  0  0  0  0  0  0  0  0  0  0  0
   39.6380   25.3770   32.0110 C   0  0  0  0  0  0  0  0  0  0  0  0
   38.6580   24.8310   31.2450 N   0  0  0  0  0  0  0  0  0  0  0  0
   37.3800   24.7350   31.6650 C   0  0  0  0  0  0  0  0  0  0  0  0
   37.0710   25.2070   32.9110 N   0  0  0  0  0  0  0  0  0  0  0  0
   40.0830   26.3150   33.9500 H   0  0  0  0  0  0  0  0  0  0  0  0
   40.6630   25.4480   31.6610 H   0  0  0  0  0  0  0  0  0  0  0  0
   37.6700   26.2900   35.0280 C   0  0  0  0  0  0  0  0  0  0  0  0
   38.4280   27.2930   35.6970 C   0  0  0  0  0  0  0  0  0  0  0  0
   37.1860   27.7560   34.9460 C   0  0  0  0  0  0  0  0  0  0  0  0
   36.9700   25.6220   35.5930 H   0  0  0  0  0  0  0  0  0  0  0  0
   38.3470   27.4010   36.7850 H   0  0  0  0  0  0  0  0  0  0  0  0
   39.3670   27.7100   35.2580 H   0  0  0  0  0  0  0  0  0  0  0  0
   36.2870   27.9740   35.5230 H   0  0  0  0  0  0  0  0  0  0  0  0
   37.3020   28.2890   34.0040 H   0  0  0  0  0  0  0  0  0  0  0  0
   36.3150   24.1630   30.8520 C   0  0  0  0  0  0  0  0  0  0  0  0
   36.6770   23.5860   29.9950 H   0  0  0  0  0  0  0  0  0  0  0  0
   35.6060   24.9360   30.5230 H   0  0  0  0  0  0  0  0  0  0  0  0
   35.7770   21.8610   31.6600 C   0  0  0  0  0  0  0  0  0  0  0  0
   36.6030   21.2890   30.8680 O   0  0  0  0  0  0  0  0  0  0  0  0
   35.5610   23.2610   31.7060 N   0  0  0  0  0  0  0  0  0  0  0  0
   34.8530   23.6790   32.3550 H   0  0  0  0  0  0  0  0  0  0  0  0
   35.0200   20.9610   32.5700 C   0  0  0  0  0  3  0  0  0  0  0  0
   35.5010   19.5650   32.8200 C   0  0  0  0  0  2  0  0  0  0  0  0
   35.6220   20.5770   33.8960 C   0  0  0  0  0  2  0  0  0  0  0  0
  1  9  1  0  0  0  0
  2  1  1  0  0  0  0
  2  7  1  0  0  0  0
  3  2  2  0  0  0  0
  4  5  2  0  0  0  0
  4  3  1  0  0  0  0
  5  6  1  0  0  0  0
  6  1  2  0  0  0  0
  8  3  1  0  0  0  0
  9 12  1  0  0  0  0
  9 10  1  0  0  0  0
 10 13  1  0  0  0  0
 11  9  1  0  0  0  0
 11 15  1  0  0  0  0
 11 10  1  0  0  0  0
 14 10  1  0  0  0  0
 16 11  1  0  0  0  0
 17  5  1  0  0  0  0
 17 22  1  0  0  0  0
 18 17  1  0  0  0  0
 19 17  1  0  0  0  0
 20 22  1  0  0  0  0
 20 24  1  0  0  0  0
 21 20  2  0  0  0  0
 22 23  1  0  0  0  0
 24 25  1  0  0  0  0
 24 26  1  0  0  0  0
 25 26  1  0  0  0  0
M  END
>  <minimizedAffinity>
-4.26153564

$$$$
