
 OpenBabel03262520213D

 17 18  0  0  0  0  0  0  0  0999 V2000
   34.8100   29.4160   50.2640 C   0  0  0  0  0  0  0  0  0  0  0  0
   35.8720   30.1210   49.6450 C   0  0  0  0  0  0  0  0  0  0  0  0
   35.9270   30.1550   48.2590 C   0  0  0  0  0  0  0  0  0  0  0  0
   34.9380   29.4990   47.5870 N   0  0  0  0  0  0  0  0  0  0  0  0
   33.9370   28.8350   48.1700 C   0  0  0  0  0  0  0  0  0  0  0  0
   33.8940   28.8080   49.5170 N   0  0  0  0  0  0  0  0  0  0  0  0
   32.9990   28.2120   47.2940 N   0  0  0  0  0  0  0  0  0  0  0  0
   34.6730   29.3260   51.3100 H   0  0  0  0  0  0  0  0  0  0  0  0
   32.7500   27.2100   47.2310 H   0  0  0  0  0  0  0  0  0  0  0  0
   32.4870   28.8460   46.6160 H   0  0  0  0  0  0  0  0  0  0  0  0
   37.0280   30.8850   47.6000 C   0  0  0  0  0  0  0  0  0  0  0  0
   38.1390   30.1380   47.7230 F   0  0  0  0  0  0  0  0  0  0  0  0
   36.7700   31.1640   46.2760 F   0  0  0  0  0  0  0  0  0  0  0  0
   37.2670   32.1210   48.2370 F   0  0  0  0  0  0  0  0  0  0  0  0
   36.8680   30.7810   50.5300 C   0  0  0  0  0  0  0  0  0  0  0  0
   38.2280   30.2600   50.7460 C   0  0  0  0  0  0  0  0  0  0  0  0
   37.2290   30.0250   51.7880 C   0  0  0  0  0  0  0  0  0  0  0  0
  1  8  1  0  0  0  0
  2  1  1  0  0  0  0
  2 15  1  0  0  0  0
  3  2  2  0  0  0  0
  4  5  2  0  0  0  0
  4  3  1  0  0  0  0
  5  6  1  0  0  0  0
  6  1  2  0  0  0  0
  7  5  1  0  0  0  0
  9  7  1  0  0  0  0
 10  7  1  0  0  0  0
 11 12  1  0  0  0  0
 11 14  1  0  0  0  0
 11  3  1  0  0  0  0
 13 11  1  0  0  0  0
 15 16  1  0  0  0  0
 15 17  1  0  0  0  0
 16 17  1  0  0  0  0
M  END
>  <minimizedAffinity>
-4.79700327

>  <minimizedRMSD>
2.47620344

$$$$
