
 OpenBabel03272508293D

 32 35  0  0  1  0  0  0  0  0999 V2000
   39.2230   25.3220   34.8240 C   0  0  1  0  0  0  0  0  0  0  0  0
   39.0700   26.7580   34.8470 C   0  0  1  0  0  0  0  0  0  0  0  0
   40.4660   26.2270   34.8400 C   0  0  0  0  0  0  0  0  0  0  0  0
   39.2480   24.6630   33.9300 H   0  0  0  0  0  0  0  0  0  0  0  0
   38.7140   27.1790   35.8340 H   0  0  0  0  0  0  0  0  0  0  0  0
   41.0580   26.3040   35.7670 H   0  0  0  0  0  0  0  0  0  0  0  0
   41.0330   26.3680   33.9030 H   0  0  0  0  0  0  0  0  0  0  0  0
   37.0190   27.3040   33.6730 C   0  0  2  0  0  0  0  0  0  0  0  0
   38.5220   27.5410   33.7000 C   0  0  2  0  0  0  0  0  0  0  0  0
   38.9910   27.0920   32.5020 O   0  0  0  0  0  0  0  0  0  0  0  0
   38.0010   27.1020   31.5650 C   0  0  0  0  0  0  0  0  0  0  0  0
   36.7470   27.6570   32.2060 C   0  0  1  0  0  0  0  0  0  0  0  0
   36.7460   26.2450   33.7850 H   0  0  0  0  0  0  0  0  0  0  0  0
   38.6600   28.6390   33.7930 H   0  0  0  0  0  0  0  0  0  0  0  0
   37.7790   26.0500   31.2950 H   0  0  0  0  0  0  0  0  0  0  0  0
   38.2530   27.6490   30.6360 H   0  0  0  0  0  0  0  0  0  0  0  0
   36.8160   28.7710   32.0650 H   0  0  0  0  0  0  0  0  0  0  0  0
   36.3190   28.1370   34.5310 O   0  0  0  0  0  0  0  0  0  0  0  0
   35.6100   27.6170   34.9540 H   0  0  0  0  0  0  0  0  0  0  0  0
   35.5820   27.1070   31.7550 O   0  0  0  0  0  0  0  0  0  0  0  0
   35.7590   25.9670   30.9890 C   0  0  0  0  0  3  0  0  0  0  0  0
   35.5710   24.6170   31.5450 C   0  0  0  0  0  2  0  0  0  0  0  0
   34.5980   25.1670   30.5270 C   0  0  0  0  0  2  0  0  0  0  0  0
   39.1130   24.4960   36.0940 C   0  0  0  0  0  0  0  0  0  0  0  0
   38.1050   24.8240   36.9980 C   0  0  0  0  0  0  0  0  0  0  0  0
   38.0670   24.0500   38.1460 C   0  0  0  0  0  0  0  0  0  0  0  0
   38.9620   23.0460   38.3540 N   0  0  0  0  0  0  0  0  0  0  0  0
   39.9350   22.7560   37.4420 C   0  0  0  0  0  0  0  0  0  0  0  0
   40.0040   23.4950   36.3010 N   0  0  0  0  0  0  0  0  0  0  0  0
   37.4280   25.6330   36.7720 H   0  0  0  0  0  0  0  0  0  0  0  0
   37.2930   24.2710   38.8840 H   0  0  0  0  0  0  0  0  0  0  0  0
   40.6560   21.9630   37.5880 H   0  0  0  0  0  0  0  0  0  0  0  0
  1  4  1  6  0  0  0
  1  3  1  0  0  0  0
  1  2  1  0  0  0  0
  1 24  1  0  0  0  0
  2  5  1  1  0  0  0
  3  2  1  0  0  0  0
  3  6  1  0  0  0  0
  7  3  1  0  0  0  0
  8  9  1  0  0  0  0
  8 13  1  1  0  0  0
  8 18  1  0  0  0  0
  9 14  1  1  0  0  0
  9  2  1  0  0  0  0
 10  9  1  0  0  0  0
 11 12  1  0  0  0  0
 11 10  1  0  0  0  0
 12 17  1  6  0  0  0
 12  8  1  0  0  0  0
 15 11  1  0  0  0  0
 16 11  1  0  0  0  0
 18 19  1  0  0  0  0
 20 12  1  0  0  0  0
 21 22  1  0  0  0  0
 21 20  1  0  0  0  0
 23 21  1  0  0  0  0
 23 22  1  0  0  0  0
 24 29  2  0  0  0  0
 24 25  1  0  0  0  0
 25 26  2  0  0  0  0
 26 27  1  0  0  0  0
 26 31  1  0  0  0  0
 28 32  1  0  0  0  0
 28 27  2  0  0  0  0
 29 28  1  0  0  0  0
 30 25  1  0  0  0  0
M  END
>  <minimizedAffinity>
-4.80874014

$$$$

 OpenBabel03272508293D

 32 35  0  0  1  0  0  0  0  0999 V2000
   37.3090   26.8090   35.1580 C   0  0  1  0  0  0  0  0  0  0  0  0
   38.5820   26.1350   35.0420 C   0  0  1  0  0  0  0  0  0  0  0  0
   38.5970   27.5120   35.6190 C   0  0  0  0  0  0  0  0  0  0  0  0
   36.5900   26.7460   36.0030 H   0  0  0  0  0  0  0  0  0  0  0  0
   38.9730   26.0450   33.9850 H   0  0  0  0  0  0  0  0  0  0  0  0
   39.0060   28.3310   35.0050 H   0  0  0  0  0  0  0  0  0  0  0  0
   38.8060   27.5810   36.7010 H   0  0  0  0  0  0  0  0  0  0  0  0
   38.7440   23.7150   34.9720 C   0  0  2  0  0  0  0  0  0  0  0  0
   38.9510   24.9390   35.8540 C   0  0  2  0  0  0  0  0  0  0  0  0
   38.1240   24.7690   36.9240 O   0  0  0  0  0  0  0  0  0  0  0  0
   37.8410   23.4490   37.1080 C   0  0  0  0  0  0  0  0  0  0  0  0
   38.5970   22.6520   36.0660 C   0  0  1  0  0  0  0  0  0  0  0  0
   37.7860   23.7290   34.4320 H   0  0  0  0  0  0  0  0  0  0  0  0
   40.0160   24.9150   36.1700 H   0  0  0  0  0  0  0  0  0  0  0  0
   36.7630   23.3000   36.8980 H   0  0  0  0  0  0  0  0  0  0  0  0
   38.0460   23.0730   38.1290 H   0  0  0  0  0  0  0  0  0  0  0  0
   39.6010   22.4450   36.5300 H   0  0  0  0  0  0  0  0  0  0  0  0
   39.8250   23.4470   34.1480 O   0  0  0  0  0  0  0  0  0  0  0  0
   39.4850   23.1710   33.2760 H   0  0  0  0  0  0  0  0  0  0  0  0
   37.9490   21.5390   35.6150 O   0  0  0  0  0  0  0  0  0  0  0  0
   36.5870   21.7150   35.4410 C   0  0  0  0  0  3  0  0  0  0  0  0
   35.7820   20.8010   34.6140 C   0  0  0  0  0  2  0  0  0  0  0  0
   35.6080   20.8270   36.1150 C   0  0  0  0  0  2  0  0  0  0  0  0
   36.6770   27.5150   33.9710 C   0  0  0  0  0  0  0  0  0  0  0  0
   35.9840   28.6990   34.2120 C   0  0  0  0  0  0  0  0  0  0  0  0
   35.4120   29.2870   33.0960 C   0  0  0  0  0  0  0  0  0  0  0  0
   35.5320   28.7270   31.8610 N   0  0  0  0  0  0  0  0  0  0  0  0
   36.2210   27.5660   31.6670 C   0  0  0  0  0  0  0  0  0  0  0  0
   36.7970   26.9590   32.7400 N   0  0  0  0  0  0  0  0  0  0  0  0
   35.9260   29.0890   35.2170 H   0  0  0  0  0  0  0  0  0  0  0  0
   34.8590   30.2170   33.2370 H   0  0  0  0  0  0  0  0  0  0  0  0
   36.3280   27.1040   30.6950 H   0  0  0  0  0  0  0  0  0  0  0  0
  1  3  1  0  0  0  0
  1  4  1  1  0  0  0
  2  5  1  6  0  0  0
  2  1  1  0  0  0  0
  2  3  1  0  0  0  0
  2  9  1  0  0  0  0
  3  7  1  0  0  0  0
  6  3  1  0  0  0  0
  8 13  1  6  0  0  0
  8  9  1  0  0  0  0
  8 12  1  0  0  0  0
  9 14  1  1  0  0  0
  9 10  1  0  0  0  0
 10 11  1  0  0  0  0
 11 16  1  0  0  0  0
 12 17  1  1  0  0  0
 12 11  1  0  0  0  0
 15 11  1  0  0  0  0
 18  8  1  0  0  0  0
 19 18  1  0  0  0  0
 20 12  1  0  0  0  0
 21 20  1  0  0  0  0
 21 23  1  0  0  0  0
 22 21  1  0  0  0  0
 22 23  1  0  0  0  0
 24 25  1  0  0  0  0
 24  1  1  0  0  0  0
 25 30  1  0  0  0  0
 26 31  1  0  0  0  0
 26 25  2  0  0  0  0
 27 26  1  0  0  0  0
 28 27  2  0  0  0  0
 28 29  1  0  0  0  0
 29 24  2  0  0  0  0
 32 28  1  0  0  0  0
M  END
>  <minimizedAffinity>
-4.75799179

$$$$

 OpenBabel03272508293D

 32 35  0  0  1  0  0  0  0  0999 V2000
   37.0140   26.7950   34.9440 C   0  0  1  0  0  0  0  0  0  0  0  0
   37.9790   25.7400   34.7350 C   0  0  1  0  0  0  0  0  0  0  0  0
   38.4310   26.9210   35.5290 C   0  0  0  0  0  0  0  0  0  0  0  0
   36.2620   26.8670   35.7590 H   0  0  0  0  0  0  0  0  0  0  0  0
   38.3860   25.6750   33.6830 H   0  0  0  0  0  0  0  0  0  0  0  0
   39.1410   27.6240   35.0610 H   0  0  0  0  0  0  0  0  0  0  0  0
   38.5760   26.7510   36.6100 H   0  0  0  0  0  0  0  0  0  0  0  0
   38.7480   24.3630   36.5790 C   0  0  2  0  0  0  0  0  0  0  0  0
   37.8540   24.3840   35.3470 C   0  0  2  0  0  0  0  0  0  0  0  0
   38.3290   23.4050   34.5270 O   0  0  0  0  0  0  0  0  0  0  0  0
   39.0100   22.4670   35.2430 C   0  0  0  0  0  0  0  0  0  0  0  0
   38.9450   22.8490   36.7070 C   0  0  1  0  0  0  0  0  0  0  0  0
   39.7470   24.7850   36.3960 H   0  0  0  0  0  0  0  0  0  0  0  0
   36.8310   24.1400   35.7040 H   0  0  0  0  0  0  0  0  0  0  0  0
   40.0770   22.5250   34.9490 H   0  0  0  0  0  0  0  0  0  0  0  0
   38.6660   21.4270   35.0830 H   0  0  0  0  0  0  0  0  0  0  0  0
   37.9990   22.3740   37.0900 H   0  0  0  0  0  0  0  0  0  0  0  0
   38.1380   24.8900   37.7060 O   0  0  0  0  0  0  0  0  0  0  0  0
   38.7970   25.4200   38.1920 H   0  0  0  0  0  0  0  0  0  0  0  0
   40.0600   22.5370   37.4300 O   0  0  0  0  0  0  0  0  0  0  0  0
   41.0370   21.8820   36.6990 C   0  0  0  0  0  3  0  0  0  0  0  0
   42.4290   22.3600   36.6540 C   0  0  0  0  0  2  0  0  0  0  0  0
   42.0850   21.0760   37.3730 C   0  0  0  0  0  2  0  0  0  0  0  0
   36.7500   27.8460   33.8800 C   0  0  0  0  0  0  0  0  0  0  0  0
   35.9180   28.9140   34.2130 C   0  0  0  0  0  0  0  0  0  0  0  0
   35.6970   29.8290   33.1970 C   0  0  0  0  0  0  0  0  0  0  0  0
   36.2620   29.6740   31.9690 N   0  0  0  0  0  0  0  0  0  0  0  0
   37.0710   28.6130   31.6830 C   0  0  0  0  0  0  0  0  0  0  0  0
   37.3130   27.6930   32.6560 N   0  0  0  0  0  0  0  0  0  0  0  0
   35.5020   28.9770   35.2070 H   0  0  0  0  0  0  0  0  0  0  0  0
   35.0520   30.6830   33.4130 H   0  0  0  0  0  0  0  0  0  0  0  0
   37.5290   28.4710   30.7140 H   0  0  0  0  0  0  0  0  0  0  0  0
  1  3  1  0  0  0  0
  1  4  1  1  0  0  0
  2  5  1  6  0  0  0
  2  1  1  0  0  0  0
  2  9  1  0  0  0  0
  2  3  1  0  0  0  0
  3  7  1  0  0  0  0
  6  3  1  0  0  0  0
  8 13  1  6  0  0  0
  8 12  1  0  0  0  0
  8 18  1  0  0  0  0
  9 14  1  1  0  0  0
  9  8  1  0  0  0  0
 10 11  1  0  0  0  0
 10  9  1  0  0  0  0
 11 12  1  0  0  0  0
 12 17  1  1  0  0  0
 12 20  1  0  0  0  0
 15 11  1  0  0  0  0
 16 11  1  0  0  0  0
 18 19  1  0  0  0  0
 21 23  1  0  0  0  0
 21 20  1  0  0  0  0
 22 21  1  0  0  0  0
 22 23  1  0  0  0  0
 24 25  1  0  0  0  0
 24  1  1  0  0  0  0
 25 30  1  0  0  0  0
 26 31  1  0  0  0  0
 26 25  2  0  0  0  0
 27 26  1  0  0  0  0
 28 27  2  0  0  0  0
 28 29  1  0  0  0  0
 29 24  2  0  0  0  0
 32 28  1  0  0  0  0
M  END
>  <minimizedAffinity>
-4.71931314

$$$$

 OpenBabel03272508293D

 32 35  0  0  1  0  0  0  0  0999 V2000
   35.8780   29.5780   33.7840 C   0  0  1  0  0  0  0  0  0  0  0  0
   35.6400   28.5680   32.7790 C   0  0  1  0  0  0  0  0  0  0  0  0
   35.6650   29.9880   32.3170 C   0  0  0  0  0  0  0  0  0  0  0  0
   36.8610   29.9520   34.1410 H   0  0  0  0  0  0  0  0  0  0  0  0
   34.6180   28.0880   32.8250 H   0  0  0  0  0  0  0  0  0  0  0  0
   34.7110   30.4600   32.0290 H   0  0  0  0  0  0  0  0  0  0  0  0
   36.5420   30.2860   31.7170 H   0  0  0  0  0  0  0  0  0  0  0  0
   36.0680   26.7570   31.2220 C   0  0  2  0  0  0  0  0  0  0  0  0
   36.6760   27.5830   32.3470 C   0  0  2  0  0  0  0  0  0  0  0  0
   36.9840   26.6960   33.3350 O   0  0  0  0  0  0  0  0  0  0  0  0
   37.1490   25.4440   32.8210 C   0  0  0  0  0  0  0  0  0  0  0  0
   36.9670   25.5190   31.3200 C   0  0  1  0  0  0  0  0  0  0  0  0
   35.0490   26.4090   31.4430 H   0  0  0  0  0  0  0  0  0  0  0  0
   37.5960   28.0450   31.9290 H   0  0  0  0  0  0  0  0  0  0  0  0
   36.3270   24.8080   33.2070 H   0  0  0  0  0  0  0  0  0  0  0  0
   38.1090   24.9620   33.0860 H   0  0  0  0  0  0  0  0  0  0  0  0
   37.9890   25.7600   30.9150 H   0  0  0  0  0  0  0  0  0  0  0  0
   36.1760   27.3630   29.9810 O   0  0  0  0  0  0  0  0  0  0  0  0
   35.3440   27.2130   29.4930 H   0  0  0  0  0  0  0  0  0  0  0  0
   36.3870   24.4190   30.7580 O   0  0  0  0  0  0  0  0  0  0  0  0
   36.4190   23.2950   31.5640 C   0  0  0  0  0  3  0  0  0  0  0  0
   35.5680   22.1220   31.3010 C   0  0  0  0  0  2  0  0  0  0  0  0
   37.0640   22.0410   31.1030 C   0  0  0  0  0  2  0  0  0  0  0  0
   34.7590   30.0830   34.6770 C   0  0  0  0  0  0  0  0  0  0  0  0
   35.0120   31.2020   35.4680 C   0  0  0  0  0  0  0  0  0  0  0  0
   33.9620   31.6040   36.2770 C   0  0  0  0  0  0  0  0  0  0  0  0
   32.7760   30.9370   36.2810 N   0  0  0  0  0  0  0  0  0  0  0  0
   32.5670   29.8450   35.4900 C   0  0  0  0  0  0  0  0  0  0  0  0
   33.5760   29.4200   34.6810 N   0  0  0  0  0  0  0  0  0  0  0  0
   35.9760   31.6850   35.4170 H   0  0  0  0  0  0  0  0  0  0  0  0
   34.1150   32.4780   36.9140 H   0  0  0  0  0  0  0  0  0  0  0  0
   31.6330   29.3000   35.4790 H   0  0  0  0  0  0  0  0  0  0  0  0
  1  4  1  1  0  0  0
  1 24  1  0  0  0  0
  2  5  1  1  0  0  0
  2  1  1  0  0  0  0
  3  2  1  0  0  0  0
  3  1  1  0  0  0  0
  6  3  1  0  0  0  0
  7  3  1  0  0  0  0
  8 12  1  0  0  0  0
  8 13  1  1  0  0  0
  8  9  1  0  0  0  0
  9 14  1  6  0  0  0
  9  2  1  0  0  0  0
  9 10  1  0  0  0  0
 11 16  1  0  0  0  0
 11 15  1  0  0  0  0
 11 10  1  0  0  0  0
 12 17  1  6  0  0  0
 12 11  1  0  0  0  0
 18  8  1  0  0  0  0
 19 18  1  0  0  0  0
 20 12  1  0  0  0  0
 20 21  1  0  0  0  0
 22 21  1  0  0  0  0
 23 22  1  0  0  0  0
 23 21  1  0  0  0  0
 24 29  2  0  0  0  0
 24 25  1  0  0  0  0
 25 26  2  0  0  0  0
 26 27  1  0  0  0  0
 26 31  1  0  0  0  0
 28 27  2  0  0  0  0
 29 28  1  0  0  0  0
 30 25  1  0  0  0  0
 32 28  1  0  0  0  0
M  END
>  <minimizedAffinity>
-4.66930246

$$$$

 OpenBabel03272508293D

 32 35  0  0  1  0  0  0  0  0999 V2000
   36.7700   27.2380   32.8750 C   0  0  1  0  0  0  0  0  0  0  0  0
   37.4960   26.8560   31.6860 C   0  0  1  0  0  0  0  0  0  0  0  0
   38.3040   27.1280   32.9130 C   0  0  0  0  0  0  0  0  0  0  0  0
   36.3250   26.5630   33.6370 H   0  0  0  0  0  0  0  0  0  0  0  0
   37.5430   27.6540   30.8860 H   0  0  0  0  0  0  0  0  0  0  0  0
   38.9040   28.0520   32.9480 H   0  0  0  0  0  0  0  0  0  0  0  0
   38.7610   26.2470   33.3960 H   0  0  0  0  0  0  0  0  0  0  0  0
   36.0130   24.9680   31.3410 C   0  0  2  0  0  0  0  0  0  0  0  0
   37.4190   25.4940   31.0830 C   0  0  2  0  0  0  0  0  0  0  0  0
   38.2620   24.6130   31.6930 O   0  0  0  0  0  0  0  0  0  0  0  0
   37.6670   23.3940   31.8300 C   0  0  0  0  0  0  0  0  0  0  0  0
   36.2900   23.4660   31.2050 C   0  0  1  0  0  0  0  0  0  0  0  0
   35.6770   25.1220   32.3760 H   0  0  0  0  0  0  0  0  0  0  0  0
   37.5580   25.4760   29.9810 H   0  0  0  0  0  0  0  0  0  0  0  0
   37.5140   23.2110   32.9120 H   0  0  0  0  0  0  0  0  0  0  0  0
   38.2510   22.5490   31.4180 H   0  0  0  0  0  0  0  0  0  0  0  0
   36.4470   23.2060   30.1210 H   0  0  0  0  0  0  0  0  0  0  0  0
   35.0890   25.3980   30.4030 O   0  0  0  0  0  0  0  0  0  0  0  0
   34.2570   25.6100   30.8660 H   0  0  0  0  0  0  0  0  0  0  0  0
   35.3380   22.7120   31.8280 O   0  0  0  0  0  0  0  0  0  0  0  0
   35.7170   21.3980   32.0440 C   0  0  0  0  0  3  0  0  0  0  0  0
   35.4770   20.7180   33.3270 C   0  0  0  0  0  2  0  0  0  0  0  0
   34.7100   20.3100   32.0910 C   0  0  0  0  0  2  0  0  0  0  0  0
   36.3040   28.6680   33.0920 C   0  0  0  0  0  0  0  0  0  0  0  0
   35.8900   29.0300   34.3720 C   0  0  0  0  0  0  0  0  0  0  0  0
   35.4570   30.3380   34.5050 C   0  0  0  0  0  0  0  0  0  0  0  0
   35.4450   31.1920   33.4440 N   0  0  0  0  0  0  0  0  0  0  0  0
   35.8600   30.7980   32.2060 C   0  0  0  0  0  0  0  0  0  0  0  0
   36.2940   29.5190   32.0360 N   0  0  0  0  0  0  0  0  0  0  0  0
   35.9240   28.3030   35.1700 H   0  0  0  0  0  0  0  0  0  0  0  0
   35.1230   30.6670   35.4910 H   0  0  0  0  0  0  0  0  0  0  0  0
   35.8580   31.4590   31.3500 H   0  0  0  0  0  0  0  0  0  0  0  0
  1  3  1  0  0  0  0
  1 24  1  0  0  0  0
  1  4  1  1  0  0  0
  2  5  1  6  0  0  0
  2  1  1  0  0  0  0
  2  3  1  0  0  0  0
  3  6  1  0  0  0  0
  3  7  1  0  0  0  0
  8 13  1  1  0  0  0
  9 14  1  6  0  0  0
  9  8  1  0  0  0  0
  9  2  1  0  0  0  0
  9 10  1  0  0  0  0
 10 11  1  0  0  0  0
 11 15  1  0  0  0  0
 12 17  1  6  0  0  0
 12  8  1  0  0  0  0
 12 20  1  0  0  0  0
 12 11  1  0  0  0  0
 16 11  1  0  0  0  0
 18 19  1  0  0  0  0
 18  8  1  0  0  0  0
 20 21  1  0  0  0  0
 21 23  1  0  0  0  0
 21 22  1  0  0  0  0
 23 22  1  0  0  0  0
 24 25  1  0  0  0  0
 25 26  2  0  0  0  0
 25 30  1  0  0  0  0
 26 31  1  0  0  0  0
 27 26  1  0  0  0  0
 28 27  2  0  0  0  0
 29 28  1  0  0  0  0
 29 24  2  0  0  0  0
 32 28  1  0  0  0  0
M  END
>  <minimizedAffinity>
-4.66292715

$$$$

 OpenBabel03272508293D

 32 35  0  0  1  0  0  0  0  0999 V2000
   37.3910   26.5940   34.9490 C   0  0  1  0  0  0  0  0  0  0  0  0
   38.7360   26.0710   34.9050 C   0  0  1  0  0  0  0  0  0  0  0  0
   38.4660   27.1580   35.8930 C   0  0  0  0  0  0  0  0  0  0  0  0
   36.5360   26.2030   35.5410 H   0  0  0  0  0  0  0  0  0  0  0  0
   39.3320   26.3770   33.9950 H   0  0  0  0  0  0  0  0  0  0  0  0
   38.8800   28.1600   35.6920 H   0  0  0  0  0  0  0  0  0  0  0  0
   38.4520   26.8540   36.9550 H   0  0  0  0  0  0  0  0  0  0  0  0
   38.9820   23.7920   34.1110 C   0  0  2  0  0  0  0  0  0  0  0  0
   39.0900   24.6870   35.3380 C   0  0  2  0  0  0  0  0  0  0  0  0
   38.1990   24.1880   36.2410 O   0  0  0  0  0  0  0  0  0  0  0  0
   37.9480   22.8710   35.9910 C   0  0  0  0  0  0  0  0  0  0  0  0
   38.7970   22.4420   34.8140 C   0  0  1  0  0  0  0  0  0  0  0  0
   38.0620   23.9600   33.5320 H   0  0  0  0  0  0  0  0  0  0  0  0
   40.1310   24.5790   35.7080 H   0  0  0  0  0  0  0  0  0  0  0  0
   36.8920   22.7830   35.6660 H   0  0  0  0  0  0  0  0  0  0  0  0
   38.0970   22.2020   36.8600 H   0  0  0  0  0  0  0  0  0  0  0  0
   39.7750   22.1130   35.2640 H   0  0  0  0  0  0  0  0  0  0  0  0
   40.1240   23.8010   33.3260 O   0  0  0  0  0  0  0  0  0  0  0  0
   39.8520   23.8030   32.3890 H   0  0  0  0  0  0  0  0  0  0  0  0
   38.2180   21.5150   33.9970 O   0  0  0  0  0  0  0  0  0  0  0  0
   36.9080   21.8070   33.6580 C   0  0  0  0  0  3  0  0  0  0  0  0
   36.3190   21.3800   32.3780 C   0  0  0  0  0  2  0  0  0  0  0  0
   35.8600   20.7560   33.6760 C   0  0  0  0  0  2  0  0  0  0  0  0
   36.9160   27.6370   33.9520 C   0  0  0  0  0  0  0  0  0  0  0  0
   37.4470   27.5950   32.6640 C   0  0  0  0  0  0  0  0  0  0  0  0
   36.9930   28.5830   31.8060 C   0  0  0  0  0  0  0  0  0  0  0  0
   36.0930   29.5180   32.2150 N   0  0  0  0  0  0  0  0  0  0  0  0
   35.5970   29.5250   33.4860 C   0  0  0  0  0  0  0  0  0  0  0  0
   36.0190   28.5690   34.3580 N   0  0  0  0  0  0  0  0  0  0  0  0
   38.1580   26.8260   32.4050 H   0  0  0  0  0  0  0  0  0  0  0  0
   37.3820   28.5890   30.7850 H   0  0  0  0  0  0  0  0  0  0  0  0
   34.8820   30.2590   33.8310 H   0  0  0  0  0  0  0  0  0  0  0  0
  1  4  1  1  0  0  0
  1  3  1  0  0  0  0
  2  5  1  6  0  0  0
  2  1  1  0  0  0  0
  2  9  1  0  0  0  0
  2  3  1  0  0  0  0
  3  7  1  0  0  0  0
  6  3  1  0  0  0  0
  8 13  1  6  0  0  0
  8 12  1  0  0  0  0
  8  9  1  0  0  0  0
  9 14  1  1  0  0  0
  9 10  1  0  0  0  0
 11 10  1  0  0  0  0
 11 16  1  0  0  0  0
 12 17  1  1  0  0  0
 12 11  1  0  0  0  0
 15 11  1  0  0  0  0
 18  8  1  0  0  0  0
 19 18  1  0  0  0  0
 20 12  1  0  0  0  0
 21 23  1  0  0  0  0
 21 20  1  0  0  0  0
 22 21  1  0  0  0  0
 22 23  1  0  0  0  0
 24 29  1  0  0  0  0
 24  1  1  0  0  0  0
 25 24  2  0  0  0  0
 26 27  2  0  0  0  0
 26 25  1  0  0  0  0
 27 28  1  0  0  0  0
 28 32  1  0  0  0  0
 28 29  2  0  0  0  0
 30 25  1  0  0  0  0
 31 26  1  0  0  0  0
M  END
>  <minimizedAffinity>
-4.51745749

$$$$

 OpenBabel03272508293D

 32 35  0  0  1  0  0  0  0  0999 V2000
   36.3310   23.6020   31.9110 C   0  0  1  0  0  0  0  0  0  0  0  0
   36.8140   24.4090   30.8150 C   0  0  1  0  0  0  0  0  0  0  0  0
   35.3480   24.4600   31.0960 C   0  0  0  0  0  0  0  0  0  0  0  0
   36.2800   23.8870   32.9840 H   0  0  0  0  0  0  0  0  0  0  0  0
   37.1130   23.8240   29.8950 H   0  0  0  0  0  0  0  0  0  0  0  0
   34.6630   23.9610   30.3910 H   0  0  0  0  0  0  0  0  0  0  0  0
   34.9720   25.3990   31.5370 H   0  0  0  0  0  0  0  0  0  0  0  0
   38.5620   25.3320   32.2210 C   0  0  2  0  0  0  0  0  0  0  0  0
   37.6910   25.6020   31.0020 C   0  0  2  0  0  0  0  0  0  0  0  0
   36.9760   26.7240   31.2980 O   0  0  0  0  0  0  0  0  0  0  0  0
   37.6170   27.4660   32.2440 C   0  0  0  0  0  0  0  0  0  0  0  0
   38.9210   26.7780   32.5840 C   0  0  1  0  0  0  0  0  0  0  0  0
   37.9980   24.9360   33.0760 H   0  0  0  0  0  0  0  0  0  0  0  0
   38.3890   25.7890   30.1580 H   0  0  0  0  0  0  0  0  0  0  0  0
   37.0000   27.4470   33.1650 H   0  0  0  0  0  0  0  0  0  0  0  0
   37.7820   28.5240   31.9640 H   0  0  0  0  0  0  0  0  0  0  0  0
   39.6660   27.1810   31.8430 H   0  0  0  0  0  0  0  0  0  0  0  0
   39.6940   24.5880   31.9290 O   0  0  0  0  0  0  0  0  0  0  0  0
   39.8360   23.9490   32.6510 H   0  0  0  0  0  0  0  0  0  0  0  0
   39.3090   26.8960   33.8870 O   0  0  0  0  0  0  0  0  0  0  0  0
   38.2850   26.6950   34.7970 C   0  0  0  0  0  3  0  0  0  0  0  0
   38.4100   25.7420   35.9130 C   0  0  0  0  0  2  0  0  0  0  0  0
   38.3730   27.2300   36.1780 C   0  0  0  0  0  2  0  0  0  0  0  0
   36.0580   22.1180   31.7390 C   0  0  0  0  0  0  0  0  0  0  0  0
   36.8860   21.3990   30.8800 C   0  0  0  0  0  0  0  0  0  0  0  0
   36.5760   20.0560   30.7460 C   0  0  0  0  0  0  0  0  0  0  0  0
   35.5310   19.5000   31.4180 N   0  0  0  0  0  0  0  0  0  0  0  0
   34.7430   20.2390   32.2520 C   0  0  0  0  0  0  0  0  0  0  0  0
   35.0170   21.5630   32.4080 N   0  0  0  0  0  0  0  0  0  0  0  0
   37.6990   21.9020   30.3770 H   0  0  0  0  0  0  0  0  0  0  0  0
   37.1990   19.4530   30.0830 H   0  0  0  0  0  0  0  0  0  0  0  0
   33.9080   19.8180   32.7930 H   0  0  0  0  0  0  0  0  0  0  0  0
  1  4  1  1  0  0  0
  2  5  1  6  0  0  0
  2  9  1  0  0  0  0
  2  3  1  0  0  0  0
  2  1  1  0  0  0  0
  3  7  1  0  0  0  0
  3  1  1  0  0  0  0
  6  3  1  0  0  0  0
  8 12  1  0  0  0  0
  8 13  1  1  0  0  0
  9 14  1  6  0  0  0
  9 10  1  0  0  0  0
  9  8  1  0  0  0  0
 10 11  1  0  0  0  0
 11 12  1  0  0  0  0
 11 15  1  0  0  0  0
 12 17  1  6  0  0  0
 12 20  1  0  0  0  0
 16 11  1  0  0  0  0
 18  8  1  0  0  0  0
 18 19  1  0  0  0  0
 20 21  1  0  0  0  0
 21 22  1  0  0  0  0
 21 23  1  0  0  0  0
 22 23  1  0  0  0  0
 24  1  1  0  0  0  0
 24 29  1  0  0  0  0
 25 24  2  0  0  0  0
 26 25  1  0  0  0  0
 26 27  2  0  0  0  0
 27 28  1  0  0  0  0
 28 29  2  0  0  0  0
 28 32  1  0  0  0  0
 30 25  1  0  0  0  0
 31 26  1  0  0  0  0
M  END
>  <minimizedAffinity>
-4.5115509

$$$$

 OpenBabel03272508293D

 32 35  0  0  1  0  0  0  0  0999 V2000
   36.1510   23.0620   32.2020 C   0  0  1  0  0  0  0  0  0  0  0  0
   37.0100   24.0050   31.5230 C   0  0  1  0  0  0  0  0  0  0  0  0
   35.5620   24.0260   31.1580 C   0  0  0  0  0  0  0  0  0  0  0  0
   35.6380   23.2030   33.1770 H   0  0  0  0  0  0  0  0  0  0  0  0
   37.7000   23.5460   30.7540 H   0  0  0  0  0  0  0  0  0  0  0  0
   35.2660   23.6280   30.1730 H   0  0  0  0  0  0  0  0  0  0  0  0
   34.9870   24.9010   31.5080 H   0  0  0  0  0  0  0  0  0  0  0  0
   38.5740   24.5830   33.2850 C   0  0  2  0  0  0  0  0  0  0  0  0
   37.6630   25.1580   32.2090 C   0  0  2  0  0  0  0  0  0  0  0  0
   36.7620   25.9420   32.8670 O   0  0  0  0  0  0  0  0  0  0  0  0
   37.2660   26.3520   34.0650 C   0  0  0  0  0  0  0  0  0  0  0  0
   38.6730   25.8100   34.1980 C   0  0  1  0  0  0  0  0  0  0  0  0
   38.0930   23.7970   33.8840 H   0  0  0  0  0  0  0  0  0  0  0  0
   38.3130   25.7710   31.5490 H   0  0  0  0  0  0  0  0  0  0  0  0
   36.6670   25.8740   34.8660 H   0  0  0  0  0  0  0  0  0  0  0  0
   37.2400   27.4470   34.2230 H   0  0  0  0  0  0  0  0  0  0  0  0
   39.3310   26.5870   33.7170 H   0  0  0  0  0  0  0  0  0  0  0  0
   39.8180   24.2090   32.8030 O   0  0  0  0  0  0  0  0  0  0  0  0
   40.0750   23.3720   33.2320 H   0  0  0  0  0  0  0  0  0  0  0  0
   39.0410   25.4750   35.4690 O   0  0  0  0  0  0  0  0  0  0  0  0
   38.3240   24.4150   35.9980 C   0  0  0  0  0  3  0  0  0  0  0  0
   38.9610   23.3820   36.8310 C   0  0  0  0  0  2  0  0  0  0  0  0
   37.9870   24.3650   37.4420 C   0  0  0  0  0  2  0  0  0  0  0  0
   36.0530   21.6160   31.7500 C   0  0  0  0  0  0  0  0  0  0  0  0
   35.0590   20.8230   32.3200 C   0  0  0  0  0  0  0  0  0  0  0  0
   35.0310   19.5080   31.8850 C   0  0  0  0  0  0  0  0  0  0  0  0
   35.9230   19.0460   30.9660 N   0  0  0  0  0  0  0  0  0  0  0  0
   36.8820   19.8560   30.4320 C   0  0  0  0  0  0  0  0  0  0  0  0
   36.9410   21.1550   30.8340 N   0  0  0  0  0  0  0  0  0  0  0  0
   34.3830   21.2510   33.0440 H   0  0  0  0  0  0  0  0  0  0  0  0
   34.2680   18.8490   32.3040 H   0  0  0  0  0  0  0  0  0  0  0  0
   37.6000   19.5100   29.7020 H   0  0  0  0  0  0  0  0  0  0  0  0
  1  4  1  1  0  0  0
  2  5  1  6  0  0  0
  2  1  1  0  0  0  0
  2  9  1  0  0  0  0
  3  7  1  0  0  0  0
  3  2  1  0  0  0  0
  3  1  1  0  0  0  0
  6  3  1  0  0  0  0
  8 13  1  1  0  0  0
  8 12  1  0  0  0  0
  9 14  1  6  0  0  0
  9 10  1  0  0  0  0
  9  8  1  0  0  0  0
 10 11  1  0  0  0  0
 11 12  1  0  0  0  0
 11 16  1  0  0  0  0
 11 15  1  0  0  0  0
 12 17  1  6  0  0  0
 12 20  1  0  0  0  0
 18 19  1  0  0  0  0
 18  8  1  0  0  0  0
 20 21  1  0  0  0  0
 21 22  1  0  0  0  0
 21 23  1  0  0  0  0
 22 23  1  0  0  0  0
 24  1  1  0  0  0  0
 24 25  1  0  0  0  0
 25 30  1  0  0  0  0
 26 31  1  0  0  0  0
 26 25  2  0  0  0  0
 27 26  1  0  0  0  0
 28 29  1  0  0  0  0
 28 27  2  0  0  0  0
 29 24  2  0  0  0  0
 32 28  1  0  0  0  0
M  END
>  <minimizedAffinity>
-4.38349009

$$$$

 OpenBabel03272508293D

 32 35  0  0  1  0  0  0  0  0999 V2000
   38.6740   25.6410   34.9280 C   0  0  1  0  0  0  0  0  0  0  0  0
   37.4370   26.3700   35.0900 C   0  0  1  0  0  0  0  0  0  0  0  0
   38.6870   27.0520   35.5410 C   0  0  0  0  0  0  0  0  0  0  0  0
   39.3260   25.6150   34.0290 H   0  0  0  0  0  0  0  0  0  0  0  0
   36.7680   25.9840   35.9150 H   0  0  0  0  0  0  0  0  0  0  0  0
   38.8600   27.1610   36.6240 H   0  0  0  0  0  0  0  0  0  0  0  0
   39.0270   27.8980   34.9190 H   0  0  0  0  0  0  0  0  0  0  0  0
   37.1710   26.2130   32.6830 C   0  0  2  0  0  0  0  0  0  0  0  0
   36.6340   26.8820   33.9410 C   0  0  2  0  0  0  0  0  0  0  0  0
   36.8040   28.2200   33.7510 O   0  0  0  0  0  0  0  0  0  0  0  0
   36.8690   28.5130   32.4210 C   0  0  0  0  0  0  0  0  0  0  0  0
   36.6820   27.2280   31.6440 C   0  0  1  0  0  0  0  0  0  0  0  0
   38.2690   26.2230   32.6230 H   0  0  0  0  0  0  0  0  0  0  0  0
   35.5540   26.6240   33.9910 H   0  0  0  0  0  0  0  0  0  0  0  0
   37.8960   28.8680   32.2020 H   0  0  0  0  0  0  0  0  0  0  0  0
   36.1580   29.2930   32.0870 H   0  0  0  0  0  0  0  0  0  0  0  0
   35.5690   27.1270   31.5110 H   0  0  0  0  0  0  0  0  0  0  0  0
   36.6290   24.9580   32.4590 O   0  0  0  0  0  0  0  0  0  0  0  0
   37.3380   24.3700   32.1380 H   0  0  0  0  0  0  0  0  0  0  0  0
   37.3930   27.1530   30.4810 O   0  0  0  0  0  0  0  0  0  0  0  0
   37.9440   28.3590   30.0830 C   0  0  0  0  0  3  0  0  0  0  0  0
   39.0510   28.4280   29.1150 C   0  0  0  0  0  2  0  0  0  0  0  0
   37.6720   28.9160   28.7350 C   0  0  0  0  0  2  0  0  0  0  0  0
   39.1090   24.5890   35.9330 C   0  0  0  0  0  0  0  0  0  0  0  0
   40.2880   23.8920   35.6760 C   0  0  0  0  0  0  0  0  0  0  0  0
   40.6230   22.9310   36.6150 C   0  0  0  0  0  0  0  0  0  0  0  0
   39.8390   22.7000   37.7030 N   0  0  0  0  0  0  0  0  0  0  0  0
   38.6900   23.4050   37.9190 C   0  0  0  0  0  0  0  0  0  0  0  0
   38.3290   24.3590   37.0170 N   0  0  0  0  0  0  0  0  0  0  0  0
   40.8640   24.1240   34.7930 H   0  0  0  0  0  0  0  0  0  0  0  0
   41.5400   22.3600   36.4560 H   0  0  0  0  0  0  0  0  0  0  0  0
   38.0530   23.2380   38.7760 H   0  0  0  0  0  0  0  0  0  0  0  0
  1  4  1  6  0  0  0
  1  2  1  0  0  0  0
  1  3  1  0  0  0  0
  1 24  1  0  0  0  0
  2  3  1  0  0  0  0
  2  5  1  1  0  0  0
  3  6  1  0  0  0  0
  7  3  1  0  0  0  0
  8 13  1  1  0  0  0
  8  9  1  0  0  0  0
  9 14  1  1  0  0  0
  9  2  1  0  0  0  0
 10  9  1  0  0  0  0
 11 10  1  0  0  0  0
 12 17  1  6  0  0  0
 12 11  1  0  0  0  0
 12  8  1  0  0  0  0
 15 11  1  0  0  0  0
 16 11  1  0  0  0  0
 18  8  1  0  0  0  0
 19 18  1  0  0  0  0
 20 12  1  0  0  0  0
 21 20  1  0  0  0  0
 22 21  1  0  0  0  0
 23 22  1  0  0  0  0
 23 21  1  0  0  0  0
 24 29  1  0  0  0  0
 25 24  2  0  0  0  0
 25 26  1  0  0  0  0
 26 27  2  0  0  0  0
 27 28  1  0  0  0  0
 28 32  1  0  0  0  0
 29 28  2  0  0  0  0
 30 25  1  0  0  0  0
 31 26  1  0  0  0  0
M  END
>  <minimizedAffinity>
-4.36199045

$$$$
