
 OpenBabel03272508273D

 32 35  0  0  1  0  0  0  0  0999 V2000
   35.6450   30.3960   49.0540 C   0  0  1  0  0  0  0  0  0  0  0  0
   35.7350   28.9800   48.7840 C   0  0  1  0  0  0  0  0  0  0  0  0
   35.8990   29.4080   50.2060 C   0  0  0  0  0  0  0  0  0  0  0  0
   34.7240   30.9840   49.2580 H   0  0  0  0  0  0  0  0  0  0  0  0
   36.6840   28.6600   48.2600 H   0  0  0  0  0  0  0  0  0  0  0  0
   36.9050   29.3590   50.6530 H   0  0  0  0  0  0  0  0  0  0  0  0
   35.0650   29.1590   50.8850 H   0  0  0  0  0  0  0  0  0  0  0  0
   33.8600   28.9360   47.2450 C   0  0  2  0  0  0  0  0  0  0  0  0
   34.5730   28.1550   48.3420 C   0  0  2  0  0  0  0  0  0  0  0  0
   33.6550   27.9870   49.3340 O   0  0  0  0  0  0  0  0  0  0  0  0
   32.3880   28.0700   48.8370 C   0  0  0  0  0  0  0  0  0  0  0  0
   32.4800   28.2770   47.3400 C   0  0  1  0  0  0  0  0  0  0  0  0
   33.7090   29.9950   47.4980 H   0  0  0  0  0  0  0  0  0  0  0  0
   34.8530   27.1790   47.8930 H   0  0  0  0  0  0  0  0  0  0  0  0
   31.9190   28.9830   49.2530 H   0  0  0  0  0  0  0  0  0  0  0  0
   31.7400   27.2070   49.0840 H   0  0  0  0  0  0  0  0  0  0  0  0
   32.5240   27.2400   46.9040 H   0  0  0  0  0  0  0  0  0  0  0  0
   34.4230   28.7550   45.9930 O   0  0  0  0  0  0  0  0  0  0  0  0
   34.4240   29.6130   45.5290 H   0  0  0  0  0  0  0  0  0  0  0  0
   31.4990   29.0650   46.8100 O   0  0  0  0  0  0  0  0  0  0  0  0
   30.8800   28.5180   45.6990 C   0  0  0  0  0  3  0  0  0  0  0  0
   29.7100   29.1500   45.0670 C   0  0  0  0  0  2  0  0  0  0  0  0
   31.0440   29.1260   44.3550 C   0  0  0  0  0  2  0  0  0  0  0  0
   36.8300   31.3200   48.8350 C   0  0  0  0  0  0  0  0  0  0  0  0
   37.0380   32.3430   49.7580 C   0  0  0  0  0  0  0  0  0  0  0  0
   38.1200   33.1650   49.4950 C   0  0  0  0  0  0  0  0  0  0  0  0
   38.9110   32.9690   48.4050 N   0  0  0  0  0  0  0  0  0  0  0  0
   38.6740   31.9540   47.5240 C   0  0  0  0  0  0  0  0  0  0  0  0
   37.6190   31.1240   47.7490 N   0  0  0  0  0  0  0  0  0  0  0  0
   36.3720   32.4430   50.6020 H   0  0  0  0  0  0  0  0  0  0  0  0
   38.3220   33.9810   50.1930 H   0  0  0  0  0  0  0  0  0  0  0  0
   39.2890   31.7810   46.6510 H   0  0  0  0  0  0  0  0  0  0  0  0
  1  4  1  6  0  0  0
  1  3  1  0  0  0  0
  2  5  1  6  0  0  0
  2  1  1  0  0  0  0
  2  3  1  0  0  0  0
  3  6  1  0  0  0  0
  3  7  1  0  0  0  0
  8 12  1  0  0  0  0
  8 13  1  1  0  0  0
  8  9  1  0  0  0  0
  9 14  1  6  0  0  0
  9  2  1  0  0  0  0
  9 10  1  0  0  0  0
 11 16  1  0  0  0  0
 11 15  1  0  0  0  0
 11 10  1  0  0  0  0
 12 17  1  6  0  0  0
 12 11  1  0  0  0  0
 18  8  1  0  0  0  0
 19 18  1  0  0  0  0
 20 12  1  0  0  0  0
 21 20  1  0  0  0  0
 22 21  1  0  0  0  0
 23 22  1  0  0  0  0
 23 21  1  0  0  0  0
 24  1  1  0  0  0  0
 24 25  1  0  0  0  0
 25 30  1  0  0  0  0
 26 25  2  0  0  0  0
 26 31  1  0  0  0  0
 27 26  1  0  0  0  0
 28 29  1  0  0  0  0
 28 27  2  0  0  0  0
 29 24  2  0  0  0  0
 32 28  1  0  0  0  0
M  END
>  <minimizedAffinity>
-4.57677221

>  <minimizedRMSD>
0.325446993

$$$$
