
 OpenBabel03272501193D

 24 26  0  0  0  0  0  0  0  0999 V2000
   37.0850   23.9150   32.6450 C   0  0  0  0  0  0  0  0  0  0  0  0
   36.1950   23.3090   31.7700 C   0  0  0  0  0  0  0  0  0  0  0  0
   35.4260   24.1890   31.0130 C   0  0  0  0  0  0  0  0  0  0  0  0
   35.5630   25.5770   31.1470 C   0  0  0  0  0  0  0  0  0  0  0  0
   36.4900   26.0880   32.0590 C   0  0  0  0  0  0  0  0  0  0  0  0
   37.2600   25.2430   32.8170 C   0  0  0  0  0  0  0  0  0  0  0  0
   34.7300   23.7240   30.3280 H   0  0  0  0  0  0  0  0  0  0  0  0
   34.9250   26.1550   30.5190 H   0  0  0  0  0  0  0  0  0  0  0  0
   36.4840   27.1500   32.0540 H   0  0  0  0  0  0  0  0  0  0  0  0
   35.0470   21.2140   32.3200 C   0  0  0  0  0  0  0  0  0  0  0  0
   36.0530   21.8900   31.6320 C   0  0  0  0  0  0  0  0  0  0  0  0
   36.8960   21.1270   30.8200 C   0  0  0  0  0  0  0  0  0  0  0  0
   36.6660   19.7780   30.7660 N   0  0  0  0  0  0  0  0  0  0  0  0
   35.6840   19.1640   31.4460 C   0  0  0  0  0  0  0  0  0  0  0  0
   34.8590   19.8890   32.2360 N   0  0  0  0  0  0  0  0  0  0  0  0
   34.3350   21.7200   32.9800 H   0  0  0  0  0  0  0  0  0  0  0  0
   37.6950   21.5980   30.2620 H   0  0  0  0  0  0  0  0  0  0  0  0
   35.5490   18.0930   31.3640 H   0  0  0  0  0  0  0  0  0  0  0  0
   37.8950   23.0970   33.4430 O   0  0  0  0  0  0  0  0  0  0  0  0
   38.3820   22.2950   33.0800 H   0  0  0  0  0  0  0  0  0  0  0  0
   38.1600   25.7830   33.7020 O   0  0  0  0  0  0  0  0  0  0  0  0
   37.9390   26.2440   34.9890 C   0  0  0  0  0  3  0  0  0  0  0  0
   37.5930   27.6720   35.2610 C   0  0  0  0  0  2  0  0  0  0  0  0
   38.9390   27.1530   35.6480 C   0  0  0  0  0  2  0  0  0  0  0  0
  1  6  1  0  0  0  0
  1 19  1  0  0  0  0
  2  1  2  0  0  0  0
  3  4  2  0  0  0  0
  3  2  1  0  0  0  0
  4  5  1  0  0  0  0
  5  6  2  0  0  0  0
  6 21  1  0  0  0  0
  7  3  1  0  0  0  0
  8  4  1  0  0  0  0
  9  5  1  0  0  0  0
 10 16  1  0  0  0  0
 11  2  1  0  0  0  0
 11 10  2  0  0  0  0
 12 11  1  0  0  0  0
 13 12  2  0  0  0  0
 13 14  1  0  0  0  0
 14 15  2  0  0  0  0
 15 10  1  0  0  0  0
 17 12  1  0  0  0  0
 18 14  1  0  0  0  0
 20 19  1  0  0  0  0
 21 22  1  0  0  0  0
 22 23  1  0  0  0  0
 22 24  1  0  0  0  0
 23 24  1  0  0  0  0
M  END
>  <minimizedAffinity>
-4.61813307

$$$$

 OpenBabel03272501193D

 24 26  0  0  0  0  0  0  0  0999 V2000
   37.8470   25.4420   34.1380 C   0  0  0  0  0  0  0  0  0  0  0  0
   38.5520   25.5200   35.3300 C   0  0  0  0  0  0  0  0  0  0  0  0
   38.4800   26.7530   35.9730 C   0  0  0  0  0  0  0  0  0  0  0  0
   37.7450   27.8160   35.4320 C   0  0  0  0  0  0  0  0  0  0  0  0
   37.0690   27.6340   34.2230 C   0  0  0  0  0  0  0  0  0  0  0  0
   37.1230   26.4310   33.5690 C   0  0  0  0  0  0  0  0  0  0  0  0
   39.0270   26.8220   36.9040 H   0  0  0  0  0  0  0  0  0  0  0  0
   37.7590   28.7120   36.0090 H   0  0  0  0  0  0  0  0  0  0  0  0
   36.5570   28.5190   33.9360 H   0  0  0  0  0  0  0  0  0  0  0  0
   38.7890   23.6910   36.9450 C   0  0  0  0  0  0  0  0  0  0  0  0
   39.3050   24.4350   35.8840 C   0  0  0  0  0  0  0  0  0  0  0  0
   40.5650   24.0740   35.4050 C   0  0  0  0  0  0  0  0  0  0  0  0
   41.1930   23.0200   36.0140 N   0  0  0  0  0  0  0  0  0  0  0  0
   40.6600   22.3280   37.0350 C   0  0  0  0  0  0  0  0  0  0  0  0
   39.4400   22.6650   37.5110 N   0  0  0  0  0  0  0  0  0  0  0  0
   37.8100   23.8940   37.3920 H   0  0  0  0  0  0  0  0  0  0  0  0
   41.0160   24.6150   34.5830 H   0  0  0  0  0  0  0  0  0  0  0  0
   41.2030   21.5020   37.4780 H   0  0  0  0  0  0  0  0  0  0  0  0
   37.8700   24.2340   33.4290 O   0  0  0  0  0  0  0  0  0  0  0  0
   37.7410   23.3410   33.8740 H   0  0  0  0  0  0  0  0  0  0  0  0
   36.4450   26.2900   32.3820 O   0  0  0  0  0  0  0  0  0  0  0  0
   36.8930   26.5380   31.0950 C   0  0  0  0  0  3  0  0  0  0  0  0
   38.0430   27.4530   30.8290 C   0  0  0  0  0  2  0  0  0  0  0  0
   36.6600   27.8810   30.4600 C   0  0  0  0  0  2  0  0  0  0  0  0
  1  2  1  0  0  0  0
  2 11  1  0  0  0  0
  2  3  2  0  0  0  0
  3  7  1  0  0  0  0
  4  3  1  0  0  0  0
  4  8  1  0  0  0  0
  5  4  2  0  0  0  0
  6  1  2  0  0  0  0
  6  5  1  0  0  0  0
  9  5  1  0  0  0  0
 10 16  1  0  0  0  0
 10 15  1  0  0  0  0
 11 10  2  0  0  0  0
 12 11  1  0  0  0  0
 12 13  2  0  0  0  0
 13 14  1  0  0  0  0
 14 18  1  0  0  0  0
 14 15  2  0  0  0  0
 17 12  1  0  0  0  0
 19 20  1  0  0  0  0
 19  1  1  0  0  0  0
 21  6  1  0  0  0  0
 22 21  1  0  0  0  0
 23 22  1  0  0  0  0
 24 23  1  0  0  0  0
 24 22  1  0  0  0  0
M  END
>  <minimizedAffinity>
-4.47773838

$$$$

 OpenBabel03272501193D

 24 26  0  0  0  0  0  0  0  0999 V2000
   37.9600   26.1810   35.1730 C   0  0  0  0  0  0  0  0  0  0  0  0
   38.3750   24.8830   34.9140 C   0  0  0  0  0  0  0  0  0  0  0  0
   38.0010   24.3860   33.6680 C   0  0  0  0  0  0  0  0  0  0  0  0
   37.2610   25.1610   32.7670 C   0  0  0  0  0  0  0  0  0  0  0  0
   36.8910   26.4600   33.1250 C   0  0  0  0  0  0  0  0  0  0  0  0
   37.2460   26.9740   34.3450 C   0  0  0  0  0  0  0  0  0  0  0  0
   38.3220   23.3740   33.4590 H   0  0  0  0  0  0  0  0  0  0  0  0
   37.0300   24.6800   31.8440 H   0  0  0  0  0  0  0  0  0  0  0  0
   36.3360   26.9260   32.3480 H   0  0  0  0  0  0  0  0  0  0  0  0
   40.4770   23.8160   35.5880 C   0  0  0  0  0  0  0  0  0  0  0  0
   39.1320   24.0890   35.8350 C   0  0  0  0  0  0  0  0  0  0  0  0
   38.5770   23.5570   37.0000 C   0  0  0  0  0  0  0  0  0  0  0  0
   39.3960   22.8110   37.8060 N   0  0  0  0  0  0  0  0  0  0  0  0
   40.6890   22.5710   37.5310 C   0  0  0  0  0  0  0  0  0  0  0  0
   41.2420   23.0800   36.4060 N   0  0  0  0  0  0  0  0  0  0  0  0
   41.0050   24.1870   34.7030 H   0  0  0  0  0  0  0  0  0  0  0  0
   37.5370   23.7350   37.2440 H   0  0  0  0  0  0  0  0  0  0  0  0
   41.2890   21.9740   38.2050 H   0  0  0  0  0  0  0  0  0  0  0  0
   38.2970   26.7540   36.4070 O   0  0  0  0  0  0  0  0  0  0  0  0
   39.2180   26.6840   36.8040 H   0  0  0  0  0  0  0  0  0  0  0  0
   36.8640   28.2550   34.6610 O   0  0  0  0  0  0  0  0  0  0  0  0
   35.7030   28.9240   34.3090 C   0  0  0  0  0  3  0  0  0  0  0  0
   35.7000   29.9890   33.2620 C   0  0  0  0  0  2  0  0  0  0  0  0
   35.5170   30.3650   34.6950 C   0  0  0  0  0  2  0  0  0  0  0  0
  1 19  1  0  0  0  0
  2  1  1  0  0  0  0
  2 11  1  0  0  0  0
  3  2  2  0  0  0  0
  4  5  2  0  0  0  0
  4  3  1  0  0  0  0
  5  6  1  0  0  0  0
  6 21  1  0  0  0  0
  6  1  2  0  0  0  0
  7  3  1  0  0  0  0
  8  4  1  0  0  0  0
  9  5  1  0  0  0  0
 10 11  2  0  0  0  0
 10 15  1  0  0  0  0
 11 12  1  0  0  0  0
 12 17  1  0  0  0  0
 12 13  2  0  0  0  0
 14 13  1  0  0  0  0
 14 18  1  0  0  0  0
 15 14  2  0  0  0  0
 16 10  1  0  0  0  0
 19 20  1  0  0  0  0
 22 21  1  0  0  0  0
 22 24  1  0  0  0  0
 23 22  1  0  0  0  0
 23 24  1  0  0  0  0
M  END
>  <minimizedAffinity>
-4.37795162

$$$$

 OpenBabel03272501193D

 24 26  0  0  0  0  0  0  0  0999 V2000
   36.1170   28.7460   33.3090 C   0  0  0  0  0  0  0  0  0  0  0  0
   35.6500   30.0490   33.3890 C   0  0  0  0  0  0  0  0  0  0  0  0
   35.7010   30.7640   32.1950 C   0  0  0  0  0  0  0  0  0  0  0  0
   36.1930   30.1850   31.0190 C   0  0  0  0  0  0  0  0  0  0  0  0
   36.6410   28.8620   31.0440 C   0  0  0  0  0  0  0  0  0  0  0  0
   36.6020   28.1350   32.2060 C   0  0  0  0  0  0  0  0  0  0  0  0
   35.3380   31.7820   32.2500 H   0  0  0  0  0  0  0  0  0  0  0  0
   36.1860   30.8230   30.1660 H   0  0  0  0  0  0  0  0  0  0  0  0
   36.9850   28.5570   30.0870 H   0  0  0  0  0  0  0  0  0  0  0  0
   33.7880   30.5720   34.8960 C   0  0  0  0  0  0  0  0  0  0  0  0
   35.1470   30.6440   34.5910 C   0  0  0  0  0  0  0  0  0  0  0  0
   35.9700   31.3120   35.5000 C   0  0  0  0  0  0  0  0  0  0  0  0
   35.3780   31.8430   36.6150 N   0  0  0  0  0  0  0  0  0  0  0  0
   34.0620   31.7510   36.8720 C   0  0  0  0  0  0  0  0  0  0  0  0
   33.2510   31.1070   36.0020 N   0  0  0  0  0  0  0  0  0  0  0  0
   33.0600   30.0700   34.2490 H   0  0  0  0  0  0  0  0  0  0  0  0
   37.0330   31.4000   35.3160 H   0  0  0  0  0  0  0  0  0  0  0  0
   33.6480   32.1900   37.7710 H   0  0  0  0  0  0  0  0  0  0  0  0
   36.0980   27.9590   34.4690 O   0  0  0  0  0  0  0  0  0  0  0  0
   35.3060   27.9210   35.0860 H   0  0  0  0  0  0  0  0  0  0  0  0
   37.0510   26.8360   32.1910 O   0  0  0  0  0  0  0  0  0  0  0  0
   36.7490   25.8270   31.2930 C   0  0  0  0  0  3  0  0  0  0  0  0
   35.3390   25.4050   31.0340 C   0  0  0  0  0  2  0  0  0  0  0  0
   36.2520   24.4970   31.7910 C   0  0  0  0  0  2  0  0  0  0  0  0
  1  2  1  0  0  0  0
  1 19  1  0  0  0  0
  2 11  1  0  0  0  0
  3  7  1  0  0  0  0
  3  2  2  0  0  0  0
  4  5  2  0  0  0  0
  4  3  1  0  0  0  0
  5  6  1  0  0  0  0
  6  1  2  0  0  0  0
  8  4  1  0  0  0  0
  9  5  1  0  0  0  0
 10 15  1  0  0  0  0
 11 10  2  0  0  0  0
 11 12  1  0  0  0  0
 12 13  2  0  0  0  0
 13 14  1  0  0  0  0
 14 18  1  0  0  0  0
 15 14  2  0  0  0  0
 16 10  1  0  0  0  0
 17 12  1  0  0  0  0
 19 20  1  0  0  0  0
 21  6  1  0  0  0  0
 22 24  1  0  0  0  0
 22 21  1  0  0  0  0
 23 22  1  0  0  0  0
 23 24  1  0  0  0  0
M  END
>  <minimizedAffinity>
-4.31795931

$$$$

 OpenBabel03272501193D

 24 26  0  0  0  0  0  0  0  0999 V2000
   38.5180   24.2470   33.7230 C   0  0  0  0  0  0  0  0  0  0  0  0
   39.0120   24.8880   34.8490 C   0  0  0  0  0  0  0  0  0  0  0  0
   39.6220   26.1160   34.6040 C   0  0  0  0  0  0  0  0  0  0  0  0
   39.7160   26.6370   33.3070 C   0  0  0  0  0  0  0  0  0  0  0  0
   39.1860   25.9110   32.2380 C   0  0  0  0  0  0  0  0  0  0  0  0
   38.5800   24.6990   32.4510 C   0  0  0  0  0  0  0  0  0  0  0  0
   40.0100   26.6220   35.4780 H   0  0  0  0  0  0  0  0  0  0  0  0
   40.2030   27.5830   33.2360 H   0  0  0  0  0  0  0  0  0  0  0  0
   39.3290   26.4250   31.3200 H   0  0  0  0  0  0  0  0  0  0  0  0
   39.8190   23.3850   36.6090 C   0  0  0  0  0  0  0  0  0  0  0  0
   38.9180   24.3570   36.1760 C   0  0  0  0  0  0  0  0  0  0  0  0
   37.9420   24.7720   37.0840 C   0  0  0  0  0  0  0  0  0  0  0  0
   37.9470   24.1930   38.3240 N   0  0  0  0  0  0  0  0  0  0  0  0
   38.8350   23.2580   38.7040 C   0  0  0  0  0  0  0  0  0  0  0  0
   39.7870   22.8450   37.8360 N   0  0  0  0  0  0  0  0  0  0  0  0
   40.6210   22.9930   35.9750 H   0  0  0  0  0  0  0  0  0  0  0  0
   37.2150   25.5240   36.8030 H   0  0  0  0  0  0  0  0  0  0  0  0
   38.7920   22.8360   39.6990 H   0  0  0  0  0  0  0  0  0  0  0  0
   37.8890   23.0060   33.8860 O   0  0  0  0  0  0  0  0  0  0  0  0
   37.2150   22.8300   34.6100 H   0  0  0  0  0  0  0  0  0  0  0  0
   38.0700   24.0150   31.3750 O   0  0  0  0  0  0  0  0  0  0  0  0
   36.8440   24.1730   30.7510 C   0  0  0  0  0  3  0  0  0  0  0  0
   35.6650   24.7390   31.4730 C   0  0  0  0  0  2  0  0  0  0  0  0
   35.6880   23.2870   31.1250 C   0  0  0  0  0  2  0  0  0  0  0  0
  1 19  1  0  0  0  0
  1  2  1  0  0  0  0
  2 11  1  0  0  0  0
  3  2  2  0  0  0  0
  3  7  1  0  0  0  0
  4  3  1  0  0  0  0
  5  6  1  0  0  0  0
  5  4  2  0  0  0  0
  6  1  2  0  0  0  0
  8  4  1  0  0  0  0
  9  5  1  0  0  0  0
 10 15  1  0  0  0  0
 11 10  2  0  0  0  0
 11 12  1  0  0  0  0
 12 13  2  0  0  0  0
 13 14  1  0  0  0  0
 14 18  1  0  0  0  0
 15 14  2  0  0  0  0
 16 10  1  0  0  0  0
 17 12  1  0  0  0  0
 19 20  1  0  0  0  0
 21  6  1  0  0  0  0
 22 24  1  0  0  0  0
 22 21  1  0  0  0  0
 22 23  1  0  0  0  0
 24 23  1  0  0  0  0
M  END
>  <minimizedAffinity>
-4.30717373

$$$$

 OpenBabel03272501193D

 24 26  0  0  0  0  0  0  0  0999 V2000
   38.5460   24.6020   34.2820 C   0  0  0  0  0  0  0  0  0  0  0  0
   39.7490   24.6740   34.9680 C   0  0  0  0  0  0  0  0  0  0  0  0
   40.3780   25.9160   34.9190 C   0  0  0  0  0  0  0  0  0  0  0  0
   39.8150   26.9910   34.2200 C   0  0  0  0  0  0  0  0  0  0  0  0
   38.5960   26.8140   33.5600 C   0  0  0  0  0  0  0  0  0  0  0  0
   37.9560   25.6020   33.5930 C   0  0  0  0  0  0  0  0  0  0  0  0
   41.3180   25.9800   35.4520 H   0  0  0  0  0  0  0  0  0  0  0  0
   40.3820   27.8930   34.2480 H   0  0  0  0  0  0  0  0  0  0  0  0
   38.2920   27.7080   33.0750 H   0  0  0  0  0  0  0  0  0  0  0  0
   41.3400   22.8140   35.1020 C   0  0  0  0  0  0  0  0  0  0  0  0
   40.3280   23.5760   35.6840 C   0  0  0  0  0  0  0  0  0  0  0  0
   39.9180   23.2180   36.9700 C   0  0  0  0  0  0  0  0  0  0  0  0
   40.5420   22.1500   37.5550 N   0  0  0  0  0  0  0  0  0  0  0  0
   41.5150   21.4390   36.9600 C   0  0  0  0  0  0  0  0  0  0  0  0
   41.9230   21.7730   35.7140 N   0  0  0  0  0  0  0  0  0  0  0  0
   41.7310   23.0130   34.0990 H   0  0  0  0  0  0  0  0  0  0  0  0
   39.1360   23.7740   37.4710 H   0  0  0  0  0  0  0  0  0  0  0  0
   41.9730   20.6030   37.4720 H   0  0  0  0  0  0  0  0  0  0  0  0
   37.8510   23.3860   34.2850 O   0  0  0  0  0  0  0  0  0  0  0  0
   37.7160   22.8390   35.1180 H   0  0  0  0  0  0  0  0  0  0  0  0
   36.7590   25.4670   32.9320 O   0  0  0  0  0  0  0  0  0  0  0  0
   36.5360   25.1940   31.5930 C   0  0  0  0  0  3  0  0  0  0  0  0
   35.2090   25.4430   30.9530 C   0  0  0  0  0  2  0  0  0  0  0  0
   35.6590   24.0400   31.1940 C   0  0  0  0  0  2  0  0  0  0  0  0
  1 19  1  0  0  0  0
  1  2  1  0  0  0  0
  2 11  1  0  0  0  0
  3  2  2  0  0  0  0
  3  7  1  0  0  0  0
  4  8  1  0  0  0  0
  4  3  1  0  0  0  0
  5  6  1  0  0  0  0
  5  4  2  0  0  0  0
  6  1  2  0  0  0  0
  9  5  1  0  0  0  0
 10 11  2  0  0  0  0
 10 15  1  0  0  0  0
 11 12  1  0  0  0  0
 12 17  1  0  0  0  0
 12 13  2  0  0  0  0
 14 18  1  0  0  0  0
 14 13  1  0  0  0  0
 15 14  2  0  0  0  0
 16 10  1  0  0  0  0
 19 20  1  0  0  0  0
 21  6  1  0  0  0  0
 22 21  1  0  0  0  0
 23 24  1  0  0  0  0
 23 22  1  0  0  0  0
 24 22  1  0  0  0  0
M  END
>  <minimizedAffinity>
-4.30156136

$$$$

 OpenBabel03272501193D

 24 26  0  0  0  0  0  0  0  0999 V2000
   35.8170   29.5450   32.6590 C   0  0  0  0  0  0  0  0  0  0  0  0
   35.8150   29.3600   34.0340 C   0  0  0  0  0  0  0  0  0  0  0  0
   36.4290   28.1880   34.4690 C   0  0  0  0  0  0  0  0  0  0  0  0
   36.9960   27.2840   33.5620 C   0  0  0  0  0  0  0  0  0  0  0  0
   36.9460   27.5630   32.1940 C   0  0  0  0  0  0  0  0  0  0  0  0
   36.3470   28.7100   31.7400 C   0  0  0  0  0  0  0  0  0  0  0  0
   36.4310   28.0370   35.5400 H   0  0  0  0  0  0  0  0  0  0  0  0
   37.4390   26.4210   34.0050 H   0  0  0  0  0  0  0  0  0  0  0  0
   37.4130   26.7940   31.6310 H   0  0  0  0  0  0  0  0  0  0  0  0
   33.8550   30.3060   35.1620 C   0  0  0  0  0  0  0  0  0  0  0  0
   35.2340   30.2840   34.9630 C   0  0  0  0  0  0  0  0  0  0  0  0
   36.0000   31.1890   35.6990 C   0  0  0  0  0  0  0  0  0  0  0  0
   35.3370   32.0250   36.5560 N   0  0  0  0  0  0  0  0  0  0  0  0
   34.0030   32.0150   36.7200 C   0  0  0  0  0  0  0  0  0  0  0  0
   33.2470   31.1440   36.0150 N   0  0  0  0  0  0  0  0  0  0  0  0
   33.1670   29.6360   34.6350 H   0  0  0  0  0  0  0  0  0  0  0  0
   37.0770   31.2180   35.5850 H   0  0  0  0  0  0  0  0  0  0  0  0
   33.5320   32.7000   37.4130 H   0  0  0  0  0  0  0  0  0  0  0  0
   35.2180   30.7020   32.1430 O   0  0  0  0  0  0  0  0  0  0  0  0
   35.3720   31.6140   32.5350 H   0  0  0  0  0  0  0  0  0  0  0  0
   36.3180   28.9510   30.3870 O   0  0  0  0  0  0  0  0  0  0  0  0
   37.3010   28.7050   29.4430 C   0  0  0  0  0  3  0  0  0  0  0  0
   38.6550   29.3270   29.5420 C   0  0  0  0  0  2  0  0  0  0  0  0
   37.7090   29.7850   28.4810 C   0  0  0  0  0  2  0  0  0  0  0  0
  1  2  1  0  0  0  0
  2  3  2  0  0  0  0
  2 11  1  0  0  0  0
  3  7  1  0  0  0  0
  4  8  1  0  0  0  0
  4  3  1  0  0  0  0
  5  4  2  0  0  0  0
  6  5  1  0  0  0  0
  6  1  2  0  0  0  0
  9  5  1  0  0  0  0
 10 15  1  0  0  0  0
 11 10  2  0  0  0  0
 11 12  1  0  0  0  0
 12 13  2  0  0  0  0
 13 14  1  0  0  0  0
 14 18  1  0  0  0  0
 15 14  2  0  0  0  0
 16 10  1  0  0  0  0
 17 12  1  0  0  0  0
 19 20  1  0  0  0  0
 19  1  1  0  0  0  0
 21  6  1  0  0  0  0
 22 23  1  0  0  0  0
 22 21  1  0  0  0  0
 24 22  1  0  0  0  0
 24 23  1  0  0  0  0
M  END
>  <minimizedAffinity>
-4.28112555

$$$$

 OpenBabel03272501193D

 24 26  0  0  0  0  0  0  0  0999 V2000
   38.6610   25.3010   33.6120 C   0  0  0  0  0  0  0  0  0  0  0  0
   39.3840   25.4520   34.7860 C   0  0  0  0  0  0  0  0  0  0  0  0
   40.3480   26.4570   34.7550 C   0  0  0  0  0  0  0  0  0  0  0  0
   40.5490   27.2380   33.6100 C   0  0  0  0  0  0  0  0  0  0  0  0
   39.7660   27.0060   32.4770 C   0  0  0  0  0  0  0  0  0  0  0  0
   38.8100   26.0230   32.4800 C   0  0  0  0  0  0  0  0  0  0  0  0
   40.9170   26.5810   35.6670 H   0  0  0  0  0  0  0  0  0  0  0  0
   41.3130   27.9770   33.6980 H   0  0  0  0  0  0  0  0  0  0  0  0
   40.0280   27.6690   31.6900 H   0  0  0  0  0  0  0  0  0  0  0  0
   38.1690   24.9760   36.8610 C   0  0  0  0  0  0  0  0  0  0  0  0
   39.1810   24.6530   35.9580 C   0  0  0  0  0  0  0  0  0  0  0  0
   39.9660   23.5370   36.2510 C   0  0  0  0  0  0  0  0  0  0  0  0
   39.6800   22.8500   37.4000 N   0  0  0  0  0  0  0  0  0  0  0  0
   38.6940   23.1940   38.2460 C   0  0  0  0  0  0  0  0  0  0  0  0
   37.9240   24.2730   37.9760 N   0  0  0  0  0  0  0  0  0  0  0  0
   37.4990   25.8310   36.7220 H   0  0  0  0  0  0  0  0  0  0  0  0
   40.7660   23.2380   35.5860 H   0  0  0  0  0  0  0  0  0  0  0  0
   38.5140   22.6130   39.1410 H   0  0  0  0  0  0  0  0  0  0  0  0
   37.6710   24.3100   33.5640 O   0  0  0  0  0  0  0  0  0  0  0  0
   37.0080   24.1680   34.3060 H   0  0  0  0  0  0  0  0  0  0  0  0
   38.0600   25.8240   31.3470 O   0  0  0  0  0  0  0  0  0  0  0  0
   36.9470   26.5240   30.9120 C   0  0  0  0  0  3  0  0  0  0  0  0
   35.9630   27.1060   31.8730 C   0  0  0  0  0  2  0  0  0  0  0  0
   35.5760   25.9230   31.0490 C   0  0  0  0  0  2  0  0  0  0  0  0
  1  2  1  0  0  0  0
  2 11  1  0  0  0  0
  3  2  2  0  0  0  0
  3  7  1  0  0  0  0
  4  8  1  0  0  0  0
  4  3  1  0  0  0  0
  5  6  1  0  0  0  0
  5  4  2  0  0  0  0
  6  1  2  0  0  0  0
  9  5  1  0  0  0  0
 10 15  1  0  0  0  0
 11 12  1  0  0  0  0
 11 10  2  0  0  0  0
 12 13  2  0  0  0  0
 13 14  1  0  0  0  0
 14 18  1  0  0  0  0
 15 14  2  0  0  0  0
 16 10  1  0  0  0  0
 17 12  1  0  0  0  0
 19  1  1  0  0  0  0
 19 20  1  0  0  0  0
 21  6  1  0  0  0  0
 22 24  1  0  0  0  0
 22 21  1  0  0  0  0
 22 23  1  0  0  0  0
 24 23  1  0  0  0  0
M  END
>  <minimizedAffinity>
-4.266891

$$$$

 OpenBabel03272501193D

 24 26  0  0  0  0  0  0  0  0999 V2000
   36.3210   25.9880   31.6650 C   0  0  0  0  0  0  0  0  0  0  0  0
   36.5140   27.1790   32.3490 C   0  0  0  0  0  0  0  0  0  0  0  0
   37.2950   27.0760   33.4970 C   0  0  0  0  0  0  0  0  0  0  0  0
   37.8300   25.8480   33.9060 C   0  0  0  0  0  0  0  0  0  0  0  0
   37.5770   24.7040   33.1460 C   0  0  0  0  0  0  0  0  0  0  0  0
   36.8110   24.7780   32.0110 C   0  0  0  0  0  0  0  0  0  0  0  0
   37.4500   28.0020   34.0360 H   0  0  0  0  0  0  0  0  0  0  0  0
   38.4120   25.8860   34.7990 H   0  0  0  0  0  0  0  0  0  0  0  0
   38.0430   23.8510   33.5730 H   0  0  0  0  0  0  0  0  0  0  0  0
   34.7890   28.9140   32.5050 C   0  0  0  0  0  0  0  0  0  0  0  0
   35.9670   28.4360   31.9320 C   0  0  0  0  0  0  0  0  0  0  0  0
   36.5680   29.2300   30.9530 C   0  0  0  0  0  0  0  0  0  0  0  0
   35.9550   30.4120   30.6350 N   0  0  0  0  0  0  0  0  0  0  0  0
   34.8180   30.8370   31.2120 C   0  0  0  0  0  0  0  0  0  0  0  0
   34.2230   30.0800   32.1620 N   0  0  0  0  0  0  0  0  0  0  0  0
   34.2420   28.3680   33.2810 H   0  0  0  0  0  0  0  0  0  0  0  0
   37.4840   28.9100   30.4730 H   0  0  0  0  0  0  0  0  0  0  0  0
   34.3770   31.7820   30.9210 H   0  0  0  0  0  0  0  0  0  0  0  0
   35.5460   26.0080   30.4980 O   0  0  0  0  0  0  0  0  0  0  0  0
   35.6550   26.7100   29.7860 H   0  0  0  0  0  0  0  0  0  0  0  0
   36.5840   23.6310   31.2890 O   0  0  0  0  0  0  0  0  0  0  0  0
   35.5940   22.6790   31.4670 C   0  0  0  0  0  3  0  0  0  0  0  0
   35.7250   21.5920   32.4840 C   0  0  0  0  0  2  0  0  0  0  0  0
   35.8260   21.2580   31.0310 C   0  0  0  0  0  2  0  0  0  0  0  0
  1  6  2  0  0  0  0
  1  2  1  0  0  0  0
  2  3  2  0  0  0  0
  3  4  1  0  0  0  0
  3  7  1  0  0  0  0
  4  8  1  0  0  0  0
  5  9  1  0  0  0  0
  5  4  2  0  0  0  0
  6  5  1  0  0  0  0
 10 16  1  0  0  0  0
 11  2  1  0  0  0  0
 11 10  2  0  0  0  0
 12 11  1  0  0  0  0
 13 12  2  0  0  0  0
 13 14  1  0  0  0  0
 14 15  2  0  0  0  0
 15 10  1  0  0  0  0
 17 12  1  0  0  0  0
 18 14  1  0  0  0  0
 19  1  1  0  0  0  0
 20 19  1  0  0  0  0
 21 22  1  0  0  0  0
 21  6  1  0  0  0  0
 22 23  1  0  0  0  0
 24 22  1  0  0  0  0
 24 23  1  0  0  0  0
M  END
>  <minimizedAffinity>
-4.25445318

$$$$
