
 OpenBabel03272508573D

 34 37  0  0  1  0  0  0  0  0999 V2000
   38.4080   31.8620   44.5350 C   0  0  0  0  0  0  0  0  0  0  0  0
   37.3010   32.4470   44.4110 O   0  0  0  0  0  0  0  0  0  0  0  0
   38.9520   31.5660   45.8340 N   0  0  0  0  0  0  0  0  0  0  0  0
   39.9370   31.2640   46.0000 H   0  0  0  0  0  0  0  0  0  0  0  0
   39.1790   31.4630   43.3500 C   0  0  0  0  0  0  0  0  0  0  0  0
   40.1720   30.5330   43.4930 C   0  0  0  0  0  0  0  0  0  0  0  0
   40.8920   30.1320   42.3820 C   0  0  0  0  0  0  0  0  0  0  0  0
   40.5620   30.7000   41.1900 C   0  0  0  0  0  0  0  0  0  0  0  0
   39.5630   31.6470   41.0150 C   0  0  0  0  0  0  0  0  0  0  0  0
   38.8950   31.9950   42.1430 N   0  0  0  0  0  0  0  0  0  0  0  0
   40.4520   30.0640   44.4460 H   0  0  0  0  0  0  0  0  0  0  0  0
   41.6870   29.4090   42.4030 H   0  0  0  0  0  0  0  0  0  0  0  0
   41.0970   30.4210   40.2820 H   0  0  0  0  0  0  0  0  0  0  0  0
   39.2760   32.2280   39.7000 C   0  0  0  0  0  0  0  0  0  0  0  0
   38.7170   33.3740   39.6810 O   0  0  0  0  0  0  0  0  0  0  0  0
   39.6750   31.4060   38.5140 C   0  0  0  0  0  3  0  0  0  0  0  0
   40.8580   32.0360   37.7470 C   0  0  0  0  0  2  0  0  0  0  0  0
   39.5180   31.9980   37.1450 C   0  0  0  0  0  2  0  0  0  0  0  0
   38.4220   31.1060   48.2200 C   0  0  2  0  0  0  0  0  0  0  0  0
   38.6810   32.5600   48.1130 C   0  0  0  0  0  0  0  0  0  0  0  0
   38.0700   31.6990   46.9720 C   0  0  1  0  0  0  0  0  0  0  0  0
   39.3640   30.5050   48.3180 H   0  0  0  0  0  0  0  0  0  0  0  0
   37.9690   33.2300   48.6470 H   0  0  0  0  0  0  0  0  0  0  0  0
   39.7000   32.9290   47.9820 H   0  0  0  0  0  0  0  0  0  0  0  0
   36.9910   31.9600   46.7570 H   0  0  0  0  0  0  0  0  0  0  0  0
   35.0690   30.2310   49.5190 C   0  0  0  0  0  0  0  0  0  0  0  0
   35.3930   29.5640   50.7360 C   0  0  0  0  0  0  0  0  0  0  0  0
   36.7870   29.4340   51.1010 C   0  0  0  0  0  0  0  0  0  0  0  0
   37.7410   29.9540   50.2650 N   0  0  0  0  0  0  0  0  0  0  0  0
   37.3480   30.5770   49.1180 C   0  0  0  0  0  0  0  0  0  0  0  0
   36.0280   30.7340   48.7130 N   0  0  0  0  0  0  0  0  0  0  0  0
   34.0150   30.2990   49.2950 H   0  0  0  0  0  0  0  0  0  0  0  0
   34.6180   29.1780   51.3490 H   0  0  0  0  0  0  0  0  0  0  0  0
   37.0210   28.9320   52.0170 H   0  0  0  0  0  0  0  0  0  0  0  0
  1  3  1  0  0  0  0
  2  1  2  0  0  0  0
  3  4  1  0  0  0  0
  3 21  1  0  0  0  0
  5  6  1  0  0  0  0
  5  1  1  0  0  0  0
  6 11  1  0  0  0  0
  7 12  1  0  0  0  0
  7  6  2  0  0  0  0
  8  7  1  0  0  0  0
  9  8  2  0  0  0  0
  9 10  1  0  0  0  0
 10  5  2  0  0  0  0
 13  8  1  0  0  0  0
 14  9  1  0  0  0  0
 15 14  2  0  0  0  0
 16 14  1  0  0  0  0
 17 16  1  0  0  0  0
 18 17  1  0  0  0  0
 18 16  1  0  0  0  0
 19 22  1  6  0  0  0
 19 30  1  0  0  0  0
 20 19  1  0  0  0  0
 20 23  1  0  0  0  0
 21 25  1  6  0  0  0
 21 20  1  0  0  0  0
 21 19  1  0  0  0  0
 24 20  1  0  0  0  0
 26 27  1  0  0  0  0
 27 28  2  0  0  0  0
 27 33  1  0  0  0  0
 28 34  1  0  0  0  0
 29 28  1  0  0  0  0
 30 29  2  0  0  0  0
 31 30  1  0  0  0  0
 31 26  2  0  0  0  0
 32 26  1  0  0  0  0
M  END
>  <minimizedAffinity>
-4.90550041

>  <minimizedRMSD>
0.158002213

$$$$
