
 OpenBabel03272509453D

 13 14  0  0  0  0  0  0  0  0999 V2000
   37.9750   32.8460   49.3980 C   0  0  0  0  0  0  0  0  0  0  0  0
   38.8230   32.9120   48.2900 C   0  0  0  0  0  0  0  0  0  0  0  0
   38.9050   31.7870   47.4530 C   0  0  0  0  0  0  0  0  0  0  0  0
   38.1470   30.6780   47.7680 N   0  0  0  0  0  0  0  0  0  0  0  0
   37.3370   30.6690   48.8640 C   0  0  0  0  0  0  0  0  0  0  0  0
   37.2610   31.7510   49.6630 N   0  0  0  0  0  0  0  0  0  0  0  0
   37.9230   33.7180   50.0330 H   0  0  0  0  0  0  0  0  0  0  0  0
   39.4300   33.7710   48.0200 H   0  0  0  0  0  0  0  0  0  0  0  0
   39.5390   31.7870   46.5930 H   0  0  0  0  0  0  0  0  0  0  0  0
   36.6650   29.4720   49.0050 O   0  0  0  0  0  0  0  0  0  0  0  0
   35.2560   29.4740   48.8560 C   0  0  0  0  0  3  0  0  0  0  0  0
   34.3800   29.4290   50.0500 C   0  0  0  0  0  2  0  0  0  0  0  0
   34.6240   28.1590   49.3040 C   0  0  0  0  0  2  0  0  0  0  0  0
  1  6  1  0  0  0  0
  1  7  1  0  0  0  0
  2  1  2  0  0  0  0
  3  4  2  0  0  0  0
  3  2  1  0  0  0  0
  4  5  1  0  0  0  0
  5 10  1  0  0  0  0
  5  6  2  0  0  0  0
  8  2  1  0  0  0  0
  9  3  1  0  0  0  0
 11 10  1  0  0  0  0
 11 13  1  0  0  0  0
 11 12  1  0  0  0  0
 13 12  1  0  0  0  0
M  END
>  <minimizedAffinity>
-3.85291839

>  <minimizedRMSD>
2.65179181

$$$$
