
 OpenBabel03272510303D

 22 24  0  0  0  0  0  0  0  0999 V2000
   37.2590   31.3340   49.1060 C   0  0  0  0  0  0  0  0  0  0  0  0
   37.4070   32.6040   49.6680 C   0  0  0  0  0  0  0  0  0  0  0  0
   38.3690   33.4080   49.0960 C   0  0  0  0  0  0  0  0  0  0  0  0
   39.1090   32.9410   48.0390 N   0  0  0  0  0  0  0  0  0  0  0  0
   38.9240   31.6860   47.5250 C   0  0  0  0  0  0  0  0  0  0  0  0
   37.9740   30.8630   48.0770 N   0  0  0  0  0  0  0  0  0  0  0  0
   36.8010   32.9290   50.5010 H   0  0  0  0  0  0  0  0  0  0  0  0
   38.5570   34.4090   49.4620 H   0  0  0  0  0  0  0  0  0  0  0  0
   36.1940   30.4410   49.6880 C   0  0  0  0  0  0  0  0  0  0  0  0
   36.2030   29.0080   49.5470 C   0  0  0  0  0  0  0  0  0  0  0  0
   36.7100   29.5860   50.8570 C   0  0  0  0  0  0  0  0  0  0  0  0
   35.2300   30.9900   49.9180 H   0  0  0  0  0  0  0  0  0  0  0  0
   35.2190   28.4880   49.5560 H   0  0  0  0  0  0  0  0  0  0  0  0
   36.9630   28.4820   48.9370 H   0  0  0  0  0  0  0  0  0  0  0  0
   36.0380   29.4760   51.7400 H   0  0  0  0  0  0  0  0  0  0  0  0
   37.7800   29.5950   51.0860 H   0  0  0  0  0  0  0  0  0  0  0  0
   39.6940   31.1660   46.3860 C   0  0  0  0  0  0  0  0  0  0  0  0
   40.7380   31.5370   46.3830 H   0  0  0  0  0  0  0  0  0  0  0  0
   39.7670   30.0610   46.4710 H   0  0  0  0  0  0  0  0  0  0  0  0
   38.9930   31.4750   45.0840 C   0  0  0  0  0  3  0  0  0  0  0  0
   37.8190   32.3650   45.0320 C   0  0  0  0  0  2  0  0  0  0  0  0
   39.1750   32.7770   44.4240 C   0  0  0  0  0  2  0  0  0  0  0  0
  1  2  1  0  0  0  0
  1  9  1  0  0  0  0
  2  7  1  0  0  0  0
  3  8  1  0  0  0  0
  3  2  2  0  0  0  0
  4  3  1  0  0  0  0
  5  4  2  0  0  0  0
  5  6  1  0  0  0  0
  6  1  2  0  0  0  0
  9 12  1  0  0  0  0
  9 11  1  0  0  0  0
 10 13  1  0  0  0  0
 10  9  1  0  0  0  0
 10 11  1  0  0  0  0
 11 16  1  0  0  0  0
 11 15  1  0  0  0  0
 14 10  1  0  0  0  0
 17 19  1  0  0  0  0
 17  5  1  0  0  0  0
 18 17  1  0  0  0  0
 20 17  1  0  0  0  0
 21 20  1  0  0  0  0
 22 21  1  0  0  0  0
 22 20  1  0  0  0  0
M  END
>  <minimizedAffinity>
-4.76259375

>  <minimizedRMSD>
0.647682905

$$$$
