
 OpenBabel03272505033D

 23 25  0  0  0  0  0  0  0  0999 V2000
   37.9900   23.2220   33.6810 Cl  0  0  0  0  0  0  0  0  0  0  0  0
   36.9850   24.1920   32.6340 C   0  0  0  0  0  0  0  0  0  0  0  0
   36.1450   23.5450   31.7600 C   0  0  0  0  0  0  0  0  0  0  0  0
   35.3620   24.3620   30.9420 C   0  0  0  0  0  0  0  0  0  0  0  0
   35.4790   25.7490   31.0640 C   0  0  0  0  0  0  0  0  0  0  0  0
   36.3250   26.3320   31.9460 C   0  0  0  0  0  0  0  0  0  0  0  0
   37.1030   25.5480   32.7580 C   0  0  0  0  0  0  0  0  0  0  0  0
   34.7070   23.8610   30.2590 H   0  0  0  0  0  0  0  0  0  0  0  0
   34.8100   26.2550   30.3660 H   0  0  0  0  0  0  0  0  0  0  0  0
   36.2680   27.3990   31.8860 H   0  0  0  0  0  0  0  0  0  0  0  0
   35.0500   21.3740   32.3110 C   0  0  0  0  0  0  0  0  0  0  0  0
   36.0310   22.0880   31.6400 C   0  0  0  0  0  0  0  0  0  0  0  0
   36.9130   21.3760   30.8430 C   0  0  0  0  0  0  0  0  0  0  0  0
   36.7650   20.0300   30.7660 N   0  0  0  0  0  0  0  0  0  0  0  0
   35.8120   19.3720   31.4220 C   0  0  0  0  0  0  0  0  0  0  0  0
   34.9320   20.0400   32.2110 N   0  0  0  0  0  0  0  0  0  0  0  0
   34.3810   21.9660   32.9220 H   0  0  0  0  0  0  0  0  0  0  0  0
   37.6790   21.8950   30.3140 H   0  0  0  0  0  0  0  0  0  0  0  0
   35.7250   18.2970   31.3360 H   0  0  0  0  0  0  0  0  0  0  0  0
   37.9570   26.1470   33.6480 O   0  0  0  0  0  0  0  0  0  0  0  0
   37.6270   26.6150   34.9030 C   0  0  0  0  0  3  0  0  0  0  0  0
   38.7400   27.2900   35.7000 C   0  0  0  0  0  2  0  0  0  0  0  0
   38.2050   25.9700   36.1320 C   0  0  0  0  0  2  0  0  0  0  0  0
  2  7  1  0  0  0  0
  2  1  1  0  0  0  0
  3  2  2  0  0  0  0
  4  5  2  0  0  0  0
  4  3  1  0  0  0  0
  5  6  1  0  0  0  0
  6  7  2  0  0  0  0
  7 20  1  0  0  0  0
  8  4  1  0  0  0  0
  9  5  1  0  0  0  0
 10  6  1  0  0  0  0
 11 17  1  0  0  0  0
 12  3  1  0  0  0  0
 12 11  2  0  0  0  0
 13 12  1  0  0  0  0
 14 13  2  0  0  0  0
 14 15  1  0  0  0  0
 15 16  2  0  0  0  0
 16 11  1  0  0  0  0
 18 13  1  0  0  0  0
 19 15  1  0  0  0  0
 20 21  1  0  0  0  0
 21 22  1  0  0  0  0
 21 23  1  0  0  0  0
 22 23  1  0  0  0  0
M  END
>  <minimizedAffinity>
-4.65784311

$$$$

 OpenBabel03272505033D

 23 25  0  0  0  0  0  0  0  0999 V2000
   38.3830   27.1070   36.1110 Cl  0  0  0  0  0  0  0  0  0  0  0  0
   37.8950   26.2080   34.6970 C   0  0  0  0  0  0  0  0  0  0  0  0
   38.1820   24.8650   34.6500 C   0  0  0  0  0  0  0  0  0  0  0  0
   37.7730   24.1880   33.5000 C   0  0  0  0  0  0  0  0  0  0  0  0
   37.1140   24.9030   32.4960 C   0  0  0  0  0  0  0  0  0  0  0  0
   36.8560   26.2280   32.5960 C   0  0  0  0  0  0  0  0  0  0  0  0
   37.2500   26.9110   33.7170 C   0  0  0  0  0  0  0  0  0  0  0  0
   37.9960   23.1420   33.4600 H   0  0  0  0  0  0  0  0  0  0  0  0
   36.8560   24.2470   31.6620 H   0  0  0  0  0  0  0  0  0  0  0  0
   36.3460   26.5880   31.7280 H   0  0  0  0  0  0  0  0  0  0  0  0
   40.2080   23.7620   35.5960 C   0  0  0  0  0  0  0  0  0  0  0  0
   38.8750   24.1260   35.7100 C   0  0  0  0  0  0  0  0  0  0  0  0
   38.2070   23.7640   36.8690 C   0  0  0  0  0  0  0  0  0  0  0  0
   38.8920   23.0810   37.8190 N   0  0  0  0  0  0  0  0  0  0  0  0
   40.1730   22.7470   37.6810 C   0  0  0  0  0  0  0  0  0  0  0  0
   40.8560   23.0850   36.5590 N   0  0  0  0  0  0  0  0  0  0  0  0
   40.6950   24.0620   34.6770 H   0  0  0  0  0  0  0  0  0  0  0  0
   37.1810   24.0280   36.9870 H   0  0  0  0  0  0  0  0  0  0  0  0
   40.6870   22.2000   38.4610 H   0  0  0  0  0  0  0  0  0  0  0  0
   36.9860   28.2540   33.8110 O   0  0  0  0  0  0  0  0  0  0  0  0
   35.7460   28.8270   34.0090 C   0  0  0  0  0  3  0  0  0  0  0  0
   35.4500   30.1080   33.2340 C   0  0  0  0  0  2  0  0  0  0  0  0
   35.6240   30.1510   34.7120 C   0  0  0  0  0  2  0  0  0  0  0  0
  2  1  1  0  0  0  0
  3  2  1  0  0  0  0
  3 12  1  0  0  0  0
  4  3  2  0  0  0  0
  5  6  2  0  0  0  0
  5  4  1  0  0  0  0
  6  7  1  0  0  0  0
  7 20  1  0  0  0  0
  7  2  2  0  0  0  0
  8  4  1  0  0  0  0
  9  5  1  0  0  0  0
 10  6  1  0  0  0  0
 11 12  2  0  0  0  0
 11 16  1  0  0  0  0
 12 13  1  0  0  0  0
 13 18  1  0  0  0  0
 13 14  2  0  0  0  0
 15 14  1  0  0  0  0
 15 19  1  0  0  0  0
 16 15  2  0  0  0  0
 17 11  1  0  0  0  0
 20 21  1  0  0  0  0
 21 23  1  0  0  0  0
 22 21  1  0  0  0  0
 22 23  1  0  0  0  0
M  END
>  <minimizedAffinity>
-4.43810129

$$$$

 OpenBabel03272505033D

 23 25  0  0  0  0  0  0  0  0999 V2000
   38.5230   27.0360   36.1420 Cl  0  0  0  0  0  0  0  0  0  0  0  0
   37.9970   26.1370   34.7420 C   0  0  0  0  0  0  0  0  0  0  0  0
   38.2970   24.7970   34.6800 C   0  0  0  0  0  0  0  0  0  0  0  0
   37.8570   24.1200   33.5410 C   0  0  0  0  0  0  0  0  0  0  0  0
   37.1570   24.8310   32.5630 C   0  0  0  0  0  0  0  0  0  0  0  0
   36.8880   26.1540   32.6770 C   0  0  0  0  0  0  0  0  0  0  0  0
   37.3120   26.8360   33.7880 C   0  0  0  0  0  0  0  0  0  0  0  0
   38.0900   23.0770   33.4900 H   0  0  0  0  0  0  0  0  0  0  0  0
   36.8780   24.1760   31.7360 H   0  0  0  0  0  0  0  0  0  0  0  0
   36.3450   26.5110   31.8280 H   0  0  0  0  0  0  0  0  0  0  0  0
   38.4300   23.6590   36.8940 C   0  0  0  0  0  0  0  0  0  0  0  0
   39.0330   24.0610   35.7130 C   0  0  0  0  0  0  0  0  0  0  0  0
   40.3710   23.7450   35.5340 C   0  0  0  0  0  0  0  0  0  0  0  0
   41.0070   23.0640   36.5190 N   0  0  0  0  0  0  0  0  0  0  0  0
   40.4000   22.6900   37.6430 C   0  0  0  0  0  0  0  0  0  0  0  0
   39.0910   22.9840   37.8490 N   0  0  0  0  0  0  0  0  0  0  0  0
   37.3860   23.9240   36.9960 H   0  0  0  0  0  0  0  0  0  0  0  0
   40.8650   24.0410   34.6370 H   0  0  0  0  0  0  0  0  0  0  0  0
   40.9400   22.1470   38.4080 H   0  0  0  0  0  0  0  0  0  0  0  0
   37.0370   28.1760   33.8960 O   0  0  0  0  0  0  0  0  0  0  0  0
   35.7820   28.7480   33.9290 C   0  0  0  0  0  3  0  0  0  0  0  0
   35.5910   30.0320   33.1270 C   0  0  0  0  0  2  0  0  0  0  0  0
   35.5670   30.0680   34.6160 C   0  0  0  0  0  2  0  0  0  0  0  0
  2  1  1  0  0  0  0
  3  2  1  0  0  0  0
  3 12  1  0  0  0  0
  4  3  2  0  0  0  0
  5  6  2  0  0  0  0
  5  4  1  0  0  0  0
  6  7  1  0  0  0  0
  7 20  1  0  0  0  0
  7  2  2  0  0  0  0
  8  4  1  0  0  0  0
  9  5  1  0  0  0  0
 10  6  1  0  0  0  0
 11 17  1  0  0  0  0
 11 16  1  0  0  0  0
 12 11  2  0  0  0  0
 13 12  1  0  0  0  0
 13 14  2  0  0  0  0
 14 15  1  0  0  0  0
 15 16  2  0  0  0  0
 15 19  1  0  0  0  0
 18 13  1  0  0  0  0
 20 21  1  0  0  0  0
 21 23  1  0  0  0  0
 22 21  1  0  0  0  0
 22 23  1  0  0  0  0
M  END
>  <minimizedAffinity>
-4.41971731

$$$$

 OpenBabel03272505033D

 23 25  0  0  0  0  0  0  0  0999 V2000
   37.7730   27.5100   35.1910 Cl  0  0  0  0  0  0  0  0  0  0  0  0
   37.7580   26.0140   34.2920 C   0  0  0  0  0  0  0  0  0  0  0  0
   37.4290   26.0620   32.9590 C   0  0  0  0  0  0  0  0  0  0  0  0
   37.4300   24.8410   32.2810 C   0  0  0  0  0  0  0  0  0  0  0  0
   37.7580   23.6790   32.9860 C   0  0  0  0  0  0  0  0  0  0  0  0
   38.0760   23.6930   34.3020 C   0  0  0  0  0  0  0  0  0  0  0  0
   38.0810   24.8810   34.9850 C   0  0  0  0  0  0  0  0  0  0  0  0
   37.1730   24.8740   31.2430 H   0  0  0  0  0  0  0  0  0  0  0  0
   37.7170   22.8070   32.3310 H   0  0  0  0  0  0  0  0  0  0  0  0
   38.2950   22.7070   34.6550 H   0  0  0  0  0  0  0  0  0  0  0  0
   35.8390   27.8820   32.3470 C   0  0  0  0  0  0  0  0  0  0  0  0
   37.0850   27.2870   32.2300 C   0  0  0  0  0  0  0  0  0  0  0  0
   38.0100   27.8900   31.3920 C   0  0  0  0  0  0  0  0  0  0  0  0
   37.6440   29.0210   30.7400 N   0  0  0  0  0  0  0  0  0  0  0  0
   36.4380   29.5700   30.8740 C   0  0  0  0  0  0  0  0  0  0  0  0
   35.5100   29.0040   31.6860 N   0  0  0  0  0  0  0  0  0  0  0  0
   35.1460   27.3810   33.0100 H   0  0  0  0  0  0  0  0  0  0  0  0
   38.9770   27.4570   31.2800 H   0  0  0  0  0  0  0  0  0  0  0  0
   36.1810   30.4740   30.3370 H   0  0  0  0  0  0  0  0  0  0  0  0
   38.4030   24.8860   36.3180 O   0  0  0  0  0  0  0  0  0  0  0  0
   37.8930   24.0400   37.2820 C   0  0  0  0  0  3  0  0  0  0  0  0
   38.0060   24.5020   38.7320 C   0  0  0  0  0  2  0  0  0  0  0  0
   38.8120   23.3470   38.2490 C   0  0  0  0  0  2  0  0  0  0  0  0
  2  7  1  0  0  0  0
  2  1  1  0  0  0  0
  3  2  2  0  0  0  0
  4  3  1  0  0  0  0
  4  5  2  0  0  0  0
  5  6  1  0  0  0  0
  6 10  1  0  0  0  0
  6  7  2  0  0  0  0
  7 20  1  0  0  0  0
  8  4  1  0  0  0  0
  9  5  1  0  0  0  0
 11 17  1  0  0  0  0
 12 11  1  0  0  0  0
 12  3  1  0  0  0  0
 13 12  2  0  0  0  0
 14 15  2  0  0  0  0
 14 13  1  0  0  0  0
 15 16  1  0  0  0  0
 16 11  2  0  0  0  0
 18 13  1  0  0  0  0
 19 15  1  0  0  0  0
 20 21  1  0  0  0  0
 21 23  1  0  0  0  0
 21 22  1  0  0  0  0
 23 22  1  0  0  0  0
M  END
>  <minimizedAffinity>
-4.41695499

$$$$

 OpenBabel03272505033D

 23 25  0  0  0  0  0  0  0  0999 V2000
   40.6960   24.5540   34.4750 Cl  0  0  0  0  0  0  0  0  0  0  0  0
   39.7090   24.1220   35.8480 C   0  0  0  0  0  0  0  0  0  0  0  0
   38.4510   24.6660   35.9400 C   0  0  0  0  0  0  0  0  0  0  0  0
   37.7000   24.2920   37.0560 C   0  0  0  0  0  0  0  0  0  0  0  0
   38.2620   23.4100   37.9820 C   0  0  0  0  0  0  0  0  0  0  0  0
   39.5100   22.9030   37.8400 C   0  0  0  0  0  0  0  0  0  0  0  0
   40.2640   23.2580   36.7520 C   0  0  0  0  0  0  0  0  0  0  0  0
   36.7200   24.7150   37.1310 H   0  0  0  0  0  0  0  0  0  0  0  0
   37.5630   23.2100   38.7970 H   0  0  0  0  0  0  0  0  0  0  0  0
   39.7540   22.2500   38.6510 H   0  0  0  0  0  0  0  0  0  0  0  0
   37.6140   26.9180   35.2720 C   0  0  0  0  0  0  0  0  0  0  0  0
   37.8720   25.5910   34.9610 C   0  0  0  0  0  0  0  0  0  0  0  0
   37.5600   25.1590   33.6820 C   0  0  0  0  0  0  0  0  0  0  0  0
   37.0260   26.0530   32.8140 N   0  0  0  0  0  0  0  0  0  0  0  0
   36.7910   27.3220   33.1420 C   0  0  0  0  0  0  0  0  0  0  0  0
   37.0840   27.7770   34.3860 N   0  0  0  0  0  0  0  0  0  0  0  0
   37.8710   27.2160   36.2800 H   0  0  0  0  0  0  0  0  0  0  0  0
   37.7460   24.1450   33.4110 H   0  0  0  0  0  0  0  0  0  0  0  0
   36.3620   28.0070   32.4220 H   0  0  0  0  0  0  0  0  0  0  0  0
   41.5270   22.7410   36.6140 O   0  0  0  0  0  0  0  0  0  0  0  0
   41.8410   21.4390   36.2820 C   0  0  0  0  0  3  0  0  0  0  0  0
   42.5490   20.6090   37.3480 C   0  0  0  0  0  2  0  0  0  0  0  0
   43.2760   21.0220   36.1170 C   0  0  0  0  0  2  0  0  0  0  0  0
  1  2  1  0  0  0  0
  2  3  2  0  0  0  0
  2  7  1  0  0  0  0
  3  4  1  0  0  0  0
  4  8  1  0  0  0  0
  4  5  2  0  0  0  0
  5  9  1  0  0  0  0
  6  5  1  0  0  0  0
  6 10  1  0  0  0  0
  7  6  2  0  0  0  0
 11 17  1  0  0  0  0
 12 11  1  0  0  0  0
 12  3  1  0  0  0  0
 13 12  2  0  0  0  0
 14 15  2  0  0  0  0
 14 13  1  0  0  0  0
 15 16  1  0  0  0  0
 16 11  2  0  0  0  0
 18 13  1  0  0  0  0
 19 15  1  0  0  0  0
 20  7  1  0  0  0  0
 21 20  1  0  0  0  0
 21 22  1  0  0  0  0
 23 21  1  0  0  0  0
 23 22  1  0  0  0  0
M  END
>  <minimizedAffinity>
-4.38458347

$$$$

 OpenBabel03272505033D

 23 25  0  0  0  0  0  0  0  0999 V2000
   36.4200   27.7300   34.7230 Cl  0  0  0  0  0  0  0  0  0  0  0  0
   36.1990   28.6000   33.2270 C   0  0  0  0  0  0  0  0  0  0  0  0
   35.5790   29.8250   33.2750 C   0  0  0  0  0  0  0  0  0  0  0  0
   35.4240   30.4840   32.0540 C   0  0  0  0  0  0  0  0  0  0  0  0
   35.8990   29.8700   30.8920 C   0  0  0  0  0  0  0  0  0  0  0  0
   36.5050   28.6590   30.9050 C   0  0  0  0  0  0  0  0  0  0  0  0
   36.6670   27.9960   32.0930 C   0  0  0  0  0  0  0  0  0  0  0  0
   34.9400   31.4380   32.0870 H   0  0  0  0  0  0  0  0  0  0  0  0
   35.7090   30.4980   30.0190 H   0  0  0  0  0  0  0  0  0  0  0  0
   36.7950   28.3640   29.9180 H   0  0  0  0  0  0  0  0  0  0  0  0
   35.8990   31.2510   35.2950 C   0  0  0  0  0  0  0  0  0  0  0  0
   35.0840   30.4600   34.5000 C   0  0  0  0  0  0  0  0  0  0  0  0
   33.7690   30.2820   34.9040 C   0  0  0  0  0  0  0  0  0  0  0  0
   33.3600   30.8890   36.0450 N   0  0  0  0  0  0  0  0  0  0  0  0
   34.1670   31.6450   36.7870 C   0  0  0  0  0  0  0  0  0  0  0  0
   35.4590   31.8390   36.4200 N   0  0  0  0  0  0  0  0  0  0  0  0
   36.9170   31.3660   34.9460 H   0  0  0  0  0  0  0  0  0  0  0  0
   33.1170   29.6790   34.3160 H   0  0  0  0  0  0  0  0  0  0  0  0
   33.8050   32.1140   37.6930 H   0  0  0  0  0  0  0  0  0  0  0  0
   37.2810   26.7700   32.0980 O   0  0  0  0  0  0  0  0  0  0  0  0
   36.6500   25.5440   32.1670 C   0  0  0  0  0  3  0  0  0  0  0  0
   36.9330   24.5610   31.0360 C   0  0  0  0  0  2  0  0  0  0  0  0
   35.5850   25.1800   31.1700 C   0  0  0  0  0  2  0  0  0  0  0  0
  2  3  1  0  0  0  0
  2  1  1  0  0  0  0
  3 12  1  0  0  0  0
  4  8  1  0  0  0  0
  4  3  2  0  0  0  0
  5  6  2  0  0  0  0
  5  4  1  0  0  0  0
  6  7  1  0  0  0  0
  7 20  1  0  0  0  0
  7  2  2  0  0  0  0
  9  5  1  0  0  0  0
 10  6  1  0  0  0  0
 11 16  1  0  0  0  0
 12 13  1  0  0  0  0
 12 11  2  0  0  0  0
 13 14  2  0  0  0  0
 14 15  1  0  0  0  0
 15 19  1  0  0  0  0
 16 15  2  0  0  0  0
 17 11  1  0  0  0  0
 18 13  1  0  0  0  0
 20 21  1  0  0  0  0
 22 23  1  0  0  0  0
 22 21  1  0  0  0  0
 23 21  1  0  0  0  0
M  END
>  <minimizedAffinity>
-4.35479975

$$$$

 OpenBabel03272505033D

 23 25  0  0  0  0  0  0  0  0999 V2000
   36.2890   32.1100   35.6510 Cl  0  0  0  0  0  0  0  0  0  0  0  0
   34.6970   31.4470   35.9150 C   0  0  0  0  0  0  0  0  0  0  0  0
   34.2710   30.4340   35.0900 C   0  0  0  0  0  0  0  0  0  0  0  0
   32.9900   29.9360   35.3390 C   0  0  0  0  0  0  0  0  0  0  0  0
   32.2440   30.4870   36.3840 C   0  0  0  0  0  0  0  0  0  0  0  0
   32.7160   31.4860   37.1680 C   0  0  0  0  0  0  0  0  0  0  0  0
   33.9710   31.9880   36.9400 C   0  0  0  0  0  0  0  0  0  0  0  0
   32.6550   29.1480   34.6980 H   0  0  0  0  0  0  0  0  0  0  0  0
   31.2690   30.0010   36.4600 H   0  0  0  0  0  0  0  0  0  0  0  0
   31.9970   31.7670   37.9080 H   0  0  0  0  0  0  0  0  0  0  0  0
   35.0080   30.3790   32.7090 C   0  0  0  0  0  0  0  0  0  0  0  0
   35.0620   29.8640   33.9960 C   0  0  0  0  0  0  0  0  0  0  0  0
   35.8970   28.7800   34.2200 C   0  0  0  0  0  0  0  0  0  0  0  0
   36.6080   28.2900   33.1740 N   0  0  0  0  0  0  0  0  0  0  0  0
   36.5350   28.8070   31.9500 C   0  0  0  0  0  0  0  0  0  0  0  0
   35.7280   29.8680   31.6970 N   0  0  0  0  0  0  0  0  0  0  0  0
   34.3460   31.2240   32.5750 H   0  0  0  0  0  0  0  0  0  0  0  0
   35.9610   28.3610   35.1970 H   0  0  0  0  0  0  0  0  0  0  0  0
   37.1180   28.3890   31.1390 H   0  0  0  0  0  0  0  0  0  0  0  0
   34.4420   33.0010   37.7360 O   0  0  0  0  0  0  0  0  0  0  0  0
   34.2140   34.3500   37.5570 C   0  0  0  0  0  3  0  0  0  0  0  0
   34.1160   35.2040   38.8170 C   0  0  0  0  0  2  0  0  0  0  0  0
   32.9090   34.9640   37.9800 C   0  0  0  0  0  2  0  0  0  0  0  0
  1  2  1  0  0  0  0
  2  7  1  0  0  0  0
  3  4  1  0  0  0  0
  3  2  2  0  0  0  0
  4  5  2  0  0  0  0
  5  9  1  0  0  0  0
  5  6  1  0  0  0  0
  6 10  1  0  0  0  0
  7  6  2  0  0  0  0
  7 20  1  0  0  0  0
  8  4  1  0  0  0  0
 11 12  1  0  0  0  0
 12 13  2  0  0  0  0
 12  3  1  0  0  0  0
 13 18  1  0  0  0  0
 14 13  1  0  0  0  0
 15 14  2  0  0  0  0
 16 15  1  0  0  0  0
 16 11  2  0  0  0  0
 17 11  1  0  0  0  0
 19 15  1  0  0  0  0
 21 20  1  0  0  0  0
 21 23  1  0  0  0  0
 21 22  1  0  0  0  0
 23 22  1  0  0  0  0
M  END
>  <minimizedAffinity>
-4.34851217

$$$$

 OpenBabel03272505033D

 23 25  0  0  0  0  0  0  0  0999 V2000
   34.6600   25.2210   30.7330 Cl  0  0  0  0  0  0  0  0  0  0  0  0
   36.1340   25.0170   31.6440 C   0  0  0  0  0  0  0  0  0  0  0  0
   36.8720   26.1360   31.9440 C   0  0  0  0  0  0  0  0  0  0  0  0
   38.0430   25.9230   32.6740 C   0  0  0  0  0  0  0  0  0  0  0  0
   38.3790   24.6180   33.0430 C   0  0  0  0  0  0  0  0  0  0  0  0
   37.6110   23.5500   32.7200 C   0  0  0  0  0  0  0  0  0  0  0  0
   36.4580   23.7380   32.0040 C   0  0  0  0  0  0  0  0  0  0  0  0
   38.6210   26.7930   32.9080 H   0  0  0  0  0  0  0  0  0  0  0  0
   39.3140   24.6060   33.6060 H   0  0  0  0  0  0  0  0  0  0  0  0
   38.0380   22.6430   33.0930 H   0  0  0  0  0  0  0  0  0  0  0  0
   36.9660   28.0680   30.3710 C   0  0  0  0  0  0  0  0  0  0  0  0
   36.5090   27.5020   31.5510 C   0  0  0  0  0  0  0  0  0  0  0  0
   35.6900   28.2730   32.3600 C   0  0  0  0  0  0  0  0  0  0  0  0
   35.3840   29.5300   31.9520 N   0  0  0  0  0  0  0  0  0  0  0  0
   35.8380   30.0460   30.8110 C   0  0  0  0  0  0  0  0  0  0  0  0
   36.6420   29.3170   29.9970 N   0  0  0  0  0  0  0  0  0  0  0  0
   37.6030   27.4340   29.7670 H   0  0  0  0  0  0  0  0  0  0  0  0
   35.3230   27.8680   33.2740 H   0  0  0  0  0  0  0  0  0  0  0  0
   35.5730   31.0540   30.5180 H   0  0  0  0  0  0  0  0  0  0  0  0
   35.6870   22.6510   31.6800 O   0  0  0  0  0  0  0  0  0  0  0  0
   35.9530   21.3380   32.0060 C   0  0  0  0  0  3  0  0  0  0  0  0
   34.7690   20.3750   32.0050 C   0  0  0  0  0  2  0  0  0  0  0  0
   35.4280   20.7510   33.2870 C   0  0  0  0  0  2  0  0  0  0  0  0
  1  2  1  0  0  0  0
  2  3  2  0  0  0  0
  2  7  1  0  0  0  0
  3  4  1  0  0  0  0
  4  8  1  0  0  0  0
  4  5  2  0  0  0  0
  5  9  1  0  0  0  0
  6  5  1  0  0  0  0
  6 10  1  0  0  0  0
  7  6  2  0  0  0  0
 11 12  1  0  0  0  0
 12  3  1  0  0  0  0
 12 13  2  0  0  0  0
 13 18  1  0  0  0  0
 14 13  1  0  0  0  0
 15 14  2  0  0  0  0
 16 11  2  0  0  0  0
 16 15  1  0  0  0  0
 17 11  1  0  0  0  0
 19 15  1  0  0  0  0
 20  7  1  0  0  0  0
 20 21  1  0  0  0  0
 21 23  1  0  0  0  0
 22 21  1  0  0  0  0
 22 23  1  0  0  0  0
M  END
>  <minimizedAffinity>
-4.29338455

$$$$

 OpenBabel03272505033D

 23 25  0  0  0  0  0  0  0  0999 V2000
   38.1520   23.9040   33.1870 Cl  0  0  0  0  0  0  0  0  0  0  0  0
   38.0020   25.3720   34.1200 C   0  0  0  0  0  0  0  0  0  0  0  0
   38.6160   25.4260   35.3480 C   0  0  0  0  0  0  0  0  0  0  0  0
   38.4670   26.6200   36.0570 C   0  0  0  0  0  0  0  0  0  0  0  0
   37.7230   27.6550   35.4850 C   0  0  0  0  0  0  0  0  0  0  0  0
   37.1400   27.5460   34.2680 C   0  0  0  0  0  0  0  0  0  0  0  0
   37.2730   26.3830   33.5560 C   0  0  0  0  0  0  0  0  0  0  0  0
   38.9430   26.6650   37.0140 H   0  0  0  0  0  0  0  0  0  0  0  0
   37.6930   28.5210   36.1500 H   0  0  0  0  0  0  0  0  0  0  0  0
   36.6180   28.4430   34.0100 H   0  0  0  0  0  0  0  0  0  0  0  0
   40.6670   24.0170   35.4900 C   0  0  0  0  0  0  0  0  0  0  0  0
   39.3940   24.3330   35.9380 C   0  0  0  0  0  0  0  0  0  0  0  0
   38.8700   23.5750   36.9730 C   0  0  0  0  0  0  0  0  0  0  0  0
   39.6290   22.5740   37.4850 N   0  0  0  0  0  0  0  0  0  0  0  0
   40.8500   22.2950   37.0330 C   0  0  0  0  0  0  0  0  0  0  0  0
   41.3920   23.0180   36.0200 N   0  0  0  0  0  0  0  0  0  0  0  0
   41.0410   24.6310   34.6810 H   0  0  0  0  0  0  0  0  0  0  0  0
   37.8940   23.7920   37.3400 H   0  0  0  0  0  0  0  0  0  0  0  0
   41.4270   21.4880   37.4660 H   0  0  0  0  0  0  0  0  0  0  0  0
   36.6790   26.2790   32.3240 O   0  0  0  0  0  0  0  0  0  0  0  0
   37.1090   26.8820   31.1600 C   0  0  0  0  0  3  0  0  0  0  0  0
   38.2650   26.2100   30.4250 C   0  0  0  0  0  2  0  0  0  0  0  0
   38.4660   27.5250   31.0940 C   0  0  0  0  0  2  0  0  0  0  0  0
  1  2  1  0  0  0  0
  2  3  1  0  0  0  0
  3 12  1  0  0  0  0
  3  4  2  0  0  0  0
  4  8  1  0  0  0  0
  5  4  1  0  0  0  0
  5  9  1  0  0  0  0
  6  5  2  0  0  0  0
  7  2  2  0  0  0  0
  7  6  1  0  0  0  0
 10  6  1  0  0  0  0
 11 12  2  0  0  0  0
 11 16  1  0  0  0  0
 12 13  1  0  0  0  0
 13 18  1  0  0  0  0
 13 14  2  0  0  0  0
 15 19  1  0  0  0  0
 15 14  1  0  0  0  0
 16 15  2  0  0  0  0
 17 11  1  0  0  0  0
 20  7  1  0  0  0  0
 21 20  1  0  0  0  0
 22 23  1  0  0  0  0
 22 21  1  0  0  0  0
 23 21  1  0  0  0  0
M  END
>  <minimizedAffinity>
-4.28573275

$$$$
