
 OpenBabel03262521463D

 24 25  0  0  0  0  0  0  0  0999 V2000
   37.7830   30.5440   50.8760 C   0  0  0  0  0  0  0  0  0  0  0  0
   38.6930   30.2900   51.4910 H   0  0  0  0  0  0  0  0  0  0  0  0
   37.2490   31.3120   51.4970 H   0  0  0  0  0  0  0  0  0  0  0  0
   38.1270   31.1980   49.6200 C   0  0  0  0  0  0  0  0  0  0  0  0
   38.5620   32.5070   49.5450 C   0  0  0  0  0  0  0  0  0  0  0  0
   38.8690   33.0450   48.2710 C   0  0  0  0  0  0  0  0  0  0  0  0
   38.7110   32.2230   47.1910 N   0  0  0  0  0  0  0  0  0  0  0  0
   38.2780   30.9340   47.3090 C   0  0  0  0  0  0  0  0  0  0  0  0
   37.9910   30.4430   48.5370 N   0  0  0  0  0  0  0  0  0  0  0  0
   38.6620   33.0990   50.4530 H   0  0  0  0  0  0  0  0  0  0  0  0
   39.2070   34.0530   48.1870 H   0  0  0  0  0  0  0  0  0  0  0  0
   38.1770   30.3440   46.4190 H   0  0  0  0  0  0  0  0  0  0  0  0
   36.9950   29.2800   50.7300 C   0  0  0  0  0  0  0  0  0  0  0  0
   37.5050   28.3710   51.1190 H   0  0  0  0  0  0  0  0  0  0  0  0
   36.8650   29.1150   49.6220 H   0  0  0  0  0  0  0  0  0  0  0  0
   35.7400   29.4870   51.3010 O   0  0  0  0  0  0  0  0  0  0  0  0
   34.7080   30.5270   49.1450 O   0  0  0  0  0  0  0  0  0  0  0  0
   34.5170   29.3800   50.1520 P   0  0  2  0  0  0  0  0  0  0  0  0
   32.9890   29.6290   50.8040 O   0  0  0  0  0  0  0  0  0  0  0  0
   32.5700   28.7440   50.9700 H   0  0  0  0  0  0  0  0  0  0  0  0
   34.5220   27.8940   49.3600 O   0  0  0  0  0  0  0  0  0  0  0  0
   33.5330   27.9150   48.3950 C   0  0  0  0  0  0  0  0  0  0  0  0
   33.7840   27.8790   46.9530 C   0  0  0  0  0  0  0  0  0  0  0  0
   33.4650   26.5960   47.6120 C   0  0  0  0  0  0  0  0  0  0  0  0
  1  2  1  0  0  0  0
  1  3  1  0  0  0  0
  4  1  1  0  0  0  0
  5  4  1  0  0  0  0
  5 10  1  0  0  0  0
  6  5  2  0  0  0  0
  7  8  2  0  0  0  0
  7  6  1  0  0  0  0
  8  9  1  0  0  0  0
  9  4  2  0  0  0  0
 11  6  1  0  0  0  0
 12  8  1  0  0  0  0
 13  1  1  0  0  0  0
 13 14  1  0  0  0  0
 13 16  1  0  0  0  0
 15 13  1  0  0  0  0
 18 17  2  6  0  0  0
 18 19  1  0  0  0  0
 18 16  1  0  0  0  0
 19 20  1  0  0  0  0
 21 18  1  0  0  0  0
 22 21  1  0  0  0  0
 23 24  1  0  0  0  0
 23 22  1  0  0  0  0
 24 22  1  0  0  0  0
M  END
>  <minimizedAffinity>
-4.87688684

>  <minimizedRMSD>
0.784794986

$$$$
