
 OpenBabel03272509573D

 40 43  0  0  0  0  0  0  0  0999 V2000
   34.9710   28.3690   49.3760 O   0  0  0  0  0  0  0  0  0  0  0  0
   37.3050   30.1570   51.4850 C   0  0  0  0  0  0  0  0  0  0  0  0
   38.0470   30.8430   50.4960 C   0  0  0  0  0  0  0  0  0  0  0  0
   37.6990   30.6490   49.1690 C   0  0  0  0  0  0  0  0  0  0  0  0
   36.6500   29.7940   48.9370 N   0  0  0  0  0  0  0  0  0  0  0  0
   35.9650   29.1580   49.8810 C   0  0  0  0  0  0  0  0  0  0  0  0
   36.3050   29.3490   51.1740 N   0  0  0  0  0  0  0  0  0  0  0  0
   37.5950   30.3270   52.5150 H   0  0  0  0  0  0  0  0  0  0  0  0
   38.8680   31.5110   50.6930 H   0  0  0  0  0  0  0  0  0  0  0  0
   38.9220   33.2690   49.0030 F   0  0  0  0  0  0  0  0  0  0  0  0
   38.9170   32.4860   47.9420 C   0  0  0  0  0  0  0  0  0  0  0  0
   38.3420   31.2620   48.0290 C   0  0  0  0  0  0  0  0  0  0  0  0
   38.3870   30.5140   46.8550 C   0  0  0  0  0  0  0  0  0  0  0  0
   38.9750   30.9940   45.7050 C   0  0  0  0  0  0  0  0  0  0  0  0
   39.5440   32.2400   45.6620 C   0  0  0  0  0  0  0  0  0  0  0  0
   39.5090   32.9870   46.8000 C   0  0  0  0  0  0  0  0  0  0  0  0
   37.9700   29.5190   46.7760 H   0  0  0  0  0  0  0  0  0  0  0  0
   39.0040   30.4020   44.7970 H   0  0  0  0  0  0  0  0  0  0  0  0
   40.0150   32.6440   44.7650 H   0  0  0  0  0  0  0  0  0  0  0  0
   39.9550   33.9680   46.7770 H   0  0  0  0  0  0  0  0  0  0  0  0
   34.4000   28.6980   48.1210 C   0  0  0  0  0  0  0  0  0  0  0  0
   33.7810   29.5950   48.2470 H   0  0  0  0  0  0  0  0  0  0  0  0
   35.2340   28.8230   47.3860 H   0  0  0  0  0  0  0  0  0  0  0  0
   33.5300   27.5810   47.6140 C   0  0  0  0  0  0  0  0  0  0  0  0
   33.7260   27.3530   46.5370 H   0  0  0  0  0  0  0  0  0  0  0  0
   33.7670   26.6610   48.1550 H   0  0  0  0  0  0  0  0  0  0  0  0
   32.0770   27.8950   47.7730 C   0  0  0  0  0  0  0  0  0  0  0  0
   31.4600   27.4980   48.9430 C   0  0  0  0  0  0  0  0  0  0  0  0
   30.1340   27.7350   49.1900 C   0  0  0  0  0  0  0  0  0  0  0  0
   29.4120   28.3690   48.2790 N   0  0  0  0  0  0  0  0  0  0  0  0
   30.0190   28.7580   47.1310 C   0  0  0  0  0  0  0  0  0  0  0  0
   31.3220   28.5350   46.8650 N   0  0  0  0  0  0  0  0  0  0  0  0
   32.0420   26.9790   49.6950 H   0  0  0  0  0  0  0  0  0  0  0  0
   29.7140   27.3870   50.1450 H   0  0  0  0  0  0  0  0  0  0  0  0
   29.1890   29.4760   46.1030 C   0  0  0  0  0  0  0  0  0  0  0  0
   29.2420   30.5790   46.2850 H   0  0  0  0  0  0  0  0  0  0  0  0
   28.1190   29.1520   46.1850 H   0  0  0  0  0  0  0  0  0  0  0  0
   29.6460   29.1830   44.7120 C   0  0  0  0  0  3  0  0  0  0  0  0
   28.5410   29.4050   43.6580 C   0  0  0  0  0  2  0  0  0  0  0  0
   29.8010   30.2110   43.6740 C   0  0  0  0  0  2  0  0  0  0  0  0
  1  6  1  0  0  0  0
  2  8  1  0  0  0  0
  3  9  1  0  0  0  0
  3  2  2  0  0  0  0
  4  3  1  0  0  0  0
  5  4  2  0  0  0  0
  5  6  1  0  0  0  0
  6  7  2  0  0  0  0
  7  2  1  0  0  0  0
 11 12  1  0  0  0  0
 11 10  1  0  0  0  0
 12  4  1  0  0  0  0
 13 12  2  0  0  0  0
 14 13  1  0  0  0  0
 15 14  2  0  0  0  0
 15 16  1  0  0  0  0
 16 11  2  0  0  0  0
 17 13  1  0  0  0  0
 18 14  1  0  0  0  0
 19 15  1  0  0  0  0
 20 16  1  0  0  0  0
 21 22  1  0  0  0  0
 21  1  1  0  0  0  0
 23 21  1  0  0  0  0
 24 27  1  0  0  0  0
 24 21  1  0  0  0  0
 24 26  1  0  0  0  0
 25 24  1  0  0  0  0
 27 28  1  0  0  0  0
 28 29  2  0  0  0  0
 28 33  1  0  0  0  0
 29 34  1  0  0  0  0
 30 29  1  0  0  0  0
 31 30  2  0  0  0  0
 32 31  1  0  0  0  0
 32 27  2  0  0  0  0
 35 37  1  0  0  0  0
 35 36  1  0  0  0  0
 35 31  1  0  0  0  0
 38 35  1  0  0  0  0
 39 40  1  0  0  0  0
 39 38  1  0  0  0  0
 40 38  1  0  0  0  0
M  END
>  <minimizedAffinity>
-6.02132511

>  <minimizedRMSD>
0.643471479

$$$$
