
 OpenBabel03272510303D

 22 24  0  0  0  0  0  0  0  0999 V2000
   37.2660   31.3420   49.2020 C   0  0  0  0  0  0  0  0  0  0  0  0
   37.5740   32.6100   49.7010 C   0  0  0  0  0  0  0  0  0  0  0  0
   38.5000   33.3320   48.9810 C   0  0  0  0  0  0  0  0  0  0  0  0
   39.0560   32.7940   47.8480 N   0  0  0  0  0  0  0  0  0  0  0  0
   38.7190   31.5450   47.4010 C   0  0  0  0  0  0  0  0  0  0  0  0
   37.8000   30.8020   48.1000 N   0  0  0  0  0  0  0  0  0  0  0  0
   37.1110   32.9940   50.5990 H   0  0  0  0  0  0  0  0  0  0  0  0
   38.8030   34.3250   49.2890 H   0  0  0  0  0  0  0  0  0  0  0  0
   36.2330   30.5380   49.9490 C   0  0  0  0  0  0  0  0  0  0  0  0
   36.1510   29.1020   49.8800 C   0  0  0  0  0  0  0  0  0  0  0  0
   36.8410   29.7060   51.0910 C   0  0  0  0  0  0  0  0  0  0  0  0
   35.3350   31.1510   50.2630 H   0  0  0  0  0  0  0  0  0  0  0  0
   35.1500   28.6400   50.0300 H   0  0  0  0  0  0  0  0  0  0  0  0
   36.8050   28.5080   49.2110 H   0  0  0  0  0  0  0  0  0  0  0  0
   36.2760   29.6730   52.0510 H   0  0  0  0  0  0  0  0  0  0  0  0
   37.9310   29.6630   51.1910 H   0  0  0  0  0  0  0  0  0  0  0  0
   39.2880   30.9490   46.1840 C   0  0  0  0  0  0  0  0  0  0  0  0
   40.2500   31.4200   45.8980 H   0  0  0  0  0  0  0  0  0  0  0  0
   39.5210   29.8810   46.3760 H   0  0  0  0  0  0  0  0  0  0  0  0
   38.2910   30.9990   45.0500 C   0  0  0  0  0  3  0  0  0  0  0  0
   37.8070   32.2780   44.5020 C   0  0  0  0  0  2  0  0  0  0  0  0
   38.7200   31.3410   43.6850 C   0  0  0  0  0  2  0  0  0  0  0  0
  1  2  1  0  0  0  0
  1  9  1  0  0  0  0
  2  7  1  0  0  0  0
  3  8  1  0  0  0  0
  3  2  2  0  0  0  0
  4  3  1  0  0  0  0
  5  4  2  0  0  0  0
  5  6  1  0  0  0  0
  6  1  2  0  0  0  0
  9 12  1  0  0  0  0
  9 11  1  0  0  0  0
 10  9  1  0  0  0  0
 10 13  1  0  0  0  0
 10 11  1  0  0  0  0
 11 16  1  0  0  0  0
 11 15  1  0  0  0  0
 14 10  1  0  0  0  0
 17 19  1  0  0  0  0
 17  5  1  0  0  0  0
 18 17  1  0  0  0  0
 20 17  1  0  0  0  0
 21 20  1  0  0  0  0
 22 21  1  0  0  0  0
 22 20  1  0  0  0  0
M  END
>  <minimizedAffinity>
-4.72043705

>  <minimizedRMSD>
0.186738536

$$$$
