
 OpenBabel03272504583D

 27 29  0  0  1  0  0  0  0  0999 V2000
   37.7250   26.3190   35.7360 C   0  0  1  0  0  0  0  0  0  0  0  0
   38.6600   27.4070   35.8830 C   0  0  0  0  0  0  0  0  0  0  0  0
   38.1920   26.9960   34.5260 C   0  0  2  0  0  0  0  0  0  0  0  0
   36.6040   26.4470   35.9330 H   0  0  0  0  0  0  0  0  0  0  0  0
   38.2520   28.0980   36.5960 H   0  0  0  0  0  0  0  0  0  0  0  0
   39.7040   27.1320   36.1410 H   0  0  0  0  0  0  0  0  0  0  0  0
   39.0320   26.7540   33.8990 H   0  0  0  0  0  0  0  0  0  0  0  0
   38.1600   24.8950   35.9320 C   0  0  0  0  0  0  0  0  0  0  0  0
   38.3510   24.1430   34.7510 C   0  0  0  0  0  0  0  0  0  0  0  0
   38.7580   22.8470   34.9600 C   0  0  0  0  0  0  0  0  0  0  0  0
   38.9480   22.3740   36.2220 N   0  0  0  0  0  0  0  0  0  0  0  0
   38.7510   23.1340   37.3290 C   0  0  0  0  0  0  0  0  0  0  0  0
   38.3440   24.4300   37.1580 N   0  0  0  0  0  0  0  0  0  0  0  0
   38.9560   22.6690   38.6330 N   0  0  0  0  0  0  0  0  0  0  0  0
   38.2030   24.5110   33.7480 H   0  0  0  0  0  0  0  0  0  0  0  0
   38.9170   22.2340   34.0870 H   0  0  0  0  0  0  0  0  0  0  0  0
   38.6630   21.7320   38.9770 H   0  0  0  0  0  0  0  0  0  0  0  0
   39.4200   23.2010   39.4090 H   0  0  0  0  0  0  0  0  0  0  0  0
   37.2690   27.8540   33.9200 O   0  0  0  0  0  0  0  0  0  0  0  0
   35.9410   28.2800   31.7500 O   0  0  0  0  0  0  0  0  0  0  0  0
   36.9570   27.3670   32.3590 P   0  0  1  0  0  0  0  0  0  0  0  0
   38.3830   27.5830   31.3990 O   0  0  0  0  0  0  0  0  0  0  0  0
   38.4630   28.5370   31.1540 H   0  0  0  0  0  0  0  0  0  0  0  0
   36.5080   25.7470   32.3650 O   0  0  0  0  0  0  0  0  0  0  0  0
   36.1940   25.2440   31.1350 C   0  0  0  0  0  3  0  0  0  0  0  0
   34.7570   25.1000   30.7980 C   0  0  0  0  0  2  0  0  0  0  0  0
   35.5000   23.8650   31.1400 C   0  0  0  0  0  2  0  0  0  0  0  0
  1  2  1  0  0  0  0
  1  8  1  0  0  0  0
  1  4  1  1  0  0  0
  2  6  1  0  0  0  0
  2  5  1  0  0  0  0
  3  7  1  6  0  0  0
  3  1  1  0  0  0  0
  3  2  1  0  0  0  0
  8 13  1  0  0  0  0
  9 10  1  0  0  0  0
  9  8  2  0  0  0  0
 10 11  2  0  0  0  0
 11 12  1  0  0  0  0
 12 14  1  0  0  0  0
 13 12  2  0  0  0  0
 14 17  1  0  0  0  0
 14 18  1  0  0  0  0
 15  9  1  0  0  0  0
 16 10  1  0  0  0  0
 19  3  1  0  0  0  0
 21 20  2  6  0  0  0
 21 24  1  0  0  0  0
 21 19  1  0  0  0  0
 22 21  1  0  0  0  0
 23 22  1  0  0  0  0
 25 27  1  0  0  0  0
 25 24  1  0  0  0  0
 26 25  1  0  0  0  0
 26 27  1  0  0  0  0
M  END
>  <minimizedAffinity>
-4.96193838

$$$$

 OpenBabel03272504583D

 27 29  0  0  1  0  0  0  0  0999 V2000
   37.6970   25.8670   35.1270 C   0  0  1  0  0  0  0  0  0  0  0  0
   38.3640   27.0700   34.6970 C   0  0  0  0  0  0  0  0  0  0  0  0
   37.8440   26.0980   33.6910 C   0  0  2  0  0  0  0  0  0  0  0  0
   36.6090   25.8690   35.4860 H   0  0  0  0  0  0  0  0  0  0  0  0
   37.8970   27.9010   35.1900 H   0  0  0  0  0  0  0  0  0  0  0  0
   39.4680   27.0970   34.8210 H   0  0  0  0  0  0  0  0  0  0  0  0
   38.6350   25.7810   33.0340 H   0  0  0  0  0  0  0  0  0  0  0  0
   38.4700   24.7230   35.7180 C   0  0  0  0  0  0  0  0  0  0  0  0
   39.4890   24.1840   34.9010 C   0  0  0  0  0  0  0  0  0  0  0  0
   40.1870   23.1460   35.4700 C   0  0  0  0  0  0  0  0  0  0  0  0
   39.8820   22.7100   36.7230 N   0  0  0  0  0  0  0  0  0  0  0  0
   38.8920   23.2590   37.4730 C   0  0  0  0  0  0  0  0  0  0  0  0
   38.1760   24.2940   36.9360 N   0  0  0  0  0  0  0  0  0  0  0  0
   38.5750   22.8330   38.7670 N   0  0  0  0  0  0  0  0  0  0  0  0
   39.7360   24.5250   33.9080 H   0  0  0  0  0  0  0  0  0  0  0  0
   40.9740   22.7020   34.8840 H   0  0  0  0  0  0  0  0  0  0  0  0
   38.5240   21.8370   39.0650 H   0  0  0  0  0  0  0  0  0  0  0  0
   38.3540   23.4560   39.5820 H   0  0  0  0  0  0  0  0  0  0  0  0
   36.6810   26.4880   33.0200 O   0  0  0  0  0  0  0  0  0  0  0  0
   35.0800   25.8260   31.1070 O   0  0  0  0  0  0  0  0  0  0  0  0
   36.4300   25.5300   31.6820 P   0  0  1  0  0  0  0  0  0  0  0  0
   37.5500   25.9790   30.4400 O   0  0  0  0  0  0  0  0  0  0  0  0
   37.2240   26.7990   29.9950 H   0  0  0  0  0  0  0  0  0  0  0  0
   36.6570   23.9190   32.1060 O   0  0  0  0  0  0  0  0  0  0  0  0
   35.8920   23.0360   31.3980 C   0  0  0  0  0  3  0  0  0  0  0  0
   35.3580   21.8570   32.1210 C   0  0  0  0  0  2  0  0  0  0  0  0
   36.5040   21.6310   31.2110 C   0  0  0  0  0  2  0  0  0  0  0  0
  1  4  1  1  0  0  0
  1  8  1  0  0  0  0
  2  6  1  0  0  0  0
  2  1  1  0  0  0  0
  2  5  1  0  0  0  0
  3  7  1  6  0  0  0
  3  2  1  0  0  0  0
  3  1  1  0  0  0  0
  8 13  1  0  0  0  0
  9 10  1  0  0  0  0
  9  8  2  0  0  0  0
 10 11  2  0  0  0  0
 11 12  1  0  0  0  0
 12 14  1  0  0  0  0
 13 12  2  0  0  0  0
 14 17  1  0  0  0  0
 14 18  1  0  0  0  0
 15  9  1  0  0  0  0
 16 10  1  0  0  0  0
 19  3  1  0  0  0  0
 21 20  2  6  0  0  0
 21 24  1  0  0  0  0
 21 19  1  0  0  0  0
 22 21  1  0  0  0  0
 23 22  1  0  0  0  0
 25 24  1  0  0  0  0
 25 26  1  0  0  0  0
 27 25  1  0  0  0  0
 27 26  1  0  0  0  0
M  END
>  <minimizedAffinity>
-4.84248066

$$$$

 OpenBabel03272504583D

 27 29  0  0  1  0  0  0  0  0999 V2000
   38.5120   26.8100   34.5370 C   0  0  1  0  0  0  0  0  0  0  0  0
   38.5740   27.0620   35.9550 C   0  0  0  0  0  0  0  0  0  0  0  0
   38.1820   25.7140   35.4470 C   0  0  2  0  0  0  0  0  0  0  0  0
   39.4520   26.6230   33.9090 H   0  0  0  0  0  0  0  0  0  0  0  0
   39.5350   27.4880   36.1720 H   0  0  0  0  0  0  0  0  0  0  0  0
   37.7550   27.6760   36.3860 H   0  0  0  0  0  0  0  0  0  0  0  0
   37.2230   25.4310   35.8420 H   0  0  0  0  0  0  0  0  0  0  0  0
   37.3940   27.3640   33.7010 C   0  0  0  0  0  0  0  0  0  0  0  0
   36.5410   28.2870   34.3500 C   0  0  0  0  0  0  0  0  0  0  0  0
   35.5340   28.7850   33.5590 C   0  0  0  0  0  0  0  0  0  0  0  0
   35.4110   28.3910   32.2620 N   0  0  0  0  0  0  0  0  0  0  0  0
   36.2540   27.5010   31.6800 C   0  0  0  0  0  0  0  0  0  0  0  0
   37.2690   26.9830   32.4390 N   0  0  0  0  0  0  0  0  0  0  0  0
   36.1510   27.0960   30.3450 N   0  0  0  0  0  0  0  0  0  0  0  0
   36.6340   28.6040   35.3770 H   0  0  0  0  0  0  0  0  0  0  0  0
   34.8580   29.4930   34.0110 H   0  0  0  0  0  0  0  0  0  0  0  0
   35.2560   26.8690   29.8650 H   0  0  0  0  0  0  0  0  0  0  0  0
   36.9500   26.9730   29.6760 H   0  0  0  0  0  0  0  0  0  0  0  0
   39.1550   24.7170   35.5690 O   0  0  0  0  0  0  0  0  0  0  0  0
   37.3560   23.3190   36.7800 O   0  0  0  0  0  0  0  0  0  0  0  0
   38.4410   23.2250   35.7540 P   0  0  1  0  0  0  0  0  0  0  0  0
   37.6290   22.7950   34.2860 O   0  0  0  0  0  0  0  0  0  0  0  0
   36.7660   23.2740   34.2440 H   0  0  0  0  0  0  0  0  0  0  0  0
   39.6260   22.0870   36.1110 O   0  0  0  0  0  0  0  0  0  0  0  0
   40.4650   22.4460   37.1270 C   0  0  0  0  0  3  0  0  0  0  0  0
   41.8650   22.7850   36.7740 C   0  0  0  0  0  2  0  0  0  0  0  0
   41.6260   21.4670   37.4050 C   0  0  0  0  0  2  0  0  0  0  0  0
  1  4  1  6  0  0  0
  1  3  1  0  0  0  0
  1  2  1  0  0  0  0
  2  5  1  0  0  0  0
  2  6  1  0  0  0  0
  3 19  1  0  0  0  0
  3  7  1  1  0  0  0
  3  2  1  0  0  0  0
  8  9  1  0  0  0  0
  8  1  1  0  0  0  0
  9 15  1  0  0  0  0
 10 16  1  0  0  0  0
 10  9  2  0  0  0  0
 11 10  1  0  0  0  0
 12 11  2  0  0  0  0
 12 13  1  0  0  0  0
 13  8  2  0  0  0  0
 14 12  1  0  0  0  0
 17 14  1  0  0  0  0
 18 14  1  0  0  0  0
 19 21  1  0  0  0  0
 21 24  1  0  0  0  0
 21 20  2  1  0  0  0
 22 21  1  0  0  0  0
 23 22  1  0  0  0  0
 24 25  1  0  0  0  0
 25 27  1  0  0  0  0
 26 25  1  0  0  0  0
 26 27  1  0  0  0  0
M  END
>  <minimizedAffinity>
-4.76715469

$$$$

 OpenBabel03272504583D

 27 29  0  0  1  0  0  0  0  0999 V2000
   37.7340   26.2370   35.6970 C   0  0  1  0  0  0  0  0  0  0  0  0
   38.3830   27.5170   35.5670 C   0  0  0  0  0  0  0  0  0  0  0  0
   37.9370   26.7740   34.3520 C   0  0  2  0  0  0  0  0  0  0  0  0
   36.6320   26.1390   35.9940 H   0  0  0  0  0  0  0  0  0  0  0  0
   37.8700   28.2130   36.2030 H   0  0  0  0  0  0  0  0  0  0  0  0
   39.4790   27.5390   35.7490 H   0  0  0  0  0  0  0  0  0  0  0  0
   38.7650   26.6230   33.6820 H   0  0  0  0  0  0  0  0  0  0  0  0
   38.5150   25.0080   36.0660 C   0  0  0  0  0  0  0  0  0  0  0  0
   39.4710   24.5800   35.1180 C   0  0  0  0  0  0  0  0  0  0  0  0
   40.1780   23.4610   35.4860 C   0  0  0  0  0  0  0  0  0  0  0  0
   39.9380   22.8500   36.6790 N   0  0  0  0  0  0  0  0  0  0  0  0
   39.0080   23.2970   37.5600 C   0  0  0  0  0  0  0  0  0  0  0  0
   38.2850   24.4100   37.2250 N   0  0  0  0  0  0  0  0  0  0  0  0
   38.7590   22.6910   38.7960 N   0  0  0  0  0  0  0  0  0  0  0  0
   39.6660   25.0590   34.1710 H   0  0  0  0  0  0  0  0  0  0  0  0
   40.9190   23.0960   34.7930 H   0  0  0  0  0  0  0  0  0  0  0  0
   38.7030   21.6640   38.9490 H   0  0  0  0  0  0  0  0  0  0  0  0
   38.6000   23.1910   39.7050 H   0  0  0  0  0  0  0  0  0  0  0  0
   36.7930   27.2760   33.7240 O   0  0  0  0  0  0  0  0  0  0  0  0
   38.0190   26.1870   31.7320 O   0  0  0  0  0  0  0  0  0  0  0  0
   36.9400   27.1670   32.0690 P   0  0  1  0  0  0  0  0  0  0  0  0
   35.4930   26.4790   31.4120 O   0  0  0  0  0  0  0  0  0  0  0  0
   35.5140   25.5000   31.5440 H   0  0  0  0  0  0  0  0  0  0  0  0
   37.1870   28.7040   31.4340 O   0  0  0  0  0  0  0  0  0  0  0  0
   36.7350   28.8650   30.1560 C   0  0  0  0  0  3  0  0  0  0  0  0
   37.7450   28.8960   29.0700 C   0  0  0  0  0  2  0  0  0  0  0  0
   37.1410   30.1880   29.4710 C   0  0  0  0  0  2  0  0  0  0  0  0
  1  4  1  1  0  0  0
  1  8  1  0  0  0  0
  2  1  1  0  0  0  0
  2  6  1  0  0  0  0
  2  5  1  0  0  0  0
  3  7  1  6  0  0  0
  3  2  1  0  0  0  0
  3  1  1  0  0  0  0
  8 13  1  0  0  0  0
  9 10  1  0  0  0  0
  9  8  2  0  0  0  0
 10 11  2  0  0  0  0
 11 12  1  0  0  0  0
 12 14  1  0  0  0  0
 13 12  2  0  0  0  0
 14 17  1  0  0  0  0
 14 18  1  0  0  0  0
 15  9  1  0  0  0  0
 16 10  1  0  0  0  0
 19  3  1  0  0  0  0
 21 20  2  6  0  0  0
 21 19  1  0  0  0  0
 22 23  1  0  0  0  0
 22 21  1  0  0  0  0
 24 21  1  0  0  0  0
 25 24  1  0  0  0  0
 26 27  1  0  0  0  0
 26 25  1  0  0  0  0
 27 25  1  0  0  0  0
M  END
>  <minimizedAffinity>
-4.60229826

$$$$

 OpenBabel03272504583D

 27 29  0  0  1  0  0  0  0  0999 V2000
   36.3600   26.9010   32.4020 C   0  0  1  0  0  0  0  0  0  0  0  0
   36.9370   25.5930   32.2110 C   0  0  0  0  0  0  0  0  0  0  0  0
   37.5020   26.5220   33.2340 C   0  0  2  0  0  0  0  0  0  0  0  0
   35.3920   27.0600   32.9910 H   0  0  0  0  0  0  0  0  0  0  0  0
   36.1440   24.8720   32.2670 H   0  0  0  0  0  0  0  0  0  0  0  0
   37.5480   25.4490   31.2950 H   0  0  0  0  0  0  0  0  0  0  0  0
   38.5510   26.6810   33.0540 H   0  0  0  0  0  0  0  0  0  0  0  0
   36.5810   27.9970   31.3980 C   0  0  0  0  0  0  0  0  0  0  0  0
   36.1770   29.2900   31.8030 C   0  0  0  0  0  0  0  0  0  0  0  0
   36.3990   30.2740   30.8700 C   0  0  0  0  0  0  0  0  0  0  0  0
   36.9660   29.9760   29.6690 N   0  0  0  0  0  0  0  0  0  0  0  0
   37.3390   28.7170   29.3230 C   0  0  0  0  0  0  0  0  0  0  0  0
   37.1310   27.7120   30.2280 N   0  0  0  0  0  0  0  0  0  0  0  0
   37.9360   28.3960   28.0990 N   0  0  0  0  0  0  0  0  0  0  0  0
   35.7270   29.5320   32.7530 H   0  0  0  0  0  0  0  0  0  0  0  0
   36.1070   31.2770   31.1340 H   0  0  0  0  0  0  0  0  0  0  0  0
   37.6370   28.7780   27.1790 H   0  0  0  0  0  0  0  0  0  0  0  0
   38.7450   27.7420   27.9630 H   0  0  0  0  0  0  0  0  0  0  0  0
   37.2020   26.2100   34.5630 O   0  0  0  0  0  0  0  0  0  0  0  0
   39.7820   26.2150   34.5930 O   0  0  0  0  0  0  0  0  0  0  0  0
   38.5850   26.2160   35.4900 P   0  0  1  0  0  0  0  0  0  0  0  0
   38.6820   27.7110   36.3590 O   0  0  0  0  0  0  0  0  0  0  0  0
   39.0100   28.4160   35.7490 H   0  0  0  0  0  0  0  0  0  0  0  0
   38.5330   24.9270   36.5680 O   0  0  0  0  0  0  0  0  0  0  0  0
   39.3990   23.9130   36.2760 C   0  0  0  0  0  3  0  0  0  0  0  0
   38.8490   22.5370   36.2090 C   0  0  0  0  0  2  0  0  0  0  0  0
   39.6350   22.8950   37.4120 C   0  0  0  0  0  2  0  0  0  0  0  0
  1  4  1  1  0  0  0
  1  3  1  0  0  0  0
  2  5  1  0  0  0  0
  2  1  1  0  0  0  0
  2  3  1  0  0  0  0
  3  7  1  6  0  0  0
  3 19  1  0  0  0  0
  6  2  1  0  0  0  0
  8  9  1  0  0  0  0
  8  1  1  0  0  0  0
  9 15  1  0  0  0  0
 10 16  1  0  0  0  0
 10  9  2  0  0  0  0
 11 10  1  0  0  0  0
 12 11  2  0  0  0  0
 12 13  1  0  0  0  0
 13  8  2  0  0  0  0
 14 12  1  0  0  0  0
 17 14  1  0  0  0  0
 18 14  1  0  0  0  0
 19 21  1  0  0  0  0
 21 20  2  6  0  0  0
 21 22  1  0  0  0  0
 21 24  1  0  0  0  0
 23 22  1  0  0  0  0
 25 24  1  0  0  0  0
 25 27  1  0  0  0  0
 26 25  1  0  0  0  0
 26 27  1  0  0  0  0
M  END
>  <minimizedAffinity>
-4.54083586

$$$$

 OpenBabel03272504583D

 27 29  0  0  1  0  0  0  0  0999 V2000
   36.5110   27.5560   32.6500 C   0  0  1  0  0  0  0  0  0  0  0  0
   37.7920   27.4950   31.9900 C   0  0  0  0  0  0  0  0  0  0  0  0
   37.7030   27.3540   33.4740 C   0  0  2  0  0  0  0  0  0  0  0  0
   35.7870   26.6690   32.6600 H   0  0  0  0  0  0  0  0  0  0  0  0
   37.7220   26.7690   31.2030 H   0  0  0  0  0  0  0  0  0  0  0  0
   38.2040   28.4560   31.6170 H   0  0  0  0  0  0  0  0  0  0  0  0
   38.3220   28.0890   33.9560 H   0  0  0  0  0  0  0  0  0  0  0  0
   35.7850   28.8620   32.8080 C   0  0  0  0  0  0  0  0  0  0  0  0
   35.7100   29.3670   34.1260 C   0  0  0  0  0  0  0  0  0  0  0  0
   35.0500   30.5670   34.2390 C   0  0  0  0  0  0  0  0  0  0  0  0
   34.5290   31.1790   33.1410 N   0  0  0  0  0  0  0  0  0  0  0  0
   34.6240   30.6550   31.8920 C   0  0  0  0  0  0  0  0  0  0  0  0
   35.2750   29.4600   31.7430 N   0  0  0  0  0  0  0  0  0  0  0  0
   34.1070   31.2770   30.7510 N   0  0  0  0  0  0  0  0  0  0  0  0
   36.1220   28.8880   35.0000 H   0  0  0  0  0  0  0  0  0  0  0  0
   34.9680   30.9920   35.2260 H   0  0  0  0  0  0  0  0  0  0  0  0
   33.1790   31.7430   30.7030 H   0  0  0  0  0  0  0  0  0  0  0  0
   34.5850   31.3470   29.8190 H   0  0  0  0  0  0  0  0  0  0  0  0
   37.8810   26.0590   33.9690 O   0  0  0  0  0  0  0  0  0  0  0  0
   40.0970   25.6070   35.2100 O   0  0  0  0  0  0  0  0  0  0  0  0
   38.6990   26.0960   35.4190 P   0  0  1  0  0  0  0  0  0  0  0  0
   38.8740   27.7400   35.9330 O   0  0  0  0  0  0  0  0  0  0  0  0
   39.6160   28.1570   35.4290 H   0  0  0  0  0  0  0  0  0  0  0  0
   37.8310   25.2240   36.5650 O   0  0  0  0  0  0  0  0  0  0  0  0
   38.4170   24.0500   36.9420 C   0  0  0  0  0  3  0  0  0  0  0  0
   37.5340   22.9780   37.4620 C   0  0  0  0  0  2  0  0  0  0  0  0
   38.3440   23.7270   38.4500 C   0  0  0  0  0  2  0  0  0  0  0  0
  1  4  1  6  0  0  0
  1  8  1  0  0  0  0
  1  3  1  0  0  0  0
  2  1  1  0  0  0  0
  2  3  1  0  0  0  0
  3  7  1  1  0  0  0
  3 19  1  0  0  0  0
  5  2  1  0  0  0  0
  6  2  1  0  0  0  0
  8  9  1  0  0  0  0
  9 10  2  0  0  0  0
  9 15  1  0  0  0  0
 10 16  1  0  0  0  0
 11 10  1  0  0  0  0
 12 11  2  0  0  0  0
 13 12  1  0  0  0  0
 13  8  2  0  0  0  0
 14 12  1  0  0  0  0
 17 14  1  0  0  0  0
 18 14  1  0  0  0  0
 19 21  1  0  0  0  0
 21 20  2  6  0  0  0
 21 22  1  0  0  0  0
 21 24  1  0  0  0  0
 23 22  1  0  0  0  0
 24 25  1  0  0  0  0
 25 26  1  0  0  0  0
 25 27  1  0  0  0  0
 26 27  1  0  0  0  0
M  END
>  <minimizedAffinity>
-4.45855951

$$$$

 OpenBabel03272504583D

 27 29  0  0  1  0  0  0  0  0999 V2000
   38.4450   26.3240   34.7270 C   0  0  1  0  0  0  0  0  0  0  0  0
   38.3030   26.9290   36.0280 C   0  0  0  0  0  0  0  0  0  0  0  0
   37.9780   25.4850   35.8310 C   0  0  2  0  0  0  0  0  0  0  0  0
   39.4640   26.0110   34.3080 H   0  0  0  0  0  0  0  0  0  0  0  0
   39.2260   27.4240   36.2630 H   0  0  0  0  0  0  0  0  0  0  0  0
   37.4350   27.6070   36.1670 H   0  0  0  0  0  0  0  0  0  0  0  0
   36.9700   25.2830   36.1450 H   0  0  0  0  0  0  0  0  0  0  0  0
   37.4640   26.6140   33.6280 C   0  0  0  0  0  0  0  0  0  0  0  0
   36.8610   27.8920   33.6640 C   0  0  0  0  0  0  0  0  0  0  0  0
   35.9770   28.1350   32.6410 C   0  0  0  0  0  0  0  0  0  0  0  0
   35.7350   27.1870   31.6940 N   0  0  0  0  0  0  0  0  0  0  0  0
   36.3370   25.9710   31.6990 C   0  0  0  0  0  0  0  0  0  0  0  0
   37.2240   25.6960   32.7040 N   0  0  0  0  0  0  0  0  0  0  0  0
   36.1110   24.9920   30.7260 N   0  0  0  0  0  0  0  0  0  0  0  0
   37.0490   28.6470   34.4110 H   0  0  0  0  0  0  0  0  0  0  0  0
   35.4920   29.0970   32.6270 H   0  0  0  0  0  0  0  0  0  0  0  0
   35.1770   24.7520   30.3360 H   0  0  0  0  0  0  0  0  0  0  0  0
   36.8450   24.3900   30.2780 H   0  0  0  0  0  0  0  0  0  0  0  0
   38.9160   24.5810   36.3390 O   0  0  0  0  0  0  0  0  0  0  0  0
   39.5670   22.0860   36.2620 O   0  0  0  0  0  0  0  0  0  0  0  0
   38.4060   23.0150   36.0980 P   0  0  1  0  0  0  0  0  0  0  0  0
   37.3030   22.5740   37.3580 O   0  0  0  0  0  0  0  0  0  0  0  0
   37.8170   22.3500   38.1720 H   0  0  0  0  0  0  0  0  0  0  0  0
   37.6450   22.9060   34.6030 O   0  0  0  0  0  0  0  0  0  0  0  0
   38.0320   21.8350   33.8500 C   0  0  0  0  0  3  0  0  0  0  0  0
   37.9510   21.9660   32.3750 C   0  0  0  0  0  2  0  0  0  0  0  0
   36.9080   21.1530   33.0410 C   0  0  0  0  0  2  0  0  0  0  0  0
  1  4  1  6  0  0  0
  1  3  1  0  0  0  0
  1  2  1  0  0  0  0
  2  6  1  0  0  0  0
  2  5  1  0  0  0  0
  3  2  1  0  0  0  0
  3  7  1  1  0  0  0
  3 19  1  0  0  0  0
  8  9  1  0  0  0  0
  8  1  1  0  0  0  0
  9 15  1  0  0  0  0
 10  9  2  0  0  0  0
 11 12  2  0  0  0  0
 11 10  1  0  0  0  0
 12 13  1  0  0  0  0
 13  8  2  0  0  0  0
 14 12  1  0  0  0  0
 16 10  1  0  0  0  0
 17 14  1  0  0  0  0
 18 14  1  0  0  0  0
 21 20  2  1  0  0  0
 21 19  1  0  0  0  0
 21 22  1  0  0  0  0
 22 23  1  0  0  0  0
 24 21  1  0  0  0  0
 25 24  1  0  0  0  0
 26 27  1  0  0  0  0
 26 25  1  0  0  0  0
 27 25  1  0  0  0  0
M  END
>  <minimizedAffinity>
-4.44473648

$$$$

 OpenBabel03272504583D

 27 29  0  0  1  0  0  0  0  0999 V2000
   38.4590   27.1940   34.3390 C   0  0  1  0  0  0  0  0  0  0  0  0
   38.2890   27.0920   35.7670 C   0  0  0  0  0  0  0  0  0  0  0  0
   38.3170   25.8610   34.9240 C   0  0  2  0  0  0  0  0  0  0  0  0
   39.4810   27.3820   33.8590 H   0  0  0  0  0  0  0  0  0  0  0  0
   39.0770   27.6520   36.2340 H   0  0  0  0  0  0  0  0  0  0  0  0
   37.2950   27.3820   36.1700 H   0  0  0  0  0  0  0  0  0  0  0  0
   37.4230   25.2830   35.0770 H   0  0  0  0  0  0  0  0  0  0  0  0
   37.3410   27.6770   33.4600 C   0  0  0  0  0  0  0  0  0  0  0  0
   36.3520   28.4610   34.0980 C   0  0  0  0  0  0  0  0  0  0  0  0
   35.3480   28.8970   33.2670 C   0  0  0  0  0  0  0  0  0  0  0  0
   35.3510   28.5740   31.9450 N   0  0  0  0  0  0  0  0  0  0  0  0
   36.3230   27.8170   31.3750 C   0  0  0  0  0  0  0  0  0  0  0  0
   37.3390   27.3640   32.1730 N   0  0  0  0  0  0  0  0  0  0  0  0
   36.3490   27.4880   30.0160 N   0  0  0  0  0  0  0  0  0  0  0  0
   36.3440   28.7210   35.1450 H   0  0  0  0  0  0  0  0  0  0  0  0
   34.5710   29.4980   33.7100 H   0  0  0  0  0  0  0  0  0  0  0  0
   35.5180   27.1970   29.4630 H   0  0  0  0  0  0  0  0  0  0  0  0
   37.1980   27.4940   29.3980 H   0  0  0  0  0  0  0  0  0  0  0  0
   39.4920   25.1070   34.9970 O   0  0  0  0  0  0  0  0  0  0  0  0
   37.8780   23.2580   34.1990 O   0  0  0  0  0  0  0  0  0  0  0  0
   39.1430   23.4790   34.9660 P   0  0  1  0  0  0  0  0  0  0  0  0
   40.3640   22.6510   34.0580 O   0  0  0  0  0  0  0  0  0  0  0  0
   40.1850   22.7740   33.0940 H   0  0  0  0  0  0  0  0  0  0  0  0
   39.1020   22.8940   36.5420 O   0  0  0  0  0  0  0  0  0  0  0  0
   38.4180   23.6850   37.4190 C   0  0  0  0  0  3  0  0  0  0  0  0
   38.8260   23.6420   38.8440 C   0  0  0  0  0  2  0  0  0  0  0  0
   37.5780   22.9340   38.4750 C   0  0  0  0  0  2  0  0  0  0  0  0
  1  4  1  6  0  0  0
  1  3  1  0  0  0  0
  1  2  1  0  0  0  0
  2  6  1  0  0  0  0
  2  5  1  0  0  0  0
  3 19  1  0  0  0  0
  3  7  1  6  0  0  0
  3  2  1  0  0  0  0
  8  9  1  0  0  0  0
  8  1  1  0  0  0  0
  9 15  1  0  0  0  0
 10 16  1  0  0  0  0
 10  9  2  0  0  0  0
 11 10  1  0  0  0  0
 12 11  2  0  0  0  0
 12 13  1  0  0  0  0
 13  8  2  0  0  0  0
 14 12  1  0  0  0  0
 17 14  1  0  0  0  0
 18 14  1  0  0  0  0
 21 20  2  6  0  0  0
 21 19  1  0  0  0  0
 21 24  1  0  0  0  0
 22 21  1  0  0  0  0
 23 22  1  0  0  0  0
 24 25  1  0  0  0  0
 25 27  1  0  0  0  0
 25 26  1  0  0  0  0
 27 26  1  0  0  0  0
M  END
>  <minimizedAffinity>
-4.30060673

$$$$

 OpenBabel03272504583D

 27 29  0  0  1  0  0  0  0  0999 V2000
   37.8880   25.8610   35.6390 C   0  0  1  0  0  0  0  0  0  0  0  0
   38.2230   27.2360   35.9150 C   0  0  0  0  0  0  0  0  0  0  0  0
   38.7330   26.5710   34.6790 C   0  0  2  0  0  0  0  0  0  0  0  0
   36.8680   25.5540   35.2190 H   0  0  0  0  0  0  0  0  0  0  0  0
   37.3100   27.7640   36.1130 H   0  0  0  0  0  0  0  0  0  0  0  0
   38.9720   27.4130   36.7150 H   0  0  0  0  0  0  0  0  0  0  0  0
   39.8060   26.6310   34.6390 H   0  0  0  0  0  0  0  0  0  0  0  0
   38.5250   24.7410   36.4110 C   0  0  0  0  0  0  0  0  0  0  0  0
   37.9880   24.4960   37.6950 C   0  0  0  0  0  0  0  0  0  0  0  0
   38.5820   23.4600   38.3740 C   0  0  0  0  0  0  0  0  0  0  0  0
   39.6020   22.7560   37.8100 N   0  0  0  0  0  0  0  0  0  0  0  0
   40.0860   23.0260   36.5710 C   0  0  0  0  0  0  0  0  0  0  0  0
   39.5180   24.0530   35.8670 N   0  0  0  0  0  0  0  0  0  0  0  0
   41.1230   22.3040   35.9720 N   0  0  0  0  0  0  0  0  0  0  0  0
   37.1800   25.0500   38.1470 H   0  0  0  0  0  0  0  0  0  0  0  0
   38.2060   23.2370   39.3590 H   0  0  0  0  0  0  0  0  0  0  0  0
   41.9870   21.9940   36.4620 H   0  0  0  0  0  0  0  0  0  0  0  0
   41.1560   21.9920   34.9700 H   0  0  0  0  0  0  0  0  0  0  0  0
   38.1050   26.9490   33.4880 O   0  0  0  0  0  0  0  0  0  0  0  0
   38.7390   26.3460   31.0610 O   0  0  0  0  0  0  0  0  0  0  0  0
   38.2540   25.7490   32.3440 P   0  0  1  0  0  0  0  0  0  0  0  0
   39.5050   24.6530   32.8270 O   0  0  0  0  0  0  0  0  0  0  0  0
   40.3830   25.0540   32.6140 H   0  0  0  0  0  0  0  0  0  0  0  0
   36.7920   24.9300   32.2100 O   0  0  0  0  0  0  0  0  0  0  0  0
   36.8970   23.5710   32.2990 C   0  0  0  0  0  3  0  0  0  0  0  0
   37.0470   22.8100   31.0350 C   0  0  0  0  0  2  0  0  0  0  0  0
   35.7200   22.7750   31.6940 C   0  0  0  0  0  2  0  0  0  0  0  0
  1  4  1  6  0  0  0
  1  2  1  0  0  0  0
  1  8  1  0  0  0  0
  2  5  1  0  0  0  0
  2  6  1  0  0  0  0
  3  7  1  6  0  0  0
  3  1  1  0  0  0  0
  3  2  1  0  0  0  0
  8  9  1  0  0  0  0
  9 15  1  0  0  0  0
  9 10  2  0  0  0  0
 10 16  1  0  0  0  0
 11 10  1  0  0  0  0
 12 11  2  0  0  0  0
 13  8  2  0  0  0  0
 13 12  1  0  0  0  0
 14 17  1  0  0  0  0
 14 12  1  0  0  0  0
 18 14  1  0  0  0  0
 19  3  1  0  0  0  0
 21 20  2  6  0  0  0
 21 22  1  0  0  0  0
 21 19  1  0  0  0  0
 23 22  1  0  0  0  0
 24 25  1  0  0  0  0
 24 21  1  0  0  0  0
 26 27  1  0  0  0  0
 26 25  1  0  0  0  0
 27 25  1  0  0  0  0
M  END
>  <minimizedAffinity>
-4.28268862

$$$$
