
 OpenBabel03272510303D

 22 24  0  0  0  0  0  0  0  0999 V2000
   36.9100   31.2180   49.3450 C   0  0  0  0  0  0  0  0  0  0  0  0
   37.1670   32.4540   49.9430 C   0  0  0  0  0  0  0  0  0  0  0  0
   38.1180   33.2360   49.3250 C   0  0  0  0  0  0  0  0  0  0  0  0
   38.7450   32.7810   48.1930 N   0  0  0  0  0  0  0  0  0  0  0  0
   38.4560   31.5600   47.6460 C   0  0  0  0  0  0  0  0  0  0  0  0
   37.5140   30.7600   48.2420 N   0  0  0  0  0  0  0  0  0  0  0  0
   36.6480   32.7700   50.8360 H   0  0  0  0  0  0  0  0  0  0  0  0
   38.3860   34.2100   49.7140 H   0  0  0  0  0  0  0  0  0  0  0  0
   35.8520   30.3510   49.9780 C   0  0  0  0  0  0  0  0  0  0  0  0
   35.8180   28.9190   49.8370 C   0  0  0  0  0  0  0  0  0  0  0  0
   36.4020   29.4820   51.1210 C   0  0  0  0  0  0  0  0  0  0  0  0
   34.9150   30.9230   50.2540 H   0  0  0  0  0  0  0  0  0  0  0  0
   34.8230   28.4230   49.8930 H   0  0  0  0  0  0  0  0  0  0  0  0
   36.5350   28.3750   49.1910 H   0  0  0  0  0  0  0  0  0  0  0  0
   35.7710   29.3870   52.0350 H   0  0  0  0  0  0  0  0  0  0  0  0
   37.4820   29.4640   51.2970 H   0  0  0  0  0  0  0  0  0  0  0  0
   39.1030   31.0560   46.4270 C   0  0  0  0  0  0  0  0  0  0  0  0
   39.6200   30.0890   46.5970 H   0  0  0  0  0  0  0  0  0  0  0  0
   38.3260   30.8510   45.6610 H   0  0  0  0  0  0  0  0  0  0  0  0
   40.0420   32.0920   45.8540 C   0  0  0  0  0  3  0  0  0  0  0  0
   40.6700   31.9200   44.5330 C   0  0  0  0  0  2  0  0  0  0  0  0
   39.5970   32.9980   44.7850 C   0  0  0  0  0  2  0  0  0  0  0  0
  1  2  1  0  0  0  0
  1  9  1  0  0  0  0
  2  7  1  0  0  0  0
  3  8  1  0  0  0  0
  3  2  2  0  0  0  0
  4  3  1  0  0  0  0
  5  4  2  0  0  0  0
  5  6  1  0  0  0  0
  6  1  2  0  0  0  0
  9 12  1  0  0  0  0
  9 11  1  0  0  0  0
 10 13  1  0  0  0  0
 10  9  1  0  0  0  0
 10 11  1  0  0  0  0
 11 16  1  0  0  0  0
 11 15  1  0  0  0  0
 14 10  1  0  0  0  0
 17 18  1  0  0  0  0
 17  5  1  0  0  0  0
 19 17  1  0  0  0  0
 20 17  1  0  0  0  0
 21 22  1  0  0  0  0
 21 20  1  0  0  0  0
 22 20  1  0  0  0  0
M  END
>  <minimizedAffinity>
-5.14092112

>  <minimizedRMSD>
1.61335289

$$$$
