
 OpenBabel03272509593D

 40 43  0  0  0  0  0  0  0  0999 V2000
   36.8840   26.8890   33.5560 O   0  0  0  0  0  0  0  0  0  0  0  0
   36.2740   29.9360   31.7020 C   0  0  0  0  0  0  0  0  0  0  0  0
   35.6420   30.7060   32.7060 C   0  0  0  0  0  0  0  0  0  0  0  0
   35.4670   30.1320   33.9540 C   0  0  0  0  0  0  0  0  0  0  0  0
   35.9290   28.8470   34.1000 N   0  0  0  0  0  0  0  0  0  0  0  0
   36.5200   28.1390   33.1430 C   0  0  0  0  0  0  0  0  0  0  0  0
   36.6910   28.7010   31.9270 N   0  0  0  0  0  0  0  0  0  0  0  0
   36.4000   30.4080   30.7340 H   0  0  0  0  0  0  0  0  0  0  0  0
   35.2840   31.7140   32.5770 H   0  0  0  0  0  0  0  0  0  0  0  0
   36.6760   31.9230   35.8810 F   0  0  0  0  0  0  0  0  0  0  0  0
   35.4020   31.6040   36.0010 C   0  0  0  0  0  0  0  0  0  0  0  0
   34.8450   30.7640   35.0950 C   0  0  0  0  0  0  0  0  0  0  0  0
   33.4980   30.4890   35.3100 C   0  0  0  0  0  0  0  0  0  0  0  0
   32.7990   31.0350   36.3650 C   0  0  0  0  0  0  0  0  0  0  0  0
   33.4040   31.8790   37.2590 C   0  0  0  0  0  0  0  0  0  0  0  0
   34.7210   32.1610   37.0650 C   0  0  0  0  0  0  0  0  0  0  0  0
   32.9210   29.8360   34.6670 H   0  0  0  0  0  0  0  0  0  0  0  0
   31.7490   30.8120   36.5220 H   0  0  0  0  0  0  0  0  0  0  0  0
   32.8740   32.3250   38.1020 H   0  0  0  0  0  0  0  0  0  0  0  0
   35.2070   32.8250   37.7630 H   0  0  0  0  0  0  0  0  0  0  0  0
   37.2120   26.6800   34.9190 C   0  0  0  0  0  0  0  0  0  0  0  0
   37.1030   27.6340   35.4500 H   0  0  0  0  0  0  0  0  0  0  0  0
   36.5540   25.8650   35.3090 H   0  0  0  0  0  0  0  0  0  0  0  0
   38.6320   26.2090   35.0660 C   0  0  0  0  0  0  0  0  0  0  0  0
   39.0730   25.8930   34.0890 H   0  0  0  0  0  0  0  0  0  0  0  0
   39.2560   27.0360   35.4150 H   0  0  0  0  0  0  0  0  0  0  0  0
   38.7390   25.0640   36.0230 C   0  0  0  0  0  0  0  0  0  0  0  0
   37.9530   25.1030   37.1570 C   0  0  0  0  0  0  0  0  0  0  0  0
   37.9740   24.1070   38.0980 C   0  0  0  0  0  0  0  0  0  0  0  0
   38.7750   23.0680   37.9180 N   0  0  0  0  0  0  0  0  0  0  0  0
   39.5460   23.0320   36.8040 C   0  0  0  0  0  0  0  0  0  0  0  0
   39.5430   24.0000   35.8660 N   0  0  0  0  0  0  0  0  0  0  0  0
   37.2940   25.9480   37.3140 H   0  0  0  0  0  0  0  0  0  0  0  0
   37.3190   24.2080   38.9750 H   0  0  0  0  0  0  0  0  0  0  0  0
   40.4520   21.8480   36.6110 C   0  0  0  0  0  0  0  0  0  0  0  0
   40.5720   21.6430   35.5180 H   0  0  0  0  0  0  0  0  0  0  0  0
   40.0010   20.9420   37.0960 H   0  0  0  0  0  0  0  0  0  0  0  0
   41.7960   22.0670   37.2220 C   0  0  0  0  0  3  0  0  0  0  0  0
   42.8940   21.1820   36.5930 C   0  0  0  0  0  2  0  0  0  0  0  0
   42.9250   22.6760   36.5070 C   0  0  0  0  0  2  0  0  0  0  0  0
  1 21  1  0  0  0  0
  2  7  2  0  0  0  0
  2  3  1  0  0  0  0
  3  4  2  0  0  0  0
  4  5  1  0  0  0  0
  4 12  1  0  0  0  0
  6  1  1  0  0  0  0
  6  5  2  0  0  0  0
  7  6  1  0  0  0  0
  8  2  1  0  0  0  0
  9  3  1  0  0  0  0
 10 11  1  0  0  0  0
 11 16  1  0  0  0  0
 12 13  1  0  0  0  0
 12 11  2  0  0  0  0
 13 14  2  0  0  0  0
 14 18  1  0  0  0  0
 14 15  1  0  0  0  0
 15 19  1  0  0  0  0
 16 15  2  0  0  0  0
 16 20  1  0  0  0  0
 17 13  1  0  0  0  0
 21 24  1  0  0  0  0
 21 23  1  0  0  0  0
 21 22  1  0  0  0  0
 24 26  1  0  0  0  0
 24 27  1  0  0  0  0
 25 24  1  0  0  0  0
 27 28  1  0  0  0  0
 28 33  1  0  0  0  0
 28 29  2  0  0  0  0
 29 34  1  0  0  0  0
 30 29  1  0  0  0  0
 31 30  2  0  0  0  0
 32 27  2  0  0  0  0
 32 31  1  0  0  0  0
 35 31  1  0  0  0  0
 35 37  1  0  0  0  0
 35 38  1  0  0  0  0
 36 35  1  0  0  0  0
 39 38  1  0  0  0  0
 40 39  1  0  0  0  0
 40 38  1  0  0  0  0
M  END
>  <minimizedAffinity>
-6.16529846

$$$$

 OpenBabel03272509593D

 40 43  0  0  0  0  0  0  0  0999 V2000
   37.0920   26.7750   33.9320 O   0  0  0  0  0  0  0  0  0  0  0  0
   36.2900   29.5960   31.8110 C   0  0  0  0  0  0  0  0  0  0  0  0
   35.6320   30.4230   32.7500 C   0  0  0  0  0  0  0  0  0  0  0  0
   35.5050   29.9610   34.0500 C   0  0  0  0  0  0  0  0  0  0  0  0
   36.0390   28.7230   34.3070 N   0  0  0  0  0  0  0  0  0  0  0  0
   36.6550   27.9600   33.4100 C   0  0  0  0  0  0  0  0  0  0  0  0
   36.7780   28.4120   32.1440 N   0  0  0  0  0  0  0  0  0  0  0  0
   36.3780   29.9790   30.8010 H   0  0  0  0  0  0  0  0  0  0  0  0
   35.2170   31.3930   32.5330 H   0  0  0  0  0  0  0  0  0  0  0  0
   36.6990   31.8260   35.9170 F   0  0  0  0  0  0  0  0  0  0  0  0
   35.4150   31.5390   36.0150 C   0  0  0  0  0  0  0  0  0  0  0  0
   34.8660   30.6660   35.1380 C   0  0  0  0  0  0  0  0  0  0  0  0
   33.5070   30.4300   35.3270 C   0  0  0  0  0  0  0  0  0  0  0  0
   32.7910   31.0450   36.3300 C   0  0  0  0  0  0  0  0  0  0  0  0
   33.3880   31.9220   37.1970 C   0  0  0  0  0  0  0  0  0  0  0  0
   34.7170   32.1650   37.0290 C   0  0  0  0  0  0  0  0  0  0  0  0
   32.9340   29.7570   34.7010 H   0  0  0  0  0  0  0  0  0  0  0  0
   31.7320   30.8530   36.4670 H   0  0  0  0  0  0  0  0  0  0  0  0
   32.8450   32.4220   38.0000 H   0  0  0  0  0  0  0  0  0  0  0  0
   35.1970   32.8550   37.7050 H   0  0  0  0  0  0  0  0  0  0  0  0
   37.4380   26.7120   35.3050 C   0  0  0  0  0  0  0  0  0  0  0  0
   36.7030   27.2950   35.8740 H   0  0  0  0  0  0  0  0  0  0  0  0
   37.4860   25.6340   35.5970 H   0  0  0  0  0  0  0  0  0  0  0  0
   38.8030   27.2950   35.5450 C   0  0  0  0  0  0  0  0  0  0  0  0
   38.9260   28.2920   35.0550 H   0  0  0  0  0  0  0  0  0  0  0  0
   38.9390   27.4760   36.6150 H   0  0  0  0  0  0  0  0  0  0  0  0
   39.8870   26.3900   35.0510 C   0  0  0  0  0  0  0  0  0  0  0  0
   40.8550   26.9380   34.2330 C   0  0  0  0  0  0  0  0  0  0  0  0
   41.8900   26.1980   33.7260 C   0  0  0  0  0  0  0  0  0  0  0  0
   41.9720   24.9110   34.0290 N   0  0  0  0  0  0  0  0  0  0  0  0
   41.0200   24.3760   34.8330 C   0  0  0  0  0  0  0  0  0  0  0  0
   39.9920   25.0830   35.3420 N   0  0  0  0  0  0  0  0  0  0  0  0
   40.7980   27.9890   33.9790 H   0  0  0  0  0  0  0  0  0  0  0  0
   42.6230   26.7040   33.0810 H   0  0  0  0  0  0  0  0  0  0  0  0
   41.1230   22.9140   35.1690 C   0  0  0  0  0  0  0  0  0  0  0  0
   41.7420   22.3960   34.3950 H   0  0  0  0  0  0  0  0  0  0  0  0
   40.1010   22.4530   35.1770 H   0  0  0  0  0  0  0  0  0  0  0  0
   41.7300   22.6920   36.5150 C   0  0  0  0  0  3  0  0  0  0  0  0
   40.7580   22.0190   37.5080 C   0  0  0  0  0  2  0  0  0  0  0  0
   42.0270   21.3620   37.0640 C   0  0  0  0  0  2  0  0  0  0  0  0
  1 21  1  0  0  0  0
  2  7  2  0  0  0  0
  2  3  1  0  0  0  0
  3  4  2  0  0  0  0
  4  5  1  0  0  0  0
  4 12  1  0  0  0  0
  6  1  1  0  0  0  0
  6  5  2  0  0  0  0
  7  6  1  0  0  0  0
  8  2  1  0  0  0  0
  9  3  1  0  0  0  0
 10 11  1  0  0  0  0
 11 16  1  0  0  0  0
 12 13  1  0  0  0  0
 12 11  2  0  0  0  0
 13 14  2  0  0  0  0
 14 18  1  0  0  0  0
 14 15  1  0  0  0  0
 15 19  1  0  0  0  0
 16 15  2  0  0  0  0
 16 20  1  0  0  0  0
 17 13  1  0  0  0  0
 21 24  1  0  0  0  0
 21 23  1  0  0  0  0
 21 22  1  0  0  0  0
 24 26  1  0  0  0  0
 25 24  1  0  0  0  0
 27 32  1  0  0  0  0
 27 24  1  0  0  0  0
 28 27  2  0  0  0  0
 29 30  2  0  0  0  0
 29 28  1  0  0  0  0
 30 31  1  0  0  0  0
 31 35  1  0  0  0  0
 31 32  2  0  0  0  0
 33 28  1  0  0  0  0
 34 29  1  0  0  0  0
 35 37  1  0  0  0  0
 35 38  1  0  0  0  0
 36 35  1  0  0  0  0
 38 40  1  0  0  0  0
 38 39  1  0  0  0  0
 40 39  1  0  0  0  0
M  END
>  <minimizedAffinity>
-6.03359652

$$$$

 OpenBabel03272509593D

 40 43  0  0  0  0  0  0  0  0999 V2000
   36.8460   26.8780   33.4980 O   0  0  0  0  0  0  0  0  0  0  0  0
   36.3420   29.9760   31.6980 C   0  0  0  0  0  0  0  0  0  0  0  0
   35.7040   30.7380   32.7040 C   0  0  0  0  0  0  0  0  0  0  0  0
   35.4890   30.1410   33.9350 C   0  0  0  0  0  0  0  0  0  0  0  0
   35.9210   28.8450   34.0630 N   0  0  0  0  0  0  0  0  0  0  0  0
   36.5180   28.1440   33.1040 C   0  0  0  0  0  0  0  0  0  0  0  0
   36.7280   28.7280   31.9050 N   0  0  0  0  0  0  0  0  0  0  0  0
   36.5000   30.4650   30.7440 H   0  0  0  0  0  0  0  0  0  0  0  0
   35.3700   31.7560   32.5890 H   0  0  0  0  0  0  0  0  0  0  0  0
   36.6850   31.8880   35.9110 F   0  0  0  0  0  0  0  0  0  0  0  0
   35.4060   31.5810   36.0040 C   0  0  0  0  0  0  0  0  0  0  0  0
   34.8550   30.7630   35.0760 C   0  0  0  0  0  0  0  0  0  0  0  0
   33.5010   30.4990   35.2640 C   0  0  0  0  0  0  0  0  0  0  0  0
   32.7910   31.0370   36.3150 C   0  0  0  0  0  0  0  0  0  0  0  0
   33.3900   31.8600   37.2320 C   0  0  0  0  0  0  0  0  0  0  0  0
   34.7140   32.1290   37.0660 C   0  0  0  0  0  0  0  0  0  0  0  0
   32.9280   29.8640   34.6010 H   0  0  0  0  0  0  0  0  0  0  0  0
   31.7360   30.8240   36.4510 H   0  0  0  0  0  0  0  0  0  0  0  0
   32.8510   32.2980   38.0730 H   0  0  0  0  0  0  0  0  0  0  0  0
   35.1940   32.7760   37.7820 H   0  0  0  0  0  0  0  0  0  0  0  0
   38.1440   26.3830   33.2180 C   0  0  0  0  0  0  0  0  0  0  0  0
   38.0500   25.5420   32.5190 H   0  0  0  0  0  0  0  0  0  0  0  0
   38.7590   27.2320   32.8260 H   0  0  0  0  0  0  0  0  0  0  0  0
   38.8180   25.8930   34.4700 C   0  0  0  0  0  0  0  0  0  0  0  0
   39.9320   25.9320   34.3900 H   0  0  0  0  0  0  0  0  0  0  0  0
   38.5610   26.5530   35.3030 H   0  0  0  0  0  0  0  0  0  0  0  0
   38.4170   24.4910   34.8020 C   0  0  0  0  0  0  0  0  0  0  0  0
   38.4400   24.1160   36.1310 C   0  0  0  0  0  0  0  0  0  0  0  0
   38.0930   22.8570   36.5430 C   0  0  0  0  0  0  0  0  0  0  0  0
   37.7190   21.9630   35.6400 N   0  0  0  0  0  0  0  0  0  0  0  0
   37.6970   22.3330   34.3360 C   0  0  0  0  0  0  0  0  0  0  0  0
   38.0350   23.5650   33.9070 N   0  0  0  0  0  0  0  0  0  0  0  0
   38.7450   24.8390   36.8770 H   0  0  0  0  0  0  0  0  0  0  0  0
   38.1370   22.6330   37.6190 H   0  0  0  0  0  0  0  0  0  0  0  0
   37.2710   21.3100   33.3200 C   0  0  0  0  0  0  0  0  0  0  0  0
   38.0220   20.4810   33.2880 H   0  0  0  0  0  0  0  0  0  0  0  0
   37.2180   21.7820   32.3050 H   0  0  0  0  0  0  0  0  0  0  0  0
   35.9250   20.7430   33.6280 C   0  0  0  0  0  3  0  0  0  0  0  0
   34.9650   20.7860   32.4200 C   0  0  0  0  0  2  0  0  0  0  0  0
   35.4120   19.4990   33.0400 C   0  0  0  0  0  2  0  0  0  0  0  0
  2  7  2  0  0  0  0
  2  3  1  0  0  0  0
  3  4  2  0  0  0  0
  4  5  1  0  0  0  0
  4 12  1  0  0  0  0
  6  1  1  0  0  0  0
  6  5  2  0  0  0  0
  7  6  1  0  0  0  0
  8  2  1  0  0  0  0
  9  3  1  0  0  0  0
 10 11  1  0  0  0  0
 11 16  1  0  0  0  0
 12 13  1  0  0  0  0
 12 11  2  0  0  0  0
 13 14  2  0  0  0  0
 14 18  1  0  0  0  0
 14 15  1  0  0  0  0
 15 19  1  0  0  0  0
 16 15  2  0  0  0  0
 16 20  1  0  0  0  0
 17 13  1  0  0  0  0
 21  1  1  0  0  0  0
 21 24  1  0  0  0  0
 22 21  1  0  0  0  0
 23 21  1  0  0  0  0
 24 27  1  0  0  0  0
 24 26  1  0  0  0  0
 25 24  1  0  0  0  0
 27 28  1  0  0  0  0
 28 29  2  0  0  0  0
 28 33  1  0  0  0  0
 29 34  1  0  0  0  0
 30 29  1  0  0  0  0
 31 30  2  0  0  0  0
 32 31  1  0  0  0  0
 32 27  2  0  0  0  0
 35 38  1  0  0  0  0
 35 31  1  0  0  0  0
 36 35  1  0  0  0  0
 37 35  1  0  0  0  0
 39 40  1  0  0  0  0
 39 38  1  0  0  0  0
 40 38  1  0  0  0  0
M  END
>  <minimizedAffinity>
-5.99938774

$$$$

 OpenBabel03272509593D

 40 43  0  0  0  0  0  0  0  0999 V2000
   36.4020   26.6780   32.3850 O   0  0  0  0  0  0  0  0  0  0  0  0
   39.9260   27.1880   33.0280 C   0  0  0  0  0  0  0  0  0  0  0  0
   40.0830   26.3680   34.1690 C   0  0  0  0  0  0  0  0  0  0  0  0
   38.9720   25.6920   34.6450 C   0  0  0  0  0  0  0  0  0  0  0  0
   37.8030   25.8870   33.9520 N   0  0  0  0  0  0  0  0  0  0  0  0
   37.6750   26.6640   32.8810 C   0  0  0  0  0  0  0  0  0  0  0  0
   38.7600   27.3210   32.4180 N   0  0  0  0  0  0  0  0  0  0  0  0
   40.8100   27.7060   32.6750 H   0  0  0  0  0  0  0  0  0  0  0  0
   41.0080   26.2250   34.7030 H   0  0  0  0  0  0  0  0  0  0  0  0
   40.5650   23.3210   35.1190 F   0  0  0  0  0  0  0  0  0  0  0  0
   39.6850   23.7040   36.0230 C   0  0  0  0  0  0  0  0  0  0  0  0
   38.9440   24.8150   35.7930 C   0  0  0  0  0  0  0  0  0  0  0  0
   38.0440   25.1340   36.8060 C   0  0  0  0  0  0  0  0  0  0  0  0
   37.9290   24.3720   37.9480 C   0  0  0  0  0  0  0  0  0  0  0  0
   38.6990   23.2540   38.1390 C   0  0  0  0  0  0  0  0  0  0  0  0
   39.5850   22.9260   37.1590 C   0  0  0  0  0  0  0  0  0  0  0  0
   37.3880   25.9930   36.7600 H   0  0  0  0  0  0  0  0  0  0  0  0
   37.2240   24.6310   38.7310 H   0  0  0  0  0  0  0  0  0  0  0  0
   38.6280   22.6340   39.0330 H   0  0  0  0  0  0  0  0  0  0  0  0
   40.1960   22.0480   37.3000 H   0  0  0  0  0  0  0  0  0  0  0  0
   36.1400   26.0580   31.1380 C   0  0  0  0  0  0  0  0  0  0  0  0
   35.5550   26.7530   30.5220 H   0  0  0  0  0  0  0  0  0  0  0  0
   37.1210   25.7670   30.6870 H   0  0  0  0  0  0  0  0  0  0  0  0
   35.3460   24.7940   31.3200 C   0  0  0  0  0  0  0  0  0  0  0  0
   34.9110   24.7150   32.3460 H   0  0  0  0  0  0  0  0  0  0  0  0
   34.4900   24.8010   30.6390 H   0  0  0  0  0  0  0  0  0  0  0  0
   36.1770   23.5770   31.0650 C   0  0  0  0  0  0  0  0  0  0  0  0
   37.5130   23.7630   30.7730 C   0  0  0  0  0  0  0  0  0  0  0  0
   38.3620   22.7180   30.5230 C   0  0  0  0  0  0  0  0  0  0  0  0
   37.8890   21.4800   30.5620 N   0  0  0  0  0  0  0  0  0  0  0  0
   36.5770   21.3000   30.8490 C   0  0  0  0  0  0  0  0  0  0  0  0
   35.7230   22.3130   31.0970 N   0  0  0  0  0  0  0  0  0  0  0  0
   37.9100   24.7700   30.7390 H   0  0  0  0  0  0  0  0  0  0  0  0
   39.4140   22.9450   30.2980 H   0  0  0  0  0  0  0  0  0  0  0  0
   36.0520   19.8910   30.8900 C   0  0  0  0  0  0  0  0  0  0  0  0
   36.9060   19.1780   31.0010 H   0  0  0  0  0  0  0  0  0  0  0  0
   35.5150   19.6590   29.9340 H   0  0  0  0  0  0  0  0  0  0  0  0
   35.0890   19.6860   32.0120 C   0  0  0  0  0  3  0  0  0  0  0  0
   35.2920   18.3400   32.7400 C   0  0  0  0  0  2  0  0  0  0  0  0
   35.4820   19.6560   33.4270 C   0  0  0  0  0  2  0  0  0  0  0  0
  1  6  1  0  0  0  0
  2  3  1  0  0  0  0
  3  4  2  0  0  0  0
  3  9  1  0  0  0  0
  4 12  1  0  0  0  0
  5  4  1  0  0  0  0
  6  5  2  0  0  0  0
  7  6  1  0  0  0  0
  7  2  2  0  0  0  0
  8  2  1  0  0  0  0
 10 11  1  0  0  0  0
 11 16  1  0  0  0  0
 12 11  2  0  0  0  0
 12 13  1  0  0  0  0
 13 14  2  0  0  0  0
 14 15  1  0  0  0  0
 14 18  1  0  0  0  0
 15 19  1  0  0  0  0
 16 20  1  0  0  0  0
 16 15  2  0  0  0  0
 17 13  1  0  0  0  0
 21 24  1  0  0  0  0
 21  1  1  0  0  0  0
 22 21  1  0  0  0  0
 23 21  1  0  0  0  0
 24 25  1  0  0  0  0
 26 24  1  0  0  0  0
 27 32  1  0  0  0  0
 27 24  1  0  0  0  0
 28 27  2  0  0  0  0
 29 30  2  0  0  0  0
 29 28  1  0  0  0  0
 30 31  1  0  0  0  0
 31 35  1  0  0  0  0
 31 32  2  0  0  0  0
 33 28  1  0  0  0  0
 34 29  1  0  0  0  0
 35 36  1  0  0  0  0
 35 38  1  0  0  0  0
 37 35  1  0  0  0  0
 38 39  1  0  0  0  0
 38 40  1  0  0  0  0
 39 40  1  0  0  0  0
M  END
>  <minimizedAffinity>
-5.99016047

$$$$

 OpenBabel03272509593D

 40 43  0  0  0  0  0  0  0  0999 V2000
   38.6600   25.6440   32.9590 O   0  0  0  0  0  0  0  0  0  0  0  0
   35.4870   25.7830   31.2250 C   0  0  0  0  0  0  0  0  0  0  0  0
   35.2310   24.4000   31.0820 C   0  0  0  0  0  0  0  0  0  0  0  0
   36.1610   23.5080   31.5890 C   0  0  0  0  0  0  0  0  0  0  0  0
   37.2630   24.0620   32.1920 N   0  0  0  0  0  0  0  0  0  0  0  0
   37.4870   25.3660   32.3170 C   0  0  0  0  0  0  0  0  0  0  0  0
   36.5780   26.2340   31.8230 N   0  0  0  0  0  0  0  0  0  0  0  0
   34.7430   26.4600   30.8210 H   0  0  0  0  0  0  0  0  0  0  0  0
   34.3600   23.9800   30.6050 H   0  0  0  0  0  0  0  0  0  0  0  0
   37.9210   21.6550   30.2270 F   0  0  0  0  0  0  0  0  0  0  0  0
   36.8850   21.1930   30.9000 C   0  0  0  0  0  0  0  0  0  0  0  0
   36.0680   22.0670   31.5340 C   0  0  0  0  0  0  0  0  0  0  0  0
   35.0050   21.4800   32.2150 C   0  0  0  0  0  0  0  0  0  0  0  0
   34.8140   20.1160   32.2340 C   0  0  0  0  0  0  0  0  0  0  0  0
   35.6660   19.2680   31.5770 C   0  0  0  0  0  0  0  0  0  0  0  0
   36.7120   19.8230   30.9060 C   0  0  0  0  0  0  0  0  0  0  0  0
   34.2710   22.0540   32.7670 H   0  0  0  0  0  0  0  0  0  0  0  0
   33.9810   19.6700   32.7680 H   0  0  0  0  0  0  0  0  0  0  0  0
   35.5380   18.1840   31.5770 H   0  0  0  0  0  0  0  0  0  0  0  0
   37.3890   19.1640   30.3860 H   0  0  0  0  0  0  0  0  0  0  0  0
   38.7670   26.8400   33.7130 C   0  0  0  0  0  0  0  0  0  0  0  0
   39.2620   27.5970   33.0930 H   0  0  0  0  0  0  0  0  0  0  0  0
   37.7390   27.1280   34.0470 H   0  0  0  0  0  0  0  0  0  0  0  0
   39.5890   26.6240   34.9540 C   0  0  0  0  0  0  0  0  0  0  0  0
   40.6840   26.5930   34.7320 H   0  0  0  0  0  0  0  0  0  0  0  0
   39.4510   27.4700   35.6340 H   0  0  0  0  0  0  0  0  0  0  0  0
   39.2130   25.3560   35.6540 C   0  0  0  0  0  0  0  0  0  0  0  0
   38.0180   25.3350   36.3450 C   0  0  0  0  0  0  0  0  0  0  0  0
   37.5800   24.2270   37.0190 C   0  0  0  0  0  0  0  0  0  0  0  0
   38.3250   23.1310   37.0110 N   0  0  0  0  0  0  0  0  0  0  0  0
   39.4980   23.1540   36.3320 C   0  0  0  0  0  0  0  0  0  0  0  0
   39.9500   24.2330   35.6620 N   0  0  0  0  0  0  0  0  0  0  0  0
   37.4010   26.2260   36.3570 H   0  0  0  0  0  0  0  0  0  0  0  0
   36.6170   24.2870   37.5470 H   0  0  0  0  0  0  0  0  0  0  0  0
   40.3350   21.9050   36.3310 C   0  0  0  0  0  0  0  0  0  0  0  0
   40.6330   21.6560   35.2810 H   0  0  0  0  0  0  0  0  0  0  0  0
   39.7410   21.0490   36.7460 H   0  0  0  0  0  0  0  0  0  0  0  0
   41.5610   22.0530   37.1690 C   0  0  0  0  0  3  0  0  0  0  0  0
   42.4260   20.7750   37.2000 C   0  0  0  0  0  2  0  0  0  0  0  0
   42.9240   22.0630   36.6220 C   0  0  0  0  0  2  0  0  0  0  0  0
  1 21  1  0  0  0  0
  2  7  1  0  0  0  0
  3  2  2  0  0  0  0
  3  4  1  0  0  0  0
  4  5  2  0  0  0  0
  5  6  1  0  0  0  0
  6  1  1  0  0  0  0
  7  6  2  0  0  0  0
  8  2  1  0  0  0  0
  9  3  1  0  0  0  0
 10 11  1  0  0  0  0
 11 16  2  0  0  0  0
 11 12  1  0  0  0  0
 12  4  1  0  0  0  0
 12 13  2  0  0  0  0
 13 14  1  0  0  0  0
 13 17  1  0  0  0  0
 14 18  1  0  0  0  0
 15 19  1  0  0  0  0
 15 14  2  0  0  0  0
 16 15  1  0  0  0  0
 20 16  1  0  0  0  0
 21 23  1  0  0  0  0
 21 24  1  0  0  0  0
 22 21  1  0  0  0  0
 24 26  1  0  0  0  0
 24 27  1  0  0  0  0
 25 24  1  0  0  0  0
 27 32  2  0  0  0  0
 27 28  1  0  0  0  0
 28 33  1  0  0  0  0
 28 29  2  0  0  0  0
 29 34  1  0  0  0  0
 30 29  1  0  0  0  0
 31 30  2  0  0  0  0
 32 31  1  0  0  0  0
 35 31  1  0  0  0  0
 35 37  1  0  0  0  0
 35 38  1  0  0  0  0
 36 35  1  0  0  0  0
 38 39  1  0  0  0  0
 40 38  1  0  0  0  0
 40 39  1  0  0  0  0
M  END
>  <minimizedAffinity>
-5.94016123

$$$$

 OpenBabel03272509593D

 40 43  0  0  0  0  0  0  0  0999 V2000
   35.9760   22.7760   31.0130 O   0  0  0  0  0  0  0  0  0  0  0  0
   35.1100   26.2890   31.0480 C   0  0  0  0  0  0  0  0  0  0  0  0
   36.1120   26.7740   31.9200 C   0  0  0  0  0  0  0  0  0  0  0  0
   37.0200   25.8670   32.4400 C   0  0  0  0  0  0  0  0  0  0  0  0
   36.8580   24.5600   32.0530 N   0  0  0  0  0  0  0  0  0  0  0  0
   35.9090   24.1220   31.2320 C   0  0  0  0  0  0  0  0  0  0  0  0
   35.0250   25.0090   30.7260 N   0  0  0  0  0  0  0  0  0  0  0  0
   34.4130   27.0190   30.6540 H   0  0  0  0  0  0  0  0  0  0  0  0
   36.2270   27.8050   32.2150 H   0  0  0  0  0  0  0  0  0  0  0  0
   36.9110   26.2070   35.3140 F   0  0  0  0  0  0  0  0  0  0  0  0
   38.0640   26.3400   34.6870 C   0  0  0  0  0  0  0  0  0  0  0  0
   38.1050   26.1800   33.3420 C   0  0  0  0  0  0  0  0  0  0  0  0
   39.3660   26.3430   32.7760 C   0  0  0  0  0  0  0  0  0  0  0  0
   40.4760   26.6410   33.5360 C   0  0  0  0  0  0  0  0  0  0  0  0
   40.3880   26.7960   34.8950 C   0  0  0  0  0  0  0  0  0  0  0  0
   39.1620   26.6410   35.4670 C   0  0  0  0  0  0  0  0  0  0  0  0
   39.5510   26.2430   31.7140 H   0  0  0  0  0  0  0  0  0  0  0  0
   41.4540   26.7660   33.0830 H   0  0  0  0  0  0  0  0  0  0  0  0
   41.2500   27.0330   35.5200 H   0  0  0  0  0  0  0  0  0  0  0  0
   39.0820   26.7600   36.5360 H   0  0  0  0  0  0  0  0  0  0  0  0
   37.2140   22.1090   31.1910 C   0  0  0  0  0  0  0  0  0  0  0  0
   37.6120   21.8490   30.2010 H   0  0  0  0  0  0  0  0  0  0  0  0
   37.8820   22.7780   31.7870 H   0  0  0  0  0  0  0  0  0  0  0  0
   37.0370   20.8430   31.9840 C   0  0  0  0  0  0  0  0  0  0  0  0
   36.1530   20.2520   31.6390 H   0  0  0  0  0  0  0  0  0  0  0  0
   37.9030   20.1930   31.8290 H   0  0  0  0  0  0  0  0  0  0  0  0
   36.8770   21.1220   33.4440 C   0  0  0  0  0  0  0  0  0  0  0  0
   35.8250   20.5150   34.1010 C   0  0  0  0  0  0  0  0  0  0  0  0
   35.5880   20.7030   35.4360 C   0  0  0  0  0  0  0  0  0  0  0  0
   36.3940   21.4940   36.1290 N   0  0  0  0  0  0  0  0  0  0  0  0
   37.4260   22.0890   35.4820 C   0  0  0  0  0  0  0  0  0  0  0  0
   37.6780   21.9200   34.1690 N   0  0  0  0  0  0  0  0  0  0  0  0
   35.1600   19.8660   33.5440 H   0  0  0  0  0  0  0  0  0  0  0  0
   34.7300   20.1850   35.8890 H   0  0  0  0  0  0  0  0  0  0  0  0
   38.3340   22.9850   36.2790 C   0  0  0  0  0  0  0  0  0  0  0  0
   38.5200   23.9290   35.7090 H   0  0  0  0  0  0  0  0  0  0  0  0
   39.3160   22.4730   36.4520 H   0  0  0  0  0  0  0  0  0  0  0  0
   37.7560   23.3200   37.6140 C   0  0  0  0  0  3  0  0  0  0  0  0
   38.8260   23.4250   38.7220 C   0  0  0  0  0  2  0  0  0  0  0  0
   37.9910   24.5950   38.3050 C   0  0  0  0  0  2  0  0  0  0  0  0
  1 21  1  0  0  0  0
  1  6  1  0  0  0  0
  2  3  1  0  0  0  0
  3  9  1  0  0  0  0
  3  4  2  0  0  0  0
  4 12  1  0  0  0  0
  5  4  1  0  0  0  0
  6  5  2  0  0  0  0
  7  2  2  0  0  0  0
  7  6  1  0  0  0  0
  8  2  1  0  0  0  0
 11 10  1  0  0  0  0
 11 16  1  0  0  0  0
 12 11  2  0  0  0  0
 13 12  1  0  0  0  0
 13 14  2  0  0  0  0
 14 15  1  0  0  0  0
 15 16  2  0  0  0  0
 15 19  1  0  0  0  0
 16 20  1  0  0  0  0
 17 13  1  0  0  0  0
 18 14  1  0  0  0  0
 21 23  1  0  0  0  0
 21 24  1  0  0  0  0
 22 21  1  0  0  0  0
 24 27  1  0  0  0  0
 25 24  1  0  0  0  0
 26 24  1  0  0  0  0
 27 28  2  0  0  0  0
 27 32  1  0  0  0  0
 28 29  1  0  0  0  0
 29 34  1  0  0  0  0
 29 30  2  0  0  0  0
 31 30  1  0  0  0  0
 31 35  1  0  0  0  0
 32 31  2  0  0  0  0
 33 28  1  0  0  0  0
 35 37  1  0  0  0  0
 35 38  1  0  0  0  0
 36 35  1  0  0  0  0
 38 40  1  0  0  0  0
 38 39  1  0  0  0  0
 40 39  1  0  0  0  0
M  END
>  <minimizedAffinity>
-5.89244461

$$$$

 OpenBabel03272509593D

 40 43  0  0  0  0  0  0  0  0999 V2000
   36.5630   28.5450   34.7990 O   0  0  0  0  0  0  0  0  0  0  0  0
   37.2340   25.7440   32.6090 C   0  0  0  0  0  0  0  0  0  0  0  0
   37.8120   24.8470   33.5370 C   0  0  0  0  0  0  0  0  0  0  0  0
   37.9330   25.2590   34.8540 C   0  0  0  0  0  0  0  0  0  0  0  0
   37.4750   26.5210   35.1370 N   0  0  0  0  0  0  0  0  0  0  0  0
   36.9350   27.3510   34.2500 C   0  0  0  0  0  0  0  0  0  0  0  0
   36.8170   26.9470   32.9670 N   0  0  0  0  0  0  0  0  0  0  0  0
   37.1490   25.3970   31.5860 H   0  0  0  0  0  0  0  0  0  0  0  0
   38.1670   23.8570   33.3000 H   0  0  0  0  0  0  0  0  0  0  0  0
   40.3700   23.6930   34.8480 F   0  0  0  0  0  0  0  0  0  0  0  0
   39.6340   23.7460   35.9410 C   0  0  0  0  0  0  0  0  0  0  0  0
   38.4950   24.4810   35.9340 C   0  0  0  0  0  0  0  0  0  0  0  0
   37.7900   24.4710   37.1350 C   0  0  0  0  0  0  0  0  0  0  0  0
   38.2290   23.7660   38.2340 C   0  0  0  0  0  0  0  0  0  0  0  0
   39.3870   23.0350   38.1960 C   0  0  0  0  0  0  0  0  0  0  0  0
   40.0910   23.0320   37.0310 C   0  0  0  0  0  0  0  0  0  0  0  0
   36.8640   25.0130   37.2770 H   0  0  0  0  0  0  0  0  0  0  0  0
   37.6700   23.7660   39.1650 H   0  0  0  0  0  0  0  0  0  0  0  0
   39.7570   22.4680   39.0520 H   0  0  0  0  0  0  0  0  0  0  0  0
   41.0040   22.4590   36.9900 H   0  0  0  0  0  0  0  0  0  0  0  0
   35.7240   29.4140   34.0570 C   0  0  0  0  0  0  0  0  0  0  0  0
   36.1660   29.5570   33.0630 H   0  0  0  0  0  0  0  0  0  0  0  0
   34.6990   28.9670   34.0370 H   0  0  0  0  0  0  0  0  0  0  0  0
   35.6060   30.7550   34.7270 C   0  0  0  0  0  0  0  0  0  0  0  0
   36.4380   30.9360   35.4510 H   0  0  0  0  0  0  0  0  0  0  0  0
   35.6940   31.5460   33.9770 H   0  0  0  0  0  0  0  0  0  0  0  0
   34.3070   30.8980   35.4550 C   0  0  0  0  0  0  0  0  0  0  0  0
   34.2960   31.6750   36.5970 C   0  0  0  0  0  0  0  0  0  0  0  0
   33.1610   31.8710   37.3380 C   0  0  0  0  0  0  0  0  0  0  0  0
   32.0310   31.3000   36.9500 N   0  0  0  0  0  0  0  0  0  0  0  0
   32.0440   30.5390   35.8280 C   0  0  0  0  0  0  0  0  0  0  0  0
   33.1490   30.3300   35.0840 N   0  0  0  0  0  0  0  0  0  0  0  0
   35.2150   32.1460   36.9230 H   0  0  0  0  0  0  0  0  0  0  0  0
   33.2310   32.5020   38.2360 H   0  0  0  0  0  0  0  0  0  0  0  0
   30.7550   29.8950   35.3980 C   0  0  0  0  0  0  0  0  0  0  0  0
   30.8280   29.5970   34.3220 H   0  0  0  0  0  0  0  0  0  0  0  0
   29.9110   30.6240   35.5100 H   0  0  0  0  0  0  0  0  0  0  0  0
   30.4290   28.6940   36.2220 C   0  0  0  0  0  3  0  0  0  0  0  0
   30.4760   27.3800   35.4130 C   0  0  0  0  0  2  0  0  0  0  0  0
   31.4040   27.6480   36.5570 C   0  0  0  0  0  2  0  0  0  0  0  0
  2  7  2  0  0  0  0
  2  3  1  0  0  0  0
  3  4  2  0  0  0  0
  4  5  1  0  0  0  0
  4 12  1  0  0  0  0
  6  1  1  0  0  0  0
  6  5  2  0  0  0  0
  7  6  1  0  0  0  0
  8  2  1  0  0  0  0
  9  3  1  0  0  0  0
 10 11  1  0  0  0  0
 11 16  1  0  0  0  0
 12 11  2  0  0  0  0
 12 13  1  0  0  0  0
 13 17  1  0  0  0  0
 13 14  2  0  0  0  0
 14 18  1  0  0  0  0
 15 14  1  0  0  0  0
 15 19  1  0  0  0  0
 16 15  2  0  0  0  0
 20 16  1  0  0  0  0
 21 24  1  0  0  0  0
 21  1  1  0  0  0  0
 22 21  1  0  0  0  0
 23 21  1  0  0  0  0
 24 25  1  0  0  0  0
 24 27  1  0  0  0  0
 26 24  1  0  0  0  0
 27 28  1  0  0  0  0
 28 33  1  0  0  0  0
 28 29  2  0  0  0  0
 29 34  1  0  0  0  0
 30 29  1  0  0  0  0
 31 30  2  0  0  0  0
 32 27  2  0  0  0  0
 32 31  1  0  0  0  0
 35 37  1  0  0  0  0
 35 31  1  0  0  0  0
 35 38  1  0  0  0  0
 36 35  1  0  0  0  0
 38 40  1  0  0  0  0
 39 38  1  0  0  0  0
 39 40  1  0  0  0  0
M  END
>  <minimizedAffinity>
-5.77281141

$$$$

 OpenBabel03272509593D

 40 43  0  0  0  0  0  0  0  0999 V2000
   36.4800   27.1090   32.5770 O   0  0  0  0  0  0  0  0  0  0  0  0
   36.4930   30.5510   31.4580 C   0  0  0  0  0  0  0  0  0  0  0  0
   35.8390   31.1620   32.5530 C   0  0  0  0  0  0  0  0  0  0  0  0
   35.4370   30.3550   33.6050 C   0  0  0  0  0  0  0  0  0  0  0  0
   35.7150   29.0170   33.4820 N   0  0  0  0  0  0  0  0  0  0  0  0
   36.3290   28.4600   32.4430 C   0  0  0  0  0  0  0  0  0  0  0  0
   36.7220   29.2480   31.4200 N   0  0  0  0  0  0  0  0  0  0  0  0
   36.7980   31.2030   30.6490 H   0  0  0  0  0  0  0  0  0  0  0  0
   35.6280   32.2150   32.6370 H   0  0  0  0  0  0  0  0  0  0  0  0
   32.7170   29.7990   34.4300 F   0  0  0  0  0  0  0  0  0  0  0  0
   33.4880   30.5470   35.1950 C   0  0  0  0  0  0  0  0  0  0  0  0
   34.7590   30.8020   34.8010 C   0  0  0  0  0  0  0  0  0  0  0  0
   35.4890   31.6020   35.6760 C   0  0  0  0  0  0  0  0  0  0  0  0
   34.9490   32.0850   36.8480 C   0  0  0  0  0  0  0  0  0  0  0  0
   33.6570   31.8030   37.2070 C   0  0  0  0  0  0  0  0  0  0  0  0
   32.9260   31.0230   36.3630 C   0  0  0  0  0  0  0  0  0  0  0  0
   36.5170   31.8870   35.4930 H   0  0  0  0  0  0  0  0  0  0  0  0
   35.5290   32.7080   37.5220 H   0  0  0  0  0  0  0  0  0  0  0  0
   33.2050   32.1740   38.1270 H   0  0  0  0  0  0  0  0  0  0  0  0
   31.9090   30.7940   36.6370 H   0  0  0  0  0  0  0  0  0  0  0  0
   36.6900   26.3200   31.4190 C   0  0  0  0  0  0  0  0  0  0  0  0
   36.5620   26.9600   30.5360 H   0  0  0  0  0  0  0  0  0  0  0  0
   37.7040   25.8560   31.4990 H   0  0  0  0  0  0  0  0  0  0  0  0
   35.6960   25.1950   31.3440 C   0  0  0  0  0  0  0  0  0  0  0  0
   35.0060   25.1850   32.2230 H   0  0  0  0  0  0  0  0  0  0  0  0
   35.0530   25.3350   30.4700 H   0  0  0  0  0  0  0  0  0  0  0  0
   36.3710   23.8630   31.2590 C   0  0  0  0  0  0  0  0  0  0  0  0
   37.7500   23.8390   31.3290 C   0  0  0  0  0  0  0  0  0  0  0  0
   38.4660   22.6740   31.2610 C   0  0  0  0  0  0  0  0  0  0  0  0
   37.8190   21.5260   31.1240 N   0  0  0  0  0  0  0  0  0  0  0  0
   36.4650   21.5520   31.0560 C   0  0  0  0  0  0  0  0  0  0  0  0
   35.7390   22.6860   31.1200 N   0  0  0  0  0  0  0  0  0  0  0  0
   38.2880   24.7720   31.4410 H   0  0  0  0  0  0  0  0  0  0  0  0
   39.5620   22.7340   31.3240 H   0  0  0  0  0  0  0  0  0  0  0  0
   35.7420   20.2430   30.9010 C   0  0  0  0  0  0  0  0  0  0  0  0
   36.4820   19.4300   30.6940 H   0  0  0  0  0  0  0  0  0  0  0  0
   35.0290   20.3040   30.0380 H   0  0  0  0  0  0  0  0  0  0  0  0
   34.9510   19.8940   32.1180 C   0  0  0  0  0  3  0  0  0  0  0  0
   35.3840   18.5540   32.7500 C   0  0  0  0  0  2  0  0  0  0  0  0
   35.5170   19.8580   33.4730 C   0  0  0  0  0  2  0  0  0  0  0  0
  2  3  1  0  0  0  0
  3  9  1  0  0  0  0
  3  4  2  0  0  0  0
  4 12  1  0  0  0  0
  5  4  1  0  0  0  0
  6  1  1  0  0  0  0
  6  5  2  0  0  0  0
  7  2  2  0  0  0  0
  7  6  1  0  0  0  0
  8  2  1  0  0  0  0
 10 11  1  0  0  0  0
 11 16  1  0  0  0  0
 12 11  2  0  0  0  0
 12 13  1  0  0  0  0
 13 14  2  0  0  0  0
 14 15  1  0  0  0  0
 14 18  1  0  0  0  0
 15 19  1  0  0  0  0
 16 20  1  0  0  0  0
 16 15  2  0  0  0  0
 17 13  1  0  0  0  0
 21 23  1  0  0  0  0
 21  1  1  0  0  0  0
 22 21  1  0  0  0  0
 24 21  1  0  0  0  0
 24 25  1  0  0  0  0
 26 24  1  0  0  0  0
 27 28  1  0  0  0  0
 27 24  1  0  0  0  0
 28 33  1  0  0  0  0
 29 34  1  0  0  0  0
 29 28  2  0  0  0  0
 30 29  1  0  0  0  0
 31 32  1  0  0  0  0
 31 30  2  0  0  0  0
 32 27  2  0  0  0  0
 35 31  1  0  0  0  0
 35 38  1  0  0  0  0
 36 35  1  0  0  0  0
 37 35  1  0  0  0  0
 38 39  1  0  0  0  0
 38 40  1  0  0  0  0
 39 40  1  0  0  0  0
M  END
>  <minimizedAffinity>
-5.77277279

$$$$

 OpenBabel03272509593D

 40 43  0  0  0  0  0  0  0  0999 V2000
   36.9920   21.5260   34.6530 O   0  0  0  0  0  0  0  0  0  0  0  0
   37.6220   23.1280   37.8360 C   0  0  0  0  0  0  0  0  0  0  0  0
   39.0190   23.3180   37.7370 C   0  0  0  0  0  0  0  0  0  0  0  0
   39.6560   22.8860   36.5850 C   0  0  0  0  0  0  0  0  0  0  0  0
   38.8560   22.3040   35.6340 N   0  0  0  0  0  0  0  0  0  0  0  0
   37.5430   22.1330   35.7460 C   0  0  0  0  0  0  0  0  0  0  0  0
   36.9240   22.5550   36.8690 N   0  0  0  0  0  0  0  0  0  0  0  0
   37.1470   23.4760   38.7460 H   0  0  0  0  0  0  0  0  0  0  0  0
   39.6350   23.7780   38.4920 H   0  0  0  0  0  0  0  0  0  0  0  0
   41.8130   21.2660   37.6390 F   0  0  0  0  0  0  0  0  0  0  0  0
   42.0860   22.2440   36.7970 C   0  0  0  0  0  0  0  0  0  0  0  0
   41.0710   22.9970   36.3100 C   0  0  0  0  0  0  0  0  0  0  0  0
   41.4630   24.0030   35.4310 C   0  0  0  0  0  0  0  0  0  0  0  0
   42.7840   24.2030   35.0920 C   0  0  0  0  0  0  0  0  0  0  0  0
   43.7790   23.4170   35.6110 C   0  0  0  0  0  0  0  0  0  0  0  0
   43.4150   22.4280   36.4720 C   0  0  0  0  0  0  0  0  0  0  0  0
   40.7620   24.6810   34.9630 H   0  0  0  0  0  0  0  0  0  0  0  0
   43.0770   24.9910   34.4060 H   0  0  0  0  0  0  0  0  0  0  0  0
   44.8320   23.5550   35.3600 H   0  0  0  0  0  0  0  0  0  0  0  0
   44.1910   21.8040   36.8860 H   0  0  0  0  0  0  0  0  0  0  0  0
   37.6790   21.5780   33.4150 C   0  0  0  0  0  0  0  0  0  0  0  0
   38.4530   22.3530   33.4810 H   0  0  0  0  0  0  0  0  0  0  0  0
   38.0790   20.5560   33.2020 H   0  0  0  0  0  0  0  0  0  0  0  0
   36.7430   21.9280   32.2910 C   0  0  0  0  0  0  0  0  0  0  0  0
   37.0870   21.5100   31.3130 H   0  0  0  0  0  0  0  0  0  0  0  0
   35.7660   21.4730   32.4760 H   0  0  0  0  0  0  0  0  0  0  0  0
   36.5850   23.4080   32.1430 C   0  0  0  0  0  0  0  0  0  0  0  0
   35.5930   23.8640   31.2980 C   0  0  0  0  0  0  0  0  0  0  0  0
   35.3630   25.1980   31.0900 C   0  0  0  0  0  0  0  0  0  0  0  0
   36.1150   26.0880   31.7210 N   0  0  0  0  0  0  0  0  0  0  0  0
   37.0880   25.6370   32.5510 C   0  0  0  0  0  0  0  0  0  0  0  0
   37.3330   24.3300   32.7700 N   0  0  0  0  0  0  0  0  0  0  0  0
   34.9720   23.1450   30.7770 H   0  0  0  0  0  0  0  0  0  0  0  0
   34.5550   25.4840   30.4020 H   0  0  0  0  0  0  0  0  0  0  0  0
   37.9360   26.6560   33.2610 C   0  0  0  0  0  0  0  0  0  0  0  0
   37.3000   27.5260   33.5610 H   0  0  0  0  0  0  0  0  0  0  0  0
   38.7420   27.0240   32.5740 H   0  0  0  0  0  0  0  0  0  0  0  0
   38.5970   26.0870   34.4720 C   0  0  0  0  0  3  0  0  0  0  0  0
   39.2010   27.1700   35.3920 C   0  0  0  0  0  2  0  0  0  0  0  0
   38.0900   26.2720   35.8380 C   0  0  0  0  0  2  0  0  0  0  0  0
  1  6  1  0  0  0  0
  2  8  1  0  0  0  0
  3  2  1  0  0  0  0
  3  9  1  0  0  0  0
  4  3  2  0  0  0  0
  5  6  2  0  0  0  0
  5  4  1  0  0  0  0
  6  7  1  0  0  0  0
  7  2  2  0  0  0  0
 11 10  1  0  0  0  0
 12  4  1  0  0  0  0
 12 11  2  0  0  0  0
 13 12  1  0  0  0  0
 14 13  2  0  0  0  0
 14 15  1  0  0  0  0
 15 16  2  0  0  0  0
 16 11  1  0  0  0  0
 16 20  1  0  0  0  0
 17 13  1  0  0  0  0
 18 14  1  0  0  0  0
 19 15  1  0  0  0  0
 21 22  1  0  0  0  0
 21  1  1  0  0  0  0
 23 21  1  0  0  0  0
 24 26  1  0  0  0  0
 24 21  1  0  0  0  0
 25 24  1  0  0  0  0
 27 24  1  0  0  0  0
 27 32  1  0  0  0  0
 28 27  2  0  0  0  0
 29 28  1  0  0  0  0
 29 30  2  0  0  0  0
 30 31  1  0  0  0  0
 31 32  2  0  0  0  0
 31 35  1  0  0  0  0
 33 28  1  0  0  0  0
 34 29  1  0  0  0  0
 35 36  1  0  0  0  0
 35 38  1  0  0  0  0
 37 35  1  0  0  0  0
 38 39  1  0  0  0  0
 38 40  1  0  0  0  0
 39 40  1  0  0  0  0
M  END
>  <minimizedAffinity>
-5.71085358

$$$$
