
 OpenBabel03272504223D

 33 35  0  0  1  0  0  0  0  0999 V2000
   35.9330   29.8210   46.8500 O   0  0  0  0  0  0  0  0  0  0  0  0
   36.0090   30.2020   48.3020 P   0  0  2  0  0  0  0  0  0  0  0  0
   36.8160   28.9320   49.1350 O   0  0  0  0  0  0  0  0  0  0  0  0
   37.5580   28.6170   48.5530 H   0  0  0  0  0  0  0  0  0  0  0  0
   34.4590   30.3950   48.9560 O   0  0  0  0  0  0  0  0  0  0  0  0
   34.2010   29.2860   49.7350 C   0  0  0  0  0  0  0  0  0  0  0  0
   33.7020   29.6610   50.6650 H   0  0  0  0  0  0  0  0  0  0  0  0
   35.1120   28.7530   50.0510 H   0  0  0  0  0  0  0  0  0  0  0  0
   33.3250   28.2920   49.0750 C   0  0  0  0  0  0  0  0  0  0  0  0
   33.9370   27.3760   48.2540 C   0  0  0  0  0  0  0  0  0  0  0  0
   33.1680   26.4100   47.6020 C   0  0  0  0  0  0  0  0  0  0  0  0
   31.8240   26.4420   47.8270 N   0  0  0  0  0  0  0  0  0  0  0  0
   31.2450   27.3510   48.6350 C   0  0  0  0  0  0  0  0  0  0  0  0
   31.9950   28.2810   49.2630 N   0  0  0  0  0  0  0  0  0  0  0  0
   34.9820   27.2720   48.0180 H   0  0  0  0  0  0  0  0  0  0  0  0
   33.5640   25.6520   46.9400 H   0  0  0  0  0  0  0  0  0  0  0  0
   30.1660   27.3250   48.7740 H   0  0  0  0  0  0  0  0  0  0  0  0
   36.8870   31.6280   48.4640 O   0  0  0  0  0  0  0  0  0  0  0  0
   38.9770   32.4420   47.8520 C   0  0  2  0  0  0  0  0  0  0  0  0
   38.2410   31.4090   48.6630 C   0  0  1  0  0  0  0  0  0  0  0  0
   38.6290   31.9220   50.0600 C   0  0  0  0  0  0  0  0  0  0  0  0
   38.3200   33.2650   49.9500 O   0  0  0  0  0  0  0  0  0  0  0  0
   38.6940   33.6990   48.6940 C   0  0  0  0  0  0  0  0  0  0  0  0
   40.0580   32.2670   47.8490 H   0  0  0  0  0  0  0  0  0  0  0  0
   38.5620   30.3840   48.4860 H   0  0  0  0  0  0  0  0  0  0  0  0
   39.7000   31.7740   50.2180 H   0  0  0  0  0  0  0  0  0  0  0  0
   37.9900   31.4460   50.8320 H   0  0  0  0  0  0  0  0  0  0  0  0
   39.6210   34.2940   48.7930 H   0  0  0  0  0  0  0  0  0  0  0  0
   37.8400   34.2730   48.2700 H   0  0  0  0  0  0  0  0  0  0  0  0
   38.3850   32.5180   46.6030 O   0  0  0  0  0  0  0  0  0  0  0  0
   39.1910   32.1160   45.5710 C   0  0  0  0  0  0  0  0  0  0  0  0
   39.5710   33.2540   44.6110 C   0  0  0  0  0  0  0  0  0  0  0  0
   40.5890   32.5640   45.4260 C   0  0  0  0  0  0  0  0  0  0  0  0
  2  1  2  6  0  0  0
  2 18  1  0  0  0  0
  2  5  1  0  0  0  0
  2  3  1  0  0  0  0
  4  3  1  0  0  0  0
  5  6  1  0  0  0  0
  6  8  1  0  0  0  0
  6  7  1  0  0  0  0
  9 14  1  0  0  0  0
  9  6  1  0  0  0  0
 10  9  2  0  0  0  0
 11 12  2  0  0  0  0
 11 10  1  0  0  0  0
 12 13  1  0  0  0  0
 13 17  1  0  0  0  0
 13 14  2  0  0  0  0
 15 10  1  0  0  0  0
 16 11  1  0  0  0  0
 18 20  1  0  0  0  0
 19 24  1  6  0  0  0
 19 20  1  0  0  0  0
 19 23  1  0  0  0  0
 20 25  1  6  0  0  0
 20 21  1  0  0  0  0
 21 26  1  0  0  0  0
 21 27  1  0  0  0  0
 22 21  1  0  0  0  0
 23 28  1  0  0  0  0
 23 22  1  0  0  0  0
 29 23  1  0  0  0  0
 30 19  1  0  0  0  0
 31 30  1  0  0  0  0
 32 33  1  0  0  0  0
 32 31  1  0  0  0  0
 33 31  1  0  0  0  0
M  END
>  <minimizedAffinity>
-4.32741308

>  <minimizedRMSD>
0.362763673

$$$$
