
 OpenBabel03272508423D

 14 15  0  0  0  0  0  0  0  0999 V2000
   37.3230   30.1590   51.4330 C   0  0  0  0  0  0  0  0  0  0  0  0
   38.1800   30.6340   50.4120 C   0  0  0  0  0  0  0  0  0  0  0  0
   37.7680   30.4680   49.0900 C   0  0  0  0  0  0  0  0  0  0  0  0
   36.5810   29.8660   48.8710 N   0  0  0  0  0  0  0  0  0  0  0  0
   35.7850   29.4230   49.8620 C   0  0  0  0  0  0  0  0  0  0  0  0
   36.1480   29.5650   51.1330 N   0  0  0  0  0  0  0  0  0  0  0  0
   37.6480   30.2910   52.4570 H   0  0  0  0  0  0  0  0  0  0  0  0
   39.1280   31.1130   50.6130 H   0  0  0  0  0  0  0  0  0  0  0  0
   38.3920   30.8160   48.2770 H   0  0  0  0  0  0  0  0  0  0  0  0
   34.5080   28.7760   49.5980 C   0  0  0  0  0  0  0  0  0  0  0  0
   33.4520   29.0520   50.2070 O   0  0  0  0  0  0  0  0  0  0  0  0
   34.3350   27.7100   48.5690 C   0  0  0  0  0  3  0  0  0  0  0  0
   33.8830   28.0690   47.2040 C   0  0  0  0  0  2  0  0  0  0  0  0
   32.9690   27.2800   48.1630 C   0  0  0  0  0  2  0  0  0  0  0  0
  1  7  1  0  0  0  0
  2  8  1  0  0  0  0
  2  1  2  0  0  0  0
  3  2  1  0  0  0  0
  4  3  2  0  0  0  0
  4  5  1  0  0  0  0
  5  6  2  0  0  0  0
  6  1  1  0  0  0  0
  9  3  1  0  0  0  0
 10  5  1  0  0  0  0
 10 11  2  0  0  0  0
 12 10  1  0  0  0  0
 13 14  1  0  0  0  0
 13 12  1  0  0  0  0
 14 12  1  0  0  0  0
M  END
>  <minimizedAffinity>
-3.85541368

>  <minimizedRMSD>
0.921894848

$$$$
