
 OpenBabel03272507163D

 20 22  0  0  1  0  0  0  0  0999 V2000
   36.8910   30.8590   50.6590 C   0  0  1  0  0  0  0  0  0  0  0  0
   36.1780   29.6020   50.6920 C   0  0  2  0  0  0  0  0  0  0  0  0
   37.5410   29.6500   51.3360 C   0  0  0  0  0  0  0  0  0  0  0  0
   36.7110   31.6710   51.4110 H   0  0  0  0  0  0  0  0  0  0  0  0
   35.2980   29.4880   51.3330 H   0  0  0  0  0  0  0  0  0  0  0  0
   38.4040   29.1910   50.8680 H   0  0  0  0  0  0  0  0  0  0  0  0
   37.5240   29.5850   52.4360 H   0  0  0  0  0  0  0  0  0  0  0  0
   37.6610   31.2880   49.4240 C   0  0  0  0  0  0  0  0  0  0  0  0
   38.2090   32.5700   49.4570 C   0  0  0  0  0  0  0  0  0  0  0  0
   38.8880   32.9460   48.3090 C   0  0  0  0  0  0  0  0  0  0  0  0
   38.9970   32.0990   47.2290 N   0  0  0  0  0  0  0  0  0  0  0  0
   38.4350   30.8530   47.2590 C   0  0  0  0  0  0  0  0  0  0  0  0
   37.7610   30.4450   48.3700 N   0  0  0  0  0  0  0  0  0  0  0  0
   38.1070   33.2110   50.3190 H   0  0  0  0  0  0  0  0  0  0  0  0
   39.3440   33.9140   48.2420 H   0  0  0  0  0  0  0  0  0  0  0  0
   38.5050   30.1730   46.4330 H   0  0  0  0  0  0  0  0  0  0  0  0
   36.0750   28.8400   49.5180 O   0  0  0  0  0  0  0  0  0  0  0  0
   34.7100   28.7770   49.2240 C   0  0  0  0  0  0  0  0  0  0  0  0
   34.1360   27.6360   48.4910 C   0  0  0  0  0  0  0  0  0  0  0  0
   34.4500   28.8760   47.7230 C   0  0  0  0  0  0  0  0  0  0  0  0
  1  2  1  0  0  0  0
  1  3  1  0  0  0  0
  1  4  1  1  0  0  0
  2  5  1  1  0  0  0
  2  3  1  0  0  0  0
  3  7  1  0  0  0  0
  6  3  1  0  0  0  0
  8  9  1  0  0  0  0
  8  1  1  0  0  0  0
  9 14  1  0  0  0  0
 10  9  2  0  0  0  0
 11 12  2  0  0  0  0
 11 10  1  0  0  0  0
 12 13  1  0  0  0  0
 13  8  2  0  0  0  0
 15 10  1  0  0  0  0
 16 12  1  0  0  0  0
 17  2  1  0  0  0  0
 18 17  1  0  0  0  0
 19 18  1  0  0  0  0
 20 19  1  0  0  0  0
 20 18  1  0  0  0  0
M  END
>  <minimizedAffinity>
-4.83332729

>  <minimizedRMSD>
0.589889526

$$$$
