
 OpenBabel03272508573D

 34 37  0  0  1  0  0  0  0  0999 V2000
   38.3910   31.8450   44.5670 C   0  0  0  0  0  0  0  0  0  0  0  0
   37.3080   32.4730   44.4410 O   0  0  0  0  0  0  0  0  0  0  0  0
   38.9110   31.5110   45.8660 N   0  0  0  0  0  0  0  0  0  0  0  0
   39.8830   31.1700   46.0360 H   0  0  0  0  0  0  0  0  0  0  0  0
   39.1570   31.4340   43.3830 C   0  0  0  0  0  0  0  0  0  0  0  0
   40.2330   30.6060   43.5500 C   0  0  0  0  0  0  0  0  0  0  0  0
   40.9510   30.1940   42.4420 C   0  0  0  0  0  0  0  0  0  0  0  0
   40.5350   30.6470   41.2280 C   0  0  0  0  0  0  0  0  0  0  0  0
   39.4490   31.4880   41.0280 C   0  0  0  0  0  0  0  0  0  0  0  0
   38.7890   31.8540   42.1540 N   0  0  0  0  0  0  0  0  0  0  0  0
   40.5840   30.2310   44.5210 H   0  0  0  0  0  0  0  0  0  0  0  0
   41.8080   29.5460   42.4810 H   0  0  0  0  0  0  0  0  0  0  0  0
   41.0640   30.3530   40.3210 H   0  0  0  0  0  0  0  0  0  0  0  0
   39.0710   31.9490   39.6890 C   0  0  0  0  0  0  0  0  0  0  0  0
   39.1480   33.2020   39.4620 O   0  0  0  0  0  0  0  0  0  0  0  0
   38.6310   30.8900   38.7250 C   0  0  0  0  0  3  0  0  0  0  0  0
   37.1370   31.0240   38.3640 C   0  0  0  0  0  2  0  0  0  0  0  0
   37.6060   29.8930   39.1760 C   0  0  0  0  0  2  0  0  0  0  0  0
   38.2850   30.9500   48.2070 C   0  0  2  0  0  0  0  0  0  0  0  0
   38.7000   32.3720   48.2050 C   0  0  0  0  0  0  0  0  0  0  0  0
   38.0250   31.6610   46.9980 C   0  0  1  0  0  0  0  0  0  0  0  0
   39.1540   30.2460   48.2750 H   0  0  0  0  0  0  0  0  0  0  0  0
   38.0520   33.0770   48.7740 H   0  0  0  0  0  0  0  0  0  0  0  0
   39.7550   32.6370   48.1130 H   0  0  0  0  0  0  0  0  0  0  0  0
   36.9850   32.0510   46.7860 H   0  0  0  0  0  0  0  0  0  0  0  0
   34.8390   30.1390   49.2850 C   0  0  0  0  0  0  0  0  0  0  0  0
   35.0620   29.5760   50.5750 C   0  0  0  0  0  0  0  0  0  0  0  0
   36.4210   29.4940   51.0650 C   0  0  0  0  0  0  0  0  0  0  0  0
   37.4400   29.9570   50.2730 N   0  0  0  0  0  0  0  0  0  0  0  0
   37.1420   30.4810   49.0510 C   0  0  0  0  0  0  0  0  0  0  0  0
   35.8600   30.5890   48.5250 N   0  0  0  0  0  0  0  0  0  0  0  0
   33.8070   30.1760   48.9680 H   0  0  0  0  0  0  0  0  0  0  0  0
   34.2400   29.2300   51.1490 H   0  0  0  0  0  0  0  0  0  0  0  0
   36.5790   29.0690   52.0350 H   0  0  0  0  0  0  0  0  0  0  0  0
  1  3  1  0  0  0  0
  2  1  2  0  0  0  0
  3  4  1  0  0  0  0
  3 21  1  0  0  0  0
  5  6  1  0  0  0  0
  5  1  1  0  0  0  0
  6 11  1  0  0  0  0
  7 12  1  0  0  0  0
  7  6  2  0  0  0  0
  8  7  1  0  0  0  0
  9  8  2  0  0  0  0
  9 10  1  0  0  0  0
 10  5  2  0  0  0  0
 13  8  1  0  0  0  0
 14  9  1  0  0  0  0
 15 14  2  0  0  0  0
 16 18  1  0  0  0  0
 16 14  1  0  0  0  0
 17 16  1  0  0  0  0
 17 18  1  0  0  0  0
 19 22  1  6  0  0  0
 19 30  1  0  0  0  0
 20 19  1  0  0  0  0
 20 23  1  0  0  0  0
 21 25  1  6  0  0  0
 21 20  1  0  0  0  0
 21 19  1  0  0  0  0
 24 20  1  0  0  0  0
 26 27  1  0  0  0  0
 27 28  2  0  0  0  0
 27 33  1  0  0  0  0
 28 34  1  0  0  0  0
 29 28  1  0  0  0  0
 30 29  2  0  0  0  0
 31 30  1  0  0  0  0
 31 26  2  0  0  0  0
 32 26  1  0  0  0  0
M  END
>  <minimizedAffinity>
-4.79972219

>  <minimizedRMSD>
0.85843116

$$$$
