
 OpenBabel03272509573D

 40 43  0  0  0  0  0  0  0  0999 V2000
   34.6330   29.3400   49.0310 O   0  0  0  0  0  0  0  0  0  0  0  0
   37.3150   30.1180   51.3320 C   0  0  0  0  0  0  0  0  0  0  0  0
   38.1810   30.8220   50.4630 C   0  0  0  0  0  0  0  0  0  0  0  0
   37.7890   30.9860   49.1440 C   0  0  0  0  0  0  0  0  0  0  0  0
   36.5780   30.4390   48.8010 N   0  0  0  0  0  0  0  0  0  0  0  0
   35.7780   29.7790   49.6320 C   0  0  0  0  0  0  0  0  0  0  0  0
   36.1610   29.6220   50.9170 N   0  0  0  0  0  0  0  0  0  0  0  0
   37.6440   30.0050   52.3580 H   0  0  0  0  0  0  0  0  0  0  0  0
   39.1290   31.2470   50.7470 H   0  0  0  0  0  0  0  0  0  0  0  0
   38.8940   33.6610   49.2300 F   0  0  0  0  0  0  0  0  0  0  0  0
   39.0610   32.9240   48.1500 C   0  0  0  0  0  0  0  0  0  0  0  0
   38.5400   31.6730   48.1190 C   0  0  0  0  0  0  0  0  0  0  0  0
   38.7700   30.9780   46.9350 C   0  0  0  0  0  0  0  0  0  0  0  0
   39.4750   31.5300   45.8880 C   0  0  0  0  0  0  0  0  0  0  0  0
   39.9840   32.8000   45.9630 C   0  0  0  0  0  0  0  0  0  0  0  0
   39.7690   33.4970   47.1120 C   0  0  0  0  0  0  0  0  0  0  0  0
   38.4150   29.9690   46.7670 H   0  0  0  0  0  0  0  0  0  0  0  0
   39.6470   30.9770   44.9700 H   0  0  0  0  0  0  0  0  0  0  0  0
   40.5450   33.2610   45.1490 H   0  0  0  0  0  0  0  0  0  0  0  0
   40.1660   34.4970   47.1820 H   0  0  0  0  0  0  0  0  0  0  0  0
   34.1280   30.0460   47.9110 C   0  0  0  0  0  0  0  0  0  0  0  0
   33.2410   30.6100   48.2280 H   0  0  0  0  0  0  0  0  0  0  0  0
   34.9520   30.6850   47.5070 H   0  0  0  0  0  0  0  0  0  0  0  0
   33.7270   29.1000   46.8120 C   0  0  0  0  0  0  0  0  0  0  0  0
   33.1500   29.6140   46.0050 H   0  0  0  0  0  0  0  0  0  0  0  0
   34.6240   28.7070   46.3250 H   0  0  0  0  0  0  0  0  0  0  0  0
   32.9030   27.9650   47.3320 C   0  0  0  0  0  0  0  0  0  0  0  0
   33.3050   26.6830   47.0130 C   0  0  0  0  0  0  0  0  0  0  0  0
   32.6220   25.5740   47.4370 C   0  0  0  0  0  0  0  0  0  0  0  0
   31.5370   25.7300   48.1810 N   0  0  0  0  0  0  0  0  0  0  0  0
   31.1450   26.9900   48.4930 C   0  0  0  0  0  0  0  0  0  0  0  0
   31.8000   28.0960   48.0860 N   0  0  0  0  0  0  0  0  0  0  0  0
   34.1910   26.5450   46.4060 H   0  0  0  0  0  0  0  0  0  0  0  0
   33.0040   24.5860   47.1420 H   0  0  0  0  0  0  0  0  0  0  0  0
   29.9120   27.1550   49.3370 C   0  0  0  0  0  0  0  0  0  0  0  0
   30.2080   27.3380   50.4000 H   0  0  0  0  0  0  0  0  0  0  0  0
   29.2950   26.2190   49.2960 H   0  0  0  0  0  0  0  0  0  0  0  0
   29.0550   28.2820   48.8620 C   0  0  0  0  0  3  0  0  0  0  0  0
   27.5560   28.0610   49.1530 C   0  0  0  0  0  2  0  0  0  0  0  0
   28.3290   29.1870   49.7620 C   0  0  0  0  0  2  0  0  0  0  0  0
  1  6  1  0  0  0  0
  2  8  1  0  0  0  0
  3  9  1  0  0  0  0
  3  2  2  0  0  0  0
  4  3  1  0  0  0  0
  5  4  2  0  0  0  0
  5  6  1  0  0  0  0
  6  7  2  0  0  0  0
  7  2  1  0  0  0  0
 11 10  1  0  0  0  0
 12 11  1  0  0  0  0
 12  4  1  0  0  0  0
 13 12  2  0  0  0  0
 14 15  2  0  0  0  0
 14 13  1  0  0  0  0
 15 16  1  0  0  0  0
 16 20  1  0  0  0  0
 16 11  2  0  0  0  0
 17 13  1  0  0  0  0
 18 14  1  0  0  0  0
 19 15  1  0  0  0  0
 21 22  1  0  0  0  0
 21  1  1  0  0  0  0
 23 21  1  0  0  0  0
 24 27  1  0  0  0  0
 24 21  1  0  0  0  0
 25 24  1  0  0  0  0
 26 24  1  0  0  0  0
 27 32  1  0  0  0  0
 28 27  2  0  0  0  0
 28 29  1  0  0  0  0
 29 30  2  0  0  0  0
 30 31  1  0  0  0  0
 31 35  1  0  0  0  0
 32 31  2  0  0  0  0
 33 28  1  0  0  0  0
 34 29  1  0  0  0  0
 35 36  1  0  0  0  0
 37 35  1  0  0  0  0
 38 39  1  0  0  0  0
 38 35  1  0  0  0  0
 38 40  1  0  0  0  0
 39 40  1  0  0  0  0
M  END
>  <minimizedAffinity>
-6.34579325

>  <minimizedRMSD>
2.58678508

$$$$
