
 OpenBabel03272504573D

 27 29  0  0  1  0  0  0  0  0999 V2000
   37.0160   31.5360   48.6480 C   0  0  1  0  0  0  0  0  0  0  0  0
   36.2740   30.8590   47.6140 C   0  0  0  0  0  0  0  0  0  0  0  0
   37.2330   30.1010   48.4710 C   0  0  2  0  0  0  0  0  0  0  0  0
   36.5460   31.8120   49.6560 H   0  0  0  0  0  0  0  0  0  0  0  0
   35.2350   31.0940   47.7470 H   0  0  0  0  0  0  0  0  0  0  0  0
   36.5990   31.0440   46.5690 H   0  0  0  0  0  0  0  0  0  0  0  0
   37.9630   29.5990   47.8610 H   0  0  0  0  0  0  0  0  0  0  0  0
   38.1620   32.4470   48.3080 C   0  0  0  0  0  0  0  0  0  0  0  0
   38.5160   33.3860   49.3030 C   0  0  0  0  0  0  0  0  0  0  0  0
   39.5730   34.1980   48.9690 C   0  0  0  0  0  0  0  0  0  0  0  0
   40.1940   34.0690   47.7650 N   0  0  0  0  0  0  0  0  0  0  0  0
   39.8190   33.1520   46.8380 C   0  0  0  0  0  0  0  0  0  0  0  0
   38.7680   32.3260   47.1370 N   0  0  0  0  0  0  0  0  0  0  0  0
   40.4550   32.9950   45.6030 N   0  0  0  0  0  0  0  0  0  0  0  0
   38.0280   33.4940   50.2590 H   0  0  0  0  0  0  0  0  0  0  0  0
   39.8790   34.9320   49.6980 H   0  0  0  0  0  0  0  0  0  0  0  0
   40.7630   33.7810   44.9940 H   0  0  0  0  0  0  0  0  0  0  0  0
   40.6940   32.0820   45.1460 H   0  0  0  0  0  0  0  0  0  0  0  0
   36.6540   29.2790   49.4430 O   0  0  0  0  0  0  0  0  0  0  0  0
   34.6110   27.7390   49.7710 O   0  0  0  0  0  0  0  0  0  0  0  0
   35.0530   28.9930   49.0870 P   0  0  1  0  0  0  0  0  0  0  0  0
   34.0820   30.2470   49.7840 O   0  0  0  0  0  0  0  0  0  0  0  0
   33.9670   30.0650   50.7490 H   0  0  0  0  0  0  0  0  0  0  0  0
   34.8540   28.9720   47.4180 O   0  0  0  0  0  0  0  0  0  0  0  0
   33.6780   28.4210   46.9970 C   0  0  0  0  0  3  0  0  0  0  0  0
   33.7340   27.0750   46.3780 C   0  0  0  0  0  2  0  0  0  0  0  0
   33.5430   28.2300   45.4720 C   0  0  0  0  0  2  0  0  0  0  0  0
  1  4  1  1  0  0  0
  2  5  1  0  0  0  0
  2  3  1  0  0  0  0
  2  1  1  0  0  0  0
  3  7  1  6  0  0  0
  3  1  1  0  0  0  0
  3 19  1  0  0  0  0
  6  2  1  0  0  0  0
  8  1  1  0  0  0  0
  8  9  1  0  0  0  0
  9 15  1  0  0  0  0
 10  9  2  0  0  0  0
 10 16  1  0  0  0  0
 11 10  1  0  0  0  0
 12 13  1  0  0  0  0
 12 11  2  0  0  0  0
 13  8  2  0  0  0  0
 14 12  1  0  0  0  0
 17 14  1  0  0  0  0
 18 14  1  0  0  0  0
 21 19  1  0  0  0  0
 21 20  2  1  0  0  0
 21 22  1  0  0  0  0
 22 23  1  0  0  0  0
 24 21  1  0  0  0  0
 25 24  1  0  0  0  0
 26 25  1  0  0  0  0
 27 26  1  0  0  0  0
 27 25  1  0  0  0  0
M  END
>  <minimizedAffinity>
-4.4479003

>  <minimizedRMSD>
0.379549056

$$$$
