
 OpenBabel03272509453D

 13 14  0  0  0  0  0  0  0  0999 V2000
   38.8860   23.2970   38.4650 C   0  0  0  0  0  0  0  0  0  0  0  0
   39.9640   22.7310   37.7820 C   0  0  0  0  0  0  0  0  0  0  0  0
   40.1310   23.0560   36.4270 C   0  0  0  0  0  0  0  0  0  0  0  0
   39.2240   23.9150   35.8410 N   0  0  0  0  0  0  0  0  0  0  0  0
   38.1890   24.4380   36.5560 C   0  0  0  0  0  0  0  0  0  0  0  0
   38.0330   24.1230   37.8570 N   0  0  0  0  0  0  0  0  0  0  0  0
   38.7690   23.0380   39.5070 H   0  0  0  0  0  0  0  0  0  0  0  0
   40.6910   22.0530   38.2190 H   0  0  0  0  0  0  0  0  0  0  0  0
   40.9400   22.6490   35.8590 H   0  0  0  0  0  0  0  0  0  0  0  0
   37.3970   25.2710   35.7930 O   0  0  0  0  0  0  0  0  0  0  0  0
   38.0320   26.2630   35.0050 C   0  0  0  0  0  3  0  0  0  0  0  0
   38.4950   27.5250   35.6270 C   0  0  0  0  0  2  0  0  0  0  0  0
   37.1980   27.5340   34.8900 C   0  0  0  0  0  2  0  0  0  0  0  0
  1  7  1  0  0  0  0
  2  8  1  0  0  0  0
  2  1  2  0  0  0  0
  3  2  1  0  0  0  0
  4  3  2  0  0  0  0
  4  5  1  0  0  0  0
  5  6  2  0  0  0  0
  6  1  1  0  0  0  0
  9  3  1  0  0  0  0
 10  5  1  0  0  0  0
 11 12  1  0  0  0  0
 11 10  1  0  0  0  0
 13 11  1  0  0  0  0
 13 12  1  0  0  0  0
M  END
>  <minimizedAffinity>
-3.38749433

$$$$

 OpenBabel03272509453D

 13 14  0  0  0  0  0  0  0  0999 V2000
   40.2340   22.9070   36.5770 C   0  0  0  0  0  0  0  0  0  0  0  0
   39.9080   22.7350   37.9250 C   0  0  0  0  0  0  0  0  0  0  0  0
   38.7820   23.4090   38.4220 C   0  0  0  0  0  0  0  0  0  0  0  0
   38.0580   24.2050   37.5590 N   0  0  0  0  0  0  0  0  0  0  0  0
   38.4230   24.3370   36.2520 C   0  0  0  0  0  0  0  0  0  0  0  0
   39.5040   23.6880   35.7790 N   0  0  0  0  0  0  0  0  0  0  0  0
   41.1030   22.3840   36.2080 H   0  0  0  0  0  0  0  0  0  0  0  0
   40.4610   22.1160   38.6240 H   0  0  0  0  0  0  0  0  0  0  0  0
   38.4900   23.3110   39.4460 H   0  0  0  0  0  0  0  0  0  0  0  0
   37.5730   25.1730   35.5570 O   0  0  0  0  0  0  0  0  0  0  0  0
   38.1320   26.2930   34.8920 C   0  0  0  0  0  3  0  0  0  0  0  0
   38.5160   27.5000   35.6590 C   0  0  0  0  0  2  0  0  0  0  0  0
   37.2130   27.5090   34.9320 C   0  0  0  0  0  2  0  0  0  0  0  0
  1  2  1  0  0  0  0
  2  3  2  0  0  0  0
  2  8  1  0  0  0  0
  3  9  1  0  0  0  0
  4  3  1  0  0  0  0
  5  4  2  0  0  0  0
  6  5  1  0  0  0  0
  6  1  2  0  0  0  0
  7  1  1  0  0  0  0
 10  5  1  0  0  0  0
 11 13  1  0  0  0  0
 11 10  1  0  0  0  0
 11 12  1  0  0  0  0
 13 12  1  0  0  0  0
M  END
>  <minimizedAffinity>
-3.33265734

$$$$

 OpenBabel03272509453D

 13 14  0  0  0  0  0  0  0  0999 V2000
   37.7420   27.7800   35.3200 C   0  0  0  0  0  0  0  0  0  0  0  0
   37.1610   27.4890   34.0830 C   0  0  0  0  0  0  0  0  0  0  0  0
   37.2210   26.1650   33.6210 C   0  0  0  0  0  0  0  0  0  0  0  0
   37.8500   25.2220   34.4080 N   0  0  0  0  0  0  0  0  0  0  0  0
   38.4010   25.5630   35.6070 C   0  0  0  0  0  0  0  0  0  0  0  0
   38.3400   26.8350   36.0470 N   0  0  0  0  0  0  0  0  0  0  0  0
   37.6890   28.8020   35.6630 H   0  0  0  0  0  0  0  0  0  0  0  0
   36.6610   28.2110   33.4450 H   0  0  0  0  0  0  0  0  0  0  0  0
   36.7920   25.8900   32.6810 H   0  0  0  0  0  0  0  0  0  0  0  0
   38.9800   24.4820   36.2400 O   0  0  0  0  0  0  0  0  0  0  0  0
   38.1910   23.7380   37.1520 C   0  0  0  0  0  3  0  0  0  0  0  0
   37.9130   24.2730   38.5060 C   0  0  0  0  0  2  0  0  0  0  0  0
   38.9950   23.2560   38.3550 C   0  0  0  0  0  2  0  0  0  0  0  0
  1  7  1  0  0  0  0
  1  6  1  0  0  0  0
  2  1  2  0  0  0  0
  3  2  1  0  0  0  0
  3  4  2  0  0  0  0
  4  5  1  0  0  0  0
  5  6  2  0  0  0  0
  5 10  1  0  0  0  0
  8  2  1  0  0  0  0
  9  3  1  0  0  0  0
 10 11  1  0  0  0  0
 11 13  1  0  0  0  0
 11 12  1  0  0  0  0
 13 12  1  0  0  0  0
M  END
>  <minimizedAffinity>
-3.32998729

$$$$

 OpenBabel03272509453D

 13 14  0  0  0  0  0  0  0  0999 V2000
   35.8260   24.1270   31.3800 C   0  0  0  0  0  0  0  0  0  0  0  0
   35.2040   25.2450   30.8180 C   0  0  0  0  0  0  0  0  0  0  0  0
   35.5660   26.5120   31.2990 C   0  0  0  0  0  0  0  0  0  0  0  0
   36.5140   26.5900   32.2990 N   0  0  0  0  0  0  0  0  0  0  0  0
   37.0880   25.4650   32.8110 C   0  0  0  0  0  0  0  0  0  0  0  0
   36.7380   24.2500   32.3450 N   0  0  0  0  0  0  0  0  0  0  0  0
   35.5380   23.1580   31.0000 H   0  0  0  0  0  0  0  0  0  0  0  0
   34.4560   25.2110   30.0320 H   0  0  0  0  0  0  0  0  0  0  0  0
   35.1200   27.3990   30.9030 H   0  0  0  0  0  0  0  0  0  0  0  0
   38.0090   25.7530   33.7980 O   0  0  0  0  0  0  0  0  0  0  0  0
   37.5510   26.4070   34.9690 C   0  0  0  0  0  3  0  0  0  0  0  0
   38.4490   27.3230   35.7100 C   0  0  0  0  0  2  0  0  0  0  0  0
   38.2810   25.9310   36.2210 C   0  0  0  0  0  2  0  0  0  0  0  0
  1  6  1  0  0  0  0
  2  3  1  0  0  0  0
  2  1  2  0  0  0  0
  3  4  2  0  0  0  0
  4  5  1  0  0  0  0
  5 10  1  0  0  0  0
  6  5  2  0  0  0  0
  7  1  1  0  0  0  0
  8  2  1  0  0  0  0
  9  3  1  0  0  0  0
 10 11  1  0  0  0  0
 11 12  1  0  0  0  0
 11 13  1  0  0  0  0
 12 13  1  0  0  0  0
M  END
>  <minimizedAffinity>
-3.17194891

$$$$

 OpenBabel03272509453D

 13 14  0  0  0  0  0  0  0  0999 V2000
   38.1130   24.4760   36.5190 C   0  0  0  0  0  0  0  0  0  0  0  0
   37.8860   24.2290   37.8750 C   0  0  0  0  0  0  0  0  0  0  0  0
   38.7720   23.3740   38.5480 C   0  0  0  0  0  0  0  0  0  0  0  0
   39.8190   22.8220   37.8380 N   0  0  0  0  0  0  0  0  0  0  0  0
   39.9920   23.0970   36.5150 C   0  0  0  0  0  0  0  0  0  0  0  0
   39.1390   23.9190   35.8730 N   0  0  0  0  0  0  0  0  0  0  0  0
   37.4230   25.1350   36.0130 H   0  0  0  0  0  0  0  0  0  0  0  0
   37.0710   24.6500   38.4550 H   0  0  0  0  0  0  0  0  0  0  0  0
   38.6420   23.1530   39.5860 H   0  0  0  0  0  0  0  0  0  0  0  0
   41.0920   22.4500   35.9880 O   0  0  0  0  0  0  0  0  0  0  0  0
   42.3000   22.4730   36.7290 C   0  0  0  0  0  3  0  0  0  0  0  0
   43.2650   23.5820   36.5470 C   0  0  0  0  0  2  0  0  0  0  0  0
   43.5270   22.2930   35.8410 C   0  0  0  0  0  2  0  0  0  0  0  0
  1  2  1  0  0  0  0
  2  8  1  0  0  0  0
  2  3  2  0  0  0  0
  3  9  1  0  0  0  0
  4  3  1  0  0  0  0
  5  4  2  0  0  0  0
  6  5  1  0  0  0  0
  6  1  2  0  0  0  0
  7  1  1  0  0  0  0
 10  5  1  0  0  0  0
 10 11  1  0  0  0  0
 12 11  1  0  0  0  0
 13 12  1  0  0  0  0
 13 11  1  0  0  0  0
M  END
>  <minimizedAffinity>
-3.04892659

$$$$

 OpenBabel03272509453D

 13 14  0  0  0  0  0  0  0  0999 V2000
   35.8320   26.9840   31.4160 C   0  0  0  0  0  0  0  0  0  0  0  0
   36.8240   27.0290   32.3990 C   0  0  0  0  0  0  0  0  0  0  0  0
   37.3230   25.8120   32.8890 C   0  0  0  0  0  0  0  0  0  0  0  0
   36.8090   24.6380   32.3780 N   0  0  0  0  0  0  0  0  0  0  0  0
   35.8410   24.6530   31.4200 C   0  0  0  0  0  0  0  0  0  0  0  0
   35.3660   25.8240   30.9520 N   0  0  0  0  0  0  0  0  0  0  0  0
   35.4570   27.9270   31.0490 H   0  0  0  0  0  0  0  0  0  0  0  0
   37.2450   27.9380   32.8170 H   0  0  0  0  0  0  0  0  0  0  0  0
   38.0830   25.7920   33.6410 H   0  0  0  0  0  0  0  0  0  0  0  0
   35.4620   23.3810   31.0410 O   0  0  0  0  0  0  0  0  0  0  0  0
   36.0840   22.2800   31.6800 C   0  0  0  0  0  3  0  0  0  0  0  0
   36.0710   20.9430   31.0410 C   0  0  0  0  0  2  0  0  0  0  0  0
   35.0780   21.2210   32.1190 C   0  0  0  0  0  2  0  0  0  0  0  0
  1  2  1  0  0  0  0
  2  8  1  0  0  0  0
  2  3  2  0  0  0  0
  3  9  1  0  0  0  0
  4  3  1  0  0  0  0
  5  4  2  0  0  0  0
  6  1  2  0  0  0  0
  6  5  1  0  0  0  0
  7  1  1  0  0  0  0
 10  5  1  0  0  0  0
 10 11  1  0  0  0  0
 11 13  1  0  0  0  0
 12 11  1  0  0  0  0
 12 13  1  0  0  0  0
M  END
>  <minimizedAffinity>
-2.98207331

$$$$

 OpenBabel03272509453D

 13 14  0  0  0  0  0  0  0  0999 V2000
   35.6870   25.3600   31.3350 C   0  0  0  0  0  0  0  0  0  0  0  0
   37.0320   25.6440   31.0850 C   0  0  0  0  0  0  0  0  0  0  0  0
   37.9030   24.5660   30.8660 C   0  0  0  0  0  0  0  0  0  0  0  0
   37.3900   23.2860   30.9100 N   0  0  0  0  0  0  0  0  0  0  0  0
   36.0680   23.0680   31.1590 C   0  0  0  0  0  0  0  0  0  0  0  0
   35.2350   24.1060   31.3680 N   0  0  0  0  0  0  0  0  0  0  0  0
   35.0270   26.1990   31.5030 H   0  0  0  0  0  0  0  0  0  0  0  0
   37.4600   26.6410   31.0450 H   0  0  0  0  0  0  0  0  0  0  0  0
   38.9420   24.7300   30.6700 H   0  0  0  0  0  0  0  0  0  0  0  0
   35.7540   21.7240   31.1610 O   0  0  0  0  0  0  0  0  0  0  0  0
   35.0340   21.2070   32.2670 C   0  0  0  0  0  3  0  0  0  0  0  0
   35.6360   20.1590   33.1240 C   0  0  0  0  0  2  0  0  0  0  0  0
   34.6580   19.7410   32.0780 C   0  0  0  0  0  2  0  0  0  0  0  0
  1  6  1  0  0  0  0
  1  7  1  0  0  0  0
  2  1  2  0  0  0  0
  3  4  2  0  0  0  0
  3  2  1  0  0  0  0
  4  5  1  0  0  0  0
  5 10  1  0  0  0  0
  5  6  2  0  0  0  0
  8  2  1  0  0  0  0
  9  3  1  0  0  0  0
 10 11  1  0  0  0  0
 11 12  1  0  0  0  0
 13 11  1  0  0  0  0
 13 12  1  0  0  0  0
M  END
>  <minimizedAffinity>
-2.98200989

$$$$

 OpenBabel03272509453D

 13 14  0  0  0  0  0  0  0  0999 V2000
   37.0510   19.8770   31.0630 C   0  0  0  0  0  0  0  0  0  0  0  0
   36.1370   18.9170   31.5070 C   0  0  0  0  0  0  0  0  0  0  0  0
   34.9310   19.3650   32.0690 C   0  0  0  0  0  0  0  0  0  0  0  0
   34.7110   20.7240   32.1540 N   0  0  0  0  0  0  0  0  0  0  0  0
   35.6380   21.6150   31.7050 C   0  0  0  0  0  0  0  0  0  0  0  0
   36.7940   21.1810   31.1660 N   0  0  0  0  0  0  0  0  0  0  0  0
   37.9740   19.5180   30.6340 H   0  0  0  0  0  0  0  0  0  0  0  0
   36.2870   17.8430   31.4520 H   0  0  0  0  0  0  0  0  0  0  0  0
   34.1990   18.6710   32.4240 H   0  0  0  0  0  0  0  0  0  0  0  0
   35.2310   22.9230   31.8790 O   0  0  0  0  0  0  0  0  0  0  0  0
   35.8680   23.9300   31.1130 C   0  0  0  0  0  3  0  0  0  0  0  0
   36.2180   25.2290   31.7330 C   0  0  0  0  0  2  0  0  0  0  0  0
   34.9780   25.1510   30.9070 C   0  0  0  0  0  2  0  0  0  0  0  0
  1  6  2  0  0  0  0
  1  2  1  0  0  0  0
  2  3  2  0  0  0  0
  3  4  1  0  0  0  0
  3  9  1  0  0  0  0
  5 10  1  0  0  0  0
  5  4  2  0  0  0  0
  6  5  1  0  0  0  0
  7  1  1  0  0  0  0
  8  2  1  0  0  0  0
 11 12  1  0  0  0  0
 11 10  1  0  0  0  0
 13 11  1  0  0  0  0
 13 12  1  0  0  0  0
M  END
>  <minimizedAffinity>
-2.95675397

$$$$

 OpenBabel03272509453D

 13 14  0  0  0  0  0  0  0  0999 V2000
   37.6300   26.5460   33.2330 C   0  0  0  0  0  0  0  0  0  0  0  0
   38.8960   27.0470   32.9190 C   0  0  0  0  0  0  0  0  0  0  0  0
   39.8820   27.0210   33.9180 C   0  0  0  0  0  0  0  0  0  0  0  0
   39.5510   26.5060   35.1540 N   0  0  0  0  0  0  0  0  0  0  0  0
   38.2990   26.0310   35.4050 C   0  0  0  0  0  0  0  0  0  0  0  0
   37.3560   26.0570   34.4430 N   0  0  0  0  0  0  0  0  0  0  0  0
   36.8820   26.5720   32.4550 H   0  0  0  0  0  0  0  0  0  0  0  0
   39.1810   27.4570   31.9560 H   0  0  0  0  0  0  0  0  0  0  0  0
   40.8660   27.3930   33.7290 H   0  0  0  0  0  0  0  0  0  0  0  0
   38.1690   25.5600   36.6960 O   0  0  0  0  0  0  0  0  0  0  0  0
   38.4850   24.2020   36.9480 C   0  0  0  0  0  3  0  0  0  0  0  0
   37.4060   23.2210   37.2080 C   0  0  0  0  0  2  0  0  0  0  0  0
   38.1470   23.7830   38.3750 C   0  0  0  0  0  2  0  0  0  0  0  0
  1  6  1  0  0  0  0
  2  1  2  0  0  0  0
  2  3  1  0  0  0  0
  3  4  2  0  0  0  0
  4  5  1  0  0  0  0
  5 10  1  0  0  0  0
  6  5  2  0  0  0  0
  7  1  1  0  0  0  0
  8  2  1  0  0  0  0
  9  3  1  0  0  0  0
 10 11  1  0  0  0  0
 11 12  1  0  0  0  0
 11 13  1  0  0  0  0
 12 13  1  0  0  0  0
M  END
>  <minimizedAffinity>
-2.92431045

$$$$
