
 OpenBabel03262523303D

 27 30  0  0  0  0  0  0  0  0999 V2000
   36.6680   30.5930   46.0440 C   0  0  0  0  0  0  0  0  0  0  0  0
   37.0520   30.8380   47.3670 C   0  0  0  0  0  0  0  0  0  0  0  0
   38.0760   31.7220   47.6290 C   0  0  0  0  0  0  0  0  0  0  0  0
   38.7000   32.3460   46.5680 C   0  0  0  0  0  0  0  0  0  0  0  0
   39.7140   33.2380   46.5780 N   0  0  0  0  0  0  0  0  0  0  0  0
   39.9780   33.5600   45.3070 C   0  0  0  0  0  0  0  0  0  0  0  0
   39.1640   32.9010   44.4860 N   0  0  0  0  0  0  0  0  0  0  0  0
   38.3500   32.1300   45.2410 C   0  0  0  0  0  0  0  0  0  0  0  0
   37.3190   31.2390   44.9920 C   0  0  0  0  0  0  0  0  0  0  0  0
   35.8800   29.9210   45.7300 H   0  0  0  0  0  0  0  0  0  0  0  0
   38.3720   31.9130   48.6280 H   0  0  0  0  0  0  0  0  0  0  0  0
   40.1860   33.5950   47.4270 H   0  0  0  0  0  0  0  0  0  0  0  0
   40.7660   34.2720   45.0460 H   0  0  0  0  0  0  0  0  0  0  0  0
   37.0380   31.0640   43.9560 H   0  0  0  0  0  0  0  0  0  0  0  0
   35.7890   29.5770   50.6690 C   0  0  0  0  0  0  0  0  0  0  0  0
   36.5400   30.3120   49.7700 C   0  0  0  0  0  0  0  0  0  0  0  0
   36.3220   30.1240   48.3970 C   0  0  0  0  0  0  0  0  0  0  0  0
   35.3690   29.2170   47.9950 N   0  0  0  0  0  0  0  0  0  0  0  0
   34.6650   28.5290   48.9130 C   0  0  0  0  0  0  0  0  0  0  0  0
   34.8550   28.6910   50.2300 N   0  0  0  0  0  0  0  0  0  0  0  0
   35.9720   29.7370   51.7230 H   0  0  0  0  0  0  0  0  0  0  0  0
   37.2850   31.0190   50.0800 H   0  0  0  0  0  0  0  0  0  0  0  0
   33.6680   27.5810   48.4460 C   0  0  0  0  0  0  0  0  0  0  0  0
   33.9620   26.5510   47.8060 O   0  0  0  0  0  0  0  0  0  0  0  0
   32.2150   27.8410   48.7410 C   0  0  0  0  0  0  0  0  0  0  0  0
   31.2900   28.0260   47.5480 C   0  0  0  0  0  0  0  0  0  0  0  0
   31.2150   26.8040   48.3900 C   0  0  0  0  0  0  0  0  0  0  0  0
  1  2  1  0  0  0  0
  2  3  2  0  0  0  0
  2 17  1  0  0  0  0
  3 11  1  0  0  0  0
  4  5  1  0  0  0  0
  4  3  1  0  0  0  0
  5 12  1  0  0  0  0
  6  5  1  0  0  0  0
  7  8  1  0  0  0  0
  7  6  2  0  0  0  0
  8  4  2  0  0  0  0
  9  8  1  0  0  0  0
  9  1  2  0  0  0  0
 10  1  1  0  0  0  0
 13  6  1  0  0  0  0
 14  9  1  0  0  0  0
 15 21  1  0  0  0  0
 16 22  1  0  0  0  0
 16 15  2  0  0  0  0
 17 16  1  0  0  0  0
 18 17  2  0  0  0  0
 18 19  1  0  0  0  0
 19 20  2  0  0  0  0
 20 15  1  0  0  0  0
 23 25  1  0  0  0  0
 23 19  1  0  0  0  0
 24 23  2  0  0  0  0
 26 27  1  0  0  0  0
 26 25  1  0  0  0  0
 27 25  1  0  0  0  0
M  END
>  <minimizedAffinity>
-5.81955051

>  <minimizedRMSD>
1.65374732

$$$$
