
 OpenBabel03272504193D

 21 22  0  0  0  0  0  0  0  0999 V2000
   35.3650   29.7250   50.2370 C   0  0  0  0  0  0  0  0  0  0  0  0
   34.7900   29.8260   51.1960 H   0  0  0  0  0  0  0  0  0  0  0  0
   36.0330   28.8460   50.3780 H   0  0  0  0  0  0  0  0  0  0  0  0
   34.4560   29.3630   49.1220 C   0  0  0  0  0  0  0  0  0  0  0  0
   34.4300   30.1710   47.9950 C   0  0  0  0  0  0  0  0  0  0  0  0
   33.5810   29.8400   46.9460 C   0  0  0  0  0  0  0  0  0  0  0  0
   32.8090   28.7320   47.0720 N   0  0  0  0  0  0  0  0  0  0  0  0
   32.8450   27.9530   48.1790 C   0  0  0  0  0  0  0  0  0  0  0  0
   33.6680   28.2690   49.2040 N   0  0  0  0  0  0  0  0  0  0  0  0
   35.0540   31.0650   47.8940 H   0  0  0  0  0  0  0  0  0  0  0  0
   33.5560   30.4720   46.0550 H   0  0  0  0  0  0  0  0  0  0  0  0
   32.2050   27.0690   48.2360 H   0  0  0  0  0  0  0  0  0  0  0  0
   36.0580   30.9020   49.9970 O   0  0  0  0  0  0  0  0  0  0  0  0
   37.9230   30.0730   48.3420 O   0  0  0  0  0  0  0  0  0  0  0  0
   37.6820   30.4940   49.7630 P   0  0  2  0  0  0  0  0  0  0  0  0
   38.0650   29.1700   50.7640 O   0  0  0  0  0  0  0  0  0  0  0  0
   38.7580   28.5820   50.3700 H   0  0  0  0  0  0  0  0  0  0  0  0
   38.6840   31.8170   50.1220 O   0  0  0  0  0  0  0  0  0  0  0  0
   38.3340   32.8700   49.2960 C   0  0  0  0  0  3  0  0  0  0  0  0
   39.3240   34.0460   49.4050 C   0  0  0  0  0  2  0  0  0  0  0  0
   39.1220   33.2660   48.1120 C   0  0  0  0  0  2  0  0  0  0  0  0
  1  3  1  0  0  0  0
  1  2  1  0  0  0  0
  4  9  1  0  0  0  0
  4  1  1  0  0  0  0
  5  4  2  0  0  0  0
  6  7  2  0  0  0  0
  6  5  1  0  0  0  0
  7  8  1  0  0  0  0
  8 12  1  0  0  0  0
  8  9  2  0  0  0  0
 10  5  1  0  0  0  0
 11  6  1  0  0  0  0
 13  1  1  0  0  0  0
 15 14  2  6  0  0  0
 15 13  1  0  0  0  0
 15 18  1  0  0  0  0
 15 16  1  0  0  0  0
 17 16  1  0  0  0  0
 19 20  1  0  0  0  0
 19 18  1  0  0  0  0
 21 19  1  0  0  0  0
 21 20  1  0  0  0  0
M  END
>  <minimizedAffinity>
-4.45800686

>  <minimizedRMSD>
1.32435739

$$$$
