
 OpenBabel03272508193D

 25 27  0  0  0  0  0  0  0  0999 V2000
   37.1280   27.7040   33.5310 C   0  0  0  0  0  0  0  0  0  0  0  0
   36.1710   28.6930   33.2780 C   0  0  0  0  0  0  0  0  0  0  0  0
   36.2690   29.2070   32.0080 C   0  0  0  0  0  0  0  0  0  0  0  0
   37.1910   28.7910   31.1170 N   0  0  0  0  0  0  0  0  0  0  0  0
   38.0880   27.8500   31.3880 C   0  0  0  0  0  0  0  0  0  0  0  0
   38.0600   27.3010   32.6010 N   0  0  0  0  0  0  0  0  0  0  0  0
   35.5750   29.9810   31.7020 H   0  0  0  0  0  0  0  0  0  0  0  0
   38.8600   27.4300   30.7950 H   0  0  0  0  0  0  0  0  0  0  0  0
   37.0370   27.0040   34.8830 C   0  0  0  0  0  0  0  0  0  0  0  0
   38.0020   26.0590   35.3040 C   0  0  0  0  0  0  0  0  0  0  0  0
   38.2580   27.4840   35.7580 C   0  0  0  0  0  0  0  0  0  0  0  0
   36.0990   27.2150   35.4670 H   0  0  0  0  0  0  0  0  0  0  0  0
   38.6810   25.6350   34.5050 H   0  0  0  0  0  0  0  0  0  0  0  0
   37.7830   25.2780   36.0540 H   0  0  0  0  0  0  0  0  0  0  0  0
   38.0570   27.6230   36.8260 H   0  0  0  0  0  0  0  0  0  0  0  0
   39.0920   27.9580   35.2540 H   0  0  0  0  0  0  0  0  0  0  0  0
   35.2080   29.1280   34.2860 C   0  0  0  0  0  0  0  0  0  0  0  0
   34.1770   28.7910   34.0380 H   0  0  0  0  0  0  0  0  0  0  0  0
   35.4730   28.6300   35.2430 H   0  0  0  0  0  0  0  0  0  0  0  0
   35.1300   30.5900   34.5030 C   0  0  0  0  0  0  0  0  0  0  0  0
   35.2810   31.1110   33.5240 H   0  0  0  0  0  0  0  0  0  0  0  0
   34.0550   30.8190   34.7530 H   0  0  0  0  0  0  0  0  0  0  0  0
   35.9820   31.1290   35.5810 C   0  0  0  0  0  3  0  0  0  0  0  0
   35.2030   32.0650   36.5430 C   0  0  0  0  0  2  0  0  0  0  0  0
   36.3720   32.5420   35.7020 C   0  0  0  0  0  2  0  0  0  0  0  0
  1  9  1  0  0  0  0
  2  1  1  0  0  0  0
  2 17  1  0  0  0  0
  3  2  2  0  0  0  0
  4  5  2  0  0  0  0
  4  3  1  0  0  0  0
  5  6  1  0  0  0  0
  6  1  2  0  0  0  0
  7  3  1  0  0  0  0
  8  5  1  0  0  0  0
  9 10  1  0  0  0  0
  9 12  1  0  0  0  0
  9 11  1  0  0  0  0
 10 11  1  0  0  0  0
 10 14  1  0  0  0  0
 11 15  1  0  0  0  0
 13 10  1  0  0  0  0
 16 11  1  0  0  0  0
 17 20  1  0  0  0  0
 17 19  1  0  0  0  0
 18 17  1  0  0  0  0
 20 22  1  0  0  0  0
 20 23  1  0  0  0  0
 21 20  1  0  0  0  0
 23 25  1  0  0  0  0
 23 24  1  0  0  0  0
 25 24  1  0  0  0  0
M  END
>  <minimizedAffinity>
-4.21859646

$$$$

 OpenBabel03272508193D

 25 27  0  0  0  0  0  0  0  0999 V2000
   39.8370   22.5770   36.6960 C   0  0  0  0  0  0  0  0  0  0  0  0
   38.6990   22.4730   35.8880 C   0  0  0  0  0  0  0  0  0  0  0  0
   37.5540   22.8630   36.5400 C   0  0  0  0  0  0  0  0  0  0  0  0
   37.5480   23.2940   37.8180 N   0  0  0  0  0  0  0  0  0  0  0  0
   38.6470   23.3800   38.5590 C   0  0  0  0  0  0  0  0  0  0  0  0
   39.8000   23.0200   37.9980 N   0  0  0  0  0  0  0  0  0  0  0  0
   36.6100   22.8240   36.0090 H   0  0  0  0  0  0  0  0  0  0  0  0
   38.7900   23.6970   39.5610 H   0  0  0  0  0  0  0  0  0  0  0  0
   41.1720   22.2600   36.0280 C   0  0  0  0  0  0  0  0  0  0  0  0
   42.4080   22.5800   36.6360 C   0  0  0  0  0  0  0  0  0  0  0  0
   41.9050   21.1750   36.9070 C   0  0  0  0  0  0  0  0  0  0  0  0
   41.0960   21.8520   34.9820 H   0  0  0  0  0  0  0  0  0  0  0  0
   42.3780   23.3210   37.4900 H   0  0  0  0  0  0  0  0  0  0  0  0
   43.3370   22.7250   36.0560 H   0  0  0  0  0  0  0  0  0  0  0  0
   42.4730   20.4160   36.3570 H   0  0  0  0  0  0  0  0  0  0  0  0
   41.5610   21.0250   37.9240 H   0  0  0  0  0  0  0  0  0  0  0  0
   38.7530   21.9740   34.5170 C   0  0  0  0  0  0  0  0  0  0  0  0
   39.6130   22.4070   33.9590 H   0  0  0  0  0  0  0  0  0  0  0  0
   38.9360   20.8790   34.5630 H   0  0  0  0  0  0  0  0  0  0  0  0
   37.5490   22.2330   33.6970 C   0  0  0  0  0  0  0  0  0  0  0  0
   36.9030   22.9770   34.2260 H   0  0  0  0  0  0  0  0  0  0  0  0
   37.8970   22.7960   32.7850 H   0  0  0  0  0  0  0  0  0  0  0  0
   36.8050   21.0390   33.2480 C   0  0  0  0  0  3  0  0  0  0  0  0
   35.3910   21.3870   32.7120 C   0  0  0  0  0  2  0  0  0  0  0  0
   35.6140   20.5010   33.9240 C   0  0  0  0  0  2  0  0  0  0  0  0
  1  6  1  0  0  0  0
  2  3  1  0  0  0  0
  2  1  2  0  0  0  0
  3  4  2  0  0  0  0
  4  5  1  0  0  0  0
  5  8  1  0  0  0  0
  6  5  2  0  0  0  0
  7  3  1  0  0  0  0
  9 10  1  0  0  0  0
  9  1  1  0  0  0  0
  9 11  1  0  0  0  0
 10 11  1  0  0  0  0
 10 13  1  0  0  0  0
 11 16  1  0  0  0  0
 12  9  1  0  0  0  0
 14 10  1  0  0  0  0
 15 11  1  0  0  0  0
 17 19  1  0  0  0  0
 17  2  1  0  0  0  0
 18 17  1  0  0  0  0
 20 21  1  0  0  0  0
 20 17  1  0  0  0  0
 22 20  1  0  0  0  0
 23 20  1  0  0  0  0
 23 25  1  0  0  0  0
 24 23  1  0  0  0  0
 24 25  1  0  0  0  0
M  END
>  <minimizedAffinity>
-4.03190947

$$$$

 OpenBabel03272508193D

 25 27  0  0  0  0  0  0  0  0999 V2000
   39.7160   23.1490   36.6370 C   0  0  0  0  0  0  0  0  0  0  0  0
   40.4490   23.6640   35.5610 C   0  0  0  0  0  0  0  0  0  0  0  0
   41.7270   23.1620   35.5080 C   0  0  0  0  0  0  0  0  0  0  0  0
   42.2040   22.2730   36.4020 N   0  0  0  0  0  0  0  0  0  0  0  0
   41.4820   21.8040   37.4140 C   0  0  0  0  0  0  0  0  0  0  0  0
   40.2310   22.2430   37.5350 N   0  0  0  0  0  0  0  0  0  0  0  0
   42.3860   23.4910   34.7130 H   0  0  0  0  0  0  0  0  0  0  0  0
   41.7230   21.1130   38.1810 H   0  0  0  0  0  0  0  0  0  0  0  0
   38.2530   23.5740   36.7230 C   0  0  0  0  0  0  0  0  0  0  0  0
   37.4030   23.1230   37.7590 C   0  0  0  0  0  0  0  0  0  0  0  0
   38.0820   24.4540   38.0200 C   0  0  0  0  0  0  0  0  0  0  0  0
   37.8810   24.1800   35.8510 H   0  0  0  0  0  0  0  0  0  0  0  0
   37.7570   22.2290   38.3550 H   0  0  0  0  0  0  0  0  0  0  0  0
   36.3040   23.0820   37.6520 H   0  0  0  0  0  0  0  0  0  0  0  0
   37.3880   25.2990   37.9380 H   0  0  0  0  0  0  0  0  0  0  0  0
   38.8570   24.4060   38.7760 H   0  0  0  0  0  0  0  0  0  0  0  0
   39.8960   24.6470   34.6340 C   0  0  0  0  0  0  0  0  0  0  0  0
   40.2310   24.4570   33.5900 H   0  0  0  0  0  0  0  0  0  0  0  0
   38.7920   24.5230   34.6290 H   0  0  0  0  0  0  0  0  0  0  0  0
   40.2270   26.0580   34.9300 C   0  0  0  0  0  0  0  0  0  0  0  0
   40.6380   26.1250   35.9680 H   0  0  0  0  0  0  0  0  0  0  0  0
   41.1120   26.3220   34.2840 H   0  0  0  0  0  0  0  0  0  0  0  0
   39.1550   27.0400   34.6710 C   0  0  0  0  0  3  0  0  0  0  0  0
   38.4070   27.4590   35.9640 C   0  0  0  0  0  2  0  0  0  0  0  0
   37.7190   26.7570   34.8080 C   0  0  0  0  0  2  0  0  0  0  0  0
  1  9  1  0  0  0  0
  1  6  1  0  0  0  0
  2  1  2  0  0  0  0
  3  2  1  0  0  0  0
  3  4  2  0  0  0  0
  4  5  1  0  0  0  0
  5  6  2  0  0  0  0
  5  8  1  0  0  0  0
  7  3  1  0  0  0  0
  9 10  1  0  0  0  0
  9 11  1  0  0  0  0
 10 11  1  0  0  0  0
 10 13  1  0  0  0  0
 11 16  1  0  0  0  0
 12  9  1  0  0  0  0
 14 10  1  0  0  0  0
 15 11  1  0  0  0  0
 17 20  1  0  0  0  0
 17  2  1  0  0  0  0
 18 17  1  0  0  0  0
 19 17  1  0  0  0  0
 20 21  1  0  0  0  0
 22 20  1  0  0  0  0
 23 25  1  0  0  0  0
 23 20  1  0  0  0  0
 23 24  1  0  0  0  0
 25 24  1  0  0  0  0
M  END
>  <minimizedAffinity>
-3.93034601

$$$$

 OpenBabel03272508193D

 25 27  0  0  0  0  0  0  0  0999 V2000
   36.5180   26.2920   31.9250 C   0  0  0  0  0  0  0  0  0  0  0  0
   37.1390   25.1060   32.3320 C   0  0  0  0  0  0  0  0  0  0  0  0
   36.4830   23.9870   31.8780 C   0  0  0  0  0  0  0  0  0  0  0  0
   35.3660   24.0460   31.1260 N   0  0  0  0  0  0  0  0  0  0  0  0
   34.7990   25.1890   30.7570 C   0  0  0  0  0  0  0  0  0  0  0  0
   35.3760   26.3210   31.1570 N   0  0  0  0  0  0  0  0  0  0  0  0
   36.8770   23.0100   32.1330 H   0  0  0  0  0  0  0  0  0  0  0  0
   33.9340   25.3830   30.1760 H   0  0  0  0  0  0  0  0  0  0  0  0
   37.2280   27.5900   32.2980 C   0  0  0  0  0  0  0  0  0  0  0  0
   36.6740   28.8580   32.0050 C   0  0  0  0  0  0  0  0  0  0  0  0
   36.3550   28.3210   33.3880 C   0  0  0  0  0  0  0  0  0  0  0  0
   38.2620   27.4620   32.7230 H   0  0  0  0  0  0  0  0  0  0  0  0
   35.8340   28.8830   31.2470 H   0  0  0  0  0  0  0  0  0  0  0  0
   37.2910   29.7680   31.9010 H   0  0  0  0  0  0  0  0  0  0  0  0
   36.9100   28.8440   34.1750 H   0  0  0  0  0  0  0  0  0  0  0  0
   35.3230   28.0130   33.5070 H   0  0  0  0  0  0  0  0  0  0  0  0
   38.3340   25.0940   33.1700 C   0  0  0  0  0  0  0  0  0  0  0  0
   39.0110   24.2510   32.9030 H   0  0  0  0  0  0  0  0  0  0  0  0
   38.9040   26.0240   32.9580 H   0  0  0  0  0  0  0  0  0  0  0  0
   38.0900   24.9910   34.6260 C   0  0  0  0  0  0  0  0  0  0  0  0
   37.0200   25.2400   34.8330 H   0  0  0  0  0  0  0  0  0  0  0  0
   38.1550   23.8970   34.8850 H   0  0  0  0  0  0  0  0  0  0  0  0
   39.0320   25.7290   35.4910 C   0  0  0  0  0  3  0  0  0  0  0  0
   38.3910   26.9920   36.1260 C   0  0  0  0  0  2  0  0  0  0  0  0
   39.5770   27.0590   35.1800 C   0  0  0  0  0  2  0  0  0  0  0  0
  1  9  1  0  0  0  0
  1  2  1  0  0  0  0
  2 17  1  0  0  0  0
  3  7  1  0  0  0  0
  3  2  2  0  0  0  0
  4  3  1  0  0  0  0
  5  4  2  0  0  0  0
  5  6  1  0  0  0  0
  6  1  2  0  0  0  0
  8  5  1  0  0  0  0
  9 12  1  0  0  0  0
  9 11  1  0  0  0  0
 10  9  1  0  0  0  0
 10 11  1  0  0  0  0
 11 16  1  0  0  0  0
 11 15  1  0  0  0  0
 13 10  1  0  0  0  0
 14 10  1  0  0  0  0
 17 20  1  0  0  0  0
 18 17  1  0  0  0  0
 19 17  1  0  0  0  0
 20 21  1  0  0  0  0
 20 22  1  0  0  0  0
 20 23  1  0  0  0  0
 23 24  1  0  0  0  0
 25 23  1  0  0  0  0
 25 24  1  0  0  0  0
M  END
>  <minimizedAffinity>
-3.92869473

$$$$

 OpenBabel03272508193D

 25 27  0  0  0  0  0  0  0  0999 V2000
   38.5140   23.7790   35.8220 C   0  0  0  0  0  0  0  0  0  0  0  0
   38.0660   23.1020   34.6810 C   0  0  0  0  0  0  0  0  0  0  0  0
   38.2950   23.8110   33.5260 C   0  0  0  0  0  0  0  0  0  0  0  0
   38.8880   25.0210   33.5140 N   0  0  0  0  0  0  0  0  0  0  0  0
   39.3010   25.6380   34.6150 C   0  0  0  0  0  0  0  0  0  0  0  0
   39.1150   25.0160   35.7780 N   0  0  0  0  0  0  0  0  0  0  0  0
   37.9890   23.3810   32.5800 H   0  0  0  0  0  0  0  0  0  0  0  0
   39.7760   26.5760   34.7530 H   0  0  0  0  0  0  0  0  0  0  0  0
   38.3920   23.0290   37.1450 C   0  0  0  0  0  0  0  0  0  0  0  0
   39.1970   23.3470   38.2630 C   0  0  0  0  0  0  0  0  0  0  0  0
   37.8490   24.0410   38.2240 C   0  0  0  0  0  0  0  0  0  0  0  0
   37.6960   22.1450   37.1290 H   0  0  0  0  0  0  0  0  0  0  0  0
   40.1160   23.9770   38.0660 H   0  0  0  0  0  0  0  0  0  0  0  0
   39.4150   22.6200   39.0660 H   0  0  0  0  0  0  0  0  0  0  0  0
   37.1470   23.6280   38.9580 H   0  0  0  0  0  0  0  0  0  0  0  0
   37.9110   25.1010   38.0080 H   0  0  0  0  0  0  0  0  0  0  0  0
   37.4050   21.8020   34.7490 C   0  0  0  0  0  0  0  0  0  0  0  0
   38.0730   21.0270   35.1890 H   0  0  0  0  0  0  0  0  0  0  0  0
   36.5450   21.8970   35.4460 H   0  0  0  0  0  0  0  0  0  0  0  0
   36.9290   21.2620   33.4570 C   0  0  0  0  0  0  0  0  0  0  0  0
   37.0990   22.0260   32.6590 H   0  0  0  0  0  0  0  0  0  0  0  0
   37.6390   20.4330   33.1750 H   0  0  0  0  0  0  0  0  0  0  0  0
   35.5570   20.7170   33.4520 C   0  0  0  0  0  3  0  0  0  0  0  0
   35.4950   19.2660   32.9050 C   0  0  0  0  0  2  0  0  0  0  0  0
   34.7840   20.4280   32.2340 C   0  0  0  0  0  2  0  0  0  0  0  0
  1  9  1  0  0  0  0
  2 17  1  0  0  0  0
  2  1  2  0  0  0  0
  3  2  1  0  0  0  0
  4  3  2  0  0  0  0
  4  5  1  0  0  0  0
  5  8  1  0  0  0  0
  5  6  2  0  0  0  0
  6  1  1  0  0  0  0
  7  3  1  0  0  0  0
  9 11  1  0  0  0  0
  9 10  1  0  0  0  0
 10 14  1  0  0  0  0
 11 10  1  0  0  0  0
 11 15  1  0  0  0  0
 12  9  1  0  0  0  0
 13 10  1  0  0  0  0
 16 11  1  0  0  0  0
 17 18  1  0  0  0  0
 17 19  1  0  0  0  0
 20 17  1  0  0  0  0
 21 20  1  0  0  0  0
 22 20  1  0  0  0  0
 23 20  1  0  0  0  0
 24 23  1  0  0  0  0
 25 24  1  0  0  0  0
 25 23  1  0  0  0  0
M  END
>  <minimizedAffinity>
-3.91442609

$$$$

 OpenBabel03272508193D

 25 27  0  0  0  0  0  0  0  0999 V2000
   38.6910   24.1440   36.3040 C   0  0  0  0  0  0  0  0  0  0  0  0
   38.9540   25.3710   35.6840 C   0  0  0  0  0  0  0  0  0  0  0  0
   39.7950   25.2450   34.6040 C   0  0  0  0  0  0  0  0  0  0  0  0
   40.3010   24.0610   34.2030 N   0  0  0  0  0  0  0  0  0  0  0  0
   40.0330   22.9130   34.8160 C   0  0  0  0  0  0  0  0  0  0  0  0
   39.2240   22.9510   35.8730 N   0  0  0  0  0  0  0  0  0  0  0  0
   40.0660   26.1330   34.0460 H   0  0  0  0  0  0  0  0  0  0  0  0
   40.3550   21.9240   34.6130 H   0  0  0  0  0  0  0  0  0  0  0  0
   37.6890   24.1690   37.4540 C   0  0  0  0  0  0  0  0  0  0  0  0
   37.4920   23.0520   38.2990 C   0  0  0  0  0  0  0  0  0  0  0  0
   38.4990   24.0690   38.8030 C   0  0  0  0  0  0  0  0  0  0  0  0
   37.0510   25.0940   37.5100 H   0  0  0  0  0  0  0  0  0  0  0  0
   37.8890   22.0590   37.9310 H   0  0  0  0  0  0  0  0  0  0  0  0
   36.5550   22.8880   38.8600 H   0  0  0  0  0  0  0  0  0  0  0  0
   38.1120   24.6600   39.6400 H   0  0  0  0  0  0  0  0  0  0  0  0
   39.5250   23.7230   38.7570 H   0  0  0  0  0  0  0  0  0  0  0  0
   38.4020   26.6310   36.1720 C   0  0  0  0  0  0  0  0  0  0  0  0
   37.4630   26.4700   36.7480 H   0  0  0  0  0  0  0  0  0  0  0  0
   39.1320   27.0640   36.8900 H   0  0  0  0  0  0  0  0  0  0  0  0
   38.0870   27.6350   35.1310 C   0  0  0  0  0  0  0  0  0  0  0  0
   38.4110   28.6440   35.4900 H   0  0  0  0  0  0  0  0  0  0  0  0
   38.7860   27.4330   34.2700 H   0  0  0  0  0  0  0  0  0  0  0  0
   36.7030   27.6220   34.6190 C   0  0  0  0  0  3  0  0  0  0  0  0
   36.6170   28.0420   33.1270 C   0  0  0  0  0  2  0  0  0  0  0  0
   35.9460   28.8250   34.2410 C   0  0  0  0  0  2  0  0  0  0  0  0
  1  9  1  0  0  0  0
  2 17  1  0  0  0  0
  2  1  2  0  0  0  0
  3  2  1  0  0  0  0
  4  3  2  0  0  0  0
  4  5  1  0  0  0  0
  5  6  2  0  0  0  0
  6  1  1  0  0  0  0
  7  3  1  0  0  0  0
  8  5  1  0  0  0  0
  9 12  1  0  0  0  0
  9 10  1  0  0  0  0
  9 11  1  0  0  0  0
 10 11  1  0  0  0  0
 10 14  1  0  0  0  0
 11 15  1  0  0  0  0
 13 10  1  0  0  0  0
 16 11  1  0  0  0  0
 17 18  1  0  0  0  0
 17 19  1  0  0  0  0
 20 21  1  0  0  0  0
 20 17  1  0  0  0  0
 22 20  1  0  0  0  0
 23 20  1  0  0  0  0
 24 25  1  0  0  0  0
 24 23  1  0  0  0  0
 25 23  1  0  0  0  0
M  END
>  <minimizedAffinity>
-3.89529157

$$$$

 OpenBabel03272508193D

 25 27  0  0  0  0  0  0  0  0999 V2000
   38.1510   24.8600   35.1890 C   0  0  0  0  0  0  0  0  0  0  0  0
   38.1890   23.9630   34.1150 C   0  0  0  0  0  0  0  0  0  0  0  0
   38.0210   22.6590   34.5130 C   0  0  0  0  0  0  0  0  0  0  0  0
   37.8400   22.3030   35.8010 N   0  0  0  0  0  0  0  0  0  0  0  0
   37.8100   23.1790   36.7990 C   0  0  0  0  0  0  0  0  0  0  0  0
   37.9660   24.4660   36.4950 N   0  0  0  0  0  0  0  0  0  0  0  0
   38.0320   21.8770   33.7630 H   0  0  0  0  0  0  0  0  0  0  0  0
   37.6770   23.0440   37.8420 H   0  0  0  0  0  0  0  0  0  0  0  0
   38.2310   26.3420   34.8360 C   0  0  0  0  0  0  0  0  0  0  0  0
   38.4480   27.3350   35.8190 C   0  0  0  0  0  0  0  0  0  0  0  0
   39.7010   26.8290   35.1300 C   0  0  0  0  0  0  0  0  0  0  0  0
   38.0010   26.5890   33.7620 H   0  0  0  0  0  0  0  0  0  0  0  0
   38.2830   27.0300   36.8960 H   0  0  0  0  0  0  0  0  0  0  0  0
   38.1360   28.3860   35.6830 H   0  0  0  0  0  0  0  0  0  0  0  0
   40.1140   27.5610   34.4260 H   0  0  0  0  0  0  0  0  0  0  0  0
   40.3260   26.2110   35.7640 H   0  0  0  0  0  0  0  0  0  0  0  0
   38.4150   24.3970   32.7390 C   0  0  0  0  0  0  0  0  0  0  0  0
   38.7090   25.4690   32.6920 H   0  0  0  0  0  0  0  0  0  0  0  0
   39.2800   23.8230   32.3420 H   0  0  0  0  0  0  0  0  0  0  0  0
   37.2620   24.2370   31.8250 C   0  0  0  0  0  0  0  0  0  0  0  0
   37.6400   24.1590   30.7750 H   0  0  0  0  0  0  0  0  0  0  0  0
   36.8370   23.2120   32.0220 H   0  0  0  0  0  0  0  0  0  0  0  0
   36.1770   25.2260   31.9750 C   0  0  0  0  0  3  0  0  0  0  0  0
   35.0600   25.0500   30.9120 C   0  0  0  0  0  2  0  0  0  0  0  0
   35.9020   26.3080   31.0180 C   0  0  0  0  0  2  0  0  0  0  0  0
  1  6  1  0  0  0  0
  2  3  1  0  0  0  0
  2  1  2  0  0  0  0
  3  4  2  0  0  0  0
  4  5  1  0  0  0  0
  5  8  1  0  0  0  0
  6  5  2  0  0  0  0
  7  3  1  0  0  0  0
  9 11  1  0  0  0  0
  9  1  1  0  0  0  0
  9 10  1  0  0  0  0
 10 13  1  0  0  0  0
 11 16  1  0  0  0  0
 11 10  1  0  0  0  0
 12  9  1  0  0  0  0
 14 10  1  0  0  0  0
 15 11  1  0  0  0  0
 17  2  1  0  0  0  0
 18 17  1  0  0  0  0
 19 17  1  0  0  0  0
 20 23  1  0  0  0  0
 20 22  1  0  0  0  0
 20 17  1  0  0  0  0
 21 20  1  0  0  0  0
 24 25  1  0  0  0  0
 24 23  1  0  0  0  0
 25 23  1  0  0  0  0
M  END
>  <minimizedAffinity>
-3.89165425

$$$$

 OpenBabel03272508193D

 25 27  0  0  0  0  0  0  0  0999 V2000
   38.0960   24.9380   35.5600 C   0  0  0  0  0  0  0  0  0  0  0  0
   38.0640   23.8310   34.7040 C   0  0  0  0  0  0  0  0  0  0  0  0
   38.0030   22.6400   35.3860 C   0  0  0  0  0  0  0  0  0  0  0  0
   37.9780   22.5660   36.7320 N   0  0  0  0  0  0  0  0  0  0  0  0
   38.0120   23.6370   37.5180 C   0  0  0  0  0  0  0  0  0  0  0  0
   38.0720   24.8310   36.9320 N   0  0  0  0  0  0  0  0  0  0  0  0
   37.9720   21.7150   34.8230 H   0  0  0  0  0  0  0  0  0  0  0  0
   37.9990   23.7270   38.5740 H   0  0  0  0  0  0  0  0  0  0  0  0
   38.0660   26.3100   34.8940 C   0  0  0  0  0  0  0  0  0  0  0  0
   38.2460   27.5040   35.6300 C   0  0  0  0  0  0  0  0  0  0  0  0
   39.5090   26.9350   35.0100 C   0  0  0  0  0  0  0  0  0  0  0  0
   37.7860   26.3040   33.8040 H   0  0  0  0  0  0  0  0  0  0  0  0
   38.1360   27.4310   36.7540 H   0  0  0  0  0  0  0  0  0  0  0  0
   37.8610   28.4800   35.2860 H   0  0  0  0  0  0  0  0  0  0  0  0
   39.8490   27.5190   34.1480 H   0  0  0  0  0  0  0  0  0  0  0  0
   40.1930   26.5070   35.7330 H   0  0  0  0  0  0  0  0  0  0  0  0
   38.1190   23.9620   33.2510 C   0  0  0  0  0  0  0  0  0  0  0  0
   37.5050   24.8190   32.8940 H   0  0  0  0  0  0  0  0  0  0  0  0
   39.1690   24.2000   32.9730 H   0  0  0  0  0  0  0  0  0  0  0  0
   37.6690   22.7780   32.4870 C   0  0  0  0  0  0  0  0  0  0  0  0
   38.3720   22.6060   31.6350 H   0  0  0  0  0  0  0  0  0  0  0  0
   37.8450   21.8830   33.1500 H   0  0  0  0  0  0  0  0  0  0  0  0
   36.2510   22.7760   32.0750 C   0  0  0  0  0  3  0  0  0  0  0  0
   35.5010   21.4970   32.5310 C   0  0  0  0  0  2  0  0  0  0  0  0
   35.6800   21.8660   31.0700 C   0  0  0  0  0  2  0  0  0  0  0  0
  1  6  1  0  0  0  0
  2  3  1  0  0  0  0
  2  1  2  0  0  0  0
  3  4  2  0  0  0  0
  4  5  1  0  0  0  0
  5  8  1  0  0  0  0
  6  5  2  0  0  0  0
  7  3  1  0  0  0  0
  9 11  1  0  0  0  0
  9  1  1  0  0  0  0
  9 10  1  0  0  0  0
 10 13  1  0  0  0  0
 11 10  1  0  0  0  0
 11 16  1  0  0  0  0
 12  9  1  0  0  0  0
 14 10  1  0  0  0  0
 15 11  1  0  0  0  0
 17  2  1  0  0  0  0
 18 17  1  0  0  0  0
 19 17  1  0  0  0  0
 20 22  1  0  0  0  0
 20 17  1  0  0  0  0
 21 20  1  0  0  0  0
 23 20  1  0  0  0  0
 23 24  1  0  0  0  0
 25 23  1  0  0  0  0
 25 24  1  0  0  0  0
M  END
>  <minimizedAffinity>
-3.88233471

$$$$

 OpenBabel03272508193D

 25 27  0  0  0  0  0  0  0  0999 V2000
   36.3210   23.9210   31.9180 C   0  0  0  0  0  0  0  0  0  0  0  0
   37.1330   24.8470   32.5840 C   0  0  0  0  0  0  0  0  0  0  0  0
   36.7950   26.1470   32.2930 C   0  0  0  0  0  0  0  0  0  0  0  0
   35.7890   26.4740   31.4580 N   0  0  0  0  0  0  0  0  0  0  0  0
   35.0370   25.5700   30.8400 C   0  0  0  0  0  0  0  0  0  0  0  0
   35.3020   24.2850   31.0690 N   0  0  0  0  0  0  0  0  0  0  0  0
   37.3580   26.9500   32.7540 H   0  0  0  0  0  0  0  0  0  0  0  0
   34.2250   25.6810   30.1670 H   0  0  0  0  0  0  0  0  0  0  0  0
   36.5570   22.4520   32.2530 C   0  0  0  0  0  0  0  0  0  0  0  0
   35.8960   21.4110   31.5610 C   0  0  0  0  0  0  0  0  0  0  0  0
   37.2620   21.7810   31.0120 C   0  0  0  0  0  0  0  0  0  0  0  0
   37.2070   22.2670   33.1530 H   0  0  0  0  0  0  0  0  0  0  0  0
   34.9900   21.7020   30.9490 H   0  0  0  0  0  0  0  0  0  0  0  0
   35.7380   20.4100   32.0000 H   0  0  0  0  0  0  0  0  0  0  0  0
   38.0220   21.0260   31.2430 H   0  0  0  0  0  0  0  0  0  0  0  0
   37.2220   22.2990   30.0610 H   0  0  0  0  0  0  0  0  0  0  0  0
   38.2290   24.4430   33.4590 C   0  0  0  0  0  0  0  0  0  0  0  0
   38.3260   23.3350   33.5080 H   0  0  0  0  0  0  0  0  0  0  0  0
   39.1750   24.8140   33.0100 H   0  0  0  0  0  0  0  0  0  0  0  0
   38.1340   24.9170   34.8580 C   0  0  0  0  0  0  0  0  0  0  0  0
   37.1210   25.3600   35.0230 H   0  0  0  0  0  0  0  0  0  0  0  0
   38.1210   23.9960   35.5080 H   0  0  0  0  0  0  0  0  0  0  0  0
   39.2290   25.7930   35.3180 C   0  0  0  0  0  3  0  0  0  0  0  0
   38.7230   27.1860   35.7790 C   0  0  0  0  0  2  0  0  0  0  0  0
   39.6760   27.0030   34.6120 C   0  0  0  0  0  2  0  0  0  0  0  0
  1  9  1  0  0  0  0
  1  2  1  0  0  0  0
  2 17  1  0  0  0  0
  3  2  2  0  0  0  0
  3  7  1  0  0  0  0
  4  3  1  0  0  0  0
  5  6  1  0  0  0  0
  5  4  2  0  0  0  0
  6  1  2  0  0  0  0
  8  5  1  0  0  0  0
  9 12  1  0  0  0  0
 10 14  1  0  0  0  0
 10  9  1  0  0  0  0
 11 15  1  0  0  0  0
 11 10  1  0  0  0  0
 11  9  1  0  0  0  0
 13 10  1  0  0  0  0
 16 11  1  0  0  0  0
 17 18  1  0  0  0  0
 17 20  1  0  0  0  0
 19 17  1  0  0  0  0
 20 21  1  0  0  0  0
 20 23  1  0  0  0  0
 20 22  1  0  0  0  0
 23 24  1  0  0  0  0
 25 23  1  0  0  0  0
 25 24  1  0  0  0  0
M  END
>  <minimizedAffinity>
-3.85868478

$$$$
