
 OpenBabel03262521553D

 33 35  0  0  1  0  0  0  0  0999 V2000
   33.2810   27.1260   48.3250 C   0  0  1  0  0  0  0  0  0  0  0  0
   33.7030   28.5040   48.7650 C   0  0  2  0  0  0  0  0  0  0  0  0
   33.4620   29.4440   47.6360 C   0  0  0  0  0  0  0  0  0  0  0  0
   32.9590   28.8210   46.5050 O   0  0  0  0  0  0  0  0  0  0  0  0
   31.7390   28.1730   46.7620 C   0  0  0  0  0  0  0  0  0  0  0  0
   31.8140   27.2270   47.9210 C   0  0  2  0  0  0  0  0  0  0  0  0
   33.3790   26.4290   49.1790 H   0  0  0  0  0  0  0  0  0  0  0  0
   33.0510   28.7600   49.6390 H   0  0  0  0  0  0  0  0  0  0  0  0
   34.4080   29.9340   47.3230 H   0  0  0  0  0  0  0  0  0  0  0  0
   32.7150   30.2190   47.9540 H   0  0  0  0  0  0  0  0  0  0  0  0
   31.5090   27.5730   45.8480 H   0  0  0  0  0  0  0  0  0  0  0  0
   30.9630   28.9390   46.8640 H   0  0  0  0  0  0  0  0  0  0  0  0
   31.4660   26.1970   47.6650 H   0  0  0  0  0  0  0  0  0  0  0  0
   33.9890   26.7260   47.1950 O   0  0  0  0  0  0  0  0  0  0  0  0
   34.9700   26.8230   47.3440 H   0  0  0  0  0  0  0  0  0  0  0  0
   35.4230   28.5590   49.3100 S   0  0  0  0  0  0  0  0  0  0  0  0
   35.6430   29.8340   50.5650 C   0  0  0  0  0  0  0  0  0  0  0  0
   35.1380   30.7690   50.1900 H   0  0  0  0  0  0  0  0  0  0  0  0
   35.0870   29.5670   51.4940 H   0  0  0  0  0  0  0  0  0  0  0  0
   37.3540   30.2560   50.8690 S   0  0  0  0  0  0  0  0  0  0  0  0
   37.9950   31.1080   49.4330 C   0  0  0  0  0  0  0  0  0  0  0  0
   38.3710   32.4140   49.6610 C   0  0  0  0  0  0  0  0  0  0  0  0
   38.8830   33.1560   48.5910 C   0  0  0  0  0  0  0  0  0  0  0  0
   38.9810   32.5310   47.3700 N   0  0  0  0  0  0  0  0  0  0  0  0
   38.5960   31.2510   47.2100 C   0  0  0  0  0  0  0  0  0  0  0  0
   38.1120   30.5560   48.2290 N   0  0  0  0  0  0  0  0  0  0  0  0
   38.3110   32.9410   50.6020 H   0  0  0  0  0  0  0  0  0  0  0  0
   39.1940   34.1980   48.7340 H   0  0  0  0  0  0  0  0  0  0  0  0
   38.6860   30.7870   46.2370 H   0  0  0  0  0  0  0  0  0  0  0  0
   31.1580   27.7500   49.0240 O   0  0  0  0  0  0  0  0  0  0  0  0
   29.8480   27.3750   49.1500 C   0  0  0  0  0  0  0  0  0  0  0  0
   29.2080   27.0700   50.4370 C   0  0  0  0  0  0  0  0  0  0  0  0
   28.9790   28.4390   49.8470 C   0  0  0  0  0  0  0  0  0  0  0  0
  1  2  1  0  0  0  0
  1  7  1  1  0  0  0
  2 16  1  0  0  0  0
  2  8  1  1  0  0  0
  3 10  1  0  0  0  0
  3  2  1  0  0  0  0
  4  5  1  0  0  0  0
  4  3  1  0  0  0  0
  5 12  1  0  0  0  0
  5  6  1  0  0  0  0
  6 13  1  6  0  0  0
  6  1  1  0  0  0  0
  6 30  1  0  0  0  0
  9  3  1  0  0  0  0
 11  5  1  0  0  0  0
 14 15  1  0  0  0  0
 14  1  1  0  0  0  0
 16 17  1  0  0  0  0
 17 20  1  0  0  0  0
 17 19  1  0  0  0  0
 18 17  1  0  0  0  0
 21 22  1  0  0  0  0
 21 20  1  0  0  0  0
 22 27  1  0  0  0  0
 23 28  1  0  0  0  0
 23 22  2  0  0  0  0
 24 23  1  0  0  0  0
 25 24  2  0  0  0  0
 25 26  1  0  0  0  0
 26 21  2  0  0  0  0
 29 25  1  0  0  0  0
 30 31  1  0  0  0  0
 31 33  1  0  0  0  0
 31 32  1  0  0  0  0
 33 32  1  0  0  0  0
M  END
>  <minimizedAffinity>
-4.71271086

>  <minimizedRMSD>
0.941408396

$$$$
