
 OpenBabel03272509433D

 32 34  0  0  1  0  0  0  0  0999 V2000
   37.0600   30.9340   48.9690 C   0  0  0  0  0  0  0  0  0  0  0  0
   36.8170   31.8440   49.9990 C   0  0  0  0  0  0  0  0  0  0  0  0
   37.4280   33.0890   50.0360 C   0  0  0  0  0  0  0  0  0  0  0  0
   38.3130   33.4480   49.0150 C   0  0  0  0  0  0  0  0  0  0  0  0
   38.5400   32.5480   48.0140 C   0  0  0  0  0  0  0  0  0  0  0  0
   37.9120   31.3110   48.0100 C   0  0  0  0  0  0  0  0  0  0  0  0
   36.1220   31.5330   50.7830 H   0  0  0  0  0  0  0  0  0  0  0  0
   37.1570   33.6950   50.8840 H   0  0  0  0  0  0  0  0  0  0  0  0
   38.7370   34.4260   49.1250 H   0  0  0  0  0  0  0  0  0  0  0  0
   39.2490   32.9690   47.2990 H   0  0  0  0  0  0  0  0  0  0  0  0
   36.4470   29.6230   48.9530 C   0  0  2  0  0  0  0  0  0  0  0  0
   36.9610   29.0620   48.0800 H   0  0  0  0  0  0  0  0  0  0  0  0
   33.5650   30.1200   46.7950 C   0  0  0  0  0  0  0  0  0  0  0  0
   32.8750   28.9250   46.8790 C   0  0  0  0  0  0  0  0  0  0  0  0
   33.3610   27.9500   47.7300 C   0  0  0  0  0  0  0  0  0  0  0  0
   34.5040   28.1990   48.4590 N   0  0  0  0  0  0  0  0  0  0  0  0
   35.1170   29.3580   48.3330 C   0  0  0  0  0  0  0  0  0  0  0  0
   34.6560   30.3240   47.5070 N   0  0  0  0  0  0  0  0  0  0  0  0
   33.2100   30.9120   46.1340 H   0  0  0  0  0  0  0  0  0  0  0  0
   31.9930   28.8250   46.2680 H   0  0  0  0  0  0  0  0  0  0  0  0
   32.8240   27.0140   47.8000 H   0  0  0  0  0  0  0  0  0  0  0  0
   36.8820   28.8620   49.8940 O   0  0  0  0  0  0  0  0  0  0  0  0
   36.5530   28.8580   50.8090 H   0  0  0  0  0  0  0  0  0  0  0  0
   38.2680   30.4460   46.9090 C   0  0  0  0  0  3  0  0  0  0  0  0
   38.9980   30.8390   45.8600 C   0  0  0  0  0  3  0  0  0  0  0  0
   39.4540   30.0330   44.7040 C   0  0  0  0  0  0  0  0  0  0  0  0
   38.9530   29.0330   44.6620 H   0  0  0  0  0  0  0  0  0  0  0  0
   40.5450   29.8490   44.7220 H   0  0  0  0  0  0  0  0  0  0  0  0
   39.0710   30.8950   43.1760 S   0  0  0  0  0  0  0  0  0  0  0  0
   37.2600   31.1160   43.0310 C   0  0  0  0  0  3  0  0  0  0  0  0
   36.8100   31.9710   41.9090 C   0  0  0  0  0  2  0  0  0  0  0  0
   36.6850   32.4560   43.3090 C   0  0  0  0  0  2  0  0  0  0  0  0
  1  2  1  0  0  0  0
  2  3  2  0  0  0  0
  2  7  1  0  0  0  0
  3  8  1  0  0  0  0
  4  9  1  0  0  0  0
  4  3  1  0  0  0  0
  5  4  2  0  0  0  0
  6  5  1  0  0  0  0
  6  1  2  0  0  0  0
 10  5  1  0  0  0  0
 11 12  1  6  0  0  0
 11  1  1  0  0  0  0
 11 22  1  0  0  0  0
 13 14  2  0  0  0  0
 13 18  1  0  0  0  0
 14 15  1  0  0  0  0
 15 21  1  0  0  0  0
 15 16  2  0  0  0  0
 17 16  1  0  0  0  0
 17 11  1  0  0  0  0
 18 17  2  0  0  0  0
 19 13  1  0  0  0  0
 20 14  1  0  0  0  0
 22 23  1  0  0  0  0
 24  6  1  0  0  0  0
 25 24  2  0  0  0  0
 26 28  1  0  0  0  0
 26 25  1  0  0  0  0
 27 26  1  0  0  0  0
 29 26  1  0  0  0  0
 30 29  1  0  0  0  0
 30 32  1  0  0  0  0
 31 30  1  0  0  0  0
 31 32  1  0  0  0  0
M  END
>  <minimizedAffinity>
-5.23416805

>  <minimizedRMSD>
0.260447472

$$$$
