
 OpenBabel03272506253D

 26 28  0  0  0  0  0  0  0  0999 V2000
   38.2930   30.8500   47.4030 C   0  0  0  0  0  0  0  0  0  0  0  0
   38.4560   30.2270   46.1850 C   0  0  0  0  0  0  0  0  0  0  0  0
   39.2100   30.7380   45.1380 C   0  0  0  0  0  0  0  0  0  0  0  0
   39.8560   31.9740   45.3190 C   0  0  0  0  0  0  0  0  0  0  0  0
   39.6950   32.6010   46.5380 C   0  0  0  0  0  0  0  0  0  0  0  0
   38.9390   32.0720   47.5670 C   0  0  0  0  0  0  0  0  0  0  0  0
   37.9880   29.2720   45.9780 H   0  0  0  0  0  0  0  0  0  0  0  0
   39.3210   30.2260   44.1920 H   0  0  0  0  0  0  0  0  0  0  0  0
   40.4600   32.4420   44.5610 H   0  0  0  0  0  0  0  0  0  0  0  0
   40.1400   33.5510   46.7950 H   0  0  0  0  0  0  0  0  0  0  0  0
   38.1060   29.8090   49.5880 C   0  0  0  0  0  0  0  0  0  0  0  0
   37.4810   30.1860   48.3800 C   0  0  0  0  0  0  0  0  0  0  0  0
   36.1260   29.8830   48.2400 C   0  0  0  0  0  0  0  0  0  0  0  0
   35.4850   29.2520   49.2500 N   0  0  0  0  0  0  0  0  0  0  0  0
   36.1230   28.8960   50.4140 C   0  0  0  0  0  0  0  0  0  0  0  0
   37.4470   29.1880   50.5650 N   0  0  0  0  0  0  0  0  0  0  0  0
   39.1540   30.0240   49.7380 H   0  0  0  0  0  0  0  0  0  0  0  0
   35.4620   28.3990   51.1170 H   0  0  0  0  0  0  0  0  0  0  0  0
   35.3390   30.2230   47.0200 C   0  0  0  0  0  0  0  0  0  0  0  0
   34.0790   30.7240   47.4110 F   0  0  0  0  0  0  0  0  0  0  0  0
   35.8990   31.0910   46.1530 F   0  0  0  0  0  0  0  0  0  0  0  0
   35.0100   29.0460   46.3370 F   0  0  0  0  0  0  0  0  0  0  0  0
   38.7290   32.8800   49.1410 S   0  0  0  0  0  0  0  0  0  0  0  0
   37.0700   33.4770   49.4260 C   0  0  0  0  0  3  0  0  0  0  0  0
   36.2740   32.6160   50.4170 C   0  0  0  0  0  2  0  0  0  0  0  0
   36.6040   34.0520   50.6870 C   0  0  0  0  0  2  0  0  0  0  0  0
  1  6  1  0  0  0  0
  1 12  1  0  0  0  0
  2  1  2  0  0  0  0
  3  4  2  0  0  0  0
  3  2  1  0  0  0  0
  4  5  1  0  0  0  0
  5 10  1  0  0  0  0
  5  6  2  0  0  0  0
  6 23  1  0  0  0  0
  7  2  1  0  0  0  0
  8  3  1  0  0  0  0
  9  4  1  0  0  0  0
 11 17  1  0  0  0  0
 11 16  1  0  0  0  0
 12 11  2  0  0  0  0
 13 12  1  0  0  0  0
 13 14  2  0  0  0  0
 14 15  1  0  0  0  0
 15 16  2  0  0  0  0
 15 18  1  0  0  0  0
 19 20  1  0  0  0  0
 19 13  1  0  0  0  0
 21 19  1  0  0  0  0
 22 19  1  0  0  0  0
 23 24  1  0  0  0  0
 24 25  1  0  0  0  0
 24 26  1  0  0  0  0
 25 26  1  0  0  0  0
M  END
>  <minimizedAffinity>
-2.82029605

>  <minimizedRMSD>
0.959513307

$$$$
