
 OpenBabel03272500593D

 29 31  0  0  0  0  0  0  0  0999 V2000
   39.3710   25.3110   34.6940 C   0  0  0  0  0  0  0  0  0  0  0  0
   40.1850   26.4130   34.8050 C   0  0  0  0  0  0  0  0  0  0  0  0
   40.4440   27.2650   33.7310 C   0  0  0  0  0  0  0  0  0  0  0  0
   39.8130   26.9460   32.4630 C   0  0  0  0  0  0  0  0  0  0  0  0
   39.0150   25.8450   32.4050 C   0  0  0  0  0  0  0  0  0  0  0  0
   38.7800   25.0360   33.4460 C   0  0  0  0  0  0  0  0  0  0  0  0
   40.6740   26.6740   35.7550 H   0  0  0  0  0  0  0  0  0  0  0  0
   41.1010   28.1200   33.8880 H   0  0  0  0  0  0  0  0  0  0  0  0
   40.1010   27.6770   31.7490 H   0  0  0  0  0  0  0  0  0  0  0  0
   38.6470   25.8320   31.3920 H   0  0  0  0  0  0  0  0  0  0  0  0
   38.1140   24.9460   36.7490 C   0  0  0  0  0  0  0  0  0  0  0  0
   39.1810   24.5470   35.8890 C   0  0  0  0  0  0  0  0  0  0  0  0
   39.9060   23.4610   36.3170 C   0  0  0  0  0  0  0  0  0  0  0  0
   39.6010   22.8450   37.4720 N   0  0  0  0  0  0  0  0  0  0  0  0
   38.6070   23.2280   38.2600 C   0  0  0  0  0  0  0  0  0  0  0  0
   37.8650   24.2820   37.8930 N   0  0  0  0  0  0  0  0  0  0  0  0
   37.5080   25.8000   36.4610 H   0  0  0  0  0  0  0  0  0  0  0  0
   40.7070   23.1480   35.6880 H   0  0  0  0  0  0  0  0  0  0  0  0
   38.2850   22.8020   39.1980 H   0  0  0  0  0  0  0  0  0  0  0  0
   38.7920   22.7430   32.8820 C   0  0  0  0  0  0  0  0  0  0  0  0
   40.0230   22.9100   32.6120 O   0  0  0  0  0  0  0  0  0  0  0  0
   37.9860   23.9170   33.3090 N   0  0  0  0  0  0  0  0  0  0  0  0
   36.9850   23.8020   33.4560 H   0  0  0  0  0  0  0  0  0  0  0  0
   38.1030   21.4910   32.8090 O   0  0  0  0  0  0  0  0  0  0  0  0
   37.0140   21.3020   33.6410 C   0  0  0  0  0  0  0  0  0  0  0  0
   37.2000   21.6870   34.8160 O   0  0  0  0  0  0  0  0  0  0  0  0
   35.6200   20.7370   33.5580 C   0  0  0  0  0  3  0  0  0  0  0  0
   35.3960   19.4430   32.8710 C   0  0  0  0  0  2  0  0  0  0  0  0
   34.8880   20.7590   32.2950 C   0  0  0  0  0  2  0  0  0  0  0  0
  1  2  1  0  0  0  0
  1 12  1  0  0  0  0
  2  7  1  0  0  0  0
  3  8  1  0  0  0  0
  3  2  2  0  0  0  0
  4  3  1  0  0  0  0
  5  4  2  0  0  0  0
  5  6  1  0  0  0  0
  6  1  2  0  0  0  0
  9  4  1  0  0  0  0
 10  5  1  0  0  0  0
 11 16  1  0  0  0  0
 12 13  1  0  0  0  0
 12 11  2  0  0  0  0
 13 14  2  0  0  0  0
 14 15  1  0  0  0  0
 15 19  1  0  0  0  0
 16 15  2  0  0  0  0
 17 11  1  0  0  0  0
 18 13  1  0  0  0  0
 20 22  1  0  0  0  0
 21 20  2  0  0  0  0
 22  6  1  0  0  0  0
 22 23  1  0  0  0  0
 24 20  1  0  0  0  0
 24 25  1  0  0  0  0
 25 26  2  0  0  0  0
 27 25  1  0  0  0  0
 28 27  1  0  0  0  0
 29 28  1  0  0  0  0
 29 27  1  0  0  0  0
M  END
>  <minimizedAffinity>
-4.93274212

$$$$

 OpenBabel03272500593D

 29 31  0  0  0  0  0  0  0  0999 V2000
   36.6830   26.5760   31.8660 C   0  0  0  0  0  0  0  0  0  0  0  0
   36.3890   27.3370   30.7610 C   0  0  0  0  0  0  0  0  0  0  0  0
   36.1740   28.7150   30.8350 C   0  0  0  0  0  0  0  0  0  0  0  0
   36.2750   29.3330   32.1440 C   0  0  0  0  0  0  0  0  0  0  0  0
   36.5690   28.5360   33.2080 C   0  0  0  0  0  0  0  0  0  0  0  0
   36.7690   27.2150   33.1190 C   0  0  0  0  0  0  0  0  0  0  0  0
   36.3080   26.8910   29.7590 H   0  0  0  0  0  0  0  0  0  0  0  0
   35.9440   29.2580   29.9190 H   0  0  0  0  0  0  0  0  0  0  0  0
   36.0890   30.3740   32.0420 H   0  0  0  0  0  0  0  0  0  0  0  0
   36.6160   29.2110   34.0460 H   0  0  0  0  0  0  0  0  0  0  0  0
   35.7410   24.3560   31.5170 C   0  0  0  0  0  0  0  0  0  0  0  0
   36.9000   25.1820   31.6280 C   0  0  0  0  0  0  0  0  0  0  0  0
   38.1020   24.5300   31.4900 C   0  0  0  0  0  0  0  0  0  0  0  0
   38.1410   23.2050   31.2660 N   0  0  0  0  0  0  0  0  0  0  0  0
   37.0550   22.4520   31.1660 C   0  0  0  0  0  0  0  0  0  0  0  0
   35.8550   23.0340   31.2920 N   0  0  0  0  0  0  0  0  0  0  0  0
   34.7640   24.8190   31.6190 H   0  0  0  0  0  0  0  0  0  0  0  0
   38.9790   25.1290   31.5700 H   0  0  0  0  0  0  0  0  0  0  0  0
   36.9830   21.3890   30.9890 H   0  0  0  0  0  0  0  0  0  0  0  0
   38.4710   26.5350   34.6080 C   0  0  0  0  0  0  0  0  0  0  0  0
   39.2660   27.1640   33.8410 O   0  0  0  0  0  0  0  0  0  0  0  0
   37.0320   26.4600   34.2420 N   0  0  0  0  0  0  0  0  0  0  0  0
   36.4060   25.8960   34.8140 H   0  0  0  0  0  0  0  0  0  0  0  0
   38.8540   25.8800   35.8200 O   0  0  0  0  0  0  0  0  0  0  0  0
   38.3520   24.6130   36.0590 C   0  0  0  0  0  0  0  0  0  0  0  0
   38.1850   23.9300   35.0250 O   0  0  0  0  0  0  0  0  0  0  0  0
   37.9170   23.7790   37.2360 C   0  0  0  0  0  3  0  0  0  0  0  0
   37.9340   24.3700   38.5960 C   0  0  0  0  0  2  0  0  0  0  0  0
   38.9020   23.2670   38.1840 C   0  0  0  0  0  2  0  0  0  0  0  0
  1  6  1  0  0  0  0
  2  3  1  0  0  0  0
  2  1  2  0  0  0  0
  3  4  2  0  0  0  0
  4  5  1  0  0  0  0
  5 10  1  0  0  0  0
  6  5  2  0  0  0  0
  6 22  1  0  0  0  0
  7  2  1  0  0  0  0
  8  3  1  0  0  0  0
  9  4  1  0  0  0  0
 11 17  1  0  0  0  0
 11 12  1  0  0  0  0
 12  1  1  0  0  0  0
 13 18  1  0  0  0  0
 13 12  2  0  0  0  0
 14 13  1  0  0  0  0
 15 14  2  0  0  0  0
 15 16  1  0  0  0  0
 16 11  2  0  0  0  0
 19 15  1  0  0  0  0
 20 24  1  0  0  0  0
 21 20  2  0  0  0  0
 22 20  1  0  0  0  0
 22 23  1  0  0  0  0
 24 25  1  0  0  0  0
 25 27  1  0  0  0  0
 26 25  2  0  0  0  0
 27 29  1  0  0  0  0
 27 28  1  0  0  0  0
 29 28  1  0  0  0  0
M  END
>  <minimizedAffinity>
-4.91492414

$$$$

 OpenBabel03272500593D

 29 31  0  0  0  0  0  0  0  0999 V2000
   39.8320   25.6960   34.4070 C   0  0  0  0  0  0  0  0  0  0  0  0
   40.9000   26.4940   34.7380 C   0  0  0  0  0  0  0  0  0  0  0  0
   41.5590   27.2910   33.8000 C   0  0  0  0  0  0  0  0  0  0  0  0
   41.0710   27.2510   32.4340 C   0  0  0  0  0  0  0  0  0  0  0  0
   40.0090   26.4450   32.1570 C   0  0  0  0  0  0  0  0  0  0  0  0
   39.3910   25.6840   33.0690 C   0  0  0  0  0  0  0  0  0  0  0  0
   41.2870   26.5410   35.7660 H   0  0  0  0  0  0  0  0  0  0  0  0
   42.4000   27.9000   34.1310 H   0  0  0  0  0  0  0  0  0  0  0  0
   41.6660   27.9030   31.8430 H   0  0  0  0  0  0  0  0  0  0  0  0
   39.8180   26.6020   31.1090 H   0  0  0  0  0  0  0  0  0  0  0  0
   39.8740   23.7250   35.8380 C   0  0  0  0  0  0  0  0  0  0  0  0
   39.2440   24.9550   35.4810 C   0  0  0  0  0  0  0  0  0  0  0  0
   38.1360   25.2860   36.2240 C   0  0  0  0  0  0  0  0  0  0  0  0
   37.7060   24.4800   37.2090 N   0  0  0  0  0  0  0  0  0  0  0  0
   38.3020   23.3390   37.5280 C   0  0  0  0  0  0  0  0  0  0  0  0
   39.3880   22.9660   36.8380 N   0  0  0  0  0  0  0  0  0  0  0  0
   40.7540   23.4130   35.2830 H   0  0  0  0  0  0  0  0  0  0  0  0
   37.6530   26.2010   35.9720 H   0  0  0  0  0  0  0  0  0  0  0  0
   38.0350   22.6290   38.2970 H   0  0  0  0  0  0  0  0  0  0  0  0
   37.0930   25.6500   32.5270 C   0  0  0  0  0  0  0  0  0  0  0  0
   37.1060   26.8930   32.7910 O   0  0  0  0  0  0  0  0  0  0  0  0
   38.3410   24.8640   32.7140 N   0  0  0  0  0  0  0  0  0  0  0  0
   38.3150   23.8560   32.5730 H   0  0  0  0  0  0  0  0  0  0  0  0
   35.9530   24.9290   32.0510 O   0  0  0  0  0  0  0  0  0  0  0  0
   36.1740   23.7880   31.3010 C   0  0  0  0  0  0  0  0  0  0  0  0
   37.0490   23.9240   30.4160 O   0  0  0  0  0  0  0  0  0  0  0  0
   35.6510   22.3780   31.2170 C   0  0  0  0  0  3  0  0  0  0  0  0
   35.6410   21.5290   32.4320 C   0  0  0  0  0  2  0  0  0  0  0  0
   36.5700   21.2440   31.2580 C   0  0  0  0  0  2  0  0  0  0  0  0
  1  2  1  0  0  0  0
  1 12  1  0  0  0  0
  2  7  1  0  0  0  0
  3  8  1  0  0  0  0
  3  2  2  0  0  0  0
  4  3  1  0  0  0  0
  5  4  2  0  0  0  0
  5  6  1  0  0  0  0
  6  1  2  0  0  0  0
  9  4  1  0  0  0  0
 10  5  1  0  0  0  0
 11 16  1  0  0  0  0
 12 11  2  0  0  0  0
 12 13  1  0  0  0  0
 13 14  2  0  0  0  0
 14 15  1  0  0  0  0
 15 19  1  0  0  0  0
 16 15  2  0  0  0  0
 17 11  1  0  0  0  0
 18 13  1  0  0  0  0
 20 22  1  0  0  0  0
 20 21  2  0  0  0  0
 22  6  1  0  0  0  0
 23 22  1  0  0  0  0
 24 20  1  0  0  0  0
 25 24  1  0  0  0  0
 26 25  2  0  0  0  0
 27 29  1  0  0  0  0
 27 25  1  0  0  0  0
 27 28  1  0  0  0  0
 29 28  1  0  0  0  0
M  END
>  <minimizedAffinity>
-4.8831315

$$$$

 OpenBabel03272500593D

 29 31  0  0  0  0  0  0  0  0999 V2000
   37.0110   26.9050   32.5700 C   0  0  0  0  0  0  0  0  0  0  0  0
   36.4510   28.0160   31.9870 C   0  0  0  0  0  0  0  0  0  0  0  0
   35.9730   29.0940   32.7340 C   0  0  0  0  0  0  0  0  0  0  0  0
   36.0880   29.0040   34.1780 C   0  0  0  0  0  0  0  0  0  0  0  0
   36.6520   27.8830   34.7070 C   0  0  0  0  0  0  0  0  0  0  0  0
   37.1020   26.8570   33.9750 C   0  0  0  0  0  0  0  0  0  0  0  0
   36.3530   28.1060   30.8950 H   0  0  0  0  0  0  0  0  0  0  0  0
   35.5390   29.9440   32.2080 H   0  0  0  0  0  0  0  0  0  0  0  0
   35.6860   29.8900   34.6050 H   0  0  0  0  0  0  0  0  0  0  0  0
   36.6520   28.0580   35.7700 H   0  0  0  0  0  0  0  0  0  0  0  0
   38.7640   26.0910   31.0870 C   0  0  0  0  0  0  0  0  0  0  0  0
   37.4780   25.8930   31.6720 C   0  0  0  0  0  0  0  0  0  0  0  0
   36.8340   24.7370   31.3000 C   0  0  0  0  0  0  0  0  0  0  0  0
   37.4100   23.8790   30.4410 N   0  0  0  0  0  0  0  0  0  0  0  0
   38.6060   24.0770   29.9060 C   0  0  0  0  0  0  0  0  0  0  0  0
   39.2800   25.1880   30.2330 N   0  0  0  0  0  0  0  0  0  0  0  0
   39.3190   26.9890   31.3450 H   0  0  0  0  0  0  0  0  0  0  0  0
   35.8720   24.5720   31.7270 H   0  0  0  0  0  0  0  0  0  0  0  0
   39.1490   23.4520   29.2130 H   0  0  0  0  0  0  0  0  0  0  0  0
   39.0650   25.9430   34.9180 C   0  0  0  0  0  0  0  0  0  0  0  0
   39.6310   27.0210   34.5550 O   0  0  0  0  0  0  0  0  0  0  0  0
   37.6330   25.7350   34.5760 N   0  0  0  0  0  0  0  0  0  0  0  0
   37.1950   24.8440   34.8010 H   0  0  0  0  0  0  0  0  0  0  0  0
   39.7040   24.8900   35.6460 O   0  0  0  0  0  0  0  0  0  0  0  0
   38.9240   23.8260   36.0650 C   0  0  0  0  0  0  0  0  0  0  0  0
   38.6770   22.9930   35.1650 O   0  0  0  0  0  0  0  0  0  0  0  0
   38.2470   23.3560   37.3250 C   0  0  0  0  0  3  0  0  0  0  0  0
   37.9070   24.3390   38.3820 C   0  0  0  0  0  2  0  0  0  0  0  0
   38.9890   23.2840   38.5810 C   0  0  0  0  0  2  0  0  0  0  0  0
  1  6  1  0  0  0  0
  2  1  2  0  0  0  0
  2  3  1  0  0  0  0
  3  4  2  0  0  0  0
  4  9  1  0  0  0  0
  4  5  1  0  0  0  0
  5 10  1  0  0  0  0
  6 22  1  0  0  0  0
  6  5  2  0  0  0  0
  7  2  1  0  0  0  0
  8  3  1  0  0  0  0
 11 17  1  0  0  0  0
 11 12  1  0  0  0  0
 12  1  1  0  0  0  0
 13 12  2  0  0  0  0
 13 18  1  0  0  0  0
 14 13  1  0  0  0  0
 15 16  1  0  0  0  0
 15 14  2  0  0  0  0
 16 11  2  0  0  0  0
 19 15  1  0  0  0  0
 20 24  1  0  0  0  0
 21 20  2  0  0  0  0
 22 23  1  0  0  0  0
 22 20  1  0  0  0  0
 24 25  1  0  0  0  0
 25 27  1  0  0  0  0
 26 25  2  0  0  0  0
 27 28  1  0  0  0  0
 27 29  1  0  0  0  0
 28 29  1  0  0  0  0
M  END
>  <minimizedAffinity>
-4.87992096

$$$$

 OpenBabel03272500593D

 29 31  0  0  0  0  0  0  0  0999 V2000
   38.5440   25.4250   35.3120 C   0  0  0  0  0  0  0  0  0  0  0  0
   38.5690   26.6560   35.9210 C   0  0  0  0  0  0  0  0  0  0  0  0
   37.8790   27.7580   35.4140 C   0  0  0  0  0  0  0  0  0  0  0  0
   37.1150   27.5610   34.1960 C   0  0  0  0  0  0  0  0  0  0  0  0
   37.1210   26.3220   33.6310 C   0  0  0  0  0  0  0  0  0  0  0  0
   37.7920   25.2760   34.1300 C   0  0  0  0  0  0  0  0  0  0  0  0
   39.1400   26.8300   36.8450 H   0  0  0  0  0  0  0  0  0  0  0  0
   37.9430   28.7070   35.9480 H   0  0  0  0  0  0  0  0  0  0  0  0
   36.6500   28.4790   33.9360 H   0  0  0  0  0  0  0  0  0  0  0  0
   36.4760   26.4140   32.7730 H   0  0  0  0  0  0  0  0  0  0  0  0
   38.6920   23.8080   37.1270 C   0  0  0  0  0  0  0  0  0  0  0  0
   39.2810   24.3860   35.9630 C   0  0  0  0  0  0  0  0  0  0  0  0
   40.5010   23.8670   35.6010 C   0  0  0  0  0  0  0  0  0  0  0  0
   41.0670   22.8830   36.3220 N   0  0  0  0  0  0  0  0  0  0  0  0
   40.5080   22.3570   37.4010 C   0  0  0  0  0  0  0  0  0  0  0  0
   39.3170   22.8240   37.8010 N   0  0  0  0  0  0  0  0  0  0  0  0
   37.7270   24.1810   37.4600 H   0  0  0  0  0  0  0  0  0  0  0  0
   40.9560   24.2860   34.7350 H   0  0  0  0  0  0  0  0  0  0  0  0
   40.8800   21.5710   38.0410 H   0  0  0  0  0  0  0  0  0  0  0  0
   38.7880   24.0230   32.3940 C   0  0  0  0  0  0  0  0  0  0  0  0
   39.4350   25.0830   32.1240 O   0  0  0  0  0  0  0  0  0  0  0  0
   37.7820   24.0560   33.4880 N   0  0  0  0  0  0  0  0  0  0  0  0
   37.2110   23.2300   33.6590 H   0  0  0  0  0  0  0  0  0  0  0  0
   38.9530   22.7720   31.7190 O   0  0  0  0  0  0  0  0  0  0  0  0
   38.0270   21.7750   31.9680 C   0  0  0  0  0  0  0  0  0  0  0  0
   38.3170   21.0450   32.9420 O   0  0  0  0  0  0  0  0  0  0  0  0
   36.7290   21.2760   31.3900 C   0  0  0  0  0  3  0  0  0  0  0  0
   35.6100   22.2250   31.1780 C   0  0  0  0  0  2  0  0  0  0  0  0
   35.5490   21.1320   32.2380 C   0  0  0  0  0  2  0  0  0  0  0  0
  1  2  1  0  0  0  0
  1 12  1  0  0  0  0
  2  7  1  0  0  0  0
  3  2  2  0  0  0  0
  3  8  1  0  0  0  0
  4  3  1  0  0  0  0
  5  6  1  0  0  0  0
  5  4  2  0  0  0  0
  6  1  2  0  0  0  0
  9  4  1  0  0  0  0
 10  5  1  0  0  0  0
 11 17  1  0  0  0  0
 11 16  1  0  0  0  0
 12 11  2  0  0  0  0
 13 12  1  0  0  0  0
 13 14  2  0  0  0  0
 14 15  1  0  0  0  0
 15 16  2  0  0  0  0
 15 19  1  0  0  0  0
 18 13  1  0  0  0  0
 20 22  1  0  0  0  0
 21 20  2  0  0  0  0
 22 23  1  0  0  0  0
 22  6  1  0  0  0  0
 24 25  1  0  0  0  0
 24 20  1  0  0  0  0
 25 26  2  0  0  0  0
 27 25  1  0  0  0  0
 27 29  1  0  0  0  0
 28 27  1  0  0  0  0
 28 29  1  0  0  0  0
M  END
>  <minimizedAffinity>
-4.80663109

$$$$

 OpenBabel03272500593D

 29 31  0  0  0  0  0  0  0  0999 V2000
   39.9430   23.2960   36.4430 C   0  0  0  0  0  0  0  0  0  0  0  0
   39.9630   22.9790   37.7800 C   0  0  0  0  0  0  0  0  0  0  0  0
   38.9070   23.2860   38.6390 C   0  0  0  0  0  0  0  0  0  0  0  0
   37.7590   23.9650   38.0650 C   0  0  0  0  0  0  0  0  0  0  0  0
   37.7870   24.2560   36.7360 C   0  0  0  0  0  0  0  0  0  0  0  0
   38.8110   23.9570   35.9270 C   0  0  0  0  0  0  0  0  0  0  0  0
   40.8220   22.4650   38.2370 H   0  0  0  0  0  0  0  0  0  0  0  0
   38.9890   23.0060   39.6900 H   0  0  0  0  0  0  0  0  0  0  0  0
   37.0450   24.1290   38.8340 H   0  0  0  0  0  0  0  0  0  0  0  0
   36.8360   24.7230   36.5420 H   0  0  0  0  0  0  0  0  0  0  0  0
   42.1840   23.8090   35.6380 C   0  0  0  0  0  0  0  0  0  0  0  0
   41.0890   22.8960   35.6850 C   0  0  0  0  0  0  0  0  0  0  0  0
   41.2690   21.7240   34.9890 C   0  0  0  0  0  0  0  0  0  0  0  0
   42.4130   21.4930   34.3220 N   0  0  0  0  0  0  0  0  0  0  0  0
   43.4210   22.3520   34.2870 C   0  0  0  0  0  0  0  0  0  0  0  0
   43.3020   23.5120   34.9490 N   0  0  0  0  0  0  0  0  0  0  0  0
   42.0960   24.7520   36.1700 H   0  0  0  0  0  0  0  0  0  0  0  0
   40.4620   21.0300   35.0130 H   0  0  0  0  0  0  0  0  0  0  0  0
   44.3720   22.2580   33.7850 H   0  0  0  0  0  0  0  0  0  0  0  0
   38.0810   23.2850   33.7840 C   0  0  0  0  0  0  0  0  0  0  0  0
   37.6860   22.2200   34.3540 O   0  0  0  0  0  0  0  0  0  0  0  0
   38.7890   24.3110   34.5940 N   0  0  0  0  0  0  0  0  0  0  0  0
   39.1700   25.1320   34.1280 H   0  0  0  0  0  0  0  0  0  0  0  0
   37.8940   23.5870   32.3980 O   0  0  0  0  0  0  0  0  0  0  0  0
   36.6080   23.5350   31.8910 C   0  0  0  0  0  0  0  0  0  0  0  0
   36.0140   24.6360   31.9000 O   0  0  0  0  0  0  0  0  0  0  0  0
   35.6650   22.5080   31.3200 C   0  0  0  0  0  3  0  0  0  0  0  0
   35.1180   21.4490   32.2000 C   0  0  0  0  0  2  0  0  0  0  0  0
   36.1150   21.1390   31.0900 C   0  0  0  0  0  2  0  0  0  0  0  0
  1  2  1  0  0  0  0
  2  7  1  0  0  0  0
  2  3  2  0  0  0  0
  3  8  1  0  0  0  0
  4  3  1  0  0  0  0
  4  9  1  0  0  0  0
  5  4  2  0  0  0  0
  6  1  2  0  0  0  0
  6  5  1  0  0  0  0
 10  5  1  0  0  0  0
 11 12  1  0  0  0  0
 11 17  1  0  0  0  0
 12  1  1  0  0  0  0
 13 18  1  0  0  0  0
 13 12  2  0  0  0  0
 14 13  1  0  0  0  0
 15 14  2  0  0  0  0
 15 16  1  0  0  0  0
 16 11  2  0  0  0  0
 19 15  1  0  0  0  0
 20 21  2  0  0  0  0
 20 22  1  0  0  0  0
 22  6  1  0  0  0  0
 23 22  1  0  0  0  0
 24 20  1  0  0  0  0
 25 26  2  0  0  0  0
 25 24  1  0  0  0  0
 27 25  1  0  0  0  0
 27 28  1  0  0  0  0
 29 27  1  0  0  0  0
 29 28  1  0  0  0  0
M  END
>  <minimizedAffinity>
-4.78262234

$$$$

 OpenBabel03272500593D

 29 31  0  0  0  0  0  0  0  0999 V2000
   36.2070   23.6550   31.7970 C   0  0  0  0  0  0  0  0  0  0  0  0
   35.3500   24.3680   30.9940 C   0  0  0  0  0  0  0  0  0  0  0  0
   35.3170   25.7640   30.9870 C   0  0  0  0  0  0  0  0  0  0  0  0
   36.2370   26.4540   31.8720 C   0  0  0  0  0  0  0  0  0  0  0  0
   37.0660   25.7020   32.6470 C   0  0  0  0  0  0  0  0  0  0  0  0
   37.0820   24.3630   32.6430 C   0  0  0  0  0  0  0  0  0  0  0  0
   34.6450   23.8670   30.3150 H   0  0  0  0  0  0  0  0  0  0  0  0
   34.6110   26.2670   30.3260 H   0  0  0  0  0  0  0  0  0  0  0  0
   36.0960   27.5010   31.7560 H   0  0  0  0  0  0  0  0  0  0  0  0
   37.6590   26.4230   33.1850 H   0  0  0  0  0  0  0  0  0  0  0  0
   35.1000   21.5680   32.3920 C   0  0  0  0  0  0  0  0  0  0  0  0
   36.1410   22.2300   31.6750 C   0  0  0  0  0  0  0  0  0  0  0  0
   36.9660   21.4100   30.9430 C   0  0  0  0  0  0  0  0  0  0  0  0
   36.7720   20.0800   30.9300 N   0  0  0  0  0  0  0  0  0  0  0  0
   35.8000   19.4790   31.6020 C   0  0  0  0  0  0  0  0  0  0  0  0
   34.9650   20.2300   32.3330 N   0  0  0  0  0  0  0  0  0  0  0  0
   34.4190   22.1670   32.9900 H   0  0  0  0  0  0  0  0  0  0  0  0
   37.7480   21.8860   30.4010 H   0  0  0  0  0  0  0  0  0  0  0  0
   35.5640   18.4270   31.6540 H   0  0  0  0  0  0  0  0  0  0  0  0
   39.3010   23.6020   32.9160 C   0  0  0  0  0  0  0  0  0  0  0  0
   39.5120   24.0870   31.7600 O   0  0  0  0  0  0  0  0  0  0  0  0
   37.9260   23.6620   33.4780 N   0  0  0  0  0  0  0  0  0  0  0  0
   37.7370   23.2110   34.3710 H   0  0  0  0  0  0  0  0  0  0  0  0
   40.2990   22.9930   33.7400 O   0  0  0  0  0  0  0  0  0  0  0  0
   39.9710   22.7130   35.0550 C   0  0  0  0  0  0  0  0  0  0  0  0
   39.1280   21.7980   35.1840 O   0  0  0  0  0  0  0  0  0  0  0  0
   40.3280   23.2060   36.4320 C   0  0  0  0  0  3  0  0  0  0  0  0
   40.6530   22.2270   37.4970 C   0  0  0  0  0  2  0  0  0  0  0  0
   39.3820   23.0670   37.5360 C   0  0  0  0  0  2  0  0  0  0  0  0
  1  6  1  0  0  0  0
  2  1  2  0  0  0  0
  3  2  1  0  0  0  0
  3  4  2  0  0  0  0
  4  5  1  0  0  0  0
  5 10  1  0  0  0  0
  6  5  2  0  0  0  0
  6 22  1  0  0  0  0
  7  2  1  0  0  0  0
  8  3  1  0  0  0  0
  9  4  1  0  0  0  0
 11 17  1  0  0  0  0
 12  1  1  0  0  0  0
 12 11  2  0  0  0  0
 13 12  1  0  0  0  0
 14 13  2  0  0  0  0
 14 15  1  0  0  0  0
 15 19  1  0  0  0  0
 15 16  2  0  0  0  0
 16 11  1  0  0  0  0
 18 13  1  0  0  0  0
 20 22  1  0  0  0  0
 20 24  1  0  0  0  0
 21 20  2  0  0  0  0
 22 23  1  0  0  0  0
 24 25  1  0  0  0  0
 25 26  2  0  0  0  0
 25 27  1  0  0  0  0
 27 28  1  0  0  0  0
 27 29  1  0  0  0  0
 28 29  1  0  0  0  0
M  END
>  <minimizedAffinity>
-4.67051506

$$$$

 OpenBabel03272500593D

 29 31  0  0  0  0  0  0  0  0999 V2000
   37.7320   26.7480   33.7440 C   0  0  0  0  0  0  0  0  0  0  0  0
   38.1870   27.5440   34.7680 C   0  0  0  0  0  0  0  0  0  0  0  0
   38.5540   27.0270   36.0110 C   0  0  0  0  0  0  0  0  0  0  0  0
   38.4380   25.5920   36.1950 C   0  0  0  0  0  0  0  0  0  0  0  0
   37.9830   24.8480   35.1500 C   0  0  0  0  0  0  0  0  0  0  0  0
   37.6320   25.3610   33.9640 C   0  0  0  0  0  0  0  0  0  0  0  0
   38.2830   28.6330   34.6510 H   0  0  0  0  0  0  0  0  0  0  0  0
   38.9060   27.7150   36.7800 H   0  0  0  0  0  0  0  0  0  0  0  0
   38.7500   25.3520   37.1810 H   0  0  0  0  0  0  0  0  0  0  0  0
   38.0100   23.8330   35.5100 H   0  0  0  0  0  0  0  0  0  0  0  0
   38.4860   27.6040   31.5910 C   0  0  0  0  0  0  0  0  0  0  0  0
   37.4180   27.4190   32.5190 C   0  0  0  0  0  0  0  0  0  0  0  0
   36.1990   27.9120   32.1190 C   0  0  0  0  0  0  0  0  0  0  0  0
   36.0640   28.5200   30.9280 N   0  0  0  0  0  0  0  0  0  0  0  0
   37.0660   28.6850   30.0770 C   0  0  0  0  0  0  0  0  0  0  0  0
   38.2780   28.2240   30.4140 N   0  0  0  0  0  0  0  0  0  0  0  0
   39.4730   27.2350   31.8560 H   0  0  0  0  0  0  0  0  0  0  0  0
   35.3900   27.7830   32.7990 H   0  0  0  0  0  0  0  0  0  0  0  0
   37.0580   29.1560   29.1050 H   0  0  0  0  0  0  0  0  0  0  0  0
   38.2600   23.9020   32.2160 C   0  0  0  0  0  0  0  0  0  0  0  0
   39.4570   24.2150   32.5080 O   0  0  0  0  0  0  0  0  0  0  0  0
   37.1470   24.5520   32.9570 N   0  0  0  0  0  0  0  0  0  0  0  0
   36.1880   24.3590   32.6780 H   0  0  0  0  0  0  0  0  0  0  0  0
   37.8860   22.9520   31.2140 O   0  0  0  0  0  0  0  0  0  0  0  0
   36.7010   22.2590   31.3880 C   0  0  0  0  0  0  0  0  0  0  0  0
   35.6900   22.8710   30.9780 O   0  0  0  0  0  0  0  0  0  0  0  0
   36.2420   20.9410   31.9560 C   0  0  0  0  0  3  0  0  0  0  0  0
   34.7910   20.6800   32.1150 C   0  0  0  0  0  2  0  0  0  0  0  0
   35.7120   20.8660   33.3150 C   0  0  0  0  0  2  0  0  0  0  0  0
  1  6  2  0  0  0  0
  1  2  1  0  0  0  0
  2  3  2  0  0  0  0
  3  4  1  0  0  0  0
  3  8  1  0  0  0  0
  4  9  1  0  0  0  0
  5 10  1  0  0  0  0
  5  4  2  0  0  0  0
  6  5  1  0  0  0  0
  7  2  1  0  0  0  0
 11 17  1  0  0  0  0
 11 12  1  0  0  0  0
 12  1  1  0  0  0  0
 13 12  2  0  0  0  0
 13 18  1  0  0  0  0
 14 13  1  0  0  0  0
 15 16  1  0  0  0  0
 15 14  2  0  0  0  0
 16 11  2  0  0  0  0
 19 15  1  0  0  0  0
 20 21  2  0  0  0  0
 20 22  1  0  0  0  0
 22  6  1  0  0  0  0
 23 22  1  0  0  0  0
 24 25  1  0  0  0  0
 24 20  1  0  0  0  0
 25 27  1  0  0  0  0
 26 25  2  0  0  0  0
 27 28  1  0  0  0  0
 27 29  1  0  0  0  0
 28 29  1  0  0  0  0
M  END
>  <minimizedAffinity>
-4.63387203

$$$$

 OpenBabel03272500593D

 29 31  0  0  0  0  0  0  0  0999 V2000
   38.5100   24.7580   36.1270 C   0  0  0  0  0  0  0  0  0  0  0  0
   38.0700   25.3570   37.2820 C   0  0  0  0  0  0  0  0  0  0  0  0
   38.1060   24.7140   38.5210 C   0  0  0  0  0  0  0  0  0  0  0  0
   38.6340   23.3630   38.5520 C   0  0  0  0  0  0  0  0  0  0  0  0
   39.0570   22.8130   37.3810 C   0  0  0  0  0  0  0  0  0  0  0  0
   39.0130   23.4440   36.2010 C   0  0  0  0  0  0  0  0  0  0  0  0
   37.6670   26.3810   37.2820 H   0  0  0  0  0  0  0  0  0  0  0  0
   37.7400   25.2480   39.3980 H   0  0  0  0  0  0  0  0  0  0  0  0
   38.5970   23.0090   39.5530 H   0  0  0  0  0  0  0  0  0  0  0  0
   39.4230   21.8390   37.6570 H   0  0  0  0  0  0  0  0  0  0  0  0
   39.5160   26.4480   34.6890 C   0  0  0  0  0  0  0  0  0  0  0  0
   38.4340   25.5520   34.9390 C   0  0  0  0  0  0  0  0  0  0  0  0
   37.4360   25.5570   33.9930 C   0  0  0  0  0  0  0  0  0  0  0  0
   37.5110   26.3660   32.9230 N   0  0  0  0  0  0  0  0  0  0  0  0
   38.5230   27.1940   32.7060 C   0  0  0  0  0  0  0  0  0  0  0  0
   39.5250   27.2310   33.5940 N   0  0  0  0  0  0  0  0  0  0  0  0
   40.3330   26.4870   35.4050 H   0  0  0  0  0  0  0  0  0  0  0  0
   36.6200   24.8940   34.1630 H   0  0  0  0  0  0  0  0  0  0  0  0
   38.6730   27.8770   31.8830 H   0  0  0  0  0  0  0  0  0  0  0  0
   38.3470   21.9630   34.4860 C   0  0  0  0  0  0  0  0  0  0  0  0
   37.2660   21.8360   35.1410 O   0  0  0  0  0  0  0  0  0  0  0  0
   39.4290   22.8160   35.0450 N   0  0  0  0  0  0  0  0  0  0  0  0
   40.3220   22.8620   34.5600 H   0  0  0  0  0  0  0  0  0  0  0  0
   38.6160   21.3410   33.2270 O   0  0  0  0  0  0  0  0  0  0  0  0
   38.3370   22.0580   32.0770 C   0  0  0  0  0  0  0  0  0  0  0  0
   39.2310   22.8710   31.7560 O   0  0  0  0  0  0  0  0  0  0  0  0
   37.2300   22.1680   31.0610 C   0  0  0  0  0  3  0  0  0  0  0  0
   36.0570   23.0260   31.3490 C   0  0  0  0  0  2  0  0  0  0  0  0
   35.9480   21.5070   31.2890 C   0  0  0  0  0  2  0  0  0  0  0  0
  1  6  2  0  0  0  0
  1  2  1  0  0  0  0
  2  3  2  0  0  0  0
  3  4  1  0  0  0  0
  3  8  1  0  0  0  0
  4  9  1  0  0  0  0
  5 10  1  0  0  0  0
  5  4  2  0  0  0  0
  6  5  1  0  0  0  0
  7  2  1  0  0  0  0
 11 12  1  0  0  0  0
 11 17  1  0  0  0  0
 12  1  1  0  0  0  0
 13 18  1  0  0  0  0
 13 12  2  0  0  0  0
 14 13  1  0  0  0  0
 15 14  2  0  0  0  0
 15 16  1  0  0  0  0
 16 11  2  0  0  0  0
 19 15  1  0  0  0  0
 20 22  1  0  0  0  0
 20 21  2  0  0  0  0
 22  6  1  0  0  0  0
 23 22  1  0  0  0  0
 24 20  1  0  0  0  0
 25 24  1  0  0  0  0
 26 25  2  0  0  0  0
 27 29  1  0  0  0  0
 27 28  1  0  0  0  0
 27 25  1  0  0  0  0
 29 28  1  0  0  0  0
M  END
>  <minimizedAffinity>
-4.58285666

$$$$
