
 OpenBabel03272510313D

 26 28  0  0  0  0  0  0  0  0999 V2000
   37.4180   31.1820   49.3800 C   0  0  0  0  0  0  0  0  0  0  0  0
   38.3490   32.2020   49.4590 C   0  0  0  0  0  0  0  0  0  0  0  0
   38.7710   32.6940   48.2340 C   0  0  0  0  0  0  0  0  0  0  0  0
   38.2860   32.1880   47.0710 N   0  0  0  0  0  0  0  0  0  0  0  0
   37.3790   31.1910   47.0370 C   0  0  0  0  0  0  0  0  0  0  0  0
   36.9380   30.6780   48.2260 N   0  0  0  0  0  0  0  0  0  0  0  0
   38.6820   32.5460   50.4270 H   0  0  0  0  0  0  0  0  0  0  0  0
   39.5020   33.4970   48.2460 H   0  0  0  0  0  0  0  0  0  0  0  0
   36.8930   30.6180   50.6770 C   0  0  0  0  0  0  0  0  0  0  0  0
   36.0000   29.5100   50.7340 C   0  0  0  0  0  0  0  0  0  0  0  0
   37.4760   29.2170   50.9700 C   0  0  0  0  0  0  0  0  0  0  0  0
   36.9880   31.3280   51.5400 H   0  0  0  0  0  0  0  0  0  0  0  0
   35.3760   29.3590   51.6230 H   0  0  0  0  0  0  0  0  0  0  0  0
   35.6140   29.0190   49.8080 H   0  0  0  0  0  0  0  0  0  0  0  0
   37.8140   29.0670   51.9960 H   0  0  0  0  0  0  0  0  0  0  0  0
   38.0510   28.7210   50.1900 H   0  0  0  0  0  0  0  0  0  0  0  0
   36.8410   30.6450   45.7990 C   0  0  0  0  0  0  0  0  0  0  0  0
   35.8980   31.1070   45.4860 H   0  0  0  0  0  0  0  0  0  0  0  0
   36.7320   29.5530   45.8590 H   0  0  0  0  0  0  0  0  0  0  0  0
   37.5070   31.7020   43.6360 C   0  0  0  0  0  0  0  0  0  0  0  0
   36.3600   32.2330   43.4340 O   0  0  0  0  0  0  0  0  0  0  0  0
   37.8230   30.8960   44.7570 N   0  0  0  0  0  0  0  0  0  0  0  0
   38.7700   30.4620   44.8630 H   0  0  0  0  0  0  0  0  0  0  0  0
   38.5400   31.9750   42.6020 C   0  0  0  0  0  3  0  0  0  0  0  0
   38.4570   33.2120   41.7610 C   0  0  0  0  0  2  0  0  0  0  0  0
   39.5040   33.1150   42.8060 C   0  0  0  0  0  2  0  0  0  0  0  0
  1  2  1  0  0  0  0
  1  9  1  0  0  0  0
  2  7  1  0  0  0  0
  3  8  1  0  0  0  0
  3  2  2  0  0  0  0
  4  3  1  0  0  0  0
  5  4  2  0  0  0  0
  5  6  1  0  0  0  0
  6  1  2  0  0  0  0
  9 10  1  0  0  0  0
  9 11  1  0  0  0  0
  9 12  1  0  0  0  0
 10 11  1  0  0  0  0
 10 13  1  0  0  0  0
 11 15  1  0  0  0  0
 14 10  1  0  0  0  0
 16 11  1  0  0  0  0
 17 19  1  0  0  0  0
 17  5  1  0  0  0  0
 18 17  1  0  0  0  0
 20 22  1  0  0  0  0
 21 20  2  0  0  0  0
 22 23  1  0  0  0  0
 22 17  1  0  0  0  0
 24 26  1  0  0  0  0
 24 20  1  0  0  0  0
 25 24  1  0  0  0  0
 25 26  1  0  0  0  0
M  END
>  <minimizedAffinity>
-4.5465579

>  <minimizedRMSD>
2.82417989

$$$$
