
 OpenBabel03262521573D

 33 35  0  0  1  0  0  0  0  0999 V2000
   35.8020   27.1590   31.5950 C   0  0  1  0  0  0  0  0  0  0  0  0
   36.9990   26.6480   32.3560 C   0  0  2  0  0  0  0  0  0  0  0  0
   38.2160   27.2940   31.7930 C   0  0  0  0  0  0  0  0  0  0  0  0
   37.9420   28.1440   30.7330 O   0  0  0  0  0  0  0  0  0  0  0  0
   37.0670   29.1790   31.1030 C   0  0  0  0  0  0  0  0  0  0  0  0
   35.8080   28.6770   31.7420 C   0  0  2  0  0  0  0  0  0  0  0  0
   34.8820   26.7500   32.0530 H   0  0  0  0  0  0  0  0  0  0  0  0
   36.8410   26.9600   33.4200 H   0  0  0  0  0  0  0  0  0  0  0  0
   38.9210   26.5310   31.4020 H   0  0  0  0  0  0  0  0  0  0  0  0
   38.7140   27.9030   32.5930 H   0  0  0  0  0  0  0  0  0  0  0  0
   36.7830   29.6970   30.1550 H   0  0  0  0  0  0  0  0  0  0  0  0
   37.6250   29.8900   31.7200 H   0  0  0  0  0  0  0  0  0  0  0  0
   34.8850   29.0640   31.2470 H   0  0  0  0  0  0  0  0  0  0  0  0
   35.9220   26.8800   30.2360 O   0  0  0  0  0  0  0  0  0  0  0  0
   36.1120   25.9120   30.0930 H   0  0  0  0  0  0  0  0  0  0  0  0
   37.1290   24.8480   32.3100 S   0  0  0  0  0  0  0  0  0  0  0  0
   38.4830   24.2900   33.3600 C   0  0  0  0  0  0  0  0  0  0  0  0
   39.3760   24.1140   32.6950 H   0  0  0  0  0  0  0  0  0  0  0  0
   38.8020   25.1040   34.0510 H   0  0  0  0  0  0  0  0  0  0  0  0
   38.1530   22.7460   34.2010 S   0  0  0  0  0  0  0  0  0  0  0  0
   38.4760   22.9680   35.9460 C   0  0  0  0  0  0  0  0  0  0  0  0
   39.7030   22.5020   36.3670 C   0  0  0  0  0  0  0  0  0  0  0  0
   40.0380   22.6340   37.7180 C   0  0  0  0  0  0  0  0  0  0  0  0
   39.1160   23.2260   38.5500 N   0  0  0  0  0  0  0  0  0  0  0  0
   37.9320   23.6610   38.0780 C   0  0  0  0  0  0  0  0  0  0  0  0
   37.6240   23.5310   36.7970 N   0  0  0  0  0  0  0  0  0  0  0  0
   40.4530   22.0320   35.7480 H   0  0  0  0  0  0  0  0  0  0  0  0
   41.0050   22.2760   38.0900 H   0  0  0  0  0  0  0  0  0  0  0  0
   37.2280   24.1230   38.7570 H   0  0  0  0  0  0  0  0  0  0  0  0
   35.8210   28.9200   33.1060 O   0  0  0  0  0  0  0  0  0  0  0  0
   35.0630   29.9860   33.5110 C   0  0  0  0  0  3  0  0  0  0  0  0
   34.2010   29.9670   34.7010 C   0  0  0  0  0  2  0  0  0  0  0  0
   35.5580   30.6130   34.8280 C   0  0  0  0  0  2  0  0  0  0  0  0
  1  6  1  0  0  0  0
  1  7  1  1  0  0  0
  1  2  1  0  0  0  0
  2  8  1  1  0  0  0
  3  2  1  0  0  0  0
  3 10  1  0  0  0  0
  4  5  1  0  0  0  0
  4  3  1  0  0  0  0
  5 12  1  0  0  0  0
  5  6  1  0  0  0  0
  6 13  1  6  0  0  0
  6 30  1  0  0  0  0
  9  3  1  0  0  0  0
 11  5  1  0  0  0  0
 14  1  1  0  0  0  0
 15 14  1  0  0  0  0
 16  2  1  0  0  0  0
 16 17  1  0  0  0  0
 17 19  1  0  0  0  0
 17 20  1  0  0  0  0
 18 17  1  0  0  0  0
 20 21  1  0  0  0  0
 21 22  2  0  0  0  0
 21 26  1  0  0  0  0
 22 23  1  0  0  0  0
 23 28  1  0  0  0  0
 23 24  2  0  0  0  0
 25 24  1  0  0  0  0
 25 29  1  0  0  0  0
 26 25  2  0  0  0  0
 27 22  1  0  0  0  0
 30 31  1  0  0  0  0
 31 32  1  0  0  0  0
 31 33  1  0  0  0  0
 32 33  1  0  0  0  0
M  END
>  <minimizedAffinity>
-4.60511208

$$$$

 OpenBabel03262521573D

 33 35  0  0  1  0  0  0  0  0999 V2000
   37.7410   23.4600   30.9780 C   0  0  1  0  0  0  0  0  0  0  0  0
   38.1470   24.0620   32.2990 C   0  0  2  0  0  0  0  0  0  0  0  0
   37.1450   25.1020   32.6610 C   0  0  0  0  0  0  0  0  0  0  0  0
   36.1530   25.2600   31.7070 O   0  0  0  0  0  0  0  0  0  0  0  0
   35.4410   24.0680   31.4880 C   0  0  0  0  0  0  0  0  0  0  0  0
   36.3330   22.9080   31.1650 C   0  0  2  0  0  0  0  0  0  0  0  0
   38.4310   22.6310   30.7320 H   0  0  0  0  0  0  0  0  0  0  0  0
   38.1290   23.2200   33.0370 H   0  0  0  0  0  0  0  0  0  0  0  0
   37.6300   26.0950   32.7690 H   0  0  0  0  0  0  0  0  0  0  0  0
   36.6450   24.8120   33.6230 H   0  0  0  0  0  0  0  0  0  0  0  0
   34.7920   24.2550   30.5990 H   0  0  0  0  0  0  0  0  0  0  0  0
   34.7890   23.8990   32.3510 H   0  0  0  0  0  0  0  0  0  0  0  0
   36.0480   22.3910   30.2170 H   0  0  0  0  0  0  0  0  0  0  0  0
   37.6690   24.4380   29.9880 O   0  0  0  0  0  0  0  0  0  0  0  0
   38.5140   24.9640   29.9530 H   0  0  0  0  0  0  0  0  0  0  0  0
   39.8180   24.7440   32.2630 S   0  0  0  0  0  0  0  0  0  0  0  0
   40.8050   24.0570   33.6050 C   0  0  0  0  0  0  0  0  0  0  0  0
   41.8160   23.7950   33.1820 H   0  0  0  0  0  0  0  0  0  0  0  0
   41.0150   24.8370   34.3730 H   0  0  0  0  0  0  0  0  0  0  0  0
   40.1290   22.5540   34.3000 S   0  0  0  0  0  0  0  0  0  0  0  0
   39.3230   22.9530   35.8460 C   0  0  0  0  0  0  0  0  0  0  0  0
   40.0920   22.7280   36.9680 C   0  0  0  0  0  0  0  0  0  0  0  0
   39.5400   23.0120   38.2210 C   0  0  0  0  0  0  0  0  0  0  0  0
   38.2560   23.5020   38.2570 N   0  0  0  0  0  0  0  0  0  0  0  0
   37.5540   23.6990   37.1240 C   0  0  0  0  0  0  0  0  0  0  0  0
   38.0850   23.4270   35.9420 N   0  0  0  0  0  0  0  0  0  0  0  0
   41.1030   22.3460   36.9840 H   0  0  0  0  0  0  0  0  0  0  0  0
   40.1210   22.8480   39.1360 H   0  0  0  0  0  0  0  0  0  0  0  0
   36.5460   24.0850   37.1850 H   0  0  0  0  0  0  0  0  0  0  0  0
   36.4130   22.0370   32.2400 O   0  0  0  0  0  0  0  0  0  0  0  0
   35.2390   21.4160   32.5710 C   0  0  0  0  0  3  0  0  0  0  0  0
   34.8110   20.1290   32.0070 C   0  0  0  0  0  2  0  0  0  0  0  0
   35.4470   20.1190   33.3740 C   0  0  0  0  0  2  0  0  0  0  0  0
  1  7  1  6  0  0  0
  1  6  1  0  0  0  0
  1  2  1  0  0  0  0
  2  3  1  0  0  0  0
  2  8  1  1  0  0  0
  3  9  1  0  0  0  0
  3 10  1  0  0  0  0
  4  3  1  0  0  0  0
  5  4  1  0  0  0  0
  5 12  1  0  0  0  0
  6 13  1  6  0  0  0
  6  5  1  0  0  0  0
  6 30  1  0  0  0  0
 11  5  1  0  0  0  0
 14  1  1  0  0  0  0
 15 14  1  0  0  0  0
 16  2  1  0  0  0  0
 16 17  1  0  0  0  0
 17 20  1  0  0  0  0
 17 19  1  0  0  0  0
 18 17  1  0  0  0  0
 20 21  1  0  0  0  0
 21 26  2  0  0  0  0
 21 22  1  0  0  0  0
 22 27  1  0  0  0  0
 22 23  2  0  0  0  0
 23 24  1  0  0  0  0
 23 28  1  0  0  0  0
 25 29  1  0  0  0  0
 25 24  2  0  0  0  0
 26 25  1  0  0  0  0
 30 31  1  0  0  0  0
 31 33  1  0  0  0  0
 32 31  1  0  0  0  0
 32 33  1  0  0  0  0
M  END
>  <minimizedAffinity>
-4.58980131

$$$$

 OpenBabel03262521573D

 33 35  0  0  1  0  0  0  0  0999 V2000
   37.6470   23.6290   31.0730 C   0  0  1  0  0  0  0  0  0  0  0  0
   37.9730   24.2970   32.3840 C   0  0  2  0  0  0  0  0  0  0  0  0
   36.9110   25.3000   32.6690 C   0  0  0  0  0  0  0  0  0  0  0  0
   35.9490   25.3760   31.6740 O   0  0  0  0  0  0  0  0  0  0  0  0
   35.3030   24.1440   31.4740 C   0  0  0  0  0  0  0  0  0  0  0  0
   36.2590   23.0170   31.2290 C   0  0  2  0  0  0  0  0  0  0  0  0
   38.3830   22.8250   30.8840 H   0  0  0  0  0  0  0  0  0  0  0  0
   37.9660   23.4820   33.1520 H   0  0  0  0  0  0  0  0  0  0  0  0
   37.3440   26.3180   32.7580 H   0  0  0  0  0  0  0  0  0  0  0  0
   36.3870   25.0210   33.6230 H   0  0  0  0  0  0  0  0  0  0  0  0
   34.6800   24.2680   30.5560 H   0  0  0  0  0  0  0  0  0  0  0  0
   34.6260   23.9760   32.3190 H   0  0  0  0  0  0  0  0  0  0  0  0
   36.0350   22.4540   30.2910 H   0  0  0  0  0  0  0  0  0  0  0  0
   37.5670   24.5660   30.0450 O   0  0  0  0  0  0  0  0  0  0  0  0
   38.3880   25.1300   30.0210 H   0  0  0  0  0  0  0  0  0  0  0  0
   39.6110   25.0560   32.3840 S   0  0  0  0  0  0  0  0  0  0  0  0
   39.5610   26.6570   33.2080 C   0  0  0  0  0  0  0  0  0  0  0  0
   40.2820   27.3370   32.6720 H   0  0  0  0  0  0  0  0  0  0  0  0
   38.5640   27.1370   33.0690 H   0  0  0  0  0  0  0  0  0  0  0  0
   40.0780   26.6020   34.9200 S   0  0  0  0  0  0  0  0  0  0  0  0
   39.4060   25.1250   35.6710 C   0  0  0  0  0  0  0  0  0  0  0  0
   38.1490   25.2790   36.2160 C   0  0  0  0  0  0  0  0  0  0  0  0
   37.5480   24.1740   36.8250 C   0  0  0  0  0  0  0  0  0  0  0  0
   38.2520   22.9920   36.8430 N   0  0  0  0  0  0  0  0  0  0  0  0
   39.4780   22.9050   36.2940 C   0  0  0  0  0  0  0  0  0  0  0  0
   40.0400   23.9580   35.7190 N   0  0  0  0  0  0  0  0  0  0  0  0
   37.5630   26.1870   36.2230 H   0  0  0  0  0  0  0  0  0  0  0  0
   36.5480   24.2570   37.2690 H   0  0  0  0  0  0  0  0  0  0  0  0
   40.0070   21.9620   36.3250 H   0  0  0  0  0  0  0  0  0  0  0  0
   36.3380   22.1900   32.3380 O   0  0  0  0  0  0  0  0  0  0  0  0
   35.2230   21.4320   32.5760 C   0  0  0  0  0  3  0  0  0  0  0  0
   34.9860   20.1180   31.9650 C   0  0  0  0  0  2  0  0  0  0  0  0
   35.5240   20.1500   33.3730 C   0  0  0  0  0  2  0  0  0  0  0  0
  1  7  1  6  0  0  0
  1  6  1  0  0  0  0
  1  2  1  0  0  0  0
  2  3  1  0  0  0  0
  2  8  1  1  0  0  0
  3  9  1  0  0  0  0
  3 10  1  0  0  0  0
  4  3  1  0  0  0  0
  5  4  1  0  0  0  0
  5 12  1  0  0  0  0
  6 13  1  6  0  0  0
  6  5  1  0  0  0  0
  6 30  1  0  0  0  0
 11  5  1  0  0  0  0
 14  1  1  0  0  0  0
 15 14  1  0  0  0  0
 16  2  1  0  0  0  0
 16 17  1  0  0  0  0
 17 20  1  0  0  0  0
 18 17  1  0  0  0  0
 19 17  1  0  0  0  0
 20 21  1  0  0  0  0
 21 26  2  0  0  0  0
 21 22  1  0  0  0  0
 22 27  1  0  0  0  0
 22 23  2  0  0  0  0
 23 24  1  0  0  0  0
 23 28  1  0  0  0  0
 25 29  1  0  0  0  0
 25 24  2  0  0  0  0
 26 25  1  0  0  0  0
 30 31  1  0  0  0  0
 31 33  1  0  0  0  0
 32 31  1  0  0  0  0
 32 33  1  0  0  0  0
M  END
>  <minimizedAffinity>
-4.55460644

$$$$

 OpenBabel03262521573D

 33 35  0  0  1  0  0  0  0  0999 V2000
   39.1030   22.3940   36.0800 C   0  0  1  0  0  0  0  0  0  0  0  0
   39.0070   23.8110   35.5750 C   0  0  2  0  0  0  0  0  0  0  0  0
   38.3350   24.6300   36.6210 C   0  0  0  0  0  0  0  0  0  0  0  0
   37.9580   23.8940   37.7330 O   0  0  0  0  0  0  0  0  0  0  0  0
   39.0590   23.2740   38.3480 C   0  0  0  0  0  0  0  0  0  0  0  0
   39.8720   22.4510   37.3950 C   0  0  2  0  0  0  0  0  0  0  0  0
   39.6720   21.7890   35.3490 H   0  0  0  0  0  0  0  0  0  0  0  0
   40.0630   24.1530   35.4220 H   0  0  0  0  0  0  0  0  0  0  0  0
   37.4040   25.0880   36.2240 H   0  0  0  0  0  0  0  0  0  0  0  0
   39.0380   25.4330   36.9700 H   0  0  0  0  0  0  0  0  0  0  0  0
   38.6340   22.5830   39.1160 H   0  0  0  0  0  0  0  0  0  0  0  0
   39.6340   24.0440   38.8710 H   0  0  0  0  0  0  0  0  0  0  0  0
   40.0170   21.4000   37.7430 H   0  0  0  0  0  0  0  0  0  0  0  0
   37.8400   21.8830   36.3660 O   0  0  0  0  0  0  0  0  0  0  0  0
   37.2310   21.9970   35.5860 H   0  0  0  0  0  0  0  0  0  0  0  0
   38.1440   23.9250   33.9940 S   0  0  0  0  0  0  0  0  0  0  0  0
   38.8980   22.8200   32.7870 C   0  0  0  0  0  0  0  0  0  0  0  0
   39.9830   23.1100   32.6940 H   0  0  0  0  0  0  0  0  0  0  0  0
   38.9180   21.7750   33.1730 H   0  0  0  0  0  0  0  0  0  0  0  0
   38.1870   22.9490   31.1500 S   0  0  0  0  0  0  0  0  0  0  0  0
   37.2850   24.4900   31.0400 C   0  0  0  0  0  0  0  0  0  0  0  0
   35.9130   24.3530   31.0420 C   0  0  0  0  0  0  0  0  0  0  0  0
   35.1290   25.5080   30.9590 C   0  0  0  0  0  0  0  0  0  0  0  0
   35.7790   26.7170   30.8800 N   0  0  0  0  0  0  0  0  0  0  0  0
   37.1240   26.7850   30.8810 C   0  0  0  0  0  0  0  0  0  0  0  0
   37.8580   25.6860   30.9610 N   0  0  0  0  0  0  0  0  0  0  0  0
   35.3640   23.4240   31.1030 H   0  0  0  0  0  0  0  0  0  0  0  0
   34.0340   25.4390   30.9580 H   0  0  0  0  0  0  0  0  0  0  0  0
   37.6060   27.7510   30.8180 H   0  0  0  0  0  0  0  0  0  0  0  0
   41.0700   23.0830   37.1010 O   0  0  0  0  0  0  0  0  0  0  0  0
   42.0890   22.2470   36.7320 C   0  0  0  0  0  3  0  0  0  0  0  0
   42.6730   22.2210   35.3840 C   0  0  0  0  0  2  0  0  0  0  0  0
   43.4080   22.9910   36.4520 C   0  0  0  0  0  2  0  0  0  0  0  0
  1  7  1  6  0  0  0
  1 14  1  0  0  0  0
  1  6  1  0  0  0  0
  2  8  1  6  0  0  0
  2  1  1  0  0  0  0
  2  3  1  0  0  0  0
  3 10  1  0  0  0  0
  3  4  1  0  0  0  0
  4  5  1  0  0  0  0
  5 12  1  0  0  0  0
  5 11  1  0  0  0  0
  6 13  1  1  0  0  0
  6  5  1  0  0  0  0
  9  3  1  0  0  0  0
 15 14  1  0  0  0  0
 16  2  1  0  0  0  0
 17 19  1  0  0  0  0
 17 16  1  0  0  0  0
 18 17  1  0  0  0  0
 20 17  1  0  0  0  0
 21 22  1  0  0  0  0
 21 20  1  0  0  0  0
 22 27  1  0  0  0  0
 23 22  2  0  0  0  0
 24 25  2  0  0  0  0
 24 23  1  0  0  0  0
 25 26  1  0  0  0  0
 26 21  2  0  0  0  0
 28 23  1  0  0  0  0
 29 25  1  0  0  0  0
 30  6  1  0  0  0  0
 31 30  1  0  0  0  0
 32 33  1  0  0  0  0
 32 31  1  0  0  0  0
 33 31  1  0  0  0  0
M  END
>  <minimizedAffinity>
-4.37664318

$$$$

 OpenBabel03262521573D

 33 35  0  0  1  0  0  0  0  0999 V2000
   36.6100   25.2480   32.1040 C   0  0  1  0  0  0  0  0  0  0  0  0
   37.8400   24.3940   32.2700 C   0  0  2  0  0  0  0  0  0  0  0  0
   38.9880   25.1100   31.6480 C   0  0  0  0  0  0  0  0  0  0  0  0
   38.6300   26.3190   31.0730 O   0  0  0  0  0  0  0  0  0  0  0  0
   38.0620   27.1980   32.0100 C   0  0  0  0  0  0  0  0  0  0  0  0
   36.9180   26.5890   32.7620 C   0  0  2  0  0  0  0  0  0  0  0  0
   35.7630   24.7680   32.6310 H   0  0  0  0  0  0  0  0  0  0  0  0
   37.9910   24.2860   33.3740 H   0  0  0  0  0  0  0  0  0  0  0  0
   39.4370   24.5020   30.8350 H   0  0  0  0  0  0  0  0  0  0  0  0
   39.7580   25.3260   32.4360 H   0  0  0  0  0  0  0  0  0  0  0  0
   37.6630   28.0600   31.4230 H   0  0  0  0  0  0  0  0  0  0  0  0
   38.8650   27.5740   32.6530 H   0  0  0  0  0  0  0  0  0  0  0  0
   35.9890   27.2060   32.7140 H   0  0  0  0  0  0  0  0  0  0  0  0
   36.3590   25.5020   30.7580 O   0  0  0  0  0  0  0  0  0  0  0  0
   36.3360   24.6510   30.2400 H   0  0  0  0  0  0  0  0  0  0  0  0
   37.6350   22.7440   31.5660 S   0  0  0  0  0  0  0  0  0  0  0  0
   38.1110   21.4870   32.7660 C   0  0  0  0  0  0  0  0  0  0  0  0
   37.2860   21.4180   33.5300 H   0  0  0  0  0  0  0  0  0  0  0  0
   38.1370   20.4810   32.2880 H   0  0  0  0  0  0  0  0  0  0  0  0
   39.6120   21.8760   33.6590 S   0  0  0  0  0  0  0  0  0  0  0  0
   39.1690   22.4640   35.2890 C   0  0  0  0  0  0  0  0  0  0  0  0
   40.1640   22.3390   36.2350 C   0  0  0  0  0  0  0  0  0  0  0  0
   39.9030   22.7740   37.5380 C   0  0  0  0  0  0  0  0  0  0  0  0
   38.6610   23.3040   37.7970 N   0  0  0  0  0  0  0  0  0  0  0  0
   37.7290   23.3990   36.8300 C   0  0  0  0  0  0  0  0  0  0  0  0
   37.9860   22.9840   35.5980 N   0  0  0  0  0  0  0  0  0  0  0  0
   41.1510   21.9290   36.0730 H   0  0  0  0  0  0  0  0  0  0  0  0
   40.6700   22.6910   38.3170 H   0  0  0  0  0  0  0  0  0  0  0  0
   36.7620   23.8210   37.0650 H   0  0  0  0  0  0  0  0  0  0  0  0
   37.2900   26.2900   34.0630 O   0  0  0  0  0  0  0  0  0  0  0  0
   38.2160   27.1370   34.6100 C   0  0  0  0  0  3  0  0  0  0  0  0
   38.4540   27.2610   36.0540 C   0  0  0  0  0  2  0  0  0  0  0  0
   39.4020   26.4000   35.2580 C   0  0  0  0  0  2  0  0  0  0  0  0
  1  2  1  0  0  0  0
  1  7  1  1  0  0  0
  1  6  1  0  0  0  0
  2  8  1  1  0  0  0
  3  2  1  0  0  0  0
  3 10  1  0  0  0  0
  4  3  1  0  0  0  0
  4  5  1  0  0  0  0
  5 12  1  0  0  0  0
  5  6  1  0  0  0  0
  6 13  1  6  0  0  0
  6 30  1  0  0  0  0
  9  3  1  0  0  0  0
 11  5  1  0  0  0  0
 14  1  1  0  0  0  0
 15 14  1  0  0  0  0
 16  2  1  0  0  0  0
 16 17  1  0  0  0  0
 17 18  1  0  0  0  0
 17 20  1  0  0  0  0
 19 17  1  0  0  0  0
 20 21  1  0  0  0  0
 21 26  2  0  0  0  0
 21 22  1  0  0  0  0
 22 23  2  0  0  0  0
 23 24  1  0  0  0  0
 23 28  1  0  0  0  0
 25 29  1  0  0  0  0
 25 24  2  0  0  0  0
 26 25  1  0  0  0  0
 27 22  1  0  0  0  0
 30 31  1  0  0  0  0
 31 33  1  0  0  0  0
 31 32  1  0  0  0  0
 33 32  1  0  0  0  0
M  END
>  <minimizedAffinity>
-4.35328436

$$$$

 OpenBabel03262521573D

 33 35  0  0  1  0  0  0  0  0999 V2000
   39.5000   23.6460   35.3850 C   0  0  1  0  0  0  0  0  0  0  0  0
   38.6140   23.2420   34.2340 C   0  0  2  0  0  0  0  0  0  0  0  0
   37.6310   22.2430   34.7350 C   0  0  0  0  0  0  0  0  0  0  0  0
   37.8010   21.9340   36.0750 O   0  0  0  0  0  0  0  0  0  0  0  0
   37.6810   23.0690   36.8950 C   0  0  0  0  0  0  0  0  0  0  0  0
   38.5800   24.1910   36.4720 C   0  0  2  0  0  0  0  0  0  0  0  0
   40.1850   24.4470   35.0490 H   0  0  0  0  0  0  0  0  0  0  0  0
   38.0950   24.1780   33.9040 H   0  0  0  0  0  0  0  0  0  0  0  0
   37.7280   21.2850   34.1830 H   0  0  0  0  0  0  0  0  0  0  0  0
   36.5930   22.6530   34.6130 H   0  0  0  0  0  0  0  0  0  0  0  0
   37.9960   22.7480   37.9160 H   0  0  0  0  0  0  0  0  0  0  0  0
   36.6220   23.3430   36.9410 H   0  0  0  0  0  0  0  0  0  0  0  0
   39.2280   24.5650   37.3010 H   0  0  0  0  0  0  0  0  0  0  0  0
   40.1540   22.5390   35.9200 O   0  0  0  0  0  0  0  0  0  0  0  0
   40.6240   22.0300   35.2040 H   0  0  0  0  0  0  0  0  0  0  0  0
   39.5530   22.5950   32.8340 S   0  0  0  0  0  0  0  0  0  0  0  0
   39.0050   23.3670   31.3010 C   0  0  0  0  0  0  0  0  0  0  0  0
   39.4020   24.4220   31.2920 H   0  0  0  0  0  0  0  0  0  0  0  0
   39.4870   22.8770   30.4240 H   0  0  0  0  0  0  0  0  0  0  0  0
   37.2260   23.4820   31.1490 S   0  0  0  0  0  0  0  0  0  0  0  0
   36.5380   21.8340   31.2380 C   0  0  0  0  0  0  0  0  0  0  0  0
   35.3610   21.7410   31.9500 C   0  0  0  0  0  0  0  0  0  0  0  0
   34.7540   20.4870   32.0710 C   0  0  0  0  0  0  0  0  0  0  0  0
   35.3720   19.4170   31.4680 N   0  0  0  0  0  0  0  0  0  0  0  0
   36.5230   19.5720   30.7850 C   0  0  0  0  0  0  0  0  0  0  0  0
   37.0910   20.7640   30.6770 N   0  0  0  0  0  0  0  0  0  0  0  0
   34.8450   22.5540   32.4380 H   0  0  0  0  0  0  0  0  0  0  0  0
   33.8170   20.3740   32.6290 H   0  0  0  0  0  0  0  0  0  0  0  0
   36.9850   18.7110   30.3220 H   0  0  0  0  0  0  0  0  0  0  0  0
   37.8500   25.2040   35.8700 O   0  0  0  0  0  0  0  0  0  0  0  0
   38.2930   26.4720   36.1350 C   0  0  0  0  0  3  0  0  0  0  0  0
   39.1300   27.2520   35.2130 C   0  0  0  0  0  2  0  0  0  0  0  0
   37.6490   27.5380   35.2290 C   0  0  0  0  0  2  0  0  0  0  0  0
  1  7  1  6  0  0  0
  1 14  1  0  0  0  0
  1  6  1  0  0  0  0
  2  8  1  6  0  0  0
  2  3  1  0  0  0  0
  2  1  1  0  0  0  0
  3  4  1  0  0  0  0
  4  5  1  0  0  0  0
  5 12  1  0  0  0  0
  5 11  1  0  0  0  0
  6  5  1  0  0  0  0
  6 13  1  1  0  0  0
  9  3  1  0  0  0  0
 10  3  1  0  0  0  0
 15 14  1  0  0  0  0
 16  2  1  0  0  0  0
 17 16  1  0  0  0  0
 18 17  1  0  0  0  0
 19 17  1  0  0  0  0
 20 21  1  0  0  0  0
 20 17  1  0  0  0  0
 21 22  1  0  0  0  0
 22 23  2  0  0  0  0
 22 27  1  0  0  0  0
 23 28  1  0  0  0  0
 24 23  1  0  0  0  0
 25 24  2  0  0  0  0
 26 25  1  0  0  0  0
 26 21  2  0  0  0  0
 29 25  1  0  0  0  0
 30 31  1  0  0  0  0
 30  6  1  0  0  0  0
 32 33  1  0  0  0  0
 32 31  1  0  0  0  0
 33 31  1  0  0  0  0
M  END
>  <minimizedAffinity>
-4.31031609

$$$$

 OpenBabel03262521573D

 33 35  0  0  1  0  0  0  0  0999 V2000
   38.9730   22.3940   35.9420 C   0  0  1  0  0  0  0  0  0  0  0  0
   38.9290   23.8110   35.4310 C   0  0  2  0  0  0  0  0  0  0  0  0
   38.3000   24.6620   36.4780 C   0  0  0  0  0  0  0  0  0  0  0  0
   37.9060   23.9470   37.5980 O   0  0  0  0  0  0  0  0  0  0  0  0
   38.9860   23.2860   38.2060 C   0  0  0  0  0  0  0  0  0  0  0  0
   39.7560   22.4270   37.2500 C   0  0  2  0  0  0  0  0  0  0  0  0
   39.5100   21.7620   35.2090 H   0  0  0  0  0  0  0  0  0  0  0  0
   39.9960   24.1100   35.2650 H   0  0  0  0  0  0  0  0  0  0  0  0
   37.3850   25.1540   36.0880 H   0  0  0  0  0  0  0  0  0  0  0  0
   39.0380   25.4370   36.8150 H   0  0  0  0  0  0  0  0  0  0  0  0
   38.5420   22.6170   38.9820 H   0  0  0  0  0  0  0  0  0  0  0  0
   39.5970   24.0360   38.7190 H   0  0  0  0  0  0  0  0  0  0  0  0
   39.8620   21.3720   37.6020 H   0  0  0  0  0  0  0  0  0  0  0  0
   37.6930   21.9350   36.2440 O   0  0  0  0  0  0  0  0  0  0  0  0
   37.0810   22.0690   35.4680 H   0  0  0  0  0  0  0  0  0  0  0  0
   38.0550   23.9510   33.8570 S   0  0  0  0  0  0  0  0  0  0  0  0
   38.9140   23.0170   32.5770 C   0  0  0  0  0  0  0  0  0  0  0  0
   39.8290   23.6050   32.2850 H   0  0  0  0  0  0  0  0  0  0  0  0
   39.3130   22.0630   32.9920 H   0  0  0  0  0  0  0  0  0  0  0  0
   37.9510   22.7850   31.0880 S   0  0  0  0  0  0  0  0  0  0  0  0
   36.7390   21.5040   31.3860 C   0  0  0  0  0  0  0  0  0  0  0  0
   37.0250   20.2930   30.7920 C   0  0  0  0  0  0  0  0  0  0  0  0
   36.1290   19.2350   30.9730 C   0  0  0  0  0  0  0  0  0  0  0  0
   35.0110   19.4680   31.7380 N   0  0  0  0  0  0  0  0  0  0  0  0
   34.7860   20.6750   32.2920 C   0  0  0  0  0  0  0  0  0  0  0  0
   35.6400   21.6720   32.1150 N   0  0  0  0  0  0  0  0  0  0  0  0
   37.8900   20.0680   30.1850 H   0  0  0  0  0  0  0  0  0  0  0  0
   36.3230   18.2570   30.5170 H   0  0  0  0  0  0  0  0  0  0  0  0
   33.8970   20.8280   32.8890 H   0  0  0  0  0  0  0  0  0  0  0  0
   40.9750   23.0080   36.9400 O   0  0  0  0  0  0  0  0  0  0  0  0
   42.0100   22.1290   36.7720 C   0  0  0  0  0  3  0  0  0  0  0  0
   42.6620   21.8750   35.4800 C   0  0  0  0  0  2  0  0  0  0  0  0
   43.3430   22.8210   36.4340 C   0  0  0  0  0  2  0  0  0  0  0  0
  1  7  1  6  0  0  0
  1 14  1  0  0  0  0
  1  6  1  0  0  0  0
  2  8  1  6  0  0  0
  2  1  1  0  0  0  0
  2  3  1  0  0  0  0
  3 10  1  0  0  0  0
  3  4  1  0  0  0  0
  4  5  1  0  0  0  0
  5 12  1  0  0  0  0
  5 11  1  0  0  0  0
  6 13  1  1  0  0  0
  6  5  1  0  0  0  0
  9  3  1  0  0  0  0
 15 14  1  0  0  0  0
 16  2  1  0  0  0  0
 17 19  1  0  0  0  0
 17 16  1  0  0  0  0
 18 17  1  0  0  0  0
 20 21  1  0  0  0  0
 20 17  1  0  0  0  0
 21 26  1  0  0  0  0
 22 23  1  0  0  0  0
 22 21  2  0  0  0  0
 23 24  2  0  0  0  0
 24 25  1  0  0  0  0
 25 29  1  0  0  0  0
 26 25  2  0  0  0  0
 27 22  1  0  0  0  0
 28 23  1  0  0  0  0
 30  6  1  0  0  0  0
 31 30  1  0  0  0  0
 32 33  1  0  0  0  0
 32 31  1  0  0  0  0
 33 31  1  0  0  0  0
M  END
>  <minimizedAffinity>
-4.30783939

$$$$

 OpenBabel03262521573D

 33 35  0  0  1  0  0  0  0  0999 V2000
   37.9590   26.6820   31.5050 C   0  0  1  0  0  0  0  0  0  0  0  0
   36.6410   27.4100   31.4450 C   0  0  2  0  0  0  0  0  0  0  0  0
   35.5760   26.4140   31.1470 C   0  0  0  0  0  0  0  0  0  0  0  0
   36.0630   25.1280   30.9790 O   0  0  0  0  0  0  0  0  0  0  0  0
   36.7400   24.6690   32.1210 C   0  0  0  0  0  0  0  0  0  0  0  0
   37.8160   25.6070   32.5770 C   0  0  2  0  0  0  0  0  0  0  0  0
   38.7510   27.3950   31.8050 H   0  0  0  0  0  0  0  0  0  0  0  0
   36.4920   27.8580   32.4620 H   0  0  0  0  0  0  0  0  0  0  0  0
   35.0490   26.6710   30.2040 H   0  0  0  0  0  0  0  0  0  0  0  0
   34.8450   26.3890   32.0000 H   0  0  0  0  0  0  0  0  0  0  0  0
   37.2290   23.7090   31.8260 H   0  0  0  0  0  0  0  0  0  0  0  0
   35.9940   24.4430   32.8900 H   0  0  0  0  0  0  0  0  0  0  0  0
   38.8090   25.1090   32.6860 H   0  0  0  0  0  0  0  0  0  0  0  0
   38.2210   26.0290   30.3040 O   0  0  0  0  0  0  0  0  0  0  0  0
   38.1390   26.6600   29.5370 H   0  0  0  0  0  0  0  0  0  0  0  0
   36.6460   28.7500   30.2360 S   0  0  0  0  0  0  0  0  0  0  0  0
   35.9790   30.2560   30.9650 C   0  0  0  0  0  0  0  0  0  0  0  0
   36.8480   30.9400   31.1840 H   0  0  0  0  0  0  0  0  0  0  0  0
   35.3640   30.8120   30.2200 H   0  0  0  0  0  0  0  0  0  0  0  0
   35.1270   29.9900   32.5160 S   0  0  0  0  0  0  0  0  0  0  0  0
   35.6610   31.2380   33.6810 C   0  0  0  0  0  0  0  0  0  0  0  0
   35.4400   30.9180   35.0040 C   0  0  0  0  0  0  0  0  0  0  0  0
   35.8270   31.8390   35.9840 C   0  0  0  0  0  0  0  0  0  0  0  0
   36.4080   33.0120   35.5640 N   0  0  0  0  0  0  0  0  0  0  0  0
   36.5950   33.2670   34.2550 C   0  0  0  0  0  0  0  0  0  0  0  0
   36.2260   32.3890   33.3340 N   0  0  0  0  0  0  0  0  0  0  0  0
   34.9890   30.0100   35.3750 H   0  0  0  0  0  0  0  0  0  0  0  0
   35.6690   31.6200   37.0460 H   0  0  0  0  0  0  0  0  0  0  0  0
   37.0550   34.1990   33.9560 H   0  0  0  0  0  0  0  0  0  0  0  0
   37.4280   26.2760   33.7270 O   0  0  0  0  0  0  0  0  0  0  0  0
   38.2820   26.1440   34.7890 C   0  0  0  0  0  3  0  0  0  0  0  0
   39.4810   26.9710   34.9770 C   0  0  0  0  0  2  0  0  0  0  0  0
   38.2420   27.3480   35.7490 C   0  0  0  0  0  2  0  0  0  0  0  0
  1  7  1  1  0  0  0
  1  6  1  0  0  0  0
  2  1  1  0  0  0  0
  2  8  1  1  0  0  0
  3  2  1  0  0  0  0
  3 10  1  0  0  0  0
  4  3  1  0  0  0  0
  4  5  1  0  0  0  0
  5  6  1  0  0  0  0
  5 12  1  0  0  0  0
  6 13  1  1  0  0  0
  6 30  1  0  0  0  0
  9  3  1  0  0  0  0
 11  5  1  0  0  0  0
 14  1  1  0  0  0  0
 15 14  1  0  0  0  0
 16 17  1  0  0  0  0
 16  2  1  0  0  0  0
 17 18  1  0  0  0  0
 17 20  1  0  0  0  0
 19 17  1  0  0  0  0
 20 21  1  0  0  0  0
 21 22  1  0  0  0  0
 22 27  1  0  0  0  0
 22 23  2  0  0  0  0
 23 28  1  0  0  0  0
 24 23  1  0  0  0  0
 25 24  2  0  0  0  0
 26 21  2  0  0  0  0
 26 25  1  0  0  0  0
 29 25  1  0  0  0  0
 30 31  1  0  0  0  0
 31 32  1  0  0  0  0
 31 33  1  0  0  0  0
 32 33  1  0  0  0  0
M  END
>  <minimizedAffinity>
-4.2700572

$$$$

 OpenBabel03262521573D

 33 35  0  0  1  0  0  0  0  0999 V2000
   37.7650   26.0890   33.8970 C   0  0  1  0  0  0  0  0  0  0  0  0
   39.1830   25.6320   33.6670 C   0  0  2  0  0  0  0  0  0  0  0  0
   40.0820   26.4800   34.4960 C   0  0  0  0  0  0  0  0  0  0  0  0
   39.4070   27.4540   35.2140 O   0  0  0  0  0  0  0  0  0  0  0  0
   38.4550   26.8970   36.0860 C   0  0  0  0  0  0  0  0  0  0  0  0
   37.5050   25.9670   35.3950 C   0  0  2  0  0  0  0  0  0  0  0  0
   37.0760   25.4170   33.3500 H   0  0  0  0  0  0  0  0  0  0  0  0
   39.2190   24.5650   34.0070 H   0  0  0  0  0  0  0  0  0  0  0  0
   40.8130   27.0180   33.8580 H   0  0  0  0  0  0  0  0  0  0  0  0
   40.6230   25.8310   35.2350 H   0  0  0  0  0  0  0  0  0  0  0  0
   37.8620   27.7560   36.4830 H   0  0  0  0  0  0  0  0  0  0  0  0
   38.9900   26.4420   36.9250 H   0  0  0  0  0  0  0  0  0  0  0  0
   36.4340   26.2300   35.5700 H   0  0  0  0  0  0  0  0  0  0  0  0
   37.6160   27.4330   33.5640 O   0  0  0  0  0  0  0  0  0  0  0  0
   37.9550   27.6050   32.6430 H   0  0  0  0  0  0  0  0  0  0  0  0
   39.6510   25.6830   31.9250 S   0  0  0  0  0  0  0  0  0  0  0  0
   39.2940   24.1050   31.1320 C   0  0  0  0  0  0  0  0  0  0  0  0
   39.8370   24.0910   30.1450 H   0  0  0  0  0  0  0  0  0  0  0  0
   39.7430   23.2660   31.7120 H   0  0  0  0  0  0  0  0  0  0  0  0
   37.5590   23.8560   30.7720 S   0  0  0  0  0  0  0  0  0  0  0  0
   36.8920   22.6920   31.9540 C   0  0  0  0  0  0  0  0  0  0  0  0
   35.6970   22.1150   31.5800 C   0  0  0  0  0  0  0  0  0  0  0  0
   35.1040   21.1920   32.4470 C   0  0  0  0  0  0  0  0  0  0  0  0
   35.7530   20.9150   33.6270 N   0  0  0  0  0  0  0  0  0  0  0  0
   36.9200   21.5130   33.9370 C   0  0  0  0  0  0  0  0  0  0  0  0
   37.4740   22.3860   33.1090 N   0  0  0  0  0  0  0  0  0  0  0  0
   35.1560   22.3050   30.6650 H   0  0  0  0  0  0  0  0  0  0  0  0
   34.1540   20.7120   32.1840 H   0  0  0  0  0  0  0  0  0  0  0  0
   37.4060   21.2740   34.8720 H   0  0  0  0  0  0  0  0  0  0  0  0
   37.7880   24.6500   35.7170 O   0  0  0  0  0  0  0  0  0  0  0  0
   38.1570   24.4390   37.0180 C   0  0  0  0  0  3  0  0  0  0  0  0
   37.7150   23.2860   37.8140 C   0  0  0  0  0  2  0  0  0  0  0  0
   39.0870   23.2240   37.1930 C   0  0  0  0  0  2  0  0  0  0  0  0
  1  7  1  6  0  0  0
  1  6  1  0  0  0  0
  2  1  1  0  0  0  0
  2  8  1  1  0  0  0
  2  3  1  0  0  0  0
  3  4  1  0  0  0  0
  3 10  1  0  0  0  0
  4  5  1  0  0  0  0
  5 11  1  0  0  0  0
  5 12  1  0  0  0  0
  6 13  1  1  0  0  0
  6 30  1  0  0  0  0
  6  5  1  0  0  0  0
  9  3  1  0  0  0  0
 14  1  1  0  0  0  0
 15 14  1  0  0  0  0
 16  2  1  0  0  0  0
 17 19  1  0  0  0  0
 17 16  1  0  0  0  0
 18 17  1  0  0  0  0
 20 17  1  0  0  0  0
 20 21  1  0  0  0  0
 21 26  1  0  0  0  0
 22 21  2  0  0  0  0
 22 23  1  0  0  0  0
 23 24  2  0  0  0  0
 24 25  1  0  0  0  0
 25 29  1  0  0  0  0
 26 25  2  0  0  0  0
 27 22  1  0  0  0  0
 28 23  1  0  0  0  0
 30 31  1  0  0  0  0
 31 33  1  0  0  0  0
 31 32  1  0  0  0  0
 33 32  1  0  0  0  0
M  END
>  <minimizedAffinity>
-4.25545835

$$$$
