
 OpenBabel03272509303D

 32 34  0  0  1  0  0  0  0  0999 V2000
   36.2900   30.7210   49.0000 C   0  0  2  0  0  0  0  0  0  0  0  0
   37.2450   31.5630   49.7900 C   0  0  0  0  0  0  0  0  0  0  0  0
   38.1040   30.7540   50.7360 C   0  0  0  0  0  0  0  0  0  0  0  0
   37.2360   29.9280   51.6810 C   0  0  0  0  0  0  0  0  0  0  0  0
   35.9920   29.3760   51.0410 C   0  0  0  0  0  0  0  0  0  0  0  0
   36.2100   29.3200   49.5190 C   0  0  1  0  0  0  0  0  0  0  0  0
   35.2340   31.1060   48.9900 H   0  0  0  0  0  0  0  0  0  0  0  0
   36.5680   32.1510   50.5000 H   0  0  0  0  0  0  0  0  0  0  0  0
   37.8060   32.3130   49.2670 H   0  0  0  0  0  0  0  0  0  0  0  0
   38.8790   30.1570   50.2580 H   0  0  0  0  0  0  0  0  0  0  0  0
   38.6310   31.4860   51.3860 H   0  0  0  0  0  0  0  0  0  0  0  0
   37.0000   30.4520   52.6190 H   0  0  0  0  0  0  0  0  0  0  0  0
   37.8640   29.0280   51.9460 H   0  0  0  0  0  0  0  0  0  0  0  0
   35.7480   28.3590   51.3590 H   0  0  0  0  0  0  0  0  0  0  0  0
   35.1420   30.0870   51.2140 H   0  0  0  0  0  0  0  0  0  0  0  0
   37.1740   28.8680   49.4760 H   0  0  0  0  0  0  0  0  0  0  0  0
   36.6890   30.6680   47.5690 C   0  0  0  0  0  0  0  0  0  0  0  0
   38.0290   30.9510   47.2950 C   0  0  0  0  0  0  0  0  0  0  0  0
   38.4240   30.9010   45.9520 C   0  0  0  0  0  0  0  0  0  0  0  0
   37.4930   30.5830   44.9980 N   0  0  0  0  0  0  0  0  0  0  0  0
   36.1830   30.3110   45.3210 C   0  0  0  0  0  0  0  0  0  0  0  0
   35.8120   30.3600   46.6000 N   0  0  0  0  0  0  0  0  0  0  0  0
   38.8530   31.2010   47.9310 H   0  0  0  0  0  0  0  0  0  0  0  0
   39.4210   31.0970   45.5980 H   0  0  0  0  0  0  0  0  0  0  0  0
   35.4800   30.0630   44.5400 H   0  0  0  0  0  0  0  0  0  0  0  0
   33.9100   28.3400   49.0220 C   0  0  0  0  0  0  0  0  0  0  0  0
   33.1530   28.8790   49.8800 O   0  0  0  0  0  0  0  0  0  0  0  0
   35.3220   28.4570   48.8300 N   0  0  0  0  0  0  0  0  0  0  0  0
   35.6860   27.7950   48.0710 H   0  0  0  0  0  0  0  0  0  0  0  0
   33.0950   27.4530   48.1010 C   0  0  0  0  0  3  0  0  0  0  0  0
   33.5600   27.2520   46.6860 C   0  0  0  0  0  2  0  0  0  0  0  0
   33.7620   26.1410   47.6450 C   0  0  0  0  0  2  0  0  0  0  0  0
  1  7  1  1  0  0  0
  1  6  1  0  0  0  0
  1  2  1  0  0  0  0
  2  8  1  0  0  0  0
  2  3  1  0  0  0  0
  3 11  1  0  0  0  0
  3  4  1  0  0  0  0
  4 13  1  0  0  0  0
  4 12  1  0  0  0  0
  5 15  1  0  0  0  0
  5 14  1  0  0  0  0
  5  4  1  0  0  0  0
  6 16  1  6  0  0  0
  6  5  1  0  0  0  0
  9  2  1  0  0  0  0
 10  3  1  0  0  0  0
 17  1  1  0  0  0  0
 18 17  1  0  0  0  0
 18 23  1  0  0  0  0
 19 18  2  0  0  0  0
 20 21  2  0  0  0  0
 20 19  1  0  0  0  0
 21 22  1  0  0  0  0
 22 17  2  0  0  0  0
 24 19  1  0  0  0  0
 25 21  1  0  0  0  0
 26 27  2  0  0  0  0
 28 26  1  0  0  0  0
 28  6  1  0  0  0  0
 29 28  1  0  0  0  0
 30 26  1  0  0  0  0
 31 32  1  0  0  0  0
 31 30  1  0  0  0  0
 32 30  1  0  0  0  0
M  END
>  <minimizedAffinity>
-5.69715977

>  <minimizedRMSD>
0.468675286

$$$$
