
 OpenBabel03272510303D

 22 24  0  0  0  0  0  0  0  0999 V2000
   37.3490   31.3680   49.2000 C   0  0  0  0  0  0  0  0  0  0  0  0
   37.6500   32.6660   49.6170 C   0  0  0  0  0  0  0  0  0  0  0  0
   38.5400   33.3620   48.8290 C   0  0  0  0  0  0  0  0  0  0  0  0
   39.0700   32.7690   47.7110 N   0  0  0  0  0  0  0  0  0  0  0  0
   38.7420   31.4910   47.3450 C   0  0  0  0  0  0  0  0  0  0  0  0
   37.8580   30.7750   48.1130 N   0  0  0  0  0  0  0  0  0  0  0  0
   37.2070   33.0930   50.5060 H   0  0  0  0  0  0  0  0  0  0  0  0
   38.8350   34.3750   49.0710 H   0  0  0  0  0  0  0  0  0  0  0  0
   36.3540   30.5910   50.0230 C   0  0  0  0  0  0  0  0  0  0  0  0
   36.2680   29.1540   50.0050 C   0  0  0  0  0  0  0  0  0  0  0  0
   37.0170   29.7960   51.1600 C   0  0  0  0  0  0  0  0  0  0  0  0
   35.4720   31.2150   50.3600 H   0  0  0  0  0  0  0  0  0  0  0  0
   35.2750   28.6990   50.2200 H   0  0  0  0  0  0  0  0  0  0  0  0
   36.8870   28.5360   49.3250 H   0  0  0  0  0  0  0  0  0  0  0  0
   36.4990   29.7950   52.1470 H   0  0  0  0  0  0  0  0  0  0  0  0
   38.1100   29.7540   51.2080 H   0  0  0  0  0  0  0  0  0  0  0  0
   39.2840   30.8380   46.1460 C   0  0  0  0  0  0  0  0  0  0  0  0
   40.3580   31.0680   45.9930 H   0  0  0  0  0  0  0  0  0  0  0  0
   39.2280   29.7370   46.2760 H   0  0  0  0  0  0  0  0  0  0  0  0
   38.4640   31.1930   44.9280 C   0  0  0  0  0  3  0  0  0  0  0  0
   38.6990   30.5530   43.6230 C   0  0  0  0  0  2  0  0  0  0  0  0
   37.4170   30.2840   44.4370 C   0  0  0  0  0  2  0  0  0  0  0  0
  1  2  1  0  0  0  0
  1  9  1  0  0  0  0
  2  7  1  0  0  0  0
  3  8  1  0  0  0  0
  3  2  2  0  0  0  0
  4  3  1  0  0  0  0
  5  4  2  0  0  0  0
  5  6  1  0  0  0  0
  6  1  2  0  0  0  0
  9 12  1  0  0  0  0
  9 11  1  0  0  0  0
 10  9  1  0  0  0  0
 10 13  1  0  0  0  0
 10 11  1  0  0  0  0
 11 16  1  0  0  0  0
 11 15  1  0  0  0  0
 14 10  1  0  0  0  0
 17 19  1  0  0  0  0
 17  5  1  0  0  0  0
 18 17  1  0  0  0  0
 20 17  1  0  0  0  0
 21 22  1  0  0  0  0
 21 20  1  0  0  0  0
 22 20  1  0  0  0  0
M  END
>  <minimizedAffinity>
-4.61625528

>  <minimizedRMSD>
0.12801218

$$$$
