
 OpenBabel03272510313D

 26 28  0  0  0  0  0  0  0  0999 V2000
   37.4060   31.1420   49.4180 C   0  0  0  0  0  0  0  0  0  0  0  0
   38.3710   32.1330   49.4580 C   0  0  0  0  0  0  0  0  0  0  0  0
   38.7530   32.6150   48.2160 C   0  0  0  0  0  0  0  0  0  0  0  0
   38.2020   32.1280   47.0740 N   0  0  0  0  0  0  0  0  0  0  0  0
   37.2620   31.1600   47.0790 C   0  0  0  0  0  0  0  0  0  0  0  0
   36.8590   30.6570   48.2860 N   0  0  0  0  0  0  0  0  0  0  0  0
   38.7570   32.4630   50.4100 H   0  0  0  0  0  0  0  0  0  0  0  0
   39.5090   33.3940   48.1970 H   0  0  0  0  0  0  0  0  0  0  0  0
   36.9210   30.5910   50.7360 C   0  0  0  0  0  0  0  0  0  0  0  0
   36.0080   29.5020   50.8310 C   0  0  0  0  0  0  0  0  0  0  0  0
   37.4870   29.1790   51.0090 C   0  0  0  0  0  0  0  0  0  0  0  0
   37.0640   31.3010   51.5930 H   0  0  0  0  0  0  0  0  0  0  0  0
   35.4180   29.3640   51.7440 H   0  0  0  0  0  0  0  0  0  0  0  0
   35.5770   29.0170   49.9220 H   0  0  0  0  0  0  0  0  0  0  0  0
   37.8620   29.0240   52.0210 H   0  0  0  0  0  0  0  0  0  0  0  0
   38.0210   28.6710   50.2080 H   0  0  0  0  0  0  0  0  0  0  0  0
   36.6530   30.6350   45.8650 C   0  0  0  0  0  0  0  0  0  0  0  0
   35.9950   31.3490   45.3590 H   0  0  0  0  0  0  0  0  0  0  0  0
   36.1210   29.6940   46.0620 H   0  0  0  0  0  0  0  0  0  0  0  0
   37.9330   31.0440   43.7590 C   0  0  0  0  0  0  0  0  0  0  0  0
   37.1850   32.0120   43.3820 O   0  0  0  0  0  0  0  0  0  0  0  0
   37.7340   30.3050   44.9510 N   0  0  0  0  0  0  0  0  0  0  0  0
   38.3590   29.5030   45.2030 H   0  0  0  0  0  0  0  0  0  0  0  0
   39.0670   30.7120   42.8580 C   0  0  0  0  0  3  0  0  0  0  0  0
   39.8300   31.8030   42.1720 C   0  0  0  0  0  2  0  0  0  0  0  0
   40.4700   31.0590   43.2820 C   0  0  0  0  0  2  0  0  0  0  0  0
  1  2  1  0  0  0  0
  1  9  1  0  0  0  0
  2  7  1  0  0  0  0
  3  2  2  0  0  0  0
  4  5  2  0  0  0  0
  4  3  1  0  0  0  0
  5  6  1  0  0  0  0
  6  1  2  0  0  0  0
  8  3  1  0  0  0  0
  9 10  1  0  0  0  0
  9 11  1  0  0  0  0
  9 12  1  0  0  0  0
 10 11  1  0  0  0  0
 10 13  1  0  0  0  0
 11 15  1  0  0  0  0
 14 10  1  0  0  0  0
 16 11  1  0  0  0  0
 17 19  1  0  0  0  0
 17  5  1  0  0  0  0
 18 17  1  0  0  0  0
 20 22  1  0  0  0  0
 21 20  2  0  0  0  0
 22 23  1  0  0  0  0
 22 17  1  0  0  0  0
 24 26  1  0  0  0  0
 24 20  1  0  0  0  0
 25 24  1  0  0  0  0
 25 26  1  0  0  0  0
M  END
>  <minimizedAffinity>
-4.63536263

>  <minimizedRMSD>
2.49078345

$$$$
