
 OpenBabel03272510043D

 31 33  0  0  0  0  0  0  0  0999 V2000
   36.1820   30.4750   45.4060 C   0  0  0  0  0  0  0  0  0  0  0  0
   35.7950   30.2490   46.6890 C   0  0  0  0  0  0  0  0  0  0  0  0
   34.5350   29.7180   46.9530 C   0  0  0  0  0  0  0  0  0  0  0  0
   33.6360   29.4050   45.9510 C   0  0  0  0  0  0  0  0  0  0  0  0
   33.9900   29.6230   44.6440 C   0  0  0  0  0  0  0  0  0  0  0  0
   35.2390   30.1460   44.4190 C   0  0  0  0  0  0  0  0  0  0  0  0
   34.2530   29.5440   48.0000 H   0  0  0  0  0  0  0  0  0  0  0  0
   32.7000   29.0040   46.2560 H   0  0  0  0  0  0  0  0  0  0  0  0
   33.2630   29.3670   43.9190 H   0  0  0  0  0  0  0  0  0  0  0  0
   35.3970   30.2750   43.3390 H   0  0  0  0  0  0  0  0  0  0  0  0
   38.3010   32.0170   48.7170 C   0  0  0  0  0  0  0  0  0  0  0  0
   37.4610   31.6660   47.6740 C   0  0  0  0  0  0  0  0  0  0  0  0
   36.6320   30.5850   47.7880 C   0  0  0  0  0  0  0  0  0  0  0  0
   36.6740   29.8950   48.9600 N   0  0  0  0  0  0  0  0  0  0  0  0
   37.4800   30.2340   49.9710 C   0  0  0  0  0  0  0  0  0  0  0  0
   38.2910   31.2910   49.8420 N   0  0  0  0  0  0  0  0  0  0  0  0
   39.0060   32.8190   48.7940 H   0  0  0  0  0  0  0  0  0  0  0  0
   37.6360   32.4110   46.9360 H   0  0  0  0  0  0  0  0  0  0  0  0
   37.3680   29.4310   51.2180 C   0  0  0  0  0  0  0  0  0  0  0  0
   37.6890   30.1690   52.3400 F   0  0  0  0  0  0  0  0  0  0  0  0
   35.9730   29.1190   51.4420 F   0  0  0  0  0  0  0  0  0  0  0  0
   37.9530   28.2550   51.2290 F   0  0  0  0  0  0  0  0  0  0  0  0
   37.7080   31.0840   44.9510 S   0  0  0  0  0  0  0  0  0  0  0  0
   37.6220   32.5270   44.5660 O   0  0  0  0  0  0  0  0  0  0  0  0
   37.7630   30.5520   43.5390 O   0  0  0  0  0  0  0  0  0  0  0  0
   39.2190   30.3630   45.1940 C   0  0  0  0  0  0  0  0  0  0  0  0
   39.4030   29.8820   46.1580 H   0  0  0  0  0  0  0  0  0  0  0  0
   39.2340   29.4540   44.5000 H   0  0  0  0  0  0  0  0  0  0  0  0
   40.3880   31.1550   44.6790 C   0  0  0  0  0  3  0  0  0  0  0  0
   41.5340   31.2400   45.7100 C   0  0  0  0  0  2  0  0  0  0  0  0
   40.7530   32.4600   45.2740 C   0  0  0  0  0  2  0  0  0  0  0  0
  1  2  1  0  0  0  0
  2  3  2  0  0  0  0
  2 13  1  0  0  0  0
  3  7  1  0  0  0  0
  4  8  1  0  0  0  0
  4  3  1  0  0  0  0
  5  4  2  0  0  0  0
  6  5  1  0  0  0  0
  6  1  2  0  0  0  0
  9  5  1  0  0  0  0
 10  6  1  0  0  0  0
 11 17  1  0  0  0  0
 11 16  1  0  0  0  0
 12 13  1  0  0  0  0
 12 11  2  0  0  0  0
 13 14  2  0  0  0  0
 14 15  1  0  0  0  0
 15 19  1  0  0  0  0
 16 15  2  0  0  0  0
 18 12  1  0  0  0  0
 19 22  1  0  0  0  0
 19 21  1  0  0  0  0
 19 20  1  0  0  0  0
 23 26  1  0  0  0  0
 23  1  1  0  0  0  0
 24 23  2  0  0  0  0
 25 23  2  0  0  0  0
 26 27  1  0  0  0  0
 28 26  1  0  0  0  0
 29 26  1  0  0  0  0
 29 31  1  0  0  0  0
 29 30  1  0  0  0  0
 31 30  1  0  0  0  0
M  END
>  <minimizedAffinity>
-5.99951267

>  <minimizedRMSD>
1.92024493

$$$$
