
 OpenBabel03272509583D

 40 43  0  0  0  0  0  0  0  0999 V2000
   35.0150   28.3640   49.5290 O   0  0  0  0  0  0  0  0  0  0  0  0
   37.3780   30.1940   51.5690 C   0  0  0  0  0  0  0  0  0  0  0  0
   38.0910   30.8760   50.5570 C   0  0  0  0  0  0  0  0  0  0  0  0
   37.7170   30.6660   49.2400 C   0  0  0  0  0  0  0  0  0  0  0  0
   36.6710   29.8000   49.0400 N   0  0  0  0  0  0  0  0  0  0  0  0
   36.0130   29.1660   50.0050 C   0  0  0  0  0  0  0  0  0  0  0  0
   36.3790   29.3730   51.2880 N   0  0  0  0  0  0  0  0  0  0  0  0
   37.6900   30.3750   52.5910 H   0  0  0  0  0  0  0  0  0  0  0  0
   38.9110   31.5540   50.7300 H   0  0  0  0  0  0  0  0  0  0  0  0
   38.9580   33.2750   49.0370 F   0  0  0  0  0  0  0  0  0  0  0  0
   38.9110   32.4930   47.9760 C   0  0  0  0  0  0  0  0  0  0  0  0
   38.3280   31.2740   48.0810 C   0  0  0  0  0  0  0  0  0  0  0  0
   38.3290   30.5270   46.9060 C   0  0  0  0  0  0  0  0  0  0  0  0
   38.8840   31.0030   45.7380 C   0  0  0  0  0  0  0  0  0  0  0  0
   39.4630   32.2430   45.6770 C   0  0  0  0  0  0  0  0  0  0  0  0
   39.4710   32.9890   46.8160 C   0  0  0  0  0  0  0  0  0  0  0  0
   37.9000   29.5360   46.8390 H   0  0  0  0  0  0  0  0  0  0  0  0
   38.8780   30.4100   44.8280 H   0  0  0  0  0  0  0  0  0  0  0  0
   39.9080   32.6430   44.7660 H   0  0  0  0  0  0  0  0  0  0  0  0
   39.9250   33.9670   46.7790 H   0  0  0  0  0  0  0  0  0  0  0  0
   34.5170   28.5850   48.2210 C   0  0  0  0  0  0  0  0  0  0  0  0
   33.9210   29.5060   48.2290 H   0  0  0  0  0  0  0  0  0  0  0  0
   35.3890   28.6150   47.5220 H   0  0  0  0  0  0  0  0  0  0  0  0
   33.6380   27.4470   47.7790 C   0  0  0  0  0  0  0  0  0  0  0  0
   33.9350   27.0520   46.7760 H   0  0  0  0  0  0  0  0  0  0  0  0
   33.7530   26.6080   48.4700 H   0  0  0  0  0  0  0  0  0  0  0  0
   32.1990   27.8510   47.7190 C   0  0  0  0  0  0  0  0  0  0  0  0
   31.3650   27.3980   48.7220 C   0  0  0  0  0  0  0  0  0  0  0  0
   30.0310   27.7080   48.7620 C   0  0  0  0  0  0  0  0  0  0  0  0
   29.5170   28.4700   47.8080 N   0  0  0  0  0  0  0  0  0  0  0  0
   30.3390   28.9130   46.8240 C   0  0  0  0  0  0  0  0  0  0  0  0
   31.6530   28.6200   46.7630 N   0  0  0  0  0  0  0  0  0  0  0  0
   31.7750   26.7750   49.5070 H   0  0  0  0  0  0  0  0  0  0  0  0
   29.4310   27.3100   49.5930 H   0  0  0  0  0  0  0  0  0  0  0  0
   29.7440   29.7760   45.7460 C   0  0  0  0  0  0  0  0  0  0  0  0
   28.9200   30.3980   46.1780 H   0  0  0  0  0  0  0  0  0  0  0  0
   29.3170   29.1310   44.9350 H   0  0  0  0  0  0  0  0  0  0  0  0
   30.7620   30.6730   45.1220 C   0  0  0  0  0  3  0  0  0  0  0  0
   30.6370   30.7460   43.5870 C   0  0  0  0  0  2  0  0  0  0  0  0
   30.4330   31.9420   44.4620 C   0  0  0  0  0  2  0  0  0  0  0  0
  1  6  1  0  0  0  0
  2  8  1  0  0  0  0
  3  9  1  0  0  0  0
  3  2  2  0  0  0  0
  4  3  1  0  0  0  0
  5  4  2  0  0  0  0
  5  6  1  0  0  0  0
  6  7  2  0  0  0  0
  7  2  1  0  0  0  0
 11 12  1  0  0  0  0
 11 10  1  0  0  0  0
 12  4  1  0  0  0  0
 13 12  2  0  0  0  0
 14 13  1  0  0  0  0
 15 14  2  0  0  0  0
 15 16  1  0  0  0  0
 16 11  2  0  0  0  0
 17 13  1  0  0  0  0
 18 14  1  0  0  0  0
 19 15  1  0  0  0  0
 20 16  1  0  0  0  0
 21 22  1  0  0  0  0
 21  1  1  0  0  0  0
 23 21  1  0  0  0  0
 24 21  1  0  0  0  0
 24 26  1  0  0  0  0
 25 24  1  0  0  0  0
 27 24  1  0  0  0  0
 27 28  1  0  0  0  0
 28 29  2  0  0  0  0
 28 33  1  0  0  0  0
 29 34  1  0  0  0  0
 30 29  1  0  0  0  0
 31 30  2  0  0  0  0
 32 31  1  0  0  0  0
 32 27  2  0  0  0  0
 35 36  1  0  0  0  0
 35 31  1  0  0  0  0
 37 35  1  0  0  0  0
 38 35  1  0  0  0  0
 39 40  1  0  0  0  0
 39 38  1  0  0  0  0
 40 38  1  0  0  0  0
M  END
>  <minimizedAffinity>
-6.13062668

>  <minimizedRMSD>
0.390975326

$$$$
