
 OpenBabel03272508433D

 14 15  0  0  0  0  0  0  0  0999 V2000
   39.9660   22.9590   37.1560 C   0  0  0  0  0  0  0  0  0  0  0  0
   39.1100   23.0160   38.2810 C   0  0  0  0  0  0  0  0  0  0  0  0
   37.9400   23.7670   38.1690 C   0  0  0  0  0  0  0  0  0  0  0  0
   37.7000   24.3890   36.9960 N   0  0  0  0  0  0  0  0  0  0  0  0
   38.5330   24.3170   35.9400 C   0  0  0  0  0  0  0  0  0  0  0  0
   39.6560   23.6110   36.0140 N   0  0  0  0  0  0  0  0  0  0  0  0
   40.8720   22.3750   37.2490 H   0  0  0  0  0  0  0  0  0  0  0  0
   39.3240   22.5090   39.2110 H   0  0  0  0  0  0  0  0  0  0  0  0
   37.2560   23.8390   39.0050 H   0  0  0  0  0  0  0  0  0  0  0  0
   38.2520   24.9980   34.6850 C   0  0  0  0  0  0  0  0  0  0  0  0
   37.7560   24.4340   33.6860 O   0  0  0  0  0  0  0  0  0  0  0  0
   38.5300   26.4480   34.4680 C   0  0  0  0  0  3  0  0  0  0  0  0
   39.8850   26.9870   34.7300 C   0  0  0  0  0  2  0  0  0  0  0  0
   38.6940   27.3590   35.6350 C   0  0  0  0  0  2  0  0  0  0  0  0
  1  7  1  0  0  0  0
  1  2  1  0  0  0  0
  2  8  1  0  0  0  0
  3  2  2  0  0  0  0
  3  9  1  0  0  0  0
  4  3  1  0  0  0  0
  5  6  1  0  0  0  0
  5  4  2  0  0  0  0
  6  1  2  0  0  0  0
 10  5  1  0  0  0  0
 11 10  2  0  0  0  0
 12 10  1  0  0  0  0
 12 13  1  0  0  0  0
 12 14  1  0  0  0  0
 13 14  1  0  0  0  0
M  END
>  <minimizedAffinity>
-3.67456508

$$$$

 OpenBabel03272508433D

 14 15  0  0  0  0  0  0  0  0999 V2000
   40.4120   25.8180   34.8030 C   0  0  0  0  0  0  0  0  0  0  0  0
   39.6600   26.9940   34.5750 C   0  0  0  0  0  0  0  0  0  0  0  0
   38.3100   26.9790   34.9270 C   0  0  0  0  0  0  0  0  0  0  0  0
   37.8110   25.8450   35.4620 N   0  0  0  0  0  0  0  0  0  0  0  0
   38.5510   24.7400   35.6680 C   0  0  0  0  0  0  0  0  0  0  0  0
   39.8390   24.7210   35.3430 N   0  0  0  0  0  0  0  0  0  0  0  0
   41.4590   25.8360   34.5270 H   0  0  0  0  0  0  0  0  0  0  0  0
   40.0820   27.8910   34.1440 H   0  0  0  0  0  0  0  0  0  0  0  0
   37.6960   27.8560   34.7700 H   0  0  0  0  0  0  0  0  0  0  0  0
   37.9880   23.5280   36.2450 C   0  0  0  0  0  0  0  0  0  0  0  0
   37.6650   22.5250   35.5730 O   0  0  0  0  0  0  0  0  0  0  0  0
   37.7380   23.3650   37.7070 C   0  0  0  0  0  3  0  0  0  0  0  0
   37.9120   24.5210   38.6190 C   0  0  0  0  0  2  0  0  0  0  0  0
   38.8830   23.3230   38.6590 C   0  0  0  0  0  2  0  0  0  0  0  0
  1  6  1  0  0  0  0
  2  1  2  0  0  0  0
  2  3  1  0  0  0  0
  3  4  2  0  0  0  0
  4  5  1  0  0  0  0
  5 10  1  0  0  0  0
  6  5  2  0  0  0  0
  7  1  1  0  0  0  0
  8  2  1  0  0  0  0
  9  3  1  0  0  0  0
 10 12  1  0  0  0  0
 11 10  2  0  0  0  0
 12 13  1  0  0  0  0
 12 14  1  0  0  0  0
 13 14  1  0  0  0  0
M  END
>  <minimizedAffinity>
-3.55913591

$$$$

 OpenBabel03272508433D

 14 15  0  0  0  0  0  0  0  0999 V2000
   38.3990   23.4110   38.2460 C   0  0  0  0  0  0  0  0  0  0  0  0
   37.4890   23.2140   37.1800 C   0  0  0  0  0  0  0  0  0  0  0  0
   37.9580   22.5610   36.0390 C   0  0  0  0  0  0  0  0  0  0  0  0
   39.2470   22.1610   36.0280 N   0  0  0  0  0  0  0  0  0  0  0  0
   40.0910   22.3620   37.0570 C   0  0  0  0  0  0  0  0  0  0  0  0
   39.6760   22.9810   38.1580 N   0  0  0  0  0  0  0  0  0  0  0  0
   38.0290   23.9180   39.1270 H   0  0  0  0  0  0  0  0  0  0  0  0
   36.4610   23.5440   37.2130 H   0  0  0  0  0  0  0  0  0  0  0  0
   37.2980   22.3890   35.2000 H   0  0  0  0  0  0  0  0  0  0  0  0
   41.4770   21.9210   37.0190 C   0  0  0  0  0  0  0  0  0  0  0  0
   41.9410   21.0270   37.7600 O   0  0  0  0  0  0  0  0  0  0  0  0
   42.4880   22.4980   36.0850 C   0  0  0  0  0  3  0  0  0  0  0  0
   43.5140   23.4370   36.5970 C   0  0  0  0  0  2  0  0  0  0  0  0
   42.3860   23.9240   35.6650 C   0  0  0  0  0  2  0  0  0  0  0  0
  1  7  1  0  0  0  0
  2  8  1  0  0  0  0
  2  1  2  0  0  0  0
  3  2  1  0  0  0  0
  4  3  2  0  0  0  0
  4  5  1  0  0  0  0
  5  6  2  0  0  0  0
  6  1  1  0  0  0  0
  9  3  1  0  0  0  0
 10  5  1  0  0  0  0
 10 11  2  0  0  0  0
 12 13  1  0  0  0  0
 12 10  1  0  0  0  0
 14 12  1  0  0  0  0
 14 13  1  0  0  0  0
M  END
>  <minimizedAffinity>
-3.49231958

$$$$

 OpenBabel03272508433D

 14 15  0  0  0  0  0  0  0  0999 V2000
   35.8000   24.0420   31.4420 C   0  0  0  0  0  0  0  0  0  0  0  0
   35.1520   25.1620   30.8690 C   0  0  0  0  0  0  0  0  0  0  0  0
   35.5550   26.4300   31.2920 C   0  0  0  0  0  0  0  0  0  0  0  0
   36.5340   26.5040   32.2170 N   0  0  0  0  0  0  0  0  0  0  0  0
   37.1330   25.4200   32.7450 C   0  0  0  0  0  0  0  0  0  0  0  0
   36.7730   24.1980   32.3650 N   0  0  0  0  0  0  0  0  0  0  0  0
   35.4820   23.0620   31.1110 H   0  0  0  0  0  0  0  0  0  0  0  0
   34.3690   25.0770   30.1300 H   0  0  0  0  0  0  0  0  0  0  0  0
   35.0870   27.3150   30.8810 H   0  0  0  0  0  0  0  0  0  0  0  0
   38.1870   25.5270   33.7430 C   0  0  0  0  0  0  0  0  0  0  0  0
   38.6880   24.5440   34.3310 O   0  0  0  0  0  0  0  0  0  0  0  0
   38.7770   26.8310   34.1640 C   0  0  0  0  0  3  0  0  0  0  0  0
   40.0190   26.8530   34.9720 C   0  0  0  0  0  2  0  0  0  0  0  0
   38.6670   27.2760   35.5820 C   0  0  0  0  0  2  0  0  0  0  0  0
  1  6  1  0  0  0  0
  2  3  1  0  0  0  0
  2  1  2  0  0  0  0
  3  4  2  0  0  0  0
  4  5  1  0  0  0  0
  5 10  1  0  0  0  0
  6  5  2  0  0  0  0
  7  1  1  0  0  0  0
  8  2  1  0  0  0  0
  9  3  1  0  0  0  0
 10 12  1  0  0  0  0
 10 11  2  0  0  0  0
 12 13  1  0  0  0  0
 12 14  1  0  0  0  0
 13 14  1  0  0  0  0
M  END
>  <minimizedAffinity>
-3.476578

$$$$

 OpenBabel03272508433D

 14 15  0  0  0  0  0  0  0  0999 V2000
   37.2780   26.0620   33.7090 C   0  0  0  0  0  0  0  0  0  0  0  0
   37.2080   27.3260   34.3410 C   0  0  0  0  0  0  0  0  0  0  0  0
   37.9120   27.4940   35.5340 C   0  0  0  0  0  0  0  0  0  0  0  0
   38.6110   26.4410   36.0070 N   0  0  0  0  0  0  0  0  0  0  0  0
   38.6600   25.2490   35.3830 C   0  0  0  0  0  0  0  0  0  0  0  0
   38.0010   25.0550   34.2460 N   0  0  0  0  0  0  0  0  0  0  0  0
   36.7300   25.9380   32.7840 H   0  0  0  0  0  0  0  0  0  0  0  0
   36.6400   28.1540   33.9430 H   0  0  0  0  0  0  0  0  0  0  0  0
   37.8870   28.4440   36.0520 H   0  0  0  0  0  0  0  0  0  0  0  0
   39.4220   24.1290   35.9150 C   0  0  0  0  0  0  0  0  0  0  0  0
   40.6230   23.9140   35.6400 O   0  0  0  0  0  0  0  0  0  0  0  0
   38.8400   23.1190   36.8460 C   0  0  0  0  0  3  0  0  0  0  0  0
   37.5480   23.3930   37.5180 C   0  0  0  0  0  2  0  0  0  0  0  0
   38.8660   23.3570   38.3160 C   0  0  0  0  0  2  0  0  0  0  0  0
  1  6  2  0  0  0  0
  1  2  1  0  0  0  0
  2  3  2  0  0  0  0
  3  4  1  0  0  0  0
  3  9  1  0  0  0  0
  5 10  1  0  0  0  0
  5  4  2  0  0  0  0
  6  5  1  0  0  0  0
  7  1  1  0  0  0  0
  8  2  1  0  0  0  0
 10 12  1  0  0  0  0
 11 10  2  0  0  0  0
 12 13  1  0  0  0  0
 12 14  1  0  0  0  0
 13 14  1  0  0  0  0
M  END
>  <minimizedAffinity>
-3.36866927

$$$$

 OpenBabel03272508433D

 14 15  0  0  0  0  0  0  0  0999 V2000
   39.5230   26.9180   33.7670 C   0  0  0  0  0  0  0  0  0  0  0  0
   39.2270   27.1240   35.1350 C   0  0  0  0  0  0  0  0  0  0  0  0
   37.8900   27.3040   35.4900 C   0  0  0  0  0  0  0  0  0  0  0  0
   36.9680   27.2700   34.5070 N   0  0  0  0  0  0  0  0  0  0  0  0
   37.2780   27.0720   33.2110 C   0  0  0  0  0  0  0  0  0  0  0  0
   38.5410   26.8980   32.8400 N   0  0  0  0  0  0  0  0  0  0  0  0
   40.5620   26.7790   33.4980 H   0  0  0  0  0  0  0  0  0  0  0  0
   39.9850   27.1470   35.9060 H   0  0  0  0  0  0  0  0  0  0  0  0
   37.6180   27.4650   36.5250 H   0  0  0  0  0  0  0  0  0  0  0  0
   36.2620   27.0410   32.1690 C   0  0  0  0  0  0  0  0  0  0  0  0
   35.3820   27.9190   32.0320 O   0  0  0  0  0  0  0  0  0  0  0  0
   36.1720   25.9510   31.1550 C   0  0  0  0  0  3  0  0  0  0  0  0
   34.8600   25.3330   30.8500 C   0  0  0  0  0  2  0  0  0  0  0  0
   35.9570   24.5430   31.5910 C   0  0  0  0  0  2  0  0  0  0  0  0
  1  2  1  0  0  0  0
  2  3  2  0  0  0  0
  2  8  1  0  0  0  0
  3  9  1  0  0  0  0
  4  3  1  0  0  0  0
  5  4  2  0  0  0  0
  6  5  1  0  0  0  0
  6  1  2  0  0  0  0
  7  1  1  0  0  0  0
 10  5  1  0  0  0  0
 11 10  2  0  0  0  0
 12 14  1  0  0  0  0
 12 10  1  0  0  0  0
 13 12  1  0  0  0  0
 13 14  1  0  0  0  0
M  END
>  <minimizedAffinity>
-3.33294034

$$$$

 OpenBabel03272508433D

 14 15  0  0  0  0  0  0  0  0999 V2000
   35.5430   24.2940   31.3250 C   0  0  0  0  0  0  0  0  0  0  0  0
   36.0590   22.9920   31.5290 C   0  0  0  0  0  0  0  0  0  0  0  0
   37.1290   22.8490   32.4130 C   0  0  0  0  0  0  0  0  0  0  0  0
   37.6020   23.9600   33.0140 N   0  0  0  0  0  0  0  0  0  0  0  0
   37.0920   25.1880   32.8010 C   0  0  0  0  0  0  0  0  0  0  0  0
   36.0730   25.3590   31.9650 N   0  0  0  0  0  0  0  0  0  0  0  0
   34.7140   24.3980   30.6380 H   0  0  0  0  0  0  0  0  0  0  0  0
   35.6630   22.1160   31.0350 H   0  0  0  0  0  0  0  0  0  0  0  0
   37.5550   21.8720   32.5990 H   0  0  0  0  0  0  0  0  0  0  0  0
   37.6210   26.3710   33.4630 C   0  0  0  0  0  0  0  0  0  0  0  0
   38.3040   27.2430   32.8820 O   0  0  0  0  0  0  0  0  0  0  0  0
   37.3990   26.6610   34.9090 C   0  0  0  0  0  3  0  0  0  0  0  0
   38.4140   27.4250   35.6740 C   0  0  0  0  0  2  0  0  0  0  0  0
   38.1760   25.9260   35.9450 C   0  0  0  0  0  2  0  0  0  0  0  0
  1  2  2  0  0  0  0
  1  6  1  0  0  0  0
  2  3  1  0  0  0  0
  3  9  1  0  0  0  0
  3  4  2  0  0  0  0
  5  4  1  0  0  0  0
  5 10  1  0  0  0  0
  6  5  2  0  0  0  0
  7  1  1  0  0  0  0
  8  2  1  0  0  0  0
 10 12  1  0  0  0  0
 11 10  2  0  0  0  0
 12 13  1  0  0  0  0
 12 14  1  0  0  0  0
 13 14  1  0  0  0  0
M  END
>  <minimizedAffinity>
-3.30869269

$$$$

 OpenBabel03272508433D

 14 15  0  0  0  0  0  0  0  0999 V2000
   35.1310   25.0590   30.9540 C   0  0  0  0  0  0  0  0  0  0  0  0
   36.0860   26.0240   31.3540 C   0  0  0  0  0  0  0  0  0  0  0  0
   37.2060   25.5770   32.0560 C   0  0  0  0  0  0  0  0  0  0  0  0
   37.3040   24.2550   32.3070 N   0  0  0  0  0  0  0  0  0  0  0  0
   36.3800   23.3580   31.9150 C   0  0  0  0  0  0  0  0  0  0  0  0
   35.3010   23.7520   31.2460 N   0  0  0  0  0  0  0  0  0  0  0  0
   34.2650   25.4130   30.4110 H   0  0  0  0  0  0  0  0  0  0  0  0
   35.9840   27.0780   31.1400 H   0  0  0  0  0  0  0  0  0  0  0  0
   37.9620   26.2790   32.3810 H   0  0  0  0  0  0  0  0  0  0  0  0
   36.5100   21.9370   32.2010 C   0  0  0  0  0  0  0  0  0  0  0  0
   37.5380   21.2710   31.9520 O   0  0  0  0  0  0  0  0  0  0  0  0
   35.4190   21.1300   32.8220 C   0  0  0  0  0  3  0  0  0  0  0  0
   35.5850   20.5980   34.1950 C   0  0  0  0  0  2  0  0  0  0  0  0
   35.5760   19.6570   32.9740 C   0  0  0  0  0  2  0  0  0  0  0  0
  1  6  2  0  0  0  0
  1  2  1  0  0  0  0
  2  3  2  0  0  0  0
  3  4  1  0  0  0  0
  3  9  1  0  0  0  0
  5 10  1  0  0  0  0
  5  4  2  0  0  0  0
  6  5  1  0  0  0  0
  7  1  1  0  0  0  0
  8  2  1  0  0  0  0
 10 12  1  0  0  0  0
 11 10  2  0  0  0  0
 12 14  1  0  0  0  0
 12 13  1  0  0  0  0
 14 13  1  0  0  0  0
M  END
>  <minimizedAffinity>
-3.28401065

$$$$

 OpenBabel03272508433D

 14 15  0  0  0  0  0  0  0  0999 V2000
   38.0720   27.2540   35.7430 C   0  0  0  0  0  0  0  0  0  0  0  0
   37.5210   27.4580   34.4560 C   0  0  0  0  0  0  0  0  0  0  0  0
   37.3330   26.3380   33.6450 C   0  0  0  0  0  0  0  0  0  0  0  0
   37.6890   25.1350   34.1410 N   0  0  0  0  0  0  0  0  0  0  0  0
   38.2120   24.9700   35.3710 C   0  0  0  0  0  0  0  0  0  0  0  0
   38.4040   26.0150   36.1670 N   0  0  0  0  0  0  0  0  0  0  0  0
   38.2160   28.1260   36.3660 H   0  0  0  0  0  0  0  0  0  0  0  0
   37.2440   28.4330   34.0810 H   0  0  0  0  0  0  0  0  0  0  0  0
   36.9140   26.4480   32.6530 H   0  0  0  0  0  0  0  0  0  0  0  0
   38.5880   23.6600   35.8810 C   0  0  0  0  0  0  0  0  0  0  0  0
   37.8200   22.6730   35.8930 O   0  0  0  0  0  0  0  0  0  0  0  0
   39.9370   23.3650   36.4460 C   0  0  0  0  0  3  0  0  0  0  0  0
   40.4090   21.9630   36.5390 C   0  0  0  0  0  2  0  0  0  0  0  0
   40.0620   22.7700   37.8060 C   0  0  0  0  0  2  0  0  0  0  0  0
  1  6  1  0  0  0  0
  1  7  1  0  0  0  0
  2  1  2  0  0  0  0
  3  4  2  0  0  0  0
  3  2  1  0  0  0  0
  4  5  1  0  0  0  0
  5 10  1  0  0  0  0
  5  6  2  0  0  0  0
  8  2  1  0  0  0  0
  9  3  1  0  0  0  0
 10 11  2  0  0  0  0
 10 12  1  0  0  0  0
 12 13  1  0  0  0  0
 12 14  1  0  0  0  0
 13 14  1  0  0  0  0
M  END
>  <minimizedAffinity>
-3.24328709

$$$$
