
 OpenBabel03272508273D

 32 35  0  0  1  0  0  0  0  0999 V2000
   35.7860   30.5230   49.0400 C   0  0  1  0  0  0  0  0  0  0  0  0
   35.8890   29.0930   48.8580 C   0  0  1  0  0  0  0  0  0  0  0  0
   36.0140   29.6070   50.2550 C   0  0  0  0  0  0  0  0  0  0  0  0
   34.8590   31.1170   49.1850 H   0  0  0  0  0  0  0  0  0  0  0  0
   36.8520   28.7470   48.3770 H   0  0  0  0  0  0  0  0  0  0  0  0
   37.0100   29.5890   50.7300 H   0  0  0  0  0  0  0  0  0  0  0  0
   35.1650   29.3950   50.9270 H   0  0  0  0  0  0  0  0  0  0  0  0
   33.9910   28.9970   47.3490 C   0  0  2  0  0  0  0  0  0  0  0  0
   34.7400   28.2380   48.4360 C   0  0  2  0  0  0  0  0  0  0  0  0
   33.8420   28.0510   49.4440 O   0  0  0  0  0  0  0  0  0  0  0  0
   32.5660   28.1000   48.9660 C   0  0  0  0  0  0  0  0  0  0  0  0
   32.6290   28.3040   47.4670 C   0  0  1  0  0  0  0  0  0  0  0  0
   33.8170   30.0530   47.6000 H   0  0  0  0  0  0  0  0  0  0  0  0
   35.0380   27.2680   47.9860 H   0  0  0  0  0  0  0  0  0  0  0  0
   32.0810   29.0030   49.3870 H   0  0  0  0  0  0  0  0  0  0  0  0
   31.9450   27.2220   49.2270 H   0  0  0  0  0  0  0  0  0  0  0  0
   32.6930   27.2670   47.0340 H   0  0  0  0  0  0  0  0  0  0  0  0
   34.5380   28.8250   46.0880 O   0  0  0  0  0  0  0  0  0  0  0  0
   34.5100   29.6810   45.6210 H   0  0  0  0  0  0  0  0  0  0  0  0
   31.6210   29.0650   46.9500 O   0  0  0  0  0  0  0  0  0  0  0  0
   30.7750   28.3710   46.1020 C   0  0  0  0  0  3  0  0  0  0  0  0
   30.5300   28.8070   44.7170 C   0  0  0  0  0  2  0  0  0  0  0  0
   31.3120   27.5430   44.9940 C   0  0  0  0  0  2  0  0  0  0  0  0
   36.9740   31.4380   48.7960 C   0  0  0  0  0  0  0  0  0  0  0  0
   37.1830   32.4860   49.6900 C   0  0  0  0  0  0  0  0  0  0  0  0
   38.2670   33.2980   49.4050 C   0  0  0  0  0  0  0  0  0  0  0  0
   39.0580   33.0700   48.3210 N   0  0  0  0  0  0  0  0  0  0  0  0
   38.8200   32.0320   47.4690 C   0  0  0  0  0  0  0  0  0  0  0  0
   37.7630   31.2100   47.7170 N   0  0  0  0  0  0  0  0  0  0  0  0
   36.5170   32.6110   50.5310 H   0  0  0  0  0  0  0  0  0  0  0  0
   38.4700   34.1330   50.0800 H   0  0  0  0  0  0  0  0  0  0  0  0
   39.4350   31.8330   46.6020 H   0  0  0  0  0  0  0  0  0  0  0  0
  1  4  1  6  0  0  0
  1  3  1  0  0  0  0
  2  5  1  6  0  0  0
  2  1  1  0  0  0  0
  2  3  1  0  0  0  0
  3  6  1  0  0  0  0
  3  7  1  0  0  0  0
  8 12  1  0  0  0  0
  8 13  1  1  0  0  0
  8  9  1  0  0  0  0
  9 14  1  6  0  0  0
  9  2  1  0  0  0  0
  9 10  1  0  0  0  0
 11 16  1  0  0  0  0
 11 15  1  0  0  0  0
 11 10  1  0  0  0  0
 12 17  1  6  0  0  0
 12 11  1  0  0  0  0
 18  8  1  0  0  0  0
 19 18  1  0  0  0  0
 20 12  1  0  0  0  0
 21 20  1  0  0  0  0
 22 23  1  0  0  0  0
 22 21  1  0  0  0  0
 23 21  1  0  0  0  0
 24  1  1  0  0  0  0
 24 25  1  0  0  0  0
 25 30  1  0  0  0  0
 26 25  2  0  0  0  0
 26 31  1  0  0  0  0
 27 26  1  0  0  0  0
 28 29  1  0  0  0  0
 28 27  2  0  0  0  0
 29 24  2  0  0  0  0
 32 28  1  0  0  0  0
M  END
>  <minimizedAffinity>
-4.5816083

>  <minimizedRMSD>
0.148270056

$$$$
