
 OpenBabel03272508573D

 34 37  0  0  1  0  0  0  0  0999 V2000
   38.3920   31.8570   44.5380 C   0  0  0  0  0  0  0  0  0  0  0  0
   37.2870   32.4460   44.4200 O   0  0  0  0  0  0  0  0  0  0  0  0
   38.9400   31.5560   45.8350 N   0  0  0  0  0  0  0  0  0  0  0  0
   39.9250   31.2500   45.9960 H   0  0  0  0  0  0  0  0  0  0  0  0
   39.1560   31.4570   43.3490 C   0  0  0  0  0  0  0  0  0  0  0  0
   40.2330   30.6280   43.5080 C   0  0  0  0  0  0  0  0  0  0  0  0
   40.9500   30.2260   42.3940 C   0  0  0  0  0  0  0  0  0  0  0  0
   40.5310   30.6910   41.1850 C   0  0  0  0  0  0  0  0  0  0  0  0
   39.4460   31.5340   40.9950 C   0  0  0  0  0  0  0  0  0  0  0  0
   38.7860   31.8890   42.1260 N   0  0  0  0  0  0  0  0  0  0  0  0
   40.5850   30.2440   44.4740 H   0  0  0  0  0  0  0  0  0  0  0  0
   41.8070   29.5780   42.4260 H   0  0  0  0  0  0  0  0  0  0  0  0
   41.0590   30.4060   40.2750 H   0  0  0  0  0  0  0  0  0  0  0  0
   39.0650   32.0080   39.6610 C   0  0  0  0  0  0  0  0  0  0  0  0
   39.1270   33.2640   39.4510 O   0  0  0  0  0  0  0  0  0  0  0  0
   38.6420   30.9560   38.6820 C   0  0  0  0  0  3  0  0  0  0  0  0
   37.1490   31.0810   38.3130 C   0  0  0  0  0  2  0  0  0  0  0  0
   37.6230   29.9430   39.1140 C   0  0  0  0  0  2  0  0  0  0  0  0
   38.4210   31.0980   48.2240 C   0  0  2  0  0  0  0  0  0  0  0  0
   38.6800   32.5520   48.1140 C   0  0  0  0  0  0  0  0  0  0  0  0
   38.0630   31.6910   46.9760 C   0  0  1  0  0  0  0  0  0  0  0  0
   39.3620   30.4960   48.3170 H   0  0  0  0  0  0  0  0  0  0  0  0
   37.9700   33.2230   48.6510 H   0  0  0  0  0  0  0  0  0  0  0  0
   39.6990   32.9210   47.9780 H   0  0  0  0  0  0  0  0  0  0  0  0
   36.9840   31.9520   46.7660 H   0  0  0  0  0  0  0  0  0  0  0  0
   35.0740   30.2040   49.5260 C   0  0  0  0  0  0  0  0  0  0  0  0
   35.4020   29.5600   50.7540 C   0  0  0  0  0  0  0  0  0  0  0  0
   36.7970   29.4530   51.1250 C   0  0  0  0  0  0  0  0  0  0  0  0
   37.7470   29.9710   50.2840 N   0  0  0  0  0  0  0  0  0  0  0  0
   37.3500   30.5710   49.1260 C   0  0  0  0  0  0  0  0  0  0  0  0
   36.0290   30.7060   48.7150 N   0  0  0  0  0  0  0  0  0  0  0  0
   34.0190   30.2560   49.2980 H   0  0  0  0  0  0  0  0  0  0  0  0
   34.6300   29.1750   51.3710 H   0  0  0  0  0  0  0  0  0  0  0  0
   37.0340   28.9670   52.0500 H   0  0  0  0  0  0  0  0  0  0  0  0
  1  3  1  0  0  0  0
  2  1  2  0  0  0  0
  3  4  1  0  0  0  0
  3 21  1  0  0  0  0
  5  6  1  0  0  0  0
  5  1  1  0  0  0  0
  6 11  1  0  0  0  0
  7 12  1  0  0  0  0
  7  6  2  0  0  0  0
  8  7  1  0  0  0  0
  9  8  2  0  0  0  0
  9 10  1  0  0  0  0
 10  5  2  0  0  0  0
 13  8  1  0  0  0  0
 14  9  1  0  0  0  0
 15 14  2  0  0  0  0
 16 18  1  0  0  0  0
 16 14  1  0  0  0  0
 17 16  1  0  0  0  0
 17 18  1  0  0  0  0
 19 22  1  6  0  0  0
 19 30  1  0  0  0  0
 20 19  1  0  0  0  0
 20 23  1  0  0  0  0
 21 25  1  6  0  0  0
 21 20  1  0  0  0  0
 21 19  1  0  0  0  0
 24 20  1  0  0  0  0
 26 27  1  0  0  0  0
 27 28  2  0  0  0  0
 27 33  1  0  0  0  0
 28 34  1  0  0  0  0
 29 28  1  0  0  0  0
 30 29  2  0  0  0  0
 31 30  1  0  0  0  0
 31 26  2  0  0  0  0
 32 26  1  0  0  0  0
M  END
>  <minimizedAffinity>
-4.82236052

>  <minimizedRMSD>
0.488813758

$$$$
