
 OpenBabel03272501443D

 28 31  0  0  0  0  0  0  0  0999 V2000
   36.2440   31.0390   49.2390 C   0  0  0  0  0  0  0  0  0  0  0  0
   35.8570   30.4340   48.0420 C   0  0  0  0  0  0  0  0  0  0  0  0
   36.6300   30.6830   46.9210 C   0  0  0  0  0  0  0  0  0  0  0  0
   37.7490   31.5160   47.0330 C   0  0  0  0  0  0  0  0  0  0  0  0
   38.6690   31.9360   46.1530 N   0  0  0  0  0  0  0  0  0  0  0  0
   39.5500   32.7290   46.7450 C   0  0  0  0  0  0  0  0  0  0  0  0
   39.2090   32.8380   48.0440 N   0  0  0  0  0  0  0  0  0  0  0  0
   38.1080   32.0970   48.2180 C   0  0  0  0  0  0  0  0  0  0  0  0
   37.3460   31.8570   49.3400 C   0  0  0  0  0  0  0  0  0  0  0  0
   35.7290   30.9350   50.2040 H   0  0  0  0  0  0  0  0  0  0  0  0
   36.3480   30.2250   45.9860 H   0  0  0  0  0  0  0  0  0  0  0  0
   38.6220   31.6260   45.1410 H   0  0  0  0  0  0  0  0  0  0  0  0
   40.3640   33.1570   46.1750 H   0  0  0  0  0  0  0  0  0  0  0  0
   37.6620   32.3360   50.2680 H   0  0  0  0  0  0  0  0  0  0  0  0
   34.2730   29.1850   49.3670 C   0  0  0  0  0  0  0  0  0  0  0  0
   34.6810   29.5980   48.0630 C   0  0  0  0  0  0  0  0  0  0  0  0
   33.9150   29.1670   46.9960 C   0  0  0  0  0  0  0  0  0  0  0  0
   32.8340   28.3850   47.2490 N   0  0  0  0  0  0  0  0  0  0  0  0
   32.4670   28.0080   48.4800 C   0  0  0  0  0  0  0  0  0  0  0  0
   33.1910   28.4130   49.5290 N   0  0  0  0  0  0  0  0  0  0  0  0
   34.7420   29.4160   50.3220 H   0  0  0  0  0  0  0  0  0  0  0  0
   34.2440   29.4900   46.0330 H   0  0  0  0  0  0  0  0  0  0  0  0
   31.2640   27.1520   48.6870 C   0  0  0  0  0  0  0  0  0  0  0  0
   31.5960   26.1440   49.0260 H   0  0  0  0  0  0  0  0  0  0  0  0
   30.7300   27.0920   47.7100 H   0  0  0  0  0  0  0  0  0  0  0  0
   30.3510   27.7990   49.6780 C   0  0  0  0  0  0  0  0  0  0  0  0
   28.9800   28.1540   49.2640 C   0  0  0  0  0  0  0  0  0  0  0  0
   29.1900   27.0180   50.2470 C   0  0  0  0  0  0  0  0  0  0  0  0
  1  9  1  0  0  0  0
  1 10  1  0  0  0  0
  2 16  1  0  0  0  0
  2  1  2  0  0  0  0
  3  4  2  0  0  0  0
  3  2  1  0  0  0  0
  4  8  1  0  0  0  0
  5  6  1  0  0  0  0
  5  4  1  0  0  0  0
  6  7  2  0  0  0  0
  7  8  1  0  0  0  0
  8  9  2  0  0  0  0
  9 14  1  0  0  0  0
 11  3  1  0  0  0  0
 12  5  1  0  0  0  0
 13  6  1  0  0  0  0
 15 20  1  0  0  0  0
 15 21  1  0  0  0  0
 16 15  2  0  0  0  0
 17 18  2  0  0  0  0
 17 16  1  0  0  0  0
 18 19  1  0  0  0  0
 19 23  1  0  0  0  0
 19 20  2  0  0  0  0
 22 17  1  0  0  0  0
 23 24  1  0  0  0  0
 23 26  1  0  0  0  0
 25 23  1  0  0  0  0
 26 28  1  0  0  0  0
 27 26  1  0  0  0  0
 27 28  1  0  0  0  0
M  END
>  <minimizedAffinity>
-5.67010593

>  <minimizedRMSD>
1.93714678

$$$$
