
 OpenBabel03272510303D

 22 24  0  0  0  0  0  0  0  0999 V2000
   37.4010   31.3740   49.2480 C   0  0  0  0  0  0  0  0  0  0  0  0
   37.7190   32.6840   49.6140 C   0  0  0  0  0  0  0  0  0  0  0  0
   38.5780   33.3540   48.7700 C   0  0  0  0  0  0  0  0  0  0  0  0
   39.0610   32.7270   47.6490 N   0  0  0  0  0  0  0  0  0  0  0  0
   38.7160   31.4410   47.3350 C   0  0  0  0  0  0  0  0  0  0  0  0
   37.8640   30.7490   48.1590 N   0  0  0  0  0  0  0  0  0  0  0  0
   37.3150   33.1370   50.5070 H   0  0  0  0  0  0  0  0  0  0  0  0
   38.8830   34.3730   48.9700 H   0  0  0  0  0  0  0  0  0  0  0  0
   36.4390   30.6250   50.1340 C   0  0  0  0  0  0  0  0  0  0  0  0
   36.3720   29.1870   50.1840 C   0  0  0  0  0  0  0  0  0  0  0  0
   37.1440   29.8900   51.2860 C   0  0  0  0  0  0  0  0  0  0  0  0
   35.5580   31.2530   50.4670 H   0  0  0  0  0  0  0  0  0  0  0  0
   35.3910   28.7300   50.4470 H   0  0  0  0  0  0  0  0  0  0  0  0
   36.9800   28.5460   49.5150 H   0  0  0  0  0  0  0  0  0  0  0  0
   36.6540   29.9290   52.2870 H   0  0  0  0  0  0  0  0  0  0  0  0
   38.2380   29.8640   51.3050 H   0  0  0  0  0  0  0  0  0  0  0  0
   39.2080   30.7510   46.1340 C   0  0  0  0  0  0  0  0  0  0  0  0
   40.3150   30.7600   46.0710 H   0  0  0  0  0  0  0  0  0  0  0  0
   38.9180   29.6810   46.1860 H   0  0  0  0  0  0  0  0  0  0  0  0
   38.5780   31.3320   44.8900 C   0  0  0  0  0  3  0  0  0  0  0  0
   38.2640   30.4950   43.7200 C   0  0  0  0  0  2  0  0  0  0  0  0
   37.1540   31.1100   44.5970 C   0  0  0  0  0  2  0  0  0  0  0  0
  1  2  1  0  0  0  0
  1  9  1  0  0  0  0
  2  7  1  0  0  0  0
  3  8  1  0  0  0  0
  3  2  2  0  0  0  0
  4  3  1  0  0  0  0
  5  4  2  0  0  0  0
  5  6  1  0  0  0  0
  6  1  2  0  0  0  0
  9 10  1  0  0  0  0
  9 12  1  0  0  0  0
  9 11  1  0  0  0  0
 10 13  1  0  0  0  0
 10 11  1  0  0  0  0
 11 16  1  0  0  0  0
 11 15  1  0  0  0  0
 14 10  1  0  0  0  0
 17 19  1  0  0  0  0
 17  5  1  0  0  0  0
 18 17  1  0  0  0  0
 20 17  1  0  0  0  0
 21 22  1  0  0  0  0
 21 20  1  0  0  0  0
 22 20  1  0  0  0  0
M  END
>  <minimizedAffinity>
-4.60776091

>  <minimizedRMSD>
0.309323609

$$$$
