
 OpenBabel03272507333D

 30 33  0  0  1  0  0  0  0  0999 V2000
   35.8360   29.3710   49.0970 C   0  0  0  0  0  0  0  0  0  0  0  0
   34.8570   28.8040   49.8820 C   0  0  0  0  0  0  0  0  0  0  0  0
   33.7310   28.6020   49.0610 C   0  0  0  0  0  0  0  0  0  0  0  0
   34.1120   29.0670   47.8190 C   0  0  0  0  0  0  0  0  0  0  0  0
   35.3500   29.5070   47.8860 O   0  0  0  0  0  0  0  0  0  0  0  0
   34.8030   28.5110   50.9280 H   0  0  0  0  0  0  0  0  0  0  0  0
   32.7460   28.1790   49.2940 H   0  0  0  0  0  0  0  0  0  0  0  0
   37.1460   29.7170   49.6250 C   0  0  0  0  0  0  0  0  0  0  0  0
   37.6230   29.0440   50.5510 O   0  0  0  0  0  0  0  0  0  0  0  0
   37.8180   30.8440   49.0210 C   0  0  0  0  0  0  0  0  0  0  0  0
   37.8460   32.0170   49.7550 C   0  0  0  0  0  0  0  0  0  0  0  0
   38.4870   33.1300   49.1990 C   0  0  0  0  0  0  0  0  0  0  0  0
   39.0500   32.9920   47.9560 N   0  0  0  0  0  0  0  0  0  0  0  0
   38.9980   31.8420   47.2810 C   0  0  0  0  0  0  0  0  0  0  0  0
   38.3880   30.7730   47.8040 N   0  0  0  0  0  0  0  0  0  0  0  0
   37.4260   32.1820   50.7270 H   0  0  0  0  0  0  0  0  0  0  0  0
   38.5470   34.0790   49.7190 H   0  0  0  0  0  0  0  0  0  0  0  0
   39.4260   31.6870   46.3040 H   0  0  0  0  0  0  0  0  0  0  0  0
   33.2710   29.0650   46.6200 C   0  0  0  0  0  0  0  0  0  0  0  0
   32.4370   29.9970   46.4550 O   0  0  0  0  0  0  0  0  0  0  0  0
   33.3890   27.9810   45.6130 C   0  0  1  0  0  0  0  0  0  0  0  0
   33.8210   26.6210   46.2870 C   0  0  0  0  0  0  0  0  0  0  0  0
   32.5140   26.8120   45.5860 C   0  0  1  0  0  0  0  0  0  0  0  0
   34.1340   28.2120   44.7810 H   0  0  0  0  0  0  0  0  0  0  0  0
   34.6380   26.1050   45.8010 H   0  0  0  0  0  0  0  0  0  0  0  0
   33.8020   26.5740   47.3720 H   0  0  0  0  0  0  0  0  0  0  0  0
   32.4610   26.2310   44.6240 H   0  0  0  0  0  0  0  0  0  0  0  0
   31.2530   26.7640   46.3650 C   0  0  0  0  0  0  0  0  0  0  0  0
   31.1140   26.2220   47.7250 C   0  0  0  0  0  0  0  0  0  0  0  0
   30.5610   25.4170   46.5140 C   0  0  0  0  0  0  0  0  0  0  0  0
  1  8  1  0  0  0  0
  1  2  2  0  0  0  0
  2  6  1  0  0  0  0
  3  7  1  0  0  0  0
  3  2  1  0  0  0  0
  4  5  1  0  0  0  0
  4  3  2  0  0  0  0
  5  1  1  0  0  0  0
  8  9  2  0  0  0  0
 10  8  1  0  0  0  0
 10 11  1  0  0  0  0
 11 16  1  0  0  0  0
 12 17  1  0  0  0  0
 12 11  2  0  0  0  0
 13 12  1  0  0  0  0
 14 15  1  0  0  0  0
 14 13  2  0  0  0  0
 15 10  2  0  0  0  0
 18 14  1  0  0  0  0
 19  4  1  0  0  0  0
 20 19  2  0  0  0  0
 21 24  1  6  0  0  0
 21 22  1  0  0  0  0
 21 19  1  0  0  0  0
 22 26  1  0  0  0  0
 23 27  1  6  0  0  0
 23 21  1  0  0  0  0
 23 22  1  0  0  0  0
 23 28  1  0  0  0  0
 25 22  1  0  0  0  0
 28 30  1  0  0  0  0
 28 29  1  0  0  0  0
 30 29  1  0  0  0  0
M  END
>  <minimizedAffinity>
-5.00785685

>  <minimizedRMSD>
1.35125113

$$$$
