
 OpenBabel03272501063D

 24 26  0  0  1  0  0  0  0  0999 V2000
   38.0800   25.5930   33.9870 C   0  0  2  0  0  0  0  0  0  0  0  0
   37.7380   25.6450   35.5000 C   0  0  2  0  0  0  0  0  0  0  0  0
   38.0450   27.0640   35.7520 C   0  0  0  0  0  0  0  0  0  0  0  0
   37.5760   27.7700   34.6470 O   0  0  0  0  0  0  0  0  0  0  0  0
   37.3920   26.9000   33.6060 C   0  0  0  0  0  0  0  0  0  0  0  0
   39.1550   25.6040   33.8210 H   0  0  0  0  0  0  0  0  0  0  0  0
   36.6280   25.4870   35.5300 H   0  0  0  0  0  0  0  0  0  0  0  0
   37.6750   27.4730   36.7110 H   0  0  0  0  0  0  0  0  0  0  0  0
   39.1460   27.2170   35.7610 H   0  0  0  0  0  0  0  0  0  0  0  0
   36.3090   26.6730   33.5350 H   0  0  0  0  0  0  0  0  0  0  0  0
   37.7540   27.2830   32.6330 H   0  0  0  0  0  0  0  0  0  0  0  0
   38.7460   23.3270   38.2910 C   0  0  0  0  0  0  0  0  0  0  0  0
   38.0120   24.2950   37.5600 C   0  0  0  0  0  0  0  0  0  0  0  0
   38.4510   24.6610   36.2660 C   0  0  0  0  0  0  0  0  0  0  0  0
   39.5810   24.0500   35.7870 N   0  0  0  0  0  0  0  0  0  0  0  0
   40.2530   23.1400   36.5040 C   0  0  0  0  0  0  0  0  0  0  0  0
   39.8570   22.7670   37.7480 N   0  0  0  0  0  0  0  0  0  0  0  0
   38.3060   23.1370   39.2600 H   0  0  0  0  0  0  0  0  0  0  0  0
   37.1190   24.7660   37.9580 H   0  0  0  0  0  0  0  0  0  0  0  0
   41.1410   22.6850   36.0840 H   0  0  0  0  0  0  0  0  0  0  0  0
   37.4320   24.5200   33.3710 O   0  0  0  0  0  0  0  0  0  0  0  0
   36.8450   25.0080   32.2040 C   0  0  0  0  0  3  0  0  0  0  0  0
   35.8290   24.1130   31.5590 C   0  0  0  0  0  2  0  0  0  0  0  0
   37.1570   24.3480   30.9090 C   0  0  0  0  0  2  0  0  0  0  0  0
  1  6  1  6  0  0  0
  1  2  1  0  0  0  0
  2  7  1  1  0  0  0
  2  3  1  0  0  0  0
  2 14  1  0  0  0  0
  3  9  1  0  0  0  0
  3  8  1  0  0  0  0
  4  3  1  0  0  0  0
  5  1  1  0  0  0  0
  5  4  1  0  0  0  0
 10  5  1  0  0  0  0
 11  5  1  0  0  0  0
 12 18  1  0  0  0  0
 13 19  1  0  0  0  0
 13 12  2  0  0  0  0
 14 13  1  0  0  0  0
 15 14  2  0  0  0  0
 15 16  1  0  0  0  0
 16 17  2  0  0  0  0
 17 12  1  0  0  0  0
 20 16  1  0  0  0  0
 21  1  1  0  0  0  0
 22 21  1  0  0  0  0
 23 22  1  0  0  0  0
 24 23  1  0  0  0  0
 24 22  1  0  0  0  0
M  END
>  <minimizedAffinity>
-4.15947151

$$$$

 OpenBabel03272501063D

 24 26  0  0  1  0  0  0  0  0999 V2000
   38.0900   25.5260   33.9660 C   0  0  2  0  0  0  0  0  0  0  0  0
   37.7700   25.6130   35.4820 C   0  0  2  0  0  0  0  0  0  0  0  0
   38.0910   27.0340   35.6990 C   0  0  0  0  0  0  0  0  0  0  0  0
   37.6120   27.7200   34.5870 O   0  0  0  0  0  0  0  0  0  0  0  0
   37.4070   26.8290   33.5670 C   0  0  0  0  0  0  0  0  0  0  0  0
   39.1630   25.5250   33.7840 H   0  0  0  0  0  0  0  0  0  0  0  0
   36.6600   25.4640   35.5320 H   0  0  0  0  0  0  0  0  0  0  0  0
   37.7380   27.4660   36.6550 H   0  0  0  0  0  0  0  0  0  0  0  0
   39.1930   27.1790   35.6890 H   0  0  0  0  0  0  0  0  0  0  0  0
   36.3200   26.6080   33.5160 H   0  0  0  0  0  0  0  0  0  0  0  0
   37.7570   27.1890   32.5810 H   0  0  0  0  0  0  0  0  0  0  0  0
   40.3370   23.0680   36.5420 C   0  0  0  0  0  0  0  0  0  0  0  0
   39.6610   24.0330   35.7520 C   0  0  0  0  0  0  0  0  0  0  0  0
   38.4870   24.6390   36.2590 C   0  0  0  0  0  0  0  0  0  0  0  0
   38.0630   24.2510   37.5030 N   0  0  0  0  0  0  0  0  0  0  0  0
   38.7240   23.3350   38.2240 C   0  0  0  0  0  0  0  0  0  0  0  0
   39.8540   22.7370   37.7660 N   0  0  0  0  0  0  0  0  0  0  0  0
   41.2160   22.6850   36.0430 H   0  0  0  0  0  0  0  0  0  0  0  0
   40.0140   24.3260   34.7680 H   0  0  0  0  0  0  0  0  0  0  0  0
   38.3510   23.0600   39.2020 H   0  0  0  0  0  0  0  0  0  0  0  0
   37.4260   24.4440   33.3830 O   0  0  0  0  0  0  0  0  0  0  0  0
   36.8830   24.8950   32.1800 C   0  0  0  0  0  3  0  0  0  0  0  0
   35.8710   23.9920   31.5390 C   0  0  0  0  0  2  0  0  0  0  0  0
   37.2210   24.1790   30.9220 C   0  0  0  0  0  2  0  0  0  0  0  0
  1  6  1  6  0  0  0
  1  2  1  0  0  0  0
  2  7  1  1  0  0  0
  2  3  1  0  0  0  0
  2 14  1  0  0  0  0
  3  8  1  0  0  0  0
  4  3  1  0  0  0  0
  5  1  1  0  0  0  0
  5  4  1  0  0  0  0
  9  3  1  0  0  0  0
 10  5  1  0  0  0  0
 11  5  1  0  0  0  0
 12 17  1  0  0  0  0
 13 14  1  0  0  0  0
 13 12  2  0  0  0  0
 14 15  2  0  0  0  0
 15 16  1  0  0  0  0
 16 20  1  0  0  0  0
 17 16  2  0  0  0  0
 18 12  1  0  0  0  0
 19 13  1  0  0  0  0
 21  1  1  0  0  0  0
 22 21  1  0  0  0  0
 23 22  1  0  0  0  0
 24 23  1  0  0  0  0
 24 22  1  0  0  0  0
M  END
>  <minimizedAffinity>
-4.05409241

$$$$

 OpenBabel03272501063D

 24 26  0  0  1  0  0  0  0  0999 V2000
   39.5520   23.2570   36.3770 C   0  0  2  0  0  0  0  0  0  0  0  0
   38.6530   24.5090   36.5630 C   0  0  2  0  0  0  0  0  0  0  0  0
   37.6980   23.9560   37.5400 C   0  0  0  0  0  0  0  0  0  0  0  0
   38.4440   23.1820   38.4240 O   0  0  0  0  0  0  0  0  0  0  0  0
   39.6540   22.8920   37.8530 C   0  0  0  0  0  0  0  0  0  0  0  0
   39.0580   22.4970   35.7750 H   0  0  0  0  0  0  0  0  0  0  0  0
   39.3260   25.2490   37.0690 H   0  0  0  0  0  0  0  0  0  0  0  0
   37.0550   24.6950   38.0530 H   0  0  0  0  0  0  0  0  0  0  0  0
   37.0050   23.2500   37.0330 H   0  0  0  0  0  0  0  0  0  0  0  0
   40.4130   23.5730   38.2910 H   0  0  0  0  0  0  0  0  0  0  0  0
   39.9750   21.8420   37.9930 H   0  0  0  0  0  0  0  0  0  0  0  0
   37.1300   26.7880   33.9810 C   0  0  0  0  0  0  0  0  0  0  0  0
   37.6510   26.3340   35.2190 C   0  0  0  0  0  0  0  0  0  0  0  0
   38.1280   25.0060   35.3220 C   0  0  0  0  0  0  0  0  0  0  0  0
   38.0540   24.2210   34.2000 N   0  0  0  0  0  0  0  0  0  0  0  0
   37.5540   24.6800   33.0450 C   0  0  0  0  0  0  0  0  0  0  0  0
   37.0900   25.9490   32.9150 N   0  0  0  0  0  0  0  0  0  0  0  0
   36.8030   27.8170   34.0360 H   0  0  0  0  0  0  0  0  0  0  0  0
   37.7010   26.9730   36.0960 H   0  0  0  0  0  0  0  0  0  0  0  0
   37.5160   24.0220   32.1860 H   0  0  0  0  0  0  0  0  0  0  0  0
   40.8100   23.6220   35.8900 O   0  0  0  0  0  0  0  0  0  0  0  0
   41.7590   22.9650   36.6730 C   0  0  0  0  0  3  0  0  0  0  0  0
   43.1730   23.4450   36.5280 C   0  0  0  0  0  2  0  0  0  0  0  0
   42.7700   22.1010   36.0080 C   0  0  0  0  0  2  0  0  0  0  0  0
  1  6  1  6  0  0  0
  1  2  1  0  0  0  0
  1  5  1  0  0  0  0
  2  7  1  1  0  0  0
  2  3  1  0  0  0  0
  3  8  1  0  0  0  0
  3  4  1  0  0  0  0
  5 11  1  0  0  0  0
  5 10  1  0  0  0  0
  5  4  1  0  0  0  0
  9  3  1  0  0  0  0
 12 18  1  0  0  0  0
 12 13  1  0  0  0  0
 13 14  2  0  0  0  0
 13 19  1  0  0  0  0
 14  2  1  0  0  0  0
 15 14  1  0  0  0  0
 16 15  2  0  0  0  0
 17 16  1  0  0  0  0
 17 12  2  0  0  0  0
 20 16  1  0  0  0  0
 21  1  1  0  0  0  0
 21 22  1  0  0  0  0
 23 22  1  0  0  0  0
 24 23  1  0  0  0  0
 24 22  1  0  0  0  0
M  END
>  <minimizedAffinity>
-3.97650099

$$$$

 OpenBabel03272501063D

 24 26  0  0  1  0  0  0  0  0999 V2000
   37.9190   26.6490   34.7990 C   0  0  2  0  0  0  0  0  0  0  0  0
   38.3730   25.8990   33.5190 C   0  0  2  0  0  0  0  0  0  0  0  0
   39.4230   26.8310   33.0720 C   0  0  0  0  0  0  0  0  0  0  0  0
   40.0950   27.2460   34.2190 O   0  0  0  0  0  0  0  0  0  0  0  0
   39.3150   26.9820   35.3140 C   0  0  0  0  0  0  0  0  0  0  0  0
   37.3250   27.5290   34.5570 H   0  0  0  0  0  0  0  0  0  0  0  0
   38.8430   24.9600   33.9100 H   0  0  0  0  0  0  0  0  0  0  0  0
   40.1050   26.4480   32.2910 H   0  0  0  0  0  0  0  0  0  0  0  0
   38.9600   27.7480   32.6480 H   0  0  0  0  0  0  0  0  0  0  0  0
   39.6980   26.0580   35.7940 H   0  0  0  0  0  0  0  0  0  0  0  0
   39.2930   27.8020   36.0550 H   0  0  0  0  0  0  0  0  0  0  0  0
   35.8770   24.0790   31.3650 C   0  0  0  0  0  0  0  0  0  0  0  0
   36.9480   24.3050   32.2670 C   0  0  0  0  0  0  0  0  0  0  0  0
   37.2880   25.6330   32.6150 C   0  0  0  0  0  0  0  0  0  0  0  0
   36.5530   26.6420   32.0480 N   0  0  0  0  0  0  0  0  0  0  0  0
   35.5480   26.3950   31.1980 C   0  0  0  0  0  0  0  0  0  0  0  0
   35.1960   25.1320   30.8450 N   0  0  0  0  0  0  0  0  0  0  0  0
   35.7190   23.0250   31.1840 H   0  0  0  0  0  0  0  0  0  0  0  0
   37.5170   23.4910   32.7050 H   0  0  0  0  0  0  0  0  0  0  0  0
   34.9960   27.2260   30.7750 H   0  0  0  0  0  0  0  0  0  0  0  0
   37.2840   25.7750   35.6840 O   0  0  0  0  0  0  0  0  0  0  0  0
   38.2730   24.9690   36.2470 C   0  0  0  0  0  3  0  0  0  0  0  0
   37.9410   23.5100   36.3620 C   0  0  0  0  0  2  0  0  0  0  0  0
   38.0380   24.3670   37.5850 C   0  0  0  0  0  2  0  0  0  0  0  0
  1  6  1  6  0  0  0
  1  5  1  0  0  0  0
  1 21  1  0  0  0  0
  2  7  1  1  0  0  0
  2  1  1  0  0  0  0
  3  2  1  0  0  0  0
  3  4  1  0  0  0  0
  4  5  1  0  0  0  0
  5 10  1  0  0  0  0
  5 11  1  0  0  0  0
  8  3  1  0  0  0  0
  9  3  1  0  0  0  0
 12 13  1  0  0  0  0
 13 14  2  0  0  0  0
 13 19  1  0  0  0  0
 14  2  1  0  0  0  0
 15 14  1  0  0  0  0
 16 15  2  0  0  0  0
 17 16  1  0  0  0  0
 17 12  2  0  0  0  0
 18 12  1  0  0  0  0
 20 16  1  0  0  0  0
 21 22  1  0  0  0  0
 22 23  1  0  0  0  0
 22 24  1  0  0  0  0
 23 24  1  0  0  0  0
M  END
>  <minimizedAffinity>
-3.90538311

$$$$

 OpenBabel03272501063D

 24 26  0  0  1  0  0  0  0  0999 V2000
   38.1850   24.0500   33.7430 C   0  0  2  0  0  0  0  0  0  0  0  0
   38.5080   22.7240   34.4820 C   0  0  2  0  0  0  0  0  0  0  0  0
   37.3380   21.9370   34.0540 C   0  0  0  0  0  0  0  0  0  0  0  0
   37.1220   22.2500   32.7150 O   0  0  0  0  0  0  0  0  0  0  0  0
   37.7730   23.4180   32.4180 C   0  0  0  0  0  0  0  0  0  0  0  0
   37.3800   24.5940   34.2330 H   0  0  0  0  0  0  0  0  0  0  0  0
   39.4280   22.3450   33.9650 H   0  0  0  0  0  0  0  0  0  0  0  0
   37.3990   20.8480   34.2360 H   0  0  0  0  0  0  0  0  0  0  0  0
   36.4310   22.2840   34.5940 H   0  0  0  0  0  0  0  0  0  0  0  0
   38.7140   23.1620   31.8890 H   0  0  0  0  0  0  0  0  0  0  0  0
   37.1780   24.1160   31.7990 H   0  0  0  0  0  0  0  0  0  0  0  0
   37.9620   23.7090   38.0750 C   0  0  0  0  0  0  0  0  0  0  0  0
   37.7230   23.5350   36.6880 C   0  0  0  0  0  0  0  0  0  0  0  0
   38.7100   22.9080   35.8920 C   0  0  0  0  0  0  0  0  0  0  0  0
   39.8600   22.5000   36.5180 N   0  0  0  0  0  0  0  0  0  0  0  0
   40.0560   22.6810   37.8310 C   0  0  0  0  0  0  0  0  0  0  0  0
   39.1270   23.2780   38.6220 N   0  0  0  0  0  0  0  0  0  0  0  0
   37.1330   24.1970   38.5670 H   0  0  0  0  0  0  0  0  0  0  0  0
   36.8050   23.8650   36.2130 H   0  0  0  0  0  0  0  0  0  0  0  0
   40.9810   22.3430   38.2800 H   0  0  0  0  0  0  0  0  0  0  0  0
   39.3440   24.8100   33.5650 O   0  0  0  0  0  0  0  0  0  0  0  0
   39.0220   26.1290   33.8840 C   0  0  0  0  0  3  0  0  0  0  0  0
   40.1850   27.0590   34.0720 C   0  0  0  0  0  2  0  0  0  0  0  0
   39.3460   26.6440   35.2400 C   0  0  0  0  0  2  0  0  0  0  0  0
  1  6  1  1  0  0  0
  1  2  1  0  0  0  0
  2  7  1  6  0  0  0
  2 14  1  0  0  0  0
  3  8  1  0  0  0  0
  3  2  1  0  0  0  0
  3  9  1  0  0  0  0
  4  3  1  0  0  0  0
  5  4  1  0  0  0  0
  5  1  1  0  0  0  0
 10  5  1  0  0  0  0
 11  5  1  0  0  0  0
 12 18  1  0  0  0  0
 12 17  1  0  0  0  0
 13 12  2  0  0  0  0
 14 15  2  0  0  0  0
 14 13  1  0  0  0  0
 15 16  1  0  0  0  0
 16 20  1  0  0  0  0
 16 17  2  0  0  0  0
 19 13  1  0  0  0  0
 21  1  1  0  0  0  0
 21 22  1  0  0  0  0
 22 23  1  0  0  0  0
 22 24  1  0  0  0  0
 23 24  1  0  0  0  0
M  END
>  <minimizedAffinity>
-3.87365294

$$$$

 OpenBabel03272501063D

 24 26  0  0  1  0  0  0  0  0999 V2000
   38.2240   24.0110   34.9740 C   0  0  2  0  0  0  0  0  0  0  0  0
   38.5240   22.9240   33.9070 C   0  0  2  0  0  0  0  0  0  0  0  0
   39.3740   23.7210   33.0060 C   0  0  0  0  0  0  0  0  0  0  0  0
   40.1890   24.5020   33.8220 O   0  0  0  0  0  0  0  0  0  0  0  0
   39.6460   24.5530   35.0780 C   0  0  0  0  0  0  0  0  0  0  0  0
   37.5070   24.7420   34.6070 H   0  0  0  0  0  0  0  0  0  0  0  0
   39.1530   22.1750   34.4560 H   0  0  0  0  0  0  0  0  0  0  0  0
   39.9460   23.1480   32.2520 H   0  0  0  0  0  0  0  0  0  0  0  0
   38.7490   24.4390   32.4320 H   0  0  0  0  0  0  0  0  0  0  0  0
   40.2030   23.8420   35.7230 H   0  0  0  0  0  0  0  0  0  0  0  0
   39.6660   25.5610   35.5340 H   0  0  0  0  0  0  0  0  0  0  0  0
   35.5750   22.2530   31.6630 C   0  0  0  0  0  0  0  0  0  0  0  0
   36.7580   22.8480   32.1700 C   0  0  0  0  0  0  0  0  0  0  0  0
   37.3320   22.3390   33.3580 C   0  0  0  0  0  0  0  0  0  0  0  0
   36.6990   21.2830   33.9620 N   0  0  0  0  0  0  0  0  0  0  0  0
   35.5820   20.7430   33.4580 C   0  0  0  0  0  0  0  0  0  0  0  0
   35.0080   21.2090   32.3190 N   0  0  0  0  0  0  0  0  0  0  0  0
   35.2420   22.7320   30.7530 H   0  0  0  0  0  0  0  0  0  0  0  0
   37.2430   23.6840   31.6760 H   0  0  0  0  0  0  0  0  0  0  0  0
   35.1180   19.9100   33.9710 H   0  0  0  0  0  0  0  0  0  0  0  0
   37.8510   23.4230   36.1850 O   0  0  0  0  0  0  0  0  0  0  0  0
   38.5840   24.0530   37.1910 C   0  0  0  0  0  3  0  0  0  0  0  0
   38.8090   23.2490   38.4370 C   0  0  0  0  0  2  0  0  0  0  0  0
   37.8980   24.4360   38.4520 C   0  0  0  0  0  2  0  0  0  0  0  0
  1  6  1  6  0  0  0
  1  5  1  0  0  0  0
  1 21  1  0  0  0  0
  2  7  1  1  0  0  0
  2  1  1  0  0  0  0
  3  4  1  0  0  0  0
  3  2  1  0  0  0  0
  4  5  1  0  0  0  0
  5 11  1  0  0  0  0
  5 10  1  0  0  0  0
  8  3  1  0  0  0  0
  9  3  1  0  0  0  0
 12 13  2  0  0  0  0
 12 17  1  0  0  0  0
 13 14  1  0  0  0  0
 14  2  1  0  0  0  0
 14 15  2  0  0  0  0
 16 15  1  0  0  0  0
 16 20  1  0  0  0  0
 17 16  2  0  0  0  0
 18 12  1  0  0  0  0
 19 13  1  0  0  0  0
 21 22  1  0  0  0  0
 22 23  1  0  0  0  0
 22 24  1  0  0  0  0
 23 24  1  0  0  0  0
M  END
>  <minimizedAffinity>
-3.82500696

$$$$

 OpenBabel03272501063D

 24 26  0  0  1  0  0  0  0  0999 V2000
   42.0330   23.0510   35.7910 C   0  0  2  0  0  0  0  0  0  0  0  0
   41.3880   22.5070   37.0940 C   0  0  2  0  0  0  0  0  0  0  0  0
   41.9240   21.1360   37.0550 C   0  0  0  0  0  0  0  0  0  0  0  0
   43.2420   21.2410   36.6200 O   0  0  0  0  0  0  0  0  0  0  0  0
   43.4190   22.4590   36.0200 C   0  0  0  0  0  0  0  0  0  0  0  0
   41.5340   22.6600   34.9060 H   0  0  0  0  0  0  0  0  0  0  0  0
   41.8950   23.0890   37.9070 H   0  0  0  0  0  0  0  0  0  0  0  0
   41.8260   20.5550   37.9910 H   0  0  0  0  0  0  0  0  0  0  0  0
   41.3960   20.5450   36.2750 H   0  0  0  0  0  0  0  0  0  0  0  0
   43.9280   23.1280   36.7440 H   0  0  0  0  0  0  0  0  0  0  0  0
   44.0040   22.4150   35.0820 H   0  0  0  0  0  0  0  0  0  0  0  0
   37.7640   22.4420   36.0690 C   0  0  0  0  0  0  0  0  0  0  0  0
   39.1700   22.2600   36.0160 C   0  0  0  0  0  0  0  0  0  0  0  0
   39.9600   22.6670   37.1160 C   0  0  0  0  0  0  0  0  0  0  0  0
   39.3100   23.2260   38.1870 N   0  0  0  0  0  0  0  0  0  0  0  0
   37.9810   23.3860   38.2050 C   0  0  0  0  0  0  0  0  0  0  0  0
   37.1950   23.0040   37.1660 N   0  0  0  0  0  0  0  0  0  0  0  0
   37.2790   22.0890   35.1700 H   0  0  0  0  0  0  0  0  0  0  0  0
   39.6640   21.8150   35.1580 H   0  0  0  0  0  0  0  0  0  0  0  0
   37.5130   23.8330   39.0730 H   0  0  0  0  0  0  0  0  0  0  0  0
   42.1020   24.4460   35.8200 O   0  0  0  0  0  0  0  0  0  0  0  0
   41.4010   24.9160   34.7090 C   0  0  0  0  0  3  0  0  0  0  0  0
   41.4130   26.4020   34.5090 C   0  0  0  0  0  2  0  0  0  0  0  0
   40.1570   25.7000   34.9200 C   0  0  0  0  0  2  0  0  0  0  0  0
  1  6  1  6  0  0  0
  1 21  1  0  0  0  0
  1  5  1  0  0  0  0
  1  2  1  0  0  0  0
  2 14  1  0  0  0  0
  2  7  1  1  0  0  0
  3  2  1  0  0  0  0
  3  8  1  0  0  0  0
  4  3  1  0  0  0  0
  5  4  1  0  0  0  0
  5 10  1  0  0  0  0
  9  3  1  0  0  0  0
 11  5  1  0  0  0  0
 12 17  1  0  0  0  0
 13 12  2  0  0  0  0
 13 14  1  0  0  0  0
 14 15  2  0  0  0  0
 15 16  1  0  0  0  0
 16 20  1  0  0  0  0
 17 16  2  0  0  0  0
 18 12  1  0  0  0  0
 19 13  1  0  0  0  0
 22 24  1  0  0  0  0
 22 21  1  0  0  0  0
 23 22  1  0  0  0  0
 23 24  1  0  0  0  0
M  END
>  <minimizedAffinity>
-3.81020999

$$$$

 OpenBabel03272501063D

 24 26  0  0  1  0  0  0  0  0999 V2000
   37.0020   25.8260   32.9260 C   0  0  2  0  0  0  0  0  0  0  0  0
   36.8100   25.4050   31.4450 C   0  0  2  0  0  0  0  0  0  0  0  0
   35.5730   26.1510   31.1570 C   0  0  0  0  0  0  0  0  0  0  0  0
   35.7040   27.3870   31.7830 O   0  0  0  0  0  0  0  0  0  0  0  0
   36.6900   27.3060   32.7300 C   0  0  0  0  0  0  0  0  0  0  0  0
   36.2970   25.3170   33.5800 H   0  0  0  0  0  0  0  0  0  0  0  0
   37.6730   25.8850   30.9150 H   0  0  0  0  0  0  0  0  0  0  0  0
   35.3020   26.2380   30.0880 H   0  0  0  0  0  0  0  0  0  0  0  0
   34.7080   25.6550   31.6500 H   0  0  0  0  0  0  0  0  0  0  0  0
   37.6080   27.7650   32.3100 H   0  0  0  0  0  0  0  0  0  0  0  0
   36.4330   27.7990   33.6870 H   0  0  0  0  0  0  0  0  0  0  0  0
   35.6230   21.8320   31.3480 C   0  0  0  0  0  0  0  0  0  0  0  0
   35.6070   23.2390   31.5200 C   0  0  0  0  0  0  0  0  0  0  0  0
   36.7870   23.9780   31.2710 C   0  0  0  0  0  0  0  0  0  0  0  0
   37.8970   23.2790   30.8730 N   0  0  0  0  0  0  0  0  0  0  0  0
   37.8800   21.9490   30.7210 C   0  0  0  0  0  0  0  0  0  0  0  0
   36.7640   21.2110   30.9510 N   0  0  0  0  0  0  0  0  0  0  0  0
   34.6620   21.3880   31.5680 H   0  0  0  0  0  0  0  0  0  0  0  0
   34.7160   23.7730   31.8360 H   0  0  0  0  0  0  0  0  0  0  0  0
   38.7830   21.4400   30.4060 H   0  0  0  0  0  0  0  0  0  0  0  0
   38.3350   25.6700   33.3140 O   0  0  0  0  0  0  0  0  0  0  0  0
   38.7580   26.8950   33.8310 C   0  0  0  0  0  3  0  0  0  0  0  0
   40.2340   27.0320   34.0610 C   0  0  0  0  0  2  0  0  0  0  0  0
   39.2890   26.9480   35.2180 C   0  0  0  0  0  2  0  0  0  0  0  0
  1 21  1  0  0  0  0
  1  6  1  1  0  0  0
  2  7  1  6  0  0  0
  2  1  1  0  0  0  0
  3  2  1  0  0  0  0
  3  9  1  0  0  0  0
  3  4  1  0  0  0  0
  4  5  1  0  0  0  0
  5  1  1  0  0  0  0
  5 11  1  0  0  0  0
  8  3  1  0  0  0  0
 10  5  1  0  0  0  0
 12 13  1  0  0  0  0
 12 18  1  0  0  0  0
 13 19  1  0  0  0  0
 14  2  1  0  0  0  0
 14 13  2  0  0  0  0
 15 14  1  0  0  0  0
 16 15  2  0  0  0  0
 16 17  1  0  0  0  0
 17 12  2  0  0  0  0
 20 16  1  0  0  0  0
 21 22  1  0  0  0  0
 22 23  1  0  0  0  0
 22 24  1  0  0  0  0
 23 24  1  0  0  0  0
M  END
>  <minimizedAffinity>
-3.807868

$$$$

 OpenBabel03272501063D

 24 26  0  0  1  0  0  0  0  0999 V2000
   39.1310   26.5430   34.7160 C   0  0  2  0  0  0  0  0  0  0  0  0
   39.0020   24.9970   34.6640 C   0  0  2  0  0  0  0  0  0  0  0  0
   37.7980   24.9000   33.8200 C   0  0  0  0  0  0  0  0  0  0  0  0
   37.9270   25.8760   32.8360 O   0  0  0  0  0  0  0  0  0  0  0  0
   38.8630   26.7930   33.2360 C   0  0  0  0  0  0  0  0  0  0  0  0
   38.3830   26.9830   35.3720 H   0  0  0  0  0  0  0  0  0  0  0  0
   39.9010   24.6720   34.0790 H   0  0  0  0  0  0  0  0  0  0  0  0
   37.5820   23.8980   33.4050 H   0  0  0  0  0  0  0  0  0  0  0  0
   36.8990   25.1850   34.4090 H   0  0  0  0  0  0  0  0  0  0  0  0
   39.8120   26.5680   32.7060 H   0  0  0  0  0  0  0  0  0  0  0  0
   38.5720   27.8430   33.0450 H   0  0  0  0  0  0  0  0  0  0  0  0
   39.7940   22.8170   37.6310 C   0  0  0  0  0  0  0  0  0  0  0  0
   39.8780   23.3930   36.3380 C   0  0  0  0  0  0  0  0  0  0  0  0
   38.9530   24.3980   35.9690 C   0  0  0  0  0  0  0  0  0  0  0  0
   38.0120   24.7610   36.8980 N   0  0  0  0  0  0  0  0  0  0  0  0
   37.9590   24.1960   38.1110 C   0  0  0  0  0  0  0  0  0  0  0  0
   38.8330   23.2300   38.4950 N   0  0  0  0  0  0  0  0  0  0  0  0
   40.5560   22.0660   37.7860 H   0  0  0  0  0  0  0  0  0  0  0  0
   40.6310   23.0910   35.6170 H   0  0  0  0  0  0  0  0  0  0  0  0
   37.1970   24.5160   38.8110 H   0  0  0  0  0  0  0  0  0  0  0  0
   40.4390   26.9180   35.0320 O   0  0  0  0  0  0  0  0  0  0  0  0
   41.2640   26.4190   34.0240 C   0  0  0  0  0  3  0  0  0  0  0  0
   42.6010   25.9050   34.4690 C   0  0  0  0  0  2  0  0  0  0  0  0
   42.4990   27.1640   33.6680 C   0  0  0  0  0  2  0  0  0  0  0  0
  1 21  1  0  0  0  0
  1  6  1  1  0  0  0
  2  7  1  6  0  0  0
  2  1  1  0  0  0  0
  2 14  1  0  0  0  0
  3  9  1  0  0  0  0
  3  2  1  0  0  0  0
  4  5  1  0  0  0  0
  4  3  1  0  0  0  0
  5  1  1  0  0  0  0
  8  3  1  0  0  0  0
 10  5  1  0  0  0  0
 11  5  1  0  0  0  0
 12 18  1  0  0  0  0
 12 17  1  0  0  0  0
 13 12  2  0  0  0  0
 14 13  1  0  0  0  0
 14 15  2  0  0  0  0
 15 16  1  0  0  0  0
 16 17  2  0  0  0  0
 16 20  1  0  0  0  0
 19 13  1  0  0  0  0
 22 23  1  0  0  0  0
 22 21  1  0  0  0  0
 24 22  1  0  0  0  0
 24 23  1  0  0  0  0
M  END
>  <minimizedAffinity>
-3.76890373

$$$$
