
 OpenBabel03272505273D

 25 27  0  0  0  0  0  0  0  0999 V2000
   37.4090   31.1110   47.0860 N   0  0  0  0  0  0  0  0  0  0  0  0
   36.7810   30.7820   45.9230 C   0  0  0  0  0  0  0  0  0  0  0  0
   37.2210   31.2580   44.6950 C   0  0  0  0  0  0  0  0  0  0  0  0
   38.3410   32.0950   44.6950 C   0  0  0  0  0  0  0  0  0  0  0  0
   38.7830   32.5550   43.6060 O   0  0  0  0  0  0  0  0  0  0  0  0
   38.9660   32.4200   45.8630 N   0  0  0  0  0  0  0  0  0  0  0  0
   38.4540   31.9030   46.9860 C   0  0  0  0  0  0  0  0  0  0  0  0
   39.0490   32.2230   48.0350 O   0  0  0  0  0  0  0  0  0  0  0  0
   35.9230   30.1420   45.9040 H   0  0  0  0  0  0  0  0  0  0  0  0
   37.3330   29.5770   50.4700 C   0  0  0  0  0  0  0  0  0  0  0  0
   37.8060   30.0560   49.2330 C   0  0  0  0  0  0  0  0  0  0  0  0
   36.9550   30.6240   48.3190 C   0  0  0  0  0  0  0  0  0  0  0  0
   35.6420   30.7010   48.6590 N   0  0  0  0  0  0  0  0  0  0  0  0
   35.1530   30.2500   49.8380 C   0  0  0  0  0  0  0  0  0  0  0  0
   35.9980   29.6870   50.7440 N   0  0  0  0  0  0  0  0  0  0  0  0
   37.9220   29.1270   51.2280 H   0  0  0  0  0  0  0  0  0  0  0  0
   38.8500   29.8970   49.1540 H   0  0  0  0  0  0  0  0  0  0  0  0
   34.0900   30.3620   50.0000 H   0  0  0  0  0  0  0  0  0  0  0  0
   40.1330   33.2880   45.8650 C   0  0  0  0  0  0  0  0  0  0  0  0
   40.0090   34.2370   44.9030 F   0  0  0  0  0  0  0  0  0  0  0  0
   41.3080   32.6060   45.5860 F   0  0  0  0  0  0  0  0  0  0  0  0
   40.2260   33.9230   47.0960 F   0  0  0  0  0  0  0  0  0  0  0  0
   36.5420   30.9060   43.4170 C   0  0  0  0  0  0  0  0  0  0  0  0
   35.0710   30.6070   43.4900 C   0  0  0  0  0  0  0  0  0  0  0  0
   35.5910   31.8180   42.7860 C   0  0  0  0  0  0  0  0  0  0  0  0
  1 12  1  0  0  0  0
  2  1  1  0  0  0  0
  3  4  1  0  0  0  0
  3  2  2  0  0  0  0
  4  6  1  0  0  0  0
  5  4  2  0  0  0  0
  6 19  1  0  0  0  0
  6  7  1  0  0  0  0
  7  1  1  0  0  0  0
  7  8  2  0  0  0  0
  9  2  1  0  0  0  0
 10 15  1  0  0  0  0
 10 16  1  0  0  0  0
 11 10  2  0  0  0  0
 12 13  2  0  0  0  0
 12 11  1  0  0  0  0
 13 14  1  0  0  0  0
 14 18  1  0  0  0  0
 14 15  2  0  0  0  0
 17 11  1  0  0  0  0
 19 22  1  0  0  0  0
 20 19  1  0  0  0  0
 21 19  1  0  0  0  0
 23 24  1  0  0  0  0
 23  3  1  0  0  0  0
 25 23  1  0  0  0  0
 25 24  1  0  0  0  0
M  END
>  <minimizedAffinity>
-5.93970299

>  <minimizedRMSD>
0.155106068

$$$$
