
 OpenBabel03272509313D

 32 34  0  0  1  0  0  0  0  0999 V2000
   36.1810   30.7310   49.0210 C   0  0  2  0  0  0  0  0  0  0  0  0
   37.1660   31.6110   49.7280 C   0  0  0  0  0  0  0  0  0  0  0  0
   38.1150   30.8420   50.6200 C   0  0  0  0  0  0  0  0  0  0  0  0
   37.3420   30.0080   51.6370 C   0  0  0  0  0  0  0  0  0  0  0  0
   36.0710   29.4120   51.0980 C   0  0  0  0  0  0  0  0  0  0  0  0
   36.1790   29.3370   49.5660 C   0  0  1  0  0  0  0  0  0  0  0  0
   35.1170   31.0870   49.0830 H   0  0  0  0  0  0  0  0  0  0  0  0
   36.5270   32.1920   50.4770 H   0  0  0  0  0  0  0  0  0  0  0  0
   37.6660   32.3690   49.1550 H   0  0  0  0  0  0  0  0  0  0  0  0
   38.8700   30.2590   50.0940 H   0  0  0  0  0  0  0  0  0  0  0  0
   38.6670   31.5990   51.2190 H   0  0  0  0  0  0  0  0  0  0  0  0
   37.1600   30.5400   52.5820 H   0  0  0  0  0  0  0  0  0  0  0  0
   38.0130   29.1300   51.8680 H   0  0  0  0  0  0  0  0  0  0  0  0
   35.8800   28.3940   51.4470 H   0  0  0  0  0  0  0  0  0  0  0  0
   35.2160   30.1020   51.3220 H   0  0  0  0  0  0  0  0  0  0  0  0
   37.1500   28.9110   49.4580 H   0  0  0  0  0  0  0  0  0  0  0  0
   36.4760   30.6660   47.5660 C   0  0  0  0  0  0  0  0  0  0  0  0
   37.7650   31.0440   47.1850 C   0  0  0  0  0  0  0  0  0  0  0  0
   38.0620   30.9840   45.8170 C   0  0  0  0  0  0  0  0  0  0  0  0
   37.0920   30.5660   44.9440 N   0  0  0  0  0  0  0  0  0  0  0  0
   35.8350   30.2030   45.3730 C   0  0  0  0  0  0  0  0  0  0  0  0
   35.5570   30.2620   46.6750 N   0  0  0  0  0  0  0  0  0  0  0  0
   38.6110   31.3760   47.7500 H   0  0  0  0  0  0  0  0  0  0  0  0
   39.0120   31.2460   45.3830 H   0  0  0  0  0  0  0  0  0  0  0  0
   35.0980   29.8780   44.6540 H   0  0  0  0  0  0  0  0  0  0  0  0
   33.8560   28.3680   49.1650 C   0  0  0  0  0  0  0  0  0  0  0  0
   33.1170   28.9910   49.9810 O   0  0  0  0  0  0  0  0  0  0  0  0
   35.2680   28.4390   48.9560 N   0  0  0  0  0  0  0  0  0  0  0  0
   35.6120   27.7100   48.2510 H   0  0  0  0  0  0  0  0  0  0  0  0
   33.0150   27.4250   48.3260 C   0  0  0  0  0  0  0  0  0  0  0  0
   33.1920   27.4270   46.8340 C   0  0  0  0  0  0  0  0  0  0  0  0
   33.7710   26.2970   47.5960 C   0  0  0  0  0  0  0  0  0  0  0  0
  1  7  1  1  0  0  0
  1  6  1  0  0  0  0
  1  2  1  0  0  0  0
  2  8  1  0  0  0  0
  2  3  1  0  0  0  0
  3 11  1  0  0  0  0
  3  4  1  0  0  0  0
  4 13  1  0  0  0  0
  4 12  1  0  0  0  0
  5 15  1  0  0  0  0
  5 14  1  0  0  0  0
  5  4  1  0  0  0  0
  6 16  1  6  0  0  0
  6  5  1  0  0  0  0
  9  2  1  0  0  0  0
 10  3  1  0  0  0  0
 17  1  1  0  0  0  0
 18 17  1  0  0  0  0
 18 23  1  0  0  0  0
 19 18  2  0  0  0  0
 20 21  2  0  0  0  0
 20 19  1  0  0  0  0
 21 22  1  0  0  0  0
 22 17  2  0  0  0  0
 24 19  1  0  0  0  0
 25 21  1  0  0  0  0
 26 27  2  0  0  0  0
 28 26  1  0  0  0  0
 28  6  1  0  0  0  0
 29 28  1  0  0  0  0
 30 26  1  0  0  0  0
 31 32  1  0  0  0  0
 31 30  1  0  0  0  0
 32 30  1  0  0  0  0
M  END
>  <minimizedAffinity>
-5.70003462

>  <minimizedRMSD>
0.219307378

$$$$
