
 OpenBabel03272510103D

 22 24  0  0  0  0  0  0  0  0999 V2000
   38.0450   31.0940   48.3650 C   0  0  0  0  0  0  0  0  0  0  0  0
   38.5550   32.3530   48.4180 C   0  0  0  0  0  0  0  0  0  0  0  0
   39.2790   32.9360   47.3960 C   0  0  0  0  0  0  0  0  0  0  0  0
   39.5230   32.2280   46.2340 C   0  0  0  0  0  0  0  0  0  0  0  0
   38.9960   30.9580   46.2130 C   0  0  0  0  0  0  0  0  0  0  0  0
   38.2930   30.4090   47.2170 N   0  0  0  0  0  0  0  0  0  0  0  0
   38.3720   32.9260   49.3250 H   0  0  0  0  0  0  0  0  0  0  0  0
   39.6750   33.9420   47.4610 H   0  0  0  0  0  0  0  0  0  0  0  0
   39.0800   30.2540   45.3960 H   0  0  0  0  0  0  0  0  0  0  0  0
   37.6680   30.5000   50.7820 C   0  0  0  0  0  0  0  0  0  0  0  0
   37.2830   30.4780   49.4440 C   0  0  0  0  0  0  0  0  0  0  0  0
   36.1080   29.8300   49.1310 C   0  0  0  0  0  0  0  0  0  0  0  0
   35.3820   29.2460   50.1280 N   0  0  0  0  0  0  0  0  0  0  0  0
   35.8030   29.2970   51.4150 C   0  0  0  0  0  0  0  0  0  0  0  0
   36.9550   29.9280   51.7590 N   0  0  0  0  0  0  0  0  0  0  0  0
   38.6050   31.0290   50.9460 H   0  0  0  0  0  0  0  0  0  0  0  0
   35.7920   29.8020   48.0990 H   0  0  0  0  0  0  0  0  0  0  0  0
   35.2640   28.8510   52.2410 H   0  0  0  0  0  0  0  0  0  0  0  0
   40.2280   32.6920   45.1460 O   0  0  0  0  0  0  0  0  0  0  0  0
   39.7350   33.2350   43.9680 C   0  0  0  0  0  3  0  0  0  0  0  0
   39.7220   32.2810   42.7280 C   0  0  0  0  0  2  0  0  0  0  0  0
   38.4450   32.7980   43.3780 C   0  0  0  0  0  2  0  0  0  0  0  0
  1  2  1  0  0  0  0
  1 11  1  0  0  0  0
  2  7  1  0  0  0  0
  3  8  1  0  0  0  0
  3  2  2  0  0  0  0
  4  3  1  0  0  0  0
  5  4  2  0  0  0  0
  5  6  1  0  0  0  0
  6  1  2  0  0  0  0
  9  5  1  0  0  0  0
 10 16  1  0  0  0  0
 10 15  1  0  0  0  0
 11 10  2  0  0  0  0
 12 11  1  0  0  0  0
 12 13  2  0  0  0  0
 13 14  1  0  0  0  0
 14 15  2  0  0  0  0
 14 18  1  0  0  0  0
 17 12  1  0  0  0  0
 19  4  1  0  0  0  0
 20 19  1  0  0  0  0
 21 22  1  0  0  0  0
 21 20  1  0  0  0  0
 22 20  1  0  0  0  0
M  END
>  <minimizedAffinity>
-4.87804365

>  <minimizedRMSD>
1.67593968

$$$$
