
 OpenBabel03272504203D

 21 22  0  0  0  0  0  0  0  0999 V2000
   38.1680   21.9750   35.0130 C   0  0  0  0  0  0  0  0  0  0  0  0
   38.6440   20.9690   35.1620 H   0  0  0  0  0  0  0  0  0  0  0  0
   38.9870   22.6490   34.6800 H   0  0  0  0  0  0  0  0  0  0  0  0
   37.2020   21.9300   33.8870 C   0  0  0  0  0  0  0  0  0  0  0  0
   36.1930   20.9790   33.9130 C   0  0  0  0  0  0  0  0  0  0  0  0
   35.2850   20.9300   32.8630 C   0  0  0  0  0  0  0  0  0  0  0  0
   35.4260   21.8210   31.8510 N   0  0  0  0  0  0  0  0  0  0  0  0
   36.4170   22.7440   31.8400 C   0  0  0  0  0  0  0  0  0  0  0  0
   37.3050   22.7980   32.8580 N   0  0  0  0  0  0  0  0  0  0  0  0
   36.0790   20.2590   34.7310 H   0  0  0  0  0  0  0  0  0  0  0  0
   34.4870   20.1830   32.8770 H   0  0  0  0  0  0  0  0  0  0  0  0
   36.4920   23.4430   31.0030 H   0  0  0  0  0  0  0  0  0  0  0  0
   37.5790   22.3790   36.2020 O   0  0  0  0  0  0  0  0  0  0  0  0
   40.0030   23.3880   36.2870 O   0  0  0  0  0  0  0  0  0  0  0  0
   38.6760   23.3980   36.9880 P   0  0  2  0  0  0  0  0  0  0  0  0
   38.9270   22.8190   38.5710 O   0  0  0  0  0  0  0  0  0  0  0  0
   39.8390   23.0090   38.9060 H   0  0  0  0  0  0  0  0  0  0  0  0
   38.0850   24.9890   37.0260 O   0  0  0  0  0  0  0  0  0  0  0  0
   38.5210   25.6460   35.8900 C   0  0  0  0  0  3  0  0  0  0  0  0
   37.4180   26.5260   35.2700 C   0  0  0  0  0  2  0  0  0  0  0  0
   38.7120   27.1100   35.8240 C   0  0  0  0  0  2  0  0  0  0  0  0
  1  2  1  0  0  0  0
  1 13  1  0  0  0  0
  3  1  1  0  0  0  0
  4  5  1  0  0  0  0
  4  1  1  0  0  0  0
  5 10  1  0  0  0  0
  6 11  1  0  0  0  0
  6  5  2  0  0  0  0
  7  6  1  0  0  0  0
  8  7  2  0  0  0  0
  8  9  1  0  0  0  0
  9  4  2  0  0  0  0
 12  8  1  0  0  0  0
 13 15  1  0  0  0  0
 15 14  2  6  0  0  0
 15 18  1  0  0  0  0
 15 16  1  0  0  0  0
 16 17  1  0  0  0  0
 19 18  1  0  0  0  0
 20 21  1  0  0  0  0
 20 19  1  0  0  0  0
 21 19  1  0  0  0  0
M  END
>  <minimizedAffinity>
-4.21330833

$$$$

 OpenBabel03272504203D

 21 22  0  0  0  0  0  0  0  0999 V2000
   38.3860   22.0050   34.7160 C   0  0  0  0  0  0  0  0  0  0  0  0
   38.7680   20.9520   34.6370 H   0  0  0  0  0  0  0  0  0  0  0  0
   39.2690   22.6580   34.5390 H   0  0  0  0  0  0  0  0  0  0  0  0
   37.4410   22.2990   33.6110 C   0  0  0  0  0  0  0  0  0  0  0  0
   37.5870   23.4850   32.9080 C   0  0  0  0  0  0  0  0  0  0  0  0
   36.7050   23.7680   31.8720 C   0  0  0  0  0  0  0  0  0  0  0  0
   35.7330   22.8660   31.5930 N   0  0  0  0  0  0  0  0  0  0  0  0
   35.6030   21.7110   32.2890 C   0  0  0  0  0  0  0  0  0  0  0  0
   36.4570   21.4280   33.2990 N   0  0  0  0  0  0  0  0  0  0  0  0
   38.3720   24.2140   33.1340 H   0  0  0  0  0  0  0  0  0  0  0  0
   36.8150   24.7010   31.3130 H   0  0  0  0  0  0  0  0  0  0  0  0
   34.8050   21.0120   32.0280 H   0  0  0  0  0  0  0  0  0  0  0  0
   37.8150   22.1880   35.9670 O   0  0  0  0  0  0  0  0  0  0  0  0
   40.0980   23.4800   36.1160 O   0  0  0  0  0  0  0  0  0  0  0  0
   38.7750   23.3020   36.8020 P   0  0  2  0  0  0  0  0  0  0  0  0
   39.0830   22.6980   38.3660 O   0  0  0  0  0  0  0  0  0  0  0  0
   39.9630   22.9840   38.7180 H   0  0  0  0  0  0  0  0  0  0  0  0
   37.9950   24.8070   36.8920 O   0  0  0  0  0  0  0  0  0  0  0  0
   38.4790   25.6140   35.8780 C   0  0  0  0  0  3  0  0  0  0  0  0
   37.3580   26.4170   35.1910 C   0  0  0  0  0  2  0  0  0  0  0  0
   38.4930   27.0890   35.9540 C   0  0  0  0  0  2  0  0  0  0  0  0
  1 13  1  0  0  0  0
  2  1  1  0  0  0  0
  3  1  1  0  0  0  0
  4  1  1  0  0  0  0
  5 10  1  0  0  0  0
  5  4  2  0  0  0  0
  6  5  1  0  0  0  0
  7  6  2  0  0  0  0
  7  8  1  0  0  0  0
  8  9  2  0  0  0  0
  9  4  1  0  0  0  0
 11  6  1  0  0  0  0
 12  8  1  0  0  0  0
 13 15  1  0  0  0  0
 15 14  2  6  0  0  0
 15 18  1  0  0  0  0
 15 16  1  0  0  0  0
 16 17  1  0  0  0  0
 19 21  1  0  0  0  0
 19 18  1  0  0  0  0
 20 19  1  0  0  0  0
 20 21  1  0  0  0  0
M  END
>  <minimizedAffinity>
-4.04439926

$$$$

 OpenBabel03272504203D

 21 22  0  0  0  0  0  0  0  0999 V2000
   38.5890   25.2910   33.1120 C   0  0  0  0  0  0  0  0  0  0  0  0
   38.5670   24.5020   33.9110 H   0  0  0  0  0  0  0  0  0  0  0  0
   39.4120   25.0000   32.4240 H   0  0  0  0  0  0  0  0  0  0  0  0
   37.3490   25.2410   32.2990 C   0  0  0  0  0  0  0  0  0  0  0  0
   36.7540   24.0090   32.0670 C   0  0  0  0  0  0  0  0  0  0  0  0
   35.5930   23.9530   31.3060 C   0  0  0  0  0  0  0  0  0  0  0  0
   35.0890   25.1130   30.8200 N   0  0  0  0  0  0  0  0  0  0  0  0
   35.6810   26.3090   31.0540 C   0  0  0  0  0  0  0  0  0  0  0  0
   36.8110   26.3720   31.7940 N   0  0  0  0  0  0  0  0  0  0  0  0
   37.1620   23.0720   32.4600 H   0  0  0  0  0  0  0  0  0  0  0  0
   35.1200   22.9850   31.1200 H   0  0  0  0  0  0  0  0  0  0  0  0
   35.2380   27.2180   30.6430 H   0  0  0  0  0  0  0  0  0  0  0  0
   38.7860   26.5300   33.7040 O   0  0  0  0  0  0  0  0  0  0  0  0
   36.7940   26.3950   35.4130 O   0  0  0  0  0  0  0  0  0  0  0  0
   38.2920   26.4040   35.3170 P   0  0  2  0  0  0  0  0  0  0  0  0
   38.8550   27.7660   36.1720 O   0  0  0  0  0  0  0  0  0  0  0  0
   38.2500   28.0280   36.9110 H   0  0  0  0  0  0  0  0  0  0  0  0
   38.8960   24.9770   36.0120 O   0  0  0  0  0  0  0  0  0  0  0  0
   37.9280   24.4530   36.8490 C   0  0  0  0  0  3  0  0  0  0  0  0
   38.4490   23.2450   37.6530 C   0  0  0  0  0  2  0  0  0  0  0  0
   38.0000   24.5390   38.3220 C   0  0  0  0  0  2  0  0  0  0  0  0
  1 13  1  0  0  0  0
  1  2  1  0  0  0  0
  3  1  1  0  0  0  0
  4  1  1  0  0  0  0
  5  4  1  0  0  0  0
  5 10  1  0  0  0  0
  6  5  2  0  0  0  0
  7  8  2  0  0  0  0
  7  6  1  0  0  0  0
  8  9  1  0  0  0  0
  9  4  2  0  0  0  0
 11  6  1  0  0  0  0
 12  8  1  0  0  0  0
 13 15  1  0  0  0  0
 15 14  2  1  0  0  0
 15 18  1  0  0  0  0
 15 16  1  0  0  0  0
 16 17  1  0  0  0  0
 18 19  1  0  0  0  0
 19 20  1  0  0  0  0
 19 21  1  0  0  0  0
 20 21  1  0  0  0  0
M  END
>  <minimizedAffinity>
-4.02785873

$$$$

 OpenBabel03272504203D

 21 22  0  0  0  0  0  0  0  0999 V2000
   38.0620   25.2800   33.2190 C   0  0  0  0  0  0  0  0  0  0  0  0
   38.7530   26.1610   33.2880 H   0  0  0  0  0  0  0  0  0  0  0  0
   38.5190   24.5960   32.4710 H   0  0  0  0  0  0  0  0  0  0  0  0
   38.0520   24.5270   34.4980 C   0  0  0  0  0  0  0  0  0  0  0  0
   37.9790   25.2360   35.6880 C   0  0  0  0  0  0  0  0  0  0  0  0
   37.9700   24.5390   36.8890 C   0  0  0  0  0  0  0  0  0  0  0  0
   38.0340   23.1860   36.8460 N   0  0  0  0  0  0  0  0  0  0  0  0
   38.1060   22.5070   35.6760 C   0  0  0  0  0  0  0  0  0  0  0  0
   38.1150   23.1780   34.5020 N   0  0  0  0  0  0  0  0  0  0  0  0
   37.9280   26.3300   35.7230 H   0  0  0  0  0  0  0  0  0  0  0  0
   37.9120   25.0920   37.8310 H   0  0  0  0  0  0  0  0  0  0  0  0
   38.1550   21.4160   35.6900 H   0  0  0  0  0  0  0  0  0  0  0  0
   36.7990   25.7210   32.8530 O   0  0  0  0  0  0  0  0  0  0  0  0
   37.6320   24.4220   30.7270 O   0  0  0  0  0  0  0  0  0  0  0  0
   36.4010   24.9630   31.3960 P   0  0  2  0  0  0  0  0  0  0  0  0
   35.7090   26.1140   30.3480 O   0  0  0  0  0  0  0  0  0  0  0  0
   35.9000   25.9250   29.3950 H   0  0  0  0  0  0  0  0  0  0  0  0
   35.3170   23.6840   31.6680 O   0  0  0  0  0  0  0  0  0  0  0  0
   36.0320   22.5000   31.6920 C   0  0  0  0  0  3  0  0  0  0  0  0
   35.3320   21.4170   32.5370 C   0  0  0  0  0  2  0  0  0  0  0  0
   35.5650   21.2600   31.0390 C   0  0  0  0  0  2  0  0  0  0  0  0
  1  2  1  0  0  0  0
  1  4  1  0  0  0  0
  3  1  1  0  0  0  0
  4  9  2  0  0  0  0
  4  5  1  0  0  0  0
  5 10  1  0  0  0  0
  5  6  2  0  0  0  0
  6 11  1  0  0  0  0
  7  6  1  0  0  0  0
  8 12  1  0  0  0  0
  8  7  2  0  0  0  0
  9  8  1  0  0  0  0
 13  1  1  0  0  0  0
 15 14  2  6  0  0  0
 15 18  1  0  0  0  0
 15 13  1  0  0  0  0
 16 15  1  0  0  0  0
 17 16  1  0  0  0  0
 18 19  1  0  0  0  0
 19 20  1  0  0  0  0
 21 19  1  0  0  0  0
 21 20  1  0  0  0  0
M  END
>  <minimizedAffinity>
-3.8653214

$$$$

 OpenBabel03272504203D

 21 22  0  0  0  0  0  0  0  0999 V2000
   38.1050   22.9870   34.4310 C   0  0  0  0  0  0  0  0  0  0  0  0
   38.2080   21.9200   34.0980 H   0  0  0  0  0  0  0  0  0  0  0  0
   37.0210   23.2220   34.3550 H   0  0  0  0  0  0  0  0  0  0  0  0
   38.4440   23.1150   35.8700 C   0  0  0  0  0  0  0  0  0  0  0  0
   39.6550   22.6060   36.3170 C   0  0  0  0  0  0  0  0  0  0  0  0
   39.9800   22.7230   37.6630 C   0  0  0  0  0  0  0  0  0  0  0  0
   39.0920   23.3320   38.4860 N   0  0  0  0  0  0  0  0  0  0  0  0
   37.9130   23.8240   38.0350 C   0  0  0  0  0  0  0  0  0  0  0  0
   37.5890   23.7150   36.7270 N   0  0  0  0  0  0  0  0  0  0  0  0
   40.3710   22.1140   35.6520 H   0  0  0  0  0  0  0  0  0  0  0  0
   40.9320   22.3240   38.0220 H   0  0  0  0  0  0  0  0  0  0  0  0
   37.2290   24.3090   38.7350 H   0  0  0  0  0  0  0  0  0  0  0  0
   38.8960   23.7920   33.6250 O   0  0  0  0  0  0  0  0  0  0  0  0
   36.7250   24.3840   32.2680 O   0  0  0  0  0  0  0  0  0  0  0  0
   37.8980   24.9950   32.9790 P   0  0  2  0  0  0  0  0  0  0  0  0
   38.7870   25.8880   31.8320 O   0  0  0  0  0  0  0  0  0  0  0  0
   38.2200   26.2350   31.0980 H   0  0  0  0  0  0  0  0  0  0  0  0
   37.3260   26.0150   34.2100 O   0  0  0  0  0  0  0  0  0  0  0  0
   38.2720   26.9960   34.4420 C   0  0  0  0  0  3  0  0  0  0  0  0
   38.3320   27.4040   35.9280 C   0  0  0  0  0  2  0  0  0  0  0  0
   39.5120   26.7600   35.2100 C   0  0  0  0  0  2  0  0  0  0  0  0
  1  4  1  0  0  0  0
  2  1  1  0  0  0  0
  3  1  1  0  0  0  0
  4  5  2  0  0  0  0
  4  9  1  0  0  0  0
  5  6  1  0  0  0  0
  6 11  1  0  0  0  0
  6  7  2  0  0  0  0
  8  7  1  0  0  0  0
  8 12  1  0  0  0  0
  9  8  2  0  0  0  0
 10  5  1  0  0  0  0
 13  1  1  0  0  0  0
 15 14  2  6  0  0  0
 15 13  1  0  0  0  0
 15 18  1  0  0  0  0
 16 15  1  0  0  0  0
 17 16  1  0  0  0  0
 18 19  1  0  0  0  0
 19 21  1  0  0  0  0
 19 20  1  0  0  0  0
 21 20  1  0  0  0  0
M  END
>  <minimizedAffinity>
-3.85070086

$$$$

 OpenBabel03272504203D

 21 22  0  0  0  0  0  0  0  0999 V2000
   38.0110   23.5990   32.8240 C   0  0  0  0  0  0  0  0  0  0  0  0
   37.5610   22.5710   32.8650 H   0  0  0  0  0  0  0  0  0  0  0  0
   38.8490   23.5310   32.0950 H   0  0  0  0  0  0  0  0  0  0  0  0
   37.0470   24.5640   32.2410 C   0  0  0  0  0  0  0  0  0  0  0  0
   35.9890   24.0760   31.4880 C   0  0  0  0  0  0  0  0  0  0  0  0
   35.0820   24.9730   30.9380 C   0  0  0  0  0  0  0  0  0  0  0  0
   35.2730   26.2970   31.1630 N   0  0  0  0  0  0  0  0  0  0  0  0
   36.3120   26.7580   31.9000 C   0  0  0  0  0  0  0  0  0  0  0  0
   37.1990   25.8920   32.4380 N   0  0  0  0  0  0  0  0  0  0  0  0
   35.8360   23.0070   31.3070 H   0  0  0  0  0  0  0  0  0  0  0  0
   34.2460   24.5960   30.3440 H   0  0  0  0  0  0  0  0  0  0  0  0
   36.4250   27.8340   32.0550 H   0  0  0  0  0  0  0  0  0  0  0  0
   38.4250   23.9640   34.0970 O   0  0  0  0  0  0  0  0  0  0  0  0
   39.4540   21.9200   35.3880 O   0  0  0  0  0  0  0  0  0  0  0  0
   38.1650   22.6380   35.1130 P   0  0  2  0  0  0  0  0  0  0  0  0
   37.1230   21.5410   34.3280 O   0  0  0  0  0  0  0  0  0  0  0  0
   37.3010   20.6000   34.5800 H   0  0  0  0  0  0  0  0  0  0  0  0
   37.4910   23.1430   36.5870 O   0  0  0  0  0  0  0  0  0  0  0  0
   38.4690   23.7980   37.3150 C   0  0  0  0  0  3  0  0  0  0  0  0
   37.9000   24.4600   38.5850 C   0  0  0  0  0  2  0  0  0  0  0  0
   38.9330   23.3410   38.6410 C   0  0  0  0  0  2  0  0  0  0  0  0
  1  2  1  0  0  0  0
  1 13  1  0  0  0  0
  3  1  1  0  0  0  0
  4  9  1  0  0  0  0
  4  1  1  0  0  0  0
  5  4  2  0  0  0  0
  6  7  2  0  0  0  0
  6  5  1  0  0  0  0
  7  8  1  0  0  0  0
  8 12  1  0  0  0  0
  8  9  2  0  0  0  0
 10  5  1  0  0  0  0
 11  6  1  0  0  0  0
 13 15  1  0  0  0  0
 15 14  2  1  0  0  0
 15 18  1  0  0  0  0
 16 17  1  0  0  0  0
 16 15  1  0  0  0  0
 18 19  1  0  0  0  0
 19 20  1  0  0  0  0
 19 21  1  0  0  0  0
 20 21  1  0  0  0  0
M  END
>  <minimizedAffinity>
-3.83609104

$$$$

 OpenBabel03272504203D

 21 22  0  0  0  0  0  0  0  0999 V2000
   37.7150   21.9140   34.6150 C   0  0  0  0  0  0  0  0  0  0  0  0
   37.6360   22.7780   33.9020 H   0  0  0  0  0  0  0  0  0  0  0  0
   38.4650   21.2240   34.1690 H   0  0  0  0  0  0  0  0  0  0  0  0
   38.2970   22.3590   35.9060 C   0  0  0  0  0  0  0  0  0  0  0  0
   37.4820   23.0250   36.8090 C   0  0  0  0  0  0  0  0  0  0  0  0
   38.0190   23.4450   38.0200 C   0  0  0  0  0  0  0  0  0  0  0  0
   39.3260   23.1830   38.2660 N   0  0  0  0  0  0  0  0  0  0  0  0
   40.1100   22.5320   37.3740 C   0  0  0  0  0  0  0  0  0  0  0  0
   39.5950   22.1210   36.1930 N   0  0  0  0  0  0  0  0  0  0  0  0
   36.4260   23.2350   36.6100 H   0  0  0  0  0  0  0  0  0  0  0  0
   37.3820   23.9690   38.7370 H   0  0  0  0  0  0  0  0  0  0  0  0
   41.1580   22.3430   37.6160 H   0  0  0  0  0  0  0  0  0  0  0  0
   36.4640   21.3360   34.7670 O   0  0  0  0  0  0  0  0  0  0  0  0
   34.9750   21.5450   32.6130 O   0  0  0  0  0  0  0  0  0  0  0  0
   36.0200   20.6900   33.2690 P   0  0  2  0  0  0  0  0  0  0  0  0
   35.3430   19.1460   33.5150 O   0  0  0  0  0  0  0  0  0  0  0  0
   34.6500   18.9230   32.8440 H   0  0  0  0  0  0  0  0  0  0  0  0
   37.3700   20.5880   32.2440 O   0  0  0  0  0  0  0  0  0  0  0  0
   36.9360   20.6910   30.9350 C   0  0  0  0  0  3  0  0  0  0  0  0
   37.9510   20.0980   29.9380 C   0  0  0  0  0  2  0  0  0  0  0  0
   36.5510   19.5240   30.1150 C   0  0  0  0  0  2  0  0  0  0  0  0
  1 13  1  0  0  0  0
  1  4  1  0  0  0  0
  2  1  1  0  0  0  0
  3  1  1  0  0  0  0
  4  9  2  0  0  0  0
  4  5  1  0  0  0  0
  5  6  2  0  0  0  0
  6  7  1  0  0  0  0
  6 11  1  0  0  0  0
  8 12  1  0  0  0  0
  8  7  2  0  0  0  0
  9  8  1  0  0  0  0
 10  5  1  0  0  0  0
 15 14  2  6  0  0  0
 15 16  1  0  0  0  0
 15 13  1  0  0  0  0
 17 16  1  0  0  0  0
 18 15  1  0  0  0  0
 19 18  1  0  0  0  0
 20 21  1  0  0  0  0
 20 19  1  0  0  0  0
 21 19  1  0  0  0  0
M  END
>  <minimizedAffinity>
-3.81344199

$$$$

 OpenBabel03272504203D

 21 22  0  0  0  0  0  0  0  0999 V2000
   37.7170   25.1850   36.1070 C   0  0  0  0  0  0  0  0  0  0  0  0
   36.9540   25.8500   36.5930 H   0  0  0  0  0  0  0  0  0  0  0  0
   37.1450   24.3310   35.6820 H   0  0  0  0  0  0  0  0  0  0  0  0
   38.3380   25.8700   34.9460 C   0  0  0  0  0  0  0  0  0  0  0  0
   39.6000   26.4250   35.0980 C   0  0  0  0  0  0  0  0  0  0  0  0
   40.1880   27.0690   34.0160 C   0  0  0  0  0  0  0  0  0  0  0  0
   39.4970   27.1270   32.8510 N   0  0  0  0  0  0  0  0  0  0  0  0
   38.2640   26.5810   32.7190 C   0  0  0  0  0  0  0  0  0  0  0  0
   37.6850   25.9530   33.7670 N   0  0  0  0  0  0  0  0  0  0  0  0
   40.1580   26.3780   36.0380 H   0  0  0  0  0  0  0  0  0  0  0  0
   41.1830   27.5080   34.1280 H   0  0  0  0  0  0  0  0  0  0  0  0
   37.7450   26.6510   31.7610 H   0  0  0  0  0  0  0  0  0  0  0  0
   38.6510   24.7970   37.0560 O   0  0  0  0  0  0  0  0  0  0  0  0
   37.0860   22.6940   36.8800 O   0  0  0  0  0  0  0  0  0  0  0  0
   38.4550   23.1360   37.3090 P   0  0  2  0  0  0  0  0  0  0  0  0
   38.6020   22.8130   38.9750 O   0  0  0  0  0  0  0  0  0  0  0  0
   38.0480   22.0450   39.2640 H   0  0  0  0  0  0  0  0  0  0  0  0
   39.6150   22.2610   36.4300 O   0  0  0  0  0  0  0  0  0  0  0  0
   40.7950   22.2510   37.1510 C   0  0  0  0  0  3  0  0  0  0  0  0
   41.9080   21.4660   36.4290 C   0  0  0  0  0  2  0  0  0  0  0  0
   42.0160   22.9590   36.7140 C   0  0  0  0  0  2  0  0  0  0  0  0
  1  2  1  0  0  0  0
  1 13  1  0  0  0  0
  3  1  1  0  0  0  0
  4  5  1  0  0  0  0
  4  1  1  0  0  0  0
  5 10  1  0  0  0  0
  6 11  1  0  0  0  0
  6  5  2  0  0  0  0
  7  6  1  0  0  0  0
  8  7  2  0  0  0  0
  8  9  1  0  0  0  0
  9  4  2  0  0  0  0
 12  8  1  0  0  0  0
 13 15  1  0  0  0  0
 15 14  2  6  0  0  0
 15 16  1  0  0  0  0
 16 17  1  0  0  0  0
 18 19  1  0  0  0  0
 18 15  1  0  0  0  0
 20 21  1  0  0  0  0
 20 19  1  0  0  0  0
 21 19  1  0  0  0  0
M  END
>  <minimizedAffinity>
-3.77165365

$$$$

 OpenBabel03272504203D

 21 22  0  0  0  0  0  0  0  0999 V2000
   38.2780   24.4780   34.7250 C   0  0  0  0  0  0  0  0  0  0  0  0
   37.8830   23.6310   34.1030 H   0  0  0  0  0  0  0  0  0  0  0  0
   37.4350   25.1960   34.8270 H   0  0  0  0  0  0  0  0  0  0  0  0
   38.5790   24.0150   36.1020 C   0  0  0  0  0  0  0  0  0  0  0  0
   37.7510   24.4220   37.1370 C   0  0  0  0  0  0  0  0  0  0  0  0
   38.0260   23.9930   38.4300 C   0  0  0  0  0  0  0  0  0  0  0  0
   39.1010   23.1880   38.6230 N   0  0  0  0  0  0  0  0  0  0  0  0
   39.9000   22.7990   37.6010 C   0  0  0  0  0  0  0  0  0  0  0  0
   39.6400   23.2130   36.3410 N   0  0  0  0  0  0  0  0  0  0  0  0
   36.8840   25.0720   36.9810 H   0  0  0  0  0  0  0  0  0  0  0  0
   37.3780   24.3090   39.2510 H   0  0  0  0  0  0  0  0  0  0  0  0
   40.7550   22.1490   37.8050 H   0  0  0  0  0  0  0  0  0  0  0  0
   39.3860   25.0260   34.0940 O   0  0  0  0  0  0  0  0  0  0  0  0
   40.1870   27.3470   33.1590 O   0  0  0  0  0  0  0  0  0  0  0  0
   39.1660   26.7020   34.0510 P   0  0  2  0  0  0  0  0  0  0  0  0
   39.3860   27.3260   35.6210 O   0  0  0  0  0  0  0  0  0  0  0  0
   39.7570   28.2440   35.6170 H   0  0  0  0  0  0  0  0  0  0  0  0
   37.6140   27.0810   33.4750 O   0  0  0  0  0  0  0  0  0  0  0  0
   37.7330   27.5870   32.1930 C   0  0  0  0  0  3  0  0  0  0  0  0
   36.4680   27.3340   31.3500 C   0  0  0  0  0  2  0  0  0  0  0  0
   36.9480   28.7370   31.7010 C   0  0  0  0  0  2  0  0  0  0  0  0
  1  3  1  0  0  0  0
  1  4  1  0  0  0  0
  2  1  1  0  0  0  0
  4  9  2  0  0  0  0
  4  5  1  0  0  0  0
  5  6  2  0  0  0  0
  6  7  1  0  0  0  0
  6 11  1  0  0  0  0
  8 12  1  0  0  0  0
  8  7  2  0  0  0  0
  9  8  1  0  0  0  0
 10  5  1  0  0  0  0
 13  1  1  0  0  0  0
 15 14  2  6  0  0  0
 15 13  1  0  0  0  0
 15 16  1  0  0  0  0
 17 16  1  0  0  0  0
 18 15  1  0  0  0  0
 19 18  1  0  0  0  0
 20 21  1  0  0  0  0
 20 19  1  0  0  0  0
 21 19  1  0  0  0  0
M  END
>  <minimizedAffinity>
-3.733284

$$$$
