
 OpenBabel03272504183D

 20 21  0  0  0  0  0  0  0  0999 V2000
   36.8750   21.9140   35.6770 C   0  0  0  0  0  0  0  0  0  0  0  0
   35.8260   20.9950   35.5480 C   0  0  0  0  0  0  0  0  0  0  0  0
   35.6380   20.3830   34.3250 C   0  0  0  0  0  0  0  0  0  0  0  0
   36.4600   20.6820   33.2910 N   0  0  0  0  0  0  0  0  0  0  0  0
   37.4710   21.5790   33.4410 C   0  0  0  0  0  0  0  0  0  0  0  0
   37.6730   22.1940   34.6420 N   0  0  0  0  0  0  0  0  0  0  0  0
   34.8160   19.6840   34.2840 H   0  0  0  0  0  0  0  0  0  0  0  0
   38.0750   21.7640   32.5850 H   0  0  0  0  0  0  0  0  0  0  0  0
   35.0720   20.8080   36.7320 N   0  0  0  0  0  0  0  0  0  0  0  0
   34.0590   21.0660   36.6870 H   0  0  0  0  0  0  0  0  0  0  0  0
   35.4220   20.4360   37.6520 H   0  0  0  0  0  0  0  0  0  0  0  0
   37.2190   22.6230   36.8120 O   0  0  0  0  0  0  0  0  0  0  0  0
   39.0430   23.4440   38.5840 O   0  0  0  0  0  0  0  0  0  0  0  0
   38.8520   23.1030   37.1380 P   0  0  1  0  0  0  0  0  0  0  0  0
   39.8290   21.8270   36.6620 O   0  0  0  0  0  0  0  0  0  0  0  0
   39.4640   21.4570   35.8350 H   0  0  0  0  0  0  0  0  0  0  0  0
   39.1870   24.5250   36.2620 O   0  0  0  0  0  0  0  0  0  0  0  0
   38.1160   25.4130   36.4170 C   0  0  0  0  0  3  0  0  0  0  0  0
   37.5460   26.0400   35.1970 C   0  0  0  0  0  2  0  0  0  0  0  0
   38.5050   26.8450   36.0480 C   0  0  0  0  0  2  0  0  0  0  0  0
  1 12  1  0  0  0  0
  2  1  1  0  0  0  0
  2  9  1  0  0  0  0
  3  2  2  0  0  0  0
  4  5  2  0  0  0  0
  4  3  1  0  0  0  0
  5  6  1  0  0  0  0
  6  1  2  0  0  0  0
  7  3  1  0  0  0  0
  8  5  1  0  0  0  0
  9 11  1  0  0  0  0
 10  9  1  0  0  0  0
 12 14  1  0  0  0  0
 14 13  2  1  0  0  0
 15 14  1  0  0  0  0
 16 15  1  0  0  0  0
 17 18  1  0  0  0  0
 17 14  1  0  0  0  0
 19 20  1  0  0  0  0
 19 18  1  0  0  0  0
 20 18  1  0  0  0  0
M  END
>  <minimizedAffinity>
-4.36560917

$$$$

 OpenBabel03272504183D

 20 21  0  0  0  0  0  0  0  0999 V2000
   38.5270   25.3480   35.5260 C   0  0  0  0  0  0  0  0  0  0  0  0
   38.9870   26.6580   35.3450 C   0  0  0  0  0  0  0  0  0  0  0  0
   39.6920   26.9520   34.1950 C   0  0  0  0  0  0  0  0  0  0  0  0
   39.9180   25.9800   33.2790 N   0  0  0  0  0  0  0  0  0  0  0  0
   39.4610   24.7160   33.4780 C   0  0  0  0  0  0  0  0  0  0  0  0
   38.7630   24.4050   34.6090 N   0  0  0  0  0  0  0  0  0  0  0  0
   40.0210   27.9780   34.1090 H   0  0  0  0  0  0  0  0  0  0  0  0
   39.6780   24.0060   32.7160 H   0  0  0  0  0  0  0  0  0  0  0  0
   38.6570   27.5380   36.4040 N   0  0  0  0  0  0  0  0  0  0  0  0
   39.4590   27.9620   36.9270 H   0  0  0  0  0  0  0  0  0  0  0  0
   37.6920   27.8110   36.7220 H   0  0  0  0  0  0  0  0  0  0  0  0
   37.8100   24.8650   36.6040 O   0  0  0  0  0  0  0  0  0  0  0  0
   37.5090   23.2010   38.6740 O   0  0  0  0  0  0  0  0  0  0  0  0
   38.1700   23.3350   37.3360 P   0  0  1  0  0  0  0  0  0  0  0  0
   37.6520   22.1570   36.2620 O   0  0  0  0  0  0  0  0  0  0  0  0
   37.8660   22.4570   35.3570 H   0  0  0  0  0  0  0  0  0  0  0  0
   39.8480   23.2480   37.6200 O   0  0  0  0  0  0  0  0  0  0  0  0
   40.3830   22.2120   36.8480 C   0  0  0  0  0  3  0  0  0  0  0  0
   41.5330   21.4490   37.4010 C   0  0  0  0  0  2  0  0  0  0  0  0
   41.8020   22.5290   36.3740 C   0  0  0  0  0  2  0  0  0  0  0  0
  1 12  1  0  0  0  0
  2  1  1  0  0  0  0
  2  9  1  0  0  0  0
  3  2  2  0  0  0  0
  4  5  2  0  0  0  0
  4  3  1  0  0  0  0
  5  6  1  0  0  0  0
  6  1  2  0  0  0  0
  7  3  1  0  0  0  0
  8  5  1  0  0  0  0
  9 11  1  0  0  0  0
  9 10  1  0  0  0  0
 12 14  1  0  0  0  0
 14 17  1  0  0  0  0
 14 13  2  1  0  0  0
 15 14  1  0  0  0  0
 16 15  1  0  0  0  0
 18 19  1  0  0  0  0
 18 17  1  0  0  0  0
 20 18  1  0  0  0  0
 20 19  1  0  0  0  0
M  END
>  <minimizedAffinity>
-4.1871829

$$$$

 OpenBabel03272504183D

 20 21  0  0  0  0  0  0  0  0999 V2000
   38.1570   24.5290   36.3690 C   0  0  0  0  0  0  0  0  0  0  0  0
   39.0300   23.5530   35.8720 C   0  0  0  0  0  0  0  0  0  0  0  0
   39.6910   22.7440   36.7740 C   0  0  0  0  0  0  0  0  0  0  0  0
   39.4830   22.9110   38.1030 N   0  0  0  0  0  0  0  0  0  0  0  0
   38.6320   23.8660   38.5610 C   0  0  0  0  0  0  0  0  0  0  0  0
   37.9690   24.6750   37.6840 N   0  0  0  0  0  0  0  0  0  0  0  0
   40.3500   22.0090   36.3350 H   0  0  0  0  0  0  0  0  0  0  0  0
   38.5200   23.9380   39.6160 H   0  0  0  0  0  0  0  0  0  0  0  0
   39.1220   23.5240   34.4590 N   0  0  0  0  0  0  0  0  0  0  0  0
   40.0630   23.7250   34.0470 H   0  0  0  0  0  0  0  0  0  0  0  0
   38.3440   23.3230   33.7800 H   0  0  0  0  0  0  0  0  0  0  0  0
   37.4130   25.4260   35.6290 O   0  0  0  0  0  0  0  0  0  0  0  0
   37.0100   27.7910   34.4510 O   0  0  0  0  0  0  0  0  0  0  0  0
   38.0590   26.9480   35.1070 P   0  0  1  0  0  0  0  0  0  0  0  0
   38.6970   27.6880   36.4680 O   0  0  0  0  0  0  0  0  0  0  0  0
   39.1330   27.0030   37.0100 H   0  0  0  0  0  0  0  0  0  0  0  0
   39.2480   26.6570   33.9220 O   0  0  0  0  0  0  0  0  0  0  0  0
   40.4880   27.0760   34.4140 C   0  0  0  0  0  3  0  0  0  0  0  0
   41.5550   27.4070   33.4330 C   0  0  0  0  0  2  0  0  0  0  0  0
   41.5920   26.0590   34.1200 C   0  0  0  0  0  2  0  0  0  0  0  0
  1  6  1  0  0  0  0
  2  1  2  0  0  0  0
  2  3  1  0  0  0  0
  3  4  2  0  0  0  0
  4  5  1  0  0  0  0
  5  8  1  0  0  0  0
  6  5  2  0  0  0  0
  7  3  1  0  0  0  0
  9  2  1  0  0  0  0
 10  9  1  0  0  0  0
 11  9  1  0  0  0  0
 12  1  1  0  0  0  0
 14 13  2  6  0  0  0
 14 12  1  0  0  0  0
 14 15  1  0  0  0  0
 15 16  1  0  0  0  0
 17 18  1  0  0  0  0
 17 14  1  0  0  0  0
 19 20  1  0  0  0  0
 19 18  1  0  0  0  0
 20 18  1  0  0  0  0
M  END
>  <minimizedAffinity>
-4.07422209

$$$$

 OpenBabel03272504183D

 20 21  0  0  0  0  0  0  0  0999 V2000
   37.1510   27.4800   33.3850 C   0  0  0  0  0  0  0  0  0  0  0  0
   37.4880   27.8850   32.0870 C   0  0  0  0  0  0  0  0  0  0  0  0
   36.8890   29.0200   31.5790 C   0  0  0  0  0  0  0  0  0  0  0  0
   36.0010   29.7070   32.3370 N   0  0  0  0  0  0  0  0  0  0  0  0
   35.6890   29.2930   33.5930 C   0  0  0  0  0  0  0  0  0  0  0  0
   36.2710   28.1730   34.1140 N   0  0  0  0  0  0  0  0  0  0  0  0
   37.1870   29.2850   30.5750 H   0  0  0  0  0  0  0  0  0  0  0  0
   34.9840   29.8820   34.1280 H   0  0  0  0  0  0  0  0  0  0  0  0
   38.4320   27.0470   31.4470 N   0  0  0  0  0  0  0  0  0  0  0  0
   38.1130   26.5650   30.5740 H   0  0  0  0  0  0  0  0  0  0  0  0
   39.4200   26.8560   31.7550 H   0  0  0  0  0  0  0  0  0  0  0  0
   37.6410   26.3790   34.0610 O   0  0  0  0  0  0  0  0  0  0  0  0
   40.1780   26.8960   34.7230 O   0  0  0  0  0  0  0  0  0  0  0  0
   38.8470   26.5210   35.2980 P   0  0  1  0  0  0  0  0  0  0  0  0
   38.2870   27.6690   36.3820 O   0  0  0  0  0  0  0  0  0  0  0  0
   37.3250   27.5410   36.4910 H   0  0  0  0  0  0  0  0  0  0  0  0
   39.0560   24.9970   36.0320 O   0  0  0  0  0  0  0  0  0  0  0  0
   37.8930   24.6750   36.7400 C   0  0  0  0  0  3  0  0  0  0  0  0
   38.0360   24.2210   38.1480 C   0  0  0  0  0  2  0  0  0  0  0  0
   37.8210   23.1820   37.0680 C   0  0  0  0  0  2  0  0  0  0  0  0
  1 12  1  0  0  0  0
  1  6  1  0  0  0  0
  2  1  2  0  0  0  0
  3  2  1  0  0  0  0
  3  4  2  0  0  0  0
  4  5  1  0  0  0  0
  5  6  2  0  0  0  0
  5  8  1  0  0  0  0
  7  3  1  0  0  0  0
  9 11  1  0  0  0  0
  9  2  1  0  0  0  0
 10  9  1  0  0  0  0
 12 14  1  0  0  0  0
 14 13  2  6  0  0  0
 14 17  1  0  0  0  0
 14 15  1  0  0  0  0
 15 16  1  0  0  0  0
 17 18  1  0  0  0  0
 18 20  1  0  0  0  0
 18 19  1  0  0  0  0
 20 19  1  0  0  0  0
M  END
>  <minimizedAffinity>
-3.97764921

$$$$

 OpenBabel03272504183D

 20 21  0  0  0  0  0  0  0  0999 V2000
   37.2350   27.0240   33.0900 C   0  0  0  0  0  0  0  0  0  0  0  0
   36.5390   28.2400   33.0800 C   0  0  0  0  0  0  0  0  0  0  0  0
   36.4640   28.9410   31.8930 C   0  0  0  0  0  0  0  0  0  0  0  0
   37.0570   28.4450   30.7810 N   0  0  0  0  0  0  0  0  0  0  0  0
   37.7280   27.2630   30.8170 C   0  0  0  0  0  0  0  0  0  0  0  0
   37.8130   26.5550   31.9810 N   0  0  0  0  0  0  0  0  0  0  0  0
   35.9140   29.8700   31.9440 H   0  0  0  0  0  0  0  0  0  0  0  0
   38.1680   26.9380   29.9060 H   0  0  0  0  0  0  0  0  0  0  0  0
   35.9850   28.6000   34.3320 N   0  0  0  0  0  0  0  0  0  0  0  0
   36.3360   29.4880   34.7610 H   0  0  0  0  0  0  0  0  0  0  0  0
   35.2580   28.0700   34.8780 H   0  0  0  0  0  0  0  0  0  0  0  0
   37.4190   26.1860   34.1730 O   0  0  0  0  0  0  0  0  0  0  0  0
   40.0160   26.6740   34.5710 O   0  0  0  0  0  0  0  0  0  0  0  0
   38.7300   26.3960   35.2870 P   0  0  1  0  0  0  0  0  0  0  0  0
   38.2970   27.6550   36.3040 O   0  0  0  0  0  0  0  0  0  0  0  0
   37.3450   27.5690   36.5050 H   0  0  0  0  0  0  0  0  0  0  0  0
   38.9610   24.9380   36.1370 O   0  0  0  0  0  0  0  0  0  0  0  0
   37.8190   24.6740   36.9000 C   0  0  0  0  0  3  0  0  0  0  0  0
   38.0040   24.2590   38.3150 C   0  0  0  0  0  2  0  0  0  0  0  0
   37.7140   23.1960   37.2770 C   0  0  0  0  0  2  0  0  0  0  0  0
  1 12  1  0  0  0  0
  2  1  1  0  0  0  0
  2  9  1  0  0  0  0
  3  7  1  0  0  0  0
  3  2  2  0  0  0  0
  4  5  2  0  0  0  0
  4  3  1  0  0  0  0
  5  6  1  0  0  0  0
  6  1  2  0  0  0  0
  8  5  1  0  0  0  0
  9 10  1  0  0  0  0
  9 11  1  0  0  0  0
 12 14  1  0  0  0  0
 14 13  2  6  0  0  0
 14 17  1  0  0  0  0
 14 15  1  0  0  0  0
 15 16  1  0  0  0  0
 17 18  1  0  0  0  0
 18 20  1  0  0  0  0
 18 19  1  0  0  0  0
 20 19  1  0  0  0  0
M  END
>  <minimizedAffinity>
-3.94578767

$$$$

 OpenBabel03272504183D

 20 21  0  0  0  0  0  0  0  0999 V2000
   40.8190   22.7620   36.1600 C   0  0  0  0  0  0  0  0  0  0  0  0
   41.9860   23.4350   35.7750 C   0  0  0  0  0  0  0  0  0  0  0  0
   43.2030   22.8740   36.1030 C   0  0  0  0  0  0  0  0  0  0  0  0
   43.2420   21.7020   36.7820 N   0  0  0  0  0  0  0  0  0  0  0  0
   42.0950   21.0690   37.1450 C   0  0  0  0  0  0  0  0  0  0  0  0
   40.8810   21.6080   36.8300 N   0  0  0  0  0  0  0  0  0  0  0  0
   44.0680   23.4350   35.7800 H   0  0  0  0  0  0  0  0  0  0  0  0
   42.2030   20.1540   37.6760 H   0  0  0  0  0  0  0  0  0  0  0  0
   41.7530   24.6430   35.0740 N   0  0  0  0  0  0  0  0  0  0  0  0
   42.1080   25.5190   35.5230 H   0  0  0  0  0  0  0  0  0  0  0  0
   41.2610   24.7530   34.1510 H   0  0  0  0  0  0  0  0  0  0  0  0
   39.5180   23.1640   35.9250 O   0  0  0  0  0  0  0  0  0  0  0  0
   37.1350   22.8560   37.0960 O   0  0  0  0  0  0  0  0  0  0  0  0
   38.4380   23.5860   37.2130 P   0  0  1  0  0  0  0  0  0  0  0  0
   39.2340   23.2210   38.6430 O   0  0  0  0  0  0  0  0  0  0  0  0
   40.1730   23.4670   38.5390 H   0  0  0  0  0  0  0  0  0  0  0  0
   38.0690   25.2450   37.0930 O   0  0  0  0  0  0  0  0  0  0  0  0
   38.4120   25.6920   35.8120 C   0  0  0  0  0  3  0  0  0  0  0  0
   39.0140   27.0450   35.6810 C   0  0  0  0  0  2  0  0  0  0  0  0
   37.5430   26.8690   35.3680 C   0  0  0  0  0  2  0  0  0  0  0  0
  1  6  1  0  0  0  0
  2  3  1  0  0  0  0
  2  1  2  0  0  0  0
  3  4  2  0  0  0  0
  4  5  1  0  0  0  0
  5  8  1  0  0  0  0
  6  5  2  0  0  0  0
  7  3  1  0  0  0  0
  9 10  1  0  0  0  0
  9  2  1  0  0  0  0
 11  9  1  0  0  0  0
 12  1  1  0  0  0  0
 12 14  1  0  0  0  0
 14 13  2  6  0  0  0
 14 15  1  0  0  0  0
 16 15  1  0  0  0  0
 17 14  1  0  0  0  0
 18 17  1  0  0  0  0
 19 18  1  0  0  0  0
 20 19  1  0  0  0  0
 20 18  1  0  0  0  0
M  END
>  <minimizedAffinity>
-3.9313848

$$$$

 OpenBabel03272504183D

 20 21  0  0  0  0  0  0  0  0999 V2000
   39.5640   24.1220   35.8410 C   0  0  0  0  0  0  0  0  0  0  0  0
   38.8280   23.7070   36.9580 C   0  0  0  0  0  0  0  0  0  0  0  0
   39.4350   22.8630   37.8660 C   0  0  0  0  0  0  0  0  0  0  0  0
   40.7120   22.4610   37.6580 N   0  0  0  0  0  0  0  0  0  0  0  0
   41.4050   22.8770   36.5650 C   0  0  0  0  0  0  0  0  0  0  0  0
   40.8210   23.7110   35.6560 N   0  0  0  0  0  0  0  0  0  0  0  0
   38.8210   22.5770   38.7080 H   0  0  0  0  0  0  0  0  0  0  0  0
   42.4020   22.5190   36.4680 H   0  0  0  0  0  0  0  0  0  0  0  0
   37.5120   24.2280   37.0100 N   0  0  0  0  0  0  0  0  0  0  0  0
   36.7320   23.5300   36.9810 H   0  0  0  0  0  0  0  0  0  0  0  0
   37.2350   25.2410   37.0750 H   0  0  0  0  0  0  0  0  0  0  0  0
   39.1300   24.9580   34.8300 O   0  0  0  0  0  0  0  0  0  0  0  0
   38.8780   27.4150   35.8510 O   0  0  0  0  0  0  0  0  0  0  0  0
   39.5660   26.6350   34.7730 P   0  0  1  0  0  0  0  0  0  0  0  0
   41.2340   26.7010   34.9200 O   0  0  0  0  0  0  0  0  0  0  0  0
   41.6130   25.9630   34.4060 H   0  0  0  0  0  0  0  0  0  0  0  0
   39.0280   27.2870   33.2940 O   0  0  0  0  0  0  0  0  0  0  0  0
   37.6330   27.1910   33.2380 C   0  0  0  0  0  3  0  0  0  0  0  0
   37.0150   26.7080   31.9760 C   0  0  0  0  0  2  0  0  0  0  0  0
   37.0310   28.1960   32.2560 C   0  0  0  0  0  2  0  0  0  0  0  0
  1  2  1  0  0  0  0
  2  9  1  0  0  0  0
  2  3  2  0  0  0  0
  3  7  1  0  0  0  0
  4  3  1  0  0  0  0
  5  4  2  0  0  0  0
  6  1  2  0  0  0  0
  6  5  1  0  0  0  0
  8  5  1  0  0  0  0
  9 11  1  0  0  0  0
 10  9  1  0  0  0  0
 12  1  1  0  0  0  0
 14 12  1  0  0  0  0
 14 15  1  0  0  0  0
 14 13  2  1  0  0  0
 16 15  1  0  0  0  0
 17 14  1  0  0  0  0
 18 17  1  0  0  0  0
 19 20  1  0  0  0  0
 19 18  1  0  0  0  0
 20 18  1  0  0  0  0
M  END
>  <minimizedAffinity>
-3.9091599

$$$$

 OpenBabel03272504183D

 20 21  0  0  0  0  0  0  0  0999 V2000
   37.6330   24.7720   32.6870 C   0  0  0  0  0  0  0  0  0  0  0  0
   37.3900   23.3940   32.6230 C   0  0  0  0  0  0  0  0  0  0  0  0
   36.2820   22.9570   31.9250 C   0  0  0  0  0  0  0  0  0  0  0  0
   35.4670   23.8590   31.3260 N   0  0  0  0  0  0  0  0  0  0  0  0
   35.7240   25.1910   31.4040 C   0  0  0  0  0  0  0  0  0  0  0  0
   36.8150   25.6430   32.0900 N   0  0  0  0  0  0  0  0  0  0  0  0
   36.1440   21.8860   31.9080 H   0  0  0  0  0  0  0  0  0  0  0  0
   35.0400   25.8380   30.9110 H   0  0  0  0  0  0  0  0  0  0  0  0
   38.3460   22.6050   33.3060 N   0  0  0  0  0  0  0  0  0  0  0  0
   37.9920   22.0270   34.1040 H   0  0  0  0  0  0  0  0  0  0  0  0
   39.3750   22.5370   33.0970 H   0  0  0  0  0  0  0  0  0  0  0  0
   38.6820   25.3960   33.3350 O   0  0  0  0  0  0  0  0  0  0  0  0
   39.4950   27.1640   35.1670 O   0  0  0  0  0  0  0  0  0  0  0  0
   38.5180   26.0540   34.9300 P   0  0  1  0  0  0  0  0  0  0  0  0
   36.9310   26.5760   35.0700 O   0  0  0  0  0  0  0  0  0  0  0  0
   36.3560   25.9240   34.6260 H   0  0  0  0  0  0  0  0  0  0  0  0
   38.8920   24.8370   36.0620 O   0  0  0  0  0  0  0  0  0  0  0  0
   37.7530   24.5670   36.8280 C   0  0  0  0  0  3  0  0  0  0  0  0
   37.9380   24.2350   38.2650 C   0  0  0  0  0  2  0  0  0  0  0  0
   37.7050   23.1070   37.2820 C   0  0  0  0  0  2  0  0  0  0  0  0
  1 12  1  0  0  0  0
  2  1  1  0  0  0  0
  2  9  1  0  0  0  0
  3  2  2  0  0  0  0
  4  5  2  0  0  0  0
  4  3  1  0  0  0  0
  5  6  1  0  0  0  0
  6  1  2  0  0  0  0
  7  3  1  0  0  0  0
  8  5  1  0  0  0  0
  9 10  1  0  0  0  0
 11  9  1  0  0  0  0
 12 14  1  0  0  0  0
 14 15  1  0  0  0  0
 14 13  2  1  0  0  0
 14 17  1  0  0  0  0
 16 15  1  0  0  0  0
 17 18  1  0  0  0  0
 18 20  1  0  0  0  0
 18 19  1  0  0  0  0
 20 19  1  0  0  0  0
M  END
>  <minimizedAffinity>
-3.73317456

$$$$

 OpenBabel03272504183D

 20 21  0  0  0  0  0  0  0  0999 V2000
   38.3950   22.9980   35.9890 C   0  0  0  0  0  0  0  0  0  0  0  0
   39.6750   22.5860   36.3840 C   0  0  0  0  0  0  0  0  0  0  0  0
   40.0220   22.7120   37.7140 C   0  0  0  0  0  0  0  0  0  0  0  0
   39.1290   23.2240   38.5950 N   0  0  0  0  0  0  0  0  0  0  0  0
   37.8940   23.6180   38.1870 C   0  0  0  0  0  0  0  0  0  0  0  0
   37.5320   23.5020   36.8760 N   0  0  0  0  0  0  0  0  0  0  0  0
   41.0190   22.3780   37.9610 H   0  0  0  0  0  0  0  0  0  0  0  0
   37.2480   24.0110   38.9350 H   0  0  0  0  0  0  0  0  0  0  0  0
   40.4700   22.0770   35.3290 N   0  0  0  0  0  0  0  0  0  0  0  0
   41.3530   22.5970   35.1160 H   0  0  0  0  0  0  0  0  0  0  0  0
   40.2680   21.2310   34.7370 H   0  0  0  0  0  0  0  0  0  0  0  0
   37.8700   22.9520   34.7120 O   0  0  0  0  0  0  0  0  0  0  0  0
   39.5400   23.7390   32.7790 O   0  0  0  0  0  0  0  0  0  0  0  0
   38.2860   24.1230   33.5030 P   0  0  1  0  0  0  0  0  0  0  0  0
   36.9730   24.2290   32.4680 O   0  0  0  0  0  0  0  0  0  0  0  0
   36.1580   24.1810   33.0050 H   0  0  0  0  0  0  0  0  0  0  0  0
   38.6140   25.6070   34.2730 O   0  0  0  0  0  0  0  0  0  0  0  0
   37.4040   26.2660   34.5160 C   0  0  0  0  0  3  0  0  0  0  0  0
   37.1640   27.5630   33.8300 C   0  0  0  0  0  2  0  0  0  0  0  0
   37.6130   27.5780   35.2760 C   0  0  0  0  0  2  0  0  0  0  0  0
  1  2  2  0  0  0  0
  1  6  1  0  0  0  0
  2  3  1  0  0  0  0
  3  7  1  0  0  0  0
  3  4  2  0  0  0  0
  5  4  1  0  0  0  0
  5  8  1  0  0  0  0
  6  5  2  0  0  0  0
  9  2  1  0  0  0  0
 10  9  1  0  0  0  0
 11  9  1  0  0  0  0
 12  1  1  0  0  0  0
 14 13  2  6  0  0  0
 14 17  1  0  0  0  0
 14 12  1  0  0  0  0
 15 16  1  0  0  0  0
 15 14  1  0  0  0  0
 17 18  1  0  0  0  0
 18 20  1  0  0  0  0
 19 18  1  0  0  0  0
 19 20  1  0  0  0  0
M  END
>  <minimizedAffinity>
-3.73178291

$$$$
