
 OpenBabel03272509403D

 29 31  0  0  0  0  0  0  0  0999 V2000
   36.9780   30.9000   48.8740 C   0  0  0  0  0  0  0  0  0  0  0  0
   36.9010   31.7820   49.9650 C   0  0  0  0  0  0  0  0  0  0  0  0
   37.6000   32.9840   49.9800 C   0  0  0  0  0  0  0  0  0  0  0  0
   38.4020   33.3470   48.8970 C   0  0  0  0  0  0  0  0  0  0  0  0
   38.4590   32.4680   47.8430 C   0  0  0  0  0  0  0  0  0  0  0  0
   37.7580   31.2750   47.8430 C   0  0  0  0  0  0  0  0  0  0  0  0
   36.2780   31.4950   50.8020 H   0  0  0  0  0  0  0  0  0  0  0  0
   37.5150   33.6400   50.8440 H   0  0  0  0  0  0  0  0  0  0  0  0
   38.9270   34.2920   48.9510 H   0  0  0  0  0  0  0  0  0  0  0  0
   39.0990   32.8120   47.0380 H   0  0  0  0  0  0  0  0  0  0  0  0
   36.2180   29.6670   48.9400 C   0  0  0  0  0  0  0  0  0  0  0  0
   36.6780   28.8010   49.7670 O   0  0  0  0  0  0  0  0  0  0  0  0
   33.3860   30.3360   46.7670 C   0  0  0  0  0  0  0  0  0  0  0  0
   32.7810   29.0880   46.6220 C   0  0  0  0  0  0  0  0  0  0  0  0
   33.3440   28.0090   47.2720 C   0  0  0  0  0  0  0  0  0  0  0  0
   34.4580   28.1830   48.0270 N   0  0  0  0  0  0  0  0  0  0  0  0
   35.0210   29.3770   48.1540 C   0  0  0  0  0  0  0  0  0  0  0  0
   34.4700   30.4410   47.5170 N   0  0  0  0  0  0  0  0  0  0  0  0
   32.9970   31.2200   46.2860 H   0  0  0  0  0  0  0  0  0  0  0  0
   31.9030   29.0830   45.9960 H   0  0  0  0  0  0  0  0  0  0  0  0
   32.8600   27.0670   47.1420 H   0  0  0  0  0  0  0  0  0  0  0  0
   37.9440   30.4830   46.6590 C   0  0  0  0  0  3  0  0  0  0  0  0
   37.4930   30.7000   45.4440 C   0  0  0  0  0  3  0  0  0  0  0  0
   37.6160   30.0070   44.1710 C   0  0  0  0  0  0  0  0  0  0  0  0
   36.7920   29.2590   44.0480 H   0  0  0  0  0  0  0  0  0  0  0  0
   37.5520   30.7050   43.3130 H   0  0  0  0  0  0  0  0  0  0  0  0
   38.9450   29.3030   44.0960 C   0  0  0  0  0  3  0  0  0  0  0  0
   39.6860   29.4180   42.7600 C   0  0  0  0  0  2  0  0  0  0  0  0
   39.1690   28.1130   43.2420 C   0  0  0  0  0  2  0  0  0  0  0  0
  1 11  1  0  0  0  0
  1  2  1  0  0  0  0
  2  3  2  0  0  0  0
  2  7  1  0  0  0  0
  3  8  1  0  0  0  0
  4  9  1  0  0  0  0
  4  3  1  0  0  0  0
  5  4  2  0  0  0  0
  6  5  1  0  0  0  0
  6  1  2  0  0  0  0
 10  5  1  0  0  0  0
 11 12  2  0  0  0  0
 13 18  1  0  0  0  0
 14 13  2  0  0  0  0
 14 15  1  0  0  0  0
 15 16  2  0  0  0  0
 16 17  1  0  0  0  0
 17 11  1  0  0  0  0
 18 17  2  0  0  0  0
 19 13  1  0  0  0  0
 20 14  1  0  0  0  0
 21 15  1  0  0  0  0
 22  6  1  0  0  0  0
 23 22  2  0  0  0  0
 24 23  1  0  0  0  0
 25 24  1  0  0  0  0
 26 24  1  0  0  0  0
 27 24  1  0  0  0  0
 28 29  1  0  0  0  0
 28 27  1  0  0  0  0
 29 27  1  0  0  0  0
M  END
>  <minimizedAffinity>
-5.32990837

>  <minimizedRMSD>
1.03779531

$$$$
