
 OpenBabel03262522293D

 40 43  0  0  0  0  0  0  0  0999 V2000
   36.4520   28.3040   32.3530 C   0  0  0  0  0  0  0  0  0  0  0  0
   35.9860   28.7890   33.5830 C   0  0  0  0  0  0  0  0  0  0  0  0
   36.4890   28.1980   34.7140 C   0  0  0  0  0  0  0  0  0  0  0  0
   37.3960   27.1900   34.5750 N   0  0  0  0  0  0  0  0  0  0  0  0
   37.8070   26.7650   33.4140 C   0  0  0  0  0  0  0  0  0  0  0  0
   37.3490   27.3080   32.2340 N   0  0  0  0  0  0  0  0  0  0  0  0
   36.1290   28.6910   31.3900 H   0  0  0  0  0  0  0  0  0  0  0  0
   36.1410   28.5600   35.6590 H   0  0  0  0  0  0  0  0  0  0  0  0
   35.0830   29.7980   33.5710 O   0  0  0  0  0  0  0  0  0  0  0  0
   34.9980   30.6460   34.6630 C   0  0  0  0  0  0  0  0  0  0  0  0
   35.9130   31.5740   35.0890 C   0  0  0  0  0  0  0  0  0  0  0  0
   35.6490   32.3150   36.1870 C   0  0  0  0  0  0  0  0  0  0  0  0
   34.4790   32.1210   36.8420 C   0  0  0  0  0  0  0  0  0  0  0  0
   33.5450   31.1780   36.4100 C   0  0  0  0  0  0  0  0  0  0  0  0
   33.8390   30.4490   35.3040 N   0  0  0  0  0  0  0  0  0  0  0  0
   36.8170   31.6380   34.4820 H   0  0  0  0  0  0  0  0  0  0  0  0
   36.3870   33.0530   36.5210 H   0  0  0  0  0  0  0  0  0  0  0  0
   34.2140   32.6900   37.7320 H   0  0  0  0  0  0  0  0  0  0  0  0
   32.2460   30.9840   37.1610 C   0  0  0  0  0  0  0  0  0  0  0  0
   31.8560   29.9750   36.9630 H   0  0  0  0  0  0  0  0  0  0  0  0
   31.5370   31.7830   36.8880 H   0  0  0  0  0  0  0  0  0  0  0  0
   32.5010   31.0690   38.2300 H   0  0  0  0  0  0  0  0  0  0  0  0
   39.0070   25.4200   33.5500 S   0  0  0  0  0  0  0  0  0  0  0  0
   38.0280   23.9950   34.0930 C   0  0  0  0  0  0  0  0  0  0  0  0
   38.3130   23.1420   33.4760 H   0  0  0  0  0  0  0  0  0  0  0  0
   36.9500   24.2610   33.9810 H   0  0  0  0  0  0  0  0  0  0  0  0
   39.9610   22.1360   34.6940 F   0  0  0  0  0  0  0  0  0  0  0  0
   39.3560   22.8000   35.7200 C   0  0  0  0  0  0  0  0  0  0  0  0
   38.3590   23.7650   35.5430 C   0  0  0  0  0  0  0  0  0  0  0  0
   37.7810   24.4030   36.5900 C   0  0  0  0  0  0  0  0  0  0  0  0
   38.1830   24.0990   37.9020 C   0  0  0  0  0  0  0  0  0  0  0  0
   39.1630   23.1520   38.0960 C   0  0  0  0  0  0  0  0  0  0  0  0
   39.7400   22.5130   37.0220 C   0  0  0  0  0  0  0  0  0  0  0  0
   37.0240   25.1280   36.3520 H   0  0  0  0  0  0  0  0  0  0  0  0
   37.6780   24.6480   38.6840 H   0  0  0  0  0  0  0  0  0  0  0  0
   39.3720   23.0180   39.1320 H   0  0  0  0  0  0  0  0  0  0  0  0
   40.7130   21.5790   37.2770 O   0  0  0  0  0  0  0  0  0  0  0  0
   42.0850   21.7250   37.2710 C   0  0  0  0  0  3  0  0  0  0  0  0
   42.8260   20.3900   36.9930 C   0  0  0  0  0  2  0  0  0  0  0  0
   42.9090   21.5160   36.0560 C   0  0  0  0  0  2  0  0  0  0  0  0
  1  2  1  0  0  0  0
  2  3  2  0  0  0  0
  3  8  1  0  0  0  0
  4  3  1  0  0  0  0
  5 23  1  0  0  0  0
  5  4  2  0  0  0  0
  6  1  2  0  0  0  0
  6  5  1  0  0  0  0
  7  1  1  0  0  0  0
  9  2  1  0  0  0  0
  9 10  1  0  0  0  0
 10 11  2  0  0  0  0
 10 15  1  0  0  0  0
 11 12  1  0  0  0  0
 12 17  1  0  0  0  0
 12 13  2  0  0  0  0
 13 18  1  0  0  0  0
 14 13  1  0  0  0  0
 14 19  1  0  0  0  0
 15 14  2  0  0  0  0
 16 11  1  0  0  0  0
 19 22  1  0  0  0  0
 20 19  1  0  0  0  0
 21 19  1  0  0  0  0
 23 24  1  0  0  0  0
 24 29  1  0  0  0  0
 25 24  1  0  0  0  0
 26 24  1  0  0  0  0
 27 28  1  0  0  0  0
 28 33  1  0  0  0  0
 29 28  2  0  0  0  0
 29 30  1  0  0  0  0
 30 31  2  0  0  0  0
 31 32  1  0  0  0  0
 31 35  1  0  0  0  0
 32 36  1  0  0  0  0
 33 37  1  0  0  0  0
 33 32  2  0  0  0  0
 34 30  1  0  0  0  0
 38 37  1  0  0  0  0
 39 38  1  0  0  0  0
 40 39  1  0  0  0  0
 40 38  1  0  0  0  0
M  END
>  <minimizedAffinity>
-5.83610582

$$$$

 OpenBabel03262522293D

 40 43  0  0  0  0  0  0  0  0999 V2000
   35.8860   25.1000   31.5790 C   0  0  0  0  0  0  0  0  0  0  0  0
   36.3160   23.8840   31.0290 C   0  0  0  0  0  0  0  0  0  0  0  0
   37.6480   23.7820   30.7150 C   0  0  0  0  0  0  0  0  0  0  0  0
   38.4570   24.8520   30.9520 N   0  0  0  0  0  0  0  0  0  0  0  0
   38.0220   25.9670   31.4640 C   0  0  0  0  0  0  0  0  0  0  0  0
   36.7000   26.1470   31.8060 N   0  0  0  0  0  0  0  0  0  0  0  0
   34.8570   25.3020   31.8680 H   0  0  0  0  0  0  0  0  0  0  0  0
   37.9870   22.8580   30.2950 H   0  0  0  0  0  0  0  0  0  0  0  0
   35.3980   22.9050   30.8500 O   0  0  0  0  0  0  0  0  0  0  0  0
   35.6270   21.6520   31.3960 C   0  0  0  0  0  0  0  0  0  0  0  0
   35.9200   20.4830   30.7420 C   0  0  0  0  0  0  0  0  0  0  0  0
   36.1110   19.3520   31.4550 C   0  0  0  0  0  0  0  0  0  0  0  0
   36.0080   19.4020   32.8050 C   0  0  0  0  0  0  0  0  0  0  0  0
   35.7110   20.5910   33.4730 C   0  0  0  0  0  0  0  0  0  0  0  0
   35.5240   21.7110   32.7300 N   0  0  0  0  0  0  0  0  0  0  0  0
   35.9750   20.5670   29.6570 H   0  0  0  0  0  0  0  0  0  0  0  0
   36.3440   18.4220   30.9230 H   0  0  0  0  0  0  0  0  0  0  0  0
   36.1540   18.5210   33.4290 H   0  0  0  0  0  0  0  0  0  0  0  0
   35.6040   20.6190   34.9810 C   0  0  0  0  0  0  0  0  0  0  0  0
   34.9760   21.4670   35.2890 H   0  0  0  0  0  0  0  0  0  0  0  0
   36.6140   20.6440   35.4250 H   0  0  0  0  0  0  0  0  0  0  0  0
   35.1030   19.6780   35.2640 H   0  0  0  0  0  0  0  0  0  0  0  0
   39.3300   27.2010   31.6580 S   0  0  0  0  0  0  0  0  0  0  0  0
   40.4560   26.4760   32.8780 C   0  0  0  0  0  0  0  0  0  0  0  0
   41.2800   27.1750   33.0250 H   0  0  0  0  0  0  0  0  0  0  0  0
   40.8000   25.4910   32.4800 H   0  0  0  0  0  0  0  0  0  0  0  0
   40.2260   23.9240   33.8700 F   0  0  0  0  0  0  0  0  0  0  0  0
   39.6210   24.9410   34.5470 C   0  0  0  0  0  0  0  0  0  0  0  0
   39.6640   26.2790   34.1420 C   0  0  0  0  0  0  0  0  0  0  0  0
   39.0490   27.2640   34.8430 C   0  0  0  0  0  0  0  0  0  0  0  0
   38.3400   26.9480   36.0150 C   0  0  0  0  0  0  0  0  0  0  0  0
   38.2870   25.6360   36.4280 C   0  0  0  0  0  0  0  0  0  0  0  0
   38.9170   24.6490   35.7050 C   0  0  0  0  0  0  0  0  0  0  0  0
   39.1390   28.2610   34.4510 H   0  0  0  0  0  0  0  0  0  0  0  0
   37.8760   27.7840   36.5180 H   0  0  0  0  0  0  0  0  0  0  0  0
   37.7210   25.5360   37.3260 H   0  0  0  0  0  0  0  0  0  0  0  0
   38.8310   23.3600   36.1680 O   0  0  0  0  0  0  0  0  0  0  0  0
   39.5660   22.7360   37.1550 C   0  0  0  0  0  3  0  0  0  0  0  0
   40.5770   21.7060   36.5860 C   0  0  0  0  0  2  0  0  0  0  0  0
   41.0330   22.9070   37.2920 C   0  0  0  0  0  2  0  0  0  0  0  0
  1  6  1  0  0  0  0
  1  7  1  0  0  0  0
  2  1  2  0  0  0  0
  3  4  2  0  0  0  0
  3  2  1  0  0  0  0
  4  5  1  0  0  0  0
  5 23  1  0  0  0  0
  5  6  2  0  0  0  0
  8  3  1  0  0  0  0
  9  2  1  0  0  0  0
  9 10  1  0  0  0  0
 10 15  1  0  0  0  0
 11 10  2  0  0  0  0
 11 12  1  0  0  0  0
 12 13  2  0  0  0  0
 13 18  1  0  0  0  0
 13 14  1  0  0  0  0
 14 19  1  0  0  0  0
 15 14  2  0  0  0  0
 16 11  1  0  0  0  0
 17 12  1  0  0  0  0
 19 22  1  0  0  0  0
 19 20  1  0  0  0  0
 19 21  1  0  0  0  0
 23 24  1  0  0  0  0
 24 25  1  0  0  0  0
 24 29  1  0  0  0  0
 26 24  1  0  0  0  0
 27 28  1  0  0  0  0
 28 33  1  0  0  0  0
 29 28  2  0  0  0  0
 29 30  1  0  0  0  0
 30 31  2  0  0  0  0
 31 32  1  0  0  0  0
 31 35  1  0  0  0  0
 32 36  1  0  0  0  0
 33 37  1  0  0  0  0
 33 32  2  0  0  0  0
 34 30  1  0  0  0  0
 37 38  1  0  0  0  0
 38 40  1  0  0  0  0
 39 38  1  0  0  0  0
 39 40  1  0  0  0  0
M  END
>  <minimizedAffinity>
-5.67671204

$$$$

 OpenBabel03262522293D

 40 43  0  0  0  0  0  0  0  0999 V2000
   35.3270   24.7780   31.2180 C   0  0  0  0  0  0  0  0  0  0  0  0
   35.9950   23.5660   30.9960 C   0  0  0  0  0  0  0  0  0  0  0  0
   37.3650   23.5920   31.0630 C   0  0  0  0  0  0  0  0  0  0  0  0
   37.9830   24.7760   31.3360 N   0  0  0  0  0  0  0  0  0  0  0  0
   37.3290   25.8840   31.5360 C   0  0  0  0  0  0  0  0  0  0  0  0
   35.9530   25.9390   31.4870 N   0  0  0  0  0  0  0  0  0  0  0  0
   34.2450   24.8850   31.1920 H   0  0  0  0  0  0  0  0  0  0  0  0
   37.8870   22.6720   30.8960 H   0  0  0  0  0  0  0  0  0  0  0  0
   35.2510   22.4660   30.7350 O   0  0  0  0  0  0  0  0  0  0  0  0
   35.5020   21.2960   31.4340 C   0  0  0  0  0  0  0  0  0  0  0  0
   35.7800   20.0510   30.9310 C   0  0  0  0  0  0  0  0  0  0  0  0
   35.9990   19.0230   31.7790 C   0  0  0  0  0  0  0  0  0  0  0  0
   35.9370   19.2500   33.1140 C   0  0  0  0  0  0  0  0  0  0  0  0
   35.6550   20.5170   33.6290 C   0  0  0  0  0  0  0  0  0  0  0  0
   35.4400   21.5290   32.7510 N   0  0  0  0  0  0  0  0  0  0  0  0
   35.8010   19.9920   29.8420 H   0  0  0  0  0  0  0  0  0  0  0  0
   36.2190   18.0310   31.3680 H   0  0  0  0  0  0  0  0  0  0  0  0
   36.1050   18.4590   33.8430 H   0  0  0  0  0  0  0  0  0  0  0  0
   35.5940   20.7410   35.1230 C   0  0  0  0  0  0  0  0  0  0  0  0
   34.9710   21.6230   35.3360 H   0  0  0  0  0  0  0  0  0  0  0  0
   36.6160   20.8260   35.5280 H   0  0  0  0  0  0  0  0  0  0  0  0
   35.1060   19.8460   35.5420 H   0  0  0  0  0  0  0  0  0  0  0  0
   38.4200   27.2850   31.8740 S   0  0  0  0  0  0  0  0  0  0  0  0
   38.3430   27.4940   33.6720 C   0  0  0  0  0  0  0  0  0  0  0  0
   37.2940   27.4380   33.9680 H   0  0  0  0  0  0  0  0  0  0  0  0
   38.8020   28.4800   33.9200 H   0  0  0  0  0  0  0  0  0  0  0  0
   37.0020   25.5530   35.0820 F   0  0  0  0  0  0  0  0  0  0  0  0
   38.3570   25.4530   34.9660 C   0  0  0  0  0  0  0  0  0  0  0  0
   39.1500   26.3770   34.2760 C   0  0  0  0  0  0  0  0  0  0  0  0
   40.4960   26.2430   34.1830 C   0  0  0  0  0  0  0  0  0  0  0  0
   41.1330   25.1480   34.7920 C   0  0  0  0  0  0  0  0  0  0  0  0
   40.3690   24.2280   35.4750 C   0  0  0  0  0  0  0  0  0  0  0  0
   39.0030   24.3790   35.5600 C   0  0  0  0  0  0  0  0  0  0  0  0
   41.0170   27.0050   33.6330 H   0  0  0  0  0  0  0  0  0  0  0  0
   42.2060   25.1080   34.6750 H   0  0  0  0  0  0  0  0  0  0  0  0
   40.9720   23.4530   35.8860 H   0  0  0  0  0  0  0  0  0  0  0  0
   38.2940   23.4300   36.2520 O   0  0  0  0  0  0  0  0  0  0  0  0
   37.6990   23.5190   37.4940 C   0  0  0  0  0  3  0  0  0  0  0  0
   38.7040   23.2910   38.6550 C   0  0  0  0  0  2  0  0  0  0  0  0
   38.0360   24.5830   38.4710 C   0  0  0  0  0  2  0  0  0  0  0  0
  1  6  1  0  0  0  0
  2  3  1  0  0  0  0
  2  1  2  0  0  0  0
  3  4  2  0  0  0  0
  4  5  1  0  0  0  0
  5 23  1  0  0  0  0
  6  5  2  0  0  0  0
  7  1  1  0  0  0  0
  8  3  1  0  0  0  0
  9  2  1  0  0  0  0
  9 10  1  0  0  0  0
 10 15  1  0  0  0  0
 11 10  2  0  0  0  0
 11 12  1  0  0  0  0
 12 13  2  0  0  0  0
 13 14  1  0  0  0  0
 13 18  1  0  0  0  0
 14 19  1  0  0  0  0
 15 14  2  0  0  0  0
 16 11  1  0  0  0  0
 17 12  1  0  0  0  0
 19 20  1  0  0  0  0
 19 21  1  0  0  0  0
 19 22  1  0  0  0  0
 23 24  1  0  0  0  0
 24 26  1  0  0  0  0
 24 25  1  0  0  0  0
 24 29  1  0  0  0  0
 28 27  1  0  0  0  0
 28 33  1  0  0  0  0
 29 28  2  0  0  0  0
 30 29  1  0  0  0  0
 30 31  2  0  0  0  0
 31 32  1  0  0  0  0
 32 33  2  0  0  0  0
 32 36  1  0  0  0  0
 33 37  1  0  0  0  0
 34 30  1  0  0  0  0
 35 31  1  0  0  0  0
 37 38  1  0  0  0  0
 38 40  1  0  0  0  0
 38 39  1  0  0  0  0
 40 39  1  0  0  0  0
M  END
>  <minimizedAffinity>
-5.64564562

$$$$

 OpenBabel03262522293D

 40 43  0  0  0  0  0  0  0  0999 V2000
   38.8670   25.7930   33.5490 C   0  0  0  0  0  0  0  0  0  0  0  0
   37.9180   24.7650   33.4510 C   0  0  0  0  0  0  0  0  0  0  0  0
   36.7960   25.0240   32.7070 C   0  0  0  0  0  0  0  0  0  0  0  0
   36.6730   26.2470   32.1180 N   0  0  0  0  0  0  0  0  0  0  0  0
   37.5750   27.1790   32.2310 C   0  0  0  0  0  0  0  0  0  0  0  0
   38.7290   26.9950   32.9600 N   0  0  0  0  0  0  0  0  0  0  0  0
   39.7950   25.7070   34.1090 H   0  0  0  0  0  0  0  0  0  0  0  0
   36.0650   24.2460   32.6250 H   0  0  0  0  0  0  0  0  0  0  0  0
   38.1740   23.5980   34.0910 O   0  0  0  0  0  0  0  0  0  0  0  0
   38.3460   23.6020   35.4650 C   0  0  0  0  0  0  0  0  0  0  0  0
   37.5830   24.2340   36.4130 C   0  0  0  0  0  0  0  0  0  0  0  0
   37.9120   24.1200   37.7180 C   0  0  0  0  0  0  0  0  0  0  0  0
   38.9950   23.3780   38.0580 C   0  0  0  0  0  0  0  0  0  0  0  0
   39.7720   22.7330   37.0950 C   0  0  0  0  0  0  0  0  0  0  0  0
   39.4160   22.8670   35.7930 N   0  0  0  0  0  0  0  0  0  0  0  0
   36.7400   24.8020   36.0190 H   0  0  0  0  0  0  0  0  0  0  0  0
   37.2970   24.6290   38.4690 H   0  0  0  0  0  0  0  0  0  0  0  0
   39.3050   23.2500   39.0940 H   0  0  0  0  0  0  0  0  0  0  0  0
   40.9740   21.9100   37.5040 C   0  0  0  0  0  0  0  0  0  0  0  0
   41.6760   21.8440   36.6610 H   0  0  0  0  0  0  0  0  0  0  0  0
   40.6410   20.9230   37.8690 H   0  0  0  0  0  0  0  0  0  0  0  0
   41.4510   22.4640   38.3280 H   0  0  0  0  0  0  0  0  0  0  0  0
   37.1310   28.6890   31.3400 S   0  0  0  0  0  0  0  0  0  0  0  0
   35.5620   29.2070   32.0850 C   0  0  0  0  0  0  0  0  0  0  0  0
   35.2820   28.4560   32.8250 H   0  0  0  0  0  0  0  0  0  0  0  0
   34.8100   29.2980   31.2650 H   0  0  0  0  0  0  0  0  0  0  0  0
   35.1870   29.4310   34.7980 F   0  0  0  0  0  0  0  0  0  0  0  0
   35.5810   30.5360   34.1030 C   0  0  0  0  0  0  0  0  0  0  0  0
   35.8030   30.5480   32.7220 C   0  0  0  0  0  0  0  0  0  0  0  0
   36.1950   31.6690   32.0660 C   0  0  0  0  0  0  0  0  0  0  0  0
   36.3900   32.8640   32.7790 C   0  0  0  0  0  0  0  0  0  0  0  0
   36.1760   32.8710   34.1390 C   0  0  0  0  0  0  0  0  0  0  0  0
   35.7780   31.7250   34.7900 C   0  0  0  0  0  0  0  0  0  0  0  0
   36.3390   31.5780   31.0040 H   0  0  0  0  0  0  0  0  0  0  0  0
   36.7010   33.7140   32.1890 H   0  0  0  0  0  0  0  0  0  0  0  0
   36.3590   33.8340   34.5550 H   0  0  0  0  0  0  0  0  0  0  0  0
   35.5830   31.7920   36.1470 O   0  0  0  0  0  0  0  0  0  0  0  0
   34.4040   31.9150   36.8530 C   0  0  0  0  0  3  0  0  0  0  0  0
   34.2370   33.3190   37.4950 C   0  0  0  0  0  2  0  0  0  0  0  0
   33.3220   32.8460   36.4510 C   0  0  0  0  0  2  0  0  0  0  0  0
  1  7  1  0  0  0  0
  2  1  1  0  0  0  0
  2  9  1  0  0  0  0
  3  2  2  0  0  0  0
  4  5  2  0  0  0  0
  4  3  1  0  0  0  0
  5  6  1  0  0  0  0
  6  1  2  0  0  0  0
  8  3  1  0  0  0  0
  9 10  1  0  0  0  0
 10 15  2  0  0  0  0
 10 11  1  0  0  0  0
 11 12  2  0  0  0  0
 12 13  1  0  0  0  0
 12 17  1  0  0  0  0
 13 18  1  0  0  0  0
 14 19  1  0  0  0  0
 14 13  2  0  0  0  0
 15 14  1  0  0  0  0
 16 11  1  0  0  0  0
 19 21  1  0  0  0  0
 19 22  1  0  0  0  0
 20 19  1  0  0  0  0
 23 24  1  0  0  0  0
 23  5  1  0  0  0  0
 24 29  1  0  0  0  0
 24 25  1  0  0  0  0
 26 24  1  0  0  0  0
 28 33  1  0  0  0  0
 28 27  1  0  0  0  0
 29 28  2  0  0  0  0
 30 29  1  0  0  0  0
 30 31  2  0  0  0  0
 31 32  1  0  0  0  0
 32 36  1  0  0  0  0
 32 33  2  0  0  0  0
 33 37  1  0  0  0  0
 34 30  1  0  0  0  0
 35 31  1  0  0  0  0
 37 38  1  0  0  0  0
 38 39  1  0  0  0  0
 40 38  1  0  0  0  0
 40 39  1  0  0  0  0
M  END
>  <minimizedAffinity>
-5.55585909

$$$$

 OpenBabel03262522293D

 40 43  0  0  0  0  0  0  0  0999 V2000
   35.6210   25.2420   31.5350 C   0  0  0  0  0  0  0  0  0  0  0  0
   36.9400   25.6270   31.2550 C   0  0  0  0  0  0  0  0  0  0  0  0
   37.8090   24.6350   30.8780 C   0  0  0  0  0  0  0  0  0  0  0  0
   37.3450   23.3560   30.8010 N   0  0  0  0  0  0  0  0  0  0  0  0
   36.1120   23.0350   31.0690 C   0  0  0  0  0  0  0  0  0  0  0  0
   35.1790   23.9730   31.4530 N   0  0  0  0  0  0  0  0  0  0  0  0
   34.8410   25.9350   31.8420 H   0  0  0  0  0  0  0  0  0  0  0  0
   38.8190   24.9170   30.6620 H   0  0  0  0  0  0  0  0  0  0  0  0
   37.2600   26.9370   31.3740 O   0  0  0  0  0  0  0  0  0  0  0  0
   36.9660   27.6040   32.5520 C   0  0  0  0  0  0  0  0  0  0  0  0
   36.0510   28.6060   32.7530 C   0  0  0  0  0  0  0  0  0  0  0  0
   35.9050   29.1370   33.9860 C   0  0  0  0  0  0  0  0  0  0  0  0
   36.6700   28.6610   34.9990 C   0  0  0  0  0  0  0  0  0  0  0  0
   37.6010   27.6410   34.7970 C   0  0  0  0  0  0  0  0  0  0  0  0
   37.7250   27.1280   33.5470 N   0  0  0  0  0  0  0  0  0  0  0  0
   35.4960   28.9040   31.8630 H   0  0  0  0  0  0  0  0  0  0  0  0
   35.1730   29.9380   34.1370 H   0  0  0  0  0  0  0  0  0  0  0  0
   36.5940   29.0520   36.0130 H   0  0  0  0  0  0  0  0  0  0  0  0
   38.4410   27.1290   35.9470 C   0  0  0  0  0  0  0  0  0  0  0  0
   39.3610   26.6730   35.5530 H   0  0  0  0  0  0  0  0  0  0  0  0
   37.8430   26.4370   36.5630 H   0  0  0  0  0  0  0  0  0  0  0  0
   38.7050   28.0170   36.5440 H   0  0  0  0  0  0  0  0  0  0  0  0
   35.7960   21.2650   30.8800 S   0  0  0  0  0  0  0  0  0  0  0  0
   37.1050   20.4680   31.8470 C   0  0  0  0  0  0  0  0  0  0  0  0
   38.0600   20.8690   31.5070 H   0  0  0  0  0  0  0  0  0  0  0  0
   37.0240   19.3660   31.6860 H   0  0  0  0  0  0  0  0  0  0  0  0
   39.0450   21.8480   33.2180 F   0  0  0  0  0  0  0  0  0  0  0  0
   37.9030   21.5060   33.8780 C   0  0  0  0  0  0  0  0  0  0  0  0
   36.8460   20.8020   33.2910 C   0  0  0  0  0  0  0  0  0  0  0  0
   35.7240   20.4790   33.9820 C   0  0  0  0  0  0  0  0  0  0  0  0
   35.6030   20.8540   35.3320 C   0  0  0  0  0  0  0  0  0  0  0  0
   36.6330   21.5470   35.9260 C   0  0  0  0  0  0  0  0  0  0  0  0
   37.7650   21.8670   35.2100 C   0  0  0  0  0  0  0  0  0  0  0  0
   34.9680   19.9370   33.4440 H   0  0  0  0  0  0  0  0  0  0  0  0
   34.6820   20.5610   35.8160 H   0  0  0  0  0  0  0  0  0  0  0  0
   36.4140   21.7680   36.9450 H   0  0  0  0  0  0  0  0  0  0  0  0
   38.7580   22.5600   35.8560 O   0  0  0  0  0  0  0  0  0  0  0  0
   39.9300   22.0900   36.4120 C   0  0  0  0  0  3  0  0  0  0  0  0
   41.0640   23.1500   36.3980 C   0  0  0  0  0  2  0  0  0  0  0  0
   40.5070   22.6480   37.6580 C   0  0  0  0  0  2  0  0  0  0  0  0
  1  7  1  0  0  0  0
  2  9  1  0  0  0  0
  2  1  2  0  0  0  0
  3  2  1  0  0  0  0
  4  3  2  0  0  0  0
  4  5  1  0  0  0  0
  5  6  2  0  0  0  0
  6  1  1  0  0  0  0
  8  3  1  0  0  0  0
  9 10  1  0  0  0  0
 10 11  2  0  0  0  0
 10 15  1  0  0  0  0
 11 12  1  0  0  0  0
 12 17  1  0  0  0  0
 12 13  2  0  0  0  0
 13 18  1  0  0  0  0
 14 13  1  0  0  0  0
 14 19  1  0  0  0  0
 15 14  2  0  0  0  0
 16 11  1  0  0  0  0
 19 22  1  0  0  0  0
 19 21  1  0  0  0  0
 20 19  1  0  0  0  0
 23  5  1  0  0  0  0
 23 24  1  0  0  0  0
 24 29  1  0  0  0  0
 25 24  1  0  0  0  0
 26 24  1  0  0  0  0
 27 28  1  0  0  0  0
 28 33  1  0  0  0  0
 29 28  2  0  0  0  0
 29 30  1  0  0  0  0
 30 31  2  0  0  0  0
 31 35  1  0  0  0  0
 31 32  1  0  0  0  0
 32 36  1  0  0  0  0
 33 37  1  0  0  0  0
 33 32  2  0  0  0  0
 34 30  1  0  0  0  0
 37 38  1  0  0  0  0
 38 40  1  0  0  0  0
 39 38  1  0  0  0  0
 39 40  1  0  0  0  0
M  END
>  <minimizedAffinity>
-5.54673386

$$$$

 OpenBabel03262522293D

 40 43  0  0  0  0  0  0  0  0999 V2000
   37.8290   28.2710   31.2180 C   0  0  0  0  0  0  0  0  0  0  0  0
   36.5390   27.8670   31.5880 C   0  0  0  0  0  0  0  0  0  0  0  0
   36.3890   26.5660   31.9950 C   0  0  0  0  0  0  0  0  0  0  0  0
   37.4860   25.7580   32.0140 N   0  0  0  0  0  0  0  0  0  0  0  0
   38.6710   26.1670   31.6620 C   0  0  0  0  0  0  0  0  0  0  0  0
   38.9030   27.4590   31.2430 N   0  0  0  0  0  0  0  0  0  0  0  0
   38.0740   29.2750   30.8800 H   0  0  0  0  0  0  0  0  0  0  0  0
   35.4070   26.2460   32.2800 H   0  0  0  0  0  0  0  0  0  0  0  0
   35.5410   28.7800   31.5200 O   0  0  0  0  0  0  0  0  0  0  0  0
   34.9790   29.2590   32.6930 C   0  0  0  0  0  0  0  0  0  0  0  0
   35.6130   29.8450   33.7580 C   0  0  0  0  0  0  0  0  0  0  0  0
   34.8880   30.2520   34.8230 C   0  0  0  0  0  0  0  0  0  0  0  0
   33.5440   30.0700   34.8090 C   0  0  0  0  0  0  0  0  0  0  0  0
   32.8970   29.4750   33.7250 C   0  0  0  0  0  0  0  0  0  0  0  0
   33.6530   29.0760   32.6710 N   0  0  0  0  0  0  0  0  0  0  0  0
   36.6940   29.9360   33.6550 H   0  0  0  0  0  0  0  0  0  0  0  0
   35.4030   30.7180   35.6710 H   0  0  0  0  0  0  0  0  0  0  0  0
   32.9120   30.3800   35.6390 H   0  0  0  0  0  0  0  0  0  0  0  0
   31.3970   29.2860   33.7370 C   0  0  0  0  0  0  0  0  0  0  0  0
   31.1260   28.4650   33.0570 H   0  0  0  0  0  0  0  0  0  0  0  0
   30.9010   30.2390   33.4860 H   0  0  0  0  0  0  0  0  0  0  0  0
   31.1380   28.9980   34.7690 H   0  0  0  0  0  0  0  0  0  0  0  0
   39.9230   24.8700   31.7900 S   0  0  0  0  0  0  0  0  0  0  0  0
   40.8980   25.3260   33.2470 C   0  0  0  0  0  0  0  0  0  0  0  0
   41.5580   26.1460   32.9610 H   0  0  0  0  0  0  0  0  0  0  0  0
   41.4630   24.4210   33.5760 H   0  0  0  0  0  0  0  0  0  0  0  0
   39.4640   23.3630   34.5260 F   0  0  0  0  0  0  0  0  0  0  0  0
   39.2560   24.6600   34.8900 C   0  0  0  0  0  0  0  0  0  0  0  0
   39.9220   25.7460   34.3120 C   0  0  0  0  0  0  0  0  0  0  0  0
   39.6880   27.0240   34.7020 C   0  0  0  0  0  0  0  0  0  0  0  0
   38.7490   27.2850   35.7150 C   0  0  0  0  0  0  0  0  0  0  0  0
   38.0840   26.2280   36.2940 C   0  0  0  0  0  0  0  0  0  0  0  0
   38.3340   24.9370   35.8880 C   0  0  0  0  0  0  0  0  0  0  0  0
   40.2490   27.7900   34.1980 H   0  0  0  0  0  0  0  0  0  0  0  0
   38.6160   28.3260   35.9700 H   0  0  0  0  0  0  0  0  0  0  0  0
   37.4050   26.5630   37.0440 H   0  0  0  0  0  0  0  0  0  0  0  0
   37.6410   23.9240   36.5040 O   0  0  0  0  0  0  0  0  0  0  0  0
   37.7580   23.4460   37.7930 C   0  0  0  0  0  3  0  0  0  0  0  0
   39.1990   22.9710   38.1240 C   0  0  0  0  0  2  0  0  0  0  0  0
   38.5950   24.1100   38.8220 C   0  0  0  0  0  2  0  0  0  0  0  0
  1  6  2  0  0  0  0
  1  2  1  0  0  0  0
  2  3  2  0  0  0  0
  3  4  1  0  0  0  0
  3  8  1  0  0  0  0
  5 23  1  0  0  0  0
  5  4  2  0  0  0  0
  6  5  1  0  0  0  0
  7  1  1  0  0  0  0
  9  2  1  0  0  0  0
  9 10  1  0  0  0  0
 10 11  1  0  0  0  0
 11 12  2  0  0  0  0
 12 17  1  0  0  0  0
 13 12  1  0  0  0  0
 13 18  1  0  0  0  0
 14 19  1  0  0  0  0
 14 13  2  0  0  0  0
 15 10  2  0  0  0  0
 15 14  1  0  0  0  0
 16 11  1  0  0  0  0
 19 22  1  0  0  0  0
 20 19  1  0  0  0  0
 21 19  1  0  0  0  0
 23 24  1  0  0  0  0
 24 26  1  0  0  0  0
 24 29  1  0  0  0  0
 25 24  1  0  0  0  0
 27 28  1  0  0  0  0
 28 33  1  0  0  0  0
 29 30  1  0  0  0  0
 29 28  2  0  0  0  0
 30 31  2  0  0  0  0
 31 35  1  0  0  0  0
 31 32  1  0  0  0  0
 32 36  1  0  0  0  0
 33 32  2  0  0  0  0
 33 37  1  0  0  0  0
 34 30  1  0  0  0  0
 37 38  1  0  0  0  0
 38 39  1  0  0  0  0
 38 40  1  0  0  0  0
 39 40  1  0  0  0  0
M  END
>  <minimizedAffinity>
-5.54268312

$$$$

 OpenBabel03262522293D

 40 43  0  0  0  0  0  0  0  0999 V2000
   35.2480   28.8280   32.6100 C   0  0  0  0  0  0  0  0  0  0  0  0
   35.2930   30.2030   32.3370 C   0  0  0  0  0  0  0  0  0  0  0  0
   36.2460   30.6280   31.4470 C   0  0  0  0  0  0  0  0  0  0  0  0
   37.0780   29.7020   30.8910 N   0  0  0  0  0  0  0  0  0  0  0  0
   37.0080   28.4320   31.1690 C   0  0  0  0  0  0  0  0  0  0  0  0
   36.0780   27.9280   32.0520 N   0  0  0  0  0  0  0  0  0  0  0  0
   34.5390   28.3710   33.2960 H   0  0  0  0  0  0  0  0  0  0  0  0
   36.2890   31.6750   31.2300 H   0  0  0  0  0  0  0  0  0  0  0  0
   34.4010   31.0070   32.9630 O   0  0  0  0  0  0  0  0  0  0  0  0
   34.6540   31.4190   34.2610 C   0  0  0  0  0  0  0  0  0  0  0  0
   35.7540   32.0820   34.7410 C   0  0  0  0  0  0  0  0  0  0  0  0
   35.8210   32.4010   36.0510 C   0  0  0  0  0  0  0  0  0  0  0  0
   34.7910   32.0570   36.8630 C   0  0  0  0  0  0  0  0  0  0  0  0
   33.6690   31.3830   36.3770 C   0  0  0  0  0  0  0  0  0  0  0  0
   33.6320   31.0760   35.0550 N   0  0  0  0  0  0  0  0  0  0  0  0
   36.5170   32.3030   33.9940 H   0  0  0  0  0  0  0  0  0  0  0  0
   36.7050   32.9300   36.4260 H   0  0  0  0  0  0  0  0  0  0  0  0
   34.7910   32.2910   37.9270 H   0  0  0  0  0  0  0  0  0  0  0  0
   32.5340   31.0130   37.3050 C   0  0  0  0  0  0  0  0  0  0  0  0
   31.9780   30.1630   36.8830 H   0  0  0  0  0  0  0  0  0  0  0  0
   31.9000   31.8970   37.4880 H   0  0  0  0  0  0  0  0  0  0  0  0
   33.0090   30.7000   38.2500 H   0  0  0  0  0  0  0  0  0  0  0  0
   38.2430   27.4560   30.2810 S   0  0  0  0  0  0  0  0  0  0  0  0
   38.3130   25.8870   31.1850 C   0  0  0  0  0  0  0  0  0  0  0  0
   38.8140   25.1580   30.5460 H   0  0  0  0  0  0  0  0  0  0  0  0
   37.2650   25.5890   31.4300 H   0  0  0  0  0  0  0  0  0  0  0  0
   37.7380   24.3490   33.3870 F   0  0  0  0  0  0  0  0  0  0  0  0
   38.7090   25.2990   33.4950 C   0  0  0  0  0  0  0  0  0  0  0  0
   39.0900   26.1440   32.4470 C   0  0  0  0  0  0  0  0  0  0  0  0
   40.0620   27.0790   32.5930 C   0  0  0  0  0  0  0  0  0  0  0  0
   40.7180   27.2180   33.8280 C   0  0  0  0  0  0  0  0  0  0  0  0
   40.3560   26.3950   34.8710 C   0  0  0  0  0  0  0  0  0  0  0  0
   39.3670   25.4510   34.7060 C   0  0  0  0  0  0  0  0  0  0  0  0
   40.2830   27.6800   31.7300 H   0  0  0  0  0  0  0  0  0  0  0  0
   41.4790   27.9830   33.8680 H   0  0  0  0  0  0  0  0  0  0  0  0
   40.9280   26.6040   35.7450 H   0  0  0  0  0  0  0  0  0  0  0  0
   39.0510   24.6580   35.7810 O   0  0  0  0  0  0  0  0  0  0  0  0
   37.9750   24.7440   36.6410 C   0  0  0  0  0  3  0  0  0  0  0  0
   37.4930   23.3520   37.1320 C   0  0  0  0  0  2  0  0  0  0  0  0
   38.0520   24.3360   38.0650 C   0  0  0  0  0  2  0  0  0  0  0  0
  1  7  1  0  0  0  0
  2  1  1  0  0  0  0
  2  9  1  0  0  0  0
  3  2  2  0  0  0  0
  4  5  2  0  0  0  0
  4  3  1  0  0  0  0
  5  6  1  0  0  0  0
  6  1  2  0  0  0  0
  8  3  1  0  0  0  0
  9 10  1  0  0  0  0
 10 11  2  0  0  0  0
 10 15  1  0  0  0  0
 11 12  1  0  0  0  0
 12 17  1  0  0  0  0
 12 13  2  0  0  0  0
 13 18  1  0  0  0  0
 14 13  1  0  0  0  0
 14 19  1  0  0  0  0
 15 14  2  0  0  0  0
 16 11  1  0  0  0  0
 19 21  1  0  0  0  0
 19 22  1  0  0  0  0
 20 19  1  0  0  0  0
 23  5  1  0  0  0  0
 23 24  1  0  0  0  0
 24 26  1  0  0  0  0
 24 29  1  0  0  0  0
 25 24  1  0  0  0  0
 27 28  1  0  0  0  0
 28 33  1  0  0  0  0
 29 30  1  0  0  0  0
 29 28  2  0  0  0  0
 30 31  2  0  0  0  0
 31 35  1  0  0  0  0
 31 32  1  0  0  0  0
 32 36  1  0  0  0  0
 33 32  2  0  0  0  0
 33 37  1  0  0  0  0
 34 30  1  0  0  0  0
 37 38  1  0  0  0  0
 38 39  1  0  0  0  0
 38 40  1  0  0  0  0
 39 40  1  0  0  0  0
M  END
>  <minimizedAffinity>
-5.53925943

$$$$

 OpenBabel03262522293D

 40 43  0  0  0  0  0  0  0  0999 V2000
   37.3510   25.2860   31.1690 C   0  0  0  0  0  0  0  0  0  0  0  0
   36.2240   26.1160   31.1010 C   0  0  0  0  0  0  0  0  0  0  0  0
   35.0000   25.4980   31.0600 C   0  0  0  0  0  0  0  0  0  0  0  0
   34.9560   24.1370   31.0860 N   0  0  0  0  0  0  0  0  0  0  0  0
   36.0250   23.3960   31.1480 C   0  0  0  0  0  0  0  0  0  0  0  0
   37.2890   23.9420   31.1940 N   0  0  0  0  0  0  0  0  0  0  0  0
   38.3730   25.6560   31.2070 H   0  0  0  0  0  0  0  0  0  0  0  0
   34.1320   26.1230   31.0090 H   0  0  0  0  0  0  0  0  0  0  0  0
   36.4190   27.4560   31.0830 O   0  0  0  0  0  0  0  0  0  0  0  0
   36.1220   28.2000   32.2140 C   0  0  0  0  0  0  0  0  0  0  0  0
   36.5510   27.9950   33.5000 C   0  0  0  0  0  0  0  0  0  0  0  0
   36.1510   28.8360   34.4780 C   0  0  0  0  0  0  0  0  0  0  0  0
   35.3320   29.8680   34.1600 C   0  0  0  0  0  0  0  0  0  0  0  0
   34.8950   30.0800   32.8520 C   0  0  0  0  0  0  0  0  0  0  0  0
   35.3140   29.2170   31.8910 N   0  0  0  0  0  0  0  0  0  0  0  0
   37.2050   27.1320   33.6320 H   0  0  0  0  0  0  0  0  0  0  0  0
   36.4980   28.6630   35.5030 H   0  0  0  0  0  0  0  0  0  0  0  0
   34.9800   30.5770   34.9080 H   0  0  0  0  0  0  0  0  0  0  0  0
   33.9820   31.2410   32.5260 C   0  0  0  0  0  0  0  0  0  0  0  0
   33.4210   31.0190   31.6070 H   0  0  0  0  0  0  0  0  0  0  0  0
   34.5730   32.1700   32.4590 H   0  0  0  0  0  0  0  0  0  0  0  0
   33.2770   31.3140   33.3700 H   0  0  0  0  0  0  0  0  0  0  0  0
   35.6480   21.6280   31.1660 S   0  0  0  0  0  0  0  0  0  0  0  0
   37.0420   20.8790   32.0490 C   0  0  0  0  0  0  0  0  0  0  0  0
   37.9510   21.3880   31.7260 H   0  0  0  0  0  0  0  0  0  0  0  0
   37.0540   19.7900   31.8040 H   0  0  0  0  0  0  0  0  0  0  0  0
   38.8510   22.3720   33.4790 F   0  0  0  0  0  0  0  0  0  0  0  0
   37.7730   21.8560   34.1350 C   0  0  0  0  0  0  0  0  0  0  0  0
   36.7860   21.0790   33.5180 C   0  0  0  0  0  0  0  0  0  0  0  0
   35.7280   20.5820   34.2050 C   0  0  0  0  0  0  0  0  0  0  0  0
   35.6020   20.8440   35.5800 C   0  0  0  0  0  0  0  0  0  0  0  0
   36.5640   21.6060   36.2040 C   0  0  0  0  0  0  0  0  0  0  0  0
   37.6320   22.1040   35.4920 C   0  0  0  0  0  0  0  0  0  0  0  0
   35.0230   19.9960   33.6430 H   0  0  0  0  0  0  0  0  0  0  0  0
   34.7340   20.4140   36.0590 H   0  0  0  0  0  0  0  0  0  0  0  0
   36.3480   21.7280   37.2400 H   0  0  0  0  0  0  0  0  0  0  0  0
   38.5580   22.8590   36.1670 O   0  0  0  0  0  0  0  0  0  0  0  0
   38.5020   24.1890   36.5280 C   0  0  0  0  0  3  0  0  0  0  0  0
   39.3240   25.1000   35.5770 C   0  0  0  0  0  2  0  0  0  0  0  0
   37.8660   25.2250   35.6780 C   0  0  0  0  0  2  0  0  0  0  0  0
  1  6  1  0  0  0  0
  1  7  1  0  0  0  0
  2  1  2  0  0  0  0
  3  4  2  0  0  0  0
  3  2  1  0  0  0  0
  4  5  1  0  0  0  0
  5 23  1  0  0  0  0
  5  6  2  0  0  0  0
  8  3  1  0  0  0  0
  9  2  1  0  0  0  0
  9 10  1  0  0  0  0
 10 11  1  0  0  0  0
 11 16  1  0  0  0  0
 11 12  2  0  0  0  0
 12 17  1  0  0  0  0
 13 12  1  0  0  0  0
 13 18  1  0  0  0  0
 14 13  2  0  0  0  0
 15 10  2  0  0  0  0
 15 14  1  0  0  0  0
 19 14  1  0  0  0  0
 19 22  1  0  0  0  0
 20 19  1  0  0  0  0
 21 19  1  0  0  0  0
 23 24  1  0  0  0  0
 24 29  1  0  0  0  0
 25 24  1  0  0  0  0
 26 24  1  0  0  0  0
 27 28  1  0  0  0  0
 28 33  1  0  0  0  0
 29 28  2  0  0  0  0
 29 30  1  0  0  0  0
 30 31  2  0  0  0  0
 31 35  1  0  0  0  0
 31 32  1  0  0  0  0
 32 36  1  0  0  0  0
 33 37  1  0  0  0  0
 33 32  2  0  0  0  0
 34 30  1  0  0  0  0
 37 38  1  0  0  0  0
 39 40  1  0  0  0  0
 39 38  1  0  0  0  0
 40 38  1  0  0  0  0
M  END
>  <minimizedAffinity>
-5.53212118

$$$$

 OpenBabel03262522293D

 40 43  0  0  0  0  0  0  0  0999 V2000
   36.3180   29.2890   31.9110 C   0  0  0  0  0  0  0  0  0  0  0  0
   35.7240   29.3620   33.1790 C   0  0  0  0  0  0  0  0  0  0  0  0
   36.1570   28.4620   34.1200 C   0  0  0  0  0  0  0  0  0  0  0  0
   37.1230   27.5660   33.7690 N   0  0  0  0  0  0  0  0  0  0  0  0
   37.6520   27.5280   32.5800 C   0  0  0  0  0  0  0  0  0  0  0  0
   37.2710   28.3980   31.5820 N   0  0  0  0  0  0  0  0  0  0  0  0
   36.0600   29.9470   31.0850 H   0  0  0  0  0  0  0  0  0  0  0  0
   35.7100   28.5080   35.0920 H   0  0  0  0  0  0  0  0  0  0  0  0
   34.7750   30.3050   33.3860 O   0  0  0  0  0  0  0  0  0  0  0  0
   34.8330   31.0860   34.5290 C   0  0  0  0  0  0  0  0  0  0  0  0
   34.0230   31.0320   35.6340 C   0  0  0  0  0  0  0  0  0  0  0  0
   34.2380   31.8850   36.6600 C   0  0  0  0  0  0  0  0  0  0  0  0
   35.2550   32.7760   36.5690 C   0  0  0  0  0  0  0  0  0  0  0  0
   36.0810   32.8330   35.4450 C   0  0  0  0  0  0  0  0  0  0  0  0
   35.8400   31.9630   34.4320 N   0  0  0  0  0  0  0  0  0  0  0  0
   33.2390   30.2760   35.5910 H   0  0  0  0  0  0  0  0  0  0  0  0
   33.5850   31.8360   37.5390 H   0  0  0  0  0  0  0  0  0  0  0  0
   35.4740   33.4860   37.3650 H   0  0  0  0  0  0  0  0  0  0  0  0
   37.2100   33.8370   35.3720 C   0  0  0  0  0  0  0  0  0  0  0  0
   37.4600   34.0300   34.3190 H   0  0  0  0  0  0  0  0  0  0  0  0
   38.0690   33.4740   35.9620 H   0  0  0  0  0  0  0  0  0  0  0  0
   36.8180   34.7620   35.8250 H   0  0  0  0  0  0  0  0  0  0  0  0
   38.9030   26.2330   32.4160 S   0  0  0  0  0  0  0  0  0  0  0  0
   38.2920   24.8820   33.4580 C   0  0  0  0  0  0  0  0  0  0  0  0
   37.7900   25.3270   34.3180 H   0  0  0  0  0  0  0  0  0  0  0  0
   39.1700   24.2580   33.7540 H   0  0  0  0  0  0  0  0  0  0  0  0
   38.4790   22.1430   33.5680 F   0  0  0  0  0  0  0  0  0  0  0  0
   37.5320   22.6970   32.7590 C   0  0  0  0  0  0  0  0  0  0  0  0
   37.3410   24.0760   32.6160 C   0  0  0  0  0  0  0  0  0  0  0  0
   36.3870   24.5900   31.8010 C   0  0  0  0  0  0  0  0  0  0  0  0
   35.5560   23.7270   31.0670 C   0  0  0  0  0  0  0  0  0  0  0  0
   35.7290   22.3670   31.1940 C   0  0  0  0  0  0  0  0  0  0  0  0
   36.7020   21.8610   32.0270 C   0  0  0  0  0  0  0  0  0  0  0  0
   36.3190   25.6620   31.7590 H   0  0  0  0  0  0  0  0  0  0  0  0
   34.8210   24.2090   30.4390 H   0  0  0  0  0  0  0  0  0  0  0  0
   35.0380   21.8300   30.5870 H   0  0  0  0  0  0  0  0  0  0  0  0
   36.8270   20.4970   32.1140 O   0  0  0  0  0  0  0  0  0  0  0  0
   35.9780   19.5130   31.6520 C   0  0  0  0  0  3  0  0  0  0  0  0
   35.5400   18.5300   32.7710 C   0  0  0  0  0  2  0  0  0  0  0  0
   34.5680   19.3960   32.0960 C   0  0  0  0  0  2  0  0  0  0  0  0
  1  2  1  0  0  0  0
  2  9  1  0  0  0  0
  2  3  2  0  0  0  0
  3  8  1  0  0  0  0
  4  3  1  0  0  0  0
  5  4  2  0  0  0  0
  6  1  2  0  0  0  0
  6  5  1  0  0  0  0
  7  1  1  0  0  0  0
  9 10  1  0  0  0  0
 10 11  1  0  0  0  0
 11 12  2  0  0  0  0
 12 17  1  0  0  0  0
 13 12  1  0  0  0  0
 13 18  1  0  0  0  0
 14 13  2  0  0  0  0
 15 10  2  0  0  0  0
 15 14  1  0  0  0  0
 16 11  1  0  0  0  0
 19 14  1  0  0  0  0
 19 22  1  0  0  0  0
 19 21  1  0  0  0  0
 20 19  1  0  0  0  0
 23  5  1  0  0  0  0
 23 24  1  0  0  0  0
 24 26  1  0  0  0  0
 24 25  1  0  0  0  0
 28 27  1  0  0  0  0
 29 28  1  0  0  0  0
 29 24  1  0  0  0  0
 30 29  2  0  0  0  0
 31 32  2  0  0  0  0
 31 30  1  0  0  0  0
 32 33  1  0  0  0  0
 33 37  1  0  0  0  0
 33 28  2  0  0  0  0
 34 30  1  0  0  0  0
 35 31  1  0  0  0  0
 36 32  1  0  0  0  0
 38 40  1  0  0  0  0
 38 37  1  0  0  0  0
 38 39  1  0  0  0  0
 40 39  1  0  0  0  0
M  END
>  <minimizedAffinity>
-5.4517684

$$$$
