
 OpenBabel03272509433D

 32 34  0  0  1  0  0  0  0  0999 V2000
   37.0140   30.9180   49.0320 C   0  0  0  0  0  0  0  0  0  0  0  0
   36.7310   31.7950   50.0810 C   0  0  0  0  0  0  0  0  0  0  0  0
   37.3230   33.0470   50.1690 C   0  0  0  0  0  0  0  0  0  0  0  0
   38.2290   33.4460   49.1830 C   0  0  0  0  0  0  0  0  0  0  0  0
   38.4960   32.5780   48.1640 C   0  0  0  0  0  0  0  0  0  0  0  0
   37.8860   31.3330   48.1080 C   0  0  0  0  0  0  0  0  0  0  0  0
   36.0190   31.4530   50.8360 H   0  0  0  0  0  0  0  0  0  0  0  0
   37.0200   33.6250   51.0260 H   0  0  0  0  0  0  0  0  0  0  0  0
   38.6370   34.4260   49.3310 H   0  0  0  0  0  0  0  0  0  0  0  0
   39.2170   33.0280   47.4800 H   0  0  0  0  0  0  0  0  0  0  0  0
   36.4190   29.6000   48.9630 C   0  0  2  0  0  0  0  0  0  0  0  0
   36.9500   29.0780   48.0770 H   0  0  0  0  0  0  0  0  0  0  0  0
   33.5640   30.1210   46.7770 C   0  0  0  0  0  0  0  0  0  0  0  0
   32.8800   28.9210   46.8280 C   0  0  0  0  0  0  0  0  0  0  0  0
   33.3610   27.9320   47.6660 C   0  0  0  0  0  0  0  0  0  0  0  0
   34.4930   28.1730   48.4150 N   0  0  0  0  0  0  0  0  0  0  0  0
   35.1000   29.3390   48.3210 C   0  0  0  0  0  0  0  0  0  0  0  0
   34.6440   30.3180   47.5080 N   0  0  0  0  0  0  0  0  0  0  0  0
   33.2120   30.9240   46.1270 H   0  0  0  0  0  0  0  0  0  0  0  0
   32.0080   28.8270   46.2030 H   0  0  0  0  0  0  0  0  0  0  0  0
   32.8300   26.9920   47.7110 H   0  0  0  0  0  0  0  0  0  0  0  0
   36.8550   28.8120   49.8820 O   0  0  0  0  0  0  0  0  0  0  0  0
   36.5170   28.7710   50.7920 H   0  0  0  0  0  0  0  0  0  0  0  0
   38.2830   30.5040   46.9940 C   0  0  0  0  0  3  0  0  0  0  0  0
   39.0370   30.9350   45.9780 C   0  0  0  0  0  3  0  0  0  0  0  0
   39.5350   30.1680   44.8130 C   0  0  0  0  0  0  0  0  0  0  0  0
   38.7320   29.5510   44.3370 H   0  0  0  0  0  0  0  0  0  0  0  0
   40.3580   29.4780   45.0820 H   0  0  0  0  0  0  0  0  0  0  0  0
   40.1590   31.2990   43.5650 S   0  0  0  0  0  0  0  0  0  0  0  0
   38.8060   31.7630   42.4240 C   0  0  0  0  0  3  0  0  0  0  0  0
   37.7210   32.5780   43.0180 C   0  0  0  0  0  2  0  0  0  0  0  0
   37.4640   31.1660   42.6360 C   0  0  0  0  0  2  0  0  0  0  0  0
  1  2  1  0  0  0  0
  2  3  2  0  0  0  0
  2  7  1  0  0  0  0
  3  8  1  0  0  0  0
  4  9  1  0  0  0  0
  4  3  1  0  0  0  0
  5  4  2  0  0  0  0
  6  5  1  0  0  0  0
  6  1  2  0  0  0  0
 10  5  1  0  0  0  0
 11 12  1  6  0  0  0
 11  1  1  0  0  0  0
 11 22  1  0  0  0  0
 13 14  2  0  0  0  0
 13 18  1  0  0  0  0
 14 15  1  0  0  0  0
 15 21  1  0  0  0  0
 15 16  2  0  0  0  0
 17 16  1  0  0  0  0
 17 11  1  0  0  0  0
 18 17  2  0  0  0  0
 19 13  1  0  0  0  0
 20 14  1  0  0  0  0
 22 23  1  0  0  0  0
 24  6  1  0  0  0  0
 25 24  2  0  0  0  0
 26 28  1  0  0  0  0
 26 25  1  0  0  0  0
 27 26  1  0  0  0  0
 29 26  1  0  0  0  0
 30 32  1  0  0  0  0
 30 31  1  0  0  0  0
 30 29  1  0  0  0  0
 32 31  1  0  0  0  0
M  END
>  <minimizedAffinity>
-5.3512764

>  <minimizedRMSD>
0.601050138

$$$$
