
 OpenBabel03272504003D

 25 27  0  0  0  0  0  0  0  0999 V2000
   36.4280   31.0500   49.8960 C   0  0  0  0  0  0  0  0  0  0  0  0
   36.8050   31.0910   50.9510 H   0  0  0  0  0  0  0  0  0  0  0  0
   35.5430   31.7010   49.9230 H   0  0  0  0  0  0  0  0  0  0  0  0
   37.3810   31.7060   48.9670 C   0  0  0  0  0  0  0  0  0  0  0  0
   38.2230   32.7140   49.4160 C   0  0  0  0  0  0  0  0  0  0  0  0
   38.9810   33.1250   48.3560 C   0  0  0  0  0  0  0  0  0  0  0  0
   38.6100   32.3910   47.3070 N   0  0  0  0  0  0  0  0  0  0  0  0
   37.6670   31.5590   47.6830 N   0  0  0  0  0  0  0  0  0  0  0  0
   38.3370   33.1650   50.3960 H   0  0  0  0  0  0  0  0  0  0  0  0
   39.7590   33.8960   48.3000 H   0  0  0  0  0  0  0  0  0  0  0  0
   39.1420   32.4710   45.9580 C   0  0  0  0  0  0  0  0  0  0  0  0
   40.4000   31.6780   45.6260 C   0  0  0  0  0  0  0  0  0  0  0  0
   40.4280   33.1580   45.7770 C   0  0  0  0  0  0  0  0  0  0  0  0
   36.2220   29.6150   49.5900 C   0  0  0  0  0  0  0  0  0  0  0  0
   37.0920   29.3070   48.9280 H   0  0  0  0  0  0  0  0  0  0  0  0
   36.4060   28.9600   50.4980 H   0  0  0  0  0  0  0  0  0  0  0  0
   35.0290   29.2380   48.8740 C   0  0  0  0  0  0  0  0  0  0  0  0
   34.7330   29.7780   47.6510 C   0  0  0  0  0  0  0  0  0  0  0  0
   33.5530   29.3950   46.9690 C   0  0  0  0  0  0  0  0  0  0  0  0
   32.7610   28.4650   47.6220 N   0  0  0  0  0  0  0  0  0  0  0  0
   33.1010   27.9630   48.8320 C   0  0  0  0  0  0  0  0  0  0  0  0
   34.2460   28.3510   49.4670 N   0  0  0  0  0  0  0  0  0  0  0  0
   35.2670   30.4940   47.0540 H   0  0  0  0  0  0  0  0  0  0  0  0
   33.2180   29.7410   46.0230 H   0  0  0  0  0  0  0  0  0  0  0  0
   32.4280   27.2390   49.2760 H   0  0  0  0  0  0  0  0  0  0  0  0
  1  3  1  0  0  0  0
  1  2  1  0  0  0  0
  4  5  1  0  0  0  0
  4  1  1  0  0  0  0
  5  9  1  0  0  0  0
  6  5  2  0  0  0  0
  7  8  1  0  0  0  0
  7  6  1  0  0  0  0
  8  4  2  0  0  0  0
 10  6  1  0  0  0  0
 11  7  1  0  0  0  0
 12 13  1  0  0  0  0
 12 11  1  0  0  0  0
 13 11  1  0  0  0  0
 14  1  1  0  0  0  0
 14 16  1  0  0  0  0
 15 14  1  0  0  0  0
 17 22  1  0  0  0  0
 17 14  1  0  0  0  0
 18 17  2  0  0  0  0
 19 20  2  0  0  0  0
 19 18  1  0  0  0  0
 20 21  1  0  0  0  0
 21 25  1  0  0  0  0
 21 22  2  0  0  0  0
 23 18  1  0  0  0  0
 24 19  1  0  0  0  0
M  END
>  <minimizedAffinity>
-5.10446501

>  <minimizedRMSD>
6.23003626

$$$$
