
 OpenBabel03272510043D

 31 33  0  0  0  0  0  0  0  0999 V2000
   35.8690   29.9230   44.4740 C   0  0  0  0  0  0  0  0  0  0  0  0
   35.6930   30.1830   45.7960 C   0  0  0  0  0  0  0  0  0  0  0  0
   34.4590   29.9460   46.3950 C   0  0  0  0  0  0  0  0  0  0  0  0
   33.3760   29.4510   45.6930 C   0  0  0  0  0  0  0  0  0  0  0  0
   33.5140   29.1800   44.3560 C   0  0  0  0  0  0  0  0  0  0  0  0
   34.7440   29.4240   43.7970 C   0  0  0  0  0  0  0  0  0  0  0  0
   34.3490   30.1640   47.4660 H   0  0  0  0  0  0  0  0  0  0  0  0
   32.4770   29.3050   46.2410 H   0  0  0  0  0  0  0  0  0  0  0  0
   32.6530   28.8050   43.8680 H   0  0  0  0  0  0  0  0  0  0  0  0
   34.7220   29.1710   42.7290 H   0  0  0  0  0  0  0  0  0  0  0  0
   38.6280   32.1870   46.7450 C   0  0  0  0  0  0  0  0  0  0  0  0
   37.5930   31.6330   46.0090 C   0  0  0  0  0  0  0  0  0  0  0  0
   36.7340   30.7400   46.5880 C   0  0  0  0  0  0  0  0  0  0  0  0
   36.9460   30.4400   47.8980 N   0  0  0  0  0  0  0  0  0  0  0  0
   37.9410   30.9770   48.6120 C   0  0  0  0  0  0  0  0  0  0  0  0
   38.7770   31.8440   48.0300 N   0  0  0  0  0  0  0  0  0  0  0  0
   39.3820   32.8880   46.4520 H   0  0  0  0  0  0  0  0  0  0  0  0
   37.6760   32.0920   45.0540 H   0  0  0  0  0  0  0  0  0  0  0  0
   38.0080   30.6100   50.0520 C   0  0  0  0  0  0  0  0  0  0  0  0
   38.9930   31.3110   50.7200 F   0  0  0  0  0  0  0  0  0  0  0  0
   36.8030   31.0760   50.7030 F   0  0  0  0  0  0  0  0  0  0  0  0
   38.0420   29.3310   50.3450 F   0  0  0  0  0  0  0  0  0  0  0  0
   37.3380   30.1340   43.6350 S   0  0  0  0  0  0  0  0  0  0  0  0
   37.4320   31.5040   43.0450 O   0  0  0  0  0  0  0  0  0  0  0  0
   36.9750   29.4360   42.3460 O   0  0  0  0  0  0  0  0  0  0  0  0
   38.7070   29.1420   43.6910 C   0  0  0  0  0  0  0  0  0  0  0  0
   39.6590   29.6050   43.9620 H   0  0  0  0  0  0  0  0  0  0  0  0
   38.5450   28.4550   44.5910 H   0  0  0  0  0  0  0  0  0  0  0  0
   38.8150   28.1480   42.5680 C   0  0  0  0  0  3  0  0  0  0  0  0
   39.2420   26.7500   43.0660 C   0  0  0  0  0  2  0  0  0  0  0  0
   40.1230   27.5870   42.1630 C   0  0  0  0  0  2  0  0  0  0  0  0
  1  2  1  0  0  0  0
  2  3  2  0  0  0  0
  2 13  1  0  0  0  0
  3  7  1  0  0  0  0
  4  8  1  0  0  0  0
  4  3  1  0  0  0  0
  5  4  2  0  0  0  0
  6  5  1  0  0  0  0
  6  1  2  0  0  0  0
  9  5  1  0  0  0  0
 10  6  1  0  0  0  0
 11 16  1  0  0  0  0
 12 13  1  0  0  0  0
 12 11  2  0  0  0  0
 13 14  2  0  0  0  0
 14 15  1  0  0  0  0
 15 19  1  0  0  0  0
 16 15  2  0  0  0  0
 17 11  1  0  0  0  0
 18 12  1  0  0  0  0
 19 22  1  0  0  0  0
 19 21  1  0  0  0  0
 19 20  1  0  0  0  0
 23 26  1  0  0  0  0
 23  1  1  0  0  0  0
 24 23  2  0  0  0  0
 25 23  2  0  0  0  0
 26 27  1  0  0  0  0
 26 28  1  0  0  0  0
 29 30  1  0  0  0  0
 29 26  1  0  0  0  0
 31 29  1  0  0  0  0
 31 30  1  0  0  0  0
M  END
>  <minimizedAffinity>
-5.1169982

>  <minimizedRMSD>
2.79670453

$$$$
