
 OpenBabel03272510103D

 22 24  0  0  0  0  0  0  0  0999 V2000
   37.1980   31.1580   48.3930 C   0  0  0  0  0  0  0  0  0  0  0  0
   38.2020   32.0310   48.6760 C   0  0  0  0  0  0  0  0  0  0  0  0
   38.9590   32.6730   47.7140 C   0  0  0  0  0  0  0  0  0  0  0  0
   38.7130   32.4390   46.3740 C   0  0  0  0  0  0  0  0  0  0  0  0
   37.6940   31.5510   46.1230 C   0  0  0  0  0  0  0  0  0  0  0  0
   36.9670   30.9370   47.0720 N   0  0  0  0  0  0  0  0  0  0  0  0
   38.4090   32.2280   49.7260 H   0  0  0  0  0  0  0  0  0  0  0  0
   39.7540   33.3660   47.9630 H   0  0  0  0  0  0  0  0  0  0  0  0
   37.3540   31.2410   45.1430 H   0  0  0  0  0  0  0  0  0  0  0  0
   36.9110   30.0060   50.6130 C   0  0  0  0  0  0  0  0  0  0  0  0
   36.4010   30.4790   49.4070 C   0  0  0  0  0  0  0  0  0  0  0  0
   35.0580   30.2860   49.1660 C   0  0  0  0  0  0  0  0  0  0  0  0
   34.2960   29.6500   50.1020 N   0  0  0  0  0  0  0  0  0  0  0  0
   34.8450   29.2100   51.2610 C   0  0  0  0  0  0  0  0  0  0  0  0
   36.1640   29.3840   51.5310 N   0  0  0  0  0  0  0  0  0  0  0  0
   37.9770   30.1960   50.7270 H   0  0  0  0  0  0  0  0  0  0  0  0
   34.6430   30.6460   48.2360 H   0  0  0  0  0  0  0  0  0  0  0  0
   34.2840   28.7020   52.0350 H   0  0  0  0  0  0  0  0  0  0  0  0
   39.3930   33.0120   45.3230 O   0  0  0  0  0  0  0  0  0  0  0  0
   40.5190   32.5390   44.6650 C   0  0  0  0  0  3  0  0  0  0  0  0
   41.3000   31.3930   45.3890 C   0  0  0  0  0  2  0  0  0  0  0  0
   40.5710   31.1810   44.0690 C   0  0  0  0  0  2  0  0  0  0  0  0
  1  2  1  0  0  0  0
  1 11  1  0  0  0  0
  2  7  1  0  0  0  0
  3  8  1  0  0  0  0
  3  2  2  0  0  0  0
  4  3  1  0  0  0  0
  5  4  2  0  0  0  0
  5  6  1  0  0  0  0
  6  1  2  0  0  0  0
  9  5  1  0  0  0  0
 10 16  1  0  0  0  0
 10 15  1  0  0  0  0
 11 10  2  0  0  0  0
 12 11  1  0  0  0  0
 12 13  2  0  0  0  0
 13 14  1  0  0  0  0
 14 15  2  0  0  0  0
 14 18  1  0  0  0  0
 17 12  1  0  0  0  0
 19  4  1  0  0  0  0
 20 19  1  0  0  0  0
 20 21  1  0  0  0  0
 22 20  1  0  0  0  0
 22 21  1  0  0  0  0
M  END
>  <minimizedAffinity>
-4.95854092

>  <minimizedRMSD>
1.26296234

$$$$
