
 OpenBabel03272503393D

 23 25  0  0  0  0  0  0  0  0999 V2000
   38.6310   24.3220   36.0560 C   0  0  0  0  0  0  0  0  0  0  0  0
   37.8060   25.3230   35.5790 C   0  0  0  0  0  0  0  0  0  0  0  0
   38.2570   26.2110   34.6210 C   0  0  0  0  0  0  0  0  0  0  0  0
   39.5130   26.0580   34.1830 N   0  0  0  0  0  0  0  0  0  0  0  0
   40.3180   25.0680   34.6590 C   0  0  0  0  0  0  0  0  0  0  0  0
   39.8870   24.2180   35.5760 N   0  0  0  0  0  0  0  0  0  0  0  0
   36.7830   25.4860   35.9030 H   0  0  0  0  0  0  0  0  0  0  0  0
   41.3080   25.0130   34.2570 H   0  0  0  0  0  0  0  0  0  0  0  0
   37.4150   27.2770   34.0990 C   0  0  0  0  0  0  0  0  0  0  0  0
   37.2460   27.5720   32.7760 C   0  0  0  0  0  0  0  0  0  0  0  0
   36.3660   28.6490   32.7680 C   0  0  0  0  0  0  0  0  0  0  0  0
   36.0300   28.9750   34.0380 N   0  0  0  0  0  0  0  0  0  0  0  0
   36.6770   28.1300   34.8420 N   0  0  0  0  0  0  0  0  0  0  0  0
   37.6980   27.0780   31.9040 H   0  0  0  0  0  0  0  0  0  0  0  0
   35.9840   29.1770   31.8870 H   0  0  0  0  0  0  0  0  0  0  0  0
   35.1480   30.0210   34.5090 C   0  0  0  0  0  3  0  0  0  0  0  0
   35.8090   31.0810   35.4040 C   0  0  0  0  0  2  0  0  0  0  0  0
   35.3490   31.4060   34.0080 C   0  0  0  0  0  2  0  0  0  0  0  0
   38.0250   23.5190   37.0100 O   0  0  0  0  0  0  0  0  0  0  0  0
   38.2510   23.6350   38.3860 C   0  0  0  0  0  0  0  0  0  0  0  0
   37.9940   24.9210   38.8590 F   0  0  0  0  0  0  0  0  0  0  0  0
   39.5430   23.2690   38.6600 F   0  0  0  0  0  0  0  0  0  0  0  0
   37.4170   22.7430   39.0330 F   0  0  0  0  0  0  0  0  0  0  0  0
  1 19  1  0  0  0  0
  2  7  1  0  0  0  0
  2  1  1  0  0  0  0
  3  2  2  0  0  0  0
  4  3  1  0  0  0  0
  4  5  2  0  0  0  0
  5  6  1  0  0  0  0
  6  1  2  0  0  0  0
  8  5  1  0  0  0  0
  9  3  1  0  0  0  0
  9 13  2  0  0  0  0
 10  9  1  0  0  0  0
 11 10  2  0  0  0  0
 11 12  1  0  0  0  0
 12 16  1  0  0  0  0
 12 13  1  0  0  0  0
 14 10  1  0  0  0  0
 15 11  1  0  0  0  0
 16 17  1  0  0  0  0
 18 16  1  0  0  0  0
 18 17  1  0  0  0  0
 19 20  1  0  0  0  0
 20 22  1  0  0  0  0
 20 21  1  0  0  0  0
 20 23  1  0  0  0  0
M  END
>  <minimizedAffinity>
-5.15257692

$$$$

 OpenBabel03272503393D

 23 25  0  0  0  0  0  0  0  0999 V2000
   38.4300   24.5750   35.4420 C   0  0  0  0  0  0  0  0  0  0  0  0
   37.8960   25.8310   35.2210 C   0  0  0  0  0  0  0  0  0  0  0  0
   37.3420   26.1550   33.9980 C   0  0  0  0  0  0  0  0  0  0  0  0
   37.3450   25.2100   33.0500 N   0  0  0  0  0  0  0  0  0  0  0  0
   37.8740   23.9750   33.2780 C   0  0  0  0  0  0  0  0  0  0  0  0
   38.4050   23.6640   34.4480 N   0  0  0  0  0  0  0  0  0  0  0  0
   37.8710   26.6290   35.9580 H   0  0  0  0  0  0  0  0  0  0  0  0
   37.8380   23.2760   32.4690 H   0  0  0  0  0  0  0  0  0  0  0  0
   36.7720   27.4680   33.7330 C   0  0  0  0  0  0  0  0  0  0  0  0
   36.7140   28.0690   32.5080 C   0  0  0  0  0  0  0  0  0  0  0  0
   36.0950   29.2920   32.7470 C   0  0  0  0  0  0  0  0  0  0  0  0
   35.8000   29.4050   34.0630 N   0  0  0  0  0  0  0  0  0  0  0  0
   36.2190   28.2860   34.6550 N   0  0  0  0  0  0  0  0  0  0  0  0
   37.0720   27.6850   31.5410 H   0  0  0  0  0  0  0  0  0  0  0  0
   35.8660   30.0670   32.0070 H   0  0  0  0  0  0  0  0  0  0  0  0
   35.1580   30.4960   34.7640 C   0  0  0  0  0  3  0  0  0  0  0  0
   36.0610   31.2740   35.7340 C   0  0  0  0  0  2  0  0  0  0  0  0
   35.5700   31.8900   34.4520 C   0  0  0  0  0  2  0  0  0  0  0  0
   38.9440   24.4150   36.7190 O   0  0  0  0  0  0  0  0  0  0  0  0
   38.2200   23.8810   37.7920 C   0  0  0  0  0  0  0  0  0  0  0  0
   37.0700   23.2140   37.3750 F   0  0  0  0  0  0  0  0  0  0  0  0
   37.9030   24.8890   38.6650 F   0  0  0  0  0  0  0  0  0  0  0  0
   39.0390   22.9910   38.4600 F   0  0  0  0  0  0  0  0  0  0  0  0
  1 19  1  0  0  0  0
  2  1  1  0  0  0  0
  2  7  1  0  0  0  0
  3  2  2  0  0  0  0
  4  5  2  0  0  0  0
  4  3  1  0  0  0  0
  5  6  1  0  0  0  0
  6  1  2  0  0  0  0
  8  5  1  0  0  0  0
  9  3  1  0  0  0  0
  9 13  2  0  0  0  0
 10 11  2  0  0  0  0
 10  9  1  0  0  0  0
 11 12  1  0  0  0  0
 12 13  1  0  0  0  0
 12 16  1  0  0  0  0
 14 10  1  0  0  0  0
 15 11  1  0  0  0  0
 16 17  1  0  0  0  0
 18 16  1  0  0  0  0
 18 17  1  0  0  0  0
 19 20  1  0  0  0  0
 20 23  1  0  0  0  0
 20 22  1  0  0  0  0
 21 20  1  0  0  0  0
M  END
>  <minimizedAffinity>
-5.03220129

$$$$

 OpenBabel03272503393D

 23 25  0  0  0  0  0  0  0  0999 V2000
   38.6040   24.3220   36.0380 C   0  0  0  0  0  0  0  0  0  0  0  0
   37.7790   25.2740   35.4680 C   0  0  0  0  0  0  0  0  0  0  0  0
   38.2660   26.1470   34.5140 C   0  0  0  0  0  0  0  0  0  0  0  0
   39.5540   26.0310   34.1730 N   0  0  0  0  0  0  0  0  0  0  0  0
   40.3590   25.0890   34.7410 C   0  0  0  0  0  0  0  0  0  0  0  0
   39.8950   24.2530   35.6540 N   0  0  0  0  0  0  0  0  0  0  0  0
   36.7290   25.4060   35.7120 H   0  0  0  0  0  0  0  0  0  0  0  0
   41.3770   25.0610   34.4130 H   0  0  0  0  0  0  0  0  0  0  0  0
   37.4240   27.1600   33.8950 C   0  0  0  0  0  0  0  0  0  0  0  0
   36.6160   28.0320   34.5680 C   0  0  0  0  0  0  0  0  0  0  0  0
   36.0180   28.7960   33.5700 C   0  0  0  0  0  0  0  0  0  0  0  0
   36.4590   28.3890   32.3570 N   0  0  0  0  0  0  0  0  0  0  0  0
   37.3160   27.3890   32.5680 N   0  0  0  0  0  0  0  0  0  0  0  0
   36.4620   28.1210   35.6530 H   0  0  0  0  0  0  0  0  0  0  0  0
   35.2980   29.6090   33.7110 H   0  0  0  0  0  0  0  0  0  0  0  0
   36.1130   28.8910   31.0450 C   0  0  0  0  0  3  0  0  0  0  0  0
   36.9480   30.0870   30.5600 C   0  0  0  0  0  2  0  0  0  0  0  0
   37.0870   28.7250   29.9350 C   0  0  0  0  0  2  0  0  0  0  0  0
   37.9600   23.5290   36.9740 O   0  0  0  0  0  0  0  0  0  0  0  0
   38.2060   23.5880   38.3510 C   0  0  0  0  0  0  0  0  0  0  0  0
   39.5120   23.2240   38.6720 F   0  0  0  0  0  0  0  0  0  0  0  0
   37.3070   22.7840   39.0020 F   0  0  0  0  0  0  0  0  0  0  0  0
   37.9860   24.8860   38.7690 F   0  0  0  0  0  0  0  0  0  0  0  0
  1 19  1  0  0  0  0
  2  7  1  0  0  0  0
  2  1  2  0  0  0  0
  3  2  1  0  0  0  0
  4  3  2  0  0  0  0
  4  5  1  0  0  0  0
  5  6  2  0  0  0  0
  6  1  1  0  0  0  0
  8  5  1  0  0  0  0
  9  3  1  0  0  0  0
  9 10  1  0  0  0  0
 10 14  1  0  0  0  0
 11 15  1  0  0  0  0
 11 10  2  0  0  0  0
 12 13  1  0  0  0  0
 12 11  1  0  0  0  0
 13  9  2  0  0  0  0
 16 12  1  0  0  0  0
 17 16  1  0  0  0  0
 18 17  1  0  0  0  0
 18 16  1  0  0  0  0
 19 20  1  0  0  0  0
 20 21  1  0  0  0  0
 20 23  1  0  0  0  0
 20 22  1  0  0  0  0
M  END
>  <minimizedAffinity>
-5.01853514

$$$$

 OpenBabel03272503393D

 23 25  0  0  0  0  0  0  0  0999 V2000
   39.5000   22.7770   37.0420 C   0  0  0  0  0  0  0  0  0  0  0  0
   39.0860   23.5430   35.9680 C   0  0  0  0  0  0  0  0  0  0  0  0
   38.2560   24.6310   36.1570 C   0  0  0  0  0  0  0  0  0  0  0  0
   37.8740   24.9040   37.4100 N   0  0  0  0  0  0  0  0  0  0  0  0
   38.2870   24.1420   38.4620 C   0  0  0  0  0  0  0  0  0  0  0  0
   39.0820   23.1020   38.2830 N   0  0  0  0  0  0  0  0  0  0  0  0
   39.3690   23.3610   34.9360 H   0  0  0  0  0  0  0  0  0  0  0  0
   37.9380   24.4270   39.4330 H   0  0  0  0  0  0  0  0  0  0  0  0
   37.8020   25.4570   35.0480 C   0  0  0  0  0  0  0  0  0  0  0  0
   37.4240   26.7660   35.1430 C   0  0  0  0  0  0  0  0  0  0  0  0
   37.0770   27.1250   33.8440 C   0  0  0  0  0  0  0  0  0  0  0  0
   37.2450   26.0670   33.0170 N   0  0  0  0  0  0  0  0  0  0  0  0
   37.6880   25.0540   33.7630 N   0  0  0  0  0  0  0  0  0  0  0  0
   37.3940   27.4040   36.0380 H   0  0  0  0  0  0  0  0  0  0  0  0
   36.7180   28.1040   33.5090 H   0  0  0  0  0  0  0  0  0  0  0  0
   37.0120   25.9770   31.5920 C   0  0  0  0  0  3  0  0  0  0  0  0
   35.5730   25.6200   31.1850 C   0  0  0  0  0  2  0  0  0  0  0  0
   36.1420   26.9930   30.9430 C   0  0  0  0  0  2  0  0  0  0  0  0
   40.3290   21.7270   36.6800 O   0  0  0  0  0  0  0  0  0  0  0  0
   41.7020   21.6860   36.9510 C   0  0  0  0  0  0  0  0  0  0  0  0
   42.2530   22.9590   37.0860 F   0  0  0  0  0  0  0  0  0  0  0  0
   42.3350   20.9890   35.9560 F   0  0  0  0  0  0  0  0  0  0  0  0
   41.8840   20.9900   38.1310 F   0  0  0  0  0  0  0  0  0  0  0  0
  1  6  1  0  0  0  0
  2  3  1  0  0  0  0
  2  1  2  0  0  0  0
  3  4  2  0  0  0  0
  4  5  1  0  0  0  0
  5  8  1  0  0  0  0
  6  5  2  0  0  0  0
  7  2  1  0  0  0  0
  9 10  1  0  0  0  0
  9  3  1  0  0  0  0
 10 14  1  0  0  0  0
 11 10  2  0  0  0  0
 12 13  1  0  0  0  0
 12 11  1  0  0  0  0
 13  9  2  0  0  0  0
 15 11  1  0  0  0  0
 16 12  1  0  0  0  0
 17 16  1  0  0  0  0
 18 17  1  0  0  0  0
 18 16  1  0  0  0  0
 19 20  1  0  0  0  0
 19  1  1  0  0  0  0
 20 21  1  0  0  0  0
 20 23  1  0  0  0  0
 22 20  1  0  0  0  0
M  END
>  <minimizedAffinity>
-4.94611502

$$$$

 OpenBabel03272503393D

 23 25  0  0  0  0  0  0  0  0999 V2000
   38.9230   24.1660   36.0370 C   0  0  0  0  0  0  0  0  0  0  0  0
   37.9910   23.5670   35.2100 C   0  0  0  0  0  0  0  0  0  0  0  0
   38.2760   23.3350   33.8790 C   0  0  0  0  0  0  0  0  0  0  0  0
   39.4800   23.7120   33.4320 N   0  0  0  0  0  0  0  0  0  0  0  0
   40.3920   24.3020   34.2550 C   0  0  0  0  0  0  0  0  0  0  0  0
   40.1200   24.5240   35.5300 N   0  0  0  0  0  0  0  0  0  0  0  0
   37.0030   23.2450   35.5260 H   0  0  0  0  0  0  0  0  0  0  0  0
   41.3320   24.5730   33.8220 H   0  0  0  0  0  0  0  0  0  0  0  0
   37.3160   22.7080   32.9820 C   0  0  0  0  0  0  0  0  0  0  0  0
   36.8850   23.2330   31.7970 C   0  0  0  0  0  0  0  0  0  0  0  0
   35.9880   22.2900   31.3030 C   0  0  0  0  0  0  0  0  0  0  0  0
   35.8960   21.2510   32.1660 N   0  0  0  0  0  0  0  0  0  0  0  0
   36.7110   21.5180   33.1870 N   0  0  0  0  0  0  0  0  0  0  0  0
   37.1730   24.1840   31.3270 H   0  0  0  0  0  0  0  0  0  0  0  0
   35.4260   22.3500   30.3650 H   0  0  0  0  0  0  0  0  0  0  0  0
   35.0930   20.0520   32.0660 C   0  0  0  0  0  3  0  0  0  0  0  0
   35.8300   18.8120   31.5380 C   0  0  0  0  0  2  0  0  0  0  0  0
   35.3910   18.9130   32.9740 C   0  0  0  0  0  2  0  0  0  0  0  0
   38.4780   24.3250   37.3400 O   0  0  0  0  0  0  0  0  0  0  0  0
   38.6910   23.3870   38.3590 C   0  0  0  0  0  0  0  0  0  0  0  0
   39.6680   22.4520   38.0220 F   0  0  0  0  0  0  0  0  0  0  0  0
   37.5060   22.7630   38.6480 F   0  0  0  0  0  0  0  0  0  0  0  0
   39.0920   24.0690   39.4910 F   0  0  0  0  0  0  0  0  0  0  0  0
  1 19  1  0  0  0  0
  2  7  1  0  0  0  0
  2  1  2  0  0  0  0
  3  2  1  0  0  0  0
  4  3  2  0  0  0  0
  4  5  1  0  0  0  0
  5  6  2  0  0  0  0
  6  1  1  0  0  0  0
  8  5  1  0  0  0  0
  9 13  2  0  0  0  0
  9  3  1  0  0  0  0
 10  9  1  0  0  0  0
 11 10  2  0  0  0  0
 11 12  1  0  0  0  0
 12 13  1  0  0  0  0
 14 10  1  0  0  0  0
 15 11  1  0  0  0  0
 16 12  1  0  0  0  0
 16 18  1  0  0  0  0
 17 16  1  0  0  0  0
 17 18  1  0  0  0  0
 19 20  1  0  0  0  0
 20 22  1  0  0  0  0
 20 23  1  0  0  0  0
 21 20  1  0  0  0  0
M  END
>  <minimizedAffinity>
-4.77892828

$$$$

 OpenBabel03272503393D

 23 25  0  0  0  0  0  0  0  0999 V2000
   39.7630   22.9210   36.7290 C   0  0  0  0  0  0  0  0  0  0  0  0
   39.0770   22.3280   35.6860 C   0  0  0  0  0  0  0  0  0  0  0  0
   37.7030   22.2000   35.7290 C   0  0  0  0  0  0  0  0  0  0  0  0
   37.0740   22.6710   36.8120 N   0  0  0  0  0  0  0  0  0  0  0  0
   37.7590   23.2550   37.8360 C   0  0  0  0  0  0  0  0  0  0  0  0
   39.0750   23.3770   37.7950 N   0  0  0  0  0  0  0  0  0  0  0  0
   39.5420   21.9310   34.7880 H   0  0  0  0  0  0  0  0  0  0  0  0
   37.1830   23.6060   38.6660 H   0  0  0  0  0  0  0  0  0  0  0  0
   36.9510   21.5800   34.6480 C   0  0  0  0  0  0  0  0  0  0  0  0
   35.8630   20.7700   34.8080 C   0  0  0  0  0  0  0  0  0  0  0  0
   35.4900   20.4230   33.5130 C   0  0  0  0  0  0  0  0  0  0  0  0
   36.3280   21.0080   32.6250 N   0  0  0  0  0  0  0  0  0  0  0  0
   37.2160   21.7110   33.3300 N   0  0  0  0  0  0  0  0  0  0  0  0
   35.3790   20.4530   35.7440 H   0  0  0  0  0  0  0  0  0  0  0  0
   34.6540   19.7790   33.2210 H   0  0  0  0  0  0  0  0  0  0  0  0
   36.3240   20.9320   31.1800 C   0  0  0  0  0  3  0  0  0  0  0  0
   37.5520   20.2500   30.5570 C   0  0  0  0  0  2  0  0  0  0  0  0
   36.1940   19.6010   30.5330 C   0  0  0  0  0  2  0  0  0  0  0  0
   41.1340   22.9700   36.5270 O   0  0  0  0  0  0  0  0  0  0  0  0
   42.0050   21.9140   36.8190 C   0  0  0  0  0  0  0  0  0  0  0  0
   41.6230   21.2130   37.9620 F   0  0  0  0  0  0  0  0  0  0  0  0
   43.2760   22.4060   36.9570 F   0  0  0  0  0  0  0  0  0  0  0  0
   42.0060   21.0500   35.7410 F   0  0  0  0  0  0  0  0  0  0  0  0
  1  6  1  0  0  0  0
  2  3  1  0  0  0  0
  2  1  2  0  0  0  0
  3  4  2  0  0  0  0
  4  5  1  0  0  0  0
  5  8  1  0  0  0  0
  6  5  2  0  0  0  0
  7  2  1  0  0  0  0
  9 10  1  0  0  0  0
  9  3  1  0  0  0  0
 10 14  1  0  0  0  0
 11 10  2  0  0  0  0
 12 13  1  0  0  0  0
 12 11  1  0  0  0  0
 13  9  2  0  0  0  0
 15 11  1  0  0  0  0
 16 12  1  0  0  0  0
 17 16  1  0  0  0  0
 18 17  1  0  0  0  0
 18 16  1  0  0  0  0
 19  1  1  0  0  0  0
 19 20  1  0  0  0  0
 20 22  1  0  0  0  0
 20 21  1  0  0  0  0
 23 20  1  0  0  0  0
M  END
>  <minimizedAffinity>
-4.68286896

$$$$

 OpenBabel03272503393D

 23 25  0  0  0  0  0  0  0  0999 V2000
   35.4020   29.3500   33.9050 C   0  0  0  0  0  0  0  0  0  0  0  0
   36.2820   28.5110   34.5630 C   0  0  0  0  0  0  0  0  0  0  0  0
   36.9990   27.5570   33.8680 C   0  0  0  0  0  0  0  0  0  0  0  0
   36.8040   27.4820   32.5450 N   0  0  0  0  0  0  0  0  0  0  0  0
   35.9340   28.3140   31.9060 C   0  0  0  0  0  0  0  0  0  0  0  0
   35.2480   29.2280   32.5710 N   0  0  0  0  0  0  0  0  0  0  0  0
   36.4730   28.5330   35.6320 H   0  0  0  0  0  0  0  0  0  0  0  0
   35.8360   28.1910   30.8480 H   0  0  0  0  0  0  0  0  0  0  0  0
   37.9320   26.6570   34.5300 C   0  0  0  0  0  0  0  0  0  0  0  0
   39.2900   26.6840   34.3850 C   0  0  0  0  0  0  0  0  0  0  0  0
   39.7490   25.6540   35.2000 C   0  0  0  0  0  0  0  0  0  0  0  0
   38.7000   25.0450   35.8010 N   0  0  0  0  0  0  0  0  0  0  0  0
   37.5960   25.6670   35.3850 N   0  0  0  0  0  0  0  0  0  0  0  0
   39.8970   27.3610   33.7670 H   0  0  0  0  0  0  0  0  0  0  0  0
   40.7910   25.3550   35.3540 H   0  0  0  0  0  0  0  0  0  0  0  0
   38.6990   23.9330   36.7270 C   0  0  0  0  0  3  0  0  0  0  0  0
   38.1460   24.2470   38.1270 C   0  0  0  0  0  2  0  0  0  0  0  0
   37.3970   23.3660   37.1640 C   0  0  0  0  0  2  0  0  0  0  0  0
   34.7670   30.2480   34.7480 O   0  0  0  0  0  0  0  0  0  0  0  0
   35.3370   31.4510   35.1820 C   0  0  0  0  0  0  0  0  0  0  0  0
   36.2760   31.9480   34.2800 F   0  0  0  0  0  0  0  0  0  0  0  0
   35.9060   31.2590   36.4140 F   0  0  0  0  0  0  0  0  0  0  0  0
   34.3220   32.3760   35.3300 F   0  0  0  0  0  0  0  0  0  0  0  0
  1  2  1  0  0  0  0
  1 19  1  0  0  0  0
  2  7  1  0  0  0  0
  3  9  1  0  0  0  0
  3  2  2  0  0  0  0
  4  3  1  0  0  0  0
  5  4  2  0  0  0  0
  5  6  1  0  0  0  0
  6  1  2  0  0  0  0
  8  5  1  0  0  0  0
  9 13  2  0  0  0  0
 10  9  1  0  0  0  0
 10 11  2  0  0  0  0
 11 15  1  0  0  0  0
 11 12  1  0  0  0  0
 12 16  1  0  0  0  0
 13 12  1  0  0  0  0
 14 10  1  0  0  0  0
 16 18  1  0  0  0  0
 16 17  1  0  0  0  0
 18 17  1  0  0  0  0
 19 20  1  0  0  0  0
 20 23  1  0  0  0  0
 20 22  1  0  0  0  0
 21 20  1  0  0  0  0
M  END
>  <minimizedAffinity>
-4.64592314

$$$$

 OpenBabel03272503393D

 23 25  0  0  0  0  0  0  0  0999 V2000
   36.9930   27.2350   33.8980 C   0  0  0  0  0  0  0  0  0  0  0  0
   36.5580   28.3170   34.6390 C   0  0  0  0  0  0  0  0  0  0  0  0
   35.7290   29.2680   34.0780 C   0  0  0  0  0  0  0  0  0  0  0  0
   35.3700   29.0960   32.8000 N   0  0  0  0  0  0  0  0  0  0  0  0
   35.8040   28.0250   32.0770 C   0  0  0  0  0  0  0  0  0  0  0  0
   36.5990   27.1150   32.6140 N   0  0  0  0  0  0  0  0  0  0  0  0
   36.8220   28.5000   35.6770 H   0  0  0  0  0  0  0  0  0  0  0  0
   35.4720   27.9590   31.0630 H   0  0  0  0  0  0  0  0  0  0  0  0
   35.2540   30.4200   34.8320 C   0  0  0  0  0  0  0  0  0  0  0  0
   35.9960   31.1340   35.7290 C   0  0  0  0  0  0  0  0  0  0  0  0
   35.1320   32.1240   36.1870 C   0  0  0  0  0  0  0  0  0  0  0  0
   33.9280   31.9960   35.5820 N   0  0  0  0  0  0  0  0  0  0  0  0
   34.0150   30.9510   34.7570 N   0  0  0  0  0  0  0  0  0  0  0  0
   37.0410   30.9750   36.0310 H   0  0  0  0  0  0  0  0  0  0  0  0
   35.3580   32.9020   36.9240 H   0  0  0  0  0  0  0  0  0  0  0  0
   32.7340   32.7960   35.7470 C   0  0  0  0  0  3  0  0  0  0  0  0
   31.7220   32.2600   36.7710 C   0  0  0  0  0  2  0  0  0  0  0  0
   32.5200   33.5080   37.0340 C   0  0  0  0  0  2  0  0  0  0  0  0
   37.8170   26.3770   34.6100 O   0  0  0  0  0  0  0  0  0  0  0  0
   39.1130   26.7040   35.0260 C   0  0  0  0  0  0  0  0  0  0  0  0
   39.1200   27.4230   36.2200 F   0  0  0  0  0  0  0  0  0  0  0  0
   39.7380   27.4110   34.0330 F   0  0  0  0  0  0  0  0  0  0  0  0
   39.8130   25.5270   35.2070 F   0  0  0  0  0  0  0  0  0  0  0  0
  1 19  1  0  0  0  0
  1  2  1  0  0  0  0
  2  7  1  0  0  0  0
  3  2  2  0  0  0  0
  3  9  1  0  0  0  0
  4  3  1  0  0  0  0
  5  6  1  0  0  0  0
  5  4  2  0  0  0  0
  6  1  2  0  0  0  0
  8  5  1  0  0  0  0
  9 10  1  0  0  0  0
 10 14  1  0  0  0  0
 10 11  2  0  0  0  0
 11 15  1  0  0  0  0
 12 16  1  0  0  0  0
 12 11  1  0  0  0  0
 13  9  2  0  0  0  0
 13 12  1  0  0  0  0
 16 17  1  0  0  0  0
 16 18  1  0  0  0  0
 17 18  1  0  0  0  0
 19 20  1  0  0  0  0
 20 23  1  0  0  0  0
 20 21  1  0  0  0  0
 22 20  1  0  0  0  0
M  END
>  <minimizedAffinity>
-4.54246235

$$$$

 OpenBabel03272503393D

 23 25  0  0  0  0  0  0  0  0999 V2000
   36.2140   21.9830   31.7650 C   0  0  0  0  0  0  0  0  0  0  0  0
   37.2610   22.2670   32.6210 C   0  0  0  0  0  0  0  0  0  0  0  0
   37.5990   23.5740   32.9110 C   0  0  0  0  0  0  0  0  0  0  0  0
   36.8760   24.5400   32.3320 N   0  0  0  0  0  0  0  0  0  0  0  0
   35.8460   24.2500   31.4890 C   0  0  0  0  0  0  0  0  0  0  0  0
   35.5220   22.9990   31.2110 N   0  0  0  0  0  0  0  0  0  0  0  0
   37.8750   21.5180   33.1140 H   0  0  0  0  0  0  0  0  0  0  0  0
   35.3170   25.0790   31.0670 H   0  0  0  0  0  0  0  0  0  0  0  0
   38.6960   23.9060   33.8090 C   0  0  0  0  0  0  0  0  0  0  0  0
   39.3340   25.1130   33.8600 C   0  0  0  0  0  0  0  0  0  0  0  0
   40.2950   24.9580   34.8540 C   0  0  0  0  0  0  0  0  0  0  0  0
   40.2260   23.7080   35.3660 N   0  0  0  0  0  0  0  0  0  0  0  0
   39.2460   23.0750   34.7200 N   0  0  0  0  0  0  0  0  0  0  0  0
   39.1410   26.0140   33.2590 H   0  0  0  0  0  0  0  0  0  0  0  0
   41.0150   25.7120   35.1930 H   0  0  0  0  0  0  0  0  0  0  0  0
   41.0240   23.1040   36.4110 C   0  0  0  0  0  3  0  0  0  0  0  0
   40.2520   22.7120   37.6810 C   0  0  0  0  0  2  0  0  0  0  0  0
   40.8040   21.6720   36.7440 C   0  0  0  0  0  2  0  0  0  0  0  0
   36.0070   20.6240   31.5820 O   0  0  0  0  0  0  0  0  0  0  0  0
   35.1130   19.8610   32.3430 C   0  0  0  0  0  0  0  0  0  0  0  0
   35.2460   20.0960   33.7100 F   0  0  0  0  0  0  0  0  0  0  0  0
   35.3050   18.5340   32.0610 F   0  0  0  0  0  0  0  0  0  0  0  0
   33.8300   20.1910   31.9520 F   0  0  0  0  0  0  0  0  0  0  0  0
  1  2  1  0  0  0  0
  2  3  2  0  0  0  0
  2  7  1  0  0  0  0
  3  9  1  0  0  0  0
  4  3  1  0  0  0  0
  5  4  2  0  0  0  0
  6  5  1  0  0  0  0
  6  1  2  0  0  0  0
  8  5  1  0  0  0  0
  9 10  1  0  0  0  0
  9 13  2  0  0  0  0
 10 11  2  0  0  0  0
 11 15  1  0  0  0  0
 11 12  1  0  0  0  0
 12 16  1  0  0  0  0
 13 12  1  0  0  0  0
 14 10  1  0  0  0  0
 16 18  1  0  0  0  0
 16 17  1  0  0  0  0
 18 17  1  0  0  0  0
 19  1  1  0  0  0  0
 19 20  1  0  0  0  0
 20 21  1  0  0  0  0
 22 20  1  0  0  0  0
 23 20  1  0  0  0  0
M  END
>  <minimizedAffinity>
-4.50354004

$$$$
