
 OpenBabel03272510103D

 22 24  0  0  0  0  0  0  0  0999 V2000
   37.4490   31.2170   48.8450 C   0  0  0  0  0  0  0  0  0  0  0  0
   37.9210   32.4620   49.1230 C   0  0  0  0  0  0  0  0  0  0  0  0
   38.8230   33.1390   48.3250 C   0  0  0  0  0  0  0  0  0  0  0  0
   39.3000   32.5500   47.1690 C   0  0  0  0  0  0  0  0  0  0  0  0
   38.8040   31.2920   46.9190 C   0  0  0  0  0  0  0  0  0  0  0  0
   37.9250   30.6490   47.7060 N   0  0  0  0  0  0  0  0  0  0  0  0
   37.5560   32.9420   50.0280 H   0  0  0  0  0  0  0  0  0  0  0  0
   39.1850   34.1320   48.5660 H   0  0  0  0  0  0  0  0  0  0  0  0
   39.0560   30.6720   46.0680 H   0  0  0  0  0  0  0  0  0  0  0  0
   36.8230   29.9190   50.9090 C   0  0  0  0  0  0  0  0  0  0  0  0
   36.4980   30.5010   49.6870 C   0  0  0  0  0  0  0  0  0  0  0  0
   35.1950   30.3850   49.2550 C   0  0  0  0  0  0  0  0  0  0  0  0
   34.2920   29.7170   50.0290 N   0  0  0  0  0  0  0  0  0  0  0  0
   34.6620   29.1690   51.2120 C   0  0  0  0  0  0  0  0  0  0  0  0
   35.9370   29.2650   51.6680 N   0  0  0  0  0  0  0  0  0  0  0  0
   37.8690   30.0530   51.1790 H   0  0  0  0  0  0  0  0  0  0  0  0
   34.9230   30.8300   48.3090 H   0  0  0  0  0  0  0  0  0  0  0  0
   33.9840   28.6300   51.8610 H   0  0  0  0  0  0  0  0  0  0  0  0
   40.1980   33.1160   46.2920 O   0  0  0  0  0  0  0  0  0  0  0  0
   40.3630   32.8520   44.9400 C   0  0  0  0  0  3  0  0  0  0  0  0
   39.0760   32.9710   44.0580 C   0  0  0  0  0  2  0  0  0  0  0  0
   40.2630   33.9160   43.9100 C   0  0  0  0  0  2  0  0  0  0  0  0
  1  2  1  0  0  0  0
  1 11  1  0  0  0  0
  2  7  1  0  0  0  0
  3  8  1  0  0  0  0
  3  2  2  0  0  0  0
  4  3  1  0  0  0  0
  5  4  2  0  0  0  0
  5  6  1  0  0  0  0
  6  1  2  0  0  0  0
  9  5  1  0  0  0  0
 10 16  1  0  0  0  0
 10 15  1  0  0  0  0
 11 10  2  0  0  0  0
 12 11  1  0  0  0  0
 12 13  2  0  0  0  0
 13 14  1  0  0  0  0
 14 15  2  0  0  0  0
 14 18  1  0  0  0  0
 17 12  1  0  0  0  0
 19  4  1  0  0  0  0
 20 19  1  0  0  0  0
 21 20  1  0  0  0  0
 22 21  1  0  0  0  0
 22 20  1  0  0  0  0
M  END
>  <minimizedAffinity>
-4.64837742

>  <minimizedRMSD>
0.744208455

$$$$
