
 OpenBabel03272509453D

 13 14  0  0  0  0  0  0  0  0999 V2000
   37.2530   30.1890   51.1710 C   0  0  0  0  0  0  0  0  0  0  0  0
   38.2200   30.8950   50.4510 C   0  0  0  0  0  0  0  0  0  0  0  0
   38.0870   30.9600   49.0550 C   0  0  0  0  0  0  0  0  0  0  0  0
   37.0130   30.3240   48.4670 N   0  0  0  0  0  0  0  0  0  0  0  0
   36.1000   29.6480   49.2190 C   0  0  0  0  0  0  0  0  0  0  0  0
   36.2310   29.5890   50.5590 N   0  0  0  0  0  0  0  0  0  0  0  0
   37.3680   30.1470   52.2430 H   0  0  0  0  0  0  0  0  0  0  0  0
   39.0740   31.4030   50.8890 H   0  0  0  0  0  0  0  0  0  0  0  0
   38.8000   31.4880   48.4590 H   0  0  0  0  0  0  0  0  0  0  0  0
   35.1050   29.0840   48.4470 O   0  0  0  0  0  0  0  0  0  0  0  0
   34.4310   27.9440   48.9520 C   0  0  0  0  0  3  0  0  0  0  0  0
   33.7870   26.9870   48.0220 C   0  0  0  0  0  2  0  0  0  0  0  0
   32.9270   28.0020   48.6990 C   0  0  0  0  0  2  0  0  0  0  0  0
  1  7  1  0  0  0  0
  2  8  1  0  0  0  0
  2  1  2  0  0  0  0
  3  2  1  0  0  0  0
  4  3  2  0  0  0  0
  4  5  1  0  0  0  0
  5  6  2  0  0  0  0
  6  1  1  0  0  0  0
  9  3  1  0  0  0  0
 10 11  1  0  0  0  0
 10  5  1  0  0  0  0
 12 13  1  0  0  0  0
 12 11  1  0  0  0  0
 13 11  1  0  0  0  0
M  END
>  <minimizedAffinity>
-3.58334517

>  <minimizedRMSD>
1.45987058

$$$$
