
 OpenBabel03272510303D

 22 24  0  0  0  0  0  0  0  0999 V2000
   37.3580   31.3570   49.1900 C   0  0  0  0  0  0  0  0  0  0  0  0
   37.5760   32.6630   49.6340 C   0  0  0  0  0  0  0  0  0  0  0  0
   38.4760   33.4060   48.9010 C   0  0  0  0  0  0  0  0  0  0  0  0
   39.0920   32.8490   47.8100 N   0  0  0  0  0  0  0  0  0  0  0  0
   38.8430   31.5620   47.4160 C   0  0  0  0  0  0  0  0  0  0  0  0
   37.9520   30.7990   48.1290 N   0  0  0  0  0  0  0  0  0  0  0  0
   37.0670   33.0600   50.5000 H   0  0  0  0  0  0  0  0  0  0  0  0
   38.7110   34.4290   49.1670 H   0  0  0  0  0  0  0  0  0  0  0  0
   36.3550   30.5280   49.9510 C   0  0  0  0  0  0  0  0  0  0  0  0
   36.3340   29.0880   49.9150 C   0  0  0  0  0  0  0  0  0  0  0  0
   36.9910   29.7480   51.1150 C   0  0  0  0  0  0  0  0  0  0  0  0
   35.4300   31.1090   50.2460 H   0  0  0  0  0  0  0  0  0  0  0  0
   35.3520   28.5880   50.0720 H   0  0  0  0  0  0  0  0  0  0  0  0
   37.0160   28.5070   49.2640 H   0  0  0  0  0  0  0  0  0  0  0  0
   36.4220   29.7140   52.0730 H   0  0  0  0  0  0  0  0  0  0  0  0
   38.0810   29.7540   51.2210 H   0  0  0  0  0  0  0  0  0  0  0  0
   39.4790   30.9460   46.2440 C   0  0  0  0  0  0  0  0  0  0  0  0
   40.4940   31.3520   46.0570 H   0  0  0  0  0  0  0  0  0  0  0  0
   39.6180   29.8620   46.4340 H   0  0  0  0  0  0  0  0  0  0  0  0
   38.5960   31.0830   45.0250 C   0  0  0  0  0  3  0  0  0  0  0  0
   37.1270   31.0350   45.1270 C   0  0  0  0  0  2  0  0  0  0  0  0
   37.8700   32.3350   44.7610 C   0  0  0  0  0  2  0  0  0  0  0  0
  1  2  1  0  0  0  0
  1  9  1  0  0  0  0
  2  7  1  0  0  0  0
  3  8  1  0  0  0  0
  3  2  2  0  0  0  0
  4  3  1  0  0  0  0
  5  4  2  0  0  0  0
  5  6  1  0  0  0  0
  6  1  2  0  0  0  0
  9 12  1  0  0  0  0
  9 11  1  0  0  0  0
 10  9  1  0  0  0  0
 10 13  1  0  0  0  0
 10 11  1  0  0  0  0
 11 16  1  0  0  0  0
 11 15  1  0  0  0  0
 14 10  1  0  0  0  0
 17 19  1  0  0  0  0
 17  5  1  0  0  0  0
 18 17  1  0  0  0  0
 20 21  1  0  0  0  0
 20 17  1  0  0  0  0
 22 20  1  0  0  0  0
 22 21  1  0  0  0  0
M  END
>  <minimizedAffinity>
-4.75907087

>  <minimizedRMSD>
0.297102809

$$$$
