
 OpenBabel03262522573D

 19 21  0  0  0  0  0  0  0  0999 V2000
   37.8840   31.1490   47.2850 C   0  0  0  0  0  0  0  0  0  0  0  0
   36.6210   30.6290   47.1470 C   0  0  0  0  0  0  0  0  0  0  0  0
   36.1090   30.3680   48.3930 C   0  0  0  0  0  0  0  0  0  0  0  0
   37.0640   30.7300   49.2830 N   0  0  0  0  0  0  0  0  0  0  0  0
   38.1090   31.1920   48.5980 N   0  0  0  0  0  0  0  0  0  0  0  0
   36.0720   30.4370   46.2170 H   0  0  0  0  0  0  0  0  0  0  0  0
   35.1300   29.9510   48.6310 H   0  0  0  0  0  0  0  0  0  0  0  0
   40.8450   31.4930   45.1470 C   0  0  0  0  0  0  0  0  0  0  0  0
   40.3960   32.4050   44.1630 C   0  0  0  0  0  0  0  0  0  0  0  0
   39.0900   32.8800   44.2530 C   0  0  0  0  0  0  0  0  0  0  0  0
   38.3180   32.4490   45.2760 N   0  0  0  0  0  0  0  0  0  0  0  0
   38.7800   31.5640   46.2170 C   0  0  0  0  0  0  0  0  0  0  0  0
   40.0240   31.1070   46.1360 N   0  0  0  0  0  0  0  0  0  0  0  0
   41.8700   31.1240   45.0720 H   0  0  0  0  0  0  0  0  0  0  0  0
   41.0320   32.7410   43.3480 H   0  0  0  0  0  0  0  0  0  0  0  0
   38.6720   33.5830   43.5330 H   0  0  0  0  0  0  0  0  0  0  0  0
   36.8890   30.6010   50.7170 C   0  0  0  0  0  0  0  0  0  0  0  0
   37.5250   29.3430   51.3520 C   0  0  0  0  0  0  0  0  0  0  0  0
   36.0260   29.5260   51.2700 C   0  0  0  0  0  0  0  0  0  0  0  0
  1  5  2  0  0  0  0
  2  1  1  0  0  0  0
  2  3  2  0  0  0  0
  3  7  1  0  0  0  0
  3  4  1  0  0  0  0
  4 17  1  0  0  0  0
  5  4  1  0  0  0  0
  6  2  1  0  0  0  0
  8 13  1  0  0  0  0
  9 10  1  0  0  0  0
  9  8  2  0  0  0  0
 10 11  2  0  0  0  0
 11 12  1  0  0  0  0
 12  1  1  0  0  0  0
 13 12  2  0  0  0  0
 14  8  1  0  0  0  0
 15  9  1  0  0  0  0
 16 10  1  0  0  0  0
 17 19  1  0  0  0  0
 17 18  1  0  0  0  0
 19 18  1  0  0  0  0
M  END
>  <minimizedAffinity>
-4.83635712

>  <minimizedRMSD>
3.99990845

$$$$
