
 OpenBabel03272504573D

 27 29  0  0  1  0  0  0  0  0999 V2000
   37.6710   31.4680   47.4040 C   0  0  1  0  0  0  0  0  0  0  0  0
   36.3470   30.9390   47.1930 C   0  0  0  0  0  0  0  0  0  0  0  0
   37.2880   30.2560   48.1280 C   0  0  2  0  0  0  0  0  0  0  0  0
   37.8670   32.3690   48.0830 H   0  0  0  0  0  0  0  0  0  0  0  0
   35.6450   31.7370   47.3480 H   0  0  0  0  0  0  0  0  0  0  0  0
   36.1660   30.4270   46.2240 H   0  0  0  0  0  0  0  0  0  0  0  0
   37.4200   29.2280   47.8390 H   0  0  0  0  0  0  0  0  0  0  0  0
   38.7360   31.3290   46.3540 C   0  0  0  0  0  0  0  0  0  0  0  0
   39.7420   32.3220   46.3650 C   0  0  0  0  0  0  0  0  0  0  0  0
   40.7090   32.1640   45.4010 C   0  0  0  0  0  0  0  0  0  0  0  0
   40.6560   31.1190   44.5300 N   0  0  0  0  0  0  0  0  0  0  0  0
   39.6690   30.1880   44.5570 C   0  0  0  0  0  0  0  0  0  0  0  0
   38.6890   30.3150   45.5040 N   0  0  0  0  0  0  0  0  0  0  0  0
   39.6080   29.1000   43.6800 N   0  0  0  0  0  0  0  0  0  0  0  0
   39.7900   33.1520   47.0520 H   0  0  0  0  0  0  0  0  0  0  0  0
   41.4970   32.8980   45.3700 H   0  0  0  0  0  0  0  0  0  0  0  0
   39.8070   29.1530   42.6600 H   0  0  0  0  0  0  0  0  0  0  0  0
   39.3570   28.1150   43.9390 H   0  0  0  0  0  0  0  0  0  0  0  0
   37.0170   30.4260   49.4890 O   0  0  0  0  0  0  0  0  0  0  0  0
   35.6550   29.2890   51.3620 O   0  0  0  0  0  0  0  0  0  0  0  0
   35.6130   29.6340   49.9070 P   0  0  1  0  0  0  0  0  0  0  0  0
   34.2750   30.7220   49.7460 O   0  0  0  0  0  0  0  0  0  0  0  0
   34.2500   31.3190   50.5340 H   0  0  0  0  0  0  0  0  0  0  0  0
   35.4040   28.3100   48.8930 O   0  0  0  0  0  0  0  0  0  0  0  0
   34.2630   28.3490   48.1440 C   0  0  0  0  0  0  0  0  0  0  0  0
   33.0520   27.6980   48.7010 C   0  0  0  0  0  0  0  0  0  0  0  0
   33.7680   26.9840   47.6180 C   0  0  0  0  0  0  0  0  0  0  0  0
  1  4  1  1  0  0  0
  1  3  1  0  0  0  0
  2  5  1  0  0  0  0
  2  1  1  0  0  0  0
  2  3  1  0  0  0  0
  3  7  1  6  0  0  0
  3 19  1  0  0  0  0
  6  2  1  0  0  0  0
  8  9  1  0  0  0  0
  8  1  1  0  0  0  0
  9 15  1  0  0  0  0
 10  9  2  0  0  0  0
 11 12  2  0  0  0  0
 11 10  1  0  0  0  0
 12 13  1  0  0  0  0
 13  8  2  0  0  0  0
 14 18  1  0  0  0  0
 14 12  1  0  0  0  0
 16 10  1  0  0  0  0
 17 14  1  0  0  0  0
 19 21  1  0  0  0  0
 21 20  2  1  0  0  0
 22 21  1  0  0  0  0
 22 23  1  0  0  0  0
 24 21  1  0  0  0  0
 25 26  1  0  0  0  0
 25 24  1  0  0  0  0
 27 25  1  0  0  0  0
 27 26  1  0  0  0  0
M  END
>  <minimizedAffinity>
-4.79076576

>  <minimizedRMSD>
2.516752

$$$$
