
 OpenBabel03272508273D

 32 35  0  0  1  0  0  0  0  0999 V2000
   35.6750   30.4160   49.0440 C   0  0  1  0  0  0  0  0  0  0  0  0
   35.7620   28.9940   48.8050 C   0  0  1  0  0  0  0  0  0  0  0  0
   35.9160   29.4520   50.2180 C   0  0  0  0  0  0  0  0  0  0  0  0
   34.7560   31.0120   49.2290 H   0  0  0  0  0  0  0  0  0  0  0  0
   36.7130   28.6590   48.2940 H   0  0  0  0  0  0  0  0  0  0  0  0
   36.9190   29.4070   50.6740 H   0  0  0  0  0  0  0  0  0  0  0  0
   35.0760   29.2200   50.8960 H   0  0  0  0  0  0  0  0  0  0  0  0
   33.8870   28.9360   47.2660 C   0  0  2  0  0  0  0  0  0  0  0  0
   34.5990   28.1660   48.3700 C   0  0  2  0  0  0  0  0  0  0  0  0
   33.6800   28.0090   49.3650 O   0  0  0  0  0  0  0  0  0  0  0  0
   32.4140   28.0870   48.8660 C   0  0  0  0  0  0  0  0  0  0  0  0
   32.5060   28.2780   47.3670 C   0  0  1  0  0  0  0  0  0  0  0  0
   33.7360   29.9970   47.5070 H   0  0  0  0  0  0  0  0  0  0  0  0
   34.8780   27.1850   47.9320 H   0  0  0  0  0  0  0  0  0  0  0  0
   31.9450   29.0050   49.2730 H   0  0  0  0  0  0  0  0  0  0  0  0
   31.7650   27.2280   49.1220 H   0  0  0  0  0  0  0  0  0  0  0  0
   32.5500   27.2370   46.9420 H   0  0  0  0  0  0  0  0  0  0  0  0
   34.4500   28.7400   46.0150 O   0  0  0  0  0  0  0  0  0  0  0  0
   34.4510   29.5930   45.5420 H   0  0  0  0  0  0  0  0  0  0  0  0
   31.5260   29.0610   46.8280 O   0  0  0  0  0  0  0  0  0  0  0  0
   30.7790   28.4290   45.8480 C   0  0  0  0  0  3  0  0  0  0  0  0
   31.2610   28.2980   44.4630 C   0  0  0  0  0  2  0  0  0  0  0  0
   31.1510   27.0800   45.3540 C   0  0  0  0  0  2  0  0  0  0  0  0
   36.8660   31.3300   48.8150 C   0  0  0  0  0  0  0  0  0  0  0  0
   37.0730   32.3700   49.7200 C   0  0  0  0  0  0  0  0  0  0  0  0
   38.1610   33.1820   49.4480 C   0  0  0  0  0  0  0  0  0  0  0  0
   38.9580   32.9610   48.3660 N   0  0  0  0  0  0  0  0  0  0  0  0
   38.7210   31.9310   47.5040 C   0  0  0  0  0  0  0  0  0  0  0  0
   37.6610   31.1100   47.7380 N   0  0  0  0  0  0  0  0  0  0  0  0
   36.4030   32.4890   50.5570 H   0  0  0  0  0  0  0  0  0  0  0  0
   38.3620   34.0100   50.1310 H   0  0  0  0  0  0  0  0  0  0  0  0
   39.3410   31.7380   46.6380 H   0  0  0  0  0  0  0  0  0  0  0  0
  1  4  1  6  0  0  0
  1  3  1  0  0  0  0
  2  5  1  6  0  0  0
  2  1  1  0  0  0  0
  2  3  1  0  0  0  0
  3  6  1  0  0  0  0
  3  7  1  0  0  0  0
  8 12  1  0  0  0  0
  8 13  1  1  0  0  0
  8  9  1  0  0  0  0
  9 14  1  6  0  0  0
  9  2  1  0  0  0  0
  9 10  1  0  0  0  0
 11 16  1  0  0  0  0
 11 15  1  0  0  0  0
 11 10  1  0  0  0  0
 12 17  1  6  0  0  0
 12 11  1  0  0  0  0
 18  8  1  0  0  0  0
 19 18  1  0  0  0  0
 20 12  1  0  0  0  0
 21 20  1  0  0  0  0
 22 23  1  0  0  0  0
 22 21  1  0  0  0  0
 23 21  1  0  0  0  0
 24  1  1  0  0  0  0
 24 25  1  0  0  0  0
 25 30  1  0  0  0  0
 26 25  2  0  0  0  0
 26 31  1  0  0  0  0
 27 26  1  0  0  0  0
 28 29  1  0  0  0  0
 28 27  2  0  0  0  0
 29 24  2  0  0  0  0
 32 28  1  0  0  0  0
M  END
>  <minimizedAffinity>
-4.5800724

>  <minimizedRMSD>
0.21053271

$$$$
