
 OpenBabel03272508423D

 14 15  0  0  0  0  0  0  0  0999 V2000
   37.9360   30.4360   50.9450 C   0  0  0  0  0  0  0  0  0  0  0  0
   38.2770   31.3770   49.9450 C   0  0  0  0  0  0  0  0  0  0  0  0
   37.3420   31.6230   48.9390 C   0  0  0  0  0  0  0  0  0  0  0  0
   36.1750   30.9480   48.9850 N   0  0  0  0  0  0  0  0  0  0  0  0
   35.8760   30.0580   49.9490 C   0  0  0  0  0  0  0  0  0  0  0  0
   36.7450   29.8000   50.9220 N   0  0  0  0  0  0  0  0  0  0  0  0
   38.6650   30.2490   51.7220 H   0  0  0  0  0  0  0  0  0  0  0  0
   39.2200   31.9050   49.9290 H   0  0  0  0  0  0  0  0  0  0  0  0
   37.5610   32.3350   48.1540 H   0  0  0  0  0  0  0  0  0  0  0  0
   34.6090   29.3420   49.9760 C   0  0  0  0  0  0  0  0  0  0  0  0
   33.6380   29.6780   50.6880 O   0  0  0  0  0  0  0  0  0  0  0  0
   34.3440   28.1280   49.1500 C   0  0  0  0  0  3  0  0  0  0  0  0
   34.1170   28.2610   47.6920 C   0  0  0  0  0  2  0  0  0  0  0  0
   32.9720   27.8550   48.6420 C   0  0  0  0  0  2  0  0  0  0  0  0
  1  7  1  0  0  0  0
  2  1  2  0  0  0  0
  3  4  2  0  0  0  0
  3  2  1  0  0  0  0
  4  5  1  0  0  0  0
  5 10  1  0  0  0  0
  5  6  2  0  0  0  0
  6  1  1  0  0  0  0
  8  2  1  0  0  0  0
  9  3  1  0  0  0  0
 10 11  2  0  0  0  0
 12 10  1  0  0  0  0
 13 14  1  0  0  0  0
 13 12  1  0  0  0  0
 14 12  1  0  0  0  0
M  END
>  <minimizedAffinity>
-3.94205093

>  <minimizedRMSD>
1.39648819

$$$$
