
 OpenBabel03272506153D

 22 24  0  0  0  0  0  0  0  0999 V2000
   40.2850   32.8370   45.9150 C   0  0  0  0  0  0  0  0  0  0  0  0
   40.1050   33.2700   44.5880 C   0  0  0  0  0  0  0  0  0  0  0  0
   38.8710   32.9870   43.9570 C   0  0  0  0  0  0  0  0  0  0  0  0
   37.9370   32.3150   44.6790 N   0  0  0  0  0  0  0  0  0  0  0  0
   38.1610   31.9200   45.9570 C   0  0  0  0  0  0  0  0  0  0  0  0
   39.3210   32.1760   46.5730 N   0  0  0  0  0  0  0  0  0  0  0  0
   37.1760   31.2170   46.7020 N   0  0  0  0  0  0  0  0  0  0  0  0
   36.2360   30.5150   46.0530 C   0  0  0  0  0  0  0  0  0  0  0  0
   35.3250   29.8680   46.8620 C   0  0  0  0  0  0  0  0  0  0  0  0
   35.3410   29.9110   48.2440 C   0  0  0  0  0  0  0  0  0  0  0  0
   34.4950   29.3080   48.9480 O   0  0  0  0  0  0  0  0  0  0  0  0
   36.3160   30.6390   48.8610 N   0  0  0  0  0  0  0  0  0  0  0  0
   37.2030   31.2690   48.0540 C   0  0  0  0  0  0  0  0  0  0  0  0
   38.1320   31.9600   48.5860 O   0  0  0  0  0  0  0  0  0  0  0  0
   41.2480   33.0820   46.3380 H   0  0  0  0  0  0  0  0  0  0  0  0
   40.8550   33.8060   44.0180 H   0  0  0  0  0  0  0  0  0  0  0  0
   38.6780   33.2970   42.9370 H   0  0  0  0  0  0  0  0  0  0  0  0
   36.1990   30.4620   44.9710 H   0  0  0  0  0  0  0  0  0  0  0  0
   34.5340   29.2790   46.4190 H   0  0  0  0  0  0  0  0  0  0  0  0
   36.4330   30.7570   50.2850 C   0  0  0  0  0  0  0  0  0  0  0  0
   37.6830   30.3700   51.0080 C   0  0  0  0  0  0  0  0  0  0  0  0
   36.3780   29.5630   51.1680 C   0  0  0  0  0  0  0  0  0  0  0  0
  1 15  1  0  0  0  0
  1  6  1  0  0  0  0
  2  1  2  0  0  0  0
  3  2  1  0  0  0  0
  3  4  2  0  0  0  0
  4  5  1  0  0  0  0
  5  6  2  0  0  0  0
  5  7  1  0  0  0  0
  7 13  1  0  0  0  0
  8  7  1  0  0  0  0
  8  9  2  0  0  0  0
  9 10  1  0  0  0  0
 10 12  1  0  0  0  0
 10 11  2  0  0  0  0
 12 20  1  0  0  0  0
 13 14  2  0  0  0  0
 13 12  1  0  0  0  0
 16  2  1  0  0  0  0
 17  3  1  0  0  0  0
 18  8  1  0  0  0  0
 19  9  1  0  0  0  0
 20 21  1  0  0  0  0
 20 22  1  0  0  0  0
 21 22  1  0  0  0  0
M  END
>  <minimizedAffinity>
-5.71446371

>  <minimizedRMSD>
4.43626308

$$$$
