
 OpenBabel03272510113D

 22 24  0  0  0  0  0  0  0  0999 V2000
   37.0410   27.4380   34.1860 C   0  0  0  0  0  0  0  0  0  0  0  0
   37.7070   27.6600   35.3500 C   0  0  0  0  0  0  0  0  0  0  0  0
   38.4720   26.7070   35.9940 C   0  0  0  0  0  0  0  0  0  0  0  0
   38.5910   25.4390   35.4560 C   0  0  0  0  0  0  0  0  0  0  0  0
   37.9040   25.2470   34.2810 C   0  0  0  0  0  0  0  0  0  0  0  0
   37.1650   26.1870   33.6680 N   0  0  0  0  0  0  0  0  0  0  0  0
   37.6260   28.6530   35.7880 H   0  0  0  0  0  0  0  0  0  0  0  0
   38.9950   26.9070   36.9220 H   0  0  0  0  0  0  0  0  0  0  0  0
   37.8740   24.3280   33.7110 H   0  0  0  0  0  0  0  0  0  0  0  0
   36.2280   28.6380   32.1280 C   0  0  0  0  0  0  0  0  0  0  0  0
   36.2320   28.4420   33.5060 C   0  0  0  0  0  0  0  0  0  0  0  0
   35.4180   29.2540   34.2650 C   0  0  0  0  0  0  0  0  0  0  0  0
   34.6550   30.2020   33.6470 N   0  0  0  0  0  0  0  0  0  0  0  0
   34.6900   30.3490   32.3000 C   0  0  0  0  0  0  0  0  0  0  0  0
   35.4800   29.5660   31.5210 N   0  0  0  0  0  0  0  0  0  0  0  0
   36.8960   27.9600   31.6000 H   0  0  0  0  0  0  0  0  0  0  0  0
   35.4070   29.1180   35.3370 H   0  0  0  0  0  0  0  0  0  0  0  0
   34.1050   31.0840   31.7620 H   0  0  0  0  0  0  0  0  0  0  0  0
   39.3190   24.4030   35.9970 O   0  0  0  0  0  0  0  0  0  0  0  0
   38.8660   23.3460   36.7730 C   0  0  0  0  0  3  0  0  0  0  0  0
   39.8610   22.8210   37.8590 C   0  0  0  0  0  2  0  0  0  0  0  0
   38.5470   23.5040   38.2130 C   0  0  0  0  0  2  0  0  0  0  0  0
  1  2  1  0  0  0  0
  2  7  1  0  0  0  0
  2  3  2  0  0  0  0
  3  8  1  0  0  0  0
  4  3  1  0  0  0  0
  4 19  1  0  0  0  0
  5  4  2  0  0  0  0
  6  1  2  0  0  0  0
  6  5  1  0  0  0  0
  9  5  1  0  0  0  0
 10 11  1  0  0  0  0
 11  1  1  0  0  0  0
 11 12  2  0  0  0  0
 12 17  1  0  0  0  0
 13 12  1  0  0  0  0
 14 13  2  0  0  0  0
 15 10  2  0  0  0  0
 15 14  1  0  0  0  0
 16 10  1  0  0  0  0
 18 14  1  0  0  0  0
 19 20  1  0  0  0  0
 20 21  1  0  0  0  0
 20 22  1  0  0  0  0
 21 22  1  0  0  0  0
M  END
>  <minimizedAffinity>
-4.5483489

$$$$

 OpenBabel03272510113D

 22 24  0  0  0  0  0  0  0  0999 V2000
   37.1210   27.3010   34.2120 C   0  0  0  0  0  0  0  0  0  0  0  0
   37.7710   27.5220   35.3850 C   0  0  0  0  0  0  0  0  0  0  0  0
   38.5530   26.5780   36.0230 C   0  0  0  0  0  0  0  0  0  0  0  0
   38.7060   25.3210   35.4690 C   0  0  0  0  0  0  0  0  0  0  0  0
   38.0350   25.1300   34.2840 C   0  0  0  0  0  0  0  0  0  0  0  0
   37.2800   26.0610   33.6780 N   0  0  0  0  0  0  0  0  0  0  0  0
   37.6630   28.5070   35.8360 H   0  0  0  0  0  0  0  0  0  0  0  0
   39.0630   26.7780   36.9580 H   0  0  0  0  0  0  0  0  0  0  0  0
   38.0310   24.2180   33.7020 H   0  0  0  0  0  0  0  0  0  0  0  0
   35.4580   29.1910   34.2000 C   0  0  0  0  0  0  0  0  0  0  0  0
   36.2950   28.2960   33.5390 C   0  0  0  0  0  0  0  0  0  0  0  0
   36.3350   28.3610   32.1640 C   0  0  0  0  0  0  0  0  0  0  0  0
   35.5670   29.2850   31.5160 N   0  0  0  0  0  0  0  0  0  0  0  0
   34.7700   30.1330   32.2100 C   0  0  0  0  0  0  0  0  0  0  0  0
   34.7060   30.0970   33.5650 N   0  0  0  0  0  0  0  0  0  0  0  0
   35.4820   29.0750   35.2820 H   0  0  0  0  0  0  0  0  0  0  0  0
   36.9780   27.6750   31.6320 H   0  0  0  0  0  0  0  0  0  0  0  0
   34.1440   30.8830   31.7440 H   0  0  0  0  0  0  0  0  0  0  0  0
   39.4530   24.2950   36.0030 O   0  0  0  0  0  0  0  0  0  0  0  0
   39.0260   23.2440   36.8000 C   0  0  0  0  0  3  0  0  0  0  0  0
   40.0980   22.6420   37.7670 C   0  0  0  0  0  2  0  0  0  0  0  0
   38.8650   23.3830   38.2680 C   0  0  0  0  0  2  0  0  0  0  0  0
  1  2  1  0  0  0  0
  2  7  1  0  0  0  0
  2  3  2  0  0  0  0
  3  8  1  0  0  0  0
  4 19  1  0  0  0  0
  4  3  1  0  0  0  0
  5  4  2  0  0  0  0
  6  1  2  0  0  0  0
  6  5  1  0  0  0  0
  9  5  1  0  0  0  0
 10 16  1  0  0  0  0
 11 10  2  0  0  0  0
 11  1  1  0  0  0  0
 12 11  1  0  0  0  0
 13 12  2  0  0  0  0
 13 14  1  0  0  0  0
 14 15  2  0  0  0  0
 15 10  1  0  0  0  0
 17 12  1  0  0  0  0
 18 14  1  0  0  0  0
 19 20  1  0  0  0  0
 20 21  1  0  0  0  0
 20 22  1  0  0  0  0
 21 22  1  0  0  0  0
M  END
>  <minimizedAffinity>
-4.54104757

$$$$

 OpenBabel03272510113D

 22 24  0  0  0  0  0  0  0  0999 V2000
   38.2280   25.4490   35.3030 C   0  0  0  0  0  0  0  0  0  0  0  0
   37.9970   26.7270   35.7050 C   0  0  0  0  0  0  0  0  0  0  0  0
   37.3540   27.6740   34.9310 C   0  0  0  0  0  0  0  0  0  0  0  0
   36.9050   27.3420   33.6660 C   0  0  0  0  0  0  0  0  0  0  0  0
   37.1560   26.0430   33.2900 C   0  0  0  0  0  0  0  0  0  0  0  0
   37.7830   25.1360   34.0570 N   0  0  0  0  0  0  0  0  0  0  0  0
   38.3420   27.0070   36.6980 H   0  0  0  0  0  0  0  0  0  0  0  0
   37.1790   28.6870   35.2720 H   0  0  0  0  0  0  0  0  0  0  0  0
   36.8840   25.5970   32.3420 H   0  0  0  0  0  0  0  0  0  0  0  0
   38.4540   24.0170   37.3610 C   0  0  0  0  0  0  0  0  0  0  0  0
   38.9090   24.4500   36.1180 C   0  0  0  0  0  0  0  0  0  0  0  0
   40.0750   23.8950   35.6390 C   0  0  0  0  0  0  0  0  0  0  0  0
   40.7270   22.9600   36.3890 N   0  0  0  0  0  0  0  0  0  0  0  0
   40.2390   22.5740   37.5940 C   0  0  0  0  0  0  0  0  0  0  0  0
   39.0920   23.0990   38.0950 N   0  0  0  0  0  0  0  0  0  0  0  0
   37.5290   24.5030   37.6680 H   0  0  0  0  0  0  0  0  0  0  0  0
   40.4440   24.2180   34.6770 H   0  0  0  0  0  0  0  0  0  0  0  0
   40.7170   21.8360   38.2250 H   0  0  0  0  0  0  0  0  0  0  0  0
   36.2530   28.1890   32.7980 O   0  0  0  0  0  0  0  0  0  0  0  0
   36.3220   28.2220   31.4130 C   0  0  0  0  0  3  0  0  0  0  0  0
   36.2100   29.6370   30.7580 C   0  0  0  0  0  2  0  0  0  0  0  0
   37.4820   28.8030   30.6940 C   0  0  0  0  0  2  0  0  0  0  0  0
  1  2  1  0  0  0  0
  1 11  1  0  0  0  0
  2  7  1  0  0  0  0
  3  8  1  0  0  0  0
  3  2  2  0  0  0  0
  4  3  1  0  0  0  0
  5  4  2  0  0  0  0
  5  6  1  0  0  0  0
  6  1  2  0  0  0  0
  9  5  1  0  0  0  0
 10 16  1  0  0  0  0
 10 15  1  0  0  0  0
 11 10  2  0  0  0  0
 12 11  1  0  0  0  0
 12 13  2  0  0  0  0
 13 14  1  0  0  0  0
 14 15  2  0  0  0  0
 14 18  1  0  0  0  0
 17 12  1  0  0  0  0
 19  4  1  0  0  0  0
 20 19  1  0  0  0  0
 21 20  1  0  0  0  0
 22 21  1  0  0  0  0
 22 20  1  0  0  0  0
M  END
>  <minimizedAffinity>
-4.3422513

$$$$

 OpenBabel03272510113D

 22 24  0  0  0  0  0  0  0  0999 V2000
   38.3330   25.4380   35.3410 C   0  0  0  0  0  0  0  0  0  0  0  0
   38.1270   26.7040   35.7920 C   0  0  0  0  0  0  0  0  0  0  0  0
   37.4560   27.6780   35.0780 C   0  0  0  0  0  0  0  0  0  0  0  0
   36.9490   27.3870   33.8240 C   0  0  0  0  0  0  0  0  0  0  0  0
   37.1750   26.1000   33.3970 C   0  0  0  0  0  0  0  0  0  0  0  0
   37.8300   25.1660   34.1070 N   0  0  0  0  0  0  0  0  0  0  0  0
   38.5180   26.9510   36.7770 H   0  0  0  0  0  0  0  0  0  0  0  0
   37.3030   28.6810   35.4580 H   0  0  0  0  0  0  0  0  0  0  0  0
   36.8590   25.6850   32.4500 H   0  0  0  0  0  0  0  0  0  0  0  0
   40.2240   23.8090   35.6670 C   0  0  0  0  0  0  0  0  0  0  0  0
   39.0430   24.4110   36.0930 C   0  0  0  0  0  0  0  0  0  0  0  0
   38.5200   24.0020   37.3000 C   0  0  0  0  0  0  0  0  0  0  0  0
   39.1700   23.0400   38.0170 N   0  0  0  0  0  0  0  0  0  0  0  0
   40.3180   22.4870   37.5560 C   0  0  0  0  0  0  0  0  0  0  0  0
   40.8620   22.8670   36.3710 N   0  0  0  0  0  0  0  0  0  0  0  0
   40.5710   24.1860   34.7070 H   0  0  0  0  0  0  0  0  0  0  0  0
   37.6040   24.4560   37.6480 H   0  0  0  0  0  0  0  0  0  0  0  0
   40.8710   21.7220   38.0870 H   0  0  0  0  0  0  0  0  0  0  0  0
   36.2640   28.2640   33.0140 O   0  0  0  0  0  0  0  0  0  0  0  0
   36.1970   28.2820   31.6280 C   0  0  0  0  0  3  0  0  0  0  0  0
   36.0390   29.6920   30.9700 C   0  0  0  0  0  2  0  0  0  0  0  0
   37.2890   28.8400   30.7930 C   0  0  0  0  0  2  0  0  0  0  0  0
  1  2  1  0  0  0  0
  1 11  1  0  0  0  0
  2  7  1  0  0  0  0
  3  8  1  0  0  0  0
  3  2  2  0  0  0  0
  4  3  1  0  0  0  0
  5  4  2  0  0  0  0
  5  6  1  0  0  0  0
  6  1  2  0  0  0  0
  9  5  1  0  0  0  0
 10 11  2  0  0  0  0
 10 15  1  0  0  0  0
 11 12  1  0  0  0  0
 12 17  1  0  0  0  0
 12 13  2  0  0  0  0
 14 13  1  0  0  0  0
 14 18  1  0  0  0  0
 15 14  2  0  0  0  0
 16 10  1  0  0  0  0
 19  4  1  0  0  0  0
 20 19  1  0  0  0  0
 21 20  1  0  0  0  0
 22 21  1  0  0  0  0
 22 20  1  0  0  0  0
M  END
>  <minimizedAffinity>
-4.32795048

$$$$

 OpenBabel03272510113D

 22 24  0  0  0  0  0  0  0  0999 V2000
   36.2090   26.3400   31.2810 C   0  0  0  0  0  0  0  0  0  0  0  0
   35.1660   25.5480   30.9170 C   0  0  0  0  0  0  0  0  0  0  0  0
   35.1120   24.1870   31.1520 C   0  0  0  0  0  0  0  0  0  0  0  0
   36.1630   23.5560   31.7910 C   0  0  0  0  0  0  0  0  0  0  0  0
   37.2020   24.3850   32.1450 C   0  0  0  0  0  0  0  0  0  0  0  0
   37.2360   25.7070   31.9090 N   0  0  0  0  0  0  0  0  0  0  0  0
   34.3290   26.0270   30.4130 H   0  0  0  0  0  0  0  0  0  0  0  0
   34.2690   23.5760   30.8520 H   0  0  0  0  0  0  0  0  0  0  0  0
   38.1090   24.0790   32.6500 H   0  0  0  0  0  0  0  0  0  0  0  0
   36.9290   28.3530   29.9520 C   0  0  0  0  0  0  0  0  0  0  0  0
   36.2670   27.7750   31.0330 C   0  0  0  0  0  0  0  0  0  0  0  0
   35.6340   28.6210   31.9160 C   0  0  0  0  0  0  0  0  0  0  0  0
   35.6790   29.9680   31.7010 N   0  0  0  0  0  0  0  0  0  0  0  0
   36.3380   30.4770   30.6310 C   0  0  0  0  0  0  0  0  0  0  0  0
   36.9720   29.6730   29.7400 N   0  0  0  0  0  0  0  0  0  0  0  0
   37.4030   27.6200   29.3030 H   0  0  0  0  0  0  0  0  0  0  0  0
   35.1150   28.1920   32.7610 H   0  0  0  0  0  0  0  0  0  0  0  0
   36.4020   31.5360   30.4160 H   0  0  0  0  0  0  0  0  0  0  0  0
   36.2330   22.2120   32.0830 O   0  0  0  0  0  0  0  0  0  0  0  0
   35.2400   21.3900   32.5950 C   0  0  0  0  0  3  0  0  0  0  0  0
   35.0870   19.9950   31.9060 C   0  0  0  0  0  2  0  0  0  0  0  0
   35.5530   20.1500   33.3470 C   0  0  0  0  0  2  0  0  0  0  0  0
  1  6  1  0  0  0  0
  2  3  1  0  0  0  0
  2  1  2  0  0  0  0
  3  4  2  0  0  0  0
  4 19  1  0  0  0  0
  4  5  1  0  0  0  0
  5  9  1  0  0  0  0
  6  5  2  0  0  0  0
  7  2  1  0  0  0  0
  8  3  1  0  0  0  0
 10 11  1  0  0  0  0
 11  1  1  0  0  0  0
 11 12  2  0  0  0  0
 12 17  1  0  0  0  0
 13 12  1  0  0  0  0
 14 13  2  0  0  0  0
 15 10  2  0  0  0  0
 15 14  1  0  0  0  0
 16 10  1  0  0  0  0
 18 14  1  0  0  0  0
 19 20  1  0  0  0  0
 20 22  1  0  0  0  0
 21 20  1  0  0  0  0
 21 22  1  0  0  0  0
M  END
>  <minimizedAffinity>
-4.2673955

$$$$

 OpenBabel03272510113D

 22 24  0  0  0  0  0  0  0  0999 V2000
   37.5930   25.6510   34.3230 C   0  0  0  0  0  0  0  0  0  0  0  0
   37.7630   25.8930   35.6500 C   0  0  0  0  0  0  0  0  0  0  0  0
   38.2840   24.9750   36.5420 C   0  0  0  0  0  0  0  0  0  0  0  0
   38.6650   23.7230   36.0970 C   0  0  0  0  0  0  0  0  0  0  0  0
   38.4800   23.5090   34.7520 C   0  0  0  0  0  0  0  0  0  0  0  0
   37.9720   24.4150   33.8990 N   0  0  0  0  0  0  0  0  0  0  0  0
   37.4690   26.8740   36.0190 H   0  0  0  0  0  0  0  0  0  0  0  0
   38.4110   25.1910   37.5960 H   0  0  0  0  0  0  0  0  0  0  0  0
   38.7160   22.5970   34.2190 H   0  0  0  0  0  0  0  0  0  0  0  0
   36.6900   27.9220   33.7220 C   0  0  0  0  0  0  0  0  0  0  0  0
   37.0420   26.6180   33.3830 C   0  0  0  0  0  0  0  0  0  0  0  0
   36.8530   26.2290   32.0750 C   0  0  0  0  0  0  0  0  0  0  0  0
   36.3360   27.1200   31.1810 N   0  0  0  0  0  0  0  0  0  0  0  0
   36.0100   28.3790   31.5650 C   0  0  0  0  0  0  0  0  0  0  0  0
   36.1840   28.7960   32.8450 N   0  0  0  0  0  0  0  0  0  0  0  0
   36.8680   28.1510   34.7710 H   0  0  0  0  0  0  0  0  0  0  0  0
   37.1210   25.2210   31.7920 H   0  0  0  0  0  0  0  0  0  0  0  0
   35.5990   29.1220   30.8940 H   0  0  0  0  0  0  0  0  0  0  0  0
   39.1950   22.7210   36.8800 O   0  0  0  0  0  0  0  0  0  0  0  0
   40.4320   22.6830   37.5070 C   0  0  0  0  0  3  0  0  0  0  0  0
   41.3480   21.4710   37.1350 C   0  0  0  0  0  2  0  0  0  0  0  0
   41.6990   22.9060   36.7660 C   0  0  0  0  0  2  0  0  0  0  0  0
  1  2  1  0  0  0  0
  2  7  1  0  0  0  0
  2  3  2  0  0  0  0
  3  8  1  0  0  0  0
  4  3  1  0  0  0  0
  4 19  1  0  0  0  0
  5  4  2  0  0  0  0
  6  1  2  0  0  0  0
  6  5  1  0  0  0  0
  9  5  1  0  0  0  0
 10 16  1  0  0  0  0
 11 10  1  0  0  0  0
 11  1  1  0  0  0  0
 12 11  2  0  0  0  0
 13 14  2  0  0  0  0
 13 12  1  0  0  0  0
 14 15  1  0  0  0  0
 15 10  2  0  0  0  0
 17 12  1  0  0  0  0
 18 14  1  0  0  0  0
 19 20  1  0  0  0  0
 21 20  1  0  0  0  0
 22 21  1  0  0  0  0
 22 20  1  0  0  0  0
M  END
>  <minimizedAffinity>
-4.22753334

$$$$

 OpenBabel03272510113D

 22 24  0  0  0  0  0  0  0  0999 V2000
   36.1710   22.7330   31.9390 C   0  0  0  0  0  0  0  0  0  0  0  0
   35.3680   23.5710   31.2300 C   0  0  0  0  0  0  0  0  0  0  0  0
   35.5140   24.9450   31.2100 C   0  0  0  0  0  0  0  0  0  0  0  0
   36.5230   25.5420   31.9420 C   0  0  0  0  0  0  0  0  0  0  0  0
   37.3160   24.6670   32.6480 C   0  0  0  0  0  0  0  0  0  0  0  0
   37.1590   23.3330   32.6550 N   0  0  0  0  0  0  0  0  0  0  0  0
   34.5680   23.1190   30.6470 H   0  0  0  0  0  0  0  0  0  0  0  0
   34.8620   25.5930   30.6370 H   0  0  0  0  0  0  0  0  0  0  0  0
   38.1530   24.9410   33.2760 H   0  0  0  0  0  0  0  0  0  0  0  0
   36.2230   20.4600   30.8590 C   0  0  0  0  0  0  0  0  0  0  0  0
   36.0160   21.2840   31.9620 C   0  0  0  0  0  0  0  0  0  0  0  0
   35.6410   20.6830   33.1430 C   0  0  0  0  0  0  0  0  0  0  0  0
   35.4890   19.3270   33.1840 N   0  0  0  0  0  0  0  0  0  0  0  0
   35.7040   18.5720   32.0790 C   0  0  0  0  0  0  0  0  0  0  0  0
   36.0760   19.1310   30.8990 N   0  0  0  0  0  0  0  0  0  0  0  0
   36.5160   21.0100   29.9670 H   0  0  0  0  0  0  0  0  0  0  0  0
   35.4750   21.3050   34.0110 H   0  0  0  0  0  0  0  0  0  0  0  0
   35.5980   17.4940   32.0600 H   0  0  0  0  0  0  0  0  0  0  0  0
   36.7750   26.8940   32.0070 O   0  0  0  0  0  0  0  0  0  0  0  0
   35.8640   27.9340   32.1290 C   0  0  0  0  0  3  0  0  0  0  0  0
   36.0050   28.8170   33.4110 C   0  0  0  0  0  2  0  0  0  0  0  0
   36.2720   29.3560   32.0120 C   0  0  0  0  0  2  0  0  0  0  0  0
  1 11  1  0  0  0  0
  1  6  1  0  0  0  0
  2  1  2  0  0  0  0
  3  2  1  0  0  0  0
  3  4  2  0  0  0  0
  4 19  1  0  0  0  0
  4  5  1  0  0  0  0
  5  6  2  0  0  0  0
  5  9  1  0  0  0  0
  7  2  1  0  0  0  0
  8  3  1  0  0  0  0
 10 15  2  0  0  0  0
 10 11  1  0  0  0  0
 11 12  2  0  0  0  0
 12 13  1  0  0  0  0
 12 17  1  0  0  0  0
 14 13  2  0  0  0  0
 15 14  1  0  0  0  0
 16 10  1  0  0  0  0
 18 14  1  0  0  0  0
 19 20  1  0  0  0  0
 20 21  1  0  0  0  0
 22 20  1  0  0  0  0
 22 21  1  0  0  0  0
M  END
>  <minimizedAffinity>
-4.20859146

$$$$

 OpenBabel03272510113D

 22 24  0  0  0  0  0  0  0  0999 V2000
   36.6260   26.8980   32.6130 C   0  0  0  0  0  0  0  0  0  0  0  0
   37.0540   27.1580   33.8770 C   0  0  0  0  0  0  0  0  0  0  0  0
   36.6860   28.2770   34.6010 C   0  0  0  0  0  0  0  0  0  0  0  0
   35.8340   29.2110   34.0400 C   0  0  0  0  0  0  0  0  0  0  0  0
   35.4220   28.9180   32.7620 C   0  0  0  0  0  0  0  0  0  0  0  0
   35.7900   27.8250   32.0740 N   0  0  0  0  0  0  0  0  0  0  0  0
   37.7240   26.4340   34.3360 H   0  0  0  0  0  0  0  0  0  0  0  0
   37.0390   28.4630   35.6080 H   0  0  0  0  0  0  0  0  0  0  0  0
   34.7580   29.5240   32.1590 H   0  0  0  0  0  0  0  0  0  0  0  0
   36.2200   24.5860   31.7050 C   0  0  0  0  0  0  0  0  0  0  0  0
   37.0150   25.7200   31.8490 C   0  0  0  0  0  0  0  0  0  0  0  0
   38.2450   25.7160   31.2280 C   0  0  0  0  0  0  0  0  0  0  0  0
   38.6280   24.6210   30.5100 N   0  0  0  0  0  0  0  0  0  0  0  0
   37.8130   23.5430   30.4010 C   0  0  0  0  0  0  0  0  0  0  0  0
   36.5940   23.5130   30.9990 N   0  0  0  0  0  0  0  0  0  0  0  0
   35.2670   24.6670   32.2240 H   0  0  0  0  0  0  0  0  0  0  0  0
   38.8770   26.5860   31.3280 H   0  0  0  0  0  0  0  0  0  0  0  0
   38.0690   22.6510   29.8430 H   0  0  0  0  0  0  0  0  0  0  0  0
   35.3930   30.3630   34.6530 O   0  0  0  0  0  0  0  0  0  0  0  0
   35.9430   31.0230   35.7420 C   0  0  0  0  0  3  0  0  0  0  0  0
   36.1560   32.5630   35.5700 C   0  0  0  0  0  2  0  0  0  0  0  0
   35.1590   31.9780   36.5620 C   0  0  0  0  0  2  0  0  0  0  0  0
  1  2  1  0  0  0  0
  2  7  1  0  0  0  0
  2  3  2  0  0  0  0
  3  8  1  0  0  0  0
  4  3  1  0  0  0  0
  4 19  1  0  0  0  0
  5  4  2  0  0  0  0
  6  1  2  0  0  0  0
  6  5  1  0  0  0  0
  9  5  1  0  0  0  0
 10 11  1  0  0  0  0
 10 16  1  0  0  0  0
 11  1  1  0  0  0  0
 12 17  1  0  0  0  0
 12 11  2  0  0  0  0
 13 12  1  0  0  0  0
 14 13  2  0  0  0  0
 14 15  1  0  0  0  0
 15 10  2  0  0  0  0
 18 14  1  0  0  0  0
 19 20  1  0  0  0  0
 20 22  1  0  0  0  0
 21 20  1  0  0  0  0
 21 22  1  0  0  0  0
M  END
>  <minimizedAffinity>
-4.11756992

$$$$

 OpenBabel03272510113D

 22 24  0  0  0  0  0  0  0  0999 V2000
   35.7510   29.1310   34.0610 C   0  0  0  0  0  0  0  0  0  0  0  0
   36.5540   28.1690   34.5880 C   0  0  0  0  0  0  0  0  0  0  0  0
   37.0710   27.1140   33.8610 C   0  0  0  0  0  0  0  0  0  0  0  0
   36.7760   26.9930   32.5160 C   0  0  0  0  0  0  0  0  0  0  0  0
   35.9620   27.9810   32.0150 C   0  0  0  0  0  0  0  0  0  0  0  0
   35.4680   29.0010   32.7370 N   0  0  0  0  0  0  0  0  0  0  0  0
   36.7970   28.2480   35.6450 H   0  0  0  0  0  0  0  0  0  0  0  0
   37.7100   26.3590   34.3020 H   0  0  0  0  0  0  0  0  0  0  0  0
   35.6210   28.0590   30.9910 H   0  0  0  0  0  0  0  0  0  0  0  0
   33.8650   30.6280   34.7970 C   0  0  0  0  0  0  0  0  0  0  0  0
   35.2030   30.2440   34.8270 C   0  0  0  0  0  0  0  0  0  0  0  0
   36.0530   30.9680   35.6330 C   0  0  0  0  0  0  0  0  0  0  0  0
   35.5590   32.0140   36.3570 N   0  0  0  0  0  0  0  0  0  0  0  0
   34.2460   32.3450   36.2900 C   0  0  0  0  0  0  0  0  0  0  0  0
   33.3800   31.6530   35.5070 N   0  0  0  0  0  0  0  0  0  0  0  0
   33.2600   30.0080   34.1370 H   0  0  0  0  0  0  0  0  0  0  0  0
   37.0950   30.6860   35.6710 H   0  0  0  0  0  0  0  0  0  0  0  0
   33.8050   33.1640   36.8440 H   0  0  0  0  0  0  0  0  0  0  0  0
   37.2260   25.9930   31.6830 O   0  0  0  0  0  0  0  0  0  0  0  0
   36.4800   25.1330   30.8900 C   0  0  0  0  0  3  0  0  0  0  0  0
   36.6900   23.6060   31.1570 C   0  0  0  0  0  2  0  0  0  0  0  0
   35.3720   24.3150   31.4410 C   0  0  0  0  0  2  0  0  0  0  0  0
  1  2  1  0  0  0  0
  1 11  1  0  0  0  0
  2  7  1  0  0  0  0
  3  8  1  0  0  0  0
  3  2  2  0  0  0  0
  4  3  1  0  0  0  0
  5  4  2  0  0  0  0
  5  6  1  0  0  0  0
  6  1  2  0  0  0  0
  9  5  1  0  0  0  0
 10 11  2  0  0  0  0
 10 15  1  0  0  0  0
 11 12  1  0  0  0  0
 12 17  1  0  0  0  0
 12 13  2  0  0  0  0
 14 13  1  0  0  0  0
 14 18  1  0  0  0  0
 15 14  2  0  0  0  0
 16 10  1  0  0  0  0
 19  4  1  0  0  0  0
 20 21  1  0  0  0  0
 20 22  1  0  0  0  0
 20 19  1  0  0  0  0
 21 22  1  0  0  0  0
M  END
>  <minimizedAffinity>
-4.01138496

$$$$
