
 OpenBabel03272508423D

 14 15  0  0  0  0  0  0  0  0999 V2000
   37.6870   30.3050   51.1200 C   0  0  0  0  0  0  0  0  0  0  0  0
   38.2570   31.1500   50.1380 C   0  0  0  0  0  0  0  0  0  0  0  0
   37.4860   31.4510   49.0150 C   0  0  0  0  0  0  0  0  0  0  0  0
   36.2480   30.9180   48.9390 N   0  0  0  0  0  0  0  0  0  0  0  0
   35.7310   30.1170   49.8890 C   0  0  0  0  0  0  0  0  0  0  0  0
   36.4400   29.8100   50.9710 N   0  0  0  0  0  0  0  0  0  0  0  0
   38.2910   30.0750   51.9880 H   0  0  0  0  0  0  0  0  0  0  0  0
   39.2520   31.5640   50.2210 H   0  0  0  0  0  0  0  0  0  0  0  0
   37.8810   32.0930   48.2380 H   0  0  0  0  0  0  0  0  0  0  0  0
   34.3930   29.5550   49.7830 C   0  0  0  0  0  0  0  0  0  0  0  0
   33.5510   29.5890   50.7070 O   0  0  0  0  0  0  0  0  0  0  0  0
   33.8930   28.8770   48.5520 C   0  0  0  0  0  3  0  0  0  0  0  0
   32.7610   27.9220   48.6430 C   0  0  0  0  0  2  0  0  0  0  0  0
   34.1890   27.4360   48.3200 C   0  0  0  0  0  2  0  0  0  0  0  0
  1  7  1  0  0  0  0
  2  8  1  0  0  0  0
  2  1  2  0  0  0  0
  3  2  1  0  0  0  0
  4  3  2  0  0  0  0
  4  5  1  0  0  0  0
  5  6  2  0  0  0  0
  6  1  1  0  0  0  0
  9  3  1  0  0  0  0
 10  5  1  0  0  0  0
 10 11  2  0  0  0  0
 12 13  1  0  0  0  0
 12 10  1  0  0  0  0
 14 12  1  0  0  0  0
 14 13  1  0  0  0  0
M  END
>  <minimizedAffinity>
-3.8611877

>  <minimizedRMSD>
1.62406588

$$$$
