
 OpenBabel03272504573D

 27 29  0  0  1  0  0  0  0  0999 V2000
   37.0160   31.5360   48.6480 C   0  0  1  0  0  0  0  0  0  0  0  0
   36.2740   30.8590   47.6140 C   0  0  0  0  0  0  0  0  0  0  0  0
   37.2330   30.1010   48.4700 C   0  0  2  0  0  0  0  0  0  0  0  0
   36.5460   31.8120   49.6550 H   0  0  0  0  0  0  0  0  0  0  0  0
   35.2350   31.0940   47.7460 H   0  0  0  0  0  0  0  0  0  0  0  0
   36.5980   31.0440   46.5680 H   0  0  0  0  0  0  0  0  0  0  0  0
   37.9620   29.5990   47.8600 H   0  0  0  0  0  0  0  0  0  0  0  0
   38.1610   32.4470   48.3070 C   0  0  0  0  0  0  0  0  0  0  0  0
   38.5160   33.3860   49.3020 C   0  0  0  0  0  0  0  0  0  0  0  0
   39.5730   34.1980   48.9680 C   0  0  0  0  0  0  0  0  0  0  0  0
   40.1940   34.0690   47.7640 N   0  0  0  0  0  0  0  0  0  0  0  0
   39.8190   33.1510   46.8370 C   0  0  0  0  0  0  0  0  0  0  0  0
   38.7690   32.3260   47.1370 N   0  0  0  0  0  0  0  0  0  0  0  0
   40.4550   32.9940   45.6020 N   0  0  0  0  0  0  0  0  0  0  0  0
   38.0280   33.4940   50.2580 H   0  0  0  0  0  0  0  0  0  0  0  0
   39.8790   34.9320   49.6960 H   0  0  0  0  0  0  0  0  0  0  0  0
   40.7640   33.7800   44.9930 H   0  0  0  0  0  0  0  0  0  0  0  0
   40.6940   32.0810   45.1450 H   0  0  0  0  0  0  0  0  0  0  0  0
   36.6540   29.2790   49.4430 O   0  0  0  0  0  0  0  0  0  0  0  0
   34.6100   27.7400   49.7720 O   0  0  0  0  0  0  0  0  0  0  0  0
   35.0530   28.9940   49.0870 P   0  0  1  0  0  0  0  0  0  0  0  0
   34.0820   30.2480   49.7820 O   0  0  0  0  0  0  0  0  0  0  0  0
   33.9670   30.0670   50.7470 H   0  0  0  0  0  0  0  0  0  0  0  0
   34.8540   28.9710   47.4180 O   0  0  0  0  0  0  0  0  0  0  0  0
   33.6780   28.4190   46.9970 C   0  0  0  0  0  3  0  0  0  0  0  0
   33.7350   27.0710   46.3800 C   0  0  0  0  0  2  0  0  0  0  0  0
   33.5430   28.2260   45.4710 C   0  0  0  0  0  2  0  0  0  0  0  0
  1  4  1  1  0  0  0
  2  5  1  0  0  0  0
  2  3  1  0  0  0  0
  2  1  1  0  0  0  0
  3  7  1  6  0  0  0
  3  1  1  0  0  0  0
  3 19  1  0  0  0  0
  6  2  1  0  0  0  0
  8  1  1  0  0  0  0
  8  9  1  0  0  0  0
  9 15  1  0  0  0  0
 10  9  2  0  0  0  0
 10 16  1  0  0  0  0
 11 10  1  0  0  0  0
 12 13  1  0  0  0  0
 12 11  2  0  0  0  0
 13  8  2  0  0  0  0
 14 12  1  0  0  0  0
 17 14  1  0  0  0  0
 18 14  1  0  0  0  0
 21 19  1  0  0  0  0
 21 20  2  1  0  0  0
 21 22  1  0  0  0  0
 22 23  1  0  0  0  0
 24 21  1  0  0  0  0
 25 24  1  0  0  0  0
 26 25  1  0  0  0  0
 27 26  1  0  0  0  0
 27 25  1  0  0  0  0
M  END
>  <minimizedAffinity>
-4.44802713

>  <minimizedRMSD>
0.33546418

$$$$
