
 OpenBabel03262522343D

 34 37  0  0  0  0  0  0  0  0999 V2000
   38.9250   31.6130   46.8840 C   0  0  0  0  0  0  0  0  0  0  0  0
   39.4620   32.8740   46.8150 C   0  0  0  0  0  0  0  0  0  0  0  0
   40.1180   33.3690   45.7040 C   0  0  0  0  0  0  0  0  0  0  0  0
   40.2570   32.5650   44.5800 C   0  0  0  0  0  0  0  0  0  0  0  0
   39.7090   31.3010   44.6700 C   0  0  0  0  0  0  0  0  0  0  0  0
   39.0850   30.8810   45.7790 N   0  0  0  0  0  0  0  0  0  0  0  0
   39.3850   33.5470   47.6610 H   0  0  0  0  0  0  0  0  0  0  0  0
   40.5180   34.3690   45.7110 H   0  0  0  0  0  0  0  0  0  0  0  0
   40.7690   32.9400   43.7030 H   0  0  0  0  0  0  0  0  0  0  0  0
   38.6810   30.1940   42.7460 C   0  0  0  0  0  0  0  0  0  0  0  0
   39.8280   30.4540   43.4940 C   0  0  0  0  0  0  0  0  0  0  0  0
   41.0170   29.9000   43.0850 C   0  0  0  0  0  0  0  0  0  0  0  0
   41.1780   29.0890   41.9800 C   0  0  0  0  0  0  0  0  0  0  0  0
   40.0710   28.8120   41.2250 C   0  0  0  0  0  0  0  0  0  0  0  0
   38.8750   29.3630   41.6230 C   0  0  0  0  0  0  0  0  0  0  0  0
   41.8920   30.1470   43.7230 H   0  0  0  0  0  0  0  0  0  0  0  0
   42.1500   28.7070   41.7480 H   0  0  0  0  0  0  0  0  0  0  0  0
   40.1120   28.1920   40.3550 H   0  0  0  0  0  0  0  0  0  0  0  0
   37.9810   29.1330   41.0060 H   0  0  0  0  0  0  0  0  0  0  0  0
   37.0930   30.7490   43.1230 S   0  0  0  0  0  0  0  0  0  0  0  0
   36.2180   30.3730   41.9210 O   0  0  0  0  0  0  0  0  0  0  0  0
   36.5320   29.9970   44.2900 O   0  0  0  0  0  0  0  0  0  0  0  0
   36.8610   32.5020   43.1700 C   0  0  0  0  0  0  0  0  0  0  0  0
   35.5070   33.0360   42.6580 C   0  0  0  0  0  0  0  0  0  0  0  0
   36.7300   33.2430   41.8920 C   0  0  0  0  0  0  0  0  0  0  0  0
   38.5130   31.5430   49.3700 C   0  0  0  0  0  0  0  0  0  0  0  0
   38.2350   31.1130   48.0510 C   0  0  0  0  0  0  0  0  0  0  0  0
   37.2330   30.1340   47.8640 C   0  0  0  0  0  0  0  0  0  0  0  0
   36.5830   29.6520   48.9630 N   0  0  0  0  0  0  0  0  0  0  0  0
   36.8970   30.1070   50.2100 C   0  0  0  0  0  0  0  0  0  0  0  0
   37.8330   31.0270   50.4230 N   0  0  0  0  0  0  0  0  0  0  0  0
   39.2790   32.2870   49.4780 H   0  0  0  0  0  0  0  0  0  0  0  0
   36.9730   29.7650   46.8860 H   0  0  0  0  0  0  0  0  0  0  0  0
   36.4190   29.7630   51.1110 H   0  0  0  0  0  0  0  0  0  0  0  0
  1 27  1  0  0  0  0
  2  1  1  0  0  0  0
  2  7  1  0  0  0  0
  3  8  1  0  0  0  0
  3  2  2  0  0  0  0
  4  5  2  0  0  0  0
  4  3  1  0  0  0  0
  5  6  1  0  0  0  0
  6  1  2  0  0  0  0
  9  4  1  0  0  0  0
 10 20  1  0  0  0  0
 10 11  1  0  0  0  0
 11  5  1  0  0  0  0
 12 11  2  0  0  0  0
 12 16  1  0  0  0  0
 13 12  1  0  0  0  0
 14 15  1  0  0  0  0
 14 13  2  0  0  0  0
 15 10  2  0  0  0  0
 17 13  1  0  0  0  0
 18 14  1  0  0  0  0
 19 15  1  0  0  0  0
 20 23  1  0  0  0  0
 20 22  2  0  0  0  0
 21 20  2  0  0  0  0
 24 23  1  0  0  0  0
 25 24  1  0  0  0  0
 25 23  1  0  0  0  0
 26 32  1  0  0  0  0
 26 31  1  0  0  0  0
 27 26  2  0  0  0  0
 28 27  1  0  0  0  0
 28 29  2  0  0  0  0
 29 30  1  0  0  0  0
 30 31  2  0  0  0  0
 30 34  1  0  0  0  0
 33 28  1  0  0  0  0
M  END
>  <minimizedAffinity>
-5.39209032

>  <minimizedRMSD>
1.27528691

$$$$
