
 OpenBabel03272509303D

 32 34  0  0  1  0  0  0  0  0999 V2000
   36.2890   30.7190   49.0010 C   0  0  2  0  0  0  0  0  0  0  0  0
   37.2420   31.5620   49.7920 C   0  0  0  0  0  0  0  0  0  0  0  0
   38.1020   30.7540   50.7380 C   0  0  0  0  0  0  0  0  0  0  0  0
   37.2340   29.9270   51.6820 C   0  0  0  0  0  0  0  0  0  0  0  0
   35.9910   29.3740   51.0420 C   0  0  0  0  0  0  0  0  0  0  0  0
   36.2090   29.3180   49.5210 C   0  0  1  0  0  0  0  0  0  0  0  0
   35.2330   31.1040   48.9910 H   0  0  0  0  0  0  0  0  0  0  0  0
   36.5650   32.1500   50.5020 H   0  0  0  0  0  0  0  0  0  0  0  0
   37.8030   32.3130   49.2690 H   0  0  0  0  0  0  0  0  0  0  0  0
   38.8770   30.1570   50.2600 H   0  0  0  0  0  0  0  0  0  0  0  0
   38.6290   31.4860   51.3880 H   0  0  0  0  0  0  0  0  0  0  0  0
   36.9970   30.4510   52.6200 H   0  0  0  0  0  0  0  0  0  0  0  0
   37.8630   29.0280   51.9480 H   0  0  0  0  0  0  0  0  0  0  0  0
   35.7470   28.3580   51.3610 H   0  0  0  0  0  0  0  0  0  0  0  0
   35.1400   30.0850   51.2150 H   0  0  0  0  0  0  0  0  0  0  0  0
   37.1730   28.8670   49.4780 H   0  0  0  0  0  0  0  0  0  0  0  0
   36.6880   30.6660   47.5710 C   0  0  0  0  0  0  0  0  0  0  0  0
   38.0280   30.9480   47.2970 C   0  0  0  0  0  0  0  0  0  0  0  0
   38.4240   30.8990   45.9540 C   0  0  0  0  0  0  0  0  0  0  0  0
   37.4930   30.5820   44.9990 N   0  0  0  0  0  0  0  0  0  0  0  0
   36.1820   30.3110   45.3220 C   0  0  0  0  0  0  0  0  0  0  0  0
   35.8110   30.3600   46.6020 N   0  0  0  0  0  0  0  0  0  0  0  0
   38.8520   31.1980   47.9340 H   0  0  0  0  0  0  0  0  0  0  0  0
   39.4210   31.0940   45.6010 H   0  0  0  0  0  0  0  0  0  0  0  0
   35.4790   30.0640   44.5410 H   0  0  0  0  0  0  0  0  0  0  0  0
   33.9100   28.3390   49.0210 C   0  0  0  0  0  0  0  0  0  0  0  0
   33.1520   28.8780   49.8780 O   0  0  0  0  0  0  0  0  0  0  0  0
   35.3220   28.4550   48.8320 N   0  0  0  0  0  0  0  0  0  0  0  0
   35.6860   27.7920   48.0740 H   0  0  0  0  0  0  0  0  0  0  0  0
   33.0960   27.4510   48.1010 C   0  0  0  0  0  3  0  0  0  0  0  0
   33.5590   27.2510   46.6860 C   0  0  0  0  0  2  0  0  0  0  0  0
   33.7640   26.1390   47.6430 C   0  0  0  0  0  2  0  0  0  0  0  0
  1  7  1  1  0  0  0
  1  6  1  0  0  0  0
  1  2  1  0  0  0  0
  2  8  1  0  0  0  0
  2  3  1  0  0  0  0
  3 11  1  0  0  0  0
  3  4  1  0  0  0  0
  4 13  1  0  0  0  0
  4 12  1  0  0  0  0
  5 15  1  0  0  0  0
  5 14  1  0  0  0  0
  5  4  1  0  0  0  0
  6 16  1  6  0  0  0
  6  5  1  0  0  0  0
  9  2  1  0  0  0  0
 10  3  1  0  0  0  0
 17  1  1  0  0  0  0
 18 17  1  0  0  0  0
 18 23  1  0  0  0  0
 19 18  2  0  0  0  0
 20 21  2  0  0  0  0
 20 19  1  0  0  0  0
 21 22  1  0  0  0  0
 22 17  2  0  0  0  0
 24 19  1  0  0  0  0
 25 21  1  0  0  0  0
 26 27  2  0  0  0  0
 28 26  1  0  0  0  0
 28  6  1  0  0  0  0
 29 28  1  0  0  0  0
 30 26  1  0  0  0  0
 31 32  1  0  0  0  0
 31 30  1  0  0  0  0
 32 30  1  0  0  0  0
M  END
>  <minimizedAffinity>
-5.69692087

>  <minimizedRMSD>
0.409675092

$$$$
