
 OpenBabel03262522083D

 14 15  0  0  0  0  0  0  0  0999 V2000
   38.3240   31.3430   50.1350 C   0  0  0  0  0  0  0  0  0  0  0  0
   38.1060   31.3410   48.7270 C   0  0  0  0  0  0  0  0  0  0  0  0
   37.2550   30.3640   48.1840 C   0  0  0  0  0  0  0  0  0  0  0  0
   36.6910   29.4810   49.0340 N   0  0  0  0  0  0  0  0  0  0  0  0
   36.9160   29.5080   50.3560 C   0  0  0  0  0  0  0  0  0  0  0  0
   37.7150   30.4160   50.9130 N   0  0  0  0  0  0  0  0  0  0  0  0
   38.9910   32.1170   50.5130 H   0  0  0  0  0  0  0  0  0  0  0  0
   37.1170   30.3990   47.1110 H   0  0  0  0  0  0  0  0  0  0  0  0
   36.4200   28.7550   50.9790 H   0  0  0  0  0  0  0  0  0  0  0  0
   38.7970   32.3770   47.9230 C   0  0  0  0  0  0  0  0  0  0  0  0
   39.1540   33.3730   48.5820 O   0  0  0  0  0  0  0  0  0  0  0  0
   39.0340   32.2290   46.4700 C   0  0  0  0  0  0  0  0  0  0  0  0
   40.2060   32.8930   45.8310 C   0  0  0  0  0  0  0  0  0  0  0  0
   40.1280   31.3810   45.9530 C   0  0  0  0  0  0  0  0  0  0  0  0
  1  7  1  0  0  0  0
  1  6  1  0  0  0  0
  2  1  2  0  0  0  0
  3  2  1  0  0  0  0
  3  4  2  0  0  0  0
  4  5  1  0  0  0  0
  5  6  2  0  0  0  0
  5  9  1  0  0  0  0
  8  3  1  0  0  0  0
 10 11  2  0  0  0  0
 10  2  1  0  0  0  0
 12 10  1  0  0  0  0
 13 14  1  0  0  0  0
 13 12  1  0  0  0  0
 14 12  1  0  0  0  0
M  END
>  <minimizedAffinity>
-4.36282444

>  <minimizedRMSD>
3.15661645

$$$$
