
 OpenBabel03272505313D

 34 37  0  0  0  0  0  0  0  0999 V2000
   37.3790   31.0720   47.1710 N   0  0  0  0  0  0  0  0  0  0  0  0
   36.7580   30.7470   46.0070 C   0  0  0  0  0  0  0  0  0  0  0  0
   37.2200   31.2390   44.7840 C   0  0  0  0  0  0  0  0  0  0  0  0
   38.3340   32.0740   44.7900 C   0  0  0  0  0  0  0  0  0  0  0  0
   38.7700   32.5310   43.7060 O   0  0  0  0  0  0  0  0  0  0  0  0
   38.9540   32.3950   45.9780 N   0  0  0  0  0  0  0  0  0  0  0  0
   38.4330   31.8730   47.0770 C   0  0  0  0  0  0  0  0  0  0  0  0
   39.0220   32.1880   48.1370 O   0  0  0  0  0  0  0  0  0  0  0  0
   35.8920   30.0980   46.0130 H   0  0  0  0  0  0  0  0  0  0  0  0
   37.3150   29.5070   50.5490 C   0  0  0  0  0  0  0  0  0  0  0  0
   37.7770   29.9990   49.3180 C   0  0  0  0  0  0  0  0  0  0  0  0
   36.9220   30.5830   48.3930 C   0  0  0  0  0  0  0  0  0  0  0  0
   35.6200   30.6540   48.7430 N   0  0  0  0  0  0  0  0  0  0  0  0
   35.1410   30.1880   49.9260 C   0  0  0  0  0  0  0  0  0  0  0  0
   36.0120   29.6170   50.8140 N   0  0  0  0  0  0  0  0  0  0  0  0
   38.0050   29.0540   51.2530 H   0  0  0  0  0  0  0  0  0  0  0  0
   38.8290   29.9300   49.0600 H   0  0  0  0  0  0  0  0  0  0  0  0
   34.0770   30.2700   50.1600 H   0  0  0  0  0  0  0  0  0  0  0  0
   36.5960   30.9250   43.5140 C   0  0  0  0  0  0  0  0  0  0  0  0
   36.9440   29.8420   42.7400 C   0  0  0  0  0  0  0  0  0  0  0  0
   36.3780   29.5080   41.5290 C   0  0  0  0  0  0  0  0  0  0  0  0
   35.3650   30.3250   41.0330 C   0  0  0  0  0  0  0  0  0  0  0  0
   35.0290   31.4180   41.8400 C   0  0  0  0  0  0  0  0  0  0  0  0
   35.6260   31.6820   43.0100 N   0  0  0  0  0  0  0  0  0  0  0  0
   37.7320   29.1700   43.0830 H   0  0  0  0  0  0  0  0  0  0  0  0
   36.6990   28.6420   40.9710 H   0  0  0  0  0  0  0  0  0  0  0  0
   34.8810   30.1150   40.0890 H   0  0  0  0  0  0  0  0  0  0  0  0
   33.9450   32.3100   41.3280 C   0  0  0  0  0  0  0  0  0  0  0  0
   32.6480   32.4020   42.0540 C   0  0  0  0  0  0  0  0  0  0  0  0
   33.6070   33.5510   42.0800 C   0  0  0  0  0  0  0  0  0  0  0  0
   40.1030   33.2570   45.9710 C   0  0  0  0  0  0  0  0  0  0  0  0
   39.9720   34.2350   45.0280 F   0  0  0  0  0  0  0  0  0  0  0  0
   41.2890   32.6020   45.6950 F   0  0  0  0  0  0  0  0  0  0  0  0
   40.1920   33.8900   47.2190 F   0  0  0  0  0  0  0  0  0  0  0  0
  1 12  1  0  0  0  0
  2  9  1  0  0  0  0
  2  1  1  0  0  0  0
  3  4  1  0  0  0  0
  3  2  2  0  0  0  0
  4  6  1  0  0  0  0
  5  4  2  0  0  0  0
  6  7  1  0  0  0  0
  7  1  1  0  0  0  0
  7  8  2  0  0  0  0
 10 15  1  0  0  0  0
 10 16  1  0  0  0  0
 11 10  2  0  0  0  0
 12 13  2  0  0  0  0
 12 11  1  0  0  0  0
 13 14  1  0  0  0  0
 14 18  1  0  0  0  0
 14 15  2  0  0  0  0
 17 11  1  0  0  0  0
 19  3  1  0  0  0  0
 20 25  1  0  0  0  0
 20 19  2  0  0  0  0
 21 20  1  0  0  0  0
 22 21  2  0  0  0  0
 22 23  1  0  0  0  0
 23 24  2  0  0  0  0
 24 19  1  0  0  0  0
 26 21  1  0  0  0  0
 27 22  1  0  0  0  0
 28 23  1  0  0  0  0
 28 29  1  0  0  0  0
 28 30  1  0  0  0  0
 29 30  1  0  0  0  0
 31  6  1  0  0  0  0
 31 34  1  0  0  0  0
 32 31  1  0  0  0  0
 33 31  1  0  0  0  0
M  END
>  <minimizedAffinity>
-6.12787294

>  <minimizedRMSD>
0.273455173

$$$$
