
 OpenBabel03272510213D

 30 33  0  0  0  0  0  0  0  0999 V2000
   37.3160   29.3000   50.9790 Br  0  0  0  0  0  0  0  0  0  0  0  0
   35.9430   29.3040   49.6570 C   0  0  0  0  0  0  0  0  0  0  0  0
   35.9560   30.2290   48.6170 C   0  0  0  0  0  0  0  0  0  0  0  0
   34.9330   30.1690   47.7030 C   0  0  0  0  0  0  0  0  0  0  0  0
   33.9080   29.2540   47.7630 C   0  0  0  0  0  0  0  0  0  0  0  0
   33.9210   28.3550   48.8010 C   0  0  0  0  0  0  0  0  0  0  0  0
   34.9290   28.3910   49.7260 C   0  0  0  0  0  0  0  0  0  0  0  0
   34.9510   30.8920   46.8970 H   0  0  0  0  0  0  0  0  0  0  0  0
   33.1330   27.6170   48.8860 H   0  0  0  0  0  0  0  0  0  0  0  0
   34.9130   27.6700   50.5320 H   0  0  0  0  0  0  0  0  0  0  0  0
   37.9900   33.1600   49.3990 C   0  0  0  0  0  0  0  0  0  0  0  0
   39.0080   33.1290   48.3990 C   0  0  0  0  0  0  0  0  0  0  0  0
   38.9690   32.0980   47.4790 C   0  0  0  0  0  0  0  0  0  0  0  0
   37.9750   31.1530   47.5490 N   0  0  0  0  0  0  0  0  0  0  0  0
   37.0260   31.2180   48.5140 C   0  0  0  0  0  0  0  0  0  0  0  0
   37.0390   32.2200   49.4320 N   0  0  0  0  0  0  0  0  0  0  0  0
   37.9520   33.9300   50.1490 H   0  0  0  0  0  0  0  0  0  0  0  0
   39.7490   33.8930   48.4030 H   0  0  0  0  0  0  0  0  0  0  0  0
   39.7050   32.0300   46.7150 H   0  0  0  0  0  0  0  0  0  0  0  0
   32.8220   29.1930   46.7920 C   0  0  0  0  0  0  0  0  0  0  0  0
   31.9700   28.1280   46.6310 C   0  0  0  0  0  0  0  0  0  0  0  0
   30.9500   28.1150   45.6920 C   0  0  0  0  0  0  0  0  0  0  0  0
   30.7790   29.1780   44.9060 N   0  0  0  0  0  0  0  0  0  0  0  0
   31.6100   30.2410   45.0500 C   0  0  0  0  0  0  0  0  0  0  0  0
   32.5800   30.2240   45.9600 N   0  0  0  0  0  0  0  0  0  0  0  0
   32.1110   27.2590   47.2740 H   0  0  0  0  0  0  0  0  0  0  0  0
   30.3360   27.2150   45.6530 H   0  0  0  0  0  0  0  0  0  0  0  0
   31.4470   31.4490   44.1860 C   0  0  0  0  0  3  0  0  0  0  0  0
   32.6310   32.2800   43.8520 C   0  0  0  0  0  2  0  0  0  0  0  0
   31.5940   32.8210   44.7680 C   0  0  0  0  0  2  0  0  0  0  0  0
  2  7  1  0  0  0  0
  2  1  1  0  0  0  0
  3  2  2  0  0  0  0
  4  5  2  0  0  0  0
  4  3  1  0  0  0  0
  5  6  1  0  0  0  0
  6  9  1  0  0  0  0
  6  7  2  0  0  0  0
  7 10  1  0  0  0  0
  8  4  1  0  0  0  0
 11 16  1  0  0  0  0
 11 17  1  0  0  0  0
 12 18  1  0  0  0  0
 12 11  2  0  0  0  0
 13 14  2  0  0  0  0
 13 12  1  0  0  0  0
 14 15  1  0  0  0  0
 15  3  1  0  0  0  0
 15 16  2  0  0  0  0
 19 13  1  0  0  0  0
 20  5  1  0  0  0  0
 21 20  1  0  0  0  0
 21 26  1  0  0  0  0
 22 21  2  0  0  0  0
 23 24  2  0  0  0  0
 23 22  1  0  0  0  0
 24 25  1  0  0  0  0
 25 20  2  0  0  0  0
 27 22  1  0  0  0  0
 28 30  1  0  0  0  0
 28 24  1  0  0  0  0
 29 28  1  0  0  0  0
 29 30  1  0  0  0  0
M  END
>  <minimizedAffinity>
-5.97437525

>  <minimizedRMSD>
0.342240125

$$$$
