
 OpenBabel03272506273D

 36 39  0  0  0  0  0  0  0  0999 V2000
   31.7360   26.7900   47.7810 C   0  0  0  0  0  0  0  0  0  0  0  0
   31.6040   25.4150   47.7670 C   0  0  0  0  0  0  0  0  0  0  0  0
   32.6250   24.5430   47.3820 C   0  0  0  0  0  0  0  0  0  0  0  0
   33.8630   25.1000   46.9830 C   0  0  0  0  0  0  0  0  0  0  0  0
   33.9640   26.4600   47.0060 C   0  0  0  0  0  0  0  0  0  0  0  0
   32.9710   27.3110   47.3840 C   0  0  0  0  0  0  0  0  0  0  0  0
   30.6500   24.9570   48.0720 H   0  0  0  0  0  0  0  0  0  0  0  0
   32.3950   23.4640   47.4140 H   0  0  0  0  0  0  0  0  0  0  0  0
   34.5410   24.3200   46.7170 H   0  0  0  0  0  0  0  0  0  0  0  0
   34.9530   26.6570   46.6610 H   0  0  0  0  0  0  0  0  0  0  0  0
   30.3930   27.7260   49.5600 C   0  0  0  0  0  0  0  0  0  0  0  0
   30.5780   27.5430   48.1840 C   0  0  0  0  0  0  0  0  0  0  0  0
   29.6350   28.1010   47.3110 C   0  0  0  0  0  0  0  0  0  0  0  0
   28.5850   28.7900   47.8280 N   0  0  0  0  0  0  0  0  0  0  0  0
   28.4260   28.9560   49.1740 C   0  0  0  0  0  0  0  0  0  0  0  0
   29.3350   28.4190   50.0350 N   0  0  0  0  0  0  0  0  0  0  0  0
   31.1050   27.3060   50.2570 H   0  0  0  0  0  0  0  0  0  0  0  0
   27.5850   29.5070   49.5770 H   0  0  0  0  0  0  0  0  0  0  0  0
   29.7000   27.9850   45.8230 C   0  0  0  0  0  0  0  0  0  0  0  0
   28.5450   28.5570   45.2590 F   0  0  0  0  0  0  0  0  0  0  0  0
   30.7830   28.5300   45.2360 F   0  0  0  0  0  0  0  0  0  0  0  0
   29.6100   26.6480   45.4530 F   0  0  0  0  0  0  0  0  0  0  0  0
   33.1420   29.0460   47.4340 S   0  0  0  0  0  0  0  0  0  0  0  0
   34.7650   28.6890   50.0650 Cl  0  0  0  0  0  0  0  0  0  0  0  0
   35.4940   29.4300   48.6590 C   0  0  0  0  0  0  0  0  0  0  0  0
   34.8170   29.6210   47.4700 C   0  0  0  0  0  0  0  0  0  0  0  0
   35.4290   30.2070   46.3940 C   0  0  0  0  0  0  0  0  0  0  0  0
   36.7580   30.6020   46.5330 C   0  0  0  0  0  0  0  0  0  0  0  0
   37.4440   30.4110   47.7320 C   0  0  0  0  0  0  0  0  0  0  0  0
   36.8110   29.8180   48.8160 C   0  0  0  0  0  0  0  0  0  0  0  0
   34.9940   30.4300   45.4560 H   0  0  0  0  0  0  0  0  0  0  0  0
   37.2820   31.0720   45.6940 H   0  0  0  0  0  0  0  0  0  0  0  0
   38.4800   30.7550   47.7400 H   0  0  0  0  0  0  0  0  0  0  0  0
   37.6880   29.7220   50.0000 C   0  0  0  0  0  0  0  0  0  0  0  0
   38.3690   30.9390   50.5700 C   0  0  0  0  0  0  0  0  0  0  0  0
   37.1680   30.3970   51.2410 C   0  0  0  0  0  0  0  0  0  0  0  0
  1 12  1  0  0  0  0
  2  1  1  0  0  0  0
  2  7  1  0  0  0  0
  3  8  1  0  0  0  0
  3  2  2  0  0  0  0
  4  5  2  0  0  0  0
  4  3  1  0  0  0  0
  5  6  1  0  0  0  0
  6 23  1  0  0  0  0
  6  1  2  0  0  0  0
  9  4  1  0  0  0  0
 10  5  1  0  0  0  0
 11 16  1  0  0  0  0
 11 17  1  0  0  0  0
 12 11  2  0  0  0  0
 13 14  2  0  0  0  0
 13 12  1  0  0  0  0
 14 15  1  0  0  0  0
 15 18  1  0  0  0  0
 15 16  2  0  0  0  0
 19 13  1  0  0  0  0
 20 19  1  0  0  0  0
 21 19  1  0  0  0  0
 22 19  1  0  0  0  0
 23 26  1  0  0  0  0
 25 30  1  0  0  0  0
 25 24  1  0  0  0  0
 26 25  2  0  0  0  0
 27 28  2  0  0  0  0
 27 26  1  0  0  0  0
 28 29  1  0  0  0  0
 29 33  1  0  0  0  0
 29 30  2  0  0  0  0
 30 34  1  0  0  0  0
 31 27  1  0  0  0  0
 32 28  1  0  0  0  0
 34 35  1  0  0  0  0
 34 36  1  0  0  0  0
 35 36  1  0  0  0  0
M  END
>  <minimizedAffinity>
-6.23769426

>  <minimizedRMSD>
3.34553099

$$$$
