
 OpenBabel03272509233D

 40 44  0  0  0  0  0  0  0  0999 V2000
   37.8690   25.7970   31.9420 C   0  0  0  0  0  0  0  0  0  0  0  0
   36.7800   26.4500   31.4050 C   0  0  0  0  0  0  0  0  0  0  0  0
   35.6910   25.6190   31.1340 C   0  0  0  0  0  0  0  0  0  0  0  0
   35.7240   24.2400   31.3940 C   0  0  0  0  0  0  0  0  0  0  0  0
   36.8910   23.6710   31.9460 C   0  0  0  0  0  0  0  0  0  0  0  0
   37.9880   24.4870   32.2230 C   0  0  0  0  0  0  0  0  0  0  0  0
   34.7790   26.0190   30.7110 H   0  0  0  0  0  0  0  0  0  0  0  0
   34.8700   23.6120   31.1770 H   0  0  0  0  0  0  0  0  0  0  0  0
   36.8650   22.6240   32.1230 H   0  0  0  0  0  0  0  0  0  0  0  0
   37.0260   28.3350   29.8630 C   0  0  0  0  0  0  0  0  0  0  0  0
   36.7460   27.8540   31.1410 C   0  0  0  0  0  0  0  0  0  0  0  0
   36.4370   28.7960   32.1270 C   0  0  0  0  0  0  0  0  0  0  0  0
   36.4270   30.1080   31.7940 N   0  0  0  0  0  0  0  0  0  0  0  0
   36.7080   30.5300   30.5290 C   0  0  0  0  0  0  0  0  0  0  0  0
   37.0040   29.6470   29.5780 N   0  0  0  0  0  0  0  0  0  0  0  0
   37.2790   27.6780   29.0250 H   0  0  0  0  0  0  0  0  0  0  0  0
   36.6480   31.6160   30.4570 H   0  0  0  0  0  0  0  0  0  0  0  0
   36.1300   28.3430   33.5070 C   0  0  0  0  0  0  0  0  0  0  0  0
   35.6720   27.3490   33.5310 H   0  0  0  0  0  0  0  0  0  0  0  0
   35.5870   29.1110   34.0580 H   0  0  0  0  0  0  0  0  0  0  0  0
   37.1260   28.2190   34.0180 H   0  0  0  0  0  0  0  0  0  0  0  0
   39.0230   26.5350   32.2560 O   0  0  0  0  0  0  0  0  0  0  0  0
   39.7020   26.6690   31.5120 H   0  0  0  0  0  0  0  0  0  0  0  0
   39.0910   23.8570   32.7610 O   0  0  0  0  0  0  0  0  0  0  0  0
   40.5080   23.2830   34.7180 C   0  0  0  0  0  0  0  0  0  0  0  0
   39.3390   23.6410   34.0820 C   0  0  0  0  0  0  0  0  0  0  0  0
   38.1920   23.8270   34.8520 C   0  0  0  0  0  0  0  0  0  0  0  0
   38.2240   23.6540   36.2490 C   0  0  0  0  0  0  0  0  0  0  0  0
   37.3330   23.7520   37.2400 N   0  0  0  0  0  0  0  0  0  0  0  0
   37.9040   23.4750   38.4170 C   0  0  0  0  0  0  0  0  0  0  0  0
   39.2100   23.1890   38.1630 N   0  0  0  0  0  0  0  0  0  0  0  0
   39.4320   23.2930   36.8250 C   0  0  0  0  0  0  0  0  0  0  0  0
   40.5650   23.1090   36.0770 C   0  0  0  0  0  0  0  0  0  0  0  0
   41.3400   23.1600   34.0570 H   0  0  0  0  0  0  0  0  0  0  0  0
   37.2150   24.1040   34.5030 H   0  0  0  0  0  0  0  0  0  0  0  0
   36.3340   24.0100   37.1030 H   0  0  0  0  0  0  0  0  0  0  0  0
   37.4170   23.4780   39.3810 H   0  0  0  0  0  0  0  0  0  0  0  0
   41.8480   22.7220   36.7200 C   0  0  0  0  0  3  0  0  0  0  0  0
   42.0230   21.2650   37.0590 C   0  0  0  0  0  2  0  0  0  0  0  0
   42.8820   21.9480   36.0180 C   0  0  0  0  0  2  0  0  0  0  0  0
  1  6  1  0  0  0  0
  1 22  1  0  0  0  0
  2  1  2  0  0  0  0
  3  4  2  0  0  0  0
  3  2  1  0  0  0  0
  4  5  1  0  0  0  0
  5  9  1  0  0  0  0
  5  6  2  0  0  0  0
  6 24  1  0  0  0  0
  7  3  1  0  0  0  0
  8  4  1  0  0  0  0
 10 11  1  0  0  0  0
 11  2  1  0  0  0  0
 11 12  2  0  0  0  0
 12 18  1  0  0  0  0
 13 12  1  0  0  0  0
 14 13  2  0  0  0  0
 15 10  2  0  0  0  0
 15 14  1  0  0  0  0
 16 10  1  0  0  0  0
 17 14  1  0  0  0  0
 18 19  1  0  0  0  0
 18 21  1  0  0  0  0
 18 20  1  0  0  0  0
 23 22  1  0  0  0  0
 24 26  1  0  0  0  0
 25 33  1  0  0  0  0
 26 25  2  0  0  0  0
 26 27  1  0  0  0  0
 27 28  2  0  0  0  0
 28 32  1  0  0  0  0
 28 29  1  0  0  0  0
 29 30  1  0  0  0  0
 30 37  1  0  0  0  0
 31 30  2  0  0  0  0
 32 31  1  0  0  0  0
 33 38  1  0  0  0  0
 33 32  2  0  0  0  0
 34 25  1  0  0  0  0
 35 27  1  0  0  0  0
 36 29  1  0  0  0  0
 38 39  1  0  0  0  0
 40 38  1  0  0  0  0
 40 39  1  0  0  0  0
M  END
>  <minimizedAffinity>
-6.25704241

$$$$

 OpenBabel03272509233D

 40 44  0  0  0  0  0  0  0  0999 V2000
   36.7340   23.3830   31.2850 C   0  0  0  0  0  0  0  0  0  0  0  0
   37.3020   22.1260   31.3040 C   0  0  0  0  0  0  0  0  0  0  0  0
   38.6210   22.0880   30.8490 C   0  0  0  0  0  0  0  0  0  0  0  0
   39.2930   23.2410   30.4140 C   0  0  0  0  0  0  0  0  0  0  0  0
   38.6180   24.4800   30.4360 C   0  0  0  0  0  0  0  0  0  0  0  0
   37.3000   24.5360   30.8880 C   0  0  0  0  0  0  0  0  0  0  0  0
   39.1720   21.1570   30.8180 H   0  0  0  0  0  0  0  0  0  0  0  0
   40.3160   23.1910   30.0650 H   0  0  0  0  0  0  0  0  0  0  0  0
   39.1710   25.3220   30.0970 H   0  0  0  0  0  0  0  0  0  0  0  0
   36.0980   20.0500   30.8200 C   0  0  0  0  0  0  0  0  0  0  0  0
   36.6190   20.9520   31.7470 C   0  0  0  0  0  0  0  0  0  0  0  0
   36.4410   20.6520   33.1020 C   0  0  0  0  0  0  0  0  0  0  0  0
   35.7820   19.5190   33.4370 N   0  0  0  0  0  0  0  0  0  0  0  0
   35.2910   18.6680   32.4930 C   0  0  0  0  0  0  0  0  0  0  0  0
   35.4500   18.9370   31.1990 N   0  0  0  0  0  0  0  0  0  0  0  0
   36.1850   20.1960   29.7390 H   0  0  0  0  0  0  0  0  0  0  0  0
   34.7940   17.8150   32.9560 H   0  0  0  0  0  0  0  0  0  0  0  0
   36.9740   21.5750   34.1350 C   0  0  0  0  0  0  0  0  0  0  0  0
   37.8700   22.1090   33.8010 H   0  0  0  0  0  0  0  0  0  0  0  0
   37.0730   21.0700   35.0950 H   0  0  0  0  0  0  0  0  0  0  0  0
   36.1910   22.3730   34.2680 H   0  0  0  0  0  0  0  0  0  0  0  0
   35.4080   23.5410   31.7230 O   0  0  0  0  0  0  0  0  0  0  0  0
   34.6750   23.4000   31.0350 H   0  0  0  0  0  0  0  0  0  0  0  0
   36.7090   25.7830   30.8780 O   0  0  0  0  0  0  0  0  0  0  0  0
   37.2600   26.6350   33.1460 C   0  0  0  0  0  0  0  0  0  0  0  0
   36.6140   26.6440   31.9280 C   0  0  0  0  0  0  0  0  0  0  0  0
   35.7060   27.6690   31.6640 C   0  0  0  0  0  0  0  0  0  0  0  0
   35.4530   28.6730   32.6190 C   0  0  0  0  0  0  0  0  0  0  0  0
   34.6710   29.7540   32.6760 N   0  0  0  0  0  0  0  0  0  0  0  0
   34.8150   30.3810   33.8480 C   0  0  0  0  0  0  0  0  0  0  0  0
   35.7270   29.6670   34.5640 N   0  0  0  0  0  0  0  0  0  0  0  0
   36.1360   28.6030   33.8220 C   0  0  0  0  0  0  0  0  0  0  0  0
   37.0300   27.6010   34.0910 C   0  0  0  0  0  0  0  0  0  0  0  0
   37.9390   25.8170   33.2690 H   0  0  0  0  0  0  0  0  0  0  0  0
   35.1300   27.8090   30.7690 H   0  0  0  0  0  0  0  0  0  0  0  0
   34.0380   30.0590   31.9060 H   0  0  0  0  0  0  0  0  0  0  0  0
   34.3050   31.2790   34.1610 H   0  0  0  0  0  0  0  0  0  0  0  0
   37.7500   27.5500   35.3900 C   0  0  0  0  0  3  0  0  0  0  0  0
   38.0810   26.1820   35.9270 C   0  0  0  0  0  2  0  0  0  0  0  0
   39.1610   27.1500   35.4970 C   0  0  0  0  0  2  0  0  0  0  0  0
  1  2  1  0  0  0  0
  1 22  1  0  0  0  0
  2 11  1  0  0  0  0
  3  2  2  0  0  0  0
  4  5  2  0  0  0  0
  4  3  1  0  0  0  0
  5  6  1  0  0  0  0
  6  1  2  0  0  0  0
  7  3  1  0  0  0  0
  8  4  1  0  0  0  0
  9  5  1  0  0  0  0
 10 15  2  0  0  0  0
 10 11  1  0  0  0  0
 11 12  2  0  0  0  0
 12 13  1  0  0  0  0
 12 18  1  0  0  0  0
 14 17  1  0  0  0  0
 14 13  2  0  0  0  0
 15 14  1  0  0  0  0
 16 10  1  0  0  0  0
 18 21  1  0  0  0  0
 18 20  1  0  0  0  0
 19 18  1  0  0  0  0
 23 22  1  0  0  0  0
 24  6  1  0  0  0  0
 24 26  1  0  0  0  0
 25 34  1  0  0  0  0
 25 33  1  0  0  0  0
 26 25  2  0  0  0  0
 27 26  1  0  0  0  0
 27 28  2  0  0  0  0
 28 29  1  0  0  0  0
 28 32  1  0  0  0  0
 29 30  1  0  0  0  0
 30 37  1  0  0  0  0
 30 31  2  0  0  0  0
 32 33  2  0  0  0  0
 32 31  1  0  0  0  0
 33 38  1  0  0  0  0
 35 27  1  0  0  0  0
 36 29  1  0  0  0  0
 38 40  1  0  0  0  0
 38 39  1  0  0  0  0
 40 39  1  0  0  0  0
M  END
>  <minimizedAffinity>
-6.08948183

$$$$

 OpenBabel03272509233D

 40 44  0  0  0  0  0  0  0  0999 V2000
   38.2640   26.2520   32.5320 C   0  0  0  0  0  0  0  0  0  0  0  0
   37.0650   26.6370   31.9690 C   0  0  0  0  0  0  0  0  0  0  0  0
   36.1850   25.5820   31.7190 C   0  0  0  0  0  0  0  0  0  0  0  0
   36.5130   24.2510   32.0240 C   0  0  0  0  0  0  0  0  0  0  0  0
   37.7690   23.9660   32.5990 C   0  0  0  0  0  0  0  0  0  0  0  0
   38.6600   25.0090   32.8550 C   0  0  0  0  0  0  0  0  0  0  0  0
   35.2130   25.7610   31.2790 H   0  0  0  0  0  0  0  0  0  0  0  0
   35.8170   23.4460   31.8220 H   0  0  0  0  0  0  0  0  0  0  0  0
   37.9680   22.9440   32.8100 H   0  0  0  0  0  0  0  0  0  0  0  0
   36.8740   28.4710   30.3590 C   0  0  0  0  0  0  0  0  0  0  0  0
   36.7310   27.9920   31.6600 C   0  0  0  0  0  0  0  0  0  0  0  0
   36.2530   28.8860   32.6240 C   0  0  0  0  0  0  0  0  0  0  0  0
   35.9600   30.1530   32.2470 N   0  0  0  0  0  0  0  0  0  0  0  0
   36.1170   30.5740   30.9610 C   0  0  0  0  0  0  0  0  0  0  0  0
   36.5700   29.7370   30.0320 N   0  0  0  0  0  0  0  0  0  0  0  0
   37.2390   27.8490   29.5360 H   0  0  0  0  0  0  0  0  0  0  0  0
   35.8290   31.6210   30.8560 H   0  0  0  0  0  0  0  0  0  0  0  0
   36.0800   28.4320   34.0260 C   0  0  0  0  0  0  0  0  0  0  0  0
   35.8420   27.3660   34.0980 H   0  0  0  0  0  0  0  0  0  0  0  0
   35.4020   29.0910   34.5680 H   0  0  0  0  0  0  0  0  0  0  0  0
   37.0920   28.5390   34.5110 H   0  0  0  0  0  0  0  0  0  0  0  0
   39.2270   27.2320   32.8270 O   0  0  0  0  0  0  0  0  0  0  0  0
   39.8690   27.4880   32.0830 H   0  0  0  0  0  0  0  0  0  0  0  0
   39.8660   24.6490   33.4180 O   0  0  0  0  0  0  0  0  0  0  0  0
   39.3460   24.0030   35.7600 C   0  0  0  0  0  0  0  0  0  0  0  0
   40.0480   23.9530   34.5740 C   0  0  0  0  0  0  0  0  0  0  0  0
   41.1260   23.0740   34.4750 C   0  0  0  0  0  0  0  0  0  0  0  0
   41.4910   22.2540   35.5600 C   0  0  0  0  0  0  0  0  0  0  0  0
   42.4380   21.3380   35.7830 N   0  0  0  0  0  0  0  0  0  0  0  0
   42.3370   20.8460   37.0220 C   0  0  0  0  0  0  0  0  0  0  0  0
   41.2830   21.4760   37.6100 N   0  0  0  0  0  0  0  0  0  0  0  0
   40.7440   22.3540   36.7230 C   0  0  0  0  0  0  0  0  0  0  0  0
   39.6830   23.2150   36.8300 C   0  0  0  0  0  0  0  0  0  0  0  0
   38.5360   24.7010   35.7540 H   0  0  0  0  0  0  0  0  0  0  0  0
   41.7630   22.9240   33.6240 H   0  0  0  0  0  0  0  0  0  0  0  0
   43.1510   21.0530   35.0790 H   0  0  0  0  0  0  0  0  0  0  0  0
   42.9720   20.0940   37.4650 H   0  0  0  0  0  0  0  0  0  0  0  0
   38.8970   23.3020   38.0880 C   0  0  0  0  0  3  0  0  0  0  0  0
   38.0660   24.5430   38.2820 C   0  0  0  0  0  2  0  0  0  0  0  0
   37.4320   23.1800   38.1160 C   0  0  0  0  0  2  0  0  0  0  0  0
  1 22  1  0  0  0  0
  1  6  1  0  0  0  0
  2  1  2  0  0  0  0
  3  2  1  0  0  0  0
  3  4  2  0  0  0  0
  4  5  1  0  0  0  0
  5  9  1  0  0  0  0
  5  6  2  0  0  0  0
  6 24  1  0  0  0  0
  7  3  1  0  0  0  0
  8  4  1  0  0  0  0
 10 11  1  0  0  0  0
 11  2  1  0  0  0  0
 11 12  2  0  0  0  0
 12 18  1  0  0  0  0
 13 12  1  0  0  0  0
 14 13  2  0  0  0  0
 15 10  2  0  0  0  0
 15 14  1  0  0  0  0
 16 10  1  0  0  0  0
 17 14  1  0  0  0  0
 18 19  1  0  0  0  0
 18 21  1  0  0  0  0
 18 20  1  0  0  0  0
 23 22  1  0  0  0  0
 24 26  1  0  0  0  0
 25 33  1  0  0  0  0
 26 25  2  0  0  0  0
 27 26  1  0  0  0  0
 27 28  2  0  0  0  0
 28 29  1  0  0  0  0
 28 32  1  0  0  0  0
 29 30  1  0  0  0  0
 30 37  1  0  0  0  0
 30 31  2  0  0  0  0
 32 33  2  0  0  0  0
 32 31  1  0  0  0  0
 33 38  1  0  0  0  0
 34 25  1  0  0  0  0
 35 27  1  0  0  0  0
 36 29  1  0  0  0  0
 38 40  1  0  0  0  0
 38 39  1  0  0  0  0
 40 39  1  0  0  0  0
M  END
>  <minimizedAffinity>
-5.90494061

$$$$

 OpenBabel03272509233D

 40 44  0  0  0  0  0  0  0  0999 V2000
   35.9730   28.8100   33.6660 C   0  0  0  0  0  0  0  0  0  0  0  0
   35.4670   30.0930   33.6860 C   0  0  0  0  0  0  0  0  0  0  0  0
   35.5700   30.7680   32.4690 C   0  0  0  0  0  0  0  0  0  0  0  0
   36.1440   30.1730   31.3340 C   0  0  0  0  0  0  0  0  0  0  0  0
   36.6320   28.8520   31.4210 C   0  0  0  0  0  0  0  0  0  0  0  0
   36.5370   28.1640   32.6310 C   0  0  0  0  0  0  0  0  0  0  0  0
   35.2070   31.7820   32.3630 H   0  0  0  0  0  0  0  0  0  0  0  0
   36.2160   30.7130   30.3980 H   0  0  0  0  0  0  0  0  0  0  0  0
   37.0570   28.4490   30.5350 H   0  0  0  0  0  0  0  0  0  0  0  0
   35.6630   31.4700   35.7000 C   0  0  0  0  0  0  0  0  0  0  0  0
   34.8830   30.6980   34.8410 C   0  0  0  0  0  0  0  0  0  0  0  0
   33.5290   30.5530   35.1620 C   0  0  0  0  0  0  0  0  0  0  0  0
   33.0550   31.1590   36.2750 N   0  0  0  0  0  0  0  0  0  0  0  0
   33.8590   31.9040   37.0850 C   0  0  0  0  0  0  0  0  0  0  0  0
   35.1490   32.0540   36.7950 N   0  0  0  0  0  0  0  0  0  0  0  0
   36.7320   31.6430   35.5360 H   0  0  0  0  0  0  0  0  0  0  0  0
   33.2970   32.3100   37.9260 H   0  0  0  0  0  0  0  0  0  0  0  0
   32.6480   29.7420   34.2840 C   0  0  0  0  0  0  0  0  0  0  0  0
   32.9690   29.7580   33.2370 H   0  0  0  0  0  0  0  0  0  0  0  0
   31.6000   29.9920   34.4470 H   0  0  0  0  0  0  0  0  0  0  0  0
   32.7830   28.6740   34.6150 H   0  0  0  0  0  0  0  0  0  0  0  0
   35.9210   28.0360   34.8380 O   0  0  0  0  0  0  0  0  0  0  0  0
   36.6930   28.1330   35.4900 H   0  0  0  0  0  0  0  0  0  0  0  0
   37.0360   26.8780   32.6350 O   0  0  0  0  0  0  0  0  0  0  0  0
   38.2280   25.4350   34.2680 C   0  0  0  0  0  0  0  0  0  0  0  0
   38.1240   26.4320   33.3220 C   0  0  0  0  0  0  0  0  0  0  0  0
   39.2740   27.1340   32.9660 C   0  0  0  0  0  0  0  0  0  0  0  0
   40.5160   26.8340   33.5580 C   0  0  0  0  0  0  0  0  0  0  0  0
   41.7620   27.3020   33.4420 N   0  0  0  0  0  0  0  0  0  0  0  0
   42.5910   26.6440   34.2590 C   0  0  0  0  0  0  0  0  0  0  0  0
   41.8410   25.7210   34.9200 N   0  0  0  0  0  0  0  0  0  0  0  0
   40.5510   25.8200   34.5020 C   0  0  0  0  0  0  0  0  0  0  0  0
   39.4260   25.1240   34.8580 C   0  0  0  0  0  0  0  0  0  0  0  0
   37.3020   24.9450   34.4850 H   0  0  0  0  0  0  0  0  0  0  0  0
   39.3510   27.9310   32.2510 H   0  0  0  0  0  0  0  0  0  0  0  0
   42.0380   28.0740   32.8000 H   0  0  0  0  0  0  0  0  0  0  0  0
   43.6520   26.8170   34.3690 H   0  0  0  0  0  0  0  0  0  0  0  0
   39.4900   24.0410   35.8740 C   0  0  0  0  0  3  0  0  0  0  0  0
   38.5100   24.1240   37.0150 C   0  0  0  0  0  2  0  0  0  0  0  0
   38.4510   23.0080   35.9960 C   0  0  0  0  0  2  0  0  0  0  0  0
  1  2  1  0  0  0  0
  1 22  1  0  0  0  0
  2 11  1  0  0  0  0
  3  2  2  0  0  0  0
  4  5  2  0  0  0  0
  4  3  1  0  0  0  0
  5  6  1  0  0  0  0
  6 24  1  0  0  0  0
  6  1  2  0  0  0  0
  7  3  1  0  0  0  0
  8  4  1  0  0  0  0
  9  5  1  0  0  0  0
 10 15  1  0  0  0  0
 11 12  1  0  0  0  0
 11 10  2  0  0  0  0
 12 13  2  0  0  0  0
 13 14  1  0  0  0  0
 14 17  1  0  0  0  0
 15 14  2  0  0  0  0
 16 10  1  0  0  0  0
 18 20  1  0  0  0  0
 18 21  1  0  0  0  0
 18 12  1  0  0  0  0
 19 18  1  0  0  0  0
 22 23  1  0  0  0  0
 24 26  1  0  0  0  0
 25 34  1  0  0  0  0
 25 33  1  0  0  0  0
 26 25  2  0  0  0  0
 27 26  1  0  0  0  0
 27 28  2  0  0  0  0
 28 32  1  0  0  0  0
 29 28  1  0  0  0  0
 29 30  1  0  0  0  0
 30 37  1  0  0  0  0
 30 31  2  0  0  0  0
 32 33  2  0  0  0  0
 32 31  1  0  0  0  0
 33 38  1  0  0  0  0
 35 27  1  0  0  0  0
 36 29  1  0  0  0  0
 38 40  1  0  0  0  0
 38 39  1  0  0  0  0
 40 39  1  0  0  0  0
M  END
>  <minimizedAffinity>
-5.89273739

$$$$

 OpenBabel03272509233D

 40 44  0  0  0  0  0  0  0  0999 V2000
   37.1600   27.7050   32.9580 C   0  0  0  0  0  0  0  0  0  0  0  0
   38.3870   27.2650   32.5080 C   0  0  0  0  0  0  0  0  0  0  0  0
   38.7060   27.6860   31.2160 C   0  0  0  0  0  0  0  0  0  0  0  0
   37.8380   28.4880   30.4580 C   0  0  0  0  0  0  0  0  0  0  0  0
   36.6030   28.8830   31.0150 C   0  0  0  0  0  0  0  0  0  0  0  0
   36.2690   28.4700   32.3050 C   0  0  0  0  0  0  0  0  0  0  0  0
   39.6440   27.4040   30.7540 H   0  0  0  0  0  0  0  0  0  0  0  0
   38.1030   28.8040   29.4570 H   0  0  0  0  0  0  0  0  0  0  0  0
   35.9830   29.4880   30.4010 H   0  0  0  0  0  0  0  0  0  0  0  0
   40.2640   27.0370   34.0620 C   0  0  0  0  0  0  0  0  0  0  0  0
   39.2720   26.4500   33.2790 C   0  0  0  0  0  0  0  0  0  0  0  0
   39.1900   25.0540   33.2890 C   0  0  0  0  0  0  0  0  0  0  0  0
   40.0670   24.3560   34.0480 N   0  0  0  0  0  0  0  0  0  0  0  0
   41.0210   24.9760   34.7970 C   0  0  0  0  0  0  0  0  0  0  0  0
   41.1130   26.3030   34.7990 N   0  0  0  0  0  0  0  0  0  0  0  0
   40.4080   28.1210   34.1200 H   0  0  0  0  0  0  0  0  0  0  0  0
   41.6280   24.2490   35.3360 H   0  0  0  0  0  0  0  0  0  0  0  0
   38.1520   24.3710   32.4750 C   0  0  0  0  0  0  0  0  0  0  0  0
   37.2480   24.9760   32.3540 H   0  0  0  0  0  0  0  0  0  0  0  0
   37.9810   23.3560   32.8330 H   0  0  0  0  0  0  0  0  0  0  0  0
   38.5850   24.2820   31.4390 H   0  0  0  0  0  0  0  0  0  0  0  0
   36.7350   27.3410   34.2480 O   0  0  0  0  0  0  0  0  0  0  0  0
   36.2460   26.4560   34.3410 H   0  0  0  0  0  0  0  0  0  0  0  0
   35.0450   28.8970   32.7780 O   0  0  0  0  0  0  0  0  0  0  0  0
   35.6240   30.7640   34.3120 C   0  0  0  0  0  0  0  0  0  0  0  0
   34.8290   29.7530   33.8140 C   0  0  0  0  0  0  0  0  0  0  0  0
   33.5960   29.5160   34.4220 C   0  0  0  0  0  0  0  0  0  0  0  0
   33.1700   30.2900   35.5180 C   0  0  0  0  0  0  0  0  0  0  0  0
   32.0860   30.3180   36.2970 N   0  0  0  0  0  0  0  0  0  0  0  0
   32.1920   31.2790   37.2200 C   0  0  0  0  0  0  0  0  0  0  0  0
   33.3940   31.8870   37.0180 N   0  0  0  0  0  0  0  0  0  0  0  0
   34.0180   31.2890   35.9680 C   0  0  0  0  0  0  0  0  0  0  0  0
   35.2310   31.5300   35.3780 C   0  0  0  0  0  0  0  0  0  0  0  0
   36.5510   30.8800   33.7920 H   0  0  0  0  0  0  0  0  0  0  0  0
   32.8730   28.7710   34.1490 H   0  0  0  0  0  0  0  0  0  0  0  0
   31.2740   29.6740   36.1910 H   0  0  0  0  0  0  0  0  0  0  0  0
   31.4620   31.5230   37.9780 H   0  0  0  0  0  0  0  0  0  0  0  0
   36.1220   32.6090   35.8800 C   0  0  0  0  0  3  0  0  0  0  0  0
   36.9050   33.3760   34.8470 C   0  0  0  0  0  2  0  0  0  0  0  0
   35.8270   34.0350   35.6790 C   0  0  0  0  0  2  0  0  0  0  0  0
  1 22  1  0  0  0  0
  2  1  1  0  0  0  0
  2 11  1  0  0  0  0
  3  2  2  0  0  0  0
  4  5  2  0  0  0  0
  4  3  1  0  0  0  0
  5  6  1  0  0  0  0
  6 24  1  0  0  0  0
  6  1  2  0  0  0  0
  7  3  1  0  0  0  0
  8  4  1  0  0  0  0
  9  5  1  0  0  0  0
 10 16  1  0  0  0  0
 10 15  1  0  0  0  0
 11 12  1  0  0  0  0
 11 10  2  0  0  0  0
 12 13  2  0  0  0  0
 13 14  1  0  0  0  0
 14 15  2  0  0  0  0
 14 17  1  0  0  0  0
 18 20  1  0  0  0  0
 18 12  1  0  0  0  0
 19 18  1  0  0  0  0
 21 18  1  0  0  0  0
 22 23  1  0  0  0  0
 24 26  1  0  0  0  0
 25 33  1  0  0  0  0
 26 25  2  0  0  0  0
 26 27  1  0  0  0  0
 27 28  2  0  0  0  0
 28 32  1  0  0  0  0
 28 29  1  0  0  0  0
 29 30  1  0  0  0  0
 30 37  1  0  0  0  0
 31 30  2  0  0  0  0
 32 31  1  0  0  0  0
 33 38  1  0  0  0  0
 33 32  2  0  0  0  0
 34 25  1  0  0  0  0
 35 27  1  0  0  0  0
 36 29  1  0  0  0  0
 39 40  1  0  0  0  0
 39 38  1  0  0  0  0
 40 38  1  0  0  0  0
M  END
>  <minimizedAffinity>
-5.88701677

$$$$

 OpenBabel03272509233D

 40 44  0  0  0  0  0  0  0  0999 V2000
   38.0930   25.4820   34.1690 C   0  0  0  0  0  0  0  0  0  0  0  0
   38.8430   25.3000   35.3130 C   0  0  0  0  0  0  0  0  0  0  0  0
   38.7880   26.3690   36.2090 C   0  0  0  0  0  0  0  0  0  0  0  0
   38.0290   27.5220   35.9480 C   0  0  0  0  0  0  0  0  0  0  0  0
   37.2980   27.6060   34.7450 C   0  0  0  0  0  0  0  0  0  0  0  0
   37.3420   26.5460   33.8380 C   0  0  0  0  0  0  0  0  0  0  0  0
   39.3350   26.3410   37.1420 H   0  0  0  0  0  0  0  0  0  0  0  0
   38.0000   28.3410   36.6550 H   0  0  0  0  0  0  0  0  0  0  0  0
   36.7410   28.4980   34.5950 H   0  0  0  0  0  0  0  0  0  0  0  0
   40.9340   24.0400   35.1400 C   0  0  0  0  0  0  0  0  0  0  0  0
   39.6140   24.1270   35.5790 C   0  0  0  0  0  0  0  0  0  0  0  0
   39.0980   23.0310   36.2780 C   0  0  0  0  0  0  0  0  0  0  0  0
   39.8960   21.9580   36.4880 N   0  0  0  0  0  0  0  0  0  0  0  0
   41.1820   21.9210   36.0380 C   0  0  0  0  0  0  0  0  0  0  0  0
   41.6890   22.9540   35.3720 N   0  0  0  0  0  0  0  0  0  0  0  0
   41.4280   24.8450   34.5850 H   0  0  0  0  0  0  0  0  0  0  0  0
   41.6610   20.9780   36.3040 H   0  0  0  0  0  0  0  0  0  0  0  0
   37.6980   23.0660   36.7710 C   0  0  0  0  0  0  0  0  0  0  0  0
   37.3600   24.0800   37.0080 H   0  0  0  0  0  0  0  0  0  0  0  0
   37.5460   22.3340   37.5640 H   0  0  0  0  0  0  0  0  0  0  0  0
   37.0590   22.7410   35.9020 H   0  0  0  0  0  0  0  0  0  0  0  0
   38.0740   24.4680   33.1960 O   0  0  0  0  0  0  0  0  0  0  0  0
   38.8090   24.4850   32.4960 H   0  0  0  0  0  0  0  0  0  0  0  0
   36.6000   26.7050   32.6860 O   0  0  0  0  0  0  0  0  0  0  0  0
   36.1630   28.9990   31.8390 C   0  0  0  0  0  0  0  0  0  0  0  0
   36.6950   27.7280   31.7930 C   0  0  0  0  0  0  0  0  0  0  0  0
   37.4620   27.3670   30.6860 C   0  0  0  0  0  0  0  0  0  0  0  0
   37.6890   28.2790   29.6370 C   0  0  0  0  0  0  0  0  0  0  0  0
   38.3520   28.2480   28.4780 N   0  0  0  0  0  0  0  0  0  0  0  0
   38.2450   29.4180   27.8400 C   0  0  0  0  0  0  0  0  0  0  0  0
   37.4810   30.2250   28.6270 N   0  0  0  0  0  0  0  0  0  0  0  0
   37.1240   29.5400   29.7460 C   0  0  0  0  0  0  0  0  0  0  0  0
   36.3700   29.9030   30.8310 C   0  0  0  0  0  0  0  0  0  0  0  0
   35.5900   29.1960   32.7200 H   0  0  0  0  0  0  0  0  0  0  0  0
   37.9380   26.4220   30.5080 H   0  0  0  0  0  0  0  0  0  0  0  0
   38.8790   27.4200   28.1280 H   0  0  0  0  0  0  0  0  0  0  0  0
   38.6820   29.6690   26.8850 H   0  0  0  0  0  0  0  0  0  0  0  0
   35.7760   31.2630   30.9240 C   0  0  0  0  0  3  0  0  0  0  0  0
   35.4240   31.7550   32.3030 C   0  0  0  0  0  2  0  0  0  0  0  0
   36.5090   32.4100   31.4780 C   0  0  0  0  0  2  0  0  0  0  0  0
  1  2  1  0  0  0  0
  2 11  1  0  0  0  0
  2  3  2  0  0  0  0
  3  7  1  0  0  0  0
  4  3  1  0  0  0  0
  4  8  1  0  0  0  0
  5  4  2  0  0  0  0
  6  1  2  0  0  0  0
  6  5  1  0  0  0  0
  9  5  1  0  0  0  0
 10 15  2  0  0  0  0
 10 11  1  0  0  0  0
 11 12  2  0  0  0  0
 12 13  1  0  0  0  0
 12 18  1  0  0  0  0
 14 17  1  0  0  0  0
 14 13  2  0  0  0  0
 15 14  1  0  0  0  0
 16 10  1  0  0  0  0
 18 19  1  0  0  0  0
 18 20  1  0  0  0  0
 21 18  1  0  0  0  0
 22  1  1  0  0  0  0
 23 22  1  0  0  0  0
 24  6  1  0  0  0  0
 25 34  1  0  0  0  0
 26 25  1  0  0  0  0
 26 24  1  0  0  0  0
 27 26  2  0  0  0  0
 28 32  2  0  0  0  0
 28 27  1  0  0  0  0
 29 28  1  0  0  0  0
 30 29  1  0  0  0  0
 30 31  2  0  0  0  0
 31 32  1  0  0  0  0
 32 33  1  0  0  0  0
 33 38  1  0  0  0  0
 33 25  2  0  0  0  0
 35 27  1  0  0  0  0
 36 29  1  0  0  0  0
 37 30  1  0  0  0  0
 38 40  1  0  0  0  0
 38 39  1  0  0  0  0
 40 39  1  0  0  0  0
M  END
>  <minimizedAffinity>
-5.8734827

$$$$

 OpenBabel03272509233D

 40 44  0  0  0  0  0  0  0  0999 V2000
   37.3100   27.2160   34.2030 C   0  0  0  0  0  0  0  0  0  0  0  0
   37.5800   25.8880   33.9490 C   0  0  0  0  0  0  0  0  0  0  0  0
   37.0300   25.4090   32.7590 C   0  0  0  0  0  0  0  0  0  0  0  0
   36.2680   26.2270   31.9090 C   0  0  0  0  0  0  0  0  0  0  0  0
   36.0520   27.5750   32.2630 C   0  0  0  0  0  0  0  0  0  0  0  0
   36.5950   28.0700   33.4490 C   0  0  0  0  0  0  0  0  0  0  0  0
   37.1740   24.3810   32.4530 H   0  0  0  0  0  0  0  0  0  0  0  0
   35.8490   25.8370   30.9900 H   0  0  0  0  0  0  0  0  0  0  0  0
   35.4690   28.1510   31.5870 H   0  0  0  0  0  0  0  0  0  0  0  0
   37.7420   24.3600   35.8540 C   0  0  0  0  0  0  0  0  0  0  0  0
   38.3560   25.0550   34.8140 C   0  0  0  0  0  0  0  0  0  0  0  0
   39.7370   24.8980   34.6650 C   0  0  0  0  0  0  0  0  0  0  0  0
   40.3970   24.0900   35.5280 N   0  0  0  0  0  0  0  0  0  0  0  0
   39.7520   23.4310   36.5310 C   0  0  0  0  0  0  0  0  0  0  0  0
   38.4380   23.5690   36.6870 N   0  0  0  0  0  0  0  0  0  0  0  0
   36.6670   24.4180   36.0530 H   0  0  0  0  0  0  0  0  0  0  0  0
   40.4500   22.8320   37.1170 H   0  0  0  0  0  0  0  0  0  0  0  0
   40.4460   25.6130   33.5740 C   0  0  0  0  0  0  0  0  0  0  0  0
   39.8120   25.7770   32.6970 H   0  0  0  0  0  0  0  0  0  0  0  0
   41.4090   25.1480   33.3640 H   0  0  0  0  0  0  0  0  0  0  0  0
   40.6640   26.6440   33.9740 H   0  0  0  0  0  0  0  0  0  0  0  0
   37.8170   27.8060   35.3740 O   0  0  0  0  0  0  0  0  0  0  0  0
   37.2530   27.7200   36.2150 H   0  0  0  0  0  0  0  0  0  0  0  0
   36.3390   29.3960   33.7250 O   0  0  0  0  0  0  0  0  0  0  0  0
   34.0030   29.4690   34.5670 C   0  0  0  0  0  0  0  0  0  0  0  0
   35.3130   29.8870   34.4750 C   0  0  0  0  0  0  0  0  0  0  0  0
   35.7200   30.9780   35.2410 C   0  0  0  0  0  0  0  0  0  0  0  0
   34.8140   31.6400   36.0920 C   0  0  0  0  0  0  0  0  0  0  0  0
   34.8830   32.6790   36.9290 N   0  0  0  0  0  0  0  0  0  0  0  0
   33.6980   32.8990   37.5070 C   0  0  0  0  0  0  0  0  0  0  0  0
   32.8420   31.9600   37.0170 N   0  0  0  0  0  0  0  0  0  0  0  0
   33.5120   31.1690   36.1380 C   0  0  0  0  0  0  0  0  0  0  0  0
   33.1030   30.0970   35.3880 C   0  0  0  0  0  0  0  0  0  0  0  0
   33.7720   28.6280   33.9480 H   0  0  0  0  0  0  0  0  0  0  0  0
   36.6990   31.4160   35.2760 H   0  0  0  0  0  0  0  0  0  0  0  0
   35.7470   33.2350   37.1000 H   0  0  0  0  0  0  0  0  0  0  0  0
   33.4690   33.6730   38.2250 H   0  0  0  0  0  0  0  0  0  0  0  0
   31.6990   29.6120   35.4560 C   0  0  0  0  0  3  0  0  0  0  0  0
   31.2790   28.6120   34.4110 C   0  0  0  0  0  2  0  0  0  0  0  0
   31.3550   28.2470   35.8770 C   0  0  0  0  0  2  0  0  0  0  0  0
  1 22  1  0  0  0  0
  2  1  1  0  0  0  0
  2 11  1  0  0  0  0
  3  2  2  0  0  0  0
  4  5  2  0  0  0  0
  4  3  1  0  0  0  0
  5  6  1  0  0  0  0
  6 24  1  0  0  0  0
  6  1  2  0  0  0  0
  7  3  1  0  0  0  0
  8  4  1  0  0  0  0
  9  5  1  0  0  0  0
 10 16  1  0  0  0  0
 10 15  1  0  0  0  0
 11 10  2  0  0  0  0
 12 11  1  0  0  0  0
 12 13  2  0  0  0  0
 13 14  1  0  0  0  0
 14 15  2  0  0  0  0
 14 17  1  0  0  0  0
 18 21  1  0  0  0  0
 18 12  1  0  0  0  0
 19 18  1  0  0  0  0
 20 18  1  0  0  0  0
 22 23  1  0  0  0  0
 24 26  1  0  0  0  0
 25 33  1  0  0  0  0
 26 25  2  0  0  0  0
 26 27  1  0  0  0  0
 27 35  1  0  0  0  0
 27 28  2  0  0  0  0
 28 32  1  0  0  0  0
 28 29  1  0  0  0  0
 29 36  1  0  0  0  0
 29 30  1  0  0  0  0
 30 37  1  0  0  0  0
 31 30  2  0  0  0  0
 32 31  1  0  0  0  0
 33 38  1  0  0  0  0
 33 32  2  0  0  0  0
 34 25  1  0  0  0  0
 38 40  1  0  0  0  0
 39 38  1  0  0  0  0
 39 40  1  0  0  0  0
M  END
>  <minimizedAffinity>
-5.80666161

$$$$

 OpenBabel03272509233D

 40 44  0  0  0  0  0  0  0  0999 V2000
   37.0450   27.4070   32.5870 C   0  0  0  0  0  0  0  0  0  0  0  0
   37.7810   26.2470   32.7140 C   0  0  0  0  0  0  0  0  0  0  0  0
   38.0640   25.8900   34.0330 C   0  0  0  0  0  0  0  0  0  0  0  0
   37.6280   26.6600   35.1230 C   0  0  0  0  0  0  0  0  0  0  0  0
   36.8790   27.8310   34.8820 C   0  0  0  0  0  0  0  0  0  0  0  0
   36.5880   28.2020   33.5690 C   0  0  0  0  0  0  0  0  0  0  0  0
   38.6350   24.9990   34.2580 H   0  0  0  0  0  0  0  0  0  0  0  0
   37.8580   26.3670   36.1400 H   0  0  0  0  0  0  0  0  0  0  0  0
   36.5740   28.3780   35.7400 H   0  0  0  0  0  0  0  0  0  0  0  0
   39.4640   25.7140   31.0180 C   0  0  0  0  0  0  0  0  0  0  0  0
   38.2250   25.4630   31.6050 C   0  0  0  0  0  0  0  0  0  0  0  0
   37.4580   24.4260   31.0630 C   0  0  0  0  0  0  0  0  0  0  0  0
   37.9520   23.7310   30.0120 N   0  0  0  0  0  0  0  0  0  0  0  0
   39.1710   24.0150   29.4720 C   0  0  0  0  0  0  0  0  0  0  0  0
   39.9140   24.9980   29.9750 N   0  0  0  0  0  0  0  0  0  0  0  0
   40.1370   26.5030   31.3700 H   0  0  0  0  0  0  0  0  0  0  0  0
   39.3930   23.3500   28.6370 H   0  0  0  0  0  0  0  0  0  0  0  0
   36.1300   24.1120   31.6460 C   0  0  0  0  0  0  0  0  0  0  0  0
   36.0760   24.3370   32.7170 H   0  0  0  0  0  0  0  0  0  0  0  0
   35.8120   23.1060   31.3720 H   0  0  0  0  0  0  0  0  0  0  0  0
   35.4050   24.8250   31.1610 H   0  0  0  0  0  0  0  0  0  0  0  0
   36.7010   27.8620   31.3030 O   0  0  0  0  0  0  0  0  0  0  0  0
   37.3740   28.4540   30.8270 H   0  0  0  0  0  0  0  0  0  0  0  0
   35.8520   29.3590   33.4170 O   0  0  0  0  0  0  0  0  0  0  0  0
   33.7530   29.5350   34.7340 C   0  0  0  0  0  0  0  0  0  0  0  0
   35.0160   29.9170   34.3350 C   0  0  0  0  0  0  0  0  0  0  0  0
   35.5860   31.0460   34.9230 C   0  0  0  0  0  0  0  0  0  0  0  0
   34.8900   31.7790   35.9030 C   0  0  0  0  0  0  0  0  0  0  0  0
   35.1450   32.8670   36.6360 N   0  0  0  0  0  0  0  0  0  0  0  0
   34.1140   33.1480   37.4390 C   0  0  0  0  0  0  0  0  0  0  0  0
   33.1650   32.1980   37.2070 N   0  0  0  0  0  0  0  0  0  0  0  0
   33.6250   31.3400   36.2580 C   0  0  0  0  0  0  0  0  0  0  0  0
   33.0560   30.2320   35.6850 C   0  0  0  0  0  0  0  0  0  0  0  0
   33.3890   28.6610   34.2350 H   0  0  0  0  0  0  0  0  0  0  0  0
   36.5530   31.4640   34.7180 H   0  0  0  0  0  0  0  0  0  0  0  0
   36.0300   33.4140   36.5810 H   0  0  0  0  0  0  0  0  0  0  0  0
   34.0500   33.9700   38.1360 H   0  0  0  0  0  0  0  0  0  0  0  0
   31.6970   29.7820   36.0840 C   0  0  0  0  0  3  0  0  0  0  0  0
   31.3820   28.3230   35.8850 C   0  0  0  0  0  2  0  0  0  0  0  0
   31.4580   28.9380   37.2640 C   0  0  0  0  0  2  0  0  0  0  0  0
  1  2  2  0  0  0  0
  1  6  1  0  0  0  0
  2  3  1  0  0  0  0
  3  7  1  0  0  0  0
  3  4  2  0  0  0  0
  4  8  1  0  0  0  0
  5  4  1  0  0  0  0
  5  9  1  0  0  0  0
  6  5  2  0  0  0  0
 10 16  1  0  0  0  0
 10 11  1  0  0  0  0
 11  2  1  0  0  0  0
 12 11  2  0  0  0  0
 12 18  1  0  0  0  0
 13 12  1  0  0  0  0
 14 15  1  0  0  0  0
 14 13  2  0  0  0  0
 15 10  2  0  0  0  0
 17 14  1  0  0  0  0
 18 19  1  0  0  0  0
 20 18  1  0  0  0  0
 21 18  1  0  0  0  0
 22  1  1  0  0  0  0
 23 22  1  0  0  0  0
 24  6  1  0  0  0  0
 24 26  1  0  0  0  0
 25 33  1  0  0  0  0
 26 25  2  0  0  0  0
 26 27  1  0  0  0  0
 27 28  2  0  0  0  0
 28 32  1  0  0  0  0
 28 29  1  0  0  0  0
 29 30  1  0  0  0  0
 30 37  1  0  0  0  0
 31 30  2  0  0  0  0
 32 31  1  0  0  0  0
 33 38  1  0  0  0  0
 33 32  2  0  0  0  0
 34 25  1  0  0  0  0
 35 27  1  0  0  0  0
 36 29  1  0  0  0  0
 38 40  1  0  0  0  0
 39 38  1  0  0  0  0
 39 40  1  0  0  0  0
M  END
>  <minimizedAffinity>
-5.80171442

$$$$

 OpenBabel03272509233D

 40 44  0  0  0  0  0  0  0  0999 V2000
   34.9060   30.4380   32.8840 C   0  0  0  0  0  0  0  0  0  0  0  0
   34.9670   31.7520   33.2980 C   0  0  0  0  0  0  0  0  0  0  0  0
   35.8740   32.5350   32.5830 C   0  0  0  0  0  0  0  0  0  0  0  0
   36.6490   32.0100   31.5360 C   0  0  0  0  0  0  0  0  0  0  0  0
   36.5090   30.6490   31.1930 C   0  0  0  0  0  0  0  0  0  0  0  0
   35.6070   29.8520   31.8980 C   0  0  0  0  0  0  0  0  0  0  0  0
   36.0100   33.5830   32.8160 H   0  0  0  0  0  0  0  0  0  0  0  0
   37.3480   32.6330   30.9930 H   0  0  0  0  0  0  0  0  0  0  0  0
   37.1180   30.3010   30.3950 H   0  0  0  0  0  0  0  0  0  0  0  0
   32.9440   32.8760   34.0940 C   0  0  0  0  0  0  0  0  0  0  0  0
   34.1780   32.2870   34.3630 C   0  0  0  0  0  0  0  0  0  0  0  0
   34.5930   32.2490   35.6980 C   0  0  0  0  0  0  0  0  0  0  0  0
   33.7860   32.7790   36.6460 N   0  0  0  0  0  0  0  0  0  0  0  0
   32.5860   33.3450   36.3330 C   0  0  0  0  0  0  0  0  0  0  0  0
   32.1760   33.3900   35.0690 N   0  0  0  0  0  0  0  0  0  0  0  0
   32.5330   32.9550   33.0830 H   0  0  0  0  0  0  0  0  0  0  0  0
   32.0830   33.7140   37.2280 H   0  0  0  0  0  0  0  0  0  0  0  0
   35.8990   31.6340   36.0450 C   0  0  0  0  0  0  0  0  0  0  0  0
   36.1830   30.8310   35.3560 H   0  0  0  0  0  0  0  0  0  0  0  0
   35.9350   31.3650   37.1010 H   0  0  0  0  0  0  0  0  0  0  0  0
   36.6690   32.4400   35.8880 H   0  0  0  0  0  0  0  0  0  0  0  0
   34.0250   29.5560   33.5340 O   0  0  0  0  0  0  0  0  0  0  0  0
   34.3700   29.0870   34.3660 H   0  0  0  0  0  0  0  0  0  0  0  0
   35.5280   28.5330   31.5030 O   0  0  0  0  0  0  0  0  0  0  0  0
   36.8830   27.3990   33.2490 C   0  0  0  0  0  0  0  0  0  0  0  0
   36.1630   27.4740   32.0760 C   0  0  0  0  0  0  0  0  0  0  0  0
   36.0250   26.3200   31.3050 C   0  0  0  0  0  0  0  0  0  0  0  0
   36.6060   25.1040   31.7140 C   0  0  0  0  0  0  0  0  0  0  0  0
   36.6590   23.8630   31.2230 N   0  0  0  0  0  0  0  0  0  0  0  0
   37.3630   23.0640   32.0320 C   0  0  0  0  0  0  0  0  0  0  0  0
   37.7740   23.8310   33.0800 N   0  0  0  0  0  0  0  0  0  0  0  0
   37.3170   25.0990   32.9040 C   0  0  0  0  0  0  0  0  0  0  0  0
   37.4580   26.2280   33.6680 C   0  0  0  0  0  0  0  0  0  0  0  0
   36.9420   28.3260   33.7800 H   0  0  0  0  0  0  0  0  0  0  0  0
   35.4980   26.2220   30.3750 H   0  0  0  0  0  0  0  0  0  0  0  0
   36.2090   23.5690   30.3310 H   0  0  0  0  0  0  0  0  0  0  0  0
   37.5630   22.0150   31.8790 H   0  0  0  0  0  0  0  0  0  0  0  0
   38.2260   26.1950   34.9400 C   0  0  0  0  0  3  0  0  0  0  0  0
   39.6220   26.7600   34.9030 C   0  0  0  0  0  2  0  0  0  0  0  0
   38.5240   27.4080   35.7160 C   0  0  0  0  0  2  0  0  0  0  0  0
  1  2  1  0  0  0  0
  1 22  1  0  0  0  0
  2 11  1  0  0  0  0
  3  7  1  0  0  0  0
  3  2  2  0  0  0  0
  4  3  1  0  0  0  0
  5  4  2  0  0  0  0
  5  6  1  0  0  0  0
  6  1  2  0  0  0  0
  8  4  1  0  0  0  0
  9  5  1  0  0  0  0
 10 11  2  0  0  0  0
 10 15  1  0  0  0  0
 11 12  1  0  0  0  0
 12 18  1  0  0  0  0
 12 13  2  0  0  0  0
 14 13  1  0  0  0  0
 14 17  1  0  0  0  0
 15 14  2  0  0  0  0
 16 10  1  0  0  0  0
 18 20  1  0  0  0  0
 19 18  1  0  0  0  0
 21 18  1  0  0  0  0
 22 23  1  0  0  0  0
 24  6  1  0  0  0  0
 24 26  1  0  0  0  0
 25 33  1  0  0  0  0
 25 34  1  0  0  0  0
 26 25  2  0  0  0  0
 27 28  2  0  0  0  0
 27 26  1  0  0  0  0
 28 32  1  0  0  0  0
 29 28  1  0  0  0  0
 29 30  1  0  0  0  0
 30 31  2  0  0  0  0
 32 31  1  0  0  0  0
 32 33  2  0  0  0  0
 33 38  1  0  0  0  0
 35 27  1  0  0  0  0
 36 29  1  0  0  0  0
 37 30  1  0  0  0  0
 38 40  1  0  0  0  0
 39 38  1  0  0  0  0
 39 40  1  0  0  0  0
M  END
>  <minimizedAffinity>
-5.79787588

$$$$
