
 OpenBabel03272504133D

 15 16  0  0  0  0  0  0  0  0999 V2000
   38.2130   24.0490   36.9480 C   0  0  0  0  0  0  0  0  0  0  0  0
   38.2240   25.3980   36.5410 C   0  0  0  0  0  0  0  0  0  0  0  0
   38.1880   25.6530   35.1620 C   0  0  0  0  0  0  0  0  0  0  0  0
   38.1460   24.5930   34.3100 N   0  0  0  0  0  0  0  0  0  0  0  0
   38.1360   23.3120   34.7560 C   0  0  0  0  0  0  0  0  0  0  0  0
   38.1700   23.0470   36.0660 N   0  0  0  0  0  0  0  0  0  0  0  0
   38.2590   26.2040   37.2560 H   0  0  0  0  0  0  0  0  0  0  0  0
   38.1030   22.4520   34.1090 H   0  0  0  0  0  0  0  0  0  0  0  0
   38.2510   23.7780   38.4260 C   0  0  0  0  0  0  0  0  0  0  0  0
   37.2690   22.8510   38.7570 F   0  0  0  0  0  0  0  0  0  0  0  0
   39.5070   23.3450   38.7360 F   0  0  0  0  0  0  0  0  0  0  0  0
   37.9220   24.9480   39.0810 F   0  0  0  0  0  0  0  0  0  0  0  0
   38.1960   27.0250   34.6360 C   0  0  0  0  0  3  0  0  0  0  0  0
   36.7850   27.6510   34.5620 C   0  0  0  0  0  2  0  0  0  0  0  0
   37.5950   27.3890   33.3490 C   0  0  0  0  0  2  0  0  0  0  0  0
  1  9  1  0  0  0  0
  2  1  1  0  0  0  0
  2  7  1  0  0  0  0
  3  2  2  0  0  0  0
  4  5  2  0  0  0  0
  4  3  1  0  0  0  0
  5  6  1  0  0  0  0
  6  1  2  0  0  0  0
  8  5  1  0  0  0  0
  9 11  1  0  0  0  0
  9 10  1  0  0  0  0
  9 12  1  0  0  0  0
 13  3  1  0  0  0  0
 14 13  1  0  0  0  0
 15 14  1  0  0  0  0
 15 13  1  0  0  0  0
M  END
>  <minimizedAffinity>
-4.57896996

$$$$

 OpenBabel03272504133D

 15 16  0  0  0  0  0  0  0  0999 V2000
   39.1420   23.0660   37.3770 C   0  0  0  0  0  0  0  0  0  0  0  0
   40.4810   22.7060   37.6290 C   0  0  0  0  0  0  0  0  0  0  0  0
   41.2020   22.1370   36.5690 C   0  0  0  0  0  0  0  0  0  0  0  0
   40.5730   21.9680   35.3760 N   0  0  0  0  0  0  0  0  0  0  0  0
   39.2800   22.3340   35.1870 C   0  0  0  0  0  0  0  0  0  0  0  0
   38.5740   22.8780   36.1830 N   0  0  0  0  0  0  0  0  0  0  0  0
   40.9360   22.8590   38.5940 H   0  0  0  0  0  0  0  0  0  0  0  0
   38.7520   22.2140   34.2560 H   0  0  0  0  0  0  0  0  0  0  0  0
   38.3710   23.6760   38.5140 C   0  0  0  0  0  0  0  0  0  0  0  0
   37.9480   24.9530   38.1600 F   0  0  0  0  0  0  0  0  0  0  0  0
   37.3310   22.8430   38.8040 F   0  0  0  0  0  0  0  0  0  0  0  0
   39.2350   23.8300   39.5800 F   0  0  0  0  0  0  0  0  0  0  0  0
   42.6050   21.7270   36.7310 C   0  0  0  0  0  3  0  0  0  0  0  0
   43.6060   22.8520   36.3820 C   0  0  0  0  0  2  0  0  0  0  0  0
   43.5310   21.5940   35.6020 C   0  0  0  0  0  2  0  0  0  0  0  0
  1  2  1  0  0  0  0
  1  9  1  0  0  0  0
  2  7  1  0  0  0  0
  3 13  1  0  0  0  0
  3  2  2  0  0  0  0
  4  3  1  0  0  0  0
  5  4  2  0  0  0  0
  5  6  1  0  0  0  0
  6  1  2  0  0  0  0
  8  5  1  0  0  0  0
  9 11  1  0  0  0  0
  9 12  1  0  0  0  0
 10  9  1  0  0  0  0
 14 13  1  0  0  0  0
 15 14  1  0  0  0  0
 15 13  1  0  0  0  0
M  END
>  <minimizedAffinity>
-4.31970787

$$$$

 OpenBabel03272504133D

 15 16  0  0  0  0  0  0  0  0999 V2000
   40.0150   23.0550   37.0100 C   0  0  0  0  0  0  0  0  0  0  0  0
   39.7860   23.9670   35.9590 C   0  0  0  0  0  0  0  0  0  0  0  0
   38.6500   24.7840   36.0560 C   0  0  0  0  0  0  0  0  0  0  0  0
   37.8460   24.6480   37.1440 N   0  0  0  0  0  0  0  0  0  0  0  0
   38.1130   23.7540   38.1280 C   0  0  0  0  0  0  0  0  0  0  0  0
   39.1900   22.9650   38.0570 N   0  0  0  0  0  0  0  0  0  0  0  0
   40.4530   24.0370   35.1160 H   0  0  0  0  0  0  0  0  0  0  0  0
   37.4990   23.6210   39.0020 H   0  0  0  0  0  0  0  0  0  0  0  0
   41.2330   22.1810   36.9050 C   0  0  0  0  0  0  0  0  0  0  0  0
   41.2840   21.3180   37.9950 F   0  0  0  0  0  0  0  0  0  0  0  0
   41.1670   21.5180   35.7150 F   0  0  0  0  0  0  0  0  0  0  0  0
   42.3470   22.9910   36.9940 F   0  0  0  0  0  0  0  0  0  0  0  0
   38.3230   25.7660   35.0120 C   0  0  0  0  0  3  0  0  0  0  0  0
   39.0120   27.1320   35.2340 C   0  0  0  0  0  2  0  0  0  0  0  0
   37.5390   26.9770   35.2760 C   0  0  0  0  0  2  0  0  0  0  0  0
  1  6  1  0  0  0  0
  2  3  1  0  0  0  0
  2  1  2  0  0  0  0
  3  4  2  0  0  0  0
  4  5  1  0  0  0  0
  5  8  1  0  0  0  0
  6  5  2  0  0  0  0
  7  2  1  0  0  0  0
  9 12  1  0  0  0  0
  9  1  1  0  0  0  0
  9 10  1  0  0  0  0
 11  9  1  0  0  0  0
 13 14  1  0  0  0  0
 13 15  1  0  0  0  0
 13  3  1  0  0  0  0
 14 15  1  0  0  0  0
M  END
>  <minimizedAffinity>
-4.1524806

$$$$

 OpenBabel03272504133D

 15 16  0  0  0  0  0  0  0  0999 V2000
   38.1600   23.9820   36.9710 C   0  0  0  0  0  0  0  0  0  0  0  0
   38.1190   22.8210   36.1730 C   0  0  0  0  0  0  0  0  0  0  0  0
   38.0760   23.0000   34.7820 C   0  0  0  0  0  0  0  0  0  0  0  0
   38.0760   24.2690   34.2930 N   0  0  0  0  0  0  0  0  0  0  0  0
   38.1180   25.3530   35.1070 C   0  0  0  0  0  0  0  0  0  0  0  0
   38.1580   25.2060   36.4350 N   0  0  0  0  0  0  0  0  0  0  0  0
   38.1190   21.8350   36.6090 H   0  0  0  0  0  0  0  0  0  0  0  0
   38.1190   26.3700   34.7540 H   0  0  0  0  0  0  0  0  0  0  0  0
   38.2050   23.7890   38.4610 C   0  0  0  0  0  0  0  0  0  0  0  0
   37.9630   25.0010   39.0970 F   0  0  0  0  0  0  0  0  0  0  0  0
   37.2860   22.8350   38.7840 F   0  0  0  0  0  0  0  0  0  0  0  0
   39.4910   23.4170   38.8020 F   0  0  0  0  0  0  0  0  0  0  0  0
   38.0310   21.8530   33.8640 C   0  0  0  0  0  3  0  0  0  0  0  0
   39.4040   21.5360   33.2280 C   0  0  0  0  0  2  0  0  0  0  0  0
   38.2450   21.9810   32.4190 C   0  0  0  0  0  2  0  0  0  0  0  0
  1  9  1  0  0  0  0
  2  7  1  0  0  0  0
  2  1  2  0  0  0  0
  3  2  1  0  0  0  0
  4  3  2  0  0  0  0
  4  5  1  0  0  0  0
  5  6  2  0  0  0  0
  6  1  1  0  0  0  0
  8  5  1  0  0  0  0
  9 11  1  0  0  0  0
  9 12  1  0  0  0  0
  9 10  1  0  0  0  0
 13  3  1  0  0  0  0
 14 13  1  0  0  0  0
 15 14  1  0  0  0  0
 15 13  1  0  0  0  0
M  END
>  <minimizedAffinity>
-4.06434441

$$$$

 OpenBabel03272504133D

 15 16  0  0  0  0  0  0  0  0999 V2000
   36.0980   25.8310   31.8440 C   0  0  0  0  0  0  0  0  0  0  0  0
   37.0910   25.5640   32.8070 C   0  0  0  0  0  0  0  0  0  0  0  0
   37.5790   26.6540   33.5440 C   0  0  0  0  0  0  0  0  0  0  0  0
   37.0700   27.8880   33.2860 N   0  0  0  0  0  0  0  0  0  0  0  0
   36.1130   28.0890   32.3460 C   0  0  0  0  0  0  0  0  0  0  0  0
   35.6340   27.0650   31.6330 N   0  0  0  0  0  0  0  0  0  0  0  0
   37.4630   24.5660   32.9750 H   0  0  0  0  0  0  0  0  0  0  0  0
   35.6890   29.0520   32.1170 H   0  0  0  0  0  0  0  0  0  0  0  0
   35.5760   24.6620   31.0550 C   0  0  0  0  0  0  0  0  0  0  0  0
   36.6080   24.1010   30.3110 F   0  0  0  0  0  0  0  0  0  0  0  0
   35.0260   23.7790   31.9380 F   0  0  0  0  0  0  0  0  0  0  0  0
   34.6520   25.1410   30.1470 F   0  0  0  0  0  0  0  0  0  0  0  0
   38.6150   26.4800   34.5720 C   0  0  0  0  0  3  0  0  0  0  0  0
   38.0500   25.9740   35.9190 C   0  0  0  0  0  2  0  0  0  0  0  0
   38.6840   27.3060   35.7810 C   0  0  0  0  0  2  0  0  0  0  0  0
  1  2  1  0  0  0  0
  2  7  1  0  0  0  0
  2  3  2  0  0  0  0
  3 13  1  0  0  0  0
  4  3  1  0  0  0  0
  5  4  2  0  0  0  0
  6  1  2  0  0  0  0
  6  5  1  0  0  0  0
  8  5  1  0  0  0  0
  9  1  1  0  0  0  0
  9 11  1  0  0  0  0
 10  9  1  0  0  0  0
 12  9  1  0  0  0  0
 13 15  1  0  0  0  0
 13 14  1  0  0  0  0
 15 14  1  0  0  0  0
M  END
>  <minimizedAffinity>
-4.05123377

$$$$

 OpenBabel03272504133D

 15 16  0  0  0  0  0  0  0  0999 V2000
   38.2030   24.3250   36.8890 C   0  0  0  0  0  0  0  0  0  0  0  0
   38.2830   23.3140   35.9110 C   0  0  0  0  0  0  0  0  0  0  0  0
   38.2700   23.7200   34.5680 C   0  0  0  0  0  0  0  0  0  0  0  0
   38.1800   25.0490   34.2950 N   0  0  0  0  0  0  0  0  0  0  0  0
   38.1060   25.9810   35.2770 C   0  0  0  0  0  0  0  0  0  0  0  0
   38.1170   25.6170   36.5630 N   0  0  0  0  0  0  0  0  0  0  0  0
   38.3520   22.2720   36.1780 H   0  0  0  0  0  0  0  0  0  0  0  0
   38.0350   27.0400   35.0960 H   0  0  0  0  0  0  0  0  0  0  0  0
   38.2180   23.8890   38.3280 C   0  0  0  0  0  0  0  0  0  0  0  0
   39.4460   23.3110   38.6290 F   0  0  0  0  0  0  0  0  0  0  0  0
   37.9510   24.9840   39.0960 F   0  0  0  0  0  0  0  0  0  0  0  0
   37.2700   22.8960   38.4810 F   0  0  0  0  0  0  0  0  0  0  0  0
   38.3490   22.7430   33.4720 C   0  0  0  0  0  3  0  0  0  0  0  0
   37.0240   22.6090   32.6880 C   0  0  0  0  0  2  0  0  0  0  0  0
   37.5930   21.4870   33.4700 C   0  0  0  0  0  2  0  0  0  0  0  0
  1  9  1  0  0  0  0
  2  7  1  0  0  0  0
  2  1  2  0  0  0  0
  3  2  1  0  0  0  0
  4  3  2  0  0  0  0
  4  5  1  0  0  0  0
  5  6  2  0  0  0  0
  6  1  1  0  0  0  0
  8  5  1  0  0  0  0
  9 12  1  0  0  0  0
  9 10  1  0  0  0  0
  9 11  1  0  0  0  0
 13  3  1  0  0  0  0
 14 15  1  0  0  0  0
 14 13  1  0  0  0  0
 15 13  1  0  0  0  0
M  END
>  <minimizedAffinity>
-4.03492641

$$$$

 OpenBabel03272504133D

 15 16  0  0  0  0  0  0  0  0999 V2000
   37.4190   26.6430   34.6570 C   0  0  0  0  0  0  0  0  0  0  0  0
   37.2950   25.8280   33.5140 C   0  0  0  0  0  0  0  0  0  0  0  0
   36.6250   26.3740   32.4080 C   0  0  0  0  0  0  0  0  0  0  0  0
   36.1400   27.6410   32.5070 N   0  0  0  0  0  0  0  0  0  0  0  0
   36.2890   28.3820   33.6320 C   0  0  0  0  0  0  0  0  0  0  0  0
   36.9240   27.8820   34.6970 N   0  0  0  0  0  0  0  0  0  0  0  0
   37.6960   24.8280   33.4850 H   0  0  0  0  0  0  0  0  0  0  0  0
   35.9180   29.3870   33.7430 H   0  0  0  0  0  0  0  0  0  0  0  0
   38.1380   26.0570   35.8410 C   0  0  0  0  0  0  0  0  0  0  0  0
   39.3650   25.5430   35.4360 F   0  0  0  0  0  0  0  0  0  0  0  0
   38.2660   27.0410   36.7770 F   0  0  0  0  0  0  0  0  0  0  0  0
   37.3970   24.9870   36.3020 F   0  0  0  0  0  0  0  0  0  0  0  0
   36.4420   25.6050   31.1690 C   0  0  0  0  0  3  0  0  0  0  0  0
   34.9810   25.1460   30.9540 C   0  0  0  0  0  2  0  0  0  0  0  0
   36.0880   24.1820   31.1590 C   0  0  0  0  0  2  0  0  0  0  0  0
  1  6  1  0  0  0  0
  1  9  1  0  0  0  0
  2  1  2  0  0  0  0
  3  4  2  0  0  0  0
  3  2  1  0  0  0  0
  4  5  1  0  0  0  0
  5  8  1  0  0  0  0
  5  6  2  0  0  0  0
  7  2  1  0  0  0  0
  9 12  1  0  0  0  0
  9 11  1  0  0  0  0
 10  9  1  0  0  0  0
 13  3  1  0  0  0  0
 14 15  1  0  0  0  0
 14 13  1  0  0  0  0
 15 13  1  0  0  0  0
M  END
>  <minimizedAffinity>
-3.9867487

$$$$

 OpenBabel03272504133D

 15 16  0  0  0  0  0  0  0  0999 V2000
   39.0290   25.5040   35.6620 C   0  0  0  0  0  0  0  0  0  0  0  0
   40.0030   24.4930   35.5360 C   0  0  0  0  0  0  0  0  0  0  0  0
   39.7060   23.2430   36.1010 C   0  0  0  0  0  0  0  0  0  0  0  0
   38.5100   23.0860   36.7300 N   0  0  0  0  0  0  0  0  0  0  0  0
   37.6080   24.0940   36.8210 C   0  0  0  0  0  0  0  0  0  0  0  0
   37.8700   25.2920   36.2900 N   0  0  0  0  0  0  0  0  0  0  0  0
   40.9380   24.6670   35.0290 H   0  0  0  0  0  0  0  0  0  0  0  0
   36.6530   24.0030   37.3110 H   0  0  0  0  0  0  0  0  0  0  0  0
   39.3480   26.8420   35.0550 C   0  0  0  0  0  0  0  0  0  0  0  0
   38.7270   27.8480   35.7880 F   0  0  0  0  0  0  0  0  0  0  0  0
   40.7060   26.9740   35.0320 F   0  0  0  0  0  0  0  0  0  0  0  0
   38.7950   26.8780   33.7900 F   0  0  0  0  0  0  0  0  0  0  0  0
   40.6550   22.1240   36.0250 C   0  0  0  0  0  3  0  0  0  0  0  0
   41.2350   21.7300   37.4030 C   0  0  0  0  0  2  0  0  0  0  0  0
   42.0850   22.2700   36.3160 C   0  0  0  0  0  2  0  0  0  0  0  0
  1  6  1  0  0  0  0
  2  1  2  0  0  0  0
  2  3  1  0  0  0  0
  3  4  2  0  0  0  0
  4  5  1  0  0  0  0
  5  8  1  0  0  0  0
  6  5  2  0  0  0  0
  7  2  1  0  0  0  0
  9  1  1  0  0  0  0
  9 10  1  0  0  0  0
 11  9  1  0  0  0  0
 12  9  1  0  0  0  0
 13  3  1  0  0  0  0
 13 15  1  0  0  0  0
 13 14  1  0  0  0  0
 15 14  1  0  0  0  0
M  END
>  <minimizedAffinity>
-3.96781659

$$$$

 OpenBabel03272504133D

 15 16  0  0  0  0  0  0  0  0999 V2000
   39.2470   23.0730   37.4630 C   0  0  0  0  0  0  0  0  0  0  0  0
   38.6740   22.9100   36.1860 C   0  0  0  0  0  0  0  0  0  0  0  0
   39.4610   22.2860   35.2050 C   0  0  0  0  0  0  0  0  0  0  0  0
   40.7140   21.8810   35.5430 N   0  0  0  0  0  0  0  0  0  0  0  0
   41.2160   22.0620   36.7900 C   0  0  0  0  0  0  0  0  0  0  0  0
   40.4850   22.6550   37.7390 N   0  0  0  0  0  0  0  0  0  0  0  0
   37.6750   23.2490   35.9660 H   0  0  0  0  0  0  0  0  0  0  0  0
   42.2030   21.7540   37.0900 H   0  0  0  0  0  0  0  0  0  0  0  0
   38.4030   23.7410   38.5120 C   0  0  0  0  0  0  0  0  0  0  0  0
   39.1500   23.9150   39.6720 F   0  0  0  0  0  0  0  0  0  0  0  0
   37.9560   24.9220   37.9950 F   0  0  0  0  0  0  0  0  0  0  0  0
   37.3690   22.8850   38.8360 F   0  0  0  0  0  0  0  0  0  0  0  0
   38.9550   22.0700   33.8420 C   0  0  0  0  0  3  0  0  0  0  0  0
   39.3660   23.1920   32.8620 C   0  0  0  0  0  2  0  0  0  0  0  0
   37.9500   22.9370   33.2180 C   0  0  0  0  0  2  0  0  0  0  0  0
  1  6  1  0  0  0  0
  1  9  1  0  0  0  0
  2  1  2  0  0  0  0
  3  4  2  0  0  0  0
  3  2  1  0  0  0  0
  4  5  1  0  0  0  0
  5  8  1  0  0  0  0
  5  6  2  0  0  0  0
  7  2  1  0  0  0  0
  9 12  1  0  0  0  0
  9 10  1  0  0  0  0
 11  9  1  0  0  0  0
 13  3  1  0  0  0  0
 14 15  1  0  0  0  0
 14 13  1  0  0  0  0
 15 13  1  0  0  0  0
M  END
>  <minimizedAffinity>
-3.9501965

$$$$
