
 OpenBabel03272509473D

 19 20  0  0  0  0  0  0  0  0999 V2000
   35.2940   28.5890   50.0840 O   0  0  0  0  0  0  0  0  0  0  0  0
   37.9980   30.9340   50.6200 C   0  0  0  0  0  0  0  0  0  0  0  0
   38.3550   31.1890   49.2990 C   0  0  0  0  0  0  0  0  0  0  0  0
   37.6540   30.5480   48.2810 C   0  0  0  0  0  0  0  0  0  0  0  0
   36.6490   29.6990   48.6760 N   0  0  0  0  0  0  0  0  0  0  0  0
   36.3290   29.4740   49.9500 C   0  0  0  0  0  0  0  0  0  0  0  0
   37.0110   30.0990   50.9360 N   0  0  0  0  0  0  0  0  0  0  0  0
   38.5040   31.4020   51.4670 H   0  0  0  0  0  0  0  0  0  0  0  0
   39.1680   31.8810   49.0960 H   0  0  0  0  0  0  0  0  0  0  0  0
   37.9050   30.7230   47.2490 H   0  0  0  0  0  0  0  0  0  0  0  0
   34.0890   28.8550   49.3730 C   0  0  0  0  0  0  0  0  0  0  0  0
   33.2720   29.1190   50.0670 H   0  0  0  0  0  0  0  0  0  0  0  0
   34.2150   29.7290   48.7010 H   0  0  0  0  0  0  0  0  0  0  0  0
   33.7210   27.6570   48.5380 C   0  0  0  0  0  0  0  0  0  0  0  0
   34.6030   27.0570   48.3120 H   0  0  0  0  0  0  0  0  0  0  0  0
   32.9070   27.0990   49.0250 H   0  0  0  0  0  0  0  0  0  0  0  0
   33.1950   28.2090   47.2120 C   0  0  0  0  0  3  0  0  0  0  0  0
   34.1500   28.8240   46.2640 C   0  0  0  0  0  2  0  0  0  0  0  0
   33.6090   27.4670   45.9520 C   0  0  0  0  0  2  0  0  0  0  0  0
  2  7  1  0  0  0  0
  2  8  1  0  0  0  0
  3  2  2  0  0  0  0
  4  5  2  0  0  0  0
  4  3  1  0  0  0  0
  5  6  1  0  0  0  0
  6  1  1  0  0  0  0
  6  7  2  0  0  0  0
  9  3  1  0  0  0  0
 10  4  1  0  0  0  0
 11 12  1  0  0  0  0
 11  1  1  0  0  0  0
 13 11  1  0  0  0  0
 14 16  1  0  0  0  0
 14 11  1  0  0  0  0
 15 14  1  0  0  0  0
 17 14  1  0  0  0  0
 18 17  1  0  0  0  0
 19 18  1  0  0  0  0
 19 17  1  0  0  0  0
M  END
>  <minimizedAffinity>
-3.36390638

>  <minimizedRMSD>
1.13413501

$$$$
