
 OpenBabel03272502203D

 22 24  0  0  0  0  0  0  0  0999 V2000
   36.8320   28.0270   34.0920 C   0  0  0  0  0  0  0  0  0  0  0  0
   36.7430   28.1640   32.6780 C   0  0  0  0  0  0  0  0  0  0  0  0
   36.0040   29.2330   32.1960 C   0  0  0  0  0  0  0  0  0  0  0  0
   35.4070   30.0940   33.0760 N   0  0  0  0  0  0  0  0  0  0  0  0
   35.5250   29.9170   34.4300 C   0  0  0  0  0  0  0  0  0  0  0  0
   36.2360   28.8840   34.9240 N   0  0  0  0  0  0  0  0  0  0  0  0
   37.2070   27.4950   31.9860 H   0  0  0  0  0  0  0  0  0  0  0  0
   35.8630   29.4430   31.1410 H   0  0  0  0  0  0  0  0  0  0  0  0
   32.4740   29.3540   34.8460 Br  0  0  0  0  0  0  0  0  0  0  0  0
   33.5450   30.7150   35.6550 C   0  0  0  0  0  0  0  0  0  0  0  0
   34.8900   30.8300   35.3620 C   0  0  0  0  0  0  0  0  0  0  0  0
   35.5810   31.8400   35.9920 C   0  0  0  0  0  0  0  0  0  0  0  0
   35.0180   32.7300   36.8830 C   0  0  0  0  0  0  0  0  0  0  0  0
   33.6760   32.5860   37.1510 C   0  0  0  0  0  0  0  0  0  0  0  0
   32.9510   31.5780   36.5340 C   0  0  0  0  0  0  0  0  0  0  0  0
   36.6470   31.9890   35.8070 H   0  0  0  0  0  0  0  0  0  0  0  0
   35.5660   33.5230   37.3760 H   0  0  0  0  0  0  0  0  0  0  0  0
   33.1550   33.2400   37.8380 H   0  0  0  0  0  0  0  0  0  0  0  0
   31.8860   31.4640   36.7470 H   0  0  0  0  0  0  0  0  0  0  0  0
   37.6180   26.8880   34.6330 C   0  0  0  0  0  3  0  0  0  0  0  0
   38.2720   26.9930   35.9650 C   0  0  0  0  0  2  0  0  0  0  0  0
   39.1040   27.0390   34.7120 C   0  0  0  0  0  2  0  0  0  0  0  0
  1 20  1  0  0  0  0
  1  6  1  0  0  0  0
  2  1  2  0  0  0  0
  3  2  1  0  0  0  0
  3  4  2  0  0  0  0
  4  5  1  0  0  0  0
  5  6  2  0  0  0  0
  5 11  1  0  0  0  0
  7  2  1  0  0  0  0
  8  3  1  0  0  0  0
  9 10  1  0  0  0  0
 10 15  1  0  0  0  0
 11 10  2  0  0  0  0
 11 12  1  0  0  0  0
 12 13  2  0  0  0  0
 13 14  1  0  0  0  0
 13 17  1  0  0  0  0
 14 18  1  0  0  0  0
 15 19  1  0  0  0  0
 15 14  2  0  0  0  0
 16 12  1  0  0  0  0
 20 22  1  0  0  0  0
 20 21  1  0  0  0  0
 22 21  1  0  0  0  0
M  END
>  <minimizedAffinity>
-4.81736898

$$$$

 OpenBabel03272502203D

 22 24  0  0  0  0  0  0  0  0999 V2000
   37.0380   21.9500   32.8440 C   0  0  0  0  0  0  0  0  0  0  0  0
   37.2840   23.0150   31.9330 C   0  0  0  0  0  0  0  0  0  0  0  0
   37.9200   24.1390   32.4360 C   0  0  0  0  0  0  0  0  0  0  0  0
   38.2790   24.1780   33.7550 N   0  0  0  0  0  0  0  0  0  0  0  0
   38.0190   23.1240   34.5920 C   0  0  0  0  0  0  0  0  0  0  0  0
   37.4010   22.0200   34.1270 N   0  0  0  0  0  0  0  0  0  0  0  0
   37.0060   22.9900   30.9000 H   0  0  0  0  0  0  0  0  0  0  0  0
   38.1610   25.0130   31.8410 H   0  0  0  0  0  0  0  0  0  0  0  0
   40.9390   22.1300   35.1210 Br  0  0  0  0  0  0  0  0  0  0  0  0
   39.6590   22.7620   36.3910 C   0  0  0  0  0  0  0  0  0  0  0  0
   38.4000   23.1680   35.9920 C   0  0  0  0  0  0  0  0  0  0  0  0
   37.5450   23.6080   36.9760 C   0  0  0  0  0  0  0  0  0  0  0  0
   37.8660   23.6650   38.3160 C   0  0  0  0  0  0  0  0  0  0  0  0
   39.1270   23.2530   38.6790 C   0  0  0  0  0  0  0  0  0  0  0  0
   40.0130   22.8050   37.7120 C   0  0  0  0  0  0  0  0  0  0  0  0
   36.5350   23.9430   36.7310 H   0  0  0  0  0  0  0  0  0  0  0  0
   37.1890   24.0120   39.0870 H   0  0  0  0  0  0  0  0  0  0  0  0
   39.4610   23.2660   39.7080 H   0  0  0  0  0  0  0  0  0  0  0  0
   41.0150   22.4790   38.0000 H   0  0  0  0  0  0  0  0  0  0  0  0
   36.3580   20.7350   32.3280 C   0  0  0  0  0  3  0  0  0  0  0  0
   34.8810   20.7250   32.1390 C   0  0  0  0  0  2  0  0  0  0  0  0
   35.5000   19.9580   33.2770 C   0  0  0  0  0  2  0  0  0  0  0  0
  1  6  1  0  0  0  0
  2  3  1  0  0  0  0
  2  1  2  0  0  0  0
  3  4  2  0  0  0  0
  4  5  1  0  0  0  0
  5 11  1  0  0  0  0
  6  5  2  0  0  0  0
  7  2  1  0  0  0  0
  8  3  1  0  0  0  0
  9 10  1  0  0  0  0
 10 15  1  0  0  0  0
 11 10  2  0  0  0  0
 11 12  1  0  0  0  0
 12 13  2  0  0  0  0
 13 14  1  0  0  0  0
 13 17  1  0  0  0  0
 14 18  1  0  0  0  0
 15 19  1  0  0  0  0
 15 14  2  0  0  0  0
 16 12  1  0  0  0  0
 20  1  1  0  0  0  0
 20 22  1  0  0  0  0
 21 20  1  0  0  0  0
 21 22  1  0  0  0  0
M  END
>  <minimizedAffinity>
-4.80106688

$$$$

 OpenBabel03272502203D

 22 24  0  0  0  0  0  0  0  0999 V2000
   37.6320   25.2130   32.3140 C   0  0  0  0  0  0  0  0  0  0  0  0
   38.2200   26.4770   32.0280 C   0  0  0  0  0  0  0  0  0  0  0  0
   38.9830   27.0560   33.0280 C   0  0  0  0  0  0  0  0  0  0  0  0
   39.1390   26.4060   34.2220 N   0  0  0  0  0  0  0  0  0  0  0  0
   38.5510   25.1880   34.4470 C   0  0  0  0  0  0  0  0  0  0  0  0
   37.8020   24.6040   33.4900 N   0  0  0  0  0  0  0  0  0  0  0  0
   38.1020   26.9900   31.0970 H   0  0  0  0  0  0  0  0  0  0  0  0
   39.4810   28.0140   32.9300 H   0  0  0  0  0  0  0  0  0  0  0  0
   40.9520   23.1820   34.4710 Br  0  0  0  0  0  0  0  0  0  0  0  0
   39.7320   23.5800   35.8880 C   0  0  0  0  0  0  0  0  0  0  0  0
   38.7160   24.5000   35.7140 C   0  0  0  0  0  0  0  0  0  0  0  0
   37.8860   24.7230   36.7890 C   0  0  0  0  0  0  0  0  0  0  0  0
   38.0080   24.0910   38.0100 C   0  0  0  0  0  0  0  0  0  0  0  0
   39.0300   23.1820   38.1470 C   0  0  0  0  0  0  0  0  0  0  0  0
   39.8840   22.9340   37.0840 C   0  0  0  0  0  0  0  0  0  0  0  0
   37.0620   25.4370   36.7220 H   0  0  0  0  0  0  0  0  0  0  0  0
   37.3520   24.2700   38.8520 H   0  0  0  0  0  0  0  0  0  0  0  0
   39.1980   22.6420   39.0700 H   0  0  0  0  0  0  0  0  0  0  0  0
   40.6960   22.2120   37.1930 H   0  0  0  0  0  0  0  0  0  0  0  0
   36.8080   24.5720   31.2570 C   0  0  0  0  0  3  0  0  0  0  0  0
   35.3450   24.8340   31.1830 C   0  0  0  0  0  2  0  0  0  0  0  0
   35.8480   23.5020   31.6710 C   0  0  0  0  0  2  0  0  0  0  0  0
  1  6  1  0  0  0  0
  2  1  2  0  0  0  0
  2  3  1  0  0  0  0
  3  4  2  0  0  0  0
  4  5  1  0  0  0  0
  5 11  1  0  0  0  0
  6  5  2  0  0  0  0
  7  2  1  0  0  0  0
  8  3  1  0  0  0  0
  9 10  1  0  0  0  0
 10 15  1  0  0  0  0
 11 10  2  0  0  0  0
 11 12  1  0  0  0  0
 12 13  2  0  0  0  0
 13 14  1  0  0  0  0
 13 17  1  0  0  0  0
 14 18  1  0  0  0  0
 15 19  1  0  0  0  0
 15 14  2  0  0  0  0
 16 12  1  0  0  0  0
 20 22  1  0  0  0  0
 20  1  1  0  0  0  0
 21 20  1  0  0  0  0
 21 22  1  0  0  0  0
M  END
>  <minimizedAffinity>
-4.69943333

$$$$

 OpenBabel03272502203D

 22 24  0  0  0  0  0  0  0  0999 V2000
   39.9100   23.0610   37.2250 C   0  0  0  0  0  0  0  0  0  0  0  0
   38.9790   23.1080   38.3010 C   0  0  0  0  0  0  0  0  0  0  0  0
   37.7570   23.7090   38.0490 C   0  0  0  0  0  0  0  0  0  0  0  0
   37.4970   24.2190   36.8070 N   0  0  0  0  0  0  0  0  0  0  0  0
   38.4290   24.1480   35.8040 C   0  0  0  0  0  0  0  0  0  0  0  0
   39.6260   23.5690   36.0240 N   0  0  0  0  0  0  0  0  0  0  0  0
   39.1760   22.7100   39.2740 H   0  0  0  0  0  0  0  0  0  0  0  0
   36.9680   23.8050   38.7870 H   0  0  0  0  0  0  0  0  0  0  0  0
   38.6410   27.2670   35.6700 Br  0  0  0  0  0  0  0  0  0  0  0  0
   38.2050   26.0530   34.2610 C   0  0  0  0  0  0  0  0  0  0  0  0
   38.1530   24.6900   34.4860 C   0  0  0  0  0  0  0  0  0  0  0  0
   37.8310   23.8930   33.4120 C   0  0  0  0  0  0  0  0  0  0  0  0
   37.5610   24.3660   32.1450 C   0  0  0  0  0  0  0  0  0  0  0  0
   37.6220   25.7270   31.9570 C   0  0  0  0  0  0  0  0  0  0  0  0
   37.9440   26.5590   33.0180 C   0  0  0  0  0  0  0  0  0  0  0  0
   37.7710   22.8070   33.5190 H   0  0  0  0  0  0  0  0  0  0  0  0
   37.3070   23.7340   31.3030 H   0  0  0  0  0  0  0  0  0  0  0  0
   37.4250   26.1830   30.9940 H   0  0  0  0  0  0  0  0  0  0  0  0
   37.9930   27.6400   32.8680 H   0  0  0  0  0  0  0  0  0  0  0  0
   41.2280   22.4220   37.4710 C   0  0  0  0  0  3  0  0  0  0  0  0
   42.3930   22.7480   36.6060 C   0  0  0  0  0  2  0  0  0  0  0  0
   41.7110   21.4120   36.4780 C   0  0  0  0  0  2  0  0  0  0  0  0
  1 20  1  0  0  0  0
  1  2  1  0  0  0  0
  2  7  1  0  0  0  0
  3  2  2  0  0  0  0
  3  8  1  0  0  0  0
  4  3  1  0  0  0  0
  5  6  1  0  0  0  0
  5  4  2  0  0  0  0
  6  1  2  0  0  0  0
 10 11  1  0  0  0  0
 10  9  1  0  0  0  0
 11  5  1  0  0  0  0
 12 16  1  0  0  0  0
 12 11  2  0  0  0  0
 13 12  1  0  0  0  0
 14 13  2  0  0  0  0
 14 15  1  0  0  0  0
 15 10  2  0  0  0  0
 17 13  1  0  0  0  0
 18 14  1  0  0  0  0
 19 15  1  0  0  0  0
 21 20  1  0  0  0  0
 22 21  1  0  0  0  0
 22 20  1  0  0  0  0
M  END
>  <minimizedAffinity>
-4.66561794

$$$$

 OpenBabel03272502203D

 22 24  0  0  0  0  0  0  0  0999 V2000
   38.5170   24.1190   36.1200 C   0  0  0  0  0  0  0  0  0  0  0  0
   39.8610   23.7940   35.7830 C   0  0  0  0  0  0  0  0  0  0  0  0
   40.3540   24.3090   34.5950 C   0  0  0  0  0  0  0  0  0  0  0  0
   39.5500   25.0920   33.8130 N   0  0  0  0  0  0  0  0  0  0  0  0
   38.2610   25.3750   34.1820 C   0  0  0  0  0  0  0  0  0  0  0  0
   37.7580   24.8860   35.3330 N   0  0  0  0  0  0  0  0  0  0  0  0
   40.4950   23.1840   36.3920 H   0  0  0  0  0  0  0  0  0  0  0  0
   41.3610   24.1320   34.2320 H   0  0  0  0  0  0  0  0  0  0  0  0
   36.8600   23.7990   31.8700 Br  0  0  0  0  0  0  0  0  0  0  0  0
   36.7190   25.6590   32.2860 C   0  0  0  0  0  0  0  0  0  0  0  0
   37.4090   26.2050   33.3500 C   0  0  0  0  0  0  0  0  0  0  0  0
   37.2460   27.5530   33.5740 C   0  0  0  0  0  0  0  0  0  0  0  0
   36.4480   28.3780   32.8080 C   0  0  0  0  0  0  0  0  0  0  0  0
   35.7760   27.8000   31.7560 C   0  0  0  0  0  0  0  0  0  0  0  0
   35.9170   26.4450   31.5050 C   0  0  0  0  0  0  0  0  0  0  0  0
   37.7630   28.0500   34.3980 H   0  0  0  0  0  0  0  0  0  0  0  0
   36.3240   29.4380   32.9880 H   0  0  0  0  0  0  0  0  0  0  0  0
   35.1280   28.3740   31.1060 H   0  0  0  0  0  0  0  0  0  0  0  0
   35.3830   25.9870   30.6690 H   0  0  0  0  0  0  0  0  0  0  0  0
   37.9660   23.5790   37.3880 C   0  0  0  0  0  3  0  0  0  0  0  0
   37.9460   24.4190   38.6170 C   0  0  0  0  0  2  0  0  0  0  0  0
   38.9260   23.2820   38.4970 C   0  0  0  0  0  2  0  0  0  0  0  0
  1 20  1  0  0  0  0
  2  1  1  0  0  0  0
  2  7  1  0  0  0  0
  3  2  2  0  0  0  0
  4  5  2  0  0  0  0
  4  3  1  0  0  0  0
  5  6  1  0  0  0  0
  6  1  2  0  0  0  0
  8  3  1  0  0  0  0
  9 10  1  0  0  0  0
 10 11  1  0  0  0  0
 11 12  2  0  0  0  0
 11  5  1  0  0  0  0
 12 16  1  0  0  0  0
 13 17  1  0  0  0  0
 13 12  1  0  0  0  0
 14 13  2  0  0  0  0
 15 14  1  0  0  0  0
 15 10  2  0  0  0  0
 18 14  1  0  0  0  0
 19 15  1  0  0  0  0
 20 22  1  0  0  0  0
 20 21  1  0  0  0  0
 22 21  1  0  0  0  0
M  END
>  <minimizedAffinity>
-4.66261101

$$$$

 OpenBabel03272502203D

 22 24  0  0  0  0  0  0  0  0999 V2000
   37.1230   26.9690   33.7120 C   0  0  0  0  0  0  0  0  0  0  0  0
   36.5830   28.0070   32.9020 C   0  0  0  0  0  0  0  0  0  0  0  0
   36.0820   27.6410   31.6630 C   0  0  0  0  0  0  0  0  0  0  0  0
   36.1250   26.3300   31.2770 N   0  0  0  0  0  0  0  0  0  0  0  0
   36.6570   25.3670   32.0950 C   0  0  0  0  0  0  0  0  0  0  0  0
   37.1510   25.6970   33.3050 N   0  0  0  0  0  0  0  0  0  0  0  0
   36.5460   29.0340   33.1990 H   0  0  0  0  0  0  0  0  0  0  0  0
   35.6460   28.3410   30.9580 H   0  0  0  0  0  0  0  0  0  0  0  0
   39.4340   24.4970   30.9450 Br  0  0  0  0  0  0  0  0  0  0  0  0
   37.8580   23.4360   31.1540 C   0  0  0  0  0  0  0  0  0  0  0  0
   36.7020   23.9760   31.6830 C   0  0  0  0  0  0  0  0  0  0  0  0
   35.6160   23.1370   31.7960 C   0  0  0  0  0  0  0  0  0  0  0  0
   35.6160   21.8110   31.4170 C   0  0  0  0  0  0  0  0  0  0  0  0
   36.7840   21.3070   30.8940 C   0  0  0  0  0  0  0  0  0  0  0  0
   37.8960   22.1250   30.7680 C   0  0  0  0  0  0  0  0  0  0  0  0
   34.6710   23.4990   32.2060 H   0  0  0  0  0  0  0  0  0  0  0  0
   34.7590   21.1560   31.5080 H   0  0  0  0  0  0  0  0  0  0  0  0
   36.8710   20.2770   30.5720 H   0  0  0  0  0  0  0  0  0  0  0  0
   38.8230   21.7240   30.3520 H   0  0  0  0  0  0  0  0  0  0  0  0
   37.6660   27.3360   35.0450 C   0  0  0  0  0  3  0  0  0  0  0  0
   39.1120   27.1490   35.3440 C   0  0  0  0  0  2  0  0  0  0  0  0
   38.0910   26.2270   35.9560 C   0  0  0  0  0  2  0  0  0  0  0  0
  1 20  1  0  0  0  0
  2  7  1  0  0  0  0
  2  1  2  0  0  0  0
  3  2  1  0  0  0  0
  4  3  2  0  0  0  0
  4  5  1  0  0  0  0
  5  6  2  0  0  0  0
  6  1  1  0  0  0  0
  8  3  1  0  0  0  0
  9 10  1  0  0  0  0
 10 11  1  0  0  0  0
 11 12  2  0  0  0  0
 11  5  1  0  0  0  0
 12 16  1  0  0  0  0
 13 17  1  0  0  0  0
 13 12  1  0  0  0  0
 14 13  2  0  0  0  0
 15 14  1  0  0  0  0
 15 10  2  0  0  0  0
 18 14  1  0  0  0  0
 19 15  1  0  0  0  0
 20 21  1  0  0  0  0
 20 22  1  0  0  0  0
 21 22  1  0  0  0  0
M  END
>  <minimizedAffinity>
-4.64351416

$$$$

 OpenBabel03272502203D

 22 24  0  0  0  0  0  0  0  0999 V2000
   41.0960   23.2410   36.2090 C   0  0  0  0  0  0  0  0  0  0  0  0
   40.5790   22.5190   37.3210 C   0  0  0  0  0  0  0  0  0  0  0  0
   39.3110   22.8650   37.7610 C   0  0  0  0  0  0  0  0  0  0  0  0
   38.6230   23.8610   37.1240 N   0  0  0  0  0  0  0  0  0  0  0  0
   39.1660   24.5260   36.0560 C   0  0  0  0  0  0  0  0  0  0  0  0
   40.3980   24.2090   35.6090 N   0  0  0  0  0  0  0  0  0  0  0  0
   41.1120   21.7390   37.8230 H   0  0  0  0  0  0  0  0  0  0  0  0
   38.8110   22.3880   38.5970 H   0  0  0  0  0  0  0  0  0  0  0  0
   37.9080   23.6310   33.3340 Br  0  0  0  0  0  0  0  0  0  0  0  0
   37.8190   25.3490   34.1680 C   0  0  0  0  0  0  0  0  0  0  0  0
   38.4350   25.5830   35.3820 C   0  0  0  0  0  0  0  0  0  0  0  0
   38.3180   26.8500   35.9060 C   0  0  0  0  0  0  0  0  0  0  0  0
   37.6330   27.8830   35.3000 C   0  0  0  0  0  0  0  0  0  0  0  0
   37.0330   27.6140   34.0920 C   0  0  0  0  0  0  0  0  0  0  0  0
   37.1310   26.3480   33.5360 C   0  0  0  0  0  0  0  0  0  0  0  0
   38.7800   27.1050   36.8630 H   0  0  0  0  0  0  0  0  0  0  0  0
   37.5450   28.8780   35.7160 H   0  0  0  0  0  0  0  0  0  0  0  0
   36.4760   28.3660   33.5480 H   0  0  0  0  0  0  0  0  0  0  0  0
   36.6540   26.1350   32.5770 H   0  0  0  0  0  0  0  0  0  0  0  0
   42.4520   22.8890   35.7190 C   0  0  0  0  0  3  0  0  0  0  0  0
   43.2770   21.8880   36.4490 C   0  0  0  0  0  2  0  0  0  0  0  0
   43.6270   23.3500   36.5230 C   0  0  0  0  0  2  0  0  0  0  0  0
  1  2  1  0  0  0  0
  2  3  2  0  0  0  0
  2  7  1  0  0  0  0
  3  8  1  0  0  0  0
  4  3  1  0  0  0  0
  5  4  2  0  0  0  0
  6  5  1  0  0  0  0
  6  1  2  0  0  0  0
  9 10  1  0  0  0  0
 10 11  1  0  0  0  0
 11 12  2  0  0  0  0
 11  5  1  0  0  0  0
 12 16  1  0  0  0  0
 13 17  1  0  0  0  0
 13 12  1  0  0  0  0
 14 13  2  0  0  0  0
 15 14  1  0  0  0  0
 15 10  2  0  0  0  0
 18 14  1  0  0  0  0
 19 15  1  0  0  0  0
 20  1  1  0  0  0  0
 20 21  1  0  0  0  0
 20 22  1  0  0  0  0
 21 22  1  0  0  0  0
M  END
>  <minimizedAffinity>
-4.63439274

$$$$

 OpenBabel03272502203D

 22 24  0  0  0  0  0  0  0  0999 V2000
   38.6390   23.5850   36.2060 C   0  0  0  0  0  0  0  0  0  0  0  0
   40.0490   23.5680   36.0150 C   0  0  0  0  0  0  0  0  0  0  0  0
   40.5150   23.8510   34.7410 C   0  0  0  0  0  0  0  0  0  0  0  0
   39.6230   24.1300   33.7420 N   0  0  0  0  0  0  0  0  0  0  0  0
   38.2730   24.1330   33.9790 C   0  0  0  0  0  0  0  0  0  0  0  0
   37.7940   23.8600   35.2090 N   0  0  0  0  0  0  0  0  0  0  0  0
   40.7510   23.3520   36.7930 H   0  0  0  0  0  0  0  0  0  0  0  0
   41.5650   23.8690   34.4730 H   0  0  0  0  0  0  0  0  0  0  0  0
   37.6250   27.1820   33.6980 Br  0  0  0  0  0  0  0  0  0  0  0  0
   36.9380   25.7290   32.6640 C   0  0  0  0  0  0  0  0  0  0  0  0
   37.3280   24.4280   32.9170 C   0  0  0  0  0  0  0  0  0  0  0  0
   36.7810   23.4470   32.1220 C   0  0  0  0  0  0  0  0  0  0  0  0
   35.8800   23.6830   31.1040 C   0  0  0  0  0  0  0  0  0  0  0  0
   35.5140   24.9900   30.8800 C   0  0  0  0  0  0  0  0  0  0  0  0
   36.0470   26.0020   31.6620 C   0  0  0  0  0  0  0  0  0  0  0  0
   37.0450   22.3970   32.2670 H   0  0  0  0  0  0  0  0  0  0  0  0
   35.4530   22.9070   30.4810 H   0  0  0  0  0  0  0  0  0  0  0  0
   34.8140   25.2630   30.1010 H   0  0  0  0  0  0  0  0  0  0  0  0
   35.7560   27.0390   31.4840 H   0  0  0  0  0  0  0  0  0  0  0  0
   38.1160   23.2840   37.5630 C   0  0  0  0  0  3  0  0  0  0  0  0
   37.9650   24.3710   38.5680 C   0  0  0  0  0  2  0  0  0  0  0  0
   39.0700   23.3600   38.7130 C   0  0  0  0  0  2  0  0  0  0  0  0
  1 20  1  0  0  0  0
  2  1  1  0  0  0  0
  2  7  1  0  0  0  0
  3  2  2  0  0  0  0
  4  5  2  0  0  0  0
  4  3  1  0  0  0  0
  5  6  1  0  0  0  0
  6  1  2  0  0  0  0
  8  3  1  0  0  0  0
 10 11  1  0  0  0  0
 10  9  1  0  0  0  0
 11  5  1  0  0  0  0
 12 16  1  0  0  0  0
 12 11  2  0  0  0  0
 13 12  1  0  0  0  0
 14 13  2  0  0  0  0
 14 15  1  0  0  0  0
 15 10  2  0  0  0  0
 17 13  1  0  0  0  0
 18 14  1  0  0  0  0
 19 15  1  0  0  0  0
 20 21  1  0  0  0  0
 20 22  1  0  0  0  0
 21 22  1  0  0  0  0
M  END
>  <minimizedAffinity>
-4.6136179

$$$$

 OpenBabel03272502203D

 22 24  0  0  0  0  0  0  0  0999 V2000
   38.5570   24.6650   34.8860 C   0  0  0  0  0  0  0  0  0  0  0  0
   39.5810   24.1330   35.7190 C   0  0  0  0  0  0  0  0  0  0  0  0
   39.7410   22.7570   35.7190 C   0  0  0  0  0  0  0  0  0  0  0  0
   38.9300   21.9830   34.9360 N   0  0  0  0  0  0  0  0  0  0  0  0
   37.9570   22.5440   34.1500 C   0  0  0  0  0  0  0  0  0  0  0  0
   37.7810   23.8810   34.1330 N   0  0  0  0  0  0  0  0  0  0  0  0
   40.2190   24.7340   36.3330 H   0  0  0  0  0  0  0  0  0  0  0  0
   40.4850   22.2350   36.3110 H   0  0  0  0  0  0  0  0  0  0  0  0
   35.8030   20.9610   35.7760 Br  0  0  0  0  0  0  0  0  0  0  0  0
   36.0930   20.9590   33.8870 C   0  0  0  0  0  0  0  0  0  0  0  0
   37.0970   21.7210   33.3200 C   0  0  0  0  0  0  0  0  0  0  0  0
   37.2320   21.6570   31.9520 C   0  0  0  0  0  0  0  0  0  0  0  0
   36.4370   20.8890   31.1270 C   0  0  0  0  0  0  0  0  0  0  0  0
   35.4480   20.1430   31.7250 C   0  0  0  0  0  0  0  0  0  0  0  0
   35.2850   20.1850   33.1010 C   0  0  0  0  0  0  0  0  0  0  0  0
   38.0040   22.2340   31.4390 H   0  0  0  0  0  0  0  0  0  0  0  0
   36.5480   20.8420   30.0510 H   0  0  0  0  0  0  0  0  0  0  0  0
   34.7790   19.5130   31.1520 H   0  0  0  0  0  0  0  0  0  0  0  0
   34.4990   19.5920   33.5750 H   0  0  0  0  0  0  0  0  0  0  0  0
   38.3660   26.1370   34.8690 C   0  0  0  0  0  3  0  0  0  0  0  0
   39.5080   27.0460   35.1610 C   0  0  0  0  0  2  0  0  0  0  0  0
   38.4130   26.8630   36.1770 C   0  0  0  0  0  2  0  0  0  0  0  0
  1  2  1  0  0  0  0
  2  3  2  0  0  0  0
  2  7  1  0  0  0  0
  3  8  1  0  0  0  0
  4  3  1  0  0  0  0
  5  4  2  0  0  0  0
  6  5  1  0  0  0  0
  6  1  2  0  0  0  0
 10  9  1  0  0  0  0
 11 10  1  0  0  0  0
 11  5  1  0  0  0  0
 12 11  2  0  0  0  0
 13 14  2  0  0  0  0
 13 12  1  0  0  0  0
 14 15  1  0  0  0  0
 15 19  1  0  0  0  0
 15 10  2  0  0  0  0
 16 12  1  0  0  0  0
 17 13  1  0  0  0  0
 18 14  1  0  0  0  0
 20  1  1  0  0  0  0
 20 21  1  0  0  0  0
 20 22  1  0  0  0  0
 21 22  1  0  0  0  0
M  END
>  <minimizedAffinity>
-4.59715748

$$$$
