
 OpenBabel03272510273D

 39 43  0  0  1  0  0  0  0  0999 V2000
   36.1360   30.2200   46.8740 C   0  0  0  0  0  0  0  0  0  0  0  0
   37.0410   30.7490   47.7910 C   0  0  0  0  0  0  0  0  0  0  0  0
   38.0550   31.6140   47.3850 C   0  0  0  0  0  0  0  0  0  0  0  0
   38.1100   31.9170   46.0280 C   0  0  0  0  0  0  0  0  0  0  0  0
   38.9970   32.7330   45.3880 N   0  0  0  0  0  0  0  0  0  0  0  0
   38.6580   32.7210   44.0900 C   0  0  0  0  0  0  0  0  0  0  0  0
   37.6120   31.9380   43.9110 N   0  0  0  0  0  0  0  0  0  0  0  0
   37.2340   31.4160   45.0890 C   0  0  0  0  0  0  0  0  0  0  0  0
   36.2260   30.5480   45.5320 C   0  0  0  0  0  0  0  0  0  0  0  0
   35.3430   29.5510   47.1430 H   0  0  0  0  0  0  0  0  0  0  0  0
   38.7450   32.0140   48.0980 H   0  0  0  0  0  0  0  0  0  0  0  0
   39.7710   33.2510   45.8280 H   0  0  0  0  0  0  0  0  0  0  0  0
   35.5360   30.1500   44.7990 H   0  0  0  0  0  0  0  0  0  0  0  0
   37.5470   30.1890   51.4720 C   0  0  0  0  0  0  0  0  0  0  0  0
   37.8140   30.6130   50.1800 C   0  0  0  0  0  0  0  0  0  0  0  0
   36.8840   30.3610   49.1770 C   0  0  0  0  0  0  0  0  0  0  0  0
   35.7460   29.6990   49.5360 N   0  0  0  0  0  0  0  0  0  0  0  0
   35.4950   29.2910   50.7940 C   0  0  0  0  0  0  0  0  0  0  0  0
   36.3760   29.5320   51.7390 N   0  0  0  0  0  0  0  0  0  0  0  0
   38.2630   30.3800   52.2620 H   0  0  0  0  0  0  0  0  0  0  0  0
   38.7230   31.1400   49.9040 H   0  0  0  0  0  0  0  0  0  0  0  0
   34.5640   28.7620   51.0270 H   0  0  0  0  0  0  0  0  0  0  0  0
   39.3580   33.4540   43.1310 O   0  0  0  0  0  0  0  0  0  0  0  0
   38.9710   31.5790   41.8620 N   0  0  0  0  0  0  0  0  0  0  0  0
   39.2270   32.9940   41.7950 C   0  0  1  0  0  0  0  0  0  0  0  0
   38.1440   33.6840   41.1060 C   0  0  0  0  0  0  0  0  0  0  0  0
   38.0830   33.2110   39.7850 O   0  0  0  0  0  0  0  0  0  0  0  0
   37.9580   31.8590   39.6520 C   0  0  0  0  0  0  0  0  0  0  0  0
   38.9420   31.0950   40.5130 C   0  0  1  0  0  0  0  0  0  0  0  0
   38.3180   31.2070   42.5050 H   0  0  0  0  0  0  0  0  0  0  0  0
   40.1820   33.1450   41.2690 H   0  0  0  0  0  0  0  0  0  0  0  0
   37.1320   33.6900   41.4120 H   0  0  0  0  0  0  0  0  0  0  0  0
   38.4510   34.7660   40.9810 H   0  0  0  0  0  0  0  0  0  0  0  0
   38.2160   31.6030   38.6080 H   0  0  0  0  0  0  0  0  0  0  0  0
   36.9130   31.5630   39.9240 H   0  0  0  0  0  0  0  0  0  0  0  0
   38.6210   30.0410   40.5330 H   0  0  0  0  0  0  0  0  0  0  0  0
   40.3040   31.1530   39.8650 C   0  0  0  0  0  3  0  0  0  0  0  0
   41.3990   30.2900   40.4040 C   0  0  0  0  0  2  0  0  0  0  0  0
   40.7680   29.9190   39.1110 C   0  0  0  0  0  2  0  0  0  0  0  0
  1 10  1  0  0  0  0
  1  2  1  0  0  0  0
  2 16  1  0  0  0  0
  3  2  2  0  0  0  0
  3 11  1  0  0  0  0
  4  3  1  0  0  0  0
  5 12  1  0  0  0  0
  5  4  1  0  0  0  0
  6  5  1  0  0  0  0
  7  6  2  0  0  0  0
  7  8  1  0  0  0  0
  8  9  1  0  0  0  0
  8  4  2  0  0  0  0
  9  1  2  0  0  0  0
 13  9  1  0  0  0  0
 14 19  1  0  0  0  0
 14 20  1  0  0  0  0
 15 14  2  0  0  0  0
 16 17  2  0  0  0  0
 16 15  1  0  0  0  0
 17 18  1  0  0  0  0
 18 22  1  0  0  0  0
 18 19  2  0  0  0  0
 21 15  1  0  0  0  0
 23  6  1  0  0  0  0
 24 30  1  0  0  0  0
 25 31  1  6  0  0  0
 25 24  1  0  0  0  0
 25 23  1  0  0  0  0
 26 32  1  0  0  0  0
 26 25  1  0  0  0  0
 27 26  1  0  0  0  0
 28 27  1  0  0  0  0
 28 35  1  0  0  0  0
 28 29  1  0  0  0  0
 29 36  1  1  0  0  0
 29 24  1  0  0  0  0
 33 26  1  0  0  0  0
 34 28  1  0  0  0  0
 37 38  1  0  0  0  0
 37 29  1  0  0  0  0
 39 37  1  0  0  0  0
 39 38  1  0  0  0  0
M  END
>  <minimizedAffinity>
-5.58342266

>  <minimizedRMSD>
0.633748591

$$$$
