
 OpenBabel03272501283D

 33 36  0  0  1  0  0  0  0  0999 V2000
   37.2420   27.6970   32.9190 C   0  0  0  0  0  0  0  0  0  0  0  0
   36.2690   28.6820   33.1260 C   0  0  0  0  0  0  0  0  0  0  0  0
   36.1690   29.4210   31.9420 C   0  0  0  0  0  0  0  0  0  0  0  0
   37.0590   28.8700   31.0880 N   0  0  0  0  0  0  0  0  0  0  0  0
   37.6700   27.8670   31.6870 N   0  0  0  0  0  0  0  0  0  0  0  0
   35.6610   28.9020   34.0050 H   0  0  0  0  0  0  0  0  0  0  0  0
   35.5160   30.2540   31.7530 H   0  0  0  0  0  0  0  0  0  0  0  0
   36.7580   30.5170   29.3720 N   0  0  0  0  0  0  0  0  0  0  0  0
   37.4790   30.9130   28.1690 C   0  0  0  0  0  0  0  0  0  0  0  0
   38.7790   30.1250   28.1400 C   0  0  0  0  0  0  0  0  0  0  0  0
   38.8160   29.5130   29.5330 C   0  0  0  0  0  0  0  0  0  0  0  0
   37.3520   29.2450   29.7560 C   0  0  1  0  0  0  0  0  0  0  0  0
   35.7390   30.3900   29.1900 H   0  0  0  0  0  0  0  0  0  0  0  0
   36.8650   30.5350   27.3180 H   0  0  0  0  0  0  0  0  0  0  0  0
   37.6150   31.9950   28.0970 H   0  0  0  0  0  0  0  0  0  0  0  0
   38.8350   29.3800   27.3490 H   0  0  0  0  0  0  0  0  0  0  0  0
   39.6090   30.8630   28.1280 H   0  0  0  0  0  0  0  0  0  0  0  0
   39.1410   30.2670   30.2770 H   0  0  0  0  0  0  0  0  0  0  0  0
   39.4380   28.6030   29.5810 H   0  0  0  0  0  0  0  0  0  0  0  0
   36.9480   28.1860   28.8640 N   0  0  0  0  0  0  0  0  0  0  0  0
   36.1930   27.6480   29.3190 H   0  0  0  0  0  0  0  0  0  0  0  0
   37.7350   27.5140   28.6640 H   0  0  0  0  0  0  0  0  0  0  0  0
   37.7790   27.1580   35.2990 C   0  0  0  0  0  0  0  0  0  0  0  0
   37.5900   26.7510   33.9680 C   0  0  0  0  0  0  0  0  0  0  0  0
   37.7480   25.4000   33.6770 C   0  0  0  0  0  0  0  0  0  0  0  0
   38.0710   24.5610   34.6800 N   0  0  0  0  0  0  0  0  0  0  0  0
   38.2470   24.9760   35.9570 C   0  0  0  0  0  0  0  0  0  0  0  0
   38.0970   26.2950   36.2610 N   0  0  0  0  0  0  0  0  0  0  0  0
   37.6450   28.2160   35.4770 H   0  0  0  0  0  0  0  0  0  0  0  0
   37.6050   25.0730   32.6550 H   0  0  0  0  0  0  0  0  0  0  0  0
   38.6030   24.0240   37.0430 C   0  0  0  0  0  3  0  0  0  0  0  0
   37.4620   23.2140   37.5980 C   0  0  0  0  0  2  0  0  0  0  0  0
   38.0750   24.2730   38.4300 C   0  0  0  0  0  2  0  0  0  0  0  0
  1  2  1  0  0  0  0
  1 24  1  0  0  0  0
  2  6  1  0  0  0  0
  3  2  2  0  0  0  0
  4  5  1  0  0  0  0
  4  3  1  0  0  0  0
  5  1  2  0  0  0  0
  7  3  1  0  0  0  0
  8 12  1  0  0  0  0
  9  8  1  0  0  0  0
 10  9  1  0  0  0  0
 10 11  1  0  0  0  0
 11 19  1  0  0  0  0
 11 12  1  0  0  0  0
 11 18  1  0  0  0  0
 12 20  1  6  0  0  0
 12  4  1  0  0  0  0
 13  8  1  0  0  0  0
 14  9  1  0  0  0  0
 15  9  1  0  0  0  0
 16 10  1  0  0  0  0
 17 10  1  0  0  0  0
 20 21  1  0  0  0  0
 22 20  1  0  0  0  0
 23 29  1  0  0  0  0
 23 28  1  0  0  0  0
 24 23  2  0  0  0  0
 25 24  1  0  0  0  0
 25 26  2  0  0  0  0
 26 27  1  0  0  0  0
 27 28  2  0  0  0  0
 27 31  1  0  0  0  0
 30 25  1  0  0  0  0
 31 32  1  0  0  0  0
 31 33  1  0  0  0  0
 32 33  1  0  0  0  0
M  END
>  <minimizedAffinity>
-5.30603027

$$$$

 OpenBabel03272501283D

 33 36  0  0  1  0  0  0  0  0999 V2000
   38.4150   24.8290   35.5460 C   0  0  0  0  0  0  0  0  0  0  0  0
   37.8930   24.5140   36.8060 C   0  0  0  0  0  0  0  0  0  0  0  0
   38.7480   23.5690   37.3850 C   0  0  0  0  0  0  0  0  0  0  0  0
   39.7270   23.3560   36.4780 N   0  0  0  0  0  0  0  0  0  0  0  0
   39.5050   24.1040   35.4170 N   0  0  0  0  0  0  0  0  0  0  0  0
   37.0010   24.8830   37.3150 H   0  0  0  0  0  0  0  0  0  0  0  0
   38.6450   23.1100   38.3510 H   0  0  0  0  0  0  0  0  0  0  0  0
   41.0410   21.6760   35.3820 N   0  0  0  0  0  0  0  0  0  0  0  0
   42.4060   21.1800   35.4970 C   0  0  0  0  0  0  0  0  0  0  0  0
   43.1320   22.0780   36.4860 C   0  0  0  0  0  0  0  0  0  0  0  0
   42.1490   23.2280   36.6590 C   0  0  0  0  0  0  0  0  0  0  0  0
   40.8410   22.4890   36.5720 C   0  0  1  0  0  0  0  0  0  0  0  0
   40.3460   20.8990   35.3640 H   0  0  0  0  0  0  0  0  0  0  0  0
   42.3180   20.1830   35.9870 H   0  0  0  0  0  0  0  0  0  0  0  0
   42.9060   21.0930   34.5290 H   0  0  0  0  0  0  0  0  0  0  0  0
   43.3870   21.5960   37.4280 H   0  0  0  0  0  0  0  0  0  0  0  0
   44.0000   22.5200   35.9530 H   0  0  0  0  0  0  0  0  0  0  0  0
   42.2090   23.9190   35.7940 H   0  0  0  0  0  0  0  0  0  0  0  0
   42.2850   23.7640   37.6140 H   0  0  0  0  0  0  0  0  0  0  0  0
   40.7090   21.6700   37.7510 N   0  0  0  0  0  0  0  0  0  0  0  0
   39.7060   21.5910   37.9820 H   0  0  0  0  0  0  0  0  0  0  0  0
   41.1900   22.0970   38.5870 H   0  0  0  0  0  0  0  0  0  0  0  0
   37.4660   25.5000   33.3340 C   0  0  0  0  0  0  0  0  0  0  0  0
   37.7550   25.7910   34.6780 C   0  0  0  0  0  0  0  0  0  0  0  0
   37.3860   27.0430   35.1610 C   0  0  0  0  0  0  0  0  0  0  0  0
   36.7780   27.9010   34.3200 N   0  0  0  0  0  0  0  0  0  0  0  0
   36.5090   27.5990   33.0280 C   0  0  0  0  0  0  0  0  0  0  0  0
   36.8620   26.3780   32.5370 N   0  0  0  0  0  0  0  0  0  0  0  0
   37.7700   24.5170   33.0040 H   0  0  0  0  0  0  0  0  0  0  0  0
   37.6030   27.2800   36.1950 H   0  0  0  0  0  0  0  0  0  0  0  0
   35.8350   28.5700   32.1250 C   0  0  0  0  0  3  0  0  0  0  0  0
   36.7490   29.4870   31.3580 C   0  0  0  0  0  2  0  0  0  0  0  0
   35.9130   30.0380   32.4480 C   0  0  0  0  0  2  0  0  0  0  0  0
  1  2  1  0  0  0  0
  2  6  1  0  0  0  0
  2  3  2  0  0  0  0
  3  7  1  0  0  0  0
  4 12  1  0  0  0  0
  4  3  1  0  0  0  0
  5  1  2  0  0  0  0
  5  4  1  0  0  0  0
  8  9  1  0  0  0  0
  8 12  1  0  0  0  0
  9 14  1  0  0  0  0
  9 10  1  0  0  0  0
 10 11  1  0  0  0  0
 10 16  1  0  0  0  0
 11 19  1  0  0  0  0
 12 11  1  0  0  0  0
 12 20  1  1  0  0  0
 13  8  1  0  0  0  0
 15  9  1  0  0  0  0
 17 10  1  0  0  0  0
 18 11  1  0  0  0  0
 20 21  1  0  0  0  0
 20 22  1  0  0  0  0
 23 24  1  0  0  0  0
 24 25  2  0  0  0  0
 24  1  1  0  0  0  0
 25 30  1  0  0  0  0
 26 25  1  0  0  0  0
 27 26  2  0  0  0  0
 28 27  1  0  0  0  0
 28 23  2  0  0  0  0
 29 23  1  0  0  0  0
 31 33  1  0  0  0  0
 31 27  1  0  0  0  0
 32 31  1  0  0  0  0
 32 33  1  0  0  0  0
M  END
>  <minimizedAffinity>
-5.28807545

$$$$

 OpenBabel03272501283D

 33 36  0  0  1  0  0  0  0  0999 V2000
   37.5210   25.4530   33.5750 C   0  0  0  0  0  0  0  0  0  0  0  0
   37.8730   24.3220   32.8290 C   0  0  0  0  0  0  0  0  0  0  0  0
   38.2700   23.3330   33.7350 C   0  0  0  0  0  0  0  0  0  0  0  0
   38.1460   23.8880   34.9610 N   0  0  0  0  0  0  0  0  0  0  0  0
   37.7070   25.1240   34.8350 N   0  0  0  0  0  0  0  0  0  0  0  0
   37.8700   24.1570   31.7500 H   0  0  0  0  0  0  0  0  0  0  0  0
   38.6040   22.3380   33.5030 H   0  0  0  0  0  0  0  0  0  0  0  0
   39.8330   23.0380   36.4380 N   0  0  0  0  0  0  0  0  0  0  0  0
   39.9570   22.8420   37.8770 C   0  0  0  0  0  0  0  0  0  0  0  0
   38.7300   23.4620   38.5260 C   0  0  0  0  0  0  0  0  0  0  0  0
   38.1080   24.2320   37.3690 C   0  0  0  0  0  0  0  0  0  0  0  0
   38.4190   23.3090   36.2230 C   0  0  1  0  0  0  0  0  0  0  0  0
   40.1150   22.1880   35.9050 H   0  0  0  0  0  0  0  0  0  0  0  0
   39.8710   21.7420   38.0340 H   0  0  0  0  0  0  0  0  0  0  0  0
   40.9040   23.2170   38.2730 H   0  0  0  0  0  0  0  0  0  0  0  0
   38.0450   22.7430   38.9710 H   0  0  0  0  0  0  0  0  0  0  0  0
   39.0890   24.2420   39.2300 H   0  0  0  0  0  0  0  0  0  0  0  0
   38.6550   25.1820   37.2000 H   0  0  0  0  0  0  0  0  0  0  0  0
   37.0270   24.4080   37.5070 H   0  0  0  0  0  0  0  0  0  0  0  0
   37.6260   22.1140   36.3800 N   0  0  0  0  0  0  0  0  0  0  0  0
   37.4080   21.7430   35.4420 H   0  0  0  0  0  0  0  0  0  0  0  0
   36.7080   22.3080   36.8620 H   0  0  0  0  0  0  0  0  0  0  0  0
   36.8990   26.7500   31.5320 C   0  0  0  0  0  0  0  0  0  0  0  0
   37.0590   26.6690   32.9250 C   0  0  0  0  0  0  0  0  0  0  0  0
   36.7590   27.8020   33.6770 C   0  0  0  0  0  0  0  0  0  0  0  0
   36.3360   28.9050   33.0320 N   0  0  0  0  0  0  0  0  0  0  0  0
   36.1880   28.9600   31.6870 C   0  0  0  0  0  0  0  0  0  0  0  0
   36.4770   27.8610   30.9350 N   0  0  0  0  0  0  0  0  0  0  0  0
   37.1430   25.8460   30.9910 H   0  0  0  0  0  0  0  0  0  0  0  0
   36.8780   27.7520   34.7510 H   0  0  0  0  0  0  0  0  0  0  0  0
   35.7170   30.1950   31.0040 C   0  0  0  0  0  3  0  0  0  0  0  0
   36.7980   31.1340   30.5400 C   0  0  0  0  0  2  0  0  0  0  0  0
   35.9340   31.5240   31.6770 C   0  0  0  0  0  2  0  0  0  0  0  0
  1  5  2  0  0  0  0
  2  1  1  0  0  0  0
  2  3  2  0  0  0  0
  3  4  1  0  0  0  0
  4 12  1  0  0  0  0
  5  4  1  0  0  0  0
  6  2  1  0  0  0  0
  7  3  1  0  0  0  0
  8  9  1  0  0  0  0
  9 14  1  0  0  0  0
  9 15  1  0  0  0  0
  9 10  1  0  0  0  0
 10 16  1  0  0  0  0
 10 17  1  0  0  0  0
 11 19  1  0  0  0  0
 11 10  1  0  0  0  0
 12 20  1  1  0  0  0
 12  8  1  0  0  0  0
 12 11  1  0  0  0  0
 13  8  1  0  0  0  0
 18 11  1  0  0  0  0
 20 22  1  0  0  0  0
 21 20  1  0  0  0  0
 23 24  1  0  0  0  0
 24  1  1  0  0  0  0
 24 25  2  0  0  0  0
 25 30  1  0  0  0  0
 26 25  1  0  0  0  0
 27 26  2  0  0  0  0
 28 23  2  0  0  0  0
 28 27  1  0  0  0  0
 29 23  1  0  0  0  0
 31 33  1  0  0  0  0
 31 27  1  0  0  0  0
 32 31  1  0  0  0  0
 32 33  1  0  0  0  0
M  END
>  <minimizedAffinity>
-5.16595697

$$$$

 OpenBabel03272501283D

 33 36  0  0  1  0  0  0  0  0999 V2000
   37.5430   25.2510   33.4020 C   0  0  0  0  0  0  0  0  0  0  0  0
   37.7400   24.0600   32.6940 C   0  0  0  0  0  0  0  0  0  0  0  0
   38.1130   23.0820   33.6220 C   0  0  0  0  0  0  0  0  0  0  0  0
   38.1270   23.7010   34.8230 N   0  0  0  0  0  0  0  0  0  0  0  0
   37.7900   24.9650   34.6620 N   0  0  0  0  0  0  0  0  0  0  0  0
   37.6450   23.8460   31.6280 H   0  0  0  0  0  0  0  0  0  0  0  0
   38.3420   22.0510   33.4200 H   0  0  0  0  0  0  0  0  0  0  0  0
   39.8620   22.9190   36.2820 N   0  0  0  0  0  0  0  0  0  0  0  0
   40.0210   22.7610   37.7220 C   0  0  0  0  0  0  0  0  0  0  0  0
   38.7970   23.3740   38.3830 C   0  0  0  0  0  0  0  0  0  0  0  0
   38.1350   24.1040   37.2220 C   0  0  0  0  0  0  0  0  0  0  0  0
   38.4390   23.1580   36.0910 C   0  0  1  0  0  0  0  0  0  0  0  0
   40.1480   22.0620   35.7630 H   0  0  0  0  0  0  0  0  0  0  0  0
   39.9600   21.6630   37.9070 H   0  0  0  0  0  0  0  0  0  0  0  0
   40.9700   23.1630   38.0870 H   0  0  0  0  0  0  0  0  0  0  0  0
   38.1360   22.6530   38.8600 H   0  0  0  0  0  0  0  0  0  0  0  0
   39.1570   24.1770   39.0600 H   0  0  0  0  0  0  0  0  0  0  0  0
   38.6600   25.0590   37.0180 H   0  0  0  0  0  0  0  0  0  0  0  0
   37.0550   24.2620   37.3800 H   0  0  0  0  0  0  0  0  0  0  0  0
   37.6730   21.9540   36.2950 N   0  0  0  0  0  0  0  0  0  0  0  0
   37.4410   21.5560   35.3720 H   0  0  0  0  0  0  0  0  0  0  0  0
   36.7620   22.1420   36.7930 H   0  0  0  0  0  0  0  0  0  0  0  0
   36.8040   27.6380   33.4310 C   0  0  0  0  0  0  0  0  0  0  0  0
   37.1440   26.4730   32.7230 C   0  0  0  0  0  0  0  0  0  0  0  0
   37.0880   26.5230   31.3330 C   0  0  0  0  0  0  0  0  0  0  0  0
   36.7130   27.6760   30.7470 N   0  0  0  0  0  0  0  0  0  0  0  0
   36.3900   28.7870   31.4510 C   0  0  0  0  0  0  0  0  0  0  0  0
   36.4390   28.7570   32.8120 N   0  0  0  0  0  0  0  0  0  0  0  0
   36.8630   27.5510   34.5070 H   0  0  0  0  0  0  0  0  0  0  0  0
   37.3480   25.6330   30.7750 H   0  0  0  0  0  0  0  0  0  0  0  0
   35.9800   30.0460   30.7730 C   0  0  0  0  0  3  0  0  0  0  0  0
   37.1040   30.8860   30.2270 C   0  0  0  0  0  2  0  0  0  0  0  0
   36.3450   31.3630   31.4050 C   0  0  0  0  0  2  0  0  0  0  0  0
  1  5  2  0  0  0  0
  2  1  1  0  0  0  0
  2  3  2  0  0  0  0
  3  4  1  0  0  0  0
  4 12  1  0  0  0  0
  5  4  1  0  0  0  0
  6  2  1  0  0  0  0
  7  3  1  0  0  0  0
  8  9  1  0  0  0  0
  9 14  1  0  0  0  0
  9 15  1  0  0  0  0
  9 10  1  0  0  0  0
 10 16  1  0  0  0  0
 10 17  1  0  0  0  0
 11 19  1  0  0  0  0
 11 10  1  0  0  0  0
 12  8  1  0  0  0  0
 12 20  1  1  0  0  0
 12 11  1  0  0  0  0
 13  8  1  0  0  0  0
 18 11  1  0  0  0  0
 20 22  1  0  0  0  0
 21 20  1  0  0  0  0
 23 29  1  0  0  0  0
 24  1  1  0  0  0  0
 24 23  2  0  0  0  0
 25 24  1  0  0  0  0
 26 25  2  0  0  0  0
 26 27  1  0  0  0  0
 27 28  2  0  0  0  0
 28 23  1  0  0  0  0
 30 25  1  0  0  0  0
 31 33  1  0  0  0  0
 31 27  1  0  0  0  0
 32 31  1  0  0  0  0
 32 33  1  0  0  0  0
M  END
>  <minimizedAffinity>
-5.16097498

$$$$

 OpenBabel03272501283D

 33 36  0  0  1  0  0  0  0  0999 V2000
   35.9930   28.3960   32.5420 C   0  0  0  0  0  0  0  0  0  0  0  0
   36.3150   29.3900   31.6110 C   0  0  0  0  0  0  0  0  0  0  0  0
   36.0350   30.6240   32.2070 C   0  0  0  0  0  0  0  0  0  0  0  0
   35.5680   30.3380   33.4420 N   0  0  0  0  0  0  0  0  0  0  0  0
   35.5560   29.0310   33.6080 N   0  0  0  0  0  0  0  0  0  0  0  0
   36.7100   29.3090   30.5970 H   0  0  0  0  0  0  0  0  0  0  0  0
   36.1650   31.5980   31.7710 H   0  0  0  0  0  0  0  0  0  0  0  0
   33.8460   30.8860   35.0180 N   0  0  0  0  0  0  0  0  0  0  0  0
   33.7730   31.6380   36.2640 C   0  0  0  0  0  0  0  0  0  0  0  0
   35.1930   32.0290   36.6410 C   0  0  0  0  0  0  0  0  0  0  0  0
   36.0240   31.1990   35.6720 C   0  0  0  0  0  0  0  0  0  0  0  0
   35.1420   31.2310   34.4530 C   0  0  1  0  0  0  0  0  0  0  0  0
   33.0880   31.1580   34.3550 H   0  0  0  0  0  0  0  0  0  0  0  0
   33.2460   32.5870   36.0070 H   0  0  0  0  0  0  0  0  0  0  0  0
   33.2380   31.1000   37.0510 H   0  0  0  0  0  0  0  0  0  0  0  0
   35.4000   33.0950   36.5680 H   0  0  0  0  0  0  0  0  0  0  0  0
   35.3990   31.5940   37.6410 H   0  0  0  0  0  0  0  0  0  0  0  0
   36.0850   30.1480   36.0200 H   0  0  0  0  0  0  0  0  0  0  0  0
   37.0260   31.6250   35.4960 H   0  0  0  0  0  0  0  0  0  0  0  0
   35.1460   32.5760   33.9320 N   0  0  0  0  0  0  0  0  0  0  0  0
   35.0280   32.5280   32.9070 H   0  0  0  0  0  0  0  0  0  0  0  0
   36.0570   33.0720   34.1200 H   0  0  0  0  0  0  0  0  0  0  0  0
   35.5130   26.3800   31.1460 C   0  0  0  0  0  0  0  0  0  0  0  0
   36.1700   26.9870   32.2300 C   0  0  0  0  0  0  0  0  0  0  0  0
   37.0070   26.1900   33.0060 C   0  0  0  0  0  0  0  0  0  0  0  0
   37.1390   24.8910   32.6790 N   0  0  0  0  0  0  0  0  0  0  0  0
   36.4960   24.3280   31.6290 C   0  0  0  0  0  0  0  0  0  0  0  0
   35.6730   25.0910   30.8570 N   0  0  0  0  0  0  0  0  0  0  0  0
   34.8760   27.0380   30.5720 H   0  0  0  0  0  0  0  0  0  0  0  0
   37.5190   26.6450   33.8430 H   0  0  0  0  0  0  0  0  0  0  0  0
   36.6640   22.8880   31.2930 C   0  0  0  0  0  3  0  0  0  0  0  0
   35.5720   21.9750   31.7820 C   0  0  0  0  0  2  0  0  0  0  0  0
   36.9120   21.9070   32.4080 C   0  0  0  0  0  2  0  0  0  0  0  0
  1  5  2  0  0  0  0
  2  3  2  0  0  0  0
  2  1  1  0  0  0  0
  3  4  1  0  0  0  0
  4  5  1  0  0  0  0
  4 12  1  0  0  0  0
  6  2  1  0  0  0  0
  7  3  1  0  0  0  0
  8  9  1  0  0  0  0
  9 10  1  0  0  0  0
  9 15  1  0  0  0  0
 10 17  1  0  0  0  0
 11 18  1  0  0  0  0
 11 10  1  0  0  0  0
 12 20  1  6  0  0  0
 12  8  1  0  0  0  0
 12 11  1  0  0  0  0
 13  8  1  0  0  0  0
 14  9  1  0  0  0  0
 16 10  1  0  0  0  0
 19 11  1  0  0  0  0
 20 22  1  0  0  0  0
 21 20  1  0  0  0  0
 23 24  1  0  0  0  0
 24  1  1  0  0  0  0
 24 25  2  0  0  0  0
 25 30  1  0  0  0  0
 26 25  1  0  0  0  0
 27 26  2  0  0  0  0
 28 23  2  0  0  0  0
 28 27  1  0  0  0  0
 29 23  1  0  0  0  0
 31 27  1  0  0  0  0
 31 32  1  0  0  0  0
 31 33  1  0  0  0  0
 32 33  1  0  0  0  0
M  END
>  <minimizedAffinity>
-4.95846367

$$$$

 OpenBabel03272501283D

 33 36  0  0  1  0  0  0  0  0999 V2000
   35.4780   29.1150   33.1530 C   0  0  0  0  0  0  0  0  0  0  0  0
   35.7800   29.6620   31.9010 C   0  0  0  0  0  0  0  0  0  0  0  0
   36.2390   28.6170   31.0910 C   0  0  0  0  0  0  0  0  0  0  0  0
   36.1990   27.5090   31.8640 N   0  0  0  0  0  0  0  0  0  0  0  0
   35.7520   27.8320   33.0600 N   0  0  0  0  0  0  0  0  0  0  0  0
   35.7030   30.6890   31.5400 H   0  0  0  0  0  0  0  0  0  0  0  0
   36.5580   28.6840   30.0670 H   0  0  0  0  0  0  0  0  0  0  0  0
   37.0390   25.4080   32.6580 N   0  0  0  0  0  0  0  0  0  0  0  0
   36.9680   24.0220   32.2140 C   0  0  0  0  0  0  0  0  0  0  0  0
   36.0190   23.9740   31.0280 C   0  0  0  0  0  0  0  0  0  0  0  0
   35.3890   25.3600   31.0620 C   0  0  0  0  0  0  0  0  0  0  0  0
   36.5600   26.1840   31.5240 C   0  0  1  0  0  0  0  0  0  0  0  0
   38.0140   25.6920   32.8940 H   0  0  0  0  0  0  0  0  0  0  0  0
   37.9820   23.7890   31.8120 H   0  0  0  0  0  0  0  0  0  0  0  0
   36.7040   23.3340   33.0220 H   0  0  0  0  0  0  0  0  0  0  0  0
   36.4990   23.7530   30.0770 H   0  0  0  0  0  0  0  0  0  0  0  0
   35.1960   23.2780   31.2940 H   0  0  0  0  0  0  0  0  0  0  0  0
   34.6080   25.4090   31.8480 H   0  0  0  0  0  0  0  0  0  0  0  0
   34.9950   25.6730   30.0810 H   0  0  0  0  0  0  0  0  0  0  0  0
   37.5350   26.2150   30.4610 N   0  0  0  0  0  0  0  0  0  0  0  0
   38.0360   27.1160   30.5040 H   0  0  0  0  0  0  0  0  0  0  0  0
   37.0850   26.1520   29.5090 H   0  0  0  0  0  0  0  0  0  0  0  0
   33.6040   29.9920   34.5540 C   0  0  0  0  0  0  0  0  0  0  0  0
   34.9720   29.9450   34.2340 C   0  0  0  0  0  0  0  0  0  0  0  0
   35.8390   30.7260   34.9920 C   0  0  0  0  0  0  0  0  0  0  0  0
   35.3250   31.4790   35.9830 N   0  0  0  0  0  0  0  0  0  0  0  0
   34.0030   31.5080   36.2730 C   0  0  0  0  0  0  0  0  0  0  0  0
   33.1380   30.7500   35.5430 N   0  0  0  0  0  0  0  0  0  0  0  0
   32.9700   29.3680   33.9400 H   0  0  0  0  0  0  0  0  0  0  0  0
   36.8950   30.6990   34.7560 H   0  0  0  0  0  0  0  0  0  0  0  0
   33.4660   32.3510   37.3760 C   0  0  0  0  0  3  0  0  0  0  0  0
   32.8240   33.6440   36.9520 C   0  0  0  0  0  2  0  0  0  0  0  0
   34.1210   33.6750   37.6630 C   0  0  0  0  0  2  0  0  0  0  0  0
  1 24  1  0  0  0  0
  2  1  1  0  0  0  0
  3  4  1  0  0  0  0
  3  2  2  0  0  0  0
  4  5  1  0  0  0  0
  5  1  2  0  0  0  0
  6  2  1  0  0  0  0
  7  3  1  0  0  0  0
  8 13  1  0  0  0  0
  9  8  1  0  0  0  0
  9 15  1  0  0  0  0
 10 11  1  0  0  0  0
 10 17  1  0  0  0  0
 10  9  1  0  0  0  0
 11 12  1  0  0  0  0
 11 18  1  0  0  0  0
 12 20  1  6  0  0  0
 12  4  1  0  0  0  0
 12  8  1  0  0  0  0
 14  9  1  0  0  0  0
 16 10  1  0  0  0  0
 19 11  1  0  0  0  0
 20 21  1  0  0  0  0
 22 20  1  0  0  0  0
 23 28  1  0  0  0  0
 24 23  2  0  0  0  0
 24 25  1  0  0  0  0
 25 26  2  0  0  0  0
 26 27  1  0  0  0  0
 27 31  1  0  0  0  0
 28 27  2  0  0  0  0
 29 23  1  0  0  0  0
 30 25  1  0  0  0  0
 31 33  1  0  0  0  0
 32 31  1  0  0  0  0
 32 33  1  0  0  0  0
M  END
>  <minimizedAffinity>
-4.92597294

$$$$

 OpenBabel03272501283D

 33 36  0  0  1  0  0  0  0  0999 V2000
   35.7880   28.7770   32.3710 C   0  0  0  0  0  0  0  0  0  0  0  0
   36.2280   29.1000   31.0820 C   0  0  0  0  0  0  0  0  0  0  0  0
   36.6370   27.9090   30.4720 C   0  0  0  0  0  0  0  0  0  0  0  0
   36.4320   26.9380   31.3890 N   0  0  0  0  0  0  0  0  0  0  0  0
   35.9370   27.4750   32.4860 N   0  0  0  0  0  0  0  0  0  0  0  0
   36.2790   30.0640   30.5730 H   0  0  0  0  0  0  0  0  0  0  0  0
   37.0310   27.7930   29.4790 H   0  0  0  0  0  0  0  0  0  0  0  0
   37.1390   24.9420   32.5150 N   0  0  0  0  0  0  0  0  0  0  0  0
   36.9510   23.5110   32.3160 C   0  0  0  0  0  0  0  0  0  0  0  0
   35.9610   23.3380   31.1750 C   0  0  0  0  0  0  0  0  0  0  0  0
   35.4380   24.7550   30.9850 C   0  0  0  0  0  0  0  0  0  0  0  0
   36.6820   25.5500   31.2740 C   0  0  1  0  0  0  0  0  0  0  0  0
   38.1400   25.1830   32.6790 H   0  0  0  0  0  0  0  0  0  0  0  0
   37.9300   23.1330   31.9400 H   0  0  0  0  0  0  0  0  0  0  0  0
   36.6630   22.9920   33.2350 H   0  0  0  0  0  0  0  0  0  0  0  0
   36.3910   22.9210   30.2670 H   0  0  0  0  0  0  0  0  0  0  0  0
   35.0970   22.7640   31.5730 H   0  0  0  0  0  0  0  0  0  0  0  0
   34.6890   24.9980   31.7660 H   0  0  0  0  0  0  0  0  0  0  0  0
   35.0350   24.9270   29.9730 H   0  0  0  0  0  0  0  0  0  0  0  0
   37.6200   25.3230   30.2020 N   0  0  0  0  0  0  0  0  0  0  0  0
   38.1880   26.1760   30.0800 H   0  0  0  0  0  0  0  0  0  0  0  0
   37.1350   25.1350   29.2840 H   0  0  0  0  0  0  0  0  0  0  0  0
   35.6330   31.1560   33.1190 C   0  0  0  0  0  0  0  0  0  0  0  0
   35.2930   29.8020   33.2760 C   0  0  0  0  0  0  0  0  0  0  0  0
   34.4560   29.4650   34.3360 C   0  0  0  0  0  0  0  0  0  0  0  0
   34.0230   30.4480   35.1480 N   0  0  0  0  0  0  0  0  0  0  0  0
   34.3640   31.7470   34.9770 C   0  0  0  0  0  0  0  0  0  0  0  0
   35.1810   32.0960   33.9450 N   0  0  0  0  0  0  0  0  0  0  0  0
   36.2820   31.3690   32.2820 H   0  0  0  0  0  0  0  0  0  0  0  0
   34.1860   28.4250   34.4680 H   0  0  0  0  0  0  0  0  0  0  0  0
   33.8670   32.8090   35.8920 C   0  0  0  0  0  3  0  0  0  0  0  0
   34.6560   32.9960   37.1600 C   0  0  0  0  0  2  0  0  0  0  0  0
   33.2990   32.4100   37.2280 C   0  0  0  0  0  2  0  0  0  0  0  0
  1  5  2  0  0  0  0
  1 24  1  0  0  0  0
  2  1  1  0  0  0  0
  3  2  2  0  0  0  0
  3  4  1  0  0  0  0
  4  5  1  0  0  0  0
  6  2  1  0  0  0  0
  7  3  1  0  0  0  0
  8 13  1  0  0  0  0
  9  8  1  0  0  0  0
  9 15  1  0  0  0  0
 10 17  1  0  0  0  0
 10  9  1  0  0  0  0
 11 10  1  0  0  0  0
 11 12  1  0  0  0  0
 11 18  1  0  0  0  0
 12 20  1  6  0  0  0
 12  4  1  0  0  0  0
 12  8  1  0  0  0  0
 14  9  1  0  0  0  0
 16 10  1  0  0  0  0
 19 11  1  0  0  0  0
 21 20  1  0  0  0  0
 22 20  1  0  0  0  0
 23 24  2  0  0  0  0
 23 28  1  0  0  0  0
 24 25  1  0  0  0  0
 25 30  1  0  0  0  0
 25 26  2  0  0  0  0
 27 26  1  0  0  0  0
 27 31  1  0  0  0  0
 28 27  2  0  0  0  0
 29 23  1  0  0  0  0
 31 32  1  0  0  0  0
 31 33  1  0  0  0  0
 32 33  1  0  0  0  0
M  END
>  <minimizedAffinity>
-4.81677389

$$$$

 OpenBabel03272501283D

 33 36  0  0  1  0  0  0  0  0999 V2000
   37.3300   26.8520   34.2320 C   0  0  0  0  0  0  0  0  0  0  0  0
   37.3640   27.1080   32.8560 C   0  0  0  0  0  0  0  0  0  0  0  0
   36.6370   28.2820   32.6340 C   0  0  0  0  0  0  0  0  0  0  0  0
   36.2030   28.6810   33.8500 N   0  0  0  0  0  0  0  0  0  0  0  0
   36.6230   27.8270   34.7610 N   0  0  0  0  0  0  0  0  0  0  0  0
   37.8380   26.5540   32.0450 H   0  0  0  0  0  0  0  0  0  0  0  0
   36.4610   28.7660   31.6900 H   0  0  0  0  0  0  0  0  0  0  0  0
   34.0800   29.4790   34.6300 N   0  0  0  0  0  0  0  0  0  0  0  0
   33.5980   30.6870   35.2860 C   0  0  0  0  0  0  0  0  0  0  0  0
   34.8130   31.5340   35.6280 C   0  0  0  0  0  0  0  0  0  0  0  0
   35.9620   30.5700   35.3650 C   0  0  0  0  0  0  0  0  0  0  0  0
   35.4230   29.8150   34.1800 C   0  0  1  0  0  0  0  0  0  0  0  0
   33.4890   29.2180   33.8120 H   0  0  0  0  0  0  0  0  0  0  0  0
   33.0380   31.2470   34.5010 H   0  0  0  0  0  0  0  0  0  0  0  0
   32.9530   30.4720   36.1420 H   0  0  0  0  0  0  0  0  0  0  0  0
   34.8950   32.4550   35.0530 H   0  0  0  0  0  0  0  0  0  0  0  0
   34.8110   31.6840   36.7280 H   0  0  0  0  0  0  0  0  0  0  0  0
   36.0650   29.8550   36.2060 H   0  0  0  0  0  0  0  0  0  0  0  0
   36.9130   31.0880   35.1560 H   0  0  0  0  0  0  0  0  0  0  0  0
   35.3900   30.7130   33.0520 N   0  0  0  0  0  0  0  0  0  0  0  0
   35.5450   30.1630   32.1930 H   0  0  0  0  0  0  0  0  0  0  0  0
   36.1520   31.4400   33.1010 H   0  0  0  0  0  0  0  0  0  0  0  0
   37.7880   25.2910   36.1290 C   0  0  0  0  0  0  0  0  0  0  0  0
   37.9980   25.6920   34.7980 C   0  0  0  0  0  0  0  0  0  0  0  0
   38.8750   24.9340   34.0270 C   0  0  0  0  0  0  0  0  0  0  0  0
   39.4710   23.8680   34.5940 N   0  0  0  0  0  0  0  0  0  0  0  0
   39.2530   23.5010   35.8790 C   0  0  0  0  0  0  0  0  0  0  0  0
   38.3980   24.2300   36.6500 N   0  0  0  0  0  0  0  0  0  0  0  0
   37.0990   25.9080   36.6880 H   0  0  0  0  0  0  0  0  0  0  0  0
   39.0450   25.2320   33.0010 H   0  0  0  0  0  0  0  0  0  0  0  0
   39.9270   22.3170   36.4760 C   0  0  0  0  0  3  0  0  0  0  0  0
   41.1990   22.6030   37.2280 C   0  0  0  0  0  2  0  0  0  0  0  0
   41.2650   21.8910   35.9320 C   0  0  0  0  0  2  0  0  0  0  0  0
  1  5  2  0  0  0  0
  1 24  1  0  0  0  0
  2  1  1  0  0  0  0
  3  2  2  0  0  0  0
  3  4  1  0  0  0  0
  4 12  1  0  0  0  0
  4  5  1  0  0  0  0
  6  2  1  0  0  0  0
  7  3  1  0  0  0  0
  8  9  1  0  0  0  0
  9 10  1  0  0  0  0
  9 15  1  0  0  0  0
 10 17  1  0  0  0  0
 11 10  1  0  0  0  0
 11 18  1  0  0  0  0
 12 20  1  6  0  0  0
 12  8  1  0  0  0  0
 12 11  1  0  0  0  0
 13  8  1  0  0  0  0
 14  9  1  0  0  0  0
 16 10  1  0  0  0  0
 19 11  1  0  0  0  0
 20 22  1  0  0  0  0
 21 20  1  0  0  0  0
 23 28  1  0  0  0  0
 23 29  1  0  0  0  0
 24 23  2  0  0  0  0
 25 26  2  0  0  0  0
 25 24  1  0  0  0  0
 26 27  1  0  0  0  0
 27 31  1  0  0  0  0
 27 28  2  0  0  0  0
 30 25  1  0  0  0  0
 31 32  1  0  0  0  0
 33 31  1  0  0  0  0
 33 32  1  0  0  0  0
M  END
>  <minimizedAffinity>
-4.79688644

$$$$

 OpenBabel03272501283D

 33 36  0  0  1  0  0  0  0  0999 V2000
   37.0130   27.9890   32.9870 C   0  0  0  0  0  0  0  0  0  0  0  0
   37.5590   27.9950   31.6990 C   0  0  0  0  0  0  0  0  0  0  0  0
   36.9670   29.0540   31.0020 C   0  0  0  0  0  0  0  0  0  0  0  0
   36.1100   29.6330   31.8720 N   0  0  0  0  0  0  0  0  0  0  0  0
   36.1590   28.9890   33.0210 N   0  0  0  0  0  0  0  0  0  0  0  0
   38.3030   27.3400   31.2420 H   0  0  0  0  0  0  0  0  0  0  0  0
   37.1570   29.3460   29.9850 H   0  0  0  0  0  0  0  0  0  0  0  0
   33.8700   30.4810   31.9950 N   0  0  0  0  0  0  0  0  0  0  0  0
   33.2600   31.7990   32.1110 C   0  0  0  0  0  0  0  0  0  0  0  0
   34.3830   32.8020   32.3180 C   0  0  0  0  0  0  0  0  0  0  0  0
   35.5780   31.8980   32.5820 C   0  0  0  0  0  0  0  0  0  0  0  0
   35.2630   30.7470   31.6660 C   0  0  1  0  0  0  0  0  0  0  0  0
   33.4310   29.9130   31.2390 H   0  0  0  0  0  0  0  0  0  0  0  0
   32.8290   32.0140   31.1050 H   0  0  0  0  0  0  0  0  0  0  0  0
   32.4840   31.8370   32.8800 H   0  0  0  0  0  0  0  0  0  0  0  0
   34.5420   33.4770   31.4790 H   0  0  0  0  0  0  0  0  0  0  0  0
   34.1910   33.3150   33.2830 H   0  0  0  0  0  0  0  0  0  0  0  0
   35.5520   31.5200   33.6250 H   0  0  0  0  0  0  0  0  0  0  0  0
   36.5400   32.3870   32.3540 H   0  0  0  0  0  0  0  0  0  0  0  0
   35.4020   31.2050   30.3050 N   0  0  0  0  0  0  0  0  0  0  0  0
   35.7110   30.4090   29.7240 H   0  0  0  0  0  0  0  0  0  0  0  0
   36.1310   31.9620   30.2140 H   0  0  0  0  0  0  0  0  0  0  0  0
   37.6980   27.3520   35.3040 C   0  0  0  0  0  0  0  0  0  0  0  0
   37.4210   27.0010   33.9730 C   0  0  0  0  0  0  0  0  0  0  0  0
   37.5490   25.6610   33.6190 C   0  0  0  0  0  0  0  0  0  0  0  0
   37.9300   24.7810   34.5650 N   0  0  0  0  0  0  0  0  0  0  0  0
   38.1920   25.1440   35.8430 C   0  0  0  0  0  0  0  0  0  0  0  0
   38.0720   26.4500   36.2080 N   0  0  0  0  0  0  0  0  0  0  0  0
   37.5840   28.4030   35.5320 H   0  0  0  0  0  0  0  0  0  0  0  0
   37.3380   25.3760   32.5960 H   0  0  0  0  0  0  0  0  0  0  0  0
   38.6110   24.1470   36.8650 C   0  0  0  0  0  3  0  0  0  0  0  0
   37.5280   23.2200   37.3500 C   0  0  0  0  0  2  0  0  0  0  0  0
   38.0580   24.2610   38.2600 C   0  0  0  0  0  2  0  0  0  0  0  0
  1  5  2  0  0  0  0
  1 24  1  0  0  0  0
  2  1  1  0  0  0  0
  3  2  2  0  0  0  0
  3  4  1  0  0  0  0
  4  5  1  0  0  0  0
  6  2  1  0  0  0  0
  7  3  1  0  0  0  0
  8  9  1  0  0  0  0
  9 10  1  0  0  0  0
  9 15  1  0  0  0  0
 10 11  1  0  0  0  0
 10 17  1  0  0  0  0
 11 18  1  0  0  0  0
 12 20  1  6  0  0  0
 12  4  1  0  0  0  0
 12  8  1  0  0  0  0
 12 11  1  0  0  0  0
 13  8  1  0  0  0  0
 14  9  1  0  0  0  0
 16 10  1  0  0  0  0
 19 11  1  0  0  0  0
 21 20  1  0  0  0  0
 22 20  1  0  0  0  0
 23 29  1  0  0  0  0
 23 28  1  0  0  0  0
 24 23  2  0  0  0  0
 25 24  1  0  0  0  0
 25 26  2  0  0  0  0
 26 27  1  0  0  0  0
 27 28  2  0  0  0  0
 27 31  1  0  0  0  0
 30 25  1  0  0  0  0
 31 32  1  0  0  0  0
 31 33  1  0  0  0  0
 32 33  1  0  0  0  0
M  END
>  <minimizedAffinity>
-4.79232645

$$$$
