
 OpenBabel03272510333D

 22 24  0  0  0  0  0  0  0  0999 V2000
   36.1060   30.2840   48.4260 C   0  0  0  0  0  0  0  0  0  0  0  0
   35.1780   29.8310   47.5090 C   0  0  0  0  0  0  0  0  0  0  0  0
   34.0620   29.1390   47.9170 C   0  0  0  0  0  0  0  0  0  0  0  0
   33.8850   28.9050   49.2550 C   0  0  0  0  0  0  0  0  0  0  0  0
   34.7980   29.3460   50.2020 C   0  0  0  0  0  0  0  0  0  0  0  0
   35.9330   30.0490   49.7940 C   0  0  0  0  0  0  0  0  0  0  0  0
   35.3430   30.0300   46.4460 H   0  0  0  0  0  0  0  0  0  0  0  0
   33.3770   28.8150   47.1410 H   0  0  0  0  0  0  0  0  0  0  0  0
   33.0020   28.3600   49.5550 H   0  0  0  0  0  0  0  0  0  0  0  0
   34.6680   29.1660   51.2660 H   0  0  0  0  0  0  0  0  0  0  0  0
   38.5860   32.9260   48.0430 C   0  0  0  0  0  0  0  0  0  0  0  0
   39.4260   32.4730   47.0280 C   0  0  0  0  0  0  0  0  0  0  0  0
   39.1220   31.2090   46.4570 C   0  0  0  0  0  0  0  0  0  0  0  0
   38.0460   30.5320   46.9320 N   0  0  0  0  0  0  0  0  0  0  0  0
   37.2710   31.0140   47.9110 C   0  0  0  0  0  0  0  0  0  0  0  0
   37.5490   32.2070   48.4580 N   0  0  0  0  0  0  0  0  0  0  0  0
   38.8840   33.8840   48.4190 H   0  0  0  0  0  0  0  0  0  0  0  0
   40.2900   32.9250   46.5860 H   0  0  0  0  0  0  0  0  0  0  0  0
   39.6520   30.6970   45.6660 H   0  0  0  0  0  0  0  0  0  0  0  0
   36.9690   30.5630   50.7270 C   0  0  0  0  0  3  0  0  0  0  0  0
   37.1960   29.8210   52.0290 C   0  0  0  0  0  2  0  0  0  0  0  0
   38.2260   29.8140   50.9410 C   0  0  0  0  0  2  0  0  0  0  0  0
  1  6  1  0  0  0  0
  2  3  1  0  0  0  0
  2  1  2  0  0  0  0
  3  4  2  0  0  0  0
  4  9  1  0  0  0  0
  4  5  1  0  0  0  0
  5 10  1  0  0  0  0
  6  5  2  0  0  0  0
  6 20  1  0  0  0  0
  7  2  1  0  0  0  0
  8  3  1  0  0  0  0
 11 17  1  0  0  0  0
 11 16  1  0  0  0  0
 12 11  2  0  0  0  0
 13 14  2  0  0  0  0
 13 12  1  0  0  0  0
 14 15  1  0  0  0  0
 15  1  1  0  0  0  0
 15 16  2  0  0  0  0
 18 12  1  0  0  0  0
 19 13  1  0  0  0  0
 20 22  1  0  0  0  0
 20 21  1  0  0  0  0
 22 21  1  0  0  0  0
M  END
>  <minimizedAffinity>
-5.37601137

>  <minimizedRMSD>
1.04556906

$$$$
