
 OpenBabel03272505123D

 33 36  0  0  0  0  0  0  0  0999 V2000
   36.4090   30.8970   45.7230 Cl  0  0  0  0  0  0  0  0  0  0  0  0
   36.6980   30.7840   47.4380 C   0  0  0  0  0  0  0  0  0  0  0  0
   37.9560   31.1160   47.8950 C   0  0  0  0  0  0  0  0  0  0  0  0
   38.1940   31.0300   49.2550 C   0  0  0  0  0  0  0  0  0  0  0  0
   37.2060   30.6270   50.0980 C   0  0  0  0  0  0  0  0  0  0  0  0
   35.9500   30.3030   49.5730 C   0  0  0  0  0  0  0  0  0  0  0  0
   35.6380   30.3640   48.2440 C   0  0  0  0  0  0  0  0  0  0  0  0
   39.1790   31.2890   49.6210 H   0  0  0  0  0  0  0  0  0  0  0  0
   37.4180   30.5690   51.1490 H   0  0  0  0  0  0  0  0  0  0  0  0
   35.1720   29.9820   50.2630 H   0  0  0  0  0  0  0  0  0  0  0  0
   40.2190   33.3200   46.0790 C   0  0  0  0  0  0  0  0  0  0  0  0
   40.9210   32.4620   45.2110 C   0  0  0  0  0  0  0  0  0  0  0  0
   40.5960   31.1020   45.2670 C   0  0  0  0  0  0  0  0  0  0  0  0
   39.6340   30.6890   46.1430 N   0  0  0  0  0  0  0  0  0  0  0  0
   39.0000   31.5500   46.9420 C   0  0  0  0  0  0  0  0  0  0  0  0
   39.2890   32.8510   46.9110 N   0  0  0  0  0  0  0  0  0  0  0  0
   40.5080   34.3590   45.9970 H   0  0  0  0  0  0  0  0  0  0  0  0
   41.6790   32.7060   44.5060 H   0  0  0  0  0  0  0  0  0  0  0  0
   41.0500   30.3350   44.6640 H   0  0  0  0  0  0  0  0  0  0  0  0
   34.0690   29.9620   47.5640 S   0  0  0  0  0  0  0  0  0  0  0  0
   33.8310   29.2420   44.5150 Cl  0  0  0  0  0  0  0  0  0  0  0  0
   33.8440   27.9840   45.7450 C   0  0  0  0  0  0  0  0  0  0  0  0
   33.9470   28.2300   47.1140 C   0  0  0  0  0  0  0  0  0  0  0  0
   33.9480   27.1770   47.9950 C   0  0  0  0  0  0  0  0  0  0  0  0
   33.8500   25.8950   47.5450 C   0  0  0  0  0  0  0  0  0  0  0  0
   33.7470   25.6020   46.2000 C   0  0  0  0  0  0  0  0  0  0  0  0
   33.7470   26.6570   45.3350 C   0  0  0  0  0  0  0  0  0  0  0  0
   34.0320   27.4740   49.0320 H   0  0  0  0  0  0  0  0  0  0  0  0
   33.8570   25.1100   48.2900 H   0  0  0  0  0  0  0  0  0  0  0  0
   33.6710   24.5780   45.9020 H   0  0  0  0  0  0  0  0  0  0  0  0
   33.6360   26.3810   43.8790 C   0  0  0  0  0  3  0  0  0  0  0  0
   34.8820   26.0450   43.1500 C   0  0  0  0  0  2  0  0  0  0  0  0
   33.7990   24.9630   43.3770 C   0  0  0  0  0  2  0  0  0  0  0  0
  1  2  1  0  0  0  0
  2  3  2  0  0  0  0
  2  7  1  0  0  0  0
  3  4  1  0  0  0  0
  4  8  1  0  0  0  0
  4  5  2  0  0  0  0
  5  9  1  0  0  0  0
  6  5  1  0  0  0  0
  6 10  1  0  0  0  0
  7  6  2  0  0  0  0
 11 16  1  0  0  0  0
 12 13  1  0  0  0  0
 12 11  2  0  0  0  0
 13 14  2  0  0  0  0
 14 15  1  0  0  0  0
 15  3  1  0  0  0  0
 16 15  2  0  0  0  0
 17 11  1  0  0  0  0
 18 12  1  0  0  0  0
 19 13  1  0  0  0  0
 20  7  1  0  0  0  0
 21 22  1  0  0  0  0
 22 23  1  0  0  0  0
 23 20  1  0  0  0  0
 23 24  2  0  0  0  0
 24 28  1  0  0  0  0
 25 24  1  0  0  0  0
 25 29  1  0  0  0  0
 26 25  2  0  0  0  0
 27 22  2  0  0  0  0
 27 26  1  0  0  0  0
 30 26  1  0  0  0  0
 31 27  1  0  0  0  0
 32 33  1  0  0  0  0
 32 31  1  0  0  0  0
 33 31  1  0  0  0  0
M  END
>  <minimizedAffinity>
-5.67736959

>  <minimizedRMSD>
0.488503486

$$$$
