
 OpenBabel03272509113D

 22 24  0  0  0  0  0  0  0  0999 V2000
   35.9130   29.8980   48.4950 C   0  0  0  0  0  0  0  0  0  0  0  0
   37.1790   30.3980   48.0990 C   0  0  0  0  0  0  0  0  0  0  0  0
   37.3740   30.6970   46.7660 C   0  0  0  0  0  0  0  0  0  0  0  0
   36.3620   30.5060   45.8640 N   0  0  0  0  0  0  0  0  0  0  0  0
   35.1480   30.0170   46.2870 C   0  0  0  0  0  0  0  0  0  0  0  0
   34.9460   29.7230   47.5930 N   0  0  0  0  0  0  0  0  0  0  0  0
   35.7640   29.6680   49.5360 H   0  0  0  0  0  0  0  0  0  0  0  0
   34.3770   29.8810   45.5400 H   0  0  0  0  0  0  0  0  0  0  0  0
   38.6240   31.2560   46.2540 C   0  0  0  0  0  0  0  0  0  0  0  0
   38.8040   32.6270   46.4530 C   0  0  0  0  0  0  0  0  0  0  0  0
   39.9740   33.2280   45.9780 C   0  0  0  0  0  0  0  0  0  0  0  0
   40.9150   32.4450   45.3250 C   0  0  0  0  0  0  0  0  0  0  0  0
   40.7520   31.0850   45.1190 C   0  0  0  0  0  0  0  0  0  0  0  0
   39.5730   30.4980   45.6030 C   0  0  0  0  0  0  0  0  0  0  0  0
   38.1530   33.3330   46.9290 H   0  0  0  0  0  0  0  0  0  0  0  0
   40.1920   34.2740   46.0890 H   0  0  0  0  0  0  0  0  0  0  0  0
   41.8350   32.9080   44.9480 H   0  0  0  0  0  0  0  0  0  0  0  0
   41.5150   30.5520   44.6110 H   0  0  0  0  0  0  0  0  0  0  0  0
   39.4220   29.4560   45.4580 H   0  0  0  0  0  0  0  0  0  0  0  0
   38.2360   30.5130   49.1440 C   0  0  0  0  0  0  0  0  0  0  0  0
   38.2520   31.8850   49.9020 C   0  0  0  0  0  0  0  0  0  0  0  0
   37.7940   30.6800   50.5830 C   0  0  0  0  0  0  0  0  0  0  0  0
  1  7  1  0  0  0  0
  2  1  1  0  0  0  0
  2 20  1  0  0  0  0
  3  2  2  0  0  0  0
  4  5  2  0  0  0  0
  4  3  1  0  0  0  0
  5  6  1  0  0  0  0
  6  1  2  0  0  0  0
  8  5  1  0  0  0  0
  9 10  1  0  0  0  0
  9  3  1  0  0  0  0
 10 15  1  0  0  0  0
 11 16  1  0  0  0  0
 11 10  2  0  0  0  0
 12 11  1  0  0  0  0
 13 12  2  0  0  0  0
 13 14  1  0  0  0  0
 14  9  2  0  0  0  0
 17 12  1  0  0  0  0
 18 13  1  0  0  0  0
 19 14  1  0  0  0  0
 20 21  1  0  0  0  0
 20 22  1  0  0  0  0
 21 22  1  0  0  0  0
M  END
>  <minimizedAffinity>
-5.38591528

>  <minimizedRMSD>
2.5256145

$$$$
