
 OpenBabel03272506563D

 14 15  0  0  0  0  0  0  0  0999 V2000
   38.8480   32.9240   48.4630 C   0  0  0  0  0  0  0  0  0  0  0  0
   38.6020   32.4340   47.1730 C   0  0  0  0  0  0  0  0  0  0  0  0
   37.6820   31.3620   47.0650 C   0  0  0  0  0  0  0  0  0  0  0  0
   37.0980   30.8760   48.1930 N   0  0  0  0  0  0  0  0  0  0  0  0
   37.3780   31.3920   49.3980 C   0  0  0  0  0  0  0  0  0  0  0  0
   38.2430   32.4110   49.5730 N   0  0  0  0  0  0  0  0  0  0  0  0
   39.5570   33.7420   48.4950 H   0  0  0  0  0  0  0  0  0  0  0  0
   37.4610   30.9510   46.1020 H   0  0  0  0  0  0  0  0  0  0  0  0
   39.2450   32.9860   46.0380 N   0  0  0  0  0  0  0  0  0  0  0  0
   38.8110   33.2120   45.1250 H   0  0  0  0  0  0  0  0  0  0  0  0
   40.2740   33.1840   46.1460 H   0  0  0  0  0  0  0  0  0  0  0  0
   36.7340   30.8530   50.6260 C   0  0  0  0  0  3  0  0  0  0  0  0
   37.4750   29.6570   51.2550 C   0  0  0  0  0  2  0  0  0  0  0  0
   36.0910   29.5180   50.6070 C   0  0  0  0  0  2  0  0  0  0  0  0
  1  7  1  0  0  0  0
  1  6  1  0  0  0  0
  2  1  2  0  0  0  0
  3  2  1  0  0  0  0
  3  4  2  0  0  0  0
  4  5  1  0  0  0  0
  5  6  2  0  0  0  0
  5 12  1  0  0  0  0
  8  3  1  0  0  0  0
  9 11  1  0  0  0  0
  9  2  1  0  0  0  0
 10  9  1  0  0  0  0
 12 13  1  0  0  0  0
 14 12  1  0  0  0  0
 14 13  1  0  0  0  0
M  END
>  <minimizedAffinity>
-4.26048851

>  <minimizedRMSD>
4.0850091

$$$$
