
 OpenBabel03262521383D

 22 24  0  0  0  0  0  0  0  0999 V2000
   38.5370   31.9930   48.3170 F   0  0  0  0  0  0  0  0  0  0  0  0
   37.9210   31.5890   47.1550 C   0  0  0  0  0  0  0  0  0  0  0  0
   36.8270   30.7470   47.1590 C   0  0  0  0  0  0  0  0  0  0  0  0
   36.2420   30.3680   45.9590 C   0  0  0  0  0  0  0  0  0  0  0  0
   36.7490   30.8320   44.7490 C   0  0  0  0  0  0  0  0  0  0  0  0
   37.8460   31.6720   44.8010 C   0  0  0  0  0  0  0  0  0  0  0  0
   38.4490   32.0680   45.9580 C   0  0  0  0  0  0  0  0  0  0  0  0
   35.3880   29.7080   46.0020 H   0  0  0  0  0  0  0  0  0  0  0  0
   36.2670   30.5160   43.8300 H   0  0  0  0  0  0  0  0  0  0  0  0
   38.2060   32.0070   43.8520 H   0  0  0  0  0  0  0  0  0  0  0  0
   37.3300   29.6730   49.2330 C   0  0  0  0  0  0  0  0  0  0  0  0
   36.3630   30.3110   48.4450 C   0  0  0  0  0  0  0  0  0  0  0  0
   35.0800   30.4510   48.9820 C   0  0  0  0  0  0  0  0  0  0  0  0
   34.8430   29.9600   50.2420 N   0  0  0  0  0  0  0  0  0  0  0  0
   35.8060   29.3560   50.9590 C   0  0  0  0  0  0  0  0  0  0  0  0
   37.0380   29.2120   50.4640 N   0  0  0  0  0  0  0  0  0  0  0  0
   38.3680   29.4880   48.9610 H   0  0  0  0  0  0  0  0  0  0  0  0
   34.3810   30.9400   48.3500 H   0  0  0  0  0  0  0  0  0  0  0  0
   35.4120   29.0450   51.9190 H   0  0  0  0  0  0  0  0  0  0  0  0
   39.6230   32.9700   45.9980 C   0  0  0  0  0  0  0  0  0  0  0  0
   40.1690   33.6530   44.8230 C   0  0  0  0  0  0  0  0  0  0  0  0
   40.8500   32.4280   45.2980 C   0  0  0  0  0  0  0  0  0  0  0  0
  2  3  1  0  0  0  0
  2  1  1  0  0  0  0
  3 12  1  0  0  0  0
  4  8  1  0  0  0  0
  4  3  2  0  0  0  0
  5  6  2  0  0  0  0
  5  4  1  0  0  0  0
  6  7  1  0  0  0  0
  7 20  1  0  0  0  0
  7  2  2  0  0  0  0
  9  5  1  0  0  0  0
 10  6  1  0  0  0  0
 11 16  1  0  0  0  0
 12 13  1  0  0  0  0
 12 11  2  0  0  0  0
 13 14  2  0  0  0  0
 14 15  1  0  0  0  0
 15 19  1  0  0  0  0
 16 15  2  0  0  0  0
 17 11  1  0  0  0  0
 18 13  1  0  0  0  0
 21 22  1  0  0  0  0
 21 20  1  0  0  0  0
 22 20  1  0  0  0  0
M  END
>  <minimizedAffinity>
-5.35524797

>  <minimizedRMSD>
3.51711249

$$$$
