
 OpenBabel03262520173D

 12 13  0  0  0  0  0  0  0  0999 V2000
   37.4170   30.1500   51.4130 C   0  0  0  0  0  0  0  0  0  0  0  0
   37.8900   30.9010   50.3200 C   0  0  0  0  0  0  0  0  0  0  0  0
   37.1260   30.9060   49.1390 C   0  0  0  0  0  0  0  0  0  0  0  0
   35.9710   30.1770   49.1380 N   0  0  0  0  0  0  0  0  0  0  0  0
   35.5520   29.4700   50.2080 C   0  0  0  0  0  0  0  0  0  0  0  0
   36.2780   29.4560   51.3530 N   0  0  0  0  0  0  0  0  0  0  0  0
   37.9970   30.1390   52.3290 H   0  0  0  0  0  0  0  0  0  0  0  0
   38.8310   31.4620   50.3980 H   0  0  0  0  0  0  0  0  0  0  0  0
   34.6020   28.9520   50.0110 H   0  0  0  0  0  0  0  0  0  0  0  0
   37.5670   31.6660   47.9690 C   0  0  0  0  0  3  0  0  0  0  0  0
   38.9410   32.1220   47.7670 C   0  0  0  0  0  2  0  0  0  0  0  0
   38.4800   30.8650   47.0310 C   0  0  0  0  0  2  0  0  0  0  0  0
  1  7  1  0  0  0  0
  2  8  1  0  0  0  0
  2  1  2  0  0  0  0
  3  2  1  0  0  0  0
  4  3  2  0  0  0  0
  4  5  1  0  0  0  0
  5  6  2  0  0  0  0
  6  1  1  0  0  0  0
  9  5  1  0  0  0  0
 10  3  1  0  0  0  0
 11 10  1  0  0  0  0
 12 11  1  0  0  0  0
 12 10  1  0  0  0  0
M  END
>  <minimizedAffinity>
-3.78066826

>  <minimizedRMSD>
0.892043769

$$$$
