
 OpenBabel03272505123D

 33 36  0  0  0  0  0  0  0  0999 V2000
   36.4030   30.8400   45.6250 Cl  0  0  0  0  0  0  0  0  0  0  0  0
   36.6630   30.7030   47.3430 C   0  0  0  0  0  0  0  0  0  0  0  0
   37.9100   31.0420   47.8270 C   0  0  0  0  0  0  0  0  0  0  0  0
   38.1250   30.9370   49.1900 C   0  0  0  0  0  0  0  0  0  0  0  0
   37.1280   30.5100   50.0090 C   0  0  0  0  0  0  0  0  0  0  0  0
   35.8840   30.1800   49.4570 C   0  0  0  0  0  0  0  0  0  0  0  0
   35.5950   30.2580   48.1240 C   0  0  0  0  0  0  0  0  0  0  0  0
   39.1010   31.2010   49.5760 H   0  0  0  0  0  0  0  0  0  0  0  0
   37.3220   30.4380   51.0630 H   0  0  0  0  0  0  0  0  0  0  0  0
   35.0980   29.8400   50.1280 H   0  0  0  0  0  0  0  0  0  0  0  0
   40.1790   33.2990   46.0840 C   0  0  0  0  0  0  0  0  0  0  0  0
   40.9050   32.4620   45.2160 C   0  0  0  0  0  0  0  0  0  0  0  0
   40.5950   31.0970   45.2450 C   0  0  0  0  0  0  0  0  0  0  0  0
   39.6220   30.6600   46.0980 N   0  0  0  0  0  0  0  0  0  0  0  0
   38.9650   31.5020   46.8990 C   0  0  0  0  0  0  0  0  0  0  0  0
   39.2400   32.8060   46.8930 N   0  0  0  0  0  0  0  0  0  0  0  0
   40.4570   34.3420   46.0230 H   0  0  0  0  0  0  0  0  0  0  0  0
   41.6720   32.7250   44.5280 H   0  0  0  0  0  0  0  0  0  0  0  0
   41.0680   30.3450   44.6380 H   0  0  0  0  0  0  0  0  0  0  0  0
   34.0430   29.8510   47.4110 S   0  0  0  0  0  0  0  0  0  0  0  0
   33.8310   29.0200   44.3880 Cl  0  0  0  0  0  0  0  0  0  0  0  0
   33.8210   27.8090   45.6630 C   0  0  0  0  0  0  0  0  0  0  0  0
   33.9120   28.1040   47.0230 C   0  0  0  0  0  0  0  0  0  0  0  0
   33.8950   27.0840   47.9420 C   0  0  0  0  0  0  0  0  0  0  0  0
   33.7910   25.7870   47.5380 C   0  0  0  0  0  0  0  0  0  0  0  0
   33.7000   25.4450   46.2040 C   0  0  0  0  0  0  0  0  0  0  0  0
   33.7170   26.4680   45.3010 C   0  0  0  0  0  0  0  0  0  0  0  0
   33.9700   27.4180   48.9690 H   0  0  0  0  0  0  0  0  0  0  0  0
   33.7830   25.0300   48.3110 H   0  0  0  0  0  0  0  0  0  0  0  0
   33.6190   24.4130   45.9430 H   0  0  0  0  0  0  0  0  0  0  0  0
   33.6190   26.1400   43.8550 C   0  0  0  0  0  3  0  0  0  0  0  0
   34.8340   25.6110   43.1910 C   0  0  0  0  0  2  0  0  0  0  0  0
   33.6120   24.6910   43.4200 C   0  0  0  0  0  2  0  0  0  0  0  0
  1  2  1  0  0  0  0
  2  3  2  0  0  0  0
  2  7  1  0  0  0  0
  3  4  1  0  0  0  0
  4  8  1  0  0  0  0
  4  5  2  0  0  0  0
  5  9  1  0  0  0  0
  6  5  1  0  0  0  0
  6 10  1  0  0  0  0
  7  6  2  0  0  0  0
 11 16  1  0  0  0  0
 12 13  1  0  0  0  0
 12 11  2  0  0  0  0
 13 14  2  0  0  0  0
 14 15  1  0  0  0  0
 15  3  1  0  0  0  0
 16 15  2  0  0  0  0
 17 11  1  0  0  0  0
 18 12  1  0  0  0  0
 19 13  1  0  0  0  0
 20  7  1  0  0  0  0
 21 22  1  0  0  0  0
 22 23  1  0  0  0  0
 23 20  1  0  0  0  0
 23 24  2  0  0  0  0
 24 28  1  0  0  0  0
 25 24  1  0  0  0  0
 25 29  1  0  0  0  0
 26 25  2  0  0  0  0
 27 22  2  0  0  0  0
 27 26  1  0  0  0  0
 30 26  1  0  0  0  0
 31 27  1  0  0  0  0
 32 33  1  0  0  0  0
 32 31  1  0  0  0  0
 33 31  1  0  0  0  0
M  END
>  <minimizedAffinity>
-5.63766718

>  <minimizedRMSD>
0.716988266

$$$$
