
 OpenBabel03272505153D

 22 24  0  0  0  0  0  0  0  0999 V2000
   36.0580   20.8340   35.9440 Cl  0  0  0  0  0  0  0  0  0  0  0  0
   36.8140   21.5000   34.5210 C   0  0  0  0  0  0  0  0  0  0  0  0
   37.8540   22.3720   34.6480 C   0  0  0  0  0  0  0  0  0  0  0  0
   38.4010   22.8590   33.4790 C   0  0  0  0  0  0  0  0  0  0  0  0
   37.9620   22.5150   32.2270 C   0  0  0  0  0  0  0  0  0  0  0  0
   36.9130   21.6340   32.1340 C   0  0  0  0  0  0  0  0  0  0  0  0
   36.3220   21.1130   33.2710 C   0  0  0  0  0  0  0  0  0  0  0  0
   39.2270   23.5520   33.5650 H   0  0  0  0  0  0  0  0  0  0  0  0
   38.4270   22.9260   31.3410 H   0  0  0  0  0  0  0  0  0  0  0  0
   36.5650   21.3620   31.1690 H   0  0  0  0  0  0  0  0  0  0  0  0
   39.9730   22.6930   37.7690 C   0  0  0  0  0  0  0  0  0  0  0  0
   39.5480   22.3350   36.4870 C   0  0  0  0  0  0  0  0  0  0  0  0
   38.3140   22.7320   35.9760 C   0  0  0  0  0  0  0  0  0  0  0  0
   37.5420   23.4930   36.8050 N   0  0  0  0  0  0  0  0  0  0  0  0
   37.9610   23.8330   38.0380 C   0  0  0  0  0  0  0  0  0  0  0  0
   39.1600   23.4390   38.5190 N   0  0  0  0  0  0  0  0  0  0  0  0
   40.9400   22.3080   38.0040 H   0  0  0  0  0  0  0  0  0  0  0  0
   40.1440   21.7230   35.7930 H   0  0  0  0  0  0  0  0  0  0  0  0
   37.3510   24.4410   38.7120 H   0  0  0  0  0  0  0  0  0  0  0  0
   35.1840   20.1560   33.2160 C   0  0  0  0  0  3  0  0  0  0  0  0
   34.8170   19.7000   31.8370 C   0  0  0  0  0  2  0  0  0  0  0  0
   35.4500   18.7410   32.7660 C   0  0  0  0  0  2  0  0  0  0  0  0
  2  3  1  0  0  0  0
  2  1  1  0  0  0  0
  3 13  1  0  0  0  0
  4  8  1  0  0  0  0
  4  3  2  0  0  0  0
  5  4  1  0  0  0  0
  6  5  2  0  0  0  0
  6  7  1  0  0  0  0
  7  2  2  0  0  0  0
  9  5  1  0  0  0  0
 10  6  1  0  0  0  0
 11 17  1  0  0  0  0
 11 16  1  0  0  0  0
 12 11  2  0  0  0  0
 13 12  1  0  0  0  0
 13 14  2  0  0  0  0
 14 15  1  0  0  0  0
 15 16  2  0  0  0  0
 15 19  1  0  0  0  0
 18 12  1  0  0  0  0
 20  7  1  0  0  0  0
 21 22  1  0  0  0  0
 21 20  1  0  0  0  0
 22 20  1  0  0  0  0
M  END
>  <minimizedAffinity>
-4.88958883

$$$$

 OpenBabel03272505153D

 22 24  0  0  0  0  0  0  0  0999 V2000
   40.6040   24.5900   34.4490 Cl  0  0  0  0  0  0  0  0  0  0  0  0
   39.6920   24.1400   35.8650 C   0  0  0  0  0  0  0  0  0  0  0  0
   38.4350   24.6350   36.0490 C   0  0  0  0  0  0  0  0  0  0  0  0
   37.7740   24.2360   37.1930 C   0  0  0  0  0  0  0  0  0  0  0  0
   38.3060   23.3880   38.1280 C   0  0  0  0  0  0  0  0  0  0  0  0
   39.5740   22.9080   37.9130 C   0  0  0  0  0  0  0  0  0  0  0  0
   40.2880   23.2720   36.7840 C   0  0  0  0  0  0  0  0  0  0  0  0
   36.7760   24.6210   37.3520 H   0  0  0  0  0  0  0  0  0  0  0  0
   37.7440   23.1070   39.0090 H   0  0  0  0  0  0  0  0  0  0  0  0
   39.9960   22.2510   38.6310 H   0  0  0  0  0  0  0  0  0  0  0  0
   37.1100   27.7330   34.3230 C   0  0  0  0  0  0  0  0  0  0  0  0
   37.6490   26.8860   35.2950 C   0  0  0  0  0  0  0  0  0  0  0  0
   37.8770   25.5320   35.0550 C   0  0  0  0  0  0  0  0  0  0  0  0
   37.5410   25.0820   33.8120 N   0  0  0  0  0  0  0  0  0  0  0  0
   37.0230   25.9060   32.8820 C   0  0  0  0  0  0  0  0  0  0  0  0
   36.8080   27.2160   33.1310 N   0  0  0  0  0  0  0  0  0  0  0  0
   37.0000   28.7370   34.6680 H   0  0  0  0  0  0  0  0  0  0  0  0
   37.9300   27.2150   36.3060 H   0  0  0  0  0  0  0  0  0  0  0  0
   36.7500   25.5570   31.8830 H   0  0  0  0  0  0  0  0  0  0  0  0
   41.6630   22.7760   36.5120 C   0  0  0  0  0  3  0  0  0  0  0  0
   42.0000   21.4730   37.1700 C   0  0  0  0  0  2  0  0  0  0  0  0
   41.8290   21.5120   35.7030 C   0  0  0  0  0  2  0  0  0  0  0  0
  1  2  1  0  0  0  0
  2  3  2  0  0  0  0
  2  7  1  0  0  0  0
  3  4  1  0  0  0  0
  4  8  1  0  0  0  0
  4  5  2  0  0  0  0
  5  9  1  0  0  0  0
  6  5  1  0  0  0  0
  6 10  1  0  0  0  0
  7  6  2  0  0  0  0
 11 17  1  0  0  0  0
 11 12  1  0  0  0  0
 12 18  1  0  0  0  0
 13 12  2  0  0  0  0
 13  3  1  0  0  0  0
 14 13  1  0  0  0  0
 15 16  1  0  0  0  0
 15 14  2  0  0  0  0
 16 11  2  0  0  0  0
 19 15  1  0  0  0  0
 20  7  1  0  0  0  0
 20 21  1  0  0  0  0
 22 20  1  0  0  0  0
 22 21  1  0  0  0  0
M  END
>  <minimizedAffinity>
-4.66625071

$$$$

 OpenBabel03272505153D

 22 24  0  0  0  0  0  0  0  0999 V2000
   37.9030   23.6970   33.5900 Cl  0  0  0  0  0  0  0  0  0  0  0  0
   37.8300   25.2990   34.2740 C   0  0  0  0  0  0  0  0  0  0  0  0
   38.4170   25.5520   35.4790 C   0  0  0  0  0  0  0  0  0  0  0  0
   38.3180   26.8420   35.9580 C   0  0  0  0  0  0  0  0  0  0  0  0
   37.6750   27.8560   35.2980 C   0  0  0  0  0  0  0  0  0  0  0  0
   37.0950   27.5680   34.0870 C   0  0  0  0  0  0  0  0  0  0  0  0
   37.1610   26.2920   33.5550 C   0  0  0  0  0  0  0  0  0  0  0  0
   38.7790   27.0560   36.9120 H   0  0  0  0  0  0  0  0  0  0  0  0
   37.6270   28.8520   35.7180 H   0  0  0  0  0  0  0  0  0  0  0  0
   36.5950   28.3470   33.5670 H   0  0  0  0  0  0  0  0  0  0  0  0
   39.2490   22.8180   37.9630 C   0  0  0  0  0  0  0  0  0  0  0  0
   38.5780   23.8560   37.3090 C   0  0  0  0  0  0  0  0  0  0  0  0
   39.0960   24.4740   36.1730 C   0  0  0  0  0  0  0  0  0  0  0  0
   40.3010   24.0060   35.7360 N   0  0  0  0  0  0  0  0  0  0  0  0
   40.9390   23.0060   36.3720 C   0  0  0  0  0  0  0  0  0  0  0  0
   40.4230   22.4170   37.4730 N   0  0  0  0  0  0  0  0  0  0  0  0
   38.7170   22.4570   38.8140 H   0  0  0  0  0  0  0  0  0  0  0  0
   37.6080   24.2570   37.6340 H   0  0  0  0  0  0  0  0  0  0  0  0
   41.9050   22.6220   36.0320 H   0  0  0  0  0  0  0  0  0  0  0  0
   36.5460   25.9380   32.2470 C   0  0  0  0  0  3  0  0  0  0  0  0
   36.1530   27.1100   31.4030 C   0  0  0  0  0  2  0  0  0  0  0  0
   37.2960   26.2730   30.9810 C   0  0  0  0  0  2  0  0  0  0  0  0
  1  2  1  0  0  0  0
  2  3  1  0  0  0  0
  3  4  2  0  0  0  0
  3 13  1  0  0  0  0
  4  8  1  0  0  0  0
  5  9  1  0  0  0  0
  5  4  1  0  0  0  0
  6  5  2  0  0  0  0
  7  6  1  0  0  0  0
  7  2  2  0  0  0  0
 10  6  1  0  0  0  0
 11 17  1  0  0  0  0
 12 18  1  0  0  0  0
 12 11  2  0  0  0  0
 13 12  1  0  0  0  0
 14 13  2  0  0  0  0
 14 15  1  0  0  0  0
 15 16  2  0  0  0  0
 16 11  1  0  0  0  0
 19 15  1  0  0  0  0
 20  7  1  0  0  0  0
 21 20  1  0  0  0  0
 22 21  1  0  0  0  0
 22 20  1  0  0  0  0
M  END
>  <minimizedAffinity>
-4.4990201

$$$$

 OpenBabel03272505153D

 22 24  0  0  0  0  0  0  0  0999 V2000
   38.5680   26.7980   35.5270 Cl  0  0  0  0  0  0  0  0  0  0  0  0
   38.2000   25.5900   34.3250 C   0  0  0  0  0  0  0  0  0  0  0  0
   38.1870   24.2700   34.6680 C   0  0  0  0  0  0  0  0  0  0  0  0
   37.8880   23.3720   33.6650 C   0  0  0  0  0  0  0  0  0  0  0  0
   37.6110   23.7320   32.3720 C   0  0  0  0  0  0  0  0  0  0  0  0
   37.6320   25.0690   32.0600 C   0  0  0  0  0  0  0  0  0  0  0  0
   37.9250   26.0180   33.0230 C   0  0  0  0  0  0  0  0  0  0  0  0
   37.8750   22.3220   33.9230 H   0  0  0  0  0  0  0  0  0  0  0  0
   37.3830   22.9860   31.6230 H   0  0  0  0  0  0  0  0  0  0  0  0
   37.4180   25.3590   31.0610 H   0  0  0  0  0  0  0  0  0  0  0  0
   39.9230   22.8970   37.7400 C   0  0  0  0  0  0  0  0  0  0  0  0
   39.6590   23.2500   36.4140 C   0  0  0  0  0  0  0  0  0  0  0  0
   38.4820   23.8950   36.0380 C   0  0  0  0  0  0  0  0  0  0  0  0
   37.6000   24.1600   37.0450 N   0  0  0  0  0  0  0  0  0  0  0  0
   37.8640   23.8170   38.3190 C   0  0  0  0  0  0  0  0  0  0  0  0
   39.0100   23.1920   38.6660 N   0  0  0  0  0  0  0  0  0  0  0  0
   40.8670   22.4110   37.8560 H   0  0  0  0  0  0  0  0  0  0  0  0
   40.3460   23.0510   35.5790 H   0  0  0  0  0  0  0  0  0  0  0  0
   37.1650   24.0240   39.1340 H   0  0  0  0  0  0  0  0  0  0  0  0
   37.9590   27.4760   32.7280 C   0  0  0  0  0  3  0  0  0  0  0  0
   37.3000   27.8680   31.4410 C   0  0  0  0  0  2  0  0  0  0  0  0
   36.6580   28.2420   32.7190 C   0  0  0  0  0  2  0  0  0  0  0  0
  2  3  1  0  0  0  0
  2  1  1  0  0  0  0
  3 13  1  0  0  0  0
  4  8  1  0  0  0  0
  4  3  2  0  0  0  0
  5  4  1  0  0  0  0
  6  5  2  0  0  0  0
  6  7  1  0  0  0  0
  7  2  2  0  0  0  0
  9  5  1  0  0  0  0
 10  6  1  0  0  0  0
 11 17  1  0  0  0  0
 11 16  1  0  0  0  0
 12 11  2  0  0  0  0
 13 12  1  0  0  0  0
 13 14  2  0  0  0  0
 14 15  1  0  0  0  0
 15 16  2  0  0  0  0
 15 19  1  0  0  0  0
 18 12  1  0  0  0  0
 20  7  1  0  0  0  0
 21 22  1  0  0  0  0
 21 20  1  0  0  0  0
 22 20  1  0  0  0  0
M  END
>  <minimizedAffinity>
-4.46692705

$$$$

 OpenBabel03272505153D

 22 24  0  0  0  0  0  0  0  0999 V2000
   35.9470   29.8080   34.8330 Cl  0  0  0  0  0  0  0  0  0  0  0  0
   36.1660   28.4710   33.7360 C   0  0  0  0  0  0  0  0  0  0  0  0
   35.4820   28.4400   32.5570 C   0  0  0  0  0  0  0  0  0  0  0  0
   35.7050   27.3510   31.7400 C   0  0  0  0  0  0  0  0  0  0  0  0
   36.5600   26.3250   32.0470 C   0  0  0  0  0  0  0  0  0  0  0  0
   37.2340   26.3870   33.2420 C   0  0  0  0  0  0  0  0  0  0  0  0
   37.0510   27.4550   34.1040 C   0  0  0  0  0  0  0  0  0  0  0  0
   35.1680   27.3130   30.8020 H   0  0  0  0  0  0  0  0  0  0  0  0
   36.6980   25.4930   31.3700 H   0  0  0  0  0  0  0  0  0  0  0  0
   37.8990   25.5980   33.4900 H   0  0  0  0  0  0  0  0  0  0  0  0
   32.3980   30.6260   32.3450 C   0  0  0  0  0  0  0  0  0  0  0  0
   33.2520   29.5670   32.6650 C   0  0  0  0  0  0  0  0  0  0  0  0
   34.5780   29.5280   32.2370 C   0  0  0  0  0  0  0  0  0  0  0  0
   34.9920   30.5870   31.4830 N   0  0  0  0  0  0  0  0  0  0  0  0
   34.1620   31.6030   31.1820 C   0  0  0  0  0  0  0  0  0  0  0  0
   32.8790   31.6250   31.6040 N   0  0  0  0  0  0  0  0  0  0  0  0
   31.4180   30.5010   32.7510 H   0  0  0  0  0  0  0  0  0  0  0  0
   32.9510   28.6990   33.2690 H   0  0  0  0  0  0  0  0  0  0  0  0
   34.4820   32.4570   30.5780 H   0  0  0  0  0  0  0  0  0  0  0  0
   37.7610   27.5610   35.4070 C   0  0  0  0  0  3  0  0  0  0  0  0
   38.1850   26.2520   35.9980 C   0  0  0  0  0  2  0  0  0  0  0  0
   39.2170   27.1700   35.4720 C   0  0  0  0  0  2  0  0  0  0  0  0
  2  7  1  0  0  0  0
  2  1  1  0  0  0  0
  3  2  2  0  0  0  0
  4  5  2  0  0  0  0
  4  3  1  0  0  0  0
  5  6  1  0  0  0  0
  6 10  1  0  0  0  0
  6  7  2  0  0  0  0
  7 20  1  0  0  0  0
  8  4  1  0  0  0  0
  9  5  1  0  0  0  0
 11 12  1  0  0  0  0
 11 17  1  0  0  0  0
 12 18  1  0  0  0  0
 13  3  1  0  0  0  0
 13 12  2  0  0  0  0
 14 13  1  0  0  0  0
 15 14  2  0  0  0  0
 15 16  1  0  0  0  0
 16 11  2  0  0  0  0
 19 15  1  0  0  0  0
 20 22  1  0  0  0  0
 20 21  1  0  0  0  0
 22 21  1  0  0  0  0
M  END
>  <minimizedAffinity>
-4.41832495

$$$$

 OpenBabel03272505153D

 22 24  0  0  0  0  0  0  0  0999 V2000
   37.9740   22.7950   33.5730 Cl  0  0  0  0  0  0  0  0  0  0  0  0
   37.0180   23.8880   32.6090 C   0  0  0  0  0  0  0  0  0  0  0  0
   36.1190   23.3940   31.7110 C   0  0  0  0  0  0  0  0  0  0  0  0
   35.3980   24.3180   30.9830 C   0  0  0  0  0  0  0  0  0  0  0  0
   35.5380   25.6750   31.1160 C   0  0  0  0  0  0  0  0  0  0  0  0
   36.4520   26.1400   32.0290 C   0  0  0  0  0  0  0  0  0  0  0  0
   37.2050   25.2610   32.7880 C   0  0  0  0  0  0  0  0  0  0  0  0
   34.6810   23.9400   30.2670 H   0  0  0  0  0  0  0  0  0  0  0  0
   34.9480   26.3570   30.5190 H   0  0  0  0  0  0  0  0  0  0  0  0
   36.5690   27.1890   32.1400 H   0  0  0  0  0  0  0  0  0  0  0  0
   34.8900   19.8350   32.1150 C   0  0  0  0  0  0  0  0  0  0  0  0
   35.0120   21.2200   32.2620 C   0  0  0  0  0  0  0  0  0  0  0  0
   35.9750   21.9570   31.5750 C   0  0  0  0  0  0  0  0  0  0  0  0
   36.7950   21.2440   30.7490 N   0  0  0  0  0  0  0  0  0  0  0  0
   36.6690   19.9110   30.6150 C   0  0  0  0  0  0  0  0  0  0  0  0
   35.7300   19.2110   31.2890 N   0  0  0  0  0  0  0  0  0  0  0  0
   34.1040   19.4270   32.7110 H   0  0  0  0  0  0  0  0  0  0  0  0
   34.3700   21.8250   32.9180 H   0  0  0  0  0  0  0  0  0  0  0  0
   37.3200   19.3280   29.9570 H   0  0  0  0  0  0  0  0  0  0  0  0
   38.2060   25.7220   33.7880 C   0  0  0  0  0  3  0  0  0  0  0  0
   38.0630   27.1540   34.2010 C   0  0  0  0  0  2  0  0  0  0  0  0
   37.7280   26.0920   35.1720 C   0  0  0  0  0  2  0  0  0  0  0  0
  2  7  1  0  0  0  0
  2  1  1  0  0  0  0
  3  2  2  0  0  0  0
  4  5  2  0  0  0  0
  4  3  1  0  0  0  0
  5  6  1  0  0  0  0
  6 10  1  0  0  0  0
  6  7  2  0  0  0  0
  7 20  1  0  0  0  0
  8  4  1  0  0  0  0
  9  5  1  0  0  0  0
 11 12  1  0  0  0  0
 11 17  1  0  0  0  0
 12 18  1  0  0  0  0
 13  3  1  0  0  0  0
 13 12  2  0  0  0  0
 14 13  1  0  0  0  0
 15 14  2  0  0  0  0
 15 16  1  0  0  0  0
 16 11  2  0  0  0  0
 19 15  1  0  0  0  0
 20 21  1  0  0  0  0
 20 22  1  0  0  0  0
 21 22  1  0  0  0  0
M  END
>  <minimizedAffinity>
-4.41730499

$$$$

 OpenBabel03272505153D

 22 24  0  0  0  0  0  0  0  0999 V2000
   37.0860   24.9960   32.4210 Cl  0  0  0  0  0  0  0  0  0  0  0  0
   37.6020   25.7290   33.9160 C   0  0  0  0  0  0  0  0  0  0  0  0
   37.5010   27.0780   34.0820 C   0  0  0  0  0  0  0  0  0  0  0  0
   37.9290   27.5880   35.2910 C   0  0  0  0  0  0  0  0  0  0  0  0
   38.4380   26.8220   36.3070 C   0  0  0  0  0  0  0  0  0  0  0  0
   38.5260   25.4670   36.1080 C   0  0  0  0  0  0  0  0  0  0  0  0
   38.1130   24.8970   34.9160 C   0  0  0  0  0  0  0  0  0  0  0  0
   37.8550   28.6570   35.4360 H   0  0  0  0  0  0  0  0  0  0  0  0
   38.7600   27.2730   37.2360 H   0  0  0  0  0  0  0  0  0  0  0  0
   38.9190   24.8640   36.8880 H   0  0  0  0  0  0  0  0  0  0  0  0
   35.2000   29.2470   32.0000 C   0  0  0  0  0  0  0  0  0  0  0  0
   35.7000   28.4740   33.0510 C   0  0  0  0  0  0  0  0  0  0  0  0
   36.9610   27.8840   33.0030 C   0  0  0  0  0  0  0  0  0  0  0  0
   37.6790   28.1040   31.8640 N   0  0  0  0  0  0  0  0  0  0  0  0
   37.1890   28.8500   30.8570 C   0  0  0  0  0  0  0  0  0  0  0  0
   35.9640   29.4160   30.9200 N   0  0  0  0  0  0  0  0  0  0  0  0
   34.2210   29.6250   32.1970 H   0  0  0  0  0  0  0  0  0  0  0  0
   35.1490   28.2760   33.9820 H   0  0  0  0  0  0  0  0  0  0  0  0
   37.7540   29.0330   29.9390 H   0  0  0  0  0  0  0  0  0  0  0  0
   38.1910   23.4340   34.6580 C   0  0  0  0  0  3  0  0  0  0  0  0
   39.1580   22.6960   35.5320 C   0  0  0  0  0  2  0  0  0  0  0  0
   37.7080   22.4840   35.7280 C   0  0  0  0  0  2  0  0  0  0  0  0
  1  2  1  0  0  0  0
  2  3  2  0  0  0  0
  2  7  1  0  0  0  0
  3  4  1  0  0  0  0
  4  8  1  0  0  0  0
  4  5  2  0  0  0  0
  5  9  1  0  0  0  0
  6  5  1  0  0  0  0
  6 10  1  0  0  0  0
  7  6  2  0  0  0  0
 11 17  1  0  0  0  0
 11 12  1  0  0  0  0
 12 18  1  0  0  0  0
 13 12  2  0  0  0  0
 13  3  1  0  0  0  0
 14 13  1  0  0  0  0
 15 16  1  0  0  0  0
 15 14  2  0  0  0  0
 16 11  2  0  0  0  0
 19 15  1  0  0  0  0
 20  7  1  0  0  0  0
 20 21  1  0  0  0  0
 20 22  1  0  0  0  0
 21 22  1  0  0  0  0
M  END
>  <minimizedAffinity>
-4.36831617

$$$$

 OpenBabel03272505153D

 22 24  0  0  0  0  0  0  0  0999 V2000
   37.9120   24.4110   32.6890 Cl  0  0  0  0  0  0  0  0  0  0  0  0
   38.0150   23.9400   34.3650 C   0  0  0  0  0  0  0  0  0  0  0  0
   37.9210   22.6240   34.7090 C   0  0  0  0  0  0  0  0  0  0  0  0
   38.0110   22.3280   36.0540 C   0  0  0  0  0  0  0  0  0  0  0  0
   38.1860   23.2680   37.0350 C   0  0  0  0  0  0  0  0  0  0  0  0
   38.2770   24.5840   36.6550 C   0  0  0  0  0  0  0  0  0  0  0  0
   38.1930   24.9440   35.3210 C   0  0  0  0  0  0  0  0  0  0  0  0
   37.9370   21.2880   36.3410 H   0  0  0  0  0  0  0  0  0  0  0  0
   38.2500   22.9810   38.0760 H   0  0  0  0  0  0  0  0  0  0  0  0
   38.4120   25.3200   37.4070 H   0  0  0  0  0  0  0  0  0  0  0  0
   36.3300   20.1730   32.3010 C   0  0  0  0  0  0  0  0  0  0  0  0
   36.4870   21.1280   33.3110 C   0  0  0  0  0  0  0  0  0  0  0  0
   37.7350   21.6340   33.6660 C   0  0  0  0  0  0  0  0  0  0  0  0
   38.8000   21.1390   32.9700 N   0  0  0  0  0  0  0  0  0  0  0  0
   38.6380   20.2210   31.9990 C   0  0  0  0  0  0  0  0  0  0  0  0
   37.4210   19.7400   31.6670 N   0  0  0  0  0  0  0  0  0  0  0  0
   35.3110   19.8940   32.1550 H   0  0  0  0  0  0  0  0  0  0  0  0
   35.6520   21.5470   33.8910 H   0  0  0  0  0  0  0  0  0  0  0  0
   39.4830   19.8160   31.4340 H   0  0  0  0  0  0  0  0  0  0  0  0
   38.2870   26.3570   34.8660 C   0  0  0  0  0  3  0  0  0  0  0  0
   38.6040   27.3430   35.9480 C   0  0  0  0  0  2  0  0  0  0  0  0
   39.6270   27.0480   34.9240 C   0  0  0  0  0  2  0  0  0  0  0  0
  1  2  1  0  0  0  0
  2  3  2  0  0  0  0
  2  7  1  0  0  0  0
  3  4  1  0  0  0  0
  4  8  1  0  0  0  0
  4  5  2  0  0  0  0
  5  9  1  0  0  0  0
  6  5  1  0  0  0  0
  6 10  1  0  0  0  0
  7  6  2  0  0  0  0
 11 12  1  0  0  0  0
 12 13  2  0  0  0  0
 12 18  1  0  0  0  0
 13  3  1  0  0  0  0
 14 13  1  0  0  0  0
 15 14  2  0  0  0  0
 16 15  1  0  0  0  0
 16 11  2  0  0  0  0
 17 11  1  0  0  0  0
 19 15  1  0  0  0  0
 20 22  1  0  0  0  0
 20  7  1  0  0  0  0
 20 21  1  0  0  0  0
 22 21  1  0  0  0  0
M  END
>  <minimizedAffinity>
-4.36777735

$$$$

 OpenBabel03272505153D

 22 24  0  0  0  0  0  0  0  0999 V2000
   32.7900   29.3840   34.1160 Cl  0  0  0  0  0  0  0  0  0  0  0  0
   33.7180   30.4600   35.1270 C   0  0  0  0  0  0  0  0  0  0  0  0
   35.0730   30.5170   34.9950 C   0  0  0  0  0  0  0  0  0  0  0  0
   35.7400   31.3910   35.8290 C   0  0  0  0  0  0  0  0  0  0  0  0
   35.1220   32.1840   36.7600 C   0  0  0  0  0  0  0  0  0  0  0  0
   33.7550   32.1020   36.8670 C   0  0  0  0  0  0  0  0  0  0  0  0
   33.0310   31.2440   36.0580 C   0  0  0  0  0  0  0  0  0  0  0  0
   36.8160   31.4470   35.7350 H   0  0  0  0  0  0  0  0  0  0  0  0
   35.6930   32.8530   37.3900 H   0  0  0  0  0  0  0  0  0  0  0  0
   33.2660   32.7120   37.5850 H   0  0  0  0  0  0  0  0  0  0  0  0
   36.8830   27.6310   33.3430 C   0  0  0  0  0  0  0  0  0  0  0  0
   36.2610   28.4260   34.3100 C   0  0  0  0  0  0  0  0  0  0  0  0
   35.7220   29.6760   34.0080 C   0  0  0  0  0  0  0  0  0  0  0  0
   35.8400   30.0780   32.7090 N   0  0  0  0  0  0  0  0  0  0  0  0
   36.4390   29.3040   31.7860 C   0  0  0  0  0  0  0  0  0  0  0  0
   36.9570   28.0950   32.0950 N   0  0  0  0  0  0  0  0  0  0  0  0
   37.2400   26.7060   33.7400 H   0  0  0  0  0  0  0  0  0  0  0  0
   36.1500   28.1340   35.3640 H   0  0  0  0  0  0  0  0  0  0  0  0
   36.5400   29.6150   30.7420 H   0  0  0  0  0  0  0  0  0  0  0  0
   31.5510   31.1240   36.1410 C   0  0  0  0  0  3  0  0  0  0  0  0
   30.8520   32.3440   36.6570 C   0  0  0  0  0  2  0  0  0  0  0  0
   30.7030   31.9810   35.2330 C   0  0  0  0  0  2  0  0  0  0  0  0
  1  2  1  0  0  0  0
  2  7  1  0  0  0  0
  3  2  2  0  0  0  0
  3  4  1  0  0  0  0
  4  5  2  0  0  0  0
  5  6  1  0  0  0  0
  5  9  1  0  0  0  0
  6 10  1  0  0  0  0
  7 20  1  0  0  0  0
  7  6  2  0  0  0  0
  8  4  1  0  0  0  0
 11 17  1  0  0  0  0
 11 12  1  0  0  0  0
 12 18  1  0  0  0  0
 13 12  2  0  0  0  0
 13  3  1  0  0  0  0
 14 13  1  0  0  0  0
 15 16  1  0  0  0  0
 15 14  2  0  0  0  0
 16 11  2  0  0  0  0
 19 15  1  0  0  0  0
 20 21  1  0  0  0  0
 22 20  1  0  0  0  0
 22 21  1  0  0  0  0
M  END
>  <minimizedAffinity>
-4.36158514

$$$$
