
 OpenBabel03272506213D

 38 41  0  0  1  0  0  0  0  0999 V2000
   37.4300   30.6450   48.0400 C   0  0  0  0  0  0  0  0  0  0  0  0
   36.1530   30.1250   47.8210 C   0  0  0  0  0  0  0  0  0  0  0  0
   35.6440   29.2810   48.8270 C   0  0  0  0  0  0  0  0  0  0  0  0
   36.4110   29.0140   49.9550 N   0  0  0  0  0  0  0  0  0  0  0  0
   37.6570   29.5550   50.1090 C   0  0  0  0  0  0  0  0  0  0  0  0
   38.1460   30.3540   49.1640 N   0  0  0  0  0  0  0  0  0  0  0  0
   34.3600   28.6930   48.7080 N   0  0  0  0  0  0  0  0  0  0  0  0
   34.0350   27.8680   47.6670 C   0  0  0  0  0  0  0  0  0  0  0  0
   32.7850   27.3110   47.5740 C   0  0  0  0  0  0  0  0  0  0  0  0
   31.8800   27.6000   48.5430 C   0  0  0  0  0  0  0  0  0  0  0  0
   30.7160   27.0990   48.4820 O   0  0  0  0  0  0  0  0  0  0  0  0
   32.1910   28.4110   49.5720 N   0  0  0  0  0  0  0  0  0  0  0  0
   33.4310   28.9390   49.6270 C   0  0  0  0  0  0  0  0  0  0  0  0
   33.6250   29.6890   50.6320 O   0  0  0  0  0  0  0  0  0  0  0  0
   35.5120   30.2860   46.9900 H   0  0  0  0  0  0  0  0  0  0  0  0
   38.1800   29.2930   51.0140 H   0  0  0  0  0  0  0  0  0  0  0  0
   34.7810   27.6590   46.9100 H   0  0  0  0  0  0  0  0  0  0  0  0
   32.4920   26.6650   46.7810 H   0  0  0  0  0  0  0  0  0  0  0  0
   31.4560   28.6100   50.3040 H   0  0  0  0  0  0  0  0  0  0  0  0
   37.9540   31.5470   46.9660 C   0  0  2  0  0  0  0  0  0  0  0  0
   38.3510   30.6940   45.7660 C   0  0  0  0  0  0  0  0  0  0  0  0
   39.8170   30.6520   45.5280 C   0  0  0  0  0  0  0  0  0  0  0  0
   40.4790   31.9920   45.4710 C   0  0  0  0  0  0  0  0  0  0  0  0
   39.9150   32.9800   46.4330 C   0  0  0  0  0  0  0  0  0  0  0  0
   39.0820   32.3190   47.5230 C   0  0  1  0  0  0  0  0  0  0  0  0
   37.1120   32.2100   46.7100 H   0  0  0  0  0  0  0  0  0  0  0  0
   37.8850   31.1620   44.8750 H   0  0  0  0  0  0  0  0  0  0  0  0
   37.9970   29.6470   45.8590 H   0  0  0  0  0  0  0  0  0  0  0  0
   40.0020   30.0770   44.6220 H   0  0  0  0  0  0  0  0  0  0  0  0
   40.2750   30.0960   46.3980 H   0  0  0  0  0  0  0  0  0  0  0  0
   41.5580   31.8510   45.7130 H   0  0  0  0  0  0  0  0  0  0  0  0
   40.4670   32.3380   44.4170 H   0  0  0  0  0  0  0  0  0  0  0  0
   39.1640   33.5870   45.8520 H   0  0  0  0  0  0  0  0  0  0  0  0
   40.6840   33.6300   46.8560 H   0  0  0  0  0  0  0  0  0  0  0  0
   39.7660   31.6310   48.0530 H   0  0  0  0  0  0  0  0  0  0  0  0
   38.5880   33.3640   48.4830 C   0  0  0  0  0  0  0  0  0  0  0  0
   39.1940   33.3570   49.8890 C   0  0  0  0  0  0  0  0  0  0  0  0
   39.5090   34.4740   48.8990 C   0  0  0  0  0  0  0  0  0  0  0  0
  1  6  1  0  0  0  0
  2  1  2  0  0  0  0
  2  3  1  0  0  0  0
  3  4  2  0  0  0  0
  4  5  1  0  0  0  0
  5 16  1  0  0  0  0
  6  5  2  0  0  0  0
  7  3  1  0  0  0  0
  7 13  1  0  0  0  0
  8  7  1  0  0  0  0
  9  8  2  0  0  0  0
  9 10  1  0  0  0  0
 10 12  1  0  0  0  0
 11 10  2  0  0  0  0
 12 13  1  0  0  0  0
 12 19  1  0  0  0  0
 13 14  2  0  0  0  0
 15  2  1  0  0  0  0
 17  8  1  0  0  0  0
 18  9  1  0  0  0  0
 20 26  1  6  0  0  0
 20 25  1  0  0  0  0
 20  1  1  0  0  0  0
 21 28  1  0  0  0  0
 21 20  1  0  0  0  0
 22 21  1  0  0  0  0
 22 30  1  0  0  0  0
 23 22  1  0  0  0  0
 23 31  1  0  0  0  0
 23 24  1  0  0  0  0
 24 34  1  0  0  0  0
 24 25  1  0  0  0  0
 25 35  1  1  0  0  0
 25 36  1  0  0  0  0
 27 21  1  0  0  0  0
 29 22  1  0  0  0  0
 32 23  1  0  0  0  0
 33 24  1  0  0  0  0
 36 38  1  0  0  0  0
 36 37  1  0  0  0  0
 38 37  1  0  0  0  0
M  END
>  <minimizedAffinity>
-7.16568518

>  <minimizedRMSD>
5.25425005

$$$$
