
 OpenBabel03272503593D

 38 42  0  0  0  0  0  0  0  0999 V2000
   36.2700   29.6400   30.4760 C   0  0  0  0  0  0  0  0  0  0  0  0
   36.8150   28.3410   30.5290 C   0  0  0  0  0  0  0  0  0  0  0  0
   36.3620   27.5560   31.5560 C   0  0  0  0  0  0  0  0  0  0  0  0
   35.4880   28.0890   32.3650 N   0  0  0  0  0  0  0  0  0  0  0  0
   34.9490   29.2600   32.3770 C   0  0  0  0  0  0  0  0  0  0  0  0
   35.3880   30.0080   31.3860 N   0  0  0  0  0  0  0  0  0  0  0  0
   37.5260   28.0760   29.7750 H   0  0  0  0  0  0  0  0  0  0  0  0
   33.9790   29.9590   33.2210 C   0  0  0  0  0  0  0  0  0  0  0  0
   32.6440   29.9930   32.9260 N   0  0  0  0  0  0  0  0  0  0  0  0
   31.7710   30.6350   33.6860 C   0  0  0  0  0  0  0  0  0  0  0  0
   32.1040   31.3080   34.8080 N   0  0  0  0  0  0  0  0  0  0  0  0
   33.3970   31.3150   35.1520 C   0  0  0  0  0  0  0  0  0  0  0  0
   33.7600   31.9930   36.2880 C   0  0  0  0  0  0  0  0  0  0  0  0
   35.0930   32.0260   36.6880 C   0  0  0  0  0  0  0  0  0  0  0  0
   36.0000   31.3550   35.8950 C   0  0  0  0  0  0  0  0  0  0  0  0
   35.5900   30.6870   34.7610 C   0  0  0  0  0  0  0  0  0  0  0  0
   34.3020   30.6380   34.3490 C   0  0  0  0  0  0  0  0  0  0  0  0
   30.7360   30.5780   33.3300 H   0  0  0  0  0  0  0  0  0  0  0  0
   33.0360   32.5160   36.9040 H   0  0  0  0  0  0  0  0  0  0  0  0
   35.3420   32.5590   37.5700 H   0  0  0  0  0  0  0  0  0  0  0  0
   37.0190   31.4190   36.2600 H   0  0  0  0  0  0  0  0  0  0  0  0
   36.4230   30.2190   34.2660 H   0  0  0  0  0  0  0  0  0  0  0  0
   34.4720   25.2060   30.8520 Cl  0  0  0  0  0  0  0  0  0  0  0  0
   36.1570   25.0730   31.3300 C   0  0  0  0  0  0  0  0  0  0  0  0
   36.8870   26.2170   31.6140 C   0  0  0  0  0  0  0  0  0  0  0  0
   38.1790   25.9460   31.9600 C   0  0  0  0  0  0  0  0  0  0  0  0
   38.6830   24.6620   32.0160 C   0  0  0  0  0  0  0  0  0  0  0  0
   37.9350   23.5630   31.7300 C   0  0  0  0  0  0  0  0  0  0  0  0
   36.6390   23.7830   31.3800 C   0  0  0  0  0  0  0  0  0  0  0  0
   38.8650   26.7570   32.2090 H   0  0  0  0  0  0  0  0  0  0  0  0
   39.7420   24.5240   32.3050 H   0  0  0  0  0  0  0  0  0  0  0  0
   38.3930   22.6050   31.7950 H   0  0  0  0  0  0  0  0  0  0  0  0
   35.7950   22.5940   31.0620 C   0  0  0  0  0  3  0  0  0  0  0  0
   35.2860   21.7560   32.1860 C   0  0  0  0  0  2  0  0  0  0  0  0
   36.3000   21.2350   31.2430 C   0  0  0  0  0  2  0  0  0  0  0  0
   36.6630   30.5920   29.4340 N   0  0  0  0  0  0  0  0  0  0  0  0
   37.6640   30.7930   29.4750 H   0  0  0  0  0  0  0  0  0  0  0  0
   36.1070   31.0670   28.7010 H   0  0  0  0  0  0  0  0  0  0  0  0
  1  2  2  0  0  0  0
  1  6  1  0  0  0  0
  2  3  1  0  0  0  0
  3 25  1  0  0  0  0
  3  4  2  0  0  0  0
  4  5  1  0  0  0  0
  5  8  1  0  0  0  0
  6  5  2  0  0  0  0
  7  2  1  0  0  0  0
  8 17  1  0  0  0  0
  9  8  2  0  0  0  0
  9 10  1  0  0  0  0
 10 11  2  0  0  0  0
 11 12  1  0  0  0  0
 12 13  1  0  0  0  0
 13 14  2  0  0  0  0
 13 19  1  0  0  0  0
 14 20  1  0  0  0  0
 15 21  1  0  0  0  0
 15 14  1  0  0  0  0
 16 15  2  0  0  0  0
 17 16  1  0  0  0  0
 17 12  2  0  0  0  0
 18 10  1  0  0  0  0
 22 16  1  0  0  0  0
 23 24  1  0  0  0  0
 24 29  2  0  0  0  0
 24 25  1  0  0  0  0
 25 26  2  0  0  0  0
 26 27  1  0  0  0  0
 26 30  1  0  0  0  0
 27 31  1  0  0  0  0
 28 32  1  0  0  0  0
 28 27  2  0  0  0  0
 29 28  1  0  0  0  0
 33 35  1  0  0  0  0
 33 29  1  0  0  0  0
 33 34  1  0  0  0  0
 35 34  1  0  0  0  0
 36 37  1  0  0  0  0
 36  1  1  0  0  0  0
 38 36  1  0  0  0  0
M  END
>  <minimizedAffinity>
-6.8844614

$$$$

 OpenBabel03272503593D

 38 42  0  0  0  0  0  0  0  0999 V2000
   36.0480   29.6710   31.3900 C   0  0  0  0  0  0  0  0  0  0  0  0
   36.5270   28.3470   31.3530 C   0  0  0  0  0  0  0  0  0  0  0  0
   36.5240   27.6870   32.5540 C   0  0  0  0  0  0  0  0  0  0  0  0
   36.0830   28.3480   33.5890 N   0  0  0  0  0  0  0  0  0  0  0  0
   35.6330   29.5520   33.6960 C   0  0  0  0  0  0  0  0  0  0  0  0
   35.6390   30.1790   32.5380 N   0  0  0  0  0  0  0  0  0  0  0  0
   36.8500   27.9670   30.4070 H   0  0  0  0  0  0  0  0  0  0  0  0
   35.1250   30.3880   34.7850 C   0  0  0  0  0  0  0  0  0  0  0  0
   35.9110   31.3010   35.4320 N   0  0  0  0  0  0  0  0  0  0  0  0
   35.4510   32.0490   36.4230 C   0  0  0  0  0  0  0  0  0  0  0  0
   34.1850   31.9860   36.8860 N   0  0  0  0  0  0  0  0  0  0  0  0
   33.3640   31.1100   36.2950 C   0  0  0  0  0  0  0  0  0  0  0  0
   32.0720   31.0280   36.7490 C   0  0  0  0  0  0  0  0  0  0  0  0
   31.1800   30.1330   36.1640 C   0  0  0  0  0  0  0  0  0  0  0  0
   31.6620   29.3560   35.1310 C   0  0  0  0  0  0  0  0  0  0  0  0
   32.9680   29.4730   34.7080 C   0  0  0  0  0  0  0  0  0  0  0  0
   33.8560   30.3330   35.2570 C   0  0  0  0  0  0  0  0  0  0  0  0
   36.1900   32.7370   36.8490 H   0  0  0  0  0  0  0  0  0  0  0  0
   31.7050   31.6450   37.5620 H   0  0  0  0  0  0  0  0  0  0  0  0
   30.1890   30.0910   36.5370 H   0  0  0  0  0  0  0  0  0  0  0  0
   30.9200   28.6810   34.7190 H   0  0  0  0  0  0  0  0  0  0  0  0
   33.1730   28.7980   33.8950 H   0  0  0  0  0  0  0  0  0  0  0  0
   34.7960   25.5700   31.0960 Cl  0  0  0  0  0  0  0  0  0  0  0  0
   36.3160   25.2740   31.9250 C   0  0  0  0  0  0  0  0  0  0  0  0
   36.9860   26.3240   32.5350 C   0  0  0  0  0  0  0  0  0  0  0  0
   38.1530   25.9330   33.1260 C   0  0  0  0  0  0  0  0  0  0  0  0
   38.5970   24.6270   33.1070 C   0  0  0  0  0  0  0  0  0  0  0  0
   37.9100   23.6220   32.4980 C   0  0  0  0  0  0  0  0  0  0  0  0
   36.7400   23.9640   31.8950 C   0  0  0  0  0  0  0  0  0  0  0  0
   38.7800   26.6610   33.6430 H   0  0  0  0  0  0  0  0  0  0  0  0
   39.5540   24.3880   33.6090 H   0  0  0  0  0  0  0  0  0  0  0  0
   38.3160   22.6400   32.5260 H   0  0  0  0  0  0  0  0  0  0  0  0
   35.9660   22.8810   31.2200 C   0  0  0  0  0  3  0  0  0  0  0  0
   35.2690   21.8670   32.0640 C   0  0  0  0  0  2  0  0  0  0  0  0
   36.4330   21.4970   31.2290 C   0  0  0  0  0  2  0  0  0  0  0  0
   35.9960   30.4990   30.1830 N   0  0  0  0  0  0  0  0  0  0  0  0
   36.9280   30.6310   29.7850 H   0  0  0  0  0  0  0  0  0  0  0  0
   35.1990   30.9480   29.6990 H   0  0  0  0  0  0  0  0  0  0  0  0
  1  6  1  0  0  0  0
  2  1  2  0  0  0  0
  2  3  1  0  0  0  0
  3  4  2  0  0  0  0
  4  5  1  0  0  0  0
  5  8  1  0  0  0  0
  6  5  2  0  0  0  0
  7  2  1  0  0  0  0
  8 17  2  0  0  0  0
  8  9  1  0  0  0  0
  9 10  2  0  0  0  0
 10 18  1  0  0  0  0
 10 11  1  0  0  0  0
 12 13  1  0  0  0  0
 12 11  2  0  0  0  0
 13 19  1  0  0  0  0
 14 20  1  0  0  0  0
 14 13  2  0  0  0  0
 15 14  1  0  0  0  0
 16 15  2  0  0  0  0
 16 17  1  0  0  0  0
 17 12  1  0  0  0  0
 21 15  1  0  0  0  0
 22 16  1  0  0  0  0
 23 24  1  0  0  0  0
 24 25  1  0  0  0  0
 25  3  1  0  0  0  0
 25 26  2  0  0  0  0
 26 30  1  0  0  0  0
 27 26  1  0  0  0  0
 27 31  1  0  0  0  0
 28 32  1  0  0  0  0
 28 27  2  0  0  0  0
 29 24  2  0  0  0  0
 29 28  1  0  0  0  0
 33 35  1  0  0  0  0
 33 29  1  0  0  0  0
 33 34  1  0  0  0  0
 35 34  1  0  0  0  0
 36  1  1  0  0  0  0
 37 36  1  0  0  0  0
 38 36  1  0  0  0  0
M  END
>  <minimizedAffinity>
-6.73069763

$$$$

 OpenBabel03272503593D

 38 42  0  0  0  0  0  0  0  0999 V2000
   36.8610   28.0700   30.7890 C   0  0  0  0  0  0  0  0  0  0  0  0
   37.8900   27.3560   31.4360 C   0  0  0  0  0  0  0  0  0  0  0  0
   37.7940   27.2960   32.8000 C   0  0  0  0  0  0  0  0  0  0  0  0
   36.7750   27.8980   33.3490 N   0  0  0  0  0  0  0  0  0  0  0  0
   35.8030   28.5640   32.8240 C   0  0  0  0  0  0  0  0  0  0  0  0
   35.9020   28.6170   31.5120 N   0  0  0  0  0  0  0  0  0  0  0  0
   38.6510   26.9250   30.8200 H   0  0  0  0  0  0  0  0  0  0  0  0
   34.6280   29.2770   33.3280 C   0  0  0  0  0  0  0  0  0  0  0  0
   33.3780   29.0830   32.8080 N   0  0  0  0  0  0  0  0  0  0  0  0
   32.3190   29.7370   33.2600 C   0  0  0  0  0  0  0  0  0  0  0  0
   32.3660   30.6430   34.2600 N   0  0  0  0  0  0  0  0  0  0  0  0
   33.5610   30.8790   34.8110 C   0  0  0  0  0  0  0  0  0  0  0  0
   33.6340   31.7960   35.8290 C   0  0  0  0  0  0  0  0  0  0  0  0
   34.8560   32.0740   36.4350 C   0  0  0  0  0  0  0  0  0  0  0  0
   35.9570   31.3910   35.9640 C   0  0  0  0  0  0  0  0  0  0  0  0
   35.8370   30.4780   34.9380 C   0  0  0  0  0  0  0  0  0  0  0  0
   34.6630   30.1880   34.3310 C   0  0  0  0  0  0  0  0  0  0  0  0
   31.3820   29.4820   32.7510 H   0  0  0  0  0  0  0  0  0  0  0  0
   32.7600   32.3270   36.1910 H   0  0  0  0  0  0  0  0  0  0  0  0
   34.8800   32.7890   37.2180 H   0  0  0  0  0  0  0  0  0  0  0  0
   36.8760   31.6520   36.4760 H   0  0  0  0  0  0  0  0  0  0  0  0
   36.7900   30.0380   34.6990 H   0  0  0  0  0  0  0  0  0  0  0  0
   37.4700   24.2240   33.0320 Cl  0  0  0  0  0  0  0  0  0  0  0  0
   38.8060   25.1750   33.6610 C   0  0  0  0  0  0  0  0  0  0  0  0
   38.8220   26.5500   33.4800 C   0  0  0  0  0  0  0  0  0  0  0  0
   39.9280   27.1410   34.0170 C   0  0  0  0  0  0  0  0  0  0  0  0
   40.9140   26.4270   34.6680 C   0  0  0  0  0  0  0  0  0  0  0  0
   40.8640   25.0760   34.8270 C   0  0  0  0  0  0  0  0  0  0  0  0
   39.7770   24.4430   34.3080 C   0  0  0  0  0  0  0  0  0  0  0  0
   40.0670   28.2210   33.9460 H   0  0  0  0  0  0  0  0  0  0  0  0
   41.7820   26.9780   35.0760 H   0  0  0  0  0  0  0  0  0  0  0  0
   41.6610   24.5950   35.3400 H   0  0  0  0  0  0  0  0  0  0  0  0
   39.6970   22.9610   34.4680 C   0  0  0  0  0  3  0  0  0  0  0  0
   39.0900   22.4080   35.7130 C   0  0  0  0  0  2  0  0  0  0  0  0
   40.5350   22.2560   35.4350 C   0  0  0  0  0  2  0  0  0  0  0  0
   36.8340   28.2210   29.3320 N   0  0  0  0  0  0  0  0  0  0  0  0
   37.6660   28.7120   28.9960 H   0  0  0  0  0  0  0  0  0  0  0  0
   36.1370   27.9210   28.6300 H   0  0  0  0  0  0  0  0  0  0  0  0
  1  2  2  0  0  0  0
  1  6  1  0  0  0  0
  2  3  1  0  0  0  0
  3  4  2  0  0  0  0
  3 25  1  0  0  0  0
  5  8  1  0  0  0  0
  5  4  1  0  0  0  0
  6  5  2  0  0  0  0
  7  2  1  0  0  0  0
  8 17  1  0  0  0  0
  9 10  1  0  0  0  0
  9  8  2  0  0  0  0
 10 11  2  0  0  0  0
 11 12  1  0  0  0  0
 12 13  1  0  0  0  0
 13 19  1  0  0  0  0
 13 14  2  0  0  0  0
 14 20  1  0  0  0  0
 15 14  1  0  0  0  0
 15 21  1  0  0  0  0
 16 15  2  0  0  0  0
 17 12  2  0  0  0  0
 17 16  1  0  0  0  0
 18 10  1  0  0  0  0
 22 16  1  0  0  0  0
 23 24  1  0  0  0  0
 24 29  1  0  0  0  0
 25 24  2  0  0  0  0
 25 26  1  0  0  0  0
 26 27  2  0  0  0  0
 27 28  1  0  0  0  0
 27 31  1  0  0  0  0
 28 32  1  0  0  0  0
 29 33  1  0  0  0  0
 29 28  2  0  0  0  0
 30 26  1  0  0  0  0
 33 35  1  0  0  0  0
 33 34  1  0  0  0  0
 35 34  1  0  0  0  0
 36  1  1  0  0  0  0
 37 36  1  0  0  0  0
 38 36  1  0  0  0  0
M  END
>  <minimizedAffinity>
-6.70821762

$$$$

 OpenBabel03272503593D

 38 42  0  0  0  0  0  0  0  0999 V2000
   36.5670   23.4980   31.9040 C   0  0  0  0  0  0  0  0  0  0  0  0
   36.2310   24.8460   31.6660 C   0  0  0  0  0  0  0  0  0  0  0  0
   36.9370   25.7640   32.3970 C   0  0  0  0  0  0  0  0  0  0  0  0
   37.8320   25.2990   33.2240 N   0  0  0  0  0  0  0  0  0  0  0  0
   38.1900   24.0890   33.4910 C   0  0  0  0  0  0  0  0  0  0  0  0
   37.5080   23.2120   32.7840 N   0  0  0  0  0  0  0  0  0  0  0  0
   35.4640   25.0420   30.9460 H   0  0  0  0  0  0  0  0  0  0  0  0
   39.1610   23.4560   34.3860 C   0  0  0  0  0  0  0  0  0  0  0  0
   40.2670   22.8030   33.9190 N   0  0  0  0  0  0  0  0  0  0  0  0
   41.1370   22.2230   34.7310 C   0  0  0  0  0  0  0  0  0  0  0  0
   41.0200   22.2170   36.0760 N   0  0  0  0  0  0  0  0  0  0  0  0
   39.9570   22.8390   36.5970 C   0  0  0  0  0  0  0  0  0  0  0  0
   39.8170   22.8460   37.9610 C   0  0  0  0  0  0  0  0  0  0  0  0
   38.7270   23.4820   38.5500 C   0  0  0  0  0  0  0  0  0  0  0  0
   37.8230   24.0860   37.7020 C   0  0  0  0  0  0  0  0  0  0  0  0
   38.0050   24.0540   36.3360 C   0  0  0  0  0  0  0  0  0  0  0  0
   39.0530   23.4440   35.7370 C   0  0  0  0  0  0  0  0  0  0  0  0
   41.9760   21.7380   34.2200 H   0  0  0  0  0  0  0  0  0  0  0  0
   40.5350   22.3670   38.6180 H   0  0  0  0  0  0  0  0  0  0  0  0
   38.6460   23.4690   39.6070 H   0  0  0  0  0  0  0  0  0  0  0  0
   36.9990   24.5630   38.2210 H   0  0  0  0  0  0  0  0  0  0  0  0
   37.2110   24.5750   35.8280 H   0  0  0  0  0  0  0  0  0  0  0  0
   36.4220   27.6070   34.8320 Cl  0  0  0  0  0  0  0  0  0  0  0  0
   36.3700   28.0840   33.1430 C   0  0  0  0  0  0  0  0  0  0  0  0
   36.6270   27.1480   32.1520 C   0  0  0  0  0  0  0  0  0  0  0  0
   36.5570   27.6780   30.8960 C   0  0  0  0  0  0  0  0  0  0  0  0
   36.2600   29.0050   30.6600 C   0  0  0  0  0  0  0  0  0  0  0  0
   36.0140   29.8940   31.6600 C   0  0  0  0  0  0  0  0  0  0  0  0
   36.0720   29.4120   32.9310 C   0  0  0  0  0  0  0  0  0  0  0  0
   36.7380   27.0500   30.0220 H   0  0  0  0  0  0  0  0  0  0  0  0
   36.2230   29.3590   29.6130 H   0  0  0  0  0  0  0  0  0  0  0  0
   35.7930   30.9010   31.4010 H   0  0  0  0  0  0  0  0  0  0  0  0
   35.8050   30.3670   34.0470 C   0  0  0  0  0  3  0  0  0  0  0  0
   34.3950   30.5850   34.4800 C   0  0  0  0  0  2  0  0  0  0  0  0
   35.1610   31.6560   33.8040 C   0  0  0  0  0  2  0  0  0  0  0  0
   35.8930   22.4060   31.1970 N   0  0  0  0  0  0  0  0  0  0  0  0
   34.8890   22.4030   31.3930 H   0  0  0  0  0  0  0  0  0  0  0  0
   36.2600   21.6750   30.5640 H   0  0  0  0  0  0  0  0  0  0  0  0
  1  6  1  0  0  0  0
  2  1  2  0  0  0  0
  2  3  1  0  0  0  0
  3  4  2  0  0  0  0
  4  5  1  0  0  0  0
  5  8  1  0  0  0  0
  6  5  2  0  0  0  0
  7  2  1  0  0  0  0
  8 17  1  0  0  0  0
  9  8  2  0  0  0  0
  9 10  1  0  0  0  0
 10 11  2  0  0  0  0
 11 12  1  0  0  0  0
 12 13  1  0  0  0  0
 13 14  2  0  0  0  0
 13 19  1  0  0  0  0
 14 20  1  0  0  0  0
 15 21  1  0  0  0  0
 15 14  1  0  0  0  0
 16 15  2  0  0  0  0
 17 16  1  0  0  0  0
 17 12  2  0  0  0  0
 18 10  1  0  0  0  0
 22 16  1  0  0  0  0
 24 23  1  0  0  0  0
 25  3  1  0  0  0  0
 25 24  2  0  0  0  0
 26 25  1  0  0  0  0
 27 26  2  0  0  0  0
 27 28  1  0  0  0  0
 28 29  2  0  0  0  0
 29 24  1  0  0  0  0
 29 33  1  0  0  0  0
 30 26  1  0  0  0  0
 31 27  1  0  0  0  0
 32 28  1  0  0  0  0
 33 34  1  0  0  0  0
 35 33  1  0  0  0  0
 35 34  1  0  0  0  0
 36 37  1  0  0  0  0
 36  1  1  0  0  0  0
 38 36  1  0  0  0  0
M  END
>  <minimizedAffinity>
-6.64048624

$$$$

 OpenBabel03272503593D

 38 42  0  0  0  0  0  0  0  0999 V2000
   35.8690   29.8640   31.6020 C   0  0  0  0  0  0  0  0  0  0  0  0
   35.0920   30.4350   32.6290 C   0  0  0  0  0  0  0  0  0  0  0  0
   35.1210   29.7700   33.8250 C   0  0  0  0  0  0  0  0  0  0  0  0
   35.8540   28.6930   33.8850 N   0  0  0  0  0  0  0  0  0  0  0  0
   36.5860   28.1170   32.9930 C   0  0  0  0  0  0  0  0  0  0  0  0
   36.5540   28.7620   31.8460 N   0  0  0  0  0  0  0  0  0  0  0  0
   34.5510   31.3280   32.3970 H   0  0  0  0  0  0  0  0  0  0  0  0
   37.4330   26.9240   32.9430 C   0  0  0  0  0  0  0  0  0  0  0  0
   38.6880   26.8970   33.4860 N   0  0  0  0  0  0  0  0  0  0  0  0
   39.4560   25.8200   33.4300 C   0  0  0  0  0  0  0  0  0  0  0  0
   39.0850   24.6630   32.8410 N   0  0  0  0  0  0  0  0  0  0  0  0
   37.8670   24.6240   32.2900 C   0  0  0  0  0  0  0  0  0  0  0  0
   37.4670   23.4590   31.6860 C   0  0  0  0  0  0  0  0  0  0  0  0
   36.2080   23.3710   31.0990 C   0  0  0  0  0  0  0  0  0  0  0  0
   35.4100   24.4930   31.1600 C   0  0  0  0  0  0  0  0  0  0  0  0
   35.8530   25.6430   31.7780 C   0  0  0  0  0  0  0  0  0  0  0  0
   37.0710   25.7580   32.3560 C   0  0  0  0  0  0  0  0  0  0  0  0
   40.4360   25.9400   33.9060 H   0  0  0  0  0  0  0  0  0  0  0  0
   38.1050   22.5820   31.6450 H   0  0  0  0  0  0  0  0  0  0  0  0
   35.9280   22.4570   30.6390 H   0  0  0  0  0  0  0  0  0  0  0  0
   34.4440   24.3600   30.6860 H   0  0  0  0  0  0  0  0  0  0  0  0
   35.1060   26.4160   31.7370 H   0  0  0  0  0  0  0  0  0  0  0  0
   36.3190   32.1850   35.3500 Cl  0  0  0  0  0  0  0  0  0  0  0  0
   34.7650   31.4290   35.6650 C   0  0  0  0  0  0  0  0  0  0  0  0
   34.3530   30.3500   34.8960 C   0  0  0  0  0  0  0  0  0  0  0  0
   33.1230   29.8830   35.2590 C   0  0  0  0  0  0  0  0  0  0  0  0
   32.3860   30.4390   36.2850 C   0  0  0  0  0  0  0  0  0  0  0  0
   32.8250   31.4980   37.0190 C   0  0  0  0  0  0  0  0  0  0  0  0
   34.0470   31.9980   36.6940 C   0  0  0  0  0  0  0  0  0  0  0  0
   32.6780   29.0360   34.7350 H   0  0  0  0  0  0  0  0  0  0  0  0
   31.3970   30.0040   36.5190 H   0  0  0  0  0  0  0  0  0  0  0  0
   32.2010   31.8720   37.7940 H   0  0  0  0  0  0  0  0  0  0  0  0
   34.5520   33.1610   37.4830 C   0  0  0  0  0  3  0  0  0  0  0  0
   33.5780   34.1950   37.9350 C   0  0  0  0  0  2  0  0  0  0  0  0
   34.5990   34.5030   36.9100 C   0  0  0  0  0  2  0  0  0  0  0  0
   35.9330   30.4640   30.2670 N   0  0  0  0  0  0  0  0  0  0  0  0
   35.0090   30.4940   29.8300 H   0  0  0  0  0  0  0  0  0  0  0  0
   36.7310   30.8430   29.7280 H   0  0  0  0  0  0  0  0  0  0  0  0
  1  6  2  0  0  0  0
  1  2  1  0  0  0  0
  2  3  2  0  0  0  0
  3  4  1  0  0  0  0
  3 25  1  0  0  0  0
  5  4  2  0  0  0  0
  6  5  1  0  0  0  0
  7  2  1  0  0  0  0
  8  5  1  0  0  0  0
  8  9  1  0  0  0  0
 10  9  2  0  0  0  0
 10 18  1  0  0  0  0
 11 10  1  0  0  0  0
 12 17  1  0  0  0  0
 12 11  2  0  0  0  0
 13 12  1  0  0  0  0
 14 15  1  0  0  0  0
 14 13  2  0  0  0  0
 15 16  2  0  0  0  0
 16 17  1  0  0  0  0
 17  8  2  0  0  0  0
 19 13  1  0  0  0  0
 20 14  1  0  0  0  0
 21 15  1  0  0  0  0
 22 16  1  0  0  0  0
 23 24  1  0  0  0  0
 24 29  1  0  0  0  0
 25 26  1  0  0  0  0
 25 24  2  0  0  0  0
 26 27  2  0  0  0  0
 27 31  1  0  0  0  0
 27 28  1  0  0  0  0
 28 32  1  0  0  0  0
 29 28  2  0  0  0  0
 29 33  1  0  0  0  0
 30 26  1  0  0  0  0
 33 34  1  0  0  0  0
 35 33  1  0  0  0  0
 35 34  1  0  0  0  0
 36  1  1  0  0  0  0
 37 36  1  0  0  0  0
 38 36  1  0  0  0  0
M  END
>  <minimizedAffinity>
-6.59319019

$$$$

 OpenBabel03272503593D

 38 42  0  0  0  0  0  0  0  0999 V2000
   36.2160   29.5170   31.4720 C   0  0  0  0  0  0  0  0  0  0  0  0
   35.6430   30.3030   32.4910 C   0  0  0  0  0  0  0  0  0  0  0  0
   35.6080   29.7220   33.7310 C   0  0  0  0  0  0  0  0  0  0  0  0
   36.1010   28.5190   33.8330 N   0  0  0  0  0  0  0  0  0  0  0  0
   36.6370   27.7460   32.9510 C   0  0  0  0  0  0  0  0  0  0  0  0
   36.6690   28.3110   31.7630 N   0  0  0  0  0  0  0  0  0  0  0  0
   35.2870   31.2750   32.2210 H   0  0  0  0  0  0  0  0  0  0  0  0
   37.2110   26.3990   32.9470 C   0  0  0  0  0  0  0  0  0  0  0  0
   36.5830   25.3390   32.3540 N   0  0  0  0  0  0  0  0  0  0  0  0
   37.1000   24.1210   32.3610 C   0  0  0  0  0  0  0  0  0  0  0  0
   38.2770   23.8080   32.9450 N   0  0  0  0  0  0  0  0  0  0  0  0
   38.9420   24.8010   33.5440 C   0  0  0  0  0  0  0  0  0  0  0  0
   40.1400   24.5080   34.1440 C   0  0  0  0  0  0  0  0  0  0  0  0
   40.8690   25.5090   34.7790 C   0  0  0  0  0  0  0  0  0  0  0  0
   40.3290   26.7780   34.7690 C   0  0  0  0  0  0  0  0  0  0  0  0
   39.1210   27.0270   34.1540 C   0  0  0  0  0  0  0  0  0  0  0  0
   38.3910   26.0740   33.5290 C   0  0  0  0  0  0  0  0  0  0  0  0
   36.4900   23.3690   31.8480 H   0  0  0  0  0  0  0  0  0  0  0  0
   40.5550   23.5050   34.1450 H   0  0  0  0  0  0  0  0  0  0  0  0
   41.7910   25.2500   35.2350 H   0  0  0  0  0  0  0  0  0  0  0  0
   40.9440   27.5110   35.2790 H   0  0  0  0  0  0  0  0  0  0  0  0
   38.8510   28.0650   34.2380 H   0  0  0  0  0  0  0  0  0  0  0  0
   32.5360   29.6890   34.1300 Cl  0  0  0  0  0  0  0  0  0  0  0  0
   33.6950   30.6010   35.0840 C   0  0  0  0  0  0  0  0  0  0  0  0
   35.0490   30.5180   34.7930 C   0  0  0  0  0  0  0  0  0  0  0  0
   35.8160   31.2770   35.6280 C   0  0  0  0  0  0  0  0  0  0  0  0
   35.2810   32.0390   36.6460 C   0  0  0  0  0  0  0  0  0  0  0  0
   33.9460   32.0960   36.9020 C   0  0  0  0  0  0  0  0  0  0  0  0
   33.1400   31.3560   36.0940 C   0  0  0  0  0  0  0  0  0  0  0  0
   36.9000   31.3020   35.5100 H   0  0  0  0  0  0  0  0  0  0  0  0
   35.9690   32.6270   37.2820 H   0  0  0  0  0  0  0  0  0  0  0  0
   33.6070   32.7060   37.7040 H   0  0  0  0  0  0  0  0  0  0  0  0
   31.6700   31.4000   36.3520 C   0  0  0  0  0  3  0  0  0  0  0  0
   30.8040   32.1800   35.4210 C   0  0  0  0  0  2  0  0  0  0  0  0
   31.0190   32.6230   36.8160 C   0  0  0  0  0  2  0  0  0  0  0  0
   36.3190   30.0070   30.0950 N   0  0  0  0  0  0  0  0  0  0  0  0
   35.3950   30.2060   29.7030 H   0  0  0  0  0  0  0  0  0  0  0  0
   37.1420   30.1720   29.4910 H   0  0  0  0  0  0  0  0  0  0  0  0
  1  6  2  0  0  0  0
  1  2  1  0  0  0  0
  2  3  2  0  0  0  0
  3  4  1  0  0  0  0
  3 25  1  0  0  0  0
  5  4  2  0  0  0  0
  6  5  1  0  0  0  0
  7  2  1  0  0  0  0
  8  5  1  0  0  0  0
  8 17  1  0  0  0  0
  9 10  1  0  0  0  0
  9  8  2  0  0  0  0
 10 11  2  0  0  0  0
 11 12  1  0  0  0  0
 12 13  1  0  0  0  0
 13 19  1  0  0  0  0
 13 14  2  0  0  0  0
 14 20  1  0  0  0  0
 15 14  1  0  0  0  0
 15 21  1  0  0  0  0
 16 22  1  0  0  0  0
 16 15  2  0  0  0  0
 17 12  2  0  0  0  0
 17 16  1  0  0  0  0
 18 10  1  0  0  0  0
 23 24  1  0  0  0  0
 24 29  1  0  0  0  0
 25 24  2  0  0  0  0
 25 26  1  0  0  0  0
 26 27  2  0  0  0  0
 27 28  1  0  0  0  0
 27 31  1  0  0  0  0
 28 32  1  0  0  0  0
 29 33  1  0  0  0  0
 29 28  2  0  0  0  0
 30 26  1  0  0  0  0
 33 35  1  0  0  0  0
 34 33  1  0  0  0  0
 34 35  1  0  0  0  0
 36  1  1  0  0  0  0
 37 36  1  0  0  0  0
 38 36  1  0  0  0  0
M  END
>  <minimizedAffinity>
-6.57804537

$$$$

 OpenBabel03272503593D

 38 42  0  0  0  0  0  0  0  0999 V2000
   36.2880   29.1710   31.3990 C   0  0  0  0  0  0  0  0  0  0  0  0
   35.6880   29.9760   32.3880 C   0  0  0  0  0  0  0  0  0  0  0  0
   35.7290   29.4710   33.6600 C   0  0  0  0  0  0  0  0  0  0  0  0
   36.3110   28.3140   33.8190 N   0  0  0  0  0  0  0  0  0  0  0  0
   36.8780   27.5290   32.9670 C   0  0  0  0  0  0  0  0  0  0  0  0
   36.8350   28.0210   31.7470 N   0  0  0  0  0  0  0  0  0  0  0  0
   35.2550   30.9020   32.0720 H   0  0  0  0  0  0  0  0  0  0  0  0
   37.5480   26.2280   33.0250 C   0  0  0  0  0  0  0  0  0  0  0  0
   38.7450   26.0520   33.6610 N   0  0  0  0  0  0  0  0  0  0  0  0
   39.3530   24.8770   33.7030 C   0  0  0  0  0  0  0  0  0  0  0  0
   38.8620   23.7560   33.1310 N   0  0  0  0  0  0  0  0  0  0  0  0
   37.6920   23.8620   32.4910 C   0  0  0  0  0  0  0  0  0  0  0  0
   37.1730   22.7370   31.9020 C   0  0  0  0  0  0  0  0  0  0  0  0
   35.9580   22.7980   31.2260 C   0  0  0  0  0  0  0  0  0  0  0  0
   35.3260   24.0230   31.1860 C   0  0  0  0  0  0  0  0  0  0  0  0
   35.8850   25.1280   31.7920 C   0  0  0  0  0  0  0  0  0  0  0  0
   37.0640   25.0980   32.4550 C   0  0  0  0  0  0  0  0  0  0  0  0
   40.3040   24.8800   34.2470 H   0  0  0  0  0  0  0  0  0  0  0  0
   37.6800   21.7790   31.9420 H   0  0  0  0  0  0  0  0  0  0  0  0
   35.5830   21.9120   30.7800 H   0  0  0  0  0  0  0  0  0  0  0  0
   34.3860   24.0040   30.6460 H   0  0  0  0  0  0  0  0  0  0  0  0
   35.2600   25.9950   31.6660 H   0  0  0  0  0  0  0  0  0  0  0  0
   32.6590   29.3560   34.0570 Cl  0  0  0  0  0  0  0  0  0  0  0  0
   33.7860   30.3410   34.9760 C   0  0  0  0  0  0  0  0  0  0  0  0
   35.1420   30.2890   34.6900 C   0  0  0  0  0  0  0  0  0  0  0  0
   35.8830   31.1030   35.4970 C   0  0  0  0  0  0  0  0  0  0  0  0
   35.3220   31.8860   36.4850 C   0  0  0  0  0  0  0  0  0  0  0  0
   33.9850   31.9110   36.7360 C   0  0  0  0  0  0  0  0  0  0  0  0
   33.2050   31.1150   35.9560 C   0  0  0  0  0  0  0  0  0  0  0  0
   36.9670   31.1580   35.3790 H   0  0  0  0  0  0  0  0  0  0  0  0
   35.9900   32.5200   37.0980 H   0  0  0  0  0  0  0  0  0  0  0  0
   33.6260   32.5400   37.5140 H   0  0  0  0  0  0  0  0  0  0  0  0
   31.7340   31.1240   36.2110 C   0  0  0  0  0  3  0  0  0  0  0  0
   30.8650   31.9820   35.3540 C   0  0  0  0  0  2  0  0  0  0  0  0
   31.0700   32.2920   36.7860 C   0  0  0  0  0  2  0  0  0  0  0  0
   36.3170   29.5820   29.9940 N   0  0  0  0  0  0  0  0  0  0  0  0
   35.3720   29.6900   29.6200 H   0  0  0  0  0  0  0  0  0  0  0  0
   37.1100   29.7670   29.3550 H   0  0  0  0  0  0  0  0  0  0  0  0
  1  6  2  0  0  0  0
  1  2  1  0  0  0  0
  2  3  2  0  0  0  0
  3  4  1  0  0  0  0
  3 25  1  0  0  0  0
  5  8  1  0  0  0  0
  5  4  2  0  0  0  0
  6  5  1  0  0  0  0
  7  2  1  0  0  0  0
  8  9  1  0  0  0  0
  9 10  2  0  0  0  0
 10 18  1  0  0  0  0
 11 10  1  0  0  0  0
 12 11  2  0  0  0  0
 13 19  1  0  0  0  0
 13 12  1  0  0  0  0
 14 13  2  0  0  0  0
 15 14  1  0  0  0  0
 15 16  2  0  0  0  0
 16 17  1  0  0  0  0
 17 12  1  0  0  0  0
 17  8  2  0  0  0  0
 20 14  1  0  0  0  0
 21 15  1  0  0  0  0
 22 16  1  0  0  0  0
 23 24  1  0  0  0  0
 24 29  1  0  0  0  0
 25 24  2  0  0  0  0
 25 26  1  0  0  0  0
 26 27  2  0  0  0  0
 27 28  1  0  0  0  0
 27 31  1  0  0  0  0
 28 32  1  0  0  0  0
 29 33  1  0  0  0  0
 29 28  2  0  0  0  0
 30 26  1  0  0  0  0
 33 35  1  0  0  0  0
 34 33  1  0  0  0  0
 34 35  1  0  0  0  0
 36  1  1  0  0  0  0
 37 36  1  0  0  0  0
 38 36  1  0  0  0  0
M  END
>  <minimizedAffinity>
-6.57553053

$$$$

 OpenBabel03272503593D

 38 42  0  0  0  0  0  0  0  0999 V2000
   36.6400   24.3430   31.9950 C   0  0  0  0  0  0  0  0  0  0  0  0
   36.2430   25.6920   31.9030 C   0  0  0  0  0  0  0  0  0  0  0  0
   36.9190   26.5600   32.7180 C   0  0  0  0  0  0  0  0  0  0  0  0
   37.8460   26.0510   33.4840 N   0  0  0  0  0  0  0  0  0  0  0  0
   38.2590   24.8370   33.6190 C   0  0  0  0  0  0  0  0  0  0  0  0
   37.6050   24.0090   32.8310 N   0  0  0  0  0  0  0  0  0  0  0  0
   35.4590   25.9280   31.2140 H   0  0  0  0  0  0  0  0  0  0  0  0
   39.2680   24.1580   34.4340 C   0  0  0  0  0  0  0  0  0  0  0  0
   40.4630   23.7410   33.9180 N   0  0  0  0  0  0  0  0  0  0  0  0
   41.3690   23.1180   34.6550 C   0  0  0  0  0  0  0  0  0  0  0  0
   41.2060   22.8360   35.9660 N   0  0  0  0  0  0  0  0  0  0  0  0
   40.0550   23.2170   36.5320 C   0  0  0  0  0  0  0  0  0  0  0  0
   39.8670   22.9420   37.8620 C   0  0  0  0  0  0  0  0  0  0  0  0
   38.6860   23.3210   38.4950 C   0  0  0  0  0  0  0  0  0  0  0  0
   37.7450   23.9710   37.7250 C   0  0  0  0  0  0  0  0  0  0  0  0
   37.9780   24.2270   36.3910 C   0  0  0  0  0  0  0  0  0  0  0  0
   39.1150   23.8710   35.7500 C   0  0  0  0  0  0  0  0  0  0  0  0
   42.2800   22.8410   34.1120 H   0  0  0  0  0  0  0  0  0  0  0  0
   40.6160   22.4300   38.4570 H   0  0  0  0  0  0  0  0  0  0  0  0
   38.5700   23.0930   39.5240 H   0  0  0  0  0  0  0  0  0  0  0  0
   36.8500   24.2390   38.2750 H   0  0  0  0  0  0  0  0  0  0  0  0
   37.1440   24.7420   35.9450 H   0  0  0  0  0  0  0  0  0  0  0  0
   37.4090   28.0310   30.0370 Cl  0  0  0  0  0  0  0  0  0  0  0  0
   36.7110   28.7300   31.4900 C   0  0  0  0  0  0  0  0  0  0  0  0
   36.5470   27.9470   32.6230 C   0  0  0  0  0  0  0  0  0  0  0  0
   35.9840   28.6330   33.6600 C   0  0  0  0  0  0  0  0  0  0  0  0
   35.6270   29.9630   33.5690 C   0  0  0  0  0  0  0  0  0  0  0  0
   35.8040   30.6990   32.4380 C   0  0  0  0  0  0  0  0  0  0  0  0
   36.3620   30.0570   31.3770 C   0  0  0  0  0  0  0  0  0  0  0  0
   35.7990   28.1360   34.6140 H   0  0  0  0  0  0  0  0  0  0  0  0
   35.1750   30.4490   34.4540 H   0  0  0  0  0  0  0  0  0  0  0  0
   35.5030   31.7180   32.4440 H   0  0  0  0  0  0  0  0  0  0  0  0
   36.5680   30.8420   30.1240 C   0  0  0  0  0  3  0  0  0  0  0  0
   37.7700   31.7190   30.0190 C   0  0  0  0  0  2  0  0  0  0  0  0
   36.4100   32.2940   30.1040 C   0  0  0  0  0  2  0  0  0  0  0  0
   36.0040   23.3020   31.1840 N   0  0  0  0  0  0  0  0  0  0  0  0
   35.0040   23.2340   31.3870 H   0  0  0  0  0  0  0  0  0  0  0  0
   36.3940   22.6580   30.4740 H   0  0  0  0  0  0  0  0  0  0  0  0
  1  6  1  0  0  0  0
  2  1  2  0  0  0  0
  2  3  1  0  0  0  0
  3  4  2  0  0  0  0
  4  5  1  0  0  0  0
  5  8  1  0  0  0  0
  6  5  2  0  0  0  0
  7  2  1  0  0  0  0
  8 17  1  0  0  0  0
  9  8  2  0  0  0  0
  9 10  1  0  0  0  0
 10 11  2  0  0  0  0
 11 12  1  0  0  0  0
 12 13  1  0  0  0  0
 13 19  1  0  0  0  0
 13 14  2  0  0  0  0
 14 20  1  0  0  0  0
 15 21  1  0  0  0  0
 15 14  1  0  0  0  0
 16 15  2  0  0  0  0
 17 16  1  0  0  0  0
 17 12  2  0  0  0  0
 18 10  1  0  0  0  0
 22 16  1  0  0  0  0
 23 24  1  0  0  0  0
 24 25  1  0  0  0  0
 25  3  1  0  0  0  0
 25 26  2  0  0  0  0
 26 30  1  0  0  0  0
 27 26  1  0  0  0  0
 27 31  1  0  0  0  0
 28 32  1  0  0  0  0
 28 27  2  0  0  0  0
 29 24  2  0  0  0  0
 29 28  1  0  0  0  0
 33 29  1  0  0  0  0
 34 35  1  0  0  0  0
 34 33  1  0  0  0  0
 35 33  1  0  0  0  0
 36 37  1  0  0  0  0
 36  1  1  0  0  0  0
 38 36  1  0  0  0  0
M  END
>  <minimizedAffinity>
-6.54889441

$$$$

 OpenBabel03272503593D

 38 42  0  0  0  0  0  0  0  0999 V2000
   35.7510   29.8300   31.6270 C   0  0  0  0  0  0  0  0  0  0  0  0
   35.0350   30.4520   32.6690 C   0  0  0  0  0  0  0  0  0  0  0  0
   34.9410   29.7310   33.8290 C   0  0  0  0  0  0  0  0  0  0  0  0
   35.5170   28.5600   33.8450 N   0  0  0  0  0  0  0  0  0  0  0  0
   36.1840   27.9330   32.9370 C   0  0  0  0  0  0  0  0  0  0  0  0
   36.2700   28.6330   31.8250 N   0  0  0  0  0  0  0  0  0  0  0  0
   34.6280   31.4220   32.4750 H   0  0  0  0  0  0  0  0  0  0  0  0
   36.8600   26.6380   32.8390 C   0  0  0  0  0  0  0  0  0  0  0  0
   36.3830   25.6230   32.0560 N   0  0  0  0  0  0  0  0  0  0  0  0
   36.9920   24.4500   31.9780 C   0  0  0  0  0  0  0  0  0  0  0  0
   38.1210   24.1430   32.6510 N   0  0  0  0  0  0  0  0  0  0  0  0
   38.6380   25.0940   33.4370 C   0  0  0  0  0  0  0  0  0  0  0  0
   39.7860   24.8060   34.1310 C   0  0  0  0  0  0  0  0  0  0  0  0
   40.3620   25.7640   34.9600 C   0  0  0  0  0  0  0  0  0  0  0  0
   39.7270   26.9860   35.0390 C   0  0  0  0  0  0  0  0  0  0  0  0
   38.5760   27.2310   34.3220 C   0  0  0  0  0  0  0  0  0  0  0  0
   37.9940   26.3200   33.5100 C   0  0  0  0  0  0  0  0  0  0  0  0
   36.5000   23.7310   31.3130 H   0  0  0  0  0  0  0  0  0  0  0  0
   40.2760   23.8400   34.0600 H   0  0  0  0  0  0  0  0  0  0  0  0
   41.2490   25.5110   35.4840 H   0  0  0  0  0  0  0  0  0  0  0  0
   40.2250   27.6870   35.6990 H   0  0  0  0  0  0  0  0  0  0  0  0
   38.2170   28.2310   34.4980 H   0  0  0  0  0  0  0  0  0  0  0  0
   36.2780   32.1300   35.2610 Cl  0  0  0  0  0  0  0  0  0  0  0  0
   34.7120   31.4350   35.6470 C   0  0  0  0  0  0  0  0  0  0  0  0
   34.2340   30.3580   34.9150 C   0  0  0  0  0  0  0  0  0  0  0  0
   33.0030   29.9420   35.3320 C   0  0  0  0  0  0  0  0  0  0  0  0
   32.3250   30.5430   36.3730 C   0  0  0  0  0  0  0  0  0  0  0  0
   32.8260   31.5990   37.0680 C   0  0  0  0  0  0  0  0  0  0  0  0
   34.0530   32.0490   36.6890 C   0  0  0  0  0  0  0  0  0  0  0  0
   32.5100   29.1010   34.8420 H   0  0  0  0  0  0  0  0  0  0  0  0
   31.3300   30.1480   36.6510 H   0  0  0  0  0  0  0  0  0  0  0  0
   32.2450   32.0100   37.8580 H   0  0  0  0  0  0  0  0  0  0  0  0
   34.6270   33.2070   37.4360 C   0  0  0  0  0  3  0  0  0  0  0  0
   33.6970   34.2350   37.9870 C   0  0  0  0  0  2  0  0  0  0  0  0
   34.6160   34.5540   36.8720 C   0  0  0  0  0  2  0  0  0  0  0  0
   35.9300   30.4820   30.3280 N   0  0  0  0  0  0  0  0  0  0  0  0
   35.0300   30.6620   29.8760 H   0  0  0  0  0  0  0  0  0  0  0  0
   36.7860   30.7720   29.8240 H   0  0  0  0  0  0  0  0  0  0  0  0
  1  6  2  0  0  0  0
  1  2  1  0  0  0  0
  2  3  2  0  0  0  0
  3  4  1  0  0  0  0
  3 25  1  0  0  0  0
  5  4  2  0  0  0  0
  6  5  1  0  0  0  0
  7  2  1  0  0  0  0
  8  5  1  0  0  0  0
  8 17  1  0  0  0  0
  9  8  2  0  0  0  0
 10  9  1  0  0  0  0
 10 11  2  0  0  0  0
 11 12  1  0  0  0  0
 12 17  2  0  0  0  0
 12 13  1  0  0  0  0
 13 14  2  0  0  0  0
 14 15  1  0  0  0  0
 14 20  1  0  0  0  0
 15 21  1  0  0  0  0
 16 22  1  0  0  0  0
 16 15  2  0  0  0  0
 17 16  1  0  0  0  0
 18 10  1  0  0  0  0
 19 13  1  0  0  0  0
 23 24  1  0  0  0  0
 24 29  1  0  0  0  0
 25 26  1  0  0  0  0
 25 24  2  0  0  0  0
 26 27  2  0  0  0  0
 27 31  1  0  0  0  0
 27 28  1  0  0  0  0
 28 32  1  0  0  0  0
 29 28  2  0  0  0  0
 29 33  1  0  0  0  0
 30 26  1  0  0  0  0
 33 34  1  0  0  0  0
 35 33  1  0  0  0  0
 35 34  1  0  0  0  0
 36  1  1  0  0  0  0
 37 36  1  0  0  0  0
 38 36  1  0  0  0  0
M  END
>  <minimizedAffinity>
-6.53780651

$$$$
