
 OpenBabel03272506023D

 40 43  0  0  1  0  0  0  0  0999 V2000
   35.3230   30.3120   49.7940 C   0  0  2  0  0  0  0  0  0  0  0  0
   36.2430   31.3260   49.2910 C   0  0  0  0  0  0  0  0  0  0  0  0
   37.7330   30.8770   49.3920 C   0  0  2  0  0  0  0  0  0  0  0  0
   38.1480   30.5620   50.7370 C   0  0  0  0  0  0  0  0  0  0  0  0
   37.0920   29.8140   51.5470 C   0  0  0  0  0  0  0  0  0  0  0  0
   36.0220   29.2540   50.6580 C   0  0  0  0  0  0  0  0  0  0  0  0
   34.5770   30.7640   50.5160 H   0  0  0  0  0  0  0  0  0  0  0  0
   36.2360   32.2090   50.0200 H   0  0  0  0  0  0  0  0  0  0  0  0
   36.1660   31.7670   48.3250 H   0  0  0  0  0  0  0  0  0  0  0  0
   37.8660   30.0400   48.6830 H   0  0  0  0  0  0  0  0  0  0  0  0
   38.3690   31.4720   51.3270 H   0  0  0  0  0  0  0  0  0  0  0  0
   39.1100   30.0050   50.7060 H   0  0  0  0  0  0  0  0  0  0  0  0
   37.6050   28.9380   51.9930 H   0  0  0  0  0  0  0  0  0  0  0  0
   36.6870   30.4000   52.3810 H   0  0  0  0  0  0  0  0  0  0  0  0
   35.2590   28.7770   51.2910 H   0  0  0  0  0  0  0  0  0  0  0  0
   36.4840   28.5000   49.9780 H   0  0  0  0  0  0  0  0  0  0  0  0
   38.6180   30.6520   46.5840 Cl  0  0  0  0  0  0  0  0  0  0  0  0
   38.9830   32.0400   47.5730 C   0  0  0  0  0  0  0  0  0  0  0  0
   38.4770   32.0490   48.8470 C   0  0  0  0  0  0  0  0  0  0  0  0
   38.7800   33.2050   49.5520 C   0  0  0  0  0  0  0  0  0  0  0  0
   39.5200   34.2460   49.0270 C   0  0  0  0  0  0  0  0  0  0  0  0
   40.0010   34.1550   47.7190 C   0  0  0  0  0  0  0  0  0  0  0  0
   39.7180   33.0120   46.9740 C   0  0  0  0  0  0  0  0  0  0  0  0
   38.4130   33.2950   50.5670 H   0  0  0  0  0  0  0  0  0  0  0  0
   39.7030   35.1020   49.6530 H   0  0  0  0  0  0  0  0  0  0  0  0
   40.5810   34.9600   47.2950 H   0  0  0  0  0  0  0  0  0  0  0  0
   40.2080   32.9200   45.6450 N   0  0  0  0  0  0  0  0  0  0  0  0
   40.3640   31.9700   45.1940 H   0  0  0  0  0  0  0  0  0  0  0  0
   40.4210   33.7710   45.0920 H   0  0  0  0  0  0  0  0  0  0  0  0
   34.5400   29.5910   48.7970 C   0  0  0  0  0  0  0  0  0  0  0  0
   34.9350   29.8230   47.4890 C   0  0  0  0  0  0  0  0  0  0  0  0
   34.2710   29.1650   46.4600 C   0  0  0  0  0  0  0  0  0  0  0  0
   33.2290   28.2940   46.7970 N   0  0  0  0  0  0  0  0  0  0  0  0
   32.8770   28.0980   48.0810 C   0  0  0  0  0  0  0  0  0  0  0  0
   33.5450   28.7550   49.0360 N   0  0  0  0  0  0  0  0  0  0  0  0
   35.6650   30.4130   46.9520 H   0  0  0  0  0  0  0  0  0  0  0  0
   34.3750   29.1640   45.4020 H   0  0  0  0  0  0  0  0  0  0  0  0
   31.7700   27.1750   48.4450 C   0  0  0  0  0  0  0  0  0  0  0  0
   30.6330   27.6080   49.2610 C   0  0  0  0  0  0  0  0  0  0  0  0
   30.4610   27.4970   47.7410 C   0  0  0  0  0  0  0  0  0  0  0  0
  1  7  1  1  0  0  0
  1  6  1  0  0  0  0
  2  3  1  0  0  0  0
  2  1  1  0  0  0  0
  2  8  1  0  0  0  0
  3 10  1  6  0  0  0
  3  4  1  0  0  0  0
  4 11  1  0  0  0  0
  4  5  1  0  0  0  0
  5 13  1  0  0  0  0
  5 14  1  0  0  0  0
  6 15  1  0  0  0  0
  6  5  1  0  0  0  0
  9  2  1  0  0  0  0
 12  4  1  0  0  0  0
 16  6  1  0  0  0  0
 17 18  1  0  0  0  0
 18 19  1  0  0  0  0
 19  3  1  0  0  0  0
 19 20  2  0  0  0  0
 20 24  1  0  0  0  0
 21 20  1  0  0  0  0
 21 25  1  0  0  0  0
 22 21  2  0  0  0  0
 23 18  2  0  0  0  0
 23 22  1  0  0  0  0
 26 22  1  0  0  0  0
 27 23  1  0  0  0  0
 28 27  1  0  0  0  0
 29 27  1  0  0  0  0
 30 35  1  0  0  0  0
 30  1  1  0  0  0  0
 31 30  2  0  0  0  0
 32 33  2  0  0  0  0
 32 31  1  0  0  0  0
 33 34  1  0  0  0  0
 34 38  1  0  0  0  0
 34 35  2  0  0  0  0
 36 31  1  0  0  0  0
 37 32  1  0  0  0  0
 38 39  1  0  0  0  0
 40 38  1  0  0  0  0
 40 39  1  0  0  0  0
M  END
>  <minimizedAffinity>
-7.82756472

>  <minimizedRMSD>
0.417417496

$$$$
