
 OpenBabel03272510233D

 25 28  0  0  0  0  0  0  0  0999 V2000
   35.3420   29.9300   46.7680 C   0  0  0  0  0  0  0  0  0  0  0  0
   36.1090   30.2530   47.8720 C   0  0  0  0  0  0  0  0  0  0  0  0
   37.2930   30.9180   47.6990 C   0  0  0  0  0  0  0  0  0  0  0  0
   37.6850   31.2460   46.3990 C   0  0  0  0  0  0  0  0  0  0  0  0
   38.8150   31.8980   46.0140 N   0  0  0  0  0  0  0  0  0  0  0  0
   38.7570   31.9830   44.6790 C   0  0  0  0  0  0  0  0  0  0  0  0
   37.6360   31.4100   44.2190 N   0  0  0  0  0  0  0  0  0  0  0  0
   36.9400   30.9370   45.2720 C   0  0  0  0  0  0  0  0  0  0  0  0
   35.7470   30.2650   45.4750 C   0  0  0  0  0  0  0  0  0  0  0  0
   34.3890   29.4040   46.8170 H   0  0  0  0  0  0  0  0  0  0  0  0
   37.9080   31.1800   48.5490 H   0  0  0  0  0  0  0  0  0  0  0  0
   39.5650   32.2550   46.6340 H   0  0  0  0  0  0  0  0  0  0  0  0
   35.1500   30.0140   44.6110 H   0  0  0  0  0  0  0  0  0  0  0  0
   35.7990   29.2660   51.4860 C   0  0  0  0  0  0  0  0  0  0  0  0
   36.4020   29.6400   50.2780 C   0  0  0  0  0  0  0  0  0  0  0  0
   35.6020   29.8630   49.1750 C   0  0  0  0  0  0  0  0  0  0  0  0
   34.2520   29.7060   49.3060 N   0  0  0  0  0  0  0  0  0  0  0  0
   33.6830   29.3420   50.4860 C   0  0  0  0  0  0  0  0  0  0  0  0
   34.4560   29.1240   51.5660 N   0  0  0  0  0  0  0  0  0  0  0  0
   36.4780   29.1090   52.3050 H   0  0  0  0  0  0  0  0  0  0  0  0
   37.4620   29.7580   50.1900 H   0  0  0  0  0  0  0  0  0  0  0  0
   32.6190   29.2150   50.6050 H   0  0  0  0  0  0  0  0  0  0  0  0
   39.8000   32.6310   43.8100 C   0  0  0  0  0  3  0  0  0  0  0  0
   39.9030   34.1350   44.0670 C   0  0  0  0  0  2  0  0  0  0  0  0
   41.0400   33.1720   44.3720 C   0  0  0  0  0  2  0  0  0  0  0  0
  1 10  1  0  0  0  0
  1  2  1  0  0  0  0
  2 16  1  0  0  0  0
  3  2  2  0  0  0  0
  3 11  1  0  0  0  0
  4  3  1  0  0  0  0
  5  4  1  0  0  0  0
  5 12  1  0  0  0  0
  6  5  1  0  0  0  0
  7  6  2  0  0  0  0
  7  8  1  0  0  0  0
  8  9  1  0  0  0  0
  8  4  2  0  0  0  0
  9  1  2  0  0  0  0
 13  9  1  0  0  0  0
 14 19  1  0  0  0  0
 14 20  1  0  0  0  0
 15 14  2  0  0  0  0
 16 17  2  0  0  0  0
 16 15  1  0  0  0  0
 17 18  1  0  0  0  0
 18 22  1  0  0  0  0
 18 19  2  0  0  0  0
 21 15  1  0  0  0  0
 23 24  1  0  0  0  0
 23 25  1  0  0  0  0
 23  6  1  0  0  0  0
 24 25  1  0  0  0  0
M  END
>  <minimizedAffinity>
-3.27200007

>  <minimizedRMSD>
1.94180191

$$$$
