
 OpenBabel03272501503D

 14 15  0  0  0  0  0  0  0  0999 V2000
   37.9110   24.1920   38.1650 C   0  0  0  0  0  0  0  0  0  0  0  0
   38.0450   24.9540   36.9880 C   0  0  0  0  0  0  0  0  0  0  0  0
   39.0710   24.5910   36.0950 C   0  0  0  0  0  0  0  0  0  0  0  0
   39.8680   23.5290   36.4230 N   0  0  0  0  0  0  0  0  0  0  0  0
   39.7000   22.8340   37.5570 C   0  0  0  0  0  0  0  0  0  0  0  0
   38.7220   23.1570   38.4390 N   0  0  0  0  0  0  0  0  0  0  0  0
   40.6010   21.7490   37.7770 N   0  0  0  0  0  0  0  0  0  0  0  0
   37.1130   24.4900   38.8380 H   0  0  0  0  0  0  0  0  0  0  0  0
   37.4010   25.7900   36.7530 H   0  0  0  0  0  0  0  0  0  0  0  0
   40.4260   20.7320   37.9360 H   0  0  0  0  0  0  0  0  0  0  0  0
   41.6060   22.0860   37.7690 H   0  0  0  0  0  0  0  0  0  0  0  0
   39.2980   25.3310   34.8240 C   0  0  0  0  0  3  0  0  0  0  0  0
   40.3660   26.4390   34.8560 C   0  0  0  0  0  2  0  0  0  0  0  0
   38.9210   26.7380   34.6910 C   0  0  0  0  0  2  0  0  0  0  0  0
  1  6  1  0  0  0  0
  1  8  1  0  0  0  0
  2  1  2  0  0  0  0
  3  4  2  0  0  0  0
  3  2  1  0  0  0  0
  4  5  1  0  0  0  0
  5  7  1  0  0  0  0
  5  6  2  0  0  0  0
  7 10  1  0  0  0  0
  9  2  1  0  0  0  0
 11  7  1  0  0  0  0
 12 13  1  0  0  0  0
 12  3  1  0  0  0  0
 14 12  1  0  0  0  0
 14 13  1  0  0  0  0
M  END
>  <minimizedAffinity>
-3.92912316

$$$$

 OpenBabel03272501503D

 14 15  0  0  0  0  0  0  0  0999 V2000
   36.4410   21.0830   34.0430 C   0  0  0  0  0  0  0  0  0  0  0  0
   37.5480   21.8800   34.3930 C   0  0  0  0  0  0  0  0  0  0  0  0
   37.6710   22.2610   35.7420 C   0  0  0  0  0  0  0  0  0  0  0  0
   36.7160   21.8360   36.6240 N   0  0  0  0  0  0  0  0  0  0  0  0
   35.6800   21.0760   36.2420 C   0  0  0  0  0  0  0  0  0  0  0  0
   35.5300   20.6920   34.9500 N   0  0  0  0  0  0  0  0  0  0  0  0
   34.7550   20.7020   37.2640 N   0  0  0  0  0  0  0  0  0  0  0  0
   36.3660   20.8010   32.9970 H   0  0  0  0  0  0  0  0  0  0  0  0
   38.2890   22.2030   33.6740 H   0  0  0  0  0  0  0  0  0  0  0  0
   34.4380   19.7640   37.5930 H   0  0  0  0  0  0  0  0  0  0  0  0
   34.3500   21.5600   37.7380 H   0  0  0  0  0  0  0  0  0  0  0  0
   38.8040   23.1030   36.2150 C   0  0  0  0  0  3  0  0  0  0  0  0
   40.0220   22.3560   36.7880 C   0  0  0  0  0  2  0  0  0  0  0  0
   39.1370   23.1930   37.6360 C   0  0  0  0  0  2  0  0  0  0  0  0
  1  2  2  0  0  0  0
  1  6  1  0  0  0  0
  2  3  1  0  0  0  0
  3 12  1  0  0  0  0
  3  4  2  0  0  0  0
  5  4  1  0  0  0  0
  5  7  1  0  0  0  0
  6  5  2  0  0  0  0
  7 10  1  0  0  0  0
  7 11  1  0  0  0  0
  8  1  1  0  0  0  0
  9  2  1  0  0  0  0
 12 13  1  0  0  0  0
 12 14  1  0  0  0  0
 13 14  1  0  0  0  0
M  END
>  <minimizedAffinity>
-3.85176635

$$$$

 OpenBabel03272501503D

 14 15  0  0  0  0  0  0  0  0999 V2000
   38.8260   22.4190   34.9520 C   0  0  0  0  0  0  0  0  0  0  0  0
   38.4940   23.7250   34.5460 C   0  0  0  0  0  0  0  0  0  0  0  0
   38.3600   24.7010   35.5520 C   0  0  0  0  0  0  0  0  0  0  0  0
   38.5600   24.3230   36.8510 N   0  0  0  0  0  0  0  0  0  0  0  0
   38.8770   23.0640   37.1860 C   0  0  0  0  0  0  0  0  0  0  0  0
   39.0130   22.0990   36.2430 N   0  0  0  0  0  0  0  0  0  0  0  0
   39.0580   22.8040   38.5790 N   0  0  0  0  0  0  0  0  0  0  0  0
   38.9250   21.6830   34.1590 H   0  0  0  0  0  0  0  0  0  0  0  0
   38.3400   23.9980   33.5110 H   0  0  0  0  0  0  0  0  0  0  0  0
   39.8750   22.4220   39.1050 H   0  0  0  0  0  0  0  0  0  0  0  0
   38.1870   23.0590   39.1260 H   0  0  0  0  0  0  0  0  0  0  0  0
   38.0110   26.1120   35.2290 C   0  0  0  0  0  3  0  0  0  0  0  0
   39.1830   27.0460   34.8760 C   0  0  0  0  0  2  0  0  0  0  0  0
   38.3900   27.2070   36.1210 C   0  0  0  0  0  2  0  0  0  0  0  0
  1  6  1  0  0  0  0
  2  1  2  0  0  0  0
  2  3  1  0  0  0  0
  3  4  2  0  0  0  0
  4  5  1  0  0  0  0
  5  7  1  0  0  0  0
  6  5  2  0  0  0  0
  7 10  1  0  0  0  0
  7 11  1  0  0  0  0
  8  1  1  0  0  0  0
  9  2  1  0  0  0  0
 12  3  1  0  0  0  0
 12 14  1  0  0  0  0
 13 12  1  0  0  0  0
 13 14  1  0  0  0  0
M  END
>  <minimizedAffinity>
-3.84353375

$$$$

 OpenBabel03272501503D

 14 15  0  0  0  0  0  0  0  0999 V2000
   38.0750   25.0870   33.8130 C   0  0  0  0  0  0  0  0  0  0  0  0
   38.1710   23.9720   34.6670 C   0  0  0  0  0  0  0  0  0  0  0  0
   38.3630   24.2210   36.0390 C   0  0  0  0  0  0  0  0  0  0  0  0
   38.4430   25.5210   36.4550 N   0  0  0  0  0  0  0  0  0  0  0  0
   38.3450   26.5500   35.6020 C   0  0  0  0  0  0  0  0  0  0  0  0
   38.1600   26.3460   34.2740 N   0  0  0  0  0  0  0  0  0  0  0  0
   38.4460   27.8570   36.1680 N   0  0  0  0  0  0  0  0  0  0  0  0
   37.9270   24.8710   32.7590 H   0  0  0  0  0  0  0  0  0  0  0  0
   38.1040   22.9530   34.3120 H   0  0  0  0  0  0  0  0  0  0  0  0
   37.7880   28.6680   36.1480 H   0  0  0  0  0  0  0  0  0  0  0  0
   39.3640   27.9730   36.6860 H   0  0  0  0  0  0  0  0  0  0  0  0
   38.4770   23.1120   37.0260 C   0  0  0  0  0  3  0  0  0  0  0  0
   37.6640   23.2620   38.3240 C   0  0  0  0  0  2  0  0  0  0  0  0
   39.1480   23.3100   38.3100 C   0  0  0  0  0  2  0  0  0  0  0  0
  1  6  2  0  0  0  0
  1  2  1  0  0  0  0
  2  3  2  0  0  0  0
  3  4  1  0  0  0  0
  3 12  1  0  0  0  0
  5  7  1  0  0  0  0
  5  4  2  0  0  0  0
  6  5  1  0  0  0  0
  7 11  1  0  0  0  0
  8  1  1  0  0  0  0
  9  2  1  0  0  0  0
 10  7  1  0  0  0  0
 12 14  1  0  0  0  0
 12 13  1  0  0  0  0
 14 13  1  0  0  0  0
M  END
>  <minimizedAffinity>
-3.52020383

$$$$

 OpenBabel03272501503D

 14 15  0  0  0  0  0  0  0  0999 V2000
   41.5610   22.6210   35.0880 C   0  0  0  0  0  0  0  0  0  0  0  0
   40.2730   23.1160   35.3700 C   0  0  0  0  0  0  0  0  0  0  0  0
   39.6700   22.7020   36.5720 C   0  0  0  0  0  0  0  0  0  0  0  0
   40.3650   21.8510   37.3860 N   0  0  0  0  0  0  0  0  0  0  0  0
   41.5910   21.4070   37.0720 C   0  0  0  0  0  0  0  0  0  0  0  0
   42.2020   21.7860   35.9230 N   0  0  0  0  0  0  0  0  0  0  0  0
   42.2060   20.5230   38.0100 N   0  0  0  0  0  0  0  0  0  0  0  0
   42.0070   22.9540   34.1560 H   0  0  0  0  0  0  0  0  0  0  0  0
   39.7450   23.7880   34.7090 H   0  0  0  0  0  0  0  0  0  0  0  0
   43.1090   20.5910   38.5280 H   0  0  0  0  0  0  0  0  0  0  0  0
   41.6010   19.6670   38.1740 H   0  0  0  0  0  0  0  0  0  0  0  0
   38.3110   23.1680   36.9640 C   0  0  0  0  0  3  0  0  0  0  0  0
   38.1700   24.6610   37.3110 C   0  0  0  0  0  2  0  0  0  0  0  0
   38.0240   23.5940   38.3330 C   0  0  0  0  0  2  0  0  0  0  0  0
  1  2  2  0  0  0  0
  1  6  1  0  0  0  0
  2  3  1  0  0  0  0
  3 12  1  0  0  0  0
  3  4  2  0  0  0  0
  5  4  1  0  0  0  0
  5  7  1  0  0  0  0
  6  5  2  0  0  0  0
  7 11  1  0  0  0  0
  7 10  1  0  0  0  0
  8  1  1  0  0  0  0
  9  2  1  0  0  0  0
 12 13  1  0  0  0  0
 12 14  1  0  0  0  0
 13 14  1  0  0  0  0
M  END
>  <minimizedAffinity>
-3.39476299

$$$$

 OpenBabel03272501503D

 14 15  0  0  0  0  0  0  0  0999 V2000
   35.8350   28.4930   32.2650 C   0  0  0  0  0  0  0  0  0  0  0  0
   36.3160   28.3240   33.5770 C   0  0  0  0  0  0  0  0  0  0  0  0
   36.9250   27.0940   33.8900 C   0  0  0  0  0  0  0  0  0  0  0  0
   37.0120   26.1470   32.9080 N   0  0  0  0  0  0  0  0  0  0  0  0
   36.5390   26.3560   31.6710 C   0  0  0  0  0  0  0  0  0  0  0  0
   35.9460   27.5290   31.3360 N   0  0  0  0  0  0  0  0  0  0  0  0
   36.6940   25.2840   30.7410 N   0  0  0  0  0  0  0  0  0  0  0  0
   35.3690   29.4490   32.0460 H   0  0  0  0  0  0  0  0  0  0  0  0
   36.2340   29.0900   34.3360 H   0  0  0  0  0  0  0  0  0  0  0  0
   37.1690   25.2430   29.8120 H   0  0  0  0  0  0  0  0  0  0  0  0
   36.2300   24.4010   31.1030 H   0  0  0  0  0  0  0  0  0  0  0  0
   37.4660   26.8150   35.2490 C   0  0  0  0  0  3  0  0  0  0  0  0
   38.9320   27.2150   35.4990 C   0  0  0  0  0  2  0  0  0  0  0  0
   38.4950   25.7960   35.4570 C   0  0  0  0  0  2  0  0  0  0  0  0
  1  2  1  0  0  0  0
  2  3  2  0  0  0  0
  2  9  1  0  0  0  0
  3 12  1  0  0  0  0
  4  3  1  0  0  0  0
  5  4  2  0  0  0  0
  6  5  1  0  0  0  0
  6  1  2  0  0  0  0
  7 11  1  0  0  0  0
  7  5  1  0  0  0  0
  8  1  1  0  0  0  0
 10  7  1  0  0  0  0
 12 14  1  0  0  0  0
 12 13  1  0  0  0  0
 14 13  1  0  0  0  0
M  END
>  <minimizedAffinity>
-3.3622992

$$$$

 OpenBabel03272501503D

 14 15  0  0  0  0  0  0  0  0999 V2000
   37.4870   23.1130   37.1710 C   0  0  0  0  0  0  0  0  0  0  0  0
   37.7980   24.4850   37.2480 C   0  0  0  0  0  0  0  0  0  0  0  0
   38.2980   25.1010   36.0860 C   0  0  0  0  0  0  0  0  0  0  0  0
   38.4500   24.3370   34.9620 N   0  0  0  0  0  0  0  0  0  0  0  0
   38.1390   23.0330   34.9390 C   0  0  0  0  0  0  0  0  0  0  0  0
   37.6550   22.4080   36.0400 N   0  0  0  0  0  0  0  0  0  0  0  0
   38.3460   22.3520   33.7010 N   0  0  0  0  0  0  0  0  0  0  0  0
   37.1020   22.6590   38.0790 H   0  0  0  0  0  0  0  0  0  0  0  0
   37.6680   25.0660   38.1500 H   0  0  0  0  0  0  0  0  0  0  0  0
   37.6870   21.8180   33.0920 H   0  0  0  0  0  0  0  0  0  0  0  0
   39.3570   22.4330   33.3910 H   0  0  0  0  0  0  0  0  0  0  0  0
   38.6580   26.5460   36.0620 C   0  0  0  0  0  3  0  0  0  0  0  0
   37.6960   27.4800   35.3040 C   0  0  0  0  0  2  0  0  0  0  0  0
   39.0720   27.2000   34.8210 C   0  0  0  0  0  2  0  0  0  0  0  0
  1  2  1  0  0  0  0
  1  8  1  0  0  0  0
  2  9  1  0  0  0  0
  3  2  2  0  0  0  0
  4  3  1  0  0  0  0
  5  4  2  0  0  0  0
  5  6  1  0  0  0  0
  6  1  2  0  0  0  0
  7  5  1  0  0  0  0
 10  7  1  0  0  0  0
 11  7  1  0  0  0  0
 12  3  1  0  0  0  0
 13 12  1  0  0  0  0
 14 13  1  0  0  0  0
 14 12  1  0  0  0  0
M  END
>  <minimizedAffinity>
-3.34336543

$$$$

 OpenBabel03272501503D

 14 15  0  0  0  0  0  0  0  0999 V2000
   38.7510   24.5790   35.8900 C   0  0  0  0  0  0  0  0  0  0  0  0
   40.0280   24.1870   35.4440 C   0  0  0  0  0  0  0  0  0  0  0  0
   40.7350   23.2630   36.2340 C   0  0  0  0  0  0  0  0  0  0  0  0
   40.1430   22.8050   37.3790 N   0  0  0  0  0  0  0  0  0  0  0  0
   38.9230   23.2080   37.7620 C   0  0  0  0  0  0  0  0  0  0  0  0
   38.2140   24.0970   37.0240 N   0  0  0  0  0  0  0  0  0  0  0  0
   38.4230   22.6510   38.9780 N   0  0  0  0  0  0  0  0  0  0  0  0
   38.2230   25.2920   35.2640 H   0  0  0  0  0  0  0  0  0  0  0  0
   40.4730   24.5660   34.5340 H   0  0  0  0  0  0  0  0  0  0  0  0
   37.5550   22.1060   39.1780 H   0  0  0  0  0  0  0  0  0  0  0  0
   39.0810   22.8540   39.7840 H   0  0  0  0  0  0  0  0  0  0  0  0
   42.0920   22.7850   35.8510 C   0  0  0  0  0  3  0  0  0  0  0  0
   43.2840   23.5040   36.5100 C   0  0  0  0  0  2  0  0  0  0  0  0
   42.9920   23.6220   35.0590 C   0  0  0  0  0  2  0  0  0  0  0  0
  1  6  1  0  0  0  0
  2  1  2  0  0  0  0
  2  3  1  0  0  0  0
  3  4  2  0  0  0  0
  4  5  1  0  0  0  0
  5  7  1  0  0  0  0
  6  5  2  0  0  0  0
  7 10  1  0  0  0  0
  7 11  1  0  0  0  0
  8  1  1  0  0  0  0
  9  2  1  0  0  0  0
 12  3  1  0  0  0  0
 12 13  1  0  0  0  0
 14 12  1  0  0  0  0
 14 13  1  0  0  0  0
M  END
>  <minimizedAffinity>
-3.34121418

$$$$

 OpenBabel03272501503D

 14 15  0  0  0  0  0  0  0  0999 V2000
   37.7000   24.3180   32.0260 C   0  0  0  0  0  0  0  0  0  0  0  0
   37.7640   24.7810   33.3540 C   0  0  0  0  0  0  0  0  0  0  0  0
   37.2810   26.0780   33.6110 C   0  0  0  0  0  0  0  0  0  0  0  0
   36.7830   26.8020   32.5640 N   0  0  0  0  0  0  0  0  0  0  0  0
   36.7440   26.3160   31.3150 C   0  0  0  0  0  0  0  0  0  0  0  0
   37.2000   25.0700   31.0320 N   0  0  0  0  0  0  0  0  0  0  0  0
   36.1990   27.1760   30.3140 N   0  0  0  0  0  0  0  0  0  0  0  0
   38.0770   23.3140   31.8520 H   0  0  0  0  0  0  0  0  0  0  0  0
   38.1630   24.1870   34.1650 H   0  0  0  0  0  0  0  0  0  0  0  0
   35.3980   27.0460   29.6570 H   0  0  0  0  0  0  0  0  0  0  0  0
   36.7350   28.0900   30.2710 H   0  0  0  0  0  0  0  0  0  0  0  0
   37.3030   26.6620   34.9800 C   0  0  0  0  0  3  0  0  0  0  0  0
   38.6130   27.3470   35.4130 C   0  0  0  0  0  2  0  0  0  0  0  0
   38.1360   26.0850   36.0340 C   0  0  0  0  0  2  0  0  0  0  0  0
  1  2  1  0  0  0  0
  2  3  2  0  0  0  0
  2  9  1  0  0  0  0
  3 12  1  0  0  0  0
  4  3  1  0  0  0  0
  5  4  2  0  0  0  0
  6  5  1  0  0  0  0
  6  1  2  0  0  0  0
  7  5  1  0  0  0  0
  8  1  1  0  0  0  0
 10  7  1  0  0  0  0
 11  7  1  0  0  0  0
 12 13  1  0  0  0  0
 12 14  1  0  0  0  0
 13 14  1  0  0  0  0
M  END
>  <minimizedAffinity>
-3.27917957

$$$$
