
 OpenBabel03272505133D

 33 36  0  0  0  0  0  0  0  0999 V2000
   36.4050   30.8980   45.7010 Cl  0  0  0  0  0  0  0  0  0  0  0  0
   36.6900   30.7710   47.4150 C   0  0  0  0  0  0  0  0  0  0  0  0
   37.9480   31.0970   47.8770 C   0  0  0  0  0  0  0  0  0  0  0  0
   38.1830   30.9990   49.2370 C   0  0  0  0  0  0  0  0  0  0  0  0
   37.1930   30.5910   50.0740 C   0  0  0  0  0  0  0  0  0  0  0  0
   35.9370   30.2730   49.5440 C   0  0  0  0  0  0  0  0  0  0  0  0
   35.6280   30.3450   48.2160 C   0  0  0  0  0  0  0  0  0  0  0  0
   39.1680   31.2540   49.6060 H   0  0  0  0  0  0  0  0  0  0  0  0
   37.4030   30.5240   51.1260 H   0  0  0  0  0  0  0  0  0  0  0  0
   35.1570   29.9480   50.2300 H   0  0  0  0  0  0  0  0  0  0  0  0
   40.2070   33.3150   46.0720 C   0  0  0  0  0  0  0  0  0  0  0  0
   40.9190   32.4600   45.2080 C   0  0  0  0  0  0  0  0  0  0  0  0
   40.6020   31.0980   45.2630 C   0  0  0  0  0  0  0  0  0  0  0  0
   39.6370   30.6800   46.1340 N   0  0  0  0  0  0  0  0  0  0  0  0
   38.9940   31.5380   46.9290 C   0  0  0  0  0  0  0  0  0  0  0  0
   39.2760   32.8400   46.8990 N   0  0  0  0  0  0  0  0  0  0  0  0
   40.4900   34.3560   45.9910 H   0  0  0  0  0  0  0  0  0  0  0  0
   41.6790   32.7090   44.5070 H   0  0  0  0  0  0  0  0  0  0  0  0
   41.0640   30.3340   44.6620 H   0  0  0  0  0  0  0  0  0  0  0  0
   34.0600   29.9520   47.5300 S   0  0  0  0  0  0  0  0  0  0  0  0
   33.7360   29.1930   44.4980 Cl  0  0  0  0  0  0  0  0  0  0  0  0
   33.7790   27.9520   45.7430 C   0  0  0  0  0  0  0  0  0  0  0  0
   33.9210   28.2150   47.1050 C   0  0  0  0  0  0  0  0  0  0  0  0
   33.9430   27.1730   48.0000 C   0  0  0  0  0  0  0  0  0  0  0  0
   33.8290   25.8860   47.5700 C   0  0  0  0  0  0  0  0  0  0  0  0
   33.6880   25.5750   46.2320 C   0  0  0  0  0  0  0  0  0  0  0  0
   33.6670   26.6190   45.3530 C   0  0  0  0  0  0  0  0  0  0  0  0
   34.0560   27.4830   49.0300 H   0  0  0  0  0  0  0  0  0  0  0  0
   33.8540   25.1100   48.3240 H   0  0  0  0  0  0  0  0  0  0  0  0
   33.6010   24.5480   45.9490 H   0  0  0  0  0  0  0  0  0  0  0  0
   33.5150   26.3250   43.9050 C   0  0  0  0  0  3  0  0  0  0  0  0
   33.3700   24.9040   43.5090 C   0  0  0  0  0  2  0  0  0  0  0  0
   32.1730   25.8750   43.3730 C   0  0  0  0  0  2  0  0  0  0  0  0
  1  2  1  0  0  0  0
  2  3  2  0  0  0  0
  2  7  1  0  0  0  0
  3  4  1  0  0  0  0
  4  8  1  0  0  0  0
  4  5  2  0  0  0  0
  5  9  1  0  0  0  0
  6  5  1  0  0  0  0
  6 10  1  0  0  0  0
  7  6  2  0  0  0  0
 11 16  1  0  0  0  0
 12 13  1  0  0  0  0
 12 11  2  0  0  0  0
 13 14  2  0  0  0  0
 14 15  1  0  0  0  0
 15  3  1  0  0  0  0
 16 15  2  0  0  0  0
 17 11  1  0  0  0  0
 18 12  1  0  0  0  0
 19 13  1  0  0  0  0
 20  7  1  0  0  0  0
 21 22  1  0  0  0  0
 22 23  1  0  0  0  0
 23 20  1  0  0  0  0
 23 24  2  0  0  0  0
 24 28  1  0  0  0  0
 25 24  1  0  0  0  0
 25 29  1  0  0  0  0
 26 25  2  0  0  0  0
 27 22  2  0  0  0  0
 27 26  1  0  0  0  0
 30 26  1  0  0  0  0
 31 27  1  0  0  0  0
 32 31  1  0  0  0  0
 33 32  1  0  0  0  0
 33 31  1  0  0  0  0
M  END
>  <minimizedAffinity>
-5.59188795

>  <minimizedRMSD>
0.534099102

$$$$
