
 OpenBabel03262520183D

 12 13  0  0  0  0  0  0  0  0999 V2000
   37.3290   30.1750   51.4370 C   0  0  0  0  0  0  0  0  0  0  0  0
   38.0860   30.6930   50.3680 C   0  0  0  0  0  0  0  0  0  0  0  0
   37.6700   30.4000   49.0570 C   0  0  0  0  0  0  0  0  0  0  0  0
   36.5530   29.6270   48.9130 N   0  0  0  0  0  0  0  0  0  0  0  0
   35.8550   29.1490   49.9650 C   0  0  0  0  0  0  0  0  0  0  0  0
   36.2440   29.4250   51.2340 N   0  0  0  0  0  0  0  0  0  0  0  0
   37.6400   30.3950   52.4520 H   0  0  0  0  0  0  0  0  0  0  0  0
   38.9750   31.3080   50.5650 H   0  0  0  0  0  0  0  0  0  0  0  0
   34.9900   28.5510   49.6440 H   0  0  0  0  0  0  0  0  0  0  0  0
   38.4170   30.9090   47.9060 C   0  0  0  0  0  3  0  0  0  0  0  0
   37.7860   31.5160   46.7360 C   0  0  0  0  0  2  0  0  0  0  0  0
   38.3870   32.4400   47.7930 C   0  0  0  0  0  2  0  0  0  0  0  0
  1  7  1  0  0  0  0
  2  8  1  0  0  0  0
  2  1  2  0  0  0  0
  3  2  1  0  0  0  0
  4  3  2  0  0  0  0
  4  5  1  0  0  0  0
  5  6  2  0  0  0  0
  6  1  1  0  0  0  0
  9  5  1  0  0  0  0
 10  3  1  0  0  0  0
 11 12  1  0  0  0  0
 11 10  1  0  0  0  0
 12 10  1  0  0  0  0
M  END
>  <minimizedAffinity>
-3.90289354

>  <minimizedRMSD>
0.775500536

$$$$
