
 OpenBabel03272510343D

 22 24  0  0  0  0  0  0  0  0999 V2000
   36.2950   30.1450   48.0250 C   0  0  0  0  0  0  0  0  0  0  0  0
   35.1940   30.0970   47.1930 C   0  0  0  0  0  0  0  0  0  0  0  0
   34.0660   29.3970   47.5530 C   0  0  0  0  0  0  0  0  0  0  0  0
   34.0520   28.7450   48.7580 C   0  0  0  0  0  0  0  0  0  0  0  0
   35.1410   28.7740   49.6170 C   0  0  0  0  0  0  0  0  0  0  0  0
   36.2890   29.4820   49.2570 C   0  0  0  0  0  0  0  0  0  0  0  0
   35.2300   30.6250   46.2360 H   0  0  0  0  0  0  0  0  0  0  0  0
   33.2410   29.4040   46.8490 H   0  0  0  0  0  0  0  0  0  0  0  0
   33.1570   28.2020   49.0230 H   0  0  0  0  0  0  0  0  0  0  0  0
   35.1410   28.2600   50.5760 H   0  0  0  0  0  0  0  0  0  0  0  0
   38.7270   32.8480   47.7920 C   0  0  0  0  0  0  0  0  0  0  0  0
   39.6110   32.4380   46.7970 C   0  0  0  0  0  0  0  0  0  0  0  0
   39.3550   31.1820   46.1860 C   0  0  0  0  0  0  0  0  0  0  0  0
   38.2790   30.4710   46.6060 N   0  0  0  0  0  0  0  0  0  0  0  0
   37.4600   30.9120   47.5690 C   0  0  0  0  0  0  0  0  0  0  0  0
   37.6930   32.0970   48.1540 N   0  0  0  0  0  0  0  0  0  0  0  0
   38.9910   33.8030   48.2020 H   0  0  0  0  0  0  0  0  0  0  0  0
   40.4800   32.9190   46.3960 H   0  0  0  0  0  0  0  0  0  0  0  0
   39.9240   30.7010   45.4020 H   0  0  0  0  0  0  0  0  0  0  0  0
   37.5060   29.5740   50.1050 C   0  0  0  0  0  3  0  0  0  0  0  0
   37.4870   30.5230   51.2870 C   0  0  0  0  0  2  0  0  0  0  0  0
   37.5020   29.0380   51.4830 C   0  0  0  0  0  2  0  0  0  0  0  0
  1  6  1  0  0  0  0
  2  3  1  0  0  0  0
  2  1  2  0  0  0  0
  3  4  2  0  0  0  0
  4  9  1  0  0  0  0
  4  5  1  0  0  0  0
  5 10  1  0  0  0  0
  6  5  2  0  0  0  0
  6 20  1  0  0  0  0
  7  2  1  0  0  0  0
  8  3  1  0  0  0  0
 11 16  1  0  0  0  0
 11 17  1  0  0  0  0
 12 11  2  0  0  0  0
 13 14  2  0  0  0  0
 13 12  1  0  0  0  0
 14 15  1  0  0  0  0
 15  1  1  0  0  0  0
 15 16  2  0  0  0  0
 18 12  1  0  0  0  0
 19 13  1  0  0  0  0
 20 21  1  0  0  0  0
 20 22  1  0  0  0  0
 21 22  1  0  0  0  0
M  END
>  <minimizedAffinity>
-5.57922602

>  <minimizedRMSD>
1.23381782

$$$$
