
 OpenBabel03272509293D

 28 30  0  0  1  0  0  0  0  0999 V2000
   35.5140   30.4750   49.0990 C   0  0  2  0  0  0  0  0  0  0  0  0
   36.3380   31.6690   49.5200 C   0  0  0  0  0  0  0  0  0  0  0  0
   37.6630   31.2660   50.1010 C   0  0  0  0  0  0  0  0  0  0  0  0
   37.5230   30.3230   51.2700 C   0  0  0  0  0  0  0  0  0  0  0  0
   36.5330   29.2380   51.0200 C   0  0  0  0  0  0  0  0  0  0  0  0
   36.0260   29.1750   49.5950 C   0  0  1  0  0  0  0  0  0  0  0  0
   34.4530   30.6000   49.4400 H   0  0  0  0  0  0  0  0  0  0  0  0
   35.7620   32.2110   50.3000 H   0  0  0  0  0  0  0  0  0  0  0  0
   36.5430   32.3910   48.7190 H   0  0  0  0  0  0  0  0  0  0  0  0
   38.1790   30.6800   49.2910 H   0  0  0  0  0  0  0  0  0  0  0  0
   38.2100   32.1660   50.3770 H   0  0  0  0  0  0  0  0  0  0  0  0
   38.5400   29.8470   51.3930 H   0  0  0  0  0  0  0  0  0  0  0  0
   37.2670   30.9570   52.1640 H   0  0  0  0  0  0  0  0  0  0  0  0
   36.9000   28.2300   51.2680 H   0  0  0  0  0  0  0  0  0  0  0  0
   35.6610   29.4340   51.6730 H   0  0  0  0  0  0  0  0  0  0  0  0
   36.8510   28.7890   48.9550 H   0  0  0  0  0  0  0  0  0  0  0  0
   35.4330   30.4180   47.6060 C   0  0  0  0  0  0  0  0  0  0  0  0
   34.1430   30.3990   47.0430 C   0  0  0  0  0  0  0  0  0  0  0  0
   34.0700   30.3290   45.6590 C   0  0  0  0  0  0  0  0  0  0  0  0
   35.2280   30.2830   44.9080 N   0  0  0  0  0  0  0  0  0  0  0  0
   36.4590   30.3030   45.5060 C   0  0  0  0  0  0  0  0  0  0  0  0
   36.5330   30.3710   46.8570 N   0  0  0  0  0  0  0  0  0  0  0  0
   33.2200   30.4310   47.5680 H   0  0  0  0  0  0  0  0  0  0  0  0
   33.1070   30.3130   45.1640 H   0  0  0  0  0  0  0  0  0  0  0  0
   37.3500   30.2650   44.8990 H   0  0  0  0  0  0  0  0  0  0  0  0
   34.9620   28.1030   49.6140 C   0  0  0  0  0  0  0  0  0  0  0  0
   33.5110   28.4810   49.4510 C   0  0  0  0  0  0  0  0  0  0  0  0
   34.2640   27.6320   48.4200 C   0  0  0  0  0  0  0  0  0  0  0  0
  1  7  1  1  0  0  0
  1  2  1  0  0  0  0
  1  6  1  0  0  0  0
  2  3  1  0  0  0  0
  2  8  1  0  0  0  0
  3 11  1  0  0  0  0
  3  4  1  0  0  0  0
  4 12  1  0  0  0  0
  4 13  1  0  0  0  0
  5 14  1  0  0  0  0
  5  4  1  0  0  0  0
  5 15  1  0  0  0  0
  6 16  1  6  0  0  0
  6 26  1  0  0  0  0
  6  5  1  0  0  0  0
  9  2  1  0  0  0  0
 10  3  1  0  0  0  0
 17  1  1  0  0  0  0
 18 23  1  0  0  0  0
 18 17  1  0  0  0  0
 19 18  2  0  0  0  0
 20 21  2  0  0  0  0
 20 19  1  0  0  0  0
 21 22  1  0  0  0  0
 22 17  2  0  0  0  0
 24 19  1  0  0  0  0
 25 21  1  0  0  0  0
 27 26  1  0  0  0  0
 28 27  1  0  0  0  0
 28 26  1  0  0  0  0
M  END
>  <minimizedAffinity>
-5.0827117

>  <minimizedRMSD>
2.37690878

$$$$
