
 OpenBabel03272507453D

 27 29  0  0  0  0  0  0  0  0999 V2000
   36.8600   29.9490   48.4590 N   0  0  0  0  0  0  0  0  0  0  0  0
   37.5380   30.0530   49.7250 C   0  0  0  0  0  0  0  0  0  0  0  0
   38.2620   31.2810   50.0200 C   0  0  0  0  0  0  0  0  0  0  0  0
   38.7530   32.1000   48.8890 C   0  0  0  0  0  0  0  0  0  0  0  0
   37.9950   31.9060   47.5970 C   0  0  0  0  0  0  0  0  0  0  0  0
   37.7410   30.4200   47.4080 C   0  0  0  0  0  0  0  0  0  0  0  0
   36.7850   29.8390   50.5150 H   0  0  0  0  0  0  0  0  0  0  0  0
   38.2210   29.1550   49.7690 H   0  0  0  0  0  0  0  0  0  0  0  0
   39.1510   31.0320   50.6620 H   0  0  0  0  0  0  0  0  0  0  0  0
   37.6390   31.9340   50.6880 H   0  0  0  0  0  0  0  0  0  0  0  0
   39.8180   31.8720   48.6700 H   0  0  0  0  0  0  0  0  0  0  0  0
   36.9900   32.4050   47.6560 H   0  0  0  0  0  0  0  0  0  0  0  0
   38.5380   32.3370   46.7580 H   0  0  0  0  0  0  0  0  0  0  0  0
   37.3080   30.2650   46.4140 H   0  0  0  0  0  0  0  0  0  0  0  0
   38.7340   29.9440   47.4380 H   0  0  0  0  0  0  0  0  0  0  0  0
   35.5440   29.4650   48.2700 C   0  0  0  0  0  0  0  0  0  0  0  0
   34.6870   29.8560   47.2460 C   0  0  0  0  0  0  0  0  0  0  0  0
   33.4180   29.3010   47.1730 C   0  0  0  0  0  0  0  0  0  0  0  0
   33.0730   28.3800   48.1320 N   0  0  0  0  0  0  0  0  0  0  0  0
   33.9290   28.0230   49.1130 C   0  0  0  0  0  0  0  0  0  0  0  0
   35.1420   28.5600   49.1750 N   0  0  0  0  0  0  0  0  0  0  0  0
   35.0430   30.5730   46.5540 H   0  0  0  0  0  0  0  0  0  0  0  0
   32.7360   29.5860   46.3930 H   0  0  0  0  0  0  0  0  0  0  0  0
   33.5970   27.2810   49.8520 H   0  0  0  0  0  0  0  0  0  0  0  0
   38.7000   33.5800   49.2640 C   0  0  0  0  0  0  0  0  0  0  0  0
   39.7950   34.4800   48.7110 C   0  0  0  0  0  0  0  0  0  0  0  0
   39.6790   34.1790   50.1750 C   0  0  0  0  0  0  0  0  0  0  0  0
  1  2  1  0  0  0  0
  2  8  1  0  0  0  0
  2  3  1  0  0  0  0
  2  7  1  0  0  0  0
  3  9  1  0  0  0  0
  3 10  1  0  0  0  0
  4 25  1  0  0  0  0
  4  3  1  0  0  0  0
  5 12  1  0  0  0  0
  5  4  1  0  0  0  0
  6 15  1  0  0  0  0
  6  5  1  0  0  0  0
  6  1  1  0  0  0  0
 11  4  1  0  0  0  0
 13  5  1  0  0  0  0
 14  6  1  0  0  0  0
 16  1  1  0  0  0  0
 16 21  1  0  0  0  0
 17 16  2  0  0  0  0
 18 17  1  0  0  0  0
 18 19  2  0  0  0  0
 19 20  1  0  0  0  0
 20 21  2  0  0  0  0
 20 24  1  0  0  0  0
 22 17  1  0  0  0  0
 23 18  1  0  0  0  0
 25 27  1  0  0  0  0
 26 25  1  0  0  0  0
 26 27  1  0  0  0  0
M  END
>  <minimizedAffinity>
-5.23182487

>  <minimizedRMSD>
1.14994693

$$$$
