
 OpenBabel03272510213D

 30 33  0  0  0  0  0  0  0  0999 V2000
   37.4190   29.1930   50.8510 Br  0  0  0  0  0  0  0  0  0  0  0  0
   36.0170   29.2640   49.5640 C   0  0  0  0  0  0  0  0  0  0  0  0
   35.9990   30.2480   48.5790 C   0  0  0  0  0  0  0  0  0  0  0  0
   34.9560   30.2340   47.6870 C   0  0  0  0  0  0  0  0  0  0  0  0
   33.9380   29.3100   47.7170 C   0  0  0  0  0  0  0  0  0  0  0  0
   33.9810   28.3510   48.7000 C   0  0  0  0  0  0  0  0  0  0  0  0
   35.0100   28.3410   49.6020 C   0  0  0  0  0  0  0  0  0  0  0  0
   34.9510   31.0030   46.9250 H   0  0  0  0  0  0  0  0  0  0  0  0
   33.1990   27.6040   48.7600 H   0  0  0  0  0  0  0  0  0  0  0  0
   35.0170   27.5740   50.3650 H   0  0  0  0  0  0  0  0  0  0  0  0
   38.0000   33.1770   49.4520 C   0  0  0  0  0  0  0  0  0  0  0  0
   39.0250   33.1810   48.4600 C   0  0  0  0  0  0  0  0  0  0  0  0
   39.0030   32.1740   47.5130 C   0  0  0  0  0  0  0  0  0  0  0  0
   38.0170   31.2180   47.5510 N   0  0  0  0  0  0  0  0  0  0  0  0
   37.0610   31.2500   48.5100 C   0  0  0  0  0  0  0  0  0  0  0  0
   37.0580   32.2280   49.4540 N   0  0  0  0  0  0  0  0  0  0  0  0
   37.9500   33.9260   50.2220 H   0  0  0  0  0  0  0  0  0  0  0  0
   39.7590   33.9520   48.4890 H   0  0  0  0  0  0  0  0  0  0  0  0
   39.7450   32.1330   46.7540 H   0  0  0  0  0  0  0  0  0  0  0  0
   32.8310   29.2980   46.7690 C   0  0  0  0  0  0  0  0  0  0  0  0
   32.0890   28.1890   46.4410 C   0  0  0  0  0  0  0  0  0  0  0  0
   31.0420   28.2260   45.5320 C   0  0  0  0  0  0  0  0  0  0  0  0
   30.7340   29.3810   44.9440 N   0  0  0  0  0  0  0  0  0  0  0  0
   31.4560   30.4880   45.2550 C   0  0  0  0  0  0  0  0  0  0  0  0
   32.4540   30.4220   46.1310 N   0  0  0  0  0  0  0  0  0  0  0  0
   32.3420   27.2440   46.9220 H   0  0  0  0  0  0  0  0  0  0  0  0
   30.5240   27.2840   45.3490 H   0  0  0  0  0  0  0  0  0  0  0  0
   31.1380   31.8010   44.6150 C   0  0  0  0  0  3  0  0  0  0  0  0
   30.2950   31.8370   43.3930 C   0  0  0  0  0  2  0  0  0  0  0  0
   31.7400   32.1640   43.2950 C   0  0  0  0  0  2  0  0  0  0  0  0
  2  7  1  0  0  0  0
  2  1  1  0  0  0  0
  3  2  2  0  0  0  0
  4  5  2  0  0  0  0
  4  3  1  0  0  0  0
  5  6  1  0  0  0  0
  6  9  1  0  0  0  0
  6  7  2  0  0  0  0
  7 10  1  0  0  0  0
  8  4  1  0  0  0  0
 11 16  1  0  0  0  0
 11 17  1  0  0  0  0
 12 18  1  0  0  0  0
 12 11  2  0  0  0  0
 13 14  2  0  0  0  0
 13 12  1  0  0  0  0
 14 15  1  0  0  0  0
 15  3  1  0  0  0  0
 15 16  2  0  0  0  0
 19 13  1  0  0  0  0
 20  5  1  0  0  0  0
 21 20  1  0  0  0  0
 21 26  1  0  0  0  0
 22 21  2  0  0  0  0
 23 24  2  0  0  0  0
 23 22  1  0  0  0  0
 24 25  1  0  0  0  0
 25 20  2  0  0  0  0
 27 22  1  0  0  0  0
 28 24  1  0  0  0  0
 29 28  1  0  0  0  0
 30 29  1  0  0  0  0
 30 28  1  0  0  0  0
M  END
>  <minimizedAffinity>
-5.90283442

>  <minimizedRMSD>
0.315978736

$$$$
