
 OpenBabel03272510023D

 15 16  0  0  0  0  0  0  0  0999 V2000
   38.2390   31.7680   49.9810 C   0  0  0  0  0  0  0  0  0  0  0  0
   38.5640   31.6730   48.6090 C   0  0  0  0  0  0  0  0  0  0  0  0
   37.8160   30.8130   47.8190 C   0  0  0  0  0  0  0  0  0  0  0  0
   36.8120   30.1140   48.4170 N   0  0  0  0  0  0  0  0  0  0  0  0
   36.5230   30.2240   49.7290 C   0  0  0  0  0  0  0  0  0  0  0  0
   37.2350   31.0460   50.4990 N   0  0  0  0  0  0  0  0  0  0  0  0
   38.8300   32.4460   50.5990 H   0  0  0  0  0  0  0  0  0  0  0  0
   39.3580   32.2350   48.1680 H   0  0  0  0  0  0  0  0  0  0  0  0
   35.4090   29.4100   50.2590 C   0  0  0  0  0  0  0  0  0  0  0  0
   35.5270   29.1640   51.6230 F   0  0  0  0  0  0  0  0  0  0  0  0
   34.1880   30.0710   50.0960 F   0  0  0  0  0  0  0  0  0  0  0  0
   35.2650   28.1930   49.6300 F   0  0  0  0  0  0  0  0  0  0  0  0
   38.0590   30.6250   46.3630 C   0  0  0  0  0  3  0  0  0  0  0  0
   36.8630   30.8350   45.4250 C   0  0  0  0  0  2  0  0  0  0  0  0
   38.0350   31.7720   45.4360 C   0  0  0  0  0  2  0  0  0  0  0  0
  1  6  1  0  0  0  0
  1  7  1  0  0  0  0
  2  1  2  0  0  0  0
  3  4  2  0  0  0  0
  3  2  1  0  0  0  0
  4  5  1  0  0  0  0
  5  9  1  0  0  0  0
  5  6  2  0  0  0  0
  8  2  1  0  0  0  0
  9 10  1  0  0  0  0
 11  9  1  0  0  0  0
 12  9  1  0  0  0  0
 13  3  1  0  0  0  0
 14 15  1  0  0  0  0
 14 13  1  0  0  0  0
 15 13  1  0  0  0  0
M  END
>  <minimizedAffinity>
-4.59095573

>  <minimizedRMSD>
0.904308677

$$$$
