
 OpenBabel03262522593D

 32 36  0  0  0  0  0  0  0  0999 V2000
   34.8040   29.0540   48.8020 C   0  0  0  0  0  0  0  0  0  0  0  0
   34.7050   28.5260   47.5140 C   0  0  0  0  0  0  0  0  0  0  0  0
   33.4400   28.0330   47.3530 C   0  0  0  0  0  0  0  0  0  0  0  0
   32.7760   28.2640   48.5430 N   0  0  0  0  0  0  0  0  0  0  0  0
   33.6210   28.8670   49.3630 N   0  0  0  0  0  0  0  0  0  0  0  0
   30.5530   27.5770   47.7340 N   0  0  0  0  0  0  0  0  0  0  0  0
   31.4240   27.8810   48.7450 C   0  0  0  0  0  0  0  0  0  0  0  0
   30.7220   27.7340   49.8800 N   0  0  0  0  0  0  0  0  0  0  0  0
   29.4580   27.3540   49.6270 C   0  0  0  0  0  0  0  0  0  0  0  0
   28.3380   27.0640   50.3450 C   0  0  0  0  0  0  0  0  0  0  0  0
   27.2050   26.7020   49.7090 N   0  0  0  0  0  0  0  0  0  0  0  0
   27.1460   26.6180   48.3660 C   0  0  0  0  0  0  0  0  0  0  0  0
   28.2280   26.8960   47.6280 N   0  0  0  0  0  0  0  0  0  0  0  0
   29.3570   27.2560   48.2680 C   0  0  0  0  0  0  0  0  0  0  0  0
   35.4980   28.5130   46.7780 H   0  0  0  0  0  0  0  0  0  0  0  0
   33.0770   27.5640   46.4520 H   0  0  0  0  0  0  0  0  0  0  0  0
   30.7760   27.5900   46.6950 H   0  0  0  0  0  0  0  0  0  0  0  0
   26.2150   26.3230   47.8840 H   0  0  0  0  0  0  0  0  0  0  0  0
   37.8070   29.5970   50.8380 C   0  0  0  0  0  0  0  0  0  0  0  0
   38.2180   30.8880   50.4040 C   0  0  0  0  0  0  0  0  0  0  0  0
   37.4630   31.5290   49.4380 C   0  0  0  0  0  0  0  0  0  0  0  0
   36.3710   30.9180   48.9390 N   0  0  0  0  0  0  0  0  0  0  0  0
   35.9870   29.6740   49.3660 C   0  0  0  0  0  0  0  0  0  0  0  0
   36.7080   29.0550   50.2940 N   0  0  0  0  0  0  0  0  0  0  0  0
   38.3880   29.0860   51.5920 H   0  0  0  0  0  0  0  0  0  0  0  0
   39.0900   31.3720   50.8040 H   0  0  0  0  0  0  0  0  0  0  0  0
   37.8010   32.8830   48.9100 C   0  0  0  0  0  0  0  0  0  0  0  0
   39.0390   32.9730   48.1170 C   0  0  0  0  0  0  0  0  0  0  0  0
   39.0200   33.5900   49.4650 C   0  0  0  0  0  0  0  0  0  0  0  0
   28.4260   27.1610   51.7720 N   0  0  0  0  0  0  0  0  0  0  0  0
   28.2950   26.1560   52.0630 H   0  0  0  0  0  0  0  0  0  0  0  0
   28.5790   27.9980   52.3910 H   0  0  0  0  0  0  0  0  0  0  0  0
  1  5  2  0  0  0  0
  1 23  1  0  0  0  0
  2  1  1  0  0  0  0
  3  2  2  0  0  0  0
  3  4  1  0  0  0  0
  4  7  1  0  0  0  0
  4  5  1  0  0  0  0
  6 14  1  0  0  0  0
  6  7  1  0  0  0  0
  7  8  2  0  0  0  0
  9  8  1  0  0  0  0
  9 10  1  0  0  0  0
 10 30  1  0  0  0  0
 11 10  2  0  0  0  0
 12 11  1  0  0  0  0
 13 14  1  0  0  0  0
 13 12  2  0  0  0  0
 14  9  2  0  0  0  0
 15  2  1  0  0  0  0
 16  3  1  0  0  0  0
 17  6  1  0  0  0  0
 18 12  1  0  0  0  0
 19 25  1  0  0  0  0
 20 26  1  0  0  0  0
 20 19  1  0  0  0  0
 21 20  2  0  0  0  0
 22 23  2  0  0  0  0
 22 21  1  0  0  0  0
 23 24  1  0  0  0  0
 24 19  2  0  0  0  0
 27 21  1  0  0  0  0
 27 29  1  0  0  0  0
 28 27  1  0  0  0  0
 28 29  1  0  0  0  0
 30 31  1  0  0  0  0
 30 32  1  0  0  0  0
M  END
>  <minimizedAffinity>
-7.29672384

>  <minimizedRMSD>
0.317670166

$$$$
