
 OpenBabel03272506563D

 14 15  0  0  0  0  0  0  0  0999 V2000
   37.7290   29.8820   49.6770 C   0  0  0  0  0  0  0  0  0  0  0  0
   37.7630   30.7620   48.5860 C   0  0  0  0  0  0  0  0  0  0  0  0
   36.6350   30.7550   47.7280 C   0  0  0  0  0  0  0  0  0  0  0  0
   35.6010   29.9150   48.0030 N   0  0  0  0  0  0  0  0  0  0  0  0
   35.6330   29.0970   49.0650 C   0  0  0  0  0  0  0  0  0  0  0  0
   36.6740   29.0520   49.9210 N   0  0  0  0  0  0  0  0  0  0  0  0
   38.6120   29.9230   50.3020 H   0  0  0  0  0  0  0  0  0  0  0  0
   36.6120   31.4080   46.8810 H   0  0  0  0  0  0  0  0  0  0  0  0
   38.8730   31.6120   48.3560 N   0  0  0  0  0  0  0  0  0  0  0  0
   38.8450   32.6120   48.0860 H   0  0  0  0  0  0  0  0  0  0  0  0
   39.8200   31.1710   48.4780 H   0  0  0  0  0  0  0  0  0  0  0  0
   34.4980   28.1820   49.3560 C   0  0  0  0  0  3  0  0  0  0  0  0
   34.1320   27.2380   48.1940 C   0  0  0  0  0  2  0  0  0  0  0  0
   33.1990   28.3610   48.6640 C   0  0  0  0  0  2  0  0  0  0  0  0
  1  6  1  0  0  0  0
  1  7  1  0  0  0  0
  2  1  2  0  0  0  0
  3  4  2  0  0  0  0
  3  2  1  0  0  0  0
  4  5  1  0  0  0  0
  5 12  1  0  0  0  0
  5  6  2  0  0  0  0
  8  3  1  0  0  0  0
  9 11  1  0  0  0  0
  9  2  1  0  0  0  0
 10  9  1  0  0  0  0
 13 14  1  0  0  0  0
 13 12  1  0  0  0  0
 14 12  1  0  0  0  0
M  END
>  <minimizedAffinity>
-3.84178591

>  <minimizedRMSD>
1.74966288

$$$$
