
 OpenBabel03272509053D

 27 29  0  0  0  0  0  0  0  0999 V2000
   33.2700   27.3560   47.9650 C   0  0  0  0  0  0  0  0  0  0  0  0
   32.6210   28.0650   47.3860 H   0  0  0  0  0  0  0  0  0  0  0  0
   32.7180   26.9620   48.8330 H   0  0  0  0  0  0  0  0  0  0  0  0
   33.7100   26.2780   47.0210 C   0  0  0  0  0  0  0  0  0  0  0  0
   33.9510   24.9710   47.3540 C   0  0  0  0  0  0  0  0  0  0  0  0
   34.3530   24.0690   46.3970 C   0  0  0  0  0  0  0  0  0  0  0  0
   34.5270   24.4440   45.0720 C   0  0  0  0  0  0  0  0  0  0  0  0
   34.2890   25.7470   44.7310 C   0  0  0  0  0  0  0  0  0  0  0  0
   33.8870   26.6580   45.6800 C   0  0  0  0  0  0  0  0  0  0  0  0
   33.7890   24.7730   48.4050 H   0  0  0  0  0  0  0  0  0  0  0  0
   34.5140   23.0590   46.7790 H   0  0  0  0  0  0  0  0  0  0  0  0
   34.8430   23.6390   44.4320 H   0  0  0  0  0  0  0  0  0  0  0  0
   34.4350   26.0120   43.6860 H   0  0  0  0  0  0  0  0  0  0  0  0
   33.7260   27.6740   45.2950 H   0  0  0  0  0  0  0  0  0  0  0  0
   34.7550   28.3180   49.7130 C   0  0  0  0  0  3  0  0  0  0  0  0
   34.3940   28.1510   48.4710 C   0  0  0  0  0  3  0  0  0  0  0  0
   37.3460   30.2490   51.4500 C   0  0  0  0  0  0  0  0  0  0  0  0
   38.0940   30.7290   50.3390 C   0  0  0  0  0  0  0  0  0  0  0  0
   37.6930   30.3810   49.0330 C   0  0  0  0  0  0  0  0  0  0  0  0
   36.5920   29.5910   48.9330 N   0  0  0  0  0  0  0  0  0  0  0  0
   35.9140   29.1590   49.9920 C   0  0  0  0  0  0  0  0  0  0  0  0
   36.2890   29.4840   51.2350 N   0  0  0  0  0  0  0  0  0  0  0  0
   37.7050   30.5500   52.4240 H   0  0  0  0  0  0  0  0  0  0  0  0
   38.9430   31.3410   50.5040 H   0  0  0  0  0  0  0  0  0  0  0  0
   38.4440   30.8610   47.8540 C   0  0  0  0  0  3  0  0  0  0  0  0
   37.7650   31.8530   46.9190 C   0  0  0  0  0  2  0  0  0  0  0  0
   38.9330   32.2360   47.7640 C   0  0  0  0  0  2  0  0  0  0  0  0
  1 16  1  0  0  0  0
  1  3  1  0  0  0  0
  2  1  1  0  0  0  0
  4  5  1  0  0  0  0
  4  1  1  0  0  0  0
  5 10  1  0  0  0  0
  6 11  1  0  0  0  0
  6  5  2  0  0  0  0
  7  6  1  0  0  0  0
  8  7  2  0  0  0  0
  8  9  1  0  0  0  0
  9  4  2  0  0  0  0
 12  7  1  0  0  0  0
 13  8  1  0  0  0  0
 14  9  1  0  0  0  0
 15 21  1  0  0  0  0
 16 15  2  0  0  0  0
 17 23  1  0  0  0  0
 18 24  1  0  0  0  0
 18 17  2  0  0  0  0
 19 18  1  0  0  0  0
 20 19  2  0  0  0  0
 20 21  1  0  0  0  0
 21 22  2  0  0  0  0
 22 17  1  0  0  0  0
 25 19  1  0  0  0  0
 26 27  1  0  0  0  0
 26 25  1  0  0  0  0
 27 25  1  0  0  0  0
M  END
>  <minimizedAffinity>
-5.40823936

>  <minimizedRMSD>
0.401572287

$$$$
