
 OpenBabel03272510033D

 15 16  0  0  0  0  0  0  0  0999 V2000
   38.1160   22.8450   34.8320 C   0  0  0  0  0  0  0  0  0  0  0  0
   38.1490   24.1290   34.2400 C   0  0  0  0  0  0  0  0  0  0  0  0
   38.1920   25.2320   35.0800 C   0  0  0  0  0  0  0  0  0  0  0  0
   38.2000   25.0090   36.4230 N   0  0  0  0  0  0  0  0  0  0  0  0
   38.1680   23.7730   36.9600 C   0  0  0  0  0  0  0  0  0  0  0  0
   38.1260   22.7040   36.1650 N   0  0  0  0  0  0  0  0  0  0  0  0
   38.0820   21.9790   34.1690 H   0  0  0  0  0  0  0  0  0  0  0  0
   38.1410   24.2720   33.1830 H   0  0  0  0  0  0  0  0  0  0  0  0
   38.1800   23.6630   38.4340 C   0  0  0  0  0  0  0  0  0  0  0  0
   39.4400   23.3580   38.9380 F   0  0  0  0  0  0  0  0  0  0  0  0
   37.8160   24.8750   39.0270 F   0  0  0  0  0  0  0  0  0  0  0  0
   37.3000   22.7230   38.9250 F   0  0  0  0  0  0  0  0  0  0  0  0
   38.2290   26.6330   34.5800 C   0  0  0  0  0  3  0  0  0  0  0  0
   36.9030   27.4030   34.5640 C   0  0  0  0  0  2  0  0  0  0  0  0
   38.0210   27.7700   35.4950 C   0  0  0  0  0  2  0  0  0  0  0  0
  1  6  1  0  0  0  0
  2  1  2  0  0  0  0
  2  3  1  0  0  0  0
  3  4  2  0  0  0  0
  4  5  1  0  0  0  0
  5  9  1  0  0  0  0
  6  5  2  0  0  0  0
  7  1  1  0  0  0  0
  8  2  1  0  0  0  0
  9 12  1  0  0  0  0
  9 10  1  0  0  0  0
  9 11  1  0  0  0  0
 13  3  1  0  0  0  0
 13 15  1  0  0  0  0
 14 13  1  0  0  0  0
 14 15  1  0  0  0  0
M  END
>  <minimizedAffinity>
-4.59622145

$$$$

 OpenBabel03272510033D

 15 16  0  0  0  0  0  0  0  0999 V2000
   38.0680   23.0400   34.8310 C   0  0  0  0  0  0  0  0  0  0  0  0
   38.3540   24.2990   34.2560 C   0  0  0  0  0  0  0  0  0  0  0  0
   38.5800   25.3690   35.1090 C   0  0  0  0  0  0  0  0  0  0  0  0
   38.5120   25.1380   36.4490 N   0  0  0  0  0  0  0  0  0  0  0  0
   38.2370   23.9270   36.9710 C   0  0  0  0  0  0  0  0  0  0  0  0
   38.0170   22.8900   36.1630 N   0  0  0  0  0  0  0  0  0  0  0  0
   37.8910   22.2000   34.1570 H   0  0  0  0  0  0  0  0  0  0  0  0
   38.4000   24.4490   33.2010 H   0  0  0  0  0  0  0  0  0  0  0  0
   38.1900   23.8050   38.4430 C   0  0  0  0  0  0  0  0  0  0  0  0
   37.7580   24.9720   39.0640 F   0  0  0  0  0  0  0  0  0  0  0  0
   37.2890   22.8100   38.8320 F   0  0  0  0  0  0  0  0  0  0  0  0
   39.3990   23.4600   39.0070 F   0  0  0  0  0  0  0  0  0  0  0  0
   38.8900   26.7420   34.6270 C   0  0  0  0  0  3  0  0  0  0  0  0
   40.3560   27.0500   34.2970 C   0  0  0  0  0  2  0  0  0  0  0  0
   39.3010   26.9820   33.2320 C   0  0  0  0  0  2  0  0  0  0  0  0
  1  6  1  0  0  0  0
  2  1  2  0  0  0  0
  2  3  1  0  0  0  0
  3  4  2  0  0  0  0
  4  5  1  0  0  0  0
  5  9  1  0  0  0  0
  6  5  2  0  0  0  0
  7  1  1  0  0  0  0
  8  2  1  0  0  0  0
  9 11  1  0  0  0  0
  9 12  1  0  0  0  0
  9 10  1  0  0  0  0
 13  3  1  0  0  0  0
 14 13  1  0  0  0  0
 15 14  1  0  0  0  0
 15 13  1  0  0  0  0
M  END
>  <minimizedAffinity>
-4.43364573

$$$$

 OpenBabel03272510033D

 15 16  0  0  0  0  0  0  0  0999 V2000
   36.0280   28.1190   32.3020 C   0  0  0  0  0  0  0  0  0  0  0  0
   36.8530   27.9460   33.4370 C   0  0  0  0  0  0  0  0  0  0  0  0
   37.2640   26.6600   33.7530 C   0  0  0  0  0  0  0  0  0  0  0  0
   36.8470   25.6430   32.9490 N   0  0  0  0  0  0  0  0  0  0  0  0
   36.0590   25.8370   31.8730 C   0  0  0  0  0  0  0  0  0  0  0  0
   35.6570   27.0680   31.5570 N   0  0  0  0  0  0  0  0  0  0  0  0
   35.7070   29.1330   32.0560 H   0  0  0  0  0  0  0  0  0  0  0  0
   37.1640   28.7630   34.0480 H   0  0  0  0  0  0  0  0  0  0  0  0
   35.6730   24.6510   31.0800 C   0  0  0  0  0  0  0  0  0  0  0  0
   34.6670   24.9260   30.1600 F   0  0  0  0  0  0  0  0  0  0  0  0
   36.7550   24.1800   30.3310 F   0  0  0  0  0  0  0  0  0  0  0  0
   35.2530   23.5860   31.8460 F   0  0  0  0  0  0  0  0  0  0  0  0
   38.1320   26.3470   34.9210 C   0  0  0  0  0  3  0  0  0  0  0  0
   39.5860   26.8340   34.8580 C   0  0  0  0  0  2  0  0  0  0  0  0
   38.5980   27.4130   35.8270 C   0  0  0  0  0  2  0  0  0  0  0  0
  1  2  1  0  0  0  0
  2  3  2  0  0  0  0
  2  8  1  0  0  0  0
  3 13  1  0  0  0  0
  4  3  1  0  0  0  0
  5  4  2  0  0  0  0
  6  5  1  0  0  0  0
  6  1  2  0  0  0  0
  7  1  1  0  0  0  0
  9 12  1  0  0  0  0
  9  5  1  0  0  0  0
 10  9  1  0  0  0  0
 11  9  1  0  0  0  0
 13 15  1  0  0  0  0
 14 13  1  0  0  0  0
 14 15  1  0  0  0  0
M  END
>  <minimizedAffinity>
-4.22918367

$$$$

 OpenBabel03272510033D

 15 16  0  0  0  0  0  0  0  0999 V2000
   38.5600   23.4200   33.9060 C   0  0  0  0  0  0  0  0  0  0  0  0
   38.1370   22.9620   35.1750 C   0  0  0  0  0  0  0  0  0  0  0  0
   38.1770   23.8540   36.2370 C   0  0  0  0  0  0  0  0  0  0  0  0
   38.6210   25.1170   35.9890 N   0  0  0  0  0  0  0  0  0  0  0  0
   39.0190   25.5270   34.7690 C   0  0  0  0  0  0  0  0  0  0  0  0
   38.9860   24.6810   33.7400 N   0  0  0  0  0  0  0  0  0  0  0  0
   38.5270   22.7160   33.0740 H   0  0  0  0  0  0  0  0  0  0  0  0
   37.7930   21.9650   35.3390 H   0  0  0  0  0  0  0  0  0  0  0  0
   39.4820   26.9240   34.6290 C   0  0  0  0  0  0  0  0  0  0  0  0
   39.0730   27.5060   33.4340 F   0  0  0  0  0  0  0  0  0  0  0  0
   38.9540   27.7270   35.6440 F   0  0  0  0  0  0  0  0  0  0  0  0
   40.8500   27.0640   34.7110 F   0  0  0  0  0  0  0  0  0  0  0  0
   37.7590   23.4930   37.6190 C   0  0  0  0  0  3  0  0  0  0  0  0
   38.8720   23.3110   38.6580 C   0  0  0  0  0  2  0  0  0  0  0  0
   37.9010   24.4530   38.7290 C   0  0  0  0  0  2  0  0  0  0  0  0
  1  2  1  0  0  0  0
  2  8  1  0  0  0  0
  2  3  2  0  0  0  0
  3 13  1  0  0  0  0
  4  3  1  0  0  0  0
  5  4  2  0  0  0  0
  6  1  2  0  0  0  0
  6  5  1  0  0  0  0
  7  1  1  0  0  0  0
  9 12  1  0  0  0  0
  9  5  1  0  0  0  0
  9 11  1  0  0  0  0
 10  9  1  0  0  0  0
 13 14  1  0  0  0  0
 13 15  1  0  0  0  0
 14 15  1  0  0  0  0
M  END
>  <minimizedAffinity>
-4.15953445

$$$$

 OpenBabel03272510033D

 15 16  0  0  0  0  0  0  0  0999 V2000
   38.1570   25.4740   35.0620 C   0  0  0  0  0  0  0  0  0  0  0  0
   38.1100   24.3610   34.1910 C   0  0  0  0  0  0  0  0  0  0  0  0
   38.0880   23.0940   34.7540 C   0  0  0  0  0  0  0  0  0  0  0  0
   38.1120   23.0010   36.1120 N   0  0  0  0  0  0  0  0  0  0  0  0
   38.1580   24.0790   36.9190 C   0  0  0  0  0  0  0  0  0  0  0  0
   38.1800   25.3030   36.3920 N   0  0  0  0  0  0  0  0  0  0  0  0
   38.1750   26.4690   34.6150 H   0  0  0  0  0  0  0  0  0  0  0  0
   38.0920   24.4650   33.1290 H   0  0  0  0  0  0  0  0  0  0  0  0
   38.1810   23.8470   38.3780 C   0  0  0  0  0  0  0  0  0  0  0  0
   37.2790   22.8670   38.7800 F   0  0  0  0  0  0  0  0  0  0  0  0
   39.4390   23.3980   38.7910 F   0  0  0  0  0  0  0  0  0  0  0  0
   37.9220   24.9780   39.1230 F   0  0  0  0  0  0  0  0  0  0  0  0
   38.0380   21.8450   33.9460 C   0  0  0  0  0  3  0  0  0  0  0  0
   36.6500   21.2690   33.6390 C   0  0  0  0  0  2  0  0  0  0  0  0
   37.5200   21.8550   32.5650 C   0  0  0  0  0  2  0  0  0  0  0  0
  1  6  1  0  0  0  0
  2  3  1  0  0  0  0
  2  1  2  0  0  0  0
  3  4  2  0  0  0  0
  4  5  1  0  0  0  0
  5  9  1  0  0  0  0
  6  5  2  0  0  0  0
  7  1  1  0  0  0  0
  8  2  1  0  0  0  0
  9 10  1  0  0  0  0
  9 11  1  0  0  0  0
  9 12  1  0  0  0  0
 13  3  1  0  0  0  0
 14 13  1  0  0  0  0
 15 14  1  0  0  0  0
 15 13  1  0  0  0  0
M  END
>  <minimizedAffinity>
-4.15351057

$$$$

 OpenBabel03272510033D

 15 16  0  0  0  0  0  0  0  0999 V2000
   38.9920   23.7820   34.8810 C   0  0  0  0  0  0  0  0  0  0  0  0
   40.1110   22.9240   34.7740 C   0  0  0  0  0  0  0  0  0  0  0  0
   40.6160   22.3630   35.9380 C   0  0  0  0  0  0  0  0  0  0  0  0
   40.0000   22.6730   37.1120 N   0  0  0  0  0  0  0  0  0  0  0  0
   38.9340   23.4940   37.1850 C   0  0  0  0  0  0  0  0  0  0  0  0
   38.4390   24.0410   36.0750 N   0  0  0  0  0  0  0  0  0  0  0  0
   38.5980   24.2220   33.9640 H   0  0  0  0  0  0  0  0  0  0  0  0
   40.5730   22.7000   33.8390 H   0  0  0  0  0  0  0  0  0  0  0  0
   38.3550   23.7530   38.5200 C   0  0  0  0  0  0  0  0  0  0  0  0
   39.3030   23.6970   39.5360 F   0  0  0  0  0  0  0  0  0  0  0  0
   37.8040   25.0360   38.5830 F   0  0  0  0  0  0  0  0  0  0  0  0
   37.3360   22.8890   38.8580 F   0  0  0  0  0  0  0  0  0  0  0  0
   41.7870   21.4460   35.9570 C   0  0  0  0  0  3  0  0  0  0  0  0
   43.1000   22.0040   36.5220 C   0  0  0  0  0  2  0  0  0  0  0  0
   42.3260   20.9300   37.2290 C   0  0  0  0  0  2  0  0  0  0  0  0
  1  6  1  0  0  0  0
  2  1  2  0  0  0  0
  2  3  1  0  0  0  0
  3 13  1  0  0  0  0
  3  4  2  0  0  0  0
  4  5  1  0  0  0  0
  5  9  1  0  0  0  0
  6  5  2  0  0  0  0
  7  1  1  0  0  0  0
  8  2  1  0  0  0  0
  9 11  1  0  0  0  0
  9 12  1  0  0  0  0
  9 10  1  0  0  0  0
 13 14  1  0  0  0  0
 13 15  1  0  0  0  0
 14 15  1  0  0  0  0
M  END
>  <minimizedAffinity>
-4.10683346

$$$$

 OpenBabel03272510033D

 15 16  0  0  0  0  0  0  0  0999 V2000
   38.1090   22.4010   34.5720 C   0  0  0  0  0  0  0  0  0  0  0  0
   37.9790   23.7510   34.1750 C   0  0  0  0  0  0  0  0  0  0  0  0
   38.7230   24.7050   34.8530 C   0  0  0  0  0  0  0  0  0  0  0  0
   39.5350   24.2790   35.8600 N   0  0  0  0  0  0  0  0  0  0  0  0
   39.6390   22.9850   36.2190 C   0  0  0  0  0  0  0  0  0  0  0  0
   38.9300   22.0580   35.5760 N   0  0  0  0  0  0  0  0  0  0  0  0
   37.5220   21.6530   34.0360 H   0  0  0  0  0  0  0  0  0  0  0  0
   37.3350   24.0540   33.3800 H   0  0  0  0  0  0  0  0  0  0  0  0
   40.5540   22.6500   37.3300 C   0  0  0  0  0  0  0  0  0  0  0  0
   41.7990   23.2580   37.2020 F   0  0  0  0  0  0  0  0  0  0  0  0
   40.0380   23.0930   38.5510 F   0  0  0  0  0  0  0  0  0  0  0  0
   40.7690   21.2970   37.4810 F   0  0  0  0  0  0  0  0  0  0  0  0
   38.6740   26.1560   34.5290 C   0  0  0  0  0  3  0  0  0  0  0  0
   37.6020   26.9930   35.2390 C   0  0  0  0  0  2  0  0  0  0  0  0
   39.0640   27.1700   35.5270 C   0  0  0  0  0  2  0  0  0  0  0  0
  1  6  1  0  0  0  0
  2  1  2  0  0  0  0
  2  3  1  0  0  0  0
  3  4  2  0  0  0  0
  4  5  1  0  0  0  0
  5  9  1  0  0  0  0
  6  5  2  0  0  0  0
  7  1  1  0  0  0  0
  8  2  1  0  0  0  0
  9 12  1  0  0  0  0
  9 11  1  0  0  0  0
 10  9  1  0  0  0  0
 13  3  1  0  0  0  0
 13 14  1  0  0  0  0
 13 15  1  0  0  0  0
 14 15  1  0  0  0  0
M  END
>  <minimizedAffinity>
-3.93180752

$$$$

 OpenBabel03272510033D

 15 16  0  0  0  0  0  0  0  0999 V2000
   37.5700   22.2970   33.6740 C   0  0  0  0  0  0  0  0  0  0  0  0
   37.4070   23.4360   32.8520 C   0  0  0  0  0  0  0  0  0  0  0  0
   36.4890   23.3640   31.8150 C   0  0  0  0  0  0  0  0  0  0  0  0
   35.8000   22.2010   31.6540 N   0  0  0  0  0  0  0  0  0  0  0  0
   35.9750   21.1300   32.4540 C   0  0  0  0  0  0  0  0  0  0  0  0
   36.8550   21.1850   33.4540 N   0  0  0  0  0  0  0  0  0  0  0  0
   38.2930   22.3570   34.4890 H   0  0  0  0  0  0  0  0  0  0  0  0
   37.9620   24.3350   33.0020 H   0  0  0  0  0  0  0  0  0  0  0  0
   35.1680   19.9240   32.1770 C   0  0  0  0  0  0  0  0  0  0  0  0
   35.1980   19.0060   33.2220 F   0  0  0  0  0  0  0  0  0  0  0  0
   33.8210   20.2560   32.0010 F   0  0  0  0  0  0  0  0  0  0  0  0
   35.5440   19.2580   31.0300 F   0  0  0  0  0  0  0  0  0  0  0  0
   36.2270   24.4930   30.8810 C   0  0  0  0  0  3  0  0  0  0  0  0
   34.8460   25.1560   30.9600 C   0  0  0  0  0  2  0  0  0  0  0  0
   36.0950   25.8750   31.3790 C   0  0  0  0  0  2  0  0  0  0  0  0
  1  7  1  0  0  0  0
  2  8  1  0  0  0  0
  2  1  2  0  0  0  0
  3  2  1  0  0  0  0
  4  3  2  0  0  0  0
  4  5  1  0  0  0  0
  5  6  2  0  0  0  0
  6  1  1  0  0  0  0
  9  5  1  0  0  0  0
  9 10  1  0  0  0  0
 11  9  1  0  0  0  0
 12  9  1  0  0  0  0
 13 14  1  0  0  0  0
 13 15  1  0  0  0  0
 13  3  1  0  0  0  0
 14 15  1  0  0  0  0
M  END
>  <minimizedAffinity>
-3.89659286

$$$$

 OpenBabel03272510033D

 15 16  0  0  0  0  0  0  0  0999 V2000
   38.0710   23.8100   33.5530 C   0  0  0  0  0  0  0  0  0  0  0  0
   38.6690   22.7830   34.3190 C   0  0  0  0  0  0  0  0  0  0  0  0
   39.1480   23.1050   35.5800 C   0  0  0  0  0  0  0  0  0  0  0  0
   39.0110   24.3920   36.0020 N   0  0  0  0  0  0  0  0  0  0  0  0
   38.4360   25.3520   35.2510 C   0  0  0  0  0  0  0  0  0  0  0  0
   37.9720   25.0570   34.0370 N   0  0  0  0  0  0  0  0  0  0  0  0
   37.6950   23.5530   32.5610 H   0  0  0  0  0  0  0  0  0  0  0  0
   38.7630   21.7820   33.9600 H   0  0  0  0  0  0  0  0  0  0  0  0
   38.3470   26.7120   35.8210 C   0  0  0  0  0  0  0  0  0  0  0  0
   39.4470   27.5010   35.5000 F   0  0  0  0  0  0  0  0  0  0  0  0
   37.2330   27.3910   35.3200 F   0  0  0  0  0  0  0  0  0  0  0  0
   38.2130   26.7290   37.1930 F   0  0  0  0  0  0  0  0  0  0  0  0
   39.7970   22.1140   36.4810 C   0  0  0  0  0  3  0  0  0  0  0  0
   41.3310   22.0910   36.5010 C   0  0  0  0  0  2  0  0  0  0  0  0
   40.5300   22.5500   37.6840 C   0  0  0  0  0  2  0  0  0  0  0  0
  1  6  2  0  0  0  0
  1  2  1  0  0  0  0
  2  3  2  0  0  0  0
  3  4  1  0  0  0  0
  3 13  1  0  0  0  0
  5  9  1  0  0  0  0
  5  4  2  0  0  0  0
  6  5  1  0  0  0  0
  7  1  1  0  0  0  0
  8  2  1  0  0  0  0
  9 12  1  0  0  0  0
 10  9  1  0  0  0  0
 11  9  1  0  0  0  0
 13 14  1  0  0  0  0
 13 15  1  0  0  0  0
 14 15  1  0  0  0  0
M  END
>  <minimizedAffinity>
-3.8735373

$$$$
