
 OpenBabel03262520173D

 12 13  0  0  0  0  0  0  0  0999 V2000
   37.4190   30.1520   51.4120 C   0  0  0  0  0  0  0  0  0  0  0  0
   37.8920   30.9020   50.3190 C   0  0  0  0  0  0  0  0  0  0  0  0
   37.1280   30.9060   49.1380 C   0  0  0  0  0  0  0  0  0  0  0  0
   35.9730   30.1770   49.1370 N   0  0  0  0  0  0  0  0  0  0  0  0
   35.5550   29.4700   50.2070 C   0  0  0  0  0  0  0  0  0  0  0  0
   36.2800   29.4570   51.3520 N   0  0  0  0  0  0  0  0  0  0  0  0
   37.9990   30.1410   52.3280 H   0  0  0  0  0  0  0  0  0  0  0  0
   38.8320   31.4650   50.3960 H   0  0  0  0  0  0  0  0  0  0  0  0
   34.6050   28.9510   50.0100 H   0  0  0  0  0  0  0  0  0  0  0  0
   37.5670   31.6670   47.9670 C   0  0  0  0  0  3  0  0  0  0  0  0
   38.9420   32.1220   47.7640 C   0  0  0  0  0  2  0  0  0  0  0  0
   38.4800   30.8660   47.0290 C   0  0  0  0  0  2  0  0  0  0  0  0
  1  7  1  0  0  0  0
  2  8  1  0  0  0  0
  2  1  2  0  0  0  0
  3  2  1  0  0  0  0
  4  3  2  0  0  0  0
  4  5  1  0  0  0  0
  5  6  2  0  0  0  0
  6  1  1  0  0  0  0
  9  5  1  0  0  0  0
 10  3  1  0  0  0  0
 11 10  1  0  0  0  0
 12 11  1  0  0  0  0
 12 10  1  0  0  0  0
M  END
>  <minimizedAffinity>
-3.77720523

>  <minimizedRMSD>
0.867535651

$$$$
