
 OpenBabel03272509173D

 24 26  0  0  0  0  0  0  0  0999 V2000
   38.3460   31.5440   47.3040 C   0  0  0  0  0  0  0  0  0  0  0  0
   37.4320   31.4960   48.3450 C   0  0  0  0  0  0  0  0  0  0  0  0
   37.5540   32.5330   49.2550 C   0  0  0  0  0  0  0  0  0  0  0  0
   38.5180   33.5330   49.1280 C   0  0  0  0  0  0  0  0  0  0  0  0
   39.3930   33.5000   48.0500 C   0  0  0  0  0  0  0  0  0  0  0  0
   39.3100   32.4910   47.1240 C   0  0  0  0  0  0  0  0  0  0  0  0
   36.8820   32.5850   50.1080 H   0  0  0  0  0  0  0  0  0  0  0  0
   38.5970   34.3360   49.8500 H   0  0  0  0  0  0  0  0  0  0  0  0
   40.1490   34.2720   47.9390 H   0  0  0  0  0  0  0  0  0  0  0  0
   35.3460   30.4360   47.6160 C   0  0  0  0  0  0  0  0  0  0  0  0
   36.4430   30.4750   48.4820 C   0  0  0  0  0  0  0  0  0  0  0  0
   36.5210   29.4910   49.4590 C   0  0  0  0  0  0  0  0  0  0  0  0
   35.5370   28.5480   49.5300 N   0  0  0  0  0  0  0  0  0  0  0  0
   34.4900   28.5550   48.6620 C   0  0  0  0  0  0  0  0  0  0  0  0
   34.3950   29.4940   47.7100 N   0  0  0  0  0  0  0  0  0  0  0  0
   35.2560   31.1920   46.8390 H   0  0  0  0  0  0  0  0  0  0  0  0
   33.8240   27.7180   48.8920 H   0  0  0  0  0  0  0  0  0  0  0  0
   37.6730   29.4970   50.4030 C   0  0  0  0  0  0  0  0  0  0  0  0
   37.7560   28.5500   51.5320 C   0  0  0  0  0  0  0  0  0  0  0  0
   37.3570   30.0010   51.8160 C   0  0  0  0  0  0  0  0  0  0  0  0
   38.3170   30.5470   46.3240 O   0  0  0  0  0  0  0  0  0  0  0  0
   37.7190   30.5880   45.5190 H   0  0  0  0  0  0  0  0  0  0  0  0
   40.2000   32.4850   46.0560 O   0  0  0  0  0  0  0  0  0  0  0  0
   40.9860   31.8410   46.0030 H   0  0  0  0  0  0  0  0  0  0  0  0
  1  2  1  0  0  0  0
  2 11  1  0  0  0  0
  2  3  2  0  0  0  0
  3  7  1  0  0  0  0
  4  3  1  0  0  0  0
  4  8  1  0  0  0  0
  5  4  2  0  0  0  0
  6  1  2  0  0  0  0
  6  5  1  0  0  0  0
  9  5  1  0  0  0  0
 10 15  2  0  0  0  0
 10 11  1  0  0  0  0
 11 12  2  0  0  0  0
 12 13  1  0  0  0  0
 12 18  1  0  0  0  0
 14 17  1  0  0  0  0
 14 13  2  0  0  0  0
 15 14  1  0  0  0  0
 16 10  1  0  0  0  0
 18 19  1  0  0  0  0
 18 20  1  0  0  0  0
 19 20  1  0  0  0  0
 21  1  1  0  0  0  0
 22 21  1  0  0  0  0
 23  6  1  0  0  0  0
 24 23  1  0  0  0  0
M  END
>  <minimizedAffinity>
-5.76723003

>  <minimizedRMSD>
1.94112325

$$$$
