
 OpenBabel03272506563D

 14 15  0  0  0  0  0  0  0  0999 V2000
   37.0900   30.0960   51.0790 C   0  0  0  0  0  0  0  0  0  0  0  0
   37.9070   30.6450   50.0800 C   0  0  0  0  0  0  0  0  0  0  0  0
   37.5950   30.2960   48.7420 C   0  0  0  0  0  0  0  0  0  0  0  0
   36.5440   29.4670   48.5040 N   0  0  0  0  0  0  0  0  0  0  0  0
   35.8030   28.9770   49.5070 C   0  0  0  0  0  0  0  0  0  0  0  0
   36.0430   29.2670   50.8020 N   0  0  0  0  0  0  0  0  0  0  0  0
   37.3670   30.3910   52.0840 H   0  0  0  0  0  0  0  0  0  0  0  0
   38.1880   30.6880   47.9430 H   0  0  0  0  0  0  0  0  0  0  0  0
   38.9880   31.5040   50.3980 N   0  0  0  0  0  0  0  0  0  0  0  0
   39.2450   32.3840   49.9170 H   0  0  0  0  0  0  0  0  0  0  0  0
   39.5850   31.2050   51.2120 H   0  0  0  0  0  0  0  0  0  0  0  0
   34.6550   28.0710   49.2350 C   0  0  0  0  0  3  0  0  0  0  0  0
   33.8380   28.4450   47.9830 C   0  0  0  0  0  2  0  0  0  0  0  0
   33.2650   28.5560   49.4020 C   0  0  0  0  0  2  0  0  0  0  0  0
  1  7  1  0  0  0  0
  2  9  1  0  0  0  0
  2  1  2  0  0  0  0
  3  2  1  0  0  0  0
  4  3  2  0  0  0  0
  4  5  1  0  0  0  0
  5  6  2  0  0  0  0
  6  1  1  0  0  0  0
  8  3  1  0  0  0  0
  9 11  1  0  0  0  0
 10  9  1  0  0  0  0
 12 14  1  0  0  0  0
 12  5  1  0  0  0  0
 13 12  1  0  0  0  0
 13 14  1  0  0  0  0
M  END
>  <minimizedAffinity>
-3.62450624

>  <minimizedRMSD>
0.956800401

$$$$
