
 OpenBabel03272510173D

 22 24  0  0  0  0  0  0  0  0999 V2000
   37.1540   29.5770   51.1990 Br  0  0  0  0  0  0  0  0  0  0  0  0
   36.0160   29.3560   49.6890 C   0  0  0  0  0  0  0  0  0  0  0  0
   36.1330   30.1630   48.5630 C   0  0  0  0  0  0  0  0  0  0  0  0
   35.2790   29.9450   47.5140 C   0  0  0  0  0  0  0  0  0  0  0  0
   34.3060   28.9540   47.5320 C   0  0  0  0  0  0  0  0  0  0  0  0
   34.2070   28.1710   48.6510 C   0  0  0  0  0  0  0  0  0  0  0  0
   35.0690   28.3790   49.7270 C   0  0  0  0  0  0  0  0  0  0  0  0
   35.4070   30.5990   46.6560 H   0  0  0  0  0  0  0  0  0  0  0  0
   33.4540   27.3980   48.6750 H   0  0  0  0  0  0  0  0  0  0  0  0
   34.9420   27.7270   50.5840 H   0  0  0  0  0  0  0  0  0  0  0  0
   37.9800   33.1910   49.4390 C   0  0  0  0  0  0  0  0  0  0  0  0
   39.0340   33.2330   48.5010 C   0  0  0  0  0  0  0  0  0  0  0  0
   39.0890   32.2030   47.5730 C   0  0  0  0  0  0  0  0  0  0  0  0
   38.1460   31.2020   47.5910 N   0  0  0  0  0  0  0  0  0  0  0  0
   37.1470   31.2100   48.5200 C   0  0  0  0  0  0  0  0  0  0  0  0
   37.0690   32.2070   49.4410 N   0  0  0  0  0  0  0  0  0  0  0  0
   37.9200   33.9850   50.1710 H   0  0  0  0  0  0  0  0  0  0  0  0
   39.7740   34.0080   48.4790 H   0  0  0  0  0  0  0  0  0  0  0  0
   39.8870   32.1810   46.8180 H   0  0  0  0  0  0  0  0  0  0  0  0
   33.4240   28.8050   46.3270 C   0  0  0  0  0  0  0  0  0  0  0  0
   32.2500   29.7750   46.2020 C   0  0  0  0  0  0  0  0  0  0  0  0
   33.4230   29.8500   45.2680 C   0  0  0  0  0  0  0  0  0  0  0  0
  2  7  1  0  0  0  0
  2  1  1  0  0  0  0
  3  2  2  0  0  0  0
  4  5  2  0  0  0  0
  4  3  1  0  0  0  0
  5  6  1  0  0  0  0
  6  9  1  0  0  0  0
  6  7  2  0  0  0  0
  7 10  1  0  0  0  0
  8  4  1  0  0  0  0
 11 16  1  0  0  0  0
 11 17  1  0  0  0  0
 12 11  2  0  0  0  0
 13 14  2  0  0  0  0
 13 12  1  0  0  0  0
 14 15  1  0  0  0  0
 15  3  1  0  0  0  0
 15 16  2  0  0  0  0
 18 12  1  0  0  0  0
 19 13  1  0  0  0  0
 20  5  1  0  0  0  0
 21 20  1  0  0  0  0
 22 21  1  0  0  0  0
 22 20  1  0  0  0  0
M  END
>  <minimizedAffinity>
-5.65329695

>  <minimizedRMSD>
0.373394459

$$$$
