
 OpenBabel03272508413D

 36 39  0  0  1  0  0  0  0  0999 V2000
   38.2340   31.6880   43.4870 N   0  0  0  0  0  0  0  0  0  0  0  0
   37.3120   31.4410   44.5920 C   0  0  0  0  0  0  0  0  0  0  0  0
   37.9260   31.4900   45.9170 C   0  0  2  0  0  0  0  0  0  0  0  0
   39.2390   30.7840   45.9640 N   0  0  0  0  0  0  0  0  0  0  0  0
   40.0740   31.3750   44.9010 C   0  0  0  0  0  0  0  0  0  0  0  0
   39.4010   30.8890   43.6340 C   0  0  0  0  0  0  0  0  0  0  0  0
   37.0710   30.3420   44.3840 H   0  0  0  0  0  0  0  0  0  0  0  0
   36.4390   32.0890   44.5280 H   0  0  0  0  0  0  0  0  0  0  0  0
   38.2600   32.4850   46.2590 H   0  0  0  0  0  0  0  0  0  0  0  0
   39.1000   29.7620   45.8330 H   0  0  0  0  0  0  0  0  0  0  0  0
   41.1170   31.0900   45.0060 H   0  0  0  0  0  0  0  0  0  0  0  0
   39.9070   32.4820   44.9980 H   0  0  0  0  0  0  0  0  0  0  0  0
   39.1760   29.8050   43.7830 H   0  0  0  0  0  0  0  0  0  0  0  0
   40.0910   30.9270   42.7610 H   0  0  0  0  0  0  0  0  0  0  0  0
   38.6920   31.9370   48.7560 Cl  0  0  0  0  0  0  0  0  0  0  0  0
   37.2570   31.0480   48.2480 C   0  0  0  0  0  0  0  0  0  0  0  0
   37.0390   30.8950   46.9030 C   0  0  0  0  0  0  0  0  0  0  0  0
   35.9430   30.2170   46.3580 C   0  0  0  0  0  0  0  0  0  0  0  0
   35.0470   29.6780   47.2910 C   0  0  0  0  0  0  0  0  0  0  0  0
   35.2580   29.8230   48.6600 C   0  0  0  0  0  0  0  0  0  0  0  0
   36.3720   30.5140   49.1290 C   0  0  0  0  0  0  0  0  0  0  0  0
   35.5520   29.9730   45.3980 H   0  0  0  0  0  0  0  0  0  0  0  0
   34.1370   29.1150   47.0690 H   0  0  0  0  0  0  0  0  0  0  0  0
   34.5560   29.4010   49.3980 H   0  0  0  0  0  0  0  0  0  0  0  0
   36.5270   30.6060   50.6020 C   0  0  0  0  0  0  0  0  0  0  0  0
   36.0390   29.4910   51.4840 C   0  0  0  0  0  0  0  0  0  0  0  0
   37.4980   29.6280   51.2940 C   0  0  0  0  0  0  0  0  0  0  0  0
   37.9440   32.5940   42.4390 C   0  0  0  0  0  0  0  0  0  0  0  0
   38.9180   33.0330   41.5430 C   0  0  0  0  0  0  0  0  0  0  0  0
   38.5470   33.9160   40.5390 C   0  0  0  0  0  0  0  0  0  0  0  0
   37.2260   34.3180   40.4740 N   0  0  0  0  0  0  0  0  0  0  0  0
   36.3150   33.8620   41.3710 C   0  0  0  0  0  0  0  0  0  0  0  0
   36.6560   33.0190   42.3340 N   0  0  0  0  0  0  0  0  0  0  0  0
   39.9250   32.6730   41.6620 H   0  0  0  0  0  0  0  0  0  0  0  0
   39.2970   34.2550   39.8480 H   0  0  0  0  0  0  0  0  0  0  0  0
   35.2910   34.1970   41.2910 H   0  0  0  0  0  0  0  0  0  0  0  0
  1  6  1  0  0  0  0
  1  2  1  0  0  0  0
  2  3  1  0  0  0  0
  3  4  1  0  0  0  0
  3  9  1  1  0  0  0
  3 17  1  0  0  0  0
  5 12  1  0  0  0  0
  5 11  1  0  0  0  0
  5  4  1  0  0  0  0
  6 13  1  0  0  0  0
  6  5  1  0  0  0  0
  7  2  1  0  0  0  0
  8  2  1  0  0  0  0
 10  4  1  0  0  0  0
 14  6  1  0  0  0  0
 16 15  1  0  0  0  0
 16 21  1  0  0  0  0
 17 16  2  0  0  0  0
 18 17  1  0  0  0  0
 18 19  2  0  0  0  0
 19 20  1  0  0  0  0
 20 21  2  0  0  0  0
 20 24  1  0  0  0  0
 21 25  1  0  0  0  0
 22 18  1  0  0  0  0
 23 19  1  0  0  0  0
 25 27  1  0  0  0  0
 25 26  1  0  0  0  0
 27 26  1  0  0  0  0
 28  1  1  0  0  0  0
 29 34  1  0  0  0  0
 29 28  2  0  0  0  0
 30 29  1  0  0  0  0
 31 30  2  0  0  0  0
 31 32  1  0  0  0  0
 32 33  2  0  0  0  0
 33 28  1  0  0  0  0
 35 30  1  0  0  0  0
 36 32  1  0  0  0  0
M  END
>  <minimizedAffinity>
-6.06072521

>  <minimizedRMSD>
4.65918255

$$$$
