
 OpenBabel03272501013D

 22 24  0  0  0  0  0  0  0  0999 V2000
   36.2000   20.7730   35.8100 F   0  0  0  0  0  0  0  0  0  0  0  0
   36.7580   21.3650   34.7260 C   0  0  0  0  0  0  0  0  0  0  0  0
   37.7510   22.3450   34.8060 C   0  0  0  0  0  0  0  0  0  0  0  0
   38.2650   22.8950   33.6550 C   0  0  0  0  0  0  0  0  0  0  0  0
   37.8220   22.5020   32.4030 C   0  0  0  0  0  0  0  0  0  0  0  0
   36.8290   21.5220   32.3320 C   0  0  0  0  0  0  0  0  0  0  0  0
   36.3070   20.9640   33.4750 C   0  0  0  0  0  0  0  0  0  0  0  0
   39.0330   23.6530   33.7330 H   0  0  0  0  0  0  0  0  0  0  0  0
   38.2810   22.9880   31.5360 H   0  0  0  0  0  0  0  0  0  0  0  0
   36.5120   21.2440   31.3290 H   0  0  0  0  0  0  0  0  0  0  0  0
   39.9230   22.7010   37.7250 C   0  0  0  0  0  0  0  0  0  0  0  0
   39.1700   23.4670   38.6290 C   0  0  0  0  0  0  0  0  0  0  0  0
   37.9060   23.8560   38.2150 C   0  0  0  0  0  0  0  0  0  0  0  0
   37.4700   23.4870   36.9870 N   0  0  0  0  0  0  0  0  0  0  0  0
   38.2120   22.7530   36.1400 C   0  0  0  0  0  0  0  0  0  0  0  0
   39.4480   22.3570   36.5120 N   0  0  0  0  0  0  0  0  0  0  0  0
   40.9020   22.4140   38.0750 H   0  0  0  0  0  0  0  0  0  0  0  0
   39.5130   23.7620   39.6030 H   0  0  0  0  0  0  0  0  0  0  0  0
   37.2380   24.4500   38.8350 H   0  0  0  0  0  0  0  0  0  0  0  0
   35.2630   19.9340   33.3620 C   0  0  0  0  0  3  0  0  0  0  0  0
   34.7700   19.7010   31.9360 C   0  0  0  0  0  2  0  0  0  0  0  0
   35.4740   18.6180   32.7600 C   0  0  0  0  0  2  0  0  0  0  0  0
  2  3  1  0  0  0  0
  2  1  1  0  0  0  0
  3 15  1  0  0  0  0
  4  8  1  0  0  0  0
  4  3  2  0  0  0  0
  5  4  1  0  0  0  0
  6  5  2  0  0  0  0
  6  7  1  0  0  0  0
  7  2  2  0  0  0  0
  9  5  1  0  0  0  0
 10  6  1  0  0  0  0
 11 17  1  0  0  0  0
 11 12  1  0  0  0  0
 12 18  1  0  0  0  0
 13 12  2  0  0  0  0
 13 19  1  0  0  0  0
 14 13  1  0  0  0  0
 15 16  1  0  0  0  0
 15 14  2  0  0  0  0
 16 11  2  0  0  0  0
 20  7  1  0  0  0  0
 21 22  1  0  0  0  0
 21 20  1  0  0  0  0
 22 20  1  0  0  0  0
M  END
>  <minimizedAffinity>
-4.95589924

$$$$

 OpenBabel03272501013D

 22 24  0  0  0  0  0  0  0  0999 V2000
   40.1120   23.8850   34.5480 F   0  0  0  0  0  0  0  0  0  0  0  0
   39.5720   23.8240   35.7900 C   0  0  0  0  0  0  0  0  0  0  0  0
   38.5090   24.6270   36.2110 C   0  0  0  0  0  0  0  0  0  0  0  0
   38.0200   24.5010   37.4910 C   0  0  0  0  0  0  0  0  0  0  0  0
   38.5570   23.5900   38.3860 C   0  0  0  0  0  0  0  0  0  0  0  0
   39.6200   22.7920   37.9560 C   0  0  0  0  0  0  0  0  0  0  0  0
   40.1170   22.9080   36.6800 C   0  0  0  0  0  0  0  0  0  0  0  0
   37.1970   25.1300   37.8030 H   0  0  0  0  0  0  0  0  0  0  0  0
   38.1120   23.5510   39.3850 H   0  0  0  0  0  0  0  0  0  0  0  0
   40.0100   22.0910   38.6920 H   0  0  0  0  0  0  0  0  0  0  0  0
   37.2750   27.7850   34.8440 C   0  0  0  0  0  0  0  0  0  0  0  0
   36.9020   27.4730   33.5270 C   0  0  0  0  0  0  0  0  0  0  0  0
   37.0830   26.1600   33.1210 C   0  0  0  0  0  0  0  0  0  0  0  0
   37.6000   25.2640   33.9970 N   0  0  0  0  0  0  0  0  0  0  0  0
   37.9490   25.5890   35.2530 C   0  0  0  0  0  0  0  0  0  0  0  0
   37.7850   26.8600   35.6800 N   0  0  0  0  0  0  0  0  0  0  0  0
   37.1230   28.8140   35.1290 H   0  0  0  0  0  0  0  0  0  0  0  0
   36.4930   28.1810   32.8310 H   0  0  0  0  0  0  0  0  0  0  0  0
   36.8280   25.8090   32.1240 H   0  0  0  0  0  0  0  0  0  0  0  0
   41.2370   22.0500   36.2620 C   0  0  0  0  0  3  0  0  0  0  0  0
   42.6120   22.5870   36.6540 C   0  0  0  0  0  2  0  0  0  0  0  0
   42.0530   21.2630   37.1860 C   0  0  0  0  0  2  0  0  0  0  0  0
  1  2  1  0  0  0  0
  2  3  2  0  0  0  0
  2  7  1  0  0  0  0
  3  4  1  0  0  0  0
  4  8  1  0  0  0  0
  4  5  2  0  0  0  0
  5  9  1  0  0  0  0
  6  5  1  0  0  0  0
  6 10  1  0  0  0  0
  7  6  2  0  0  0  0
 11 17  1  0  0  0  0
 11 16  1  0  0  0  0
 12 11  2  0  0  0  0
 13 12  1  0  0  0  0
 13 14  2  0  0  0  0
 14 15  1  0  0  0  0
 15 16  2  0  0  0  0
 15  3  1  0  0  0  0
 18 12  1  0  0  0  0
 19 13  1  0  0  0  0
 20 21  1  0  0  0  0
 20  7  1  0  0  0  0
 20 22  1  0  0  0  0
 21 22  1  0  0  0  0
M  END
>  <minimizedAffinity>
-4.88222742

$$$$

 OpenBabel03272501013D

 22 24  0  0  0  0  0  0  0  0999 V2000
   37.9930   23.6110   33.3290 F   0  0  0  0  0  0  0  0  0  0  0  0
   37.7420   24.8730   33.7530 C   0  0  0  0  0  0  0  0  0  0  0  0
   38.1120   25.3550   35.0110 C   0  0  0  0  0  0  0  0  0  0  0  0
   37.8180   26.6520   35.3620 C   0  0  0  0  0  0  0  0  0  0  0  0
   37.1580   27.5070   34.4950 C   0  0  0  0  0  0  0  0  0  0  0  0
   36.7910   27.0170   33.2390 C   0  0  0  0  0  0  0  0  0  0  0  0
   37.0790   25.7220   32.8760 C   0  0  0  0  0  0  0  0  0  0  0  0
   38.1110   27.0110   36.3400 H   0  0  0  0  0  0  0  0  0  0  0  0
   36.9610   28.5230   34.8500 H   0  0  0  0  0  0  0  0  0  0  0  0
   36.2750   27.7220   32.5910 H   0  0  0  0  0  0  0  0  0  0  0  0
   38.7870   23.2960   37.9550 C   0  0  0  0  0  0  0  0  0  0  0  0
   40.0450   22.7260   37.7020 C   0  0  0  0  0  0  0  0  0  0  0  0
   40.6530   23.0640   36.5030 C   0  0  0  0  0  0  0  0  0  0  0  0
   40.0170   23.9070   35.6550 N   0  0  0  0  0  0  0  0  0  0  0  0
   38.8120   24.4390   35.9220 C   0  0  0  0  0  0  0  0  0  0  0  0
   38.1920   24.1310   37.0820 N   0  0  0  0  0  0  0  0  0  0  0  0
   38.3390   23.0130   38.8950 H   0  0  0  0  0  0  0  0  0  0  0  0
   40.5510   22.0570   38.3730 H   0  0  0  0  0  0  0  0  0  0  0  0
   41.6270   22.6810   36.2060 H   0  0  0  0  0  0  0  0  0  0  0  0
   36.6780   25.2410   31.5450 C   0  0  0  0  0  3  0  0  0  0  0  0
   35.4830   24.2890   31.5620 C   0  0  0  0  0  2  0  0  0  0  0  0
   35.4510   25.6520   30.8630 C   0  0  0  0  0  2  0  0  0  0  0  0
  1  2  1  0  0  0  0
  2  3  1  0  0  0  0
  3  4  2  0  0  0  0
  3 15  1  0  0  0  0
  4  8  1  0  0  0  0
  5  9  1  0  0  0  0
  5  4  1  0  0  0  0
  6  5  2  0  0  0  0
  7  6  1  0  0  0  0
  7  2  2  0  0  0  0
 10  6  1  0  0  0  0
 11 17  1  0  0  0  0
 12 11  1  0  0  0  0
 12 18  1  0  0  0  0
 13 12  2  0  0  0  0
 14 15  2  0  0  0  0
 14 13  1  0  0  0  0
 15 16  1  0  0  0  0
 16 11  2  0  0  0  0
 19 13  1  0  0  0  0
 20 21  1  0  0  0  0
 20  7  1  0  0  0  0
 22 20  1  0  0  0  0
 22 21  1  0  0  0  0
M  END
>  <minimizedAffinity>
-4.70326376

$$$$

 OpenBabel03272501013D

 22 24  0  0  0  0  0  0  0  0999 V2000
   38.0120   23.7040   33.4100 F   0  0  0  0  0  0  0  0  0  0  0  0
   37.7730   24.9620   33.8530 C   0  0  0  0  0  0  0  0  0  0  0  0
   38.1150   25.4100   35.1310 C   0  0  0  0  0  0  0  0  0  0  0  0
   37.8350   26.7060   35.5010 C   0  0  0  0  0  0  0  0  0  0  0  0
   37.2170   27.5900   34.6340 C   0  0  0  0  0  0  0  0  0  0  0  0
   36.8780   27.1340   33.3580 C   0  0  0  0  0  0  0  0  0  0  0  0
   37.1520   25.8420   32.9750 C   0  0  0  0  0  0  0  0  0  0  0  0
   38.1060   27.0380   36.4950 H   0  0  0  0  0  0  0  0  0  0  0  0
   37.0280   28.6030   35.0050 H   0  0  0  0  0  0  0  0  0  0  0  0
   36.3940   27.8630   32.7110 H   0  0  0  0  0  0  0  0  0  0  0  0
   40.6250   23.1110   36.4630 C   0  0  0  0  0  0  0  0  0  0  0  0
   40.0850   22.6730   37.6830 C   0  0  0  0  0  0  0  0  0  0  0  0
   38.8460   23.1830   38.0360 C   0  0  0  0  0  0  0  0  0  0  0  0
   38.2310   24.0590   37.2040 N   0  0  0  0  0  0  0  0  0  0  0  0
   38.7710   24.4620   36.0410 C   0  0  0  0  0  0  0  0  0  0  0  0
   39.9780   23.9840   35.6680 N   0  0  0  0  0  0  0  0  0  0  0  0
   41.5900   22.6970   36.2170 H   0  0  0  0  0  0  0  0  0  0  0  0
   40.5700   21.9790   38.3440 H   0  0  0  0  0  0  0  0  0  0  0  0
   38.3360   22.9120   38.9570 H   0  0  0  0  0  0  0  0  0  0  0  0
   36.7810   25.3970   31.6240 C   0  0  0  0  0  3  0  0  0  0  0  0
   35.5460   24.4980   31.5820 C   0  0  0  0  0  2  0  0  0  0  0  0
   35.6000   25.8700   30.9020 C   0  0  0  0  0  2  0  0  0  0  0  0
  1  2  1  0  0  0  0
  2  3  1  0  0  0  0
  3  4  2  0  0  0  0
  3 15  1  0  0  0  0
  4  8  1  0  0  0  0
  5  9  1  0  0  0  0
  5  4  1  0  0  0  0
  6  5  2  0  0  0  0
  7  6  1  0  0  0  0
  7  2  2  0  0  0  0
 10  6  1  0  0  0  0
 11 12  1  0  0  0  0
 12 13  2  0  0  0  0
 12 18  1  0  0  0  0
 13 19  1  0  0  0  0
 14 13  1  0  0  0  0
 15 14  2  0  0  0  0
 16 15  1  0  0  0  0
 16 11  2  0  0  0  0
 17 11  1  0  0  0  0
 20  7  1  0  0  0  0
 21 20  1  0  0  0  0
 22 21  1  0  0  0  0
 22 20  1  0  0  0  0
M  END
>  <minimizedAffinity>
-4.66770697

$$$$

 OpenBabel03272501013D

 22 24  0  0  0  0  0  0  0  0999 V2000
   37.8940   23.2790   34.6820 F   0  0  0  0  0  0  0  0  0  0  0  0
   38.1730   24.5900   34.8820 C   0  0  0  0  0  0  0  0  0  0  0  0
   38.5520   25.4640   33.8600 C   0  0  0  0  0  0  0  0  0  0  0  0
   38.8170   26.7830   34.1500 C   0  0  0  0  0  0  0  0  0  0  0  0
   38.7200   27.2760   35.4400 C   0  0  0  0  0  0  0  0  0  0  0  0
   38.3400   26.3950   36.4550 C   0  0  0  0  0  0  0  0  0  0  0  0
   38.0720   25.0750   36.1800 C   0  0  0  0  0  0  0  0  0  0  0  0
   39.1100   27.4470   33.3470 H   0  0  0  0  0  0  0  0  0  0  0  0
   38.9480   28.3370   35.5870 H   0  0  0  0  0  0  0  0  0  0  0  0
   38.2760   26.8260   37.4530 H   0  0  0  0  0  0  0  0  0  0  0  0
   37.5260   24.2150   30.5810 C   0  0  0  0  0  0  0  0  0  0  0  0
   38.7330   23.9210   29.9260 C   0  0  0  0  0  0  0  0  0  0  0  0
   39.9010   24.1610   30.6330 C   0  0  0  0  0  0  0  0  0  0  0  0
   39.8210   24.6560   31.8920 N   0  0  0  0  0  0  0  0  0  0  0  0
   38.6520   24.9280   32.4960 C   0  0  0  0  0  0  0  0  0  0  0  0
   37.4950   24.7060   31.8350 N   0  0  0  0  0  0  0  0  0  0  0  0
   36.6360   24.0180   30.0060 H   0  0  0  0  0  0  0  0  0  0  0  0
   38.7990   23.5290   28.9280 H   0  0  0  0  0  0  0  0  0  0  0  0
   40.8900   23.9700   30.2230 H   0  0  0  0  0  0  0  0  0  0  0  0
   37.6750   24.1770   37.2740 C   0  0  0  0  0  3  0  0  0  0  0  0
   38.8320   23.3850   37.8800 C   0  0  0  0  0  2  0  0  0  0  0  0
   38.0110   24.4020   38.6800 C   0  0  0  0  0  2  0  0  0  0  0  0
  1  2  1  0  0  0  0
  2  7  1  0  0  0  0
  3  4  1  0  0  0  0
  3  2  2  0  0  0  0
  4  5  2  0  0  0  0
  5  9  1  0  0  0  0
  5  6  1  0  0  0  0
  6 10  1  0  0  0  0
  7  6  2  0  0  0  0
  7 20  1  0  0  0  0
  8  4  1  0  0  0  0
 11 16  1  0  0  0  0
 12 11  2  0  0  0  0
 12 13  1  0  0  0  0
 13 14  2  0  0  0  0
 14 15  1  0  0  0  0
 15  3  1  0  0  0  0
 16 15  2  0  0  0  0
 17 11  1  0  0  0  0
 18 12  1  0  0  0  0
 19 13  1  0  0  0  0
 20 21  1  0  0  0  0
 20 22  1  0  0  0  0
 21 22  1  0  0  0  0
M  END
>  <minimizedAffinity>
-4.57112646

$$$$

 OpenBabel03272501013D

 22 24  0  0  0  0  0  0  0  0999 V2000
   34.7230   30.0800   34.8370 F   0  0  0  0  0  0  0  0  0  0  0  0
   34.2000   30.9780   35.7070 C   0  0  0  0  0  0  0  0  0  0  0  0
   32.9310   30.8510   36.2790 C   0  0  0  0  0  0  0  0  0  0  0  0
   32.4760   31.8090   37.1550 C   0  0  0  0  0  0  0  0  0  0  0  0
   33.2450   32.9100   37.4910 C   0  0  0  0  0  0  0  0  0  0  0  0
   34.5120   33.0290   36.9140 C   0  0  0  0  0  0  0  0  0  0  0  0
   34.9800   32.0780   36.0370 C   0  0  0  0  0  0  0  0  0  0  0  0
   31.4910   31.6970   37.5900 H   0  0  0  0  0  0  0  0  0  0  0  0
   32.8110   33.6270   38.1940 H   0  0  0  0  0  0  0  0  0  0  0  0
   35.0820   33.9090   37.2060 H   0  0  0  0  0  0  0  0  0  0  0  0
   30.8590   28.6000   34.2790 C   0  0  0  0  0  0  0  0  0  0  0  0
   30.5920   27.5190   35.1330 C   0  0  0  0  0  0  0  0  0  0  0  0
   31.1370   27.5800   36.4060 C   0  0  0  0  0  0  0  0  0  0  0  0
   31.8840   28.6560   36.7530 N   0  0  0  0  0  0  0  0  0  0  0  0
   32.1250   29.6790   35.9150 C   0  0  0  0  0  0  0  0  0  0  0  0
   31.6080   29.6500   34.6670 N   0  0  0  0  0  0  0  0  0  0  0  0
   30.4220   28.5230   33.2950 H   0  0  0  0  0  0  0  0  0  0  0  0
   30.0010   26.6640   34.8610 H   0  0  0  0  0  0  0  0  0  0  0  0
   30.9940   26.7990   37.1490 H   0  0  0  0  0  0  0  0  0  0  0  0
   36.3180   32.2370   35.4490 C   0  0  0  0  0  3  0  0  0  0  0  0
   36.3230   32.9360   34.0920 C   0  0  0  0  0  2  0  0  0  0  0  0
   37.0130   33.5180   35.3300 C   0  0  0  0  0  2  0  0  0  0  0  0
  1  2  1  0  0  0  0
  2  7  2  0  0  0  0
  2  3  1  0  0  0  0
  3  4  2  0  0  0  0
  4  5  1  0  0  0  0
  4  8  1  0  0  0  0
  5  9  1  0  0  0  0
  6 10  1  0  0  0  0
  6  5  2  0  0  0  0
  7  6  1  0  0  0  0
 11 16  2  0  0  0  0
 11 12  1  0  0  0  0
 12 13  2  0  0  0  0
 13 14  1  0  0  0  0
 13 19  1  0  0  0  0
 15  3  1  0  0  0  0
 15 14  2  0  0  0  0
 16 15  1  0  0  0  0
 17 11  1  0  0  0  0
 18 12  1  0  0  0  0
 20  7  1  0  0  0  0
 21 22  1  0  0  0  0
 21 20  1  0  0  0  0
 22 20  1  0  0  0  0
M  END
>  <minimizedAffinity>
-4.55564117

$$$$

 OpenBabel03272501013D

 22 24  0  0  0  0  0  0  0  0999 V2000
   36.0070   29.4350   34.7110 F   0  0  0  0  0  0  0  0  0  0  0  0
   36.2070   28.4560   33.7950 C   0  0  0  0  0  0  0  0  0  0  0  0
   35.5330   28.3910   32.5730 C   0  0  0  0  0  0  0  0  0  0  0  0
   35.7970   27.3610   31.6990 C   0  0  0  0  0  0  0  0  0  0  0  0
   36.7210   26.3750   31.9980 C   0  0  0  0  0  0  0  0  0  0  0  0
   37.3900   26.4480   33.2220 C   0  0  0  0  0  0  0  0  0  0  0  0
   37.1370   27.4710   34.1040 C   0  0  0  0  0  0  0  0  0  0  0  0
   35.2670   27.3250   30.7570 H   0  0  0  0  0  0  0  0  0  0  0  0
   36.8730   25.5900   31.2500 H   0  0  0  0  0  0  0  0  0  0  0  0
   38.1070   25.6520   33.4150 H   0  0  0  0  0  0  0  0  0  0  0  0
   32.3860   30.2500   32.5610 C   0  0  0  0  0  0  0  0  0  0  0  0
   32.6440   31.3680   31.7530 C   0  0  0  0  0  0  0  0  0  0  0  0
   33.9170   31.4690   31.2160 C   0  0  0  0  0  0  0  0  0  0  0  0
   34.8290   30.5050   31.4910 N   0  0  0  0  0  0  0  0  0  0  0  0
   34.5550   29.4430   32.2680 C   0  0  0  0  0  0  0  0  0  0  0  0
   33.3230   29.3140   32.8070 N   0  0  0  0  0  0  0  0  0  0  0  0
   31.3870   30.1990   32.9650 H   0  0  0  0  0  0  0  0  0  0  0  0
   31.9240   32.1350   31.5340 H   0  0  0  0  0  0  0  0  0  0  0  0
   34.2250   32.2940   30.5770 H   0  0  0  0  0  0  0  0  0  0  0  0
   37.8600   27.5160   35.3840 C   0  0  0  0  0  3  0  0  0  0  0  0
   38.1210   26.1430   36.0000 C   0  0  0  0  0  2  0  0  0  0  0  0
   39.2460   27.0820   35.5560 C   0  0  0  0  0  2  0  0  0  0  0  0
  2  7  1  0  0  0  0
  2  1  1  0  0  0  0
  3  2  2  0  0  0  0
  4  5  2  0  0  0  0
  4  3  1  0  0  0  0
  5  6  1  0  0  0  0
  6 10  1  0  0  0  0
  6  7  2  0  0  0  0
  7 20  1  0  0  0  0
  8  4  1  0  0  0  0
  9  5  1  0  0  0  0
 11 16  1  0  0  0  0
 11 17  1  0  0  0  0
 12 11  2  0  0  0  0
 13 14  2  0  0  0  0
 13 12  1  0  0  0  0
 14 15  1  0  0  0  0
 15  3  1  0  0  0  0
 15 16  2  0  0  0  0
 18 12  1  0  0  0  0
 19 13  1  0  0  0  0
 20 22  1  0  0  0  0
 20 21  1  0  0  0  0
 22 21  1  0  0  0  0
M  END
>  <minimizedAffinity>
-4.52240086

$$$$

 OpenBabel03272501013D

 22 24  0  0  0  0  0  0  0  0999 V2000
   35.4050   28.3170   34.6270 F   0  0  0  0  0  0  0  0  0  0  0  0
   35.6950   29.1010   33.5600 C   0  0  0  0  0  0  0  0  0  0  0  0
   36.1420   28.6020   32.3330 C   0  0  0  0  0  0  0  0  0  0  0  0
   36.4140   29.4690   31.2990 C   0  0  0  0  0  0  0  0  0  0  0  0
   36.2580   30.8370   31.4400 C   0  0  0  0  0  0  0  0  0  0  0  0
   35.8120   31.3270   32.6700 C   0  0  0  0  0  0  0  0  0  0  0  0
   35.5350   30.4720   33.7110 C   0  0  0  0  0  0  0  0  0  0  0  0
   36.7580   29.0680   30.3550 H   0  0  0  0  0  0  0  0  0  0  0  0
   36.4960   31.4590   30.5710 H   0  0  0  0  0  0  0  0  0  0  0  0
   35.7030   32.4080   32.7350 H   0  0  0  0  0  0  0  0  0  0  0  0
   35.5970   25.1860   31.1520 C   0  0  0  0  0  0  0  0  0  0  0  0
   36.5270   24.4160   31.8690 C   0  0  0  0  0  0  0  0  0  0  0  0
   37.3420   25.0940   32.7610 C   0  0  0  0  0  0  0  0  0  0  0  0
   37.2030   26.4350   32.8950 N   0  0  0  0  0  0  0  0  0  0  0  0
   36.3030   27.1490   32.1970 C   0  0  0  0  0  0  0  0  0  0  0  0
   35.4930   26.5190   31.3180 N   0  0  0  0  0  0  0  0  0  0  0  0
   34.9780   24.6310   30.4650 H   0  0  0  0  0  0  0  0  0  0  0  0
   36.6400   23.3530   31.7640 H   0  0  0  0  0  0  0  0  0  0  0  0
   38.0960   24.5980   33.3680 H   0  0  0  0  0  0  0  0  0  0  0  0
   35.0680   31.0240   34.9910 C   0  0  0  0  0  3  0  0  0  0  0  0
   36.1700   31.6610   35.8350 C   0  0  0  0  0  2  0  0  0  0  0  0
   34.9810   32.4540   35.2830 C   0  0  0  0  0  2  0  0  0  0  0  0
  2  7  1  0  0  0  0
  2  1  1  0  0  0  0
  3  2  2  0  0  0  0
  4  5  2  0  0  0  0
  4  3  1  0  0  0  0
  5  6  1  0  0  0  0
  6 10  1  0  0  0  0
  6  7  2  0  0  0  0
  7 20  1  0  0  0  0
  8  4  1  0  0  0  0
  9  5  1  0  0  0  0
 11 16  2  0  0  0  0
 11 12  1  0  0  0  0
 12 13  2  0  0  0  0
 13 14  1  0  0  0  0
 13 19  1  0  0  0  0
 15  3  1  0  0  0  0
 15 14  2  0  0  0  0
 16 15  1  0  0  0  0
 17 11  1  0  0  0  0
 18 12  1  0  0  0  0
 20 22  1  0  0  0  0
 20 21  1  0  0  0  0
 22 21  1  0  0  0  0
M  END
>  <minimizedAffinity>
-4.4739604

$$$$

 OpenBabel03272501013D

 22 24  0  0  0  0  0  0  0  0999 V2000
   35.1080   30.9750   32.3130 F   0  0  0  0  0  0  0  0  0  0  0  0
   35.7370   29.8710   32.7840 C   0  0  0  0  0  0  0  0  0  0  0  0
   35.7740   29.5200   34.1360 C   0  0  0  0  0  0  0  0  0  0  0  0
   36.4360   28.3800   34.5300 C   0  0  0  0  0  0  0  0  0  0  0  0
   37.0750   27.5590   33.6160 C   0  0  0  0  0  0  0  0  0  0  0  0
   37.0330   27.9180   32.2660 C   0  0  0  0  0  0  0  0  0  0  0  0
   36.3740   29.0540   31.8590 C   0  0  0  0  0  0  0  0  0  0  0  0
   36.4560   28.1210   35.5800 H   0  0  0  0  0  0  0  0  0  0  0  0
   37.5790   26.6710   34.0090 H   0  0  0  0  0  0  0  0  0  0  0  0
   37.5480   27.2440   31.5840 H   0  0  0  0  0  0  0  0  0  0  0  0
   33.0730   31.0620   36.0560 C   0  0  0  0  0  0  0  0  0  0  0  0
   33.7180   32.0070   36.8700 C   0  0  0  0  0  0  0  0  0  0  0  0
   35.0950   32.1010   36.7450 C   0  0  0  0  0  0  0  0  0  0  0  0
   35.7350   31.2950   35.8630 N   0  0  0  0  0  0  0  0  0  0  0  0
   35.0930   30.3980   35.0960 C   0  0  0  0  0  0  0  0  0  0  0  0
   33.7510   30.2810   35.1930 N   0  0  0  0  0  0  0  0  0  0  0  0
   32.0030   31.0110   36.1770 H   0  0  0  0  0  0  0  0  0  0  0  0
   33.2140   32.6460   37.5700 H   0  0  0  0  0  0  0  0  0  0  0  0
   35.6950   32.7980   37.3250 H   0  0  0  0  0  0  0  0  0  0  0  0
   36.3510   29.4000   30.4300 C   0  0  0  0  0  3  0  0  0  0  0  0
   37.4270   30.4000   30.0140 C   0  0  0  0  0  2  0  0  0  0  0  0
   37.3650   28.9700   29.4670 C   0  0  0  0  0  2  0  0  0  0  0  0
  1  2  1  0  0  0  0
  2  3  1  0  0  0  0
  3  4  2  0  0  0  0
  3 15  1  0  0  0  0
  4  8  1  0  0  0  0
  5  9  1  0  0  0  0
  5  4  1  0  0  0  0
  6  5  2  0  0  0  0
  7  6  1  0  0  0  0
  7  2  2  0  0  0  0
 10  6  1  0  0  0  0
 11 17  1  0  0  0  0
 11 12  1  0  0  0  0
 12 18  1  0  0  0  0
 13 12  2  0  0  0  0
 13 19  1  0  0  0  0
 14 13  1  0  0  0  0
 15 16  1  0  0  0  0
 15 14  2  0  0  0  0
 16 11  2  0  0  0  0
 20  7  1  0  0  0  0
 21 20  1  0  0  0  0
 22 21  1  0  0  0  0
 22 20  1  0  0  0  0
M  END
>  <minimizedAffinity>
-4.41717339

$$$$
