
 OpenBabel03272506213D

 38 41  0  0  1  0  0  0  0  0999 V2000
   37.8420   25.2040   33.6120 C   0  0  0  0  0  0  0  0  0  0  0  0
   38.6880   24.2110   34.1090 C   0  0  0  0  0  0  0  0  0  0  0  0
   39.1130   24.3650   35.4420 C   0  0  0  0  0  0  0  0  0  0  0  0
   38.6830   25.4630   36.1790 N   0  0  0  0  0  0  0  0  0  0  0  0
   37.8540   26.4020   35.6330 C   0  0  0  0  0  0  0  0  0  0  0  0
   37.4480   26.2650   34.3740 N   0  0  0  0  0  0  0  0  0  0  0  0
   39.9770   23.4190   36.0490 N   0  0  0  0  0  0  0  0  0  0  0  0
   41.2180   23.1460   35.5450 C   0  0  0  0  0  0  0  0  0  0  0  0
   42.0360   22.2260   36.1510 C   0  0  0  0  0  0  0  0  0  0  0  0
   41.5810   21.5950   37.2620 C   0  0  0  0  0  0  0  0  0  0  0  0
   42.3160   20.7390   37.8420 O   0  0  0  0  0  0  0  0  0  0  0  0
   40.3590   21.8570   37.7650 N   0  0  0  0  0  0  0  0  0  0  0  0
   39.5850   22.7680   37.1400 C   0  0  0  0  0  0  0  0  0  0  0  0
   38.4550   22.9440   37.6890 O   0  0  0  0  0  0  0  0  0  0  0  0
   39.0530   23.3490   33.6080 H   0  0  0  0  0  0  0  0  0  0  0  0
   37.5730   27.2190   36.2770 H   0  0  0  0  0  0  0  0  0  0  0  0
   41.5510   23.6680   34.6570 H   0  0  0  0  0  0  0  0  0  0  0  0
   43.0090   21.9850   35.7910 H   0  0  0  0  0  0  0  0  0  0  0  0
   40.0440   21.3430   38.6310 H   0  0  0  0  0  0  0  0  0  0  0  0
   37.3920   25.0220   32.1950 C   0  0  2  0  0  0  0  0  0  0  0  0
   36.8790   26.3590   31.6730 C   0  0  0  0  0  0  0  0  0  0  0  0
   35.4120   26.3810   31.4410 C   0  0  0  0  0  0  0  0  0  0  0  0
   34.8940   25.2500   30.6080 C   0  0  0  0  0  0  0  0  0  0  0  0
   35.5820   23.9550   30.8650 C   0  0  0  0  0  0  0  0  0  0  0  0
   36.3650   23.9620   32.1710 C   0  0  1  0  0  0  0  0  0  0  0  0
   38.2940   24.7090   31.6450 H   0  0  0  0  0  0  0  0  0  0  0  0
   37.3710   26.5280   30.6940 H   0  0  0  0  0  0  0  0  0  0  0  0
   37.1220   27.1980   32.3560 H   0  0  0  0  0  0  0  0  0  0  0  0
   35.1460   27.3460   31.0110 H   0  0  0  0  0  0  0  0  0  0  0  0
   34.9180   26.2970   32.4520 H   0  0  0  0  0  0  0  0  0  0  0  0
   33.8120   25.1210   30.8430 H   0  0  0  0  0  0  0  0  0  0  0  0
   34.9190   25.5660   29.5450 H   0  0  0  0  0  0  0  0  0  0  0  0
   36.3800   23.8620   30.0750 H   0  0  0  0  0  0  0  0  0  0  0  0
   34.8970   23.1060   30.8150 H   0  0  0  0  0  0  0  0  0  0  0  0
   35.6250   24.1550   32.9690 H   0  0  0  0  0  0  0  0  0  0  0  0
   36.9900   22.6130   32.3920 C   0  0  0  0  0  3  0  0  0  0  0  0
   36.1480   21.5710   33.1340 C   0  0  0  0  0  2  0  0  0  0  0  0
   36.4550   21.4250   31.6460 C   0  0  0  0  0  2  0  0  0  0  0  0
  1  2  2  0  0  0  0
  1  6  1  0  0  0  0
  2  3  1  0  0  0  0
  3  7  1  0  0  0  0
  3  4  2  0  0  0  0
  5  4  1  0  0  0  0
  5 16  1  0  0  0  0
  6  5  2  0  0  0  0
  7 13  1  0  0  0  0
  8  7  1  0  0  0  0
  8  9  2  0  0  0  0
  9 10  1  0  0  0  0
 10 12  1  0  0  0  0
 10 11  2  0  0  0  0
 12 19  1  0  0  0  0
 13 14  2  0  0  0  0
 13 12  1  0  0  0  0
 15  2  1  0  0  0  0
 17  8  1  0  0  0  0
 18  9  1  0  0  0  0
 20 26  1  6  0  0  0
 20  1  1  0  0  0  0
 21 20  1  0  0  0  0
 21 28  1  0  0  0  0
 22 21  1  0  0  0  0
 22 30  1  0  0  0  0
 23 31  1  0  0  0  0
 23 24  1  0  0  0  0
 23 22  1  0  0  0  0
 24 25  1  0  0  0  0
 25 20  1  0  0  0  0
 25 36  1  0  0  0  0
 25 35  1  1  0  0  0
 27 21  1  0  0  0  0
 29 22  1  0  0  0  0
 32 23  1  0  0  0  0
 33 24  1  0  0  0  0
 34 24  1  0  0  0  0
 36 37  1  0  0  0  0
 38 36  1  0  0  0  0
 38 37  1  0  0  0  0
M  END
>  <minimizedAffinity>
-6.21875095

$$$$

 OpenBabel03272506213D

 38 41  0  0  1  0  0  0  0  0999 V2000
   36.4700   27.7540   33.3700 C   0  0  0  0  0  0  0  0  0  0  0  0
   36.2020   28.6720   34.3870 C   0  0  0  0  0  0  0  0  0  0  0  0
   35.1970   29.6220   34.1200 C   0  0  0  0  0  0  0  0  0  0  0  0
   34.5380   29.6000   32.8960 N   0  0  0  0  0  0  0  0  0  0  0  0
   34.8480   28.6730   31.9400 C   0  0  0  0  0  0  0  0  0  0  0  0
   35.7970   27.7730   32.1840 N   0  0  0  0  0  0  0  0  0  0  0  0
   34.8450   30.6050   35.0780 N   0  0  0  0  0  0  0  0  0  0  0  0
   35.7550   31.5070   35.5560 C   0  0  0  0  0  0  0  0  0  0  0  0
   35.3900   32.4500   36.4830 C   0  0  0  0  0  0  0  0  0  0  0  0
   34.1030   32.4630   36.9140 C   0  0  0  0  0  0  0  0  0  0  0  0
   33.7380   33.3240   37.7710 O   0  0  0  0  0  0  0  0  0  0  0  0
   33.2000   31.5780   36.4480 N   0  0  0  0  0  0  0  0  0  0  0  0
   33.5990   30.6670   35.5370 C   0  0  0  0  0  0  0  0  0  0  0  0
   32.6780   29.8790   35.1620 O   0  0  0  0  0  0  0  0  0  0  0  0
   36.6610   28.7470   35.3420 H   0  0  0  0  0  0  0  0  0  0  0  0
   34.2870   28.7320   31.0220 H   0  0  0  0  0  0  0  0  0  0  0  0
   36.7740   31.4690   35.1920 H   0  0  0  0  0  0  0  0  0  0  0  0
   36.0660   33.1690   36.8810 H   0  0  0  0  0  0  0  0  0  0  0  0
   32.2090   31.6230   36.8100 H   0  0  0  0  0  0  0  0  0  0  0  0
   37.5350   26.7470   33.6730 C   0  0  2  0  0  0  0  0  0  0  0  0
   37.7040   26.6570   35.1860 C   0  0  0  0  0  0  0  0  0  0  0  0
   39.0010   27.1970   35.6710 C   0  0  0  0  0  0  0  0  0  0  0  0
   40.2050   26.6530   34.9680 C   0  0  0  0  0  0  0  0  0  0  0  0
   39.9960   26.4280   33.5100 C   0  0  0  0  0  0  0  0  0  0  0  0
   38.7710   27.1600   32.9790 C   0  0  1  0  0  0  0  0  0  0  0  0
   37.1550   25.7950   33.2670 H   0  0  0  0  0  0  0  0  0  0  0  0
   37.6760   25.5800   35.4460 H   0  0  0  0  0  0  0  0  0  0  0  0
   36.8960   27.1880   35.7300 H   0  0  0  0  0  0  0  0  0  0  0  0
   39.0600   27.0350   36.7450 H   0  0  0  0  0  0  0  0  0  0  0  0
   38.9840   28.3090   35.4810 H   0  0  0  0  0  0  0  0  0  0  0  0
   41.0330   27.3880   35.0900 H   0  0  0  0  0  0  0  0  0  0  0  0
   40.5440   25.7490   35.5150 H   0  0  0  0  0  0  0  0  0  0  0  0
   39.7290   25.3400   33.3960 H   0  0  0  0  0  0  0  0  0  0  0  0
   40.8880   26.6640   32.9240 H   0  0  0  0  0  0  0  0  0  0  0  0
   38.9510   28.2340   33.1690 H   0  0  0  0  0  0  0  0  0  0  0  0
   38.6500   26.9320   31.4990 C   0  0  0  0  0  3  0  0  0  0  0  0
   38.9510   28.1240   30.5860 C   0  0  0  0  0  2  0  0  0  0  0  0
   39.8900   26.9240   30.6530 C   0  0  0  0  0  2  0  0  0  0  0  0
  1 20  1  0  0  0  0
  1  2  1  0  0  0  0
  2 15  1  0  0  0  0
  3  2  2  0  0  0  0
  3  7  1  0  0  0  0
  4  3  1  0  0  0  0
  5  6  1  0  0  0  0
  5  4  2  0  0  0  0
  6  1  2  0  0  0  0
  7 13  1  0  0  0  0
  7  8  1  0  0  0  0
  8  9  2  0  0  0  0
  9 18  1  0  0  0  0
  9 10  1  0  0  0  0
 10 11  2  0  0  0  0
 12 19  1  0  0  0  0
 12 10  1  0  0  0  0
 13 12  1  0  0  0  0
 14 13  2  0  0  0  0
 16  5  1  0  0  0  0
 17  8  1  0  0  0  0
 20 26  1  6  0  0  0
 20 21  1  0  0  0  0
 21 27  1  0  0  0  0
 21 22  1  0  0  0  0
 21 28  1  0  0  0  0
 22 29  1  0  0  0  0
 23 31  1  0  0  0  0
 23 32  1  0  0  0  0
 23 22  1  0  0  0  0
 24 23  1  0  0  0  0
 25 35  1  1  0  0  0
 25 24  1  0  0  0  0
 25 20  1  0  0  0  0
 30 22  1  0  0  0  0
 33 24  1  0  0  0  0
 34 24  1  0  0  0  0
 36 25  1  0  0  0  0
 37 38  1  0  0  0  0
 37 36  1  0  0  0  0
 38 36  1  0  0  0  0
M  END
>  <minimizedAffinity>
-6.01203394

$$$$

 OpenBabel03272506213D

 38 41  0  0  1  0  0  0  0  0999 V2000
   38.6300   22.3930   34.2940 C   0  0  0  0  0  0  0  0  0  0  0  0
   38.1490   23.6500   33.9250 C   0  0  0  0  0  0  0  0  0  0  0  0
   38.0750   23.9080   32.5430 C   0  0  0  0  0  0  0  0  0  0  0  0
   38.4710   22.9300   31.6390 N   0  0  0  0  0  0  0  0  0  0  0  0
   38.9350   21.7160   32.0650 C   0  0  0  0  0  0  0  0  0  0  0  0
   39.0080   21.4640   33.3690 N   0  0  0  0  0  0  0  0  0  0  0  0
   37.6070   25.1540   32.0550 N   0  0  0  0  0  0  0  0  0  0  0  0
   38.2180   26.3340   32.3760 C   0  0  0  0  0  0  0  0  0  0  0  0
   37.7460   27.5260   31.8900 C   0  0  0  0  0  0  0  0  0  0  0  0
   36.6560   27.5040   31.0830 C   0  0  0  0  0  0  0  0  0  0  0  0
   36.1970   28.5920   30.6200 O   0  0  0  0  0  0  0  0  0  0  0  0
   36.0470   26.3460   30.7610 N   0  0  0  0  0  0  0  0  0  0  0  0
   36.5430   25.1950   31.2590 C   0  0  0  0  0  0  0  0  0  0  0  0
   35.9010   24.1620   30.8990 O   0  0  0  0  0  0  0  0  0  0  0  0
   37.8290   24.4420   34.5570 H   0  0  0  0  0  0  0  0  0  0  0  0
   39.2200   21.0200   31.2940 H   0  0  0  0  0  0  0  0  0  0  0  0
   39.0860   26.3160   33.0240 H   0  0  0  0  0  0  0  0  0  0  0  0
   38.1920   28.4660   32.1170 H   0  0  0  0  0  0  0  0  0  0  0  0
   35.2010   26.3740   30.1290 H   0  0  0  0  0  0  0  0  0  0  0  0
   38.6940   22.1310   35.7670 C   0  0  2  0  0  0  0  0  0  0  0  0
   37.3670   22.5480   36.3920 C   0  0  0  0  0  0  0  0  0  0  0  0
   37.4750   23.7430   37.2690 C   0  0  0  0  0  0  0  0  0  0  0  0
   38.5510   23.6620   38.3060 C   0  0  0  0  0  0  0  0  0  0  0  0
   39.7870   22.9780   37.8340 C   0  0  0  0  0  0  0  0  0  0  0  0
   39.8480   22.8710   36.3160 C   0  0  1  0  0  0  0  0  0  0  0  0
   38.8430   21.0440   35.8600 H   0  0  0  0  0  0  0  0  0  0  0  0
   37.0350   21.7020   37.0270 H   0  0  0  0  0  0  0  0  0  0  0  0
   36.5920   22.7620   35.6290 H   0  0  0  0  0  0  0  0  0  0  0  0
   36.5010   23.9280   37.7190 H   0  0  0  0  0  0  0  0  0  0  0  0
   37.7280   24.6180   36.6010 H   0  0  0  0  0  0  0  0  0  0  0  0
   38.8210   24.7020   38.6000 H   0  0  0  0  0  0  0  0  0  0  0  0
   38.1130   23.2120   39.2220 H   0  0  0  0  0  0  0  0  0  0  0  0
   39.7020   21.9080   38.1750 H   0  0  0  0  0  0  0  0  0  0  0  0
   40.6920   23.4360   38.2390 H   0  0  0  0  0  0  0  0  0  0  0  0
   39.8280   23.9080   35.9360 H   0  0  0  0  0  0  0  0  0  0  0  0
   41.1390   22.2190   35.9080 C   0  0  0  0  0  3  0  0  0  0  0  0
   42.1720   23.1050   35.2060 C   0  0  0  0  0  2  0  0  0  0  0  0
   42.4060   22.5890   36.6220 C   0  0  0  0  0  2  0  0  0  0  0  0
  1 20  1  0  0  0  0
  2  1  1  0  0  0  0
  2 15  1  0  0  0  0
  3  2  2  0  0  0  0
  4  5  2  0  0  0  0
  4  3  1  0  0  0  0
  5  6  1  0  0  0  0
  6  1  2  0  0  0  0
  7  8  1  0  0  0  0
  7  3  1  0  0  0  0
  8 17  1  0  0  0  0
  9 18  1  0  0  0  0
  9  8  2  0  0  0  0
 10  9  1  0  0  0  0
 11 10  2  0  0  0  0
 12 10  1  0  0  0  0
 12 13  1  0  0  0  0
 13  7  1  0  0  0  0
 14 13  2  0  0  0  0
 16  5  1  0  0  0  0
 19 12  1  0  0  0  0
 20 26  1  1  0  0  0
 20 25  1  0  0  0  0
 20 21  1  0  0  0  0
 21 27  1  0  0  0  0
 21 22  1  0  0  0  0
 22 29  1  0  0  0  0
 22 23  1  0  0  0  0
 23 31  1  0  0  0  0
 23 32  1  0  0  0  0
 24 33  1  0  0  0  0
 24 34  1  0  0  0  0
 24 23  1  0  0  0  0
 25 35  1  6  0  0  0
 25 24  1  0  0  0  0
 28 21  1  0  0  0  0
 30 22  1  0  0  0  0
 36 25  1  0  0  0  0
 36 38  1  0  0  0  0
 37 36  1  0  0  0  0
 37 38  1  0  0  0  0
M  END
>  <minimizedAffinity>
-5.82979584

$$$$

 OpenBabel03272506213D

 38 41  0  0  1  0  0  0  0  0999 V2000
   35.3400   29.5090   33.1950 C   0  0  0  0  0  0  0  0  0  0  0  0
   35.4470   30.5000   34.1720 C   0  0  0  0  0  0  0  0  0  0  0  0
   34.2360   31.0440   34.6420 C   0  0  0  0  0  0  0  0  0  0  0  0
   33.0300   30.5830   34.1290 N   0  0  0  0  0  0  0  0  0  0  0  0
   32.9920   29.6080   33.1720 C   0  0  0  0  0  0  0  0  0  0  0  0
   34.1310   29.0880   32.7220 N   0  0  0  0  0  0  0  0  0  0  0  0
   34.2250   32.0610   35.6300 N   0  0  0  0  0  0  0  0  0  0  0  0
   34.8450   33.2640   35.4370 C   0  0  0  0  0  0  0  0  0  0  0  0
   34.8200   34.2320   36.4080 C   0  0  0  0  0  0  0  0  0  0  0  0
   34.1650   33.9640   37.5660 C   0  0  0  0  0  0  0  0  0  0  0  0
   34.1260   34.8410   38.4820 O   0  0  0  0  0  0  0  0  0  0  0  0
   33.5520   32.7810   37.7650 N   0  0  0  0  0  0  0  0  0  0  0  0
   33.6000   31.8550   36.7850 C   0  0  0  0  0  0  0  0  0  0  0  0
   32.9950   30.7770   37.0680 O   0  0  0  0  0  0  0  0  0  0  0  0
   36.3290   30.8980   34.6090 H   0  0  0  0  0  0  0  0  0  0  0  0
   32.0140   29.3130   32.8320 H   0  0  0  0  0  0  0  0  0  0  0  0
   35.3590   33.4460   34.5010 H   0  0  0  0  0  0  0  0  0  0  0  0
   35.2890   35.1820   36.2980 H   0  0  0  0  0  0  0  0  0  0  0  0
   33.0540   32.6130   38.6810 H   0  0  0  0  0  0  0  0  0  0  0  0
   36.6350   28.9340   32.7120 C   0  0  2  0  0  0  0  0  0  0  0  0
   36.6460   28.9750   31.1870 C   0  0  0  0  0  0  0  0  0  0  0  0
   36.5750   27.6310   30.5580 C   0  0  0  0  0  0  0  0  0  0  0  0
   37.5790   26.6470   31.0720 C   0  0  0  0  0  0  0  0  0  0  0  0
   37.8400   26.7660   32.5330 C   0  0  0  0  0  0  0  0  0  0  0  0
   36.7630   27.5660   33.2520 C   0  0  1  0  0  0  0  0  0  0  0  0
   37.4150   29.5940   33.1240 H   0  0  0  0  0  0  0  0  0  0  0  0
   37.6120   29.4290   30.8880 H   0  0  0  0  0  0  0  0  0  0  0  0
   35.8120   29.5800   30.7780 H   0  0  0  0  0  0  0  0  0  0  0  0
   36.6520   27.7520   29.4790 H   0  0  0  0  0  0  0  0  0  0  0  0
   35.5540   27.2110   30.7940 H   0  0  0  0  0  0  0  0  0  0  0  0
   37.1880   25.6230   30.8710 H   0  0  0  0  0  0  0  0  0  0  0  0
   38.4930   26.7300   30.4460 H   0  0  0  0  0  0  0  0  0  0  0  0
   38.7620   27.4050   32.6360 H   0  0  0  0  0  0  0  0  0  0  0  0
   37.9980   25.7930   33.0050 H   0  0  0  0  0  0  0  0  0  0  0  0
   35.8160   27.0210   33.0860 H   0  0  0  0  0  0  0  0  0  0  0  0
   37.0600   27.6030   34.7240 C   0  0  0  0  0  3  0  0  0  0  0  0
   37.3630   26.2660   35.4060 C   0  0  0  0  0  2  0  0  0  0  0  0
   38.4540   27.3130   35.2010 C   0  0  0  0  0  2  0  0  0  0  0  0
  1  2  1  0  0  0  0
  2 15  1  0  0  0  0
  2  3  2  0  0  0  0
  3  7  1  0  0  0  0
  4  3  1  0  0  0  0
  5  4  2  0  0  0  0
  6  5  1  0  0  0  0
  6  1  2  0  0  0  0
  7 13  1  0  0  0  0
  8  7  1  0  0  0  0
  8  9  2  0  0  0  0
  9 10  1  0  0  0  0
 10 12  1  0  0  0  0
 10 11  2  0  0  0  0
 12 19  1  0  0  0  0
 13 14  2  0  0  0  0
 13 12  1  0  0  0  0
 16  5  1  0  0  0  0
 17  8  1  0  0  0  0
 18  9  1  0  0  0  0
 20 26  1  1  0  0  0
 20  1  1  0  0  0  0
 20 25  1  0  0  0  0
 21 20  1  0  0  0  0
 22 30  1  0  0  0  0
 22 23  1  0  0  0  0
 22 21  1  0  0  0  0
 23 24  1  0  0  0  0
 24 33  1  0  0  0  0
 24 34  1  0  0  0  0
 24 25  1  0  0  0  0
 25 35  1  6  0  0  0
 25 36  1  0  0  0  0
 27 21  1  0  0  0  0
 28 21  1  0  0  0  0
 29 22  1  0  0  0  0
 31 23  1  0  0  0  0
 32 23  1  0  0  0  0
 36 38  1  0  0  0  0
 36 37  1  0  0  0  0
 38 37  1  0  0  0  0
M  END
>  <minimizedAffinity>
-5.72884274

$$$$

 OpenBabel03272506213D

 38 41  0  0  1  0  0  0  0  0999 V2000
   36.9180   28.0140   32.3030 C   0  0  0  0  0  0  0  0  0  0  0  0
   36.4260   28.6070   33.4670 C   0  0  0  0  0  0  0  0  0  0  0  0
   35.6060   29.7380   33.2920 C   0  0  0  0  0  0  0  0  0  0  0  0
   35.3320   30.1960   32.0090 N   0  0  0  0  0  0  0  0  0  0  0  0
   35.8450   29.5700   30.9070 C   0  0  0  0  0  0  0  0  0  0  0  0
   36.6220   28.5010   31.0640 N   0  0  0  0  0  0  0  0  0  0  0  0
   35.0550   30.4220   34.4040 N   0  0  0  0  0  0  0  0  0  0  0  0
   35.8430   30.9800   35.3730 C   0  0  0  0  0  0  0  0  0  0  0  0
   35.2860   31.6380   36.4400 C   0  0  0  0  0  0  0  0  0  0  0  0
   33.9340   31.7210   36.5080 C   0  0  0  0  0  0  0  0  0  0  0  0
   33.3910   32.3230   37.4840 O   0  0  0  0  0  0  0  0  0  0  0  0
   33.1500   31.1740   35.5590 N   0  0  0  0  0  0  0  0  0  0  0  0
   33.7370   30.5360   34.5250 C   0  0  0  0  0  0  0  0  0  0  0  0
   32.9150   30.0560   33.6860 O   0  0  0  0  0  0  0  0  0  0  0  0
   36.5910   28.3120   34.4740 H   0  0  0  0  0  0  0  0  0  0  0  0
   35.5810   29.9950   29.9530 H   0  0  0  0  0  0  0  0  0  0  0  0
   36.9190   30.8950   35.2880 H   0  0  0  0  0  0  0  0  0  0  0  0
   35.8630   32.0850   37.2150 H   0  0  0  0  0  0  0  0  0  0  0  0
   32.1020   31.2620   35.6510 H   0  0  0  0  0  0  0  0  0  0  0  0
   37.7810   26.8080   32.5060 C   0  0  2  0  0  0  0  0  0  0  0  0
   39.2420   27.2290   32.3810 C   0  0  0  0  0  0  0  0  0  0  0  0
   39.9130   26.6890   31.1700 C   0  0  0  0  0  0  0  0  0  0  0  0
   39.7660   25.2110   30.9820 C   0  0  0  0  0  0  0  0  0  0  0  0
   38.4320   24.6860   31.3840 C   0  0  0  0  0  0  0  0  0  0  0  0
   37.3890   25.7880   31.5140 C   0  0  1  0  0  0  0  0  0  0  0  0
   37.5620   26.4650   33.5300 H   0  0  0  0  0  0  0  0  0  0  0  0
   39.7690   26.8140   33.2640 H   0  0  0  0  0  0  0  0  0  0  0  0
   39.3610   28.3310   32.3660 H   0  0  0  0  0  0  0  0  0  0  0  0
   40.9600   26.9850   31.1970 H   0  0  0  0  0  0  0  0  0  0  0  0
   39.4280   27.1830   30.2790 H   0  0  0  0  0  0  0  0  0  0  0  0
   39.9160   24.9880   29.9010 H   0  0  0  0  0  0  0  0  0  0  0  0
   40.6150   24.7130   31.4950 H   0  0  0  0  0  0  0  0  0  0  0  0
   38.5500   24.3030   32.4370 H   0  0  0  0  0  0  0  0  0  0  0  0
   38.0880   23.8850   30.7250 H   0  0  0  0  0  0  0  0  0  0  0  0
   37.3190   26.2600   30.5170 H   0  0  0  0  0  0  0  0  0  0  0  0
   36.0600   25.1850   31.8690 C   0  0  0  0  0  3  0  0  0  0  0  0
   34.9590   25.2540   30.8080 C   0  0  0  0  0  2  0  0  0  0  0  0
   35.6140   23.9280   31.1800 C   0  0  0  0  0  2  0  0  0  0  0  0
  1 20  1  0  0  0  0
  1  2  1  0  0  0  0
  2 15  1  0  0  0  0
  3  2  2  0  0  0  0
  3  7  1  0  0  0  0
  4  3  1  0  0  0  0
  5  6  1  0  0  0  0
  5  4  2  0  0  0  0
  6  1  2  0  0  0  0
  7 13  1  0  0  0  0
  7  8  1  0  0  0  0
  8  9  2  0  0  0  0
  9 10  1  0  0  0  0
  9 18  1  0  0  0  0
 10 11  2  0  0  0  0
 12 19  1  0  0  0  0
 12 10  1  0  0  0  0
 13 12  1  0  0  0  0
 14 13  2  0  0  0  0
 16  5  1  0  0  0  0
 17  8  1  0  0  0  0
 20 26  1  1  0  0  0
 21 20  1  0  0  0  0
 21 27  1  0  0  0  0
 22 29  1  0  0  0  0
 22 21  1  0  0  0  0
 23 22  1  0  0  0  0
 23 24  1  0  0  0  0
 23 32  1  0  0  0  0
 24 25  1  0  0  0  0
 24 33  1  0  0  0  0
 25 35  1  6  0  0  0
 25 36  1  0  0  0  0
 25 20  1  0  0  0  0
 28 21  1  0  0  0  0
 30 22  1  0  0  0  0
 31 23  1  0  0  0  0
 34 24  1  0  0  0  0
 37 38  1  0  0  0  0
 37 36  1  0  0  0  0
 38 36  1  0  0  0  0
M  END
>  <minimizedAffinity>
-5.66159821

$$$$

 OpenBabel03272506213D

 38 41  0  0  1  0  0  0  0  0999 V2000
   38.7160   26.0270   33.3840 C   0  0  0  0  0  0  0  0  0  0  0  0
   39.4950   24.9860   33.8920 C   0  0  0  0  0  0  0  0  0  0  0  0
   39.3800   24.7380   35.2730 C   0  0  0  0  0  0  0  0  0  0  0  0
   38.5220   25.5150   36.0420 N   0  0  0  0  0  0  0  0  0  0  0  0
   37.7850   26.5220   35.4840 C   0  0  0  0  0  0  0  0  0  0  0  0
   37.8880   26.7630   34.1790 N   0  0  0  0  0  0  0  0  0  0  0  0
   40.1280   23.7080   35.8970 N   0  0  0  0  0  0  0  0  0  0  0  0
   41.4950   23.6920   35.8740 C   0  0  0  0  0  0  0  0  0  0  0  0
   42.1970   22.6840   36.4860 C   0  0  0  0  0  0  0  0  0  0  0  0
   41.4990   21.7050   37.1140 C   0  0  0  0  0  0  0  0  0  0  0  0
   42.1220   20.7600   37.6870 O   0  0  0  0  0  0  0  0  0  0  0  0
   40.1520   21.7130   37.1410 N   0  0  0  0  0  0  0  0  0  0  0  0
   39.4990   22.7220   36.5280 C   0  0  0  0  0  0  0  0  0  0  0  0
   38.2360   22.6390   36.6090 O   0  0  0  0  0  0  0  0  0  0  0  0
   40.1670   24.3530   33.3670 H   0  0  0  0  0  0  0  0  0  0  0  0
   37.1470   27.0720   36.1550 H   0  0  0  0  0  0  0  0  0  0  0  0
   42.0220   24.4890   35.3640 H   0  0  0  0  0  0  0  0  0  0  0  0
   43.2600   22.6340   36.4910 H   0  0  0  0  0  0  0  0  0  0  0  0
   39.6480   20.9310   37.6410 H   0  0  0  0  0  0  0  0  0  0  0  0
   38.8440   26.2720   31.9130 C   0  0  2  0  0  0  0  0  0  0  0  0
   40.2900   26.0170   31.5010 C   0  0  0  0  0  0  0  0  0  0  0  0
   41.0190   27.2480   31.1010 C   0  0  0  0  0  0  0  0  0  0  0  0
   40.3150   28.0860   30.0800 C   0  0  0  0  0  0  0  0  0  0  0  0
   38.8360   28.1270   30.2550 C   0  0  0  0  0  0  0  0  0  0  0  0
   38.4020   27.6530   31.6360 C   0  0  1  0  0  0  0  0  0  0  0  0
   38.1700   25.5410   31.4390 H   0  0  0  0  0  0  0  0  0  0  0  0
   40.2550   25.3500   30.6160 H   0  0  0  0  0  0  0  0  0  0  0  0
   40.8750   25.5280   32.3070 H   0  0  0  0  0  0  0  0  0  0  0  0
   42.0150   26.9640   30.7650 H   0  0  0  0  0  0  0  0  0  0  0  0
   41.1260   27.8820   32.0290 H   0  0  0  0  0  0  0  0  0  0  0  0
   40.7030   29.1270   30.1670 H   0  0  0  0  0  0  0  0  0  0  0  0
   40.6370   27.7450   29.0740 H   0  0  0  0  0  0  0  0  0  0  0  0
   38.4170   27.3450   29.5600 H   0  0  0  0  0  0  0  0  0  0  0  0
   38.4190   29.1080   30.0200 H   0  0  0  0  0  0  0  0  0  0  0  0
   38.8820   28.3390   32.3580 H   0  0  0  0  0  0  0  0  0  0  0  0
   36.9090   27.7680   31.7620 C   0  0  0  0  0  3  0  0  0  0  0  0
   36.3590   29.0800   32.3270 C   0  0  0  0  0  2  0  0  0  0  0  0
   36.1660   28.7100   30.8600 C   0  0  0  0  0  2  0  0  0  0  0  0
  1  2  2  0  0  0  0
  1  6  1  0  0  0  0
  2  3  1  0  0  0  0
  3  7  1  0  0  0  0
  3  4  2  0  0  0  0
  5  4  1  0  0  0  0
  5 16  1  0  0  0  0
  6  5  2  0  0  0  0
  7 13  1  0  0  0  0
  8  7  1  0  0  0  0
  8  9  2  0  0  0  0
  9 18  1  0  0  0  0
  9 10  1  0  0  0  0
 10 12  1  0  0  0  0
 10 11  2  0  0  0  0
 12 19  1  0  0  0  0
 13 14  2  0  0  0  0
 13 12  1  0  0  0  0
 15  2  1  0  0  0  0
 17  8  1  0  0  0  0
 20 26  1  6  0  0  0
 20  1  1  0  0  0  0
 21 20  1  0  0  0  0
 21 28  1  0  0  0  0
 22 21  1  0  0  0  0
 22 30  1  0  0  0  0
 23 31  1  0  0  0  0
 23 24  1  0  0  0  0
 23 22  1  0  0  0  0
 24 25  1  0  0  0  0
 25 36  1  0  0  0  0
 25 20  1  0  0  0  0
 25 35  1  1  0  0  0
 27 21  1  0  0  0  0
 29 22  1  0  0  0  0
 32 23  1  0  0  0  0
 33 24  1  0  0  0  0
 34 24  1  0  0  0  0
 36 37  1  0  0  0  0
 38 36  1  0  0  0  0
 38 37  1  0  0  0  0
M  END
>  <minimizedAffinity>
-5.62141991

$$$$

 OpenBabel03272506213D

 38 41  0  0  1  0  0  0  0  0999 V2000
   34.8270   30.8140   35.0790 C   0  0  0  0  0  0  0  0  0  0  0  0
   35.8260   29.8510   34.9240 C   0  0  0  0  0  0  0  0  0  0  0  0
   35.7000   28.9980   33.8110 C   0  0  0  0  0  0  0  0  0  0  0  0
   34.6230   29.1490   32.9460 N   0  0  0  0  0  0  0  0  0  0  0  0
   33.6770   30.1130   33.1530 C   0  0  0  0  0  0  0  0  0  0  0  0
   33.7870   30.9240   34.2030 N   0  0  0  0  0  0  0  0  0  0  0  0
   36.6540   27.9800   33.5580 N   0  0  0  0  0  0  0  0  0  0  0  0
   36.9070   26.9840   34.4600 C   0  0  0  0  0  0  0  0  0  0  0  0
   37.8340   26.0100   34.1920 C   0  0  0  0  0  0  0  0  0  0  0  0
   38.4950   26.0620   33.0080 C   0  0  0  0  0  0  0  0  0  0  0  0
   39.3590   25.1740   32.7340 O   0  0  0  0  0  0  0  0  0  0  0  0
   38.2530   27.0390   32.1130 N   0  0  0  0  0  0  0  0  0  0  0  0
   37.3330   27.9780   32.4150 C   0  0  0  0  0  0  0  0  0  0  0  0
   37.1780   28.8530   31.5100 O   0  0  0  0  0  0  0  0  0  0  0  0
   36.6730   29.6800   35.5400 H   0  0  0  0  0  0  0  0  0  0  0  0
   32.8770   30.1570   32.4330 H   0  0  0  0  0  0  0  0  0  0  0  0
   36.3620   26.9730   35.3960 H   0  0  0  0  0  0  0  0  0  0  0  0
   38.0610   25.2180   34.8670 H   0  0  0  0  0  0  0  0  0  0  0  0
   38.7900   27.0410   31.2040 H   0  0  0  0  0  0  0  0  0  0  0  0
   34.9790   31.7190   36.2610 C   0  0  2  0  0  0  0  0  0  0  0  0
   33.6950   31.6670   37.0820 C   0  0  0  0  0  0  0  0  0  0  0  0
   32.9170   32.9320   37.0460 C   0  0  0  0  0  0  0  0  0  0  0  0
   33.7070   34.1600   37.3720 C   0  0  0  0  0  0  0  0  0  0  0  0
   35.0990   34.1350   36.8440 C   0  0  0  0  0  0  0  0  0  0  0  0
   35.2920   33.0750   35.7670 C   0  0  1  0  0  0  0  0  0  0  0  0
   35.8240   31.3050   36.8340 H   0  0  0  0  0  0  0  0  0  0  0  0
   33.9970   31.4940   38.1350 H   0  0  0  0  0  0  0  0  0  0  0  0
   33.0200   30.8500   36.7540 H   0  0  0  0  0  0  0  0  0  0  0  0
   32.0570   32.8260   37.7050 H   0  0  0  0  0  0  0  0  0  0  0  0
   32.5390   33.0550   35.9900 H   0  0  0  0  0  0  0  0  0  0  0  0
   33.1810   35.0340   36.9220 H   0  0  0  0  0  0  0  0  0  0  0  0
   33.6480   34.3270   38.4680 H   0  0  0  0  0  0  0  0  0  0  0  0
   35.7490   33.7760   37.6910 H   0  0  0  0  0  0  0  0  0  0  0  0
   35.4290   35.1180   36.5010 H   0  0  0  0  0  0  0  0  0  0  0  0
   34.5890   33.3350   34.9540 H   0  0  0  0  0  0  0  0  0  0  0  0
   36.6990   33.1380   35.2440 C   0  0  0  0  0  3  0  0  0  0  0  0
   36.8840   33.6290   33.8060 C   0  0  0  0  0  2  0  0  0  0  0  0
   37.3310   34.4760   34.9930 C   0  0  0  0  0  2  0  0  0  0  0  0
  1 20  1  0  0  0  0
  2  1  1  0  0  0  0
  2 15  1  0  0  0  0
  3  2  2  0  0  0  0
  4  5  2  0  0  0  0
  4  3  1  0  0  0  0
  5  6  1  0  0  0  0
  6  1  2  0  0  0  0
  7  3  1  0  0  0  0
  7  8  1  0  0  0  0
  8 17  1  0  0  0  0
  9  8  2  0  0  0  0
  9 18  1  0  0  0  0
 10  9  1  0  0  0  0
 11 10  2  0  0  0  0
 12 13  1  0  0  0  0
 12 10  1  0  0  0  0
 13  7  1  0  0  0  0
 14 13  2  0  0  0  0
 16  5  1  0  0  0  0
 19 12  1  0  0  0  0
 20 26  1  1  0  0  0
 20 21  1  0  0  0  0
 21 27  1  0  0  0  0
 22 21  1  0  0  0  0
 22 23  1  0  0  0  0
 22 29  1  0  0  0  0
 23 32  1  0  0  0  0
 24 23  1  0  0  0  0
 24 33  1  0  0  0  0
 25 35  1  6  0  0  0
 25 20  1  0  0  0  0
 25 24  1  0  0  0  0
 28 21  1  0  0  0  0
 30 22  1  0  0  0  0
 31 23  1  0  0  0  0
 34 24  1  0  0  0  0
 36 25  1  0  0  0  0
 37 38  1  0  0  0  0
 37 36  1  0  0  0  0
 38 36  1  0  0  0  0
M  END
>  <minimizedAffinity>
-5.53680658

$$$$

 OpenBabel03272506213D

 38 41  0  0  1  0  0  0  0  0999 V2000
   35.2400   29.8370   33.4250 C   0  0  0  0  0  0  0  0  0  0  0  0
   36.0920   29.0010   34.1500 C   0  0  0  0  0  0  0  0  0  0  0  0
   36.6260   27.9010   33.4530 C   0  0  0  0  0  0  0  0  0  0  0  0
   36.2920   27.7040   32.1180 N   0  0  0  0  0  0  0  0  0  0  0  0
   35.4510   28.5600   31.4640 C   0  0  0  0  0  0  0  0  0  0  0  0
   34.9420   29.6030   32.1150 N   0  0  0  0  0  0  0  0  0  0  0  0
   37.4980   26.9830   34.0910 N   0  0  0  0  0  0  0  0  0  0  0  0
   37.1170   26.2690   35.1930 C   0  0  0  0  0  0  0  0  0  0  0  0
   37.9790   25.3870   35.7930 C   0  0  0  0  0  0  0  0  0  0  0  0
   39.2200   25.2420   35.2640 C   0  0  0  0  0  0  0  0  0  0  0  0
   40.0380   24.4340   35.7990 O   0  0  0  0  0  0  0  0  0  0  0  0
   39.6040   25.9410   34.1790 N   0  0  0  0  0  0  0  0  0  0  0  0
   38.7260   26.7990   33.6190 C   0  0  0  0  0  0  0  0  0  0  0  0
   39.1820   27.4090   32.6040 O   0  0  0  0  0  0  0  0  0  0  0  0
   36.3910   29.0900   35.1650 H   0  0  0  0  0  0  0  0  0  0  0  0
   35.2480   28.3300   30.4320 H   0  0  0  0  0  0  0  0  0  0  0  0
   36.1190   26.4090   35.5910 H   0  0  0  0  0  0  0  0  0  0  0  0
   37.7220   24.8120   36.6520 H   0  0  0  0  0  0  0  0  0  0  0  0
   40.5790   25.7990   33.8000 H   0  0  0  0  0  0  0  0  0  0  0  0
   34.6880   31.0070   34.1780 C   0  0  2  0  0  0  0  0  0  0  0  0
   35.8400   31.9360   34.5460 C   0  0  0  0  0  0  0  0  0  0  0  0
   36.1260   31.9760   36.0040 C   0  0  0  0  0  0  0  0  0  0  0  0
   34.9330   32.2390   36.8670 C   0  0  0  0  0  0  0  0  0  0  0  0
   33.6850   31.5910   36.3780 C   0  0  0  0  0  0  0  0  0  0  0  0
   33.9610   30.4960   35.3570 C   0  0  1  0  0  0  0  0  0  0  0  0
   33.9990   31.5020   33.4750 H   0  0  0  0  0  0  0  0  0  0  0  0
   35.5350   32.9580   34.2410 H   0  0  0  0  0  0  0  0  0  0  0  0
   36.7810   31.6630   34.0270 H   0  0  0  0  0  0  0  0  0  0  0  0
   36.9140   32.7070   36.1790 H   0  0  0  0  0  0  0  0  0  0  0  0
   36.5200   30.9570   36.2880 H   0  0  0  0  0  0  0  0  0  0  0  0
   35.1540   31.8410   37.8850 H   0  0  0  0  0  0  0  0  0  0  0  0
   34.8430   33.3370   37.0050 H   0  0  0  0  0  0  0  0  0  0  0  0
   33.1360   32.3770   35.7850 H   0  0  0  0  0  0  0  0  0  0  0  0
   33.0600   31.2270   37.1960 H   0  0  0  0  0  0  0  0  0  0  0  0
   34.5900   29.7480   35.8740 H   0  0  0  0  0  0  0  0  0  0  0  0
   32.6680   29.8520   34.9450 C   0  0  0  0  0  3  0  0  0  0  0  0
   32.2190   28.6230   35.7390 C   0  0  0  0  0  2  0  0  0  0  0  0
   31.4760   29.9500   35.8530 C   0  0  0  0  0  2  0  0  0  0  0  0
  1  2  1  0  0  0  0
  1 20  1  0  0  0  0
  2 15  1  0  0  0  0
  3  7  1  0  0  0  0
  3  2  2  0  0  0  0
  4  3  1  0  0  0  0
  5  6  1  0  0  0  0
  5  4  2  0  0  0  0
  6  1  2  0  0  0  0
  7  8  1  0  0  0  0
  8 17  1  0  0  0  0
  8  9  2  0  0  0  0
  9 18  1  0  0  0  0
 10  9  1  0  0  0  0
 10 11  2  0  0  0  0
 12 10  1  0  0  0  0
 13  7  1  0  0  0  0
 13 12  1  0  0  0  0
 14 13  2  0  0  0  0
 16  5  1  0  0  0  0
 19 12  1  0  0  0  0
 20 26  1  6  0  0  0
 20 21  1  0  0  0  0
 20 25  1  0  0  0  0
 21 22  1  0  0  0  0
 22 29  1  0  0  0  0
 22 30  1  0  0  0  0
 22 23  1  0  0  0  0
 23 32  1  0  0  0  0
 23 31  1  0  0  0  0
 24 23  1  0  0  0  0
 24 34  1  0  0  0  0
 25 35  1  1  0  0  0
 25 24  1  0  0  0  0
 27 21  1  0  0  0  0
 28 21  1  0  0  0  0
 33 24  1  0  0  0  0
 36 25  1  0  0  0  0
 36 37  1  0  0  0  0
 36 38  1  0  0  0  0
 37 38  1  0  0  0  0
M  END
>  <minimizedAffinity>
-5.52486038

$$$$

 OpenBabel03272506213D

 38 41  0  0  1  0  0  0  0  0999 V2000
   38.8930   24.8580   34.6910 C   0  0  0  0  0  0  0  0  0  0  0  0
   38.0080   23.9780   34.0640 C   0  0  0  0  0  0  0  0  0  0  0  0
   38.0400   22.6420   34.5080 C   0  0  0  0  0  0  0  0  0  0  0  0
   38.9220   22.2730   35.5170 N   0  0  0  0  0  0  0  0  0  0  0  0
   39.7640   23.1840   36.0900 C   0  0  0  0  0  0  0  0  0  0  0  0
   39.7410   24.4480   35.6770 N   0  0  0  0  0  0  0  0  0  0  0  0
   37.1890   21.6620   33.9390 N   0  0  0  0  0  0  0  0  0  0  0  0
   37.2230   21.3590   32.6060 C   0  0  0  0  0  0  0  0  0  0  0  0
   36.3890   20.4060   32.0790 C   0  0  0  0  0  0  0  0  0  0  0  0
   35.5290   19.7720   32.9160 C   0  0  0  0  0  0  0  0  0  0  0  0
   34.7460   18.8860   32.4560 O   0  0  0  0  0  0  0  0  0  0  0  0
   35.4890   20.0630   34.2300 N   0  0  0  0  0  0  0  0  0  0  0  0
   36.3250   21.0070   34.7090 C   0  0  0  0  0  0  0  0  0  0  0  0
   36.2110   21.2090   35.9560 O   0  0  0  0  0  0  0  0  0  0  0  0
   37.3100   24.1890   33.2930 H   0  0  0  0  0  0  0  0  0  0  0  0
   40.4130   22.8090   36.8640 H   0  0  0  0  0  0  0  0  0  0  0  0
   37.9200   21.8850   31.9650 H   0  0  0  0  0  0  0  0  0  0  0  0
   36.3830   20.1410   31.0480 H   0  0  0  0  0  0  0  0  0  0  0  0
   34.8040   19.5460   34.8460 H   0  0  0  0  0  0  0  0  0  0  0  0
   38.8410   26.2760   34.2140 C   0  0  2  0  0  0  0  0  0  0  0  0
   37.9380   27.0710   35.1520 C   0  0  0  0  0  0  0  0  0  0  0  0
   36.6650   27.5070   34.5210 C   0  0  0  0  0  0  0  0  0  0  0  0
   36.8270   28.2130   33.2120 C   0  0  0  0  0  0  0  0  0  0  0  0
   37.9200   27.6610   32.3650 C   0  0  0  0  0  0  0  0  0  0  0  0
   38.3620   26.2760   32.8170 C   0  0  1  0  0  0  0  0  0  0  0  0
   39.8790   26.6380   34.2740 H   0  0  0  0  0  0  0  0  0  0  0  0
   38.4980   27.9860   35.4330 H   0  0  0  0  0  0  0  0  0  0  0  0
   37.6800   26.5020   36.0680 H   0  0  0  0  0  0  0  0  0  0  0  0
   36.1180   28.1170   35.2380 H   0  0  0  0  0  0  0  0  0  0  0  0
   36.0630   26.5740   34.3190 H   0  0  0  0  0  0  0  0  0  0  0  0
   35.8690   28.1150   32.6510 H   0  0  0  0  0  0  0  0  0  0  0  0
   36.9260   29.3000   33.4170 H   0  0  0  0  0  0  0  0  0  0  0  0
   38.8230   28.3070   32.5580 H   0  0  0  0  0  0  0  0  0  0  0  0
   37.6650   27.6720   31.3030 H   0  0  0  0  0  0  0  0  0  0  0  0
   37.4680   25.6300   32.7410 H   0  0  0  0  0  0  0  0  0  0  0  0
   39.4270   25.7590   31.8920 C   0  0  0  0  0  3  0  0  0  0  0  0
   38.9660   24.8830   30.7240 C   0  0  0  0  0  2  0  0  0  0  0  0
   39.5050   26.2920   30.4910 C   0  0  0  0  0  2  0  0  0  0  0  0
  1  6  1  0  0  0  0
  2  3  1  0  0  0  0
  2  1  2  0  0  0  0
  3  4  2  0  0  0  0
  4  5  1  0  0  0  0
  5 16  1  0  0  0  0
  6  5  2  0  0  0  0
  7  3  1  0  0  0  0
  7 13  1  0  0  0  0
  8  7  1  0  0  0  0
  9  8  2  0  0  0  0
  9 10  1  0  0  0  0
 10 12  1  0  0  0  0
 11 10  2  0  0  0  0
 12 13  1  0  0  0  0
 12 19  1  0  0  0  0
 13 14  2  0  0  0  0
 15  2  1  0  0  0  0
 17  8  1  0  0  0  0
 18  9  1  0  0  0  0
 20 26  1  1  0  0  0
 20  1  1  0  0  0  0
 20 21  1  0  0  0  0
 21 27  1  0  0  0  0
 21 28  1  0  0  0  0
 22 21  1  0  0  0  0
 22 29  1  0  0  0  0
 23 32  1  0  0  0  0
 23 22  1  0  0  0  0
 24 33  1  0  0  0  0
 24 25  1  0  0  0  0
 24 23  1  0  0  0  0
 25 35  1  6  0  0  0
 25 20  1  0  0  0  0
 30 22  1  0  0  0  0
 31 23  1  0  0  0  0
 34 24  1  0  0  0  0
 36 25  1  0  0  0  0
 37 36  1  0  0  0  0
 38 37  1  0  0  0  0
 38 36  1  0  0  0  0
M  END
>  <minimizedAffinity>
-5.51277018

$$$$
