
 OpenBabel03262521383D

 22 24  0  0  0  0  0  0  0  0999 V2000
   40.2330   24.0950   34.6220 F   0  0  0  0  0  0  0  0  0  0  0  0
   39.7030   23.8930   35.8750 C   0  0  0  0  0  0  0  0  0  0  0  0
   38.6160   24.6090   36.3360 C   0  0  0  0  0  0  0  0  0  0  0  0
   38.1190   24.3670   37.6090 C   0  0  0  0  0  0  0  0  0  0  0  0
   38.7070   23.4080   38.4270 C   0  0  0  0  0  0  0  0  0  0  0  0
   39.7930   22.7200   37.9170 C   0  0  0  0  0  0  0  0  0  0  0  0
   40.3110   22.9260   36.6730 C   0  0  0  0  0  0  0  0  0  0  0  0
   37.2670   24.9480   37.9350 H   0  0  0  0  0  0  0  0  0  0  0  0
   38.2930   23.2450   39.4160 H   0  0  0  0  0  0  0  0  0  0  0  0
   40.2170   21.9910   38.5750 H   0  0  0  0  0  0  0  0  0  0  0  0
   38.0580   26.8950   35.9220 C   0  0  0  0  0  0  0  0  0  0  0  0
   38.0640   25.5810   35.4350 C   0  0  0  0  0  0  0  0  0  0  0  0
   37.5450   25.3620   34.1560 C   0  0  0  0  0  0  0  0  0  0  0  0
   37.0630   26.4380   33.4550 N   0  0  0  0  0  0  0  0  0  0  0  0
   37.0790   27.6810   33.9660 C   0  0  0  0  0  0  0  0  0  0  0  0
   37.5700   27.9120   35.1870 N   0  0  0  0  0  0  0  0  0  0  0  0
   38.4230   27.2280   36.8920 H   0  0  0  0  0  0  0  0  0  0  0  0
   37.5710   24.3510   33.8300 H   0  0  0  0  0  0  0  0  0  0  0  0
   36.6550   28.3790   33.2550 H   0  0  0  0  0  0  0  0  0  0  0  0
   41.4750   22.1810   36.1410 C   0  0  0  0  0  3  0  0  0  0  0  0
   42.3990   21.4070   36.9720 C   0  0  0  0  0  2  0  0  0  0  0  0
   42.8170   22.7570   36.5330 C   0  0  0  0  0  2  0  0  0  0  0  0
  1  2  1  0  0  0  0
  2  3  2  0  0  0  0
  2  7  1  0  0  0  0
  3  4  1  0  0  0  0
  4  8  1  0  0  0  0
  4  5  2  0  0  0  0
  5  9  1  0  0  0  0
  6  5  1  0  0  0  0
  6 10  1  0  0  0  0
  7  6  2  0  0  0  0
 11 17  1  0  0  0  0
 12 11  1  0  0  0  0
 12  3  1  0  0  0  0
 13 12  2  0  0  0  0
 14 15  2  0  0  0  0
 14 13  1  0  0  0  0
 15 16  1  0  0  0  0
 16 11  2  0  0  0  0
 18 13  1  0  0  0  0
 19 15  1  0  0  0  0
 20 22  1  0  0  0  0
 20  7  1  0  0  0  0
 20 21  1  0  0  0  0
 22 21  1  0  0  0  0
M  END
>  <minimizedAffinity>
-4.82896566

$$$$

 OpenBabel03262521383D

 22 24  0  0  0  0  0  0  0  0999 V2000
   37.9220   23.2710   34.7780 F   0  0  0  0  0  0  0  0  0  0  0  0
   38.1590   24.6090   34.9920 C   0  0  0  0  0  0  0  0  0  0  0  0
   38.4890   25.4690   33.9630 C   0  0  0  0  0  0  0  0  0  0  0  0
   38.7180   26.8110   34.2310 C   0  0  0  0  0  0  0  0  0  0  0  0
   38.6180   27.2990   35.5300 C   0  0  0  0  0  0  0  0  0  0  0  0
   38.2850   26.3960   36.5230 C   0  0  0  0  0  0  0  0  0  0  0  0
   38.0520   25.0710   36.3010 C   0  0  0  0  0  0  0  0  0  0  0  0
   38.9740   27.4540   33.4000 H   0  0  0  0  0  0  0  0  0  0  0  0
   38.8030   28.3540   35.7040 H   0  0  0  0  0  0  0  0  0  0  0  0
   38.2180   26.8080   37.5070 H   0  0  0  0  0  0  0  0  0  0  0  0
   37.3530   24.8090   31.9680 C   0  0  0  0  0  0  0  0  0  0  0  0
   38.5730   24.8920   32.6520 C   0  0  0  0  0  0  0  0  0  0  0  0
   39.7140   24.4150   32.0000 C   0  0  0  0  0  0  0  0  0  0  0  0
   39.5750   23.8960   30.7370 N   0  0  0  0  0  0  0  0  0  0  0  0
   38.3810   23.8390   30.1230 C   0  0  0  0  0  0  0  0  0  0  0  0
   37.2780   24.2900   30.7270 N   0  0  0  0  0  0  0  0  0  0  0  0
   36.3810   25.1350   32.3350 H   0  0  0  0  0  0  0  0  0  0  0  0
   40.6140   24.4980   32.5570 H   0  0  0  0  0  0  0  0  0  0  0  0
   38.4920   23.3980   29.1400 H   0  0  0  0  0  0  0  0  0  0  0  0
   37.6960   24.1150   37.3750 C   0  0  0  0  0  3  0  0  0  0  0  0
   38.0040   24.3260   38.7920 C   0  0  0  0  0  2  0  0  0  0  0  0
   38.8810   23.4230   38.0130 C   0  0  0  0  0  2  0  0  0  0  0  0
  1  2  1  0  0  0  0
  2  7  1  0  0  0  0
  3  4  1  0  0  0  0
  3  2  2  0  0  0  0
  4  5  2  0  0  0  0
  5  9  1  0  0  0  0
  5  6  1  0  0  0  0
  6 10  1  0  0  0  0
  7  6  2  0  0  0  0
  7 20  1  0  0  0  0
  8  4  1  0  0  0  0
 11 17  1  0  0  0  0
 11 12  1  0  0  0  0
 12  3  1  0  0  0  0
 13 18  1  0  0  0  0
 13 12  2  0  0  0  0
 14 13  1  0  0  0  0
 15 16  1  0  0  0  0
 15 14  2  0  0  0  0
 16 11  2  0  0  0  0
 19 15  1  0  0  0  0
 20 22  1  0  0  0  0
 20 21  1  0  0  0  0
 22 21  1  0  0  0  0
M  END
>  <minimizedAffinity>
-4.60435104

$$$$

 OpenBabel03262521383D

 22 24  0  0  0  0  0  0  0  0999 V2000
   38.1000   23.7030   33.2710 F   0  0  0  0  0  0  0  0  0  0  0  0
   37.8060   24.9690   33.7210 C   0  0  0  0  0  0  0  0  0  0  0  0
   38.2040   25.4160   34.9650 C   0  0  0  0  0  0  0  0  0  0  0  0
   37.8820   26.7030   35.3720 C   0  0  0  0  0  0  0  0  0  0  0  0
   37.1590   27.5490   34.5360 C   0  0  0  0  0  0  0  0  0  0  0  0
   36.7850   27.0510   33.3020 C   0  0  0  0  0  0  0  0  0  0  0  0
   37.0820   25.7950   32.8640 C   0  0  0  0  0  0  0  0  0  0  0  0
   38.2100   27.0170   36.3530 H   0  0  0  0  0  0  0  0  0  0  0  0
   36.9250   28.5480   34.8860 H   0  0  0  0  0  0  0  0  0  0  0  0
   36.2320   27.7300   32.6880 H   0  0  0  0  0  0  0  0  0  0  0  0
   38.2630   24.0150   36.8990 C   0  0  0  0  0  0  0  0  0  0  0  0
   38.9450   24.4870   35.7690 C   0  0  0  0  0  0  0  0  0  0  0  0
   40.2430   24.0140   35.5520 C   0  0  0  0  0  0  0  0  0  0  0  0
   40.7700   23.1210   36.4510 N   0  0  0  0  0  0  0  0  0  0  0  0
   40.0740   22.6980   37.5200 C   0  0  0  0  0  0  0  0  0  0  0  0
   38.8330   23.1370   37.7460 N   0  0  0  0  0  0  0  0  0  0  0  0
   37.2540   24.2840   37.2060 H   0  0  0  0  0  0  0  0  0  0  0  0
   40.7200   24.3990   34.6850 H   0  0  0  0  0  0  0  0  0  0  0  0
   40.6700   22.0000   38.0960 H   0  0  0  0  0  0  0  0  0  0  0  0
   36.6740   25.2760   31.5380 C   0  0  0  0  0  3  0  0  0  0  0  0
   35.4570   25.6900   30.8370 C   0  0  0  0  0  2  0  0  0  0  0  0
   35.4410   24.4010   31.5630 C   0  0  0  0  0  2  0  0  0  0  0  0
  1  2  1  0  0  0  0
  2  3  1  0  0  0  0
  3  4  2  0  0  0  0
  3 12  1  0  0  0  0
  4  8  1  0  0  0  0
  5  9  1  0  0  0  0
  5  4  1  0  0  0  0
  6  5  2  0  0  0  0
  7  6  1  0  0  0  0
  7  2  2  0  0  0  0
 10  6  1  0  0  0  0
 11 17  1  0  0  0  0
 11 16  1  0  0  0  0
 12 11  2  0  0  0  0
 13 12  1  0  0  0  0
 13 14  2  0  0  0  0
 14 15  1  0  0  0  0
 15 16  2  0  0  0  0
 15 19  1  0  0  0  0
 18 13  1  0  0  0  0
 20 22  1  0  0  0  0
 20  7  1  0  0  0  0
 21 20  1  0  0  0  0
 21 22  1  0  0  0  0
M  END
>  <minimizedAffinity>
-4.5860014

$$$$

 OpenBabel03262521383D

 22 24  0  0  0  0  0  0  0  0999 V2000
   36.0070   29.3700   34.6630 F   0  0  0  0  0  0  0  0  0  0  0  0
   36.2630   28.3980   33.7240 C   0  0  0  0  0  0  0  0  0  0  0  0
   35.5630   28.3230   32.5360 C   0  0  0  0  0  0  0  0  0  0  0  0
   35.8600   27.3230   31.6210 C   0  0  0  0  0  0  0  0  0  0  0  0
   36.8590   26.3930   31.8900 C   0  0  0  0  0  0  0  0  0  0  0  0
   37.5290   26.5120   33.0940 C   0  0  0  0  0  0  0  0  0  0  0  0
   37.2680   27.4800   34.0190 C   0  0  0  0  0  0  0  0  0  0  0  0
   35.2910   27.2960   30.7020 H   0  0  0  0  0  0  0  0  0  0  0  0
   37.0650   25.6240   31.1530 H   0  0  0  0  0  0  0  0  0  0  0  0
   38.2890   25.7810   33.2650 H   0  0  0  0  0  0  0  0  0  0  0  0
   34.9300   30.3840   31.5060 C   0  0  0  0  0  0  0  0  0  0  0  0
   34.5480   29.3170   32.3300 C   0  0  0  0  0  0  0  0  0  0  0  0
   33.2510   29.3330   32.8520 C   0  0  0  0  0  0  0  0  0  0  0  0
   32.4320   30.3860   32.5290 N   0  0  0  0  0  0  0  0  0  0  0  0
   32.8460   31.3870   31.7330 C   0  0  0  0  0  0  0  0  0  0  0  0
   34.0810   31.3910   31.2250 N   0  0  0  0  0  0  0  0  0  0  0  0
   35.8980   30.5170   31.0260 H   0  0  0  0  0  0  0  0  0  0  0  0
   33.0070   28.5050   33.4700 H   0  0  0  0  0  0  0  0  0  0  0  0
   32.0510   32.1120   31.6060 H   0  0  0  0  0  0  0  0  0  0  0  0
   37.9950   27.5960   35.3040 C   0  0  0  0  0  3  0  0  0  0  0  0
   39.3050   26.9940   35.5600 C   0  0  0  0  0  2  0  0  0  0  0  0
   38.1050   26.3010   36.0780 C   0  0  0  0  0  2  0  0  0  0  0  0
  2  7  1  0  0  0  0
  2  1  1  0  0  0  0
  3  2  2  0  0  0  0
  4  5  2  0  0  0  0
  4  3  1  0  0  0  0
  5  6  1  0  0  0  0
  6 10  1  0  0  0  0
  6  7  2  0  0  0  0
  7 20  1  0  0  0  0
  8  4  1  0  0  0  0
  9  5  1  0  0  0  0
 11 12  1  0  0  0  0
 12  3  1  0  0  0  0
 12 13  2  0  0  0  0
 13 18  1  0  0  0  0
 14 13  1  0  0  0  0
 15 14  2  0  0  0  0
 16 11  2  0  0  0  0
 16 15  1  0  0  0  0
 17 11  1  0  0  0  0
 19 15  1  0  0  0  0
 20 21  1  0  0  0  0
 20 22  1  0  0  0  0
 21 22  1  0  0  0  0
M  END
>  <minimizedAffinity>
-4.44536018

$$$$

 OpenBabel03262521383D

 22 24  0  0  0  0  0  0  0  0999 V2000
   35.4600   28.4500   34.5320 F   0  0  0  0  0  0  0  0  0  0  0  0
   35.7810   29.2400   33.4530 C   0  0  0  0  0  0  0  0  0  0  0  0
   36.2900   28.7120   32.2820 C   0  0  0  0  0  0  0  0  0  0  0  0
   36.5980   29.5520   31.2220 C   0  0  0  0  0  0  0  0  0  0  0  0
   36.4000   30.9250   31.3270 C   0  0  0  0  0  0  0  0  0  0  0  0
   35.8890   31.4020   32.5200 C   0  0  0  0  0  0  0  0  0  0  0  0
   35.5720   30.6110   33.5850 C   0  0  0  0  0  0  0  0  0  0  0  0
   36.9940   29.1020   30.3220 H   0  0  0  0  0  0  0  0  0  0  0  0
   36.6510   31.5530   30.4790 H   0  0  0  0  0  0  0  0  0  0  0  0
   35.7500   32.4610   32.5630 H   0  0  0  0  0  0  0  0  0  0  0  0
   35.6170   26.6110   31.3650 C   0  0  0  0  0  0  0  0  0  0  0  0
   36.4670   27.2880   32.2500 C   0  0  0  0  0  0  0  0  0  0  0  0
   37.3730   26.5230   32.9900 C   0  0  0  0  0  0  0  0  0  0  0  0
   37.3800   25.1630   32.8070 N   0  0  0  0  0  0  0  0  0  0  0  0
   36.5440   24.5600   31.9450 C   0  0  0  0  0  0  0  0  0  0  0  0
   35.6700   25.2720   31.2280 N   0  0  0  0  0  0  0  0  0  0  0  0
   34.8610   27.0590   30.7220 H   0  0  0  0  0  0  0  0  0  0  0  0
   37.9960   27.0790   33.6460 H   0  0  0  0  0  0  0  0  0  0  0  0
   36.7120   23.4900   31.9530 H   0  0  0  0  0  0  0  0  0  0  0  0
   35.0250   31.1370   34.8570 C   0  0  0  0  0  3  0  0  0  0  0  0
   35.1940   32.5190   35.3100 C   0  0  0  0  0  2  0  0  0  0  0  0
   36.0740   31.4820   35.8910 C   0  0  0  0  0  2  0  0  0  0  0  0
  2  7  1  0  0  0  0
  2  1  1  0  0  0  0
  3  2  2  0  0  0  0
  4  5  2  0  0  0  0
  4  3  1  0  0  0  0
  5  6  1  0  0  0  0
  6 10  1  0  0  0  0
  6  7  2  0  0  0  0
  7 20  1  0  0  0  0
  8  4  1  0  0  0  0
  9  5  1  0  0  0  0
 11 12  1  0  0  0  0
 12  3  1  0  0  0  0
 12 13  2  0  0  0  0
 13 18  1  0  0  0  0
 14 13  1  0  0  0  0
 15 19  1  0  0  0  0
 15 14  2  0  0  0  0
 16 11  2  0  0  0  0
 16 15  1  0  0  0  0
 17 11  1  0  0  0  0
 20 21  1  0  0  0  0
 20 22  1  0  0  0  0
 21 22  1  0  0  0  0
M  END
>  <minimizedAffinity>
-4.42407894

$$$$

 OpenBabel03262521383D

 22 24  0  0  0  0  0  0  0  0999 V2000
   33.2410   29.1810   33.9320 F   0  0  0  0  0  0  0  0  0  0  0  0
   33.9470   30.0470   34.7330 C   0  0  0  0  0  0  0  0  0  0  0  0
   35.3270   30.1030   34.7150 C   0  0  0  0  0  0  0  0  0  0  0  0
   35.9920   30.9950   35.5440 C   0  0  0  0  0  0  0  0  0  0  0  0
   35.2810   31.8350   36.3950 C   0  0  0  0  0  0  0  0  0  0  0  0
   33.9020   31.7380   36.3740 C   0  0  0  0  0  0  0  0  0  0  0  0
   33.2100   30.8770   35.5750 C   0  0  0  0  0  0  0  0  0  0  0  0
   37.0720   31.0100   35.5030 H   0  0  0  0  0  0  0  0  0  0  0  0
   35.8330   32.5200   37.0290 H   0  0  0  0  0  0  0  0  0  0  0  0
   33.3900   32.4000   37.0400 H   0  0  0  0  0  0  0  0  0  0  0  0
   36.5330   28.0640   34.4150 C   0  0  0  0  0  0  0  0  0  0  0  0
   35.9900   29.2060   33.8130 C   0  0  0  0  0  0  0  0  0  0  0  0
   36.1480   29.3470   32.4310 C   0  0  0  0  0  0  0  0  0  0  0  0
   36.8210   28.3660   31.7480 N   0  0  0  0  0  0  0  0  0  0  0  0
   37.3240   27.2870   32.3720 C   0  0  0  0  0  0  0  0  0  0  0  0
   37.1840   27.1330   33.6910 N   0  0  0  0  0  0  0  0  0  0  0  0
   36.4960   27.8090   35.4720 H   0  0  0  0  0  0  0  0  0  0  0  0
   35.7200   30.2280   32.0190 H   0  0  0  0  0  0  0  0  0  0  0  0
   37.8140   26.6400   31.6540 H   0  0  0  0  0  0  0  0  0  0  0  0
   31.7320   30.7840   35.5630 C   0  0  0  0  0  3  0  0  0  0  0  0
   30.8660   31.4120   36.5640 C   0  0  0  0  0  2  0  0  0  0  0  0
   31.1490   29.9650   36.6940 C   0  0  0  0  0  2  0  0  0  0  0  0
  1  2  1  0  0  0  0
  2  7  1  0  0  0  0
  3  2  2  0  0  0  0
  3  4  1  0  0  0  0
  4  5  2  0  0  0  0
  5  9  1  0  0  0  0
  6  5  1  0  0  0  0
  6 10  1  0  0  0  0
  7  6  2  0  0  0  0
  8  4  1  0  0  0  0
 11 17  1  0  0  0  0
 12 11  1  0  0  0  0
 12  3  1  0  0  0  0
 13 12  2  0  0  0  0
 14 15  2  0  0  0  0
 14 13  1  0  0  0  0
 15 16  1  0  0  0  0
 16 11  2  0  0  0  0
 18 13  1  0  0  0  0
 19 15  1  0  0  0  0
 20  7  1  0  0  0  0
 20 21  1  0  0  0  0
 20 22  1  0  0  0  0
 21 22  1  0  0  0  0
M  END
>  <minimizedAffinity>
-4.40709448

$$$$

 OpenBabel03262521383D

 22 24  0  0  0  0  0  0  0  0999 V2000
   35.1000   30.8830   32.2800 F   0  0  0  0  0  0  0  0  0  0  0  0
   35.7650   29.7720   32.7430 C   0  0  0  0  0  0  0  0  0  0  0  0
   35.7880   29.4350   34.0820 C   0  0  0  0  0  0  0  0  0  0  0  0
   36.4750   28.3030   34.4980 C   0  0  0  0  0  0  0  0  0  0  0  0
   37.1420   27.5020   33.5760 C   0  0  0  0  0  0  0  0  0  0  0  0
   37.0870   27.8840   32.2480 C   0  0  0  0  0  0  0  0  0  0  0  0
   36.4240   28.9870   31.7990 C   0  0  0  0  0  0  0  0  0  0  0  0
   36.4700   28.0720   35.5540 H   0  0  0  0  0  0  0  0  0  0  0  0
   37.6680   26.6250   33.9360 H   0  0  0  0  0  0  0  0  0  0  0  0
   37.6110   27.2440   31.5700 H   0  0  0  0  0  0  0  0  0  0  0  0
   35.8860   31.2190   35.6680 C   0  0  0  0  0  0  0  0  0  0  0  0
   35.0790   30.3090   34.9720 C   0  0  0  0  0  0  0  0  0  0  0  0
   33.7020   30.3490   35.2120 C   0  0  0  0  0  0  0  0  0  0  0  0
   33.2230   31.2710   36.1090 N   0  0  0  0  0  0  0  0  0  0  0  0
   34.0390   32.1230   36.7530 C   0  0  0  0  0  0  0  0  0  0  0  0
   35.3570   32.1010   36.5380 N   0  0  0  0  0  0  0  0  0  0  0  0
   36.9670   31.3140   35.5940 H   0  0  0  0  0  0  0  0  0  0  0  0
   33.1310   29.6430   34.6620 H   0  0  0  0  0  0  0  0  0  0  0  0
   33.4630   32.7610   37.4110 H   0  0  0  0  0  0  0  0  0  0  0  0
   36.3750   29.3840   30.3730 C   0  0  0  0  0  3  0  0  0  0  0  0
   37.3710   28.9810   29.3770 C   0  0  0  0  0  2  0  0  0  0  0  0
   37.4690   30.3410   29.9530 C   0  0  0  0  0  2  0  0  0  0  0  0
  1  2  1  0  0  0  0
  2  3  1  0  0  0  0
  3  4  2  0  0  0  0
  3 12  1  0  0  0  0
  4  8  1  0  0  0  0
  5  9  1  0  0  0  0
  5  4  1  0  0  0  0
  6  5  2  0  0  0  0
  7  6  1  0  0  0  0
  7  2  2  0  0  0  0
 10  6  1  0  0  0  0
 11 16  1  0  0  0  0
 12 13  1  0  0  0  0
 12 11  2  0  0  0  0
 13 14  2  0  0  0  0
 14 15  1  0  0  0  0
 15 19  1  0  0  0  0
 16 15  2  0  0  0  0
 17 11  1  0  0  0  0
 18 13  1  0  0  0  0
 20  7  1  0  0  0  0
 21 22  1  0  0  0  0
 21 20  1  0  0  0  0
 22 20  1  0  0  0  0
M  END
>  <minimizedAffinity>
-4.40617085

$$$$

 OpenBabel03262521383D

 22 24  0  0  0  0  0  0  0  0999 V2000
   36.7010   21.1950   35.2620 F   0  0  0  0  0  0  0  0  0  0  0  0
   37.4100   21.9020   34.3200 C   0  0  0  0  0  0  0  0  0  0  0  0
   38.2770   22.9200   34.6660 C   0  0  0  0  0  0  0  0  0  0  0  0
   38.9700   23.6030   33.6770 C   0  0  0  0  0  0  0  0  0  0  0  0
   38.8000   23.2720   32.3360 C   0  0  0  0  0  0  0  0  0  0  0  0
   37.9200   22.2460   32.0440 C   0  0  0  0  0  0  0  0  0  0  0  0
   37.2210   21.5490   32.9850 C   0  0  0  0  0  0  0  0  0  0  0  0
   39.6390   24.3940   33.9860 H   0  0  0  0  0  0  0  0  0  0  0  0
   39.3570   23.8260   31.5890 H   0  0  0  0  0  0  0  0  0  0  0  0
   37.8160   22.0200   31.0040 H   0  0  0  0  0  0  0  0  0  0  0  0
   39.5270   22.6440   36.6830 C   0  0  0  0  0  0  0  0  0  0  0  0
   38.3990   23.2040   36.0670 C   0  0  0  0  0  0  0  0  0  0  0  0
   37.5350   23.9600   36.8640 C   0  0  0  0  0  0  0  0  0  0  0  0
   37.8370   24.1100   38.1940 N   0  0  0  0  0  0  0  0  0  0  0  0
   38.9330   23.5530   38.7380 C   0  0  0  0  0  0  0  0  0  0  0  0
   39.7720   22.8260   37.9950 N   0  0  0  0  0  0  0  0  0  0  0  0
   40.2900   22.0340   36.2040 H   0  0  0  0  0  0  0  0  0  0  0  0
   36.6950   24.3640   36.3540 H   0  0  0  0  0  0  0  0  0  0  0  0
   38.9840   23.7920   39.7930 H   0  0  0  0  0  0  0  0  0  0  0  0
   36.2820   20.4520   32.6570 C   0  0  0  0  0  3  0  0  0  0  0  0
   35.7660   20.1940   31.3110 C   0  0  0  0  0  2  0  0  0  0  0  0
   34.8950   20.9130   32.2670 C   0  0  0  0  0  2  0  0  0  0  0  0
  2  3  1  0  0  0  0
  2  1  1  0  0  0  0
  3 12  1  0  0  0  0
  4  8  1  0  0  0  0
  4  3  2  0  0  0  0
  5  4  1  0  0  0  0
  6  5  2  0  0  0  0
  6  7  1  0  0  0  0
  7  2  2  0  0  0  0
  9  5  1  0  0  0  0
 10  6  1  0  0  0  0
 11 16  1  0  0  0  0
 12 11  2  0  0  0  0
 12 13  1  0  0  0  0
 13 14  2  0  0  0  0
 14 15  1  0  0  0  0
 15 19  1  0  0  0  0
 16 15  2  0  0  0  0
 17 11  1  0  0  0  0
 18 13  1  0  0  0  0
 20  7  1  0  0  0  0
 21 22  1  0  0  0  0
 21 20  1  0  0  0  0
 22 20  1  0  0  0  0
M  END
>  <minimizedAffinity>
-4.40455389

$$$$

 OpenBabel03262521383D

 22 24  0  0  0  0  0  0  0  0999 V2000
   38.1640   24.4820   32.9160 F   0  0  0  0  0  0  0  0  0  0  0  0
   37.3390   23.3870   32.8090 C   0  0  0  0  0  0  0  0  0  0  0  0
   37.4660   22.2890   33.6370 C   0  0  0  0  0  0  0  0  0  0  0  0
   36.6080   21.2090   33.4880 C   0  0  0  0  0  0  0  0  0  0  0  0
   35.6180   21.2210   32.5100 C   0  0  0  0  0  0  0  0  0  0  0  0
   35.5340   22.3440   31.7080 C   0  0  0  0  0  0  0  0  0  0  0  0
   36.3560   23.4260   31.8220 C   0  0  0  0  0  0  0  0  0  0  0  0
   36.7380   20.3670   34.1550 H   0  0  0  0  0  0  0  0  0  0  0  0
   34.9650   20.3600   32.4220 H   0  0  0  0  0  0  0  0  0  0  0  0
   34.7620   22.3170   30.9700 H   0  0  0  0  0  0  0  0  0  0  0  0
   38.0910   22.7480   35.8970 C   0  0  0  0  0  0  0  0  0  0  0  0
   38.5100   22.3500   34.6200 C   0  0  0  0  0  0  0  0  0  0  0  0
   39.8660   22.0620   34.4440 C   0  0  0  0  0  0  0  0  0  0  0  0
   40.7050   22.1840   35.5240 N   0  0  0  0  0  0  0  0  0  0  0  0
   40.2530   22.5700   36.7300 C   0  0  0  0  0  0  0  0  0  0  0  0
   38.9610   22.8500   36.9200 N   0  0  0  0  0  0  0  0  0  0  0  0
   37.0760   23.0050   36.1940 H   0  0  0  0  0  0  0  0  0  0  0  0
   40.1370   21.7650   33.4610 H   0  0  0  0  0  0  0  0  0  0  0  0
   41.0720   22.6020   37.4380 H   0  0  0  0  0  0  0  0  0  0  0  0
   36.2540   24.6230   30.9550 C   0  0  0  0  0  3  0  0  0  0  0  0
   35.9620   25.9690   31.4520 C   0  0  0  0  0  2  0  0  0  0  0  0
   34.8580   25.1950   30.8440 C   0  0  0  0  0  2  0  0  0  0  0  0
  2  1  1  0  0  0  0
  2  3  1  0  0  0  0
  3 12  1  0  0  0  0
  4  3  2  0  0  0  0
  4  8  1  0  0  0  0
  5  4  1  0  0  0  0
  6  7  1  0  0  0  0
  6  5  2  0  0  0  0
  7  2  2  0  0  0  0
  9  5  1  0  0  0  0
 10  6  1  0  0  0  0
 11 17  1  0  0  0  0
 11 16  1  0  0  0  0
 12 11  2  0  0  0  0
 13 12  1  0  0  0  0
 13 14  2  0  0  0  0
 14 15  1  0  0  0  0
 15 16  2  0  0  0  0
 15 19  1  0  0  0  0
 18 13  1  0  0  0  0
 20 21  1  0  0  0  0
 20  7  1  0  0  0  0
 22 20  1  0  0  0  0
 22 21  1  0  0  0  0
M  END
>  <minimizedAffinity>
-4.40082026

$$$$
