
 OpenBabel03272509063D

 27 29  0  0  0  0  0  0  0  0999 V2000
   36.8730   23.2740   30.9740 C   0  0  0  0  0  0  0  0  0  0  0  0
   37.8530   23.2010   30.4350 H   0  0  0  0  0  0  0  0  0  0  0  0
   36.1630   23.8790   30.3880 H   0  0  0  0  0  0  0  0  0  0  0  0
   36.3850   21.8760   31.2100 C   0  0  0  0  0  0  0  0  0  0  0  0
   36.9400   20.7360   30.6910 C   0  0  0  0  0  0  0  0  0  0  0  0
   36.4010   19.5040   30.9800 C   0  0  0  0  0  0  0  0  0  0  0  0
   35.2880   19.3700   31.7970 C   0  0  0  0  0  0  0  0  0  0  0  0
   34.7270   20.5030   32.3180 C   0  0  0  0  0  0  0  0  0  0  0  0
   35.2570   21.7400   32.0380 C   0  0  0  0  0  0  0  0  0  0  0  0
   37.8010   20.9380   30.0680 H   0  0  0  0  0  0  0  0  0  0  0  0
   36.9270   18.6690   30.5110 H   0  0  0  0  0  0  0  0  0  0  0  0
   34.9730   18.3500   31.9380 H   0  0  0  0  0  0  0  0  0  0  0  0
   33.8550   20.3670   32.9550 H   0  0  0  0  0  0  0  0  0  0  0  0
   34.7270   22.5790   32.5090 H   0  0  0  0  0  0  0  0  0  0  0  0
   38.1970   24.7020   32.5200 C   0  0  0  0  0  3  0  0  0  0  0  0
   37.1460   23.9890   32.2250 C   0  0  0  0  0  3  0  0  0  0  0  0
   38.6580   27.1490   35.2150 C   0  0  0  0  0  0  0  0  0  0  0  0
   38.3340   26.3470   36.3450 C   0  0  0  0  0  0  0  0  0  0  0  0
   37.9700   24.9990   36.1550 C   0  0  0  0  0  0  0  0  0  0  0  0
   37.9550   24.5560   34.8700 N   0  0  0  0  0  0  0  0  0  0  0  0
   38.2630   25.3310   33.8340 C   0  0  0  0  0  0  0  0  0  0  0  0
   38.6090   26.6120   34.0070 N   0  0  0  0  0  0  0  0  0  0  0  0
   38.9290   28.1740   35.4270 H   0  0  0  0  0  0  0  0  0  0  0  0
   38.3700   26.7710   37.3150 H   0  0  0  0  0  0  0  0  0  0  0  0
   37.6280   24.1350   37.3040 C   0  0  0  0  0  3  0  0  0  0  0  0
   38.7490   23.3710   37.9940 C   0  0  0  0  0  2  0  0  0  0  0  0
   38.0200   24.4830   38.6680 C   0  0  0  0  0  2  0  0  0  0  0  0
  1  4  1  0  0  0  0
  1 16  1  0  0  0  0
  2  1  1  0  0  0  0
  3  1  1  0  0  0  0
  4  9  1  0  0  0  0
  5  6  1  0  0  0  0
  5  4  2  0  0  0  0
  6  7  2  0  0  0  0
  7 12  1  0  0  0  0
  7  8  1  0  0  0  0
  8 13  1  0  0  0  0
  9  8  2  0  0  0  0
  9 14  1  0  0  0  0
 10  5  1  0  0  0  0
 11  6  1  0  0  0  0
 15 21  1  0  0  0  0
 16 15  2  0  0  0  0
 17 23  1  0  0  0  0
 17 18  1  0  0  0  0
 18 24  1  0  0  0  0
 19 18  2  0  0  0  0
 19 25  1  0  0  0  0
 20 19  1  0  0  0  0
 21 22  1  0  0  0  0
 21 20  2  0  0  0  0
 22 17  2  0  0  0  0
 25 26  1  0  0  0  0
 25 27  1  0  0  0  0
 26 27  1  0  0  0  0
M  END
>  <minimizedAffinity>
-5.14531994

$$$$

 OpenBabel03272509063D

 27 29  0  0  0  0  0  0  0  0999 V2000
   35.2600   29.2770   33.7980 C   0  0  0  0  0  0  0  0  0  0  0  0
   34.3310   28.6760   33.6130 H   0  0  0  0  0  0  0  0  0  0  0  0
   35.5950   29.7530   32.8620 H   0  0  0  0  0  0  0  0  0  0  0  0
   34.9430   30.2730   34.8730 C   0  0  0  0  0  0  0  0  0  0  0  0
   35.8440   31.1000   35.4890 C   0  0  0  0  0  0  0  0  0  0  0  0
   35.4330   31.9770   36.4660 C   0  0  0  0  0  0  0  0  0  0  0  0
   34.1050   32.0540   36.8600 C   0  0  0  0  0  0  0  0  0  0  0  0
   33.1990   31.2310   36.2510 C   0  0  0  0  0  0  0  0  0  0  0  0
   33.5980   30.3510   35.2720 C   0  0  0  0  0  0  0  0  0  0  0  0
   36.8510   30.9700   35.1170 H   0  0  0  0  0  0  0  0  0  0  0  0
   36.2370   32.5850   36.8840 H   0  0  0  0  0  0  0  0  0  0  0  0
   33.9240   32.7810   37.6330 H   0  0  0  0  0  0  0  0  0  0  0  0
   32.1650   31.3140   36.5810 H   0  0  0  0  0  0  0  0  0  0  0  0
   32.7880   29.7400   34.8530 H   0  0  0  0  0  0  0  0  0  0  0  0
   36.9070   27.4440   33.4620 C   0  0  0  0  0  3  0  0  0  0  0  0
   36.2930   28.3200   34.2080 C   0  0  0  0  0  3  0  0  0  0  0  0
   39.9990   25.5900   34.1390 C   0  0  0  0  0  0  0  0  0  0  0  0
   39.6530   24.9560   35.3650 C   0  0  0  0  0  0  0  0  0  0  0  0
   38.3780   25.1790   35.9230 C   0  0  0  0  0  0  0  0  0  0  0  0
   37.5540   26.0060   35.2270 N   0  0  0  0  0  0  0  0  0  0  0  0
   37.9080   26.5840   34.0830 C   0  0  0  0  0  0  0  0  0  0  0  0
   39.1160   26.3770   33.5480 N   0  0  0  0  0  0  0  0  0  0  0  0
   40.9910   25.3780   33.7640 H   0  0  0  0  0  0  0  0  0  0  0  0
   40.3550   24.3240   35.8450 H   0  0  0  0  0  0  0  0  0  0  0  0
   37.9810   24.5370   37.1940 C   0  0  0  0  0  3  0  0  0  0  0  0
   37.3940   23.1340   37.1440 C   0  0  0  0  0  2  0  0  0  0  0  0
   38.7280   23.4100   37.7490 C   0  0  0  0  0  2  0  0  0  0  0  0
  1 16  1  0  0  0  0
  1  4  1  0  0  0  0
  2  1  1  0  0  0  0
  3  1  1  0  0  0  0
  4  9  2  0  0  0  0
  4  5  1  0  0  0  0
  5  6  2  0  0  0  0
  6  7  1  0  0  0  0
  6 11  1  0  0  0  0
  7 12  1  0  0  0  0
  8 13  1  0  0  0  0
  8  7  2  0  0  0  0
  9  8  1  0  0  0  0
 10  5  1  0  0  0  0
 14  9  1  0  0  0  0
 15 21  1  0  0  0  0
 15 16  2  0  0  0  0
 17 18  1  0  0  0  0
 18 24  1  0  0  0  0
 18 19  2  0  0  0  0
 19 25  1  0  0  0  0
 20 19  1  0  0  0  0
 21 20  2  0  0  0  0
 22 21  1  0  0  0  0
 22 17  2  0  0  0  0
 23 17  1  0  0  0  0
 25 27  1  0  0  0  0
 26 25  1  0  0  0  0
 26 27  1  0  0  0  0
M  END
>  <minimizedAffinity>
-5.10649014

$$$$

 OpenBabel03272509063D

 27 29  0  0  0  0  0  0  0  0999 V2000
   37.4730   21.9190   30.7540 C   0  0  0  0  0  0  0  0  0  0  0  0
   38.5690   21.6880   30.8120 H   0  0  0  0  0  0  0  0  0  0  0  0
   37.1630   22.0190   29.7020 H   0  0  0  0  0  0  0  0  0  0  0  0
   36.7450   20.8200   31.4700 C   0  0  0  0  0  0  0  0  0  0  0  0
   36.5280   19.5570   30.9870 C   0  0  0  0  0  0  0  0  0  0  0  0
   35.8440   18.6310   31.7390 C   0  0  0  0  0  0  0  0  0  0  0  0
   35.3530   18.9380   33.0000 C   0  0  0  0  0  0  0  0  0  0  0  0
   35.5640   20.1970   33.4890 C   0  0  0  0  0  0  0  0  0  0  0  0
   36.2480   21.1310   32.7460 C   0  0  0  0  0  0  0  0  0  0  0  0
   36.9460   19.4110   30.0000 H   0  0  0  0  0  0  0  0  0  0  0  0
   35.7330   17.6600   31.2530 H   0  0  0  0  0  0  0  0  0  0  0  0
   34.8380   18.1200   33.4760 H   0  0  0  0  0  0  0  0  0  0  0  0
   35.1680   20.4090   34.4800 H   0  0  0  0  0  0  0  0  0  0  0  0
   36.3590   22.1080   33.2360 H   0  0  0  0  0  0  0  0  0  0  0  0
   36.7410   24.2910   30.8990 C   0  0  0  0  0  3  0  0  0  0  0  0
   37.2940   23.2230   31.4010 C   0  0  0  0  0  3  0  0  0  0  0  0
   35.9930   27.6720   32.1100 C   0  0  0  0  0  0  0  0  0  0  0  0
   36.6270   27.6330   33.3830 C   0  0  0  0  0  0  0  0  0  0  0  0
   37.2900   26.4570   33.7890 C   0  0  0  0  0  0  0  0  0  0  0  0
   37.2720   25.4220   32.9090 N   0  0  0  0  0  0  0  0  0  0  0  0
   36.6700   25.4910   31.7250 C   0  0  0  0  0  0  0  0  0  0  0  0
   36.0380   26.6030   31.3330 N   0  0  0  0  0  0  0  0  0  0  0  0
   35.5030   28.6020   31.8570 H   0  0  0  0  0  0  0  0  0  0  0  0
   36.5950   28.4860   34.0110 H   0  0  0  0  0  0  0  0  0  0  0  0
   37.9610   26.3790   35.1040 C   0  0  0  0  0  3  0  0  0  0  0  0
   39.3980   26.8680   35.2140 C   0  0  0  0  0  2  0  0  0  0  0  0
   38.2690   27.5780   35.8810 C   0  0  0  0  0  2  0  0  0  0  0  0
  1  2  1  0  0  0  0
  1 16  1  0  0  0  0
  1  4  1  0  0  0  0
  3  1  1  0  0  0  0
  4  9  1  0  0  0  0
  5  4  2  0  0  0  0
  5  6  1  0  0  0  0
  6  7  2  0  0  0  0
  7 12  1  0  0  0  0
  7  8  1  0  0  0  0
  8 13  1  0  0  0  0
  9 14  1  0  0  0  0
  9  8  2  0  0  0  0
 10  5  1  0  0  0  0
 11  6  1  0  0  0  0
 15 16  2  0  0  0  0
 15 21  1  0  0  0  0
 17 18  1  0  0  0  0
 18 19  2  0  0  0  0
 18 24  1  0  0  0  0
 19 25  1  0  0  0  0
 20 19  1  0  0  0  0
 21 20  2  0  0  0  0
 22 21  1  0  0  0  0
 22 17  2  0  0  0  0
 23 17  1  0  0  0  0
 25 26  1  0  0  0  0
 25 27  1  0  0  0  0
 26 27  1  0  0  0  0
M  END
>  <minimizedAffinity>
-5.02757883

$$$$

 OpenBabel03272509063D

 27 29  0  0  0  0  0  0  0  0999 V2000
   36.2830   28.1380   33.3140 C   0  0  0  0  0  0  0  0  0  0  0  0
   36.4950   28.7640   32.4070 H   0  0  0  0  0  0  0  0  0  0  0  0
   35.5750   27.3330   33.0600 H   0  0  0  0  0  0  0  0  0  0  0  0
   37.5960   27.6180   33.8170 C   0  0  0  0  0  0  0  0  0  0  0  0
   38.6390   27.1930   33.0390 C   0  0  0  0  0  0  0  0  0  0  0  0
   39.8000   26.7340   33.6180 C   0  0  0  0  0  0  0  0  0  0  0  0
   39.9550   26.6850   34.9950 C   0  0  0  0  0  0  0  0  0  0  0  0
   38.9170   27.1070   35.7790 C   0  0  0  0  0  0  0  0  0  0  0  0
   37.7520   27.5680   35.2120 C   0  0  0  0  0  0  0  0  0  0  0  0
   38.4280   27.2680   31.9810 H   0  0  0  0  0  0  0  0  0  0  0  0
   40.5610   26.4230   32.8990 H   0  0  0  0  0  0  0  0  0  0  0  0
   40.9110   26.3050   35.3110 H   0  0  0  0  0  0  0  0  0  0  0  0
   39.0670   27.0560   36.8560 H   0  0  0  0  0  0  0  0  0  0  0  0
   36.9870   27.8800   35.9360 H   0  0  0  0  0  0  0  0  0  0  0  0
   35.6150   30.3280   34.2830 C   0  0  0  0  0  3  0  0  0  0  0  0
   35.6250   29.0250   34.2790 C   0  0  0  0  0  3  0  0  0  0  0  0
   34.7500   32.5930   37.0370 C   0  0  0  0  0  0  0  0  0  0  0  0
   33.4100   32.1880   37.2890 C   0  0  0  0  0  0  0  0  0  0  0  0
   32.8420   31.1560   36.5140 C   0  0  0  0  0  0  0  0  0  0  0  0
   33.6410   30.6130   35.5590 N   0  0  0  0  0  0  0  0  0  0  0  0
   34.8910   31.0140   35.3480 C   0  0  0  0  0  0  0  0  0  0  0  0
   35.4370   31.9930   36.0790 N   0  0  0  0  0  0  0  0  0  0  0  0
   35.1270   33.3890   37.6640 H   0  0  0  0  0  0  0  0  0  0  0  0
   32.8530   32.6650   38.0540 H   0  0  0  0  0  0  0  0  0  0  0  0
   31.4530   30.7070   36.7470 C   0  0  0  0  0  3  0  0  0  0  0  0
   30.3850   31.1080   35.7400 C   0  0  0  0  0  2  0  0  0  0  0  0
   30.8240   29.6930   35.9040 C   0  0  0  0  0  2  0  0  0  0  0  0
  1  4  1  0  0  0  0
  1 16  1  0  0  0  0
  2  1  1  0  0  0  0
  3  1  1  0  0  0  0
  4  9  1  0  0  0  0
  5  6  1  0  0  0  0
  5  4  2  0  0  0  0
  6  7  2  0  0  0  0
  7 12  1  0  0  0  0
  7  8  1  0  0  0  0
  8 13  1  0  0  0  0
  9  8  2  0  0  0  0
  9 14  1  0  0  0  0
 10  5  1  0  0  0  0
 11  6  1  0  0  0  0
 15 21  1  0  0  0  0
 16 15  2  0  0  0  0
 17 18  1  0  0  0  0
 17 23  1  0  0  0  0
 18 24  1  0  0  0  0
 19 25  1  0  0  0  0
 19 18  2  0  0  0  0
 20 19  1  0  0  0  0
 21 20  2  0  0  0  0
 21 22  1  0  0  0  0
 22 17  2  0  0  0  0
 26 27  1  0  0  0  0
 26 25  1  0  0  0  0
 27 25  1  0  0  0  0
M  END
>  <minimizedAffinity>
-4.96878767

$$$$

 OpenBabel03272509063D

 27 29  0  0  0  0  0  0  0  0999 V2000
   37.6380   22.1630   32.2240 C   0  0  0  0  0  0  0  0  0  0  0  0
   38.5470   21.8270   31.6600 H   0  0  0  0  0  0  0  0  0  0  0  0
   37.2540   23.1030   31.7960 H   0  0  0  0  0  0  0  0  0  0  0  0
   36.6360   21.0490   32.1650 C   0  0  0  0  0  0  0  0  0  0  0  0
   35.2750   21.1960   32.1410 C   0  0  0  0  0  0  0  0  0  0  0  0
   34.4540   20.0940   32.0860 C   0  0  0  0  0  0  0  0  0  0  0  0
   34.9690   18.8050   32.0540 C   0  0  0  0  0  0  0  0  0  0  0  0
   36.3270   18.6490   32.0780 C   0  0  0  0  0  0  0  0  0  0  0  0
   37.1570   19.7440   32.1320 C   0  0  0  0  0  0  0  0  0  0  0  0
   34.9680   22.2330   32.1690 H   0  0  0  0  0  0  0  0  0  0  0  0
   33.3900   20.3340   32.0720 H   0  0  0  0  0  0  0  0  0  0  0  0
   34.2150   18.0380   32.0120 H   0  0  0  0  0  0  0  0  0  0  0  0
   36.7010   17.6280   32.0520 H   0  0  0  0  0  0  0  0  0  0  0  0
   38.2280   19.5010   32.1470 H   0  0  0  0  0  0  0  0  0  0  0  0
   37.4800   22.1340   34.7050 C   0  0  0  0  0  3  0  0  0  0  0  0
   38.0850   22.4430   33.5920 C   0  0  0  0  0  3  0  0  0  0  0  0
   38.0270   23.3700   38.1160 C   0  0  0  0  0  0  0  0  0  0  0  0
   39.4290   23.1620   38.2410 C   0  0  0  0  0  0  0  0  0  0  0  0
   40.1440   22.6080   37.1600 C   0  0  0  0  0  0  0  0  0  0  0  0
   39.4200   22.3060   36.0510 N   0  0  0  0  0  0  0  0  0  0  0  0
   38.1090   22.5130   35.9660 C   0  0  0  0  0  0  0  0  0  0  0  0
   37.4230   23.0380   36.9870 N   0  0  0  0  0  0  0  0  0  0  0  0
   37.5360   23.7980   38.9790 H   0  0  0  0  0  0  0  0  0  0  0  0
   39.9190   23.4250   39.1430 H   0  0  0  0  0  0  0  0  0  0  0  0
   41.6020   22.3770   37.2520 C   0  0  0  0  0  3  0  0  0  0  0  0
   42.1010   20.9460   37.3850 C   0  0  0  0  0  2  0  0  0  0  0  0
   42.3500   21.7580   36.1600 C   0  0  0  0  0  2  0  0  0  0  0  0
  1 16  1  0  0  0  0
  2  1  1  0  0  0  0
  3  1  1  0  0  0  0
  4  1  1  0  0  0  0
  5  4  1  0  0  0  0
  5 10  1  0  0  0  0
  6  5  2  0  0  0  0
  7  8  2  0  0  0  0
  7  6  1  0  0  0  0
  8  9  1  0  0  0  0
  9 14  1  0  0  0  0
  9  4  2  0  0  0  0
 11  6  1  0  0  0  0
 12  7  1  0  0  0  0
 13  8  1  0  0  0  0
 15 21  1  0  0  0  0
 16 15  2  0  0  0  0
 17 18  1  0  0  0  0
 17 23  1  0  0  0  0
 18 24  1  0  0  0  0
 19 25  1  0  0  0  0
 19 18  2  0  0  0  0
 20 19  1  0  0  0  0
 21 20  2  0  0  0  0
 21 22  1  0  0  0  0
 22 17  2  0  0  0  0
 25 26  1  0  0  0  0
 27 25  1  0  0  0  0
 27 26  1  0  0  0  0
M  END
>  <minimizedAffinity>
-4.90592861

$$$$

 OpenBabel03272509063D

 27 29  0  0  0  0  0  0  0  0999 V2000
   35.1650   31.1270   33.4980 C   0  0  0  0  0  0  0  0  0  0  0  0
   34.3910   31.2290   32.6930 H   0  0  0  0  0  0  0  0  0  0  0  0
   35.9910   31.8340   33.3200 H   0  0  0  0  0  0  0  0  0  0  0  0
   34.4790   31.3570   34.8110 C   0  0  0  0  0  0  0  0  0  0  0  0
   33.1830   31.0260   35.1060 C   0  0  0  0  0  0  0  0  0  0  0  0
   32.6620   31.2880   36.3520 C   0  0  0  0  0  0  0  0  0  0  0  0
   33.4210   31.8910   37.3450 C   0  0  0  0  0  0  0  0  0  0  0  0
   34.7150   32.2250   37.0590 C   0  0  0  0  0  0  0  0  0  0  0  0
   35.2470   31.9680   35.8170 C   0  0  0  0  0  0  0  0  0  0  0  0
   32.6720   30.5620   34.2740 H   0  0  0  0  0  0  0  0  0  0  0  0
   31.6210   30.9800   36.4710 H   0  0  0  0  0  0  0  0  0  0  0  0
   32.8880   32.0360   38.2690 H   0  0  0  0  0  0  0  0  0  0  0  0
   35.2860   32.6960   37.8560 H   0  0  0  0  0  0  0  0  0  0  0  0
   36.2940   32.2780   35.6980 H   0  0  0  0  0  0  0  0  0  0  0  0
   35.5120   28.9190   32.4090 C   0  0  0  0  0  3  0  0  0  0  0  0
   35.7050   29.7690   33.3780 C   0  0  0  0  0  3  0  0  0  0  0  0
   36.5610   25.4770   31.6900 C   0  0  0  0  0  0  0  0  0  0  0  0
   37.4140   25.2330   32.8040 C   0  0  0  0  0  0  0  0  0  0  0  0
   37.6040   26.2470   33.7640 C   0  0  0  0  0  0  0  0  0  0  0  0
   36.9400   27.4130   33.5470 N   0  0  0  0  0  0  0  0  0  0  0  0
   36.1500   27.6100   32.4960 C   0  0  0  0  0  0  0  0  0  0  0  0
   35.9650   26.6530   31.5790 N   0  0  0  0  0  0  0  0  0  0  0  0
   36.4570   24.6600   30.9900 H   0  0  0  0  0  0  0  0  0  0  0  0
   37.8950   24.2940   32.8990 H   0  0  0  0  0  0  0  0  0  0  0  0
   38.4800   26.0300   34.9340 C   0  0  0  0  0  3  0  0  0  0  0  0
   39.7910   26.8000   35.0090 C   0  0  0  0  0  2  0  0  0  0  0  0
   38.6680   27.0610   35.9530 C   0  0  0  0  0  2  0  0  0  0  0  0
  1  4  1  0  0  0  0
  2  1  1  0  0  0  0
  3  1  1  0  0  0  0
  4  5  2  0  0  0  0
  4  9  1  0  0  0  0
  5  6  1  0  0  0  0
  6 11  1  0  0  0  0
  6  7  2  0  0  0  0
  7 12  1  0  0  0  0
  8  7  1  0  0  0  0
  8 13  1  0  0  0  0
  9  8  2  0  0  0  0
 10  5  1  0  0  0  0
 14  9  1  0  0  0  0
 15 21  1  0  0  0  0
 15 16  2  0  0  0  0
 16  1  1  0  0  0  0
 17 18  1  0  0  0  0
 18 24  1  0  0  0  0
 18 19  2  0  0  0  0
 19 25  1  0  0  0  0
 20 19  1  0  0  0  0
 21 20  2  0  0  0  0
 22 17  2  0  0  0  0
 22 21  1  0  0  0  0
 23 17  1  0  0  0  0
 25 26  1  0  0  0  0
 25 27  1  0  0  0  0
 26 27  1  0  0  0  0
M  END
>  <minimizedAffinity>
-4.87469769

$$$$

 OpenBabel03272509063D

 27 29  0  0  0  0  0  0  0  0999 V2000
   37.3460   27.7380   34.8380 C   0  0  0  0  0  0  0  0  0  0  0  0
   37.8490   28.6830   35.1700 H   0  0  0  0  0  0  0  0  0  0  0  0
   36.2800   27.7600   35.1160 H   0  0  0  0  0  0  0  0  0  0  0  0
   37.5550   27.6130   33.3590 C   0  0  0  0  0  0  0  0  0  0  0  0
   38.7270   27.2640   32.7430 C   0  0  0  0  0  0  0  0  0  0  0  0
   38.7980   27.1820   31.3720 C   0  0  0  0  0  0  0  0  0  0  0  0
   37.6970   27.4470   30.5700 C   0  0  0  0  0  0  0  0  0  0  0  0
   36.5230   27.7960   31.1770 C   0  0  0  0  0  0  0  0  0  0  0  0
   36.4400   27.8810   32.5470 C   0  0  0  0  0  0  0  0  0  0  0  0
   39.5280   27.0770   33.4460 H   0  0  0  0  0  0  0  0  0  0  0  0
   39.7810   26.8950   30.9950 H   0  0  0  0  0  0  0  0  0  0  0  0
   37.8930   27.3450   29.5160 H   0  0  0  0  0  0  0  0  0  0  0  0
   35.6760   27.9980   30.5230 H   0  0  0  0  0  0  0  0  0  0  0  0
   35.4500   28.1700   32.9260 H   0  0  0  0  0  0  0  0  0  0  0  0
   37.5730   25.4180   35.7030 C   0  0  0  0  0  3  0  0  0  0  0  0
   37.9820   26.6500   35.5880 C   0  0  0  0  0  3  0  0  0  0  0  0
   38.7540   23.2740   38.4370 C   0  0  0  0  0  0  0  0  0  0  0  0
   39.9550   22.7690   37.8640 C   0  0  0  0  0  0  0  0  0  0  0  0
   40.3250   23.1740   36.5660 C   0  0  0  0  0  0  0  0  0  0  0  0
   39.4830   24.0400   35.9430 N   0  0  0  0  0  0  0  0  0  0  0  0
   38.3670   24.4940   36.5060 C   0  0  0  0  0  0  0  0  0  0  0  0
   38.0090   24.1140   37.7380 N   0  0  0  0  0  0  0  0  0  0  0  0
   38.5270   22.9260   39.4350 H   0  0  0  0  0  0  0  0  0  0  0  0
   40.5560   22.0950   38.4180 H   0  0  0  0  0  0  0  0  0  0  0  0
   41.5640   22.6700   35.9370 C   0  0  0  0  0  3  0  0  0  0  0  0
   42.8820   23.3420   36.2960 C   0  0  0  0  0  2  0  0  0  0  0  0
   42.5720   21.9420   36.7050 C   0  0  0  0  0  2  0  0  0  0  0  0
  1  3  1  0  0  0  0
  1  2  1  0  0  0  0
  1 16  1  0  0  0  0
  4  1  1  0  0  0  0
  5  4  1  0  0  0  0
  5 10  1  0  0  0  0
  6  5  2  0  0  0  0
  7  8  2  0  0  0  0
  7  6  1  0  0  0  0
  8  9  1  0  0  0  0
  9 14  1  0  0  0  0
  9  4  2  0  0  0  0
 11  6  1  0  0  0  0
 12  7  1  0  0  0  0
 13  8  1  0  0  0  0
 15 21  1  0  0  0  0
 16 15  2  0  0  0  0
 17 23  1  0  0  0  0
 18 24  1  0  0  0  0
 18 17  1  0  0  0  0
 19 18  2  0  0  0  0
 20 21  2  0  0  0  0
 20 19  1  0  0  0  0
 21 22  1  0  0  0  0
 22 17  2  0  0  0  0
 25 26  1  0  0  0  0
 25 19  1  0  0  0  0
 25 27  1  0  0  0  0
 26 27  1  0  0  0  0
M  END
>  <minimizedAffinity>
-4.86772013

$$$$

 OpenBabel03272509063D

 27 29  0  0  0  0  0  0  0  0999 V2000
   36.1500   28.3210   33.5260 C   0  0  0  0  0  0  0  0  0  0  0  0
   36.2860   28.7140   32.4840 H   0  0  0  0  0  0  0  0  0  0  0  0
   35.3160   27.6030   33.5530 H   0  0  0  0  0  0  0  0  0  0  0  0
   37.4530   27.7110   33.9480 C   0  0  0  0  0  0  0  0  0  0  0  0
   38.4000   27.1860   33.1110 C   0  0  0  0  0  0  0  0  0  0  0  0
   39.5610   26.6510   33.6180 C   0  0  0  0  0  0  0  0  0  0  0  0
   39.8140   26.6240   34.9820 C   0  0  0  0  0  0  0  0  0  0  0  0
   38.8730   27.1460   35.8260 C   0  0  0  0  0  0  0  0  0  0  0  0
   37.7080   27.6840   35.3300 C   0  0  0  0  0  0  0  0  0  0  0  0
   38.1170   27.2510   32.0690 H   0  0  0  0  0  0  0  0  0  0  0  0
   40.2410   26.2630   32.8570 H   0  0  0  0  0  0  0  0  0  0  0  0
   40.7590   26.1780   35.2400 H   0  0  0  0  0  0  0  0  0  0  0  0
   39.0980   27.1110   36.8900 H   0  0  0  0  0  0  0  0  0  0  0  0
   37.0250   28.0730   36.0970 H   0  0  0  0  0  0  0  0  0  0  0  0
   34.5750   29.8860   34.6460 C   0  0  0  0  0  3  0  0  0  0  0  0
   35.7770   29.4740   34.3530 C   0  0  0  0  0  3  0  0  0  0  0  0
   33.4270   32.2350   37.2200 C   0  0  0  0  0  0  0  0  0  0  0  0
   34.3010   33.3300   36.9740 C   0  0  0  0  0  0  0  0  0  0  0  0
   35.2530   33.2360   35.9390 C   0  0  0  0  0  0  0  0  0  0  0  0
   35.2640   32.0720   35.2360 N   0  0  0  0  0  0  0  0  0  0  0  0
   34.4330   31.0660   35.4920 C   0  0  0  0  0  0  0  0  0  0  0  0
   33.5270   31.1480   36.4730 N   0  0  0  0  0  0  0  0  0  0  0  0
   32.7200   32.3690   38.0270 H   0  0  0  0  0  0  0  0  0  0  0  0
   34.2270   34.2040   37.5690 H   0  0  0  0  0  0  0  0  0  0  0  0
   36.1770   34.3530   35.6520 C   0  0  0  0  0  3  0  0  0  0  0  0
   37.6280   34.0270   35.3270 C   0  0  0  0  0  2  0  0  0  0  0  0
   36.6980   34.5910   34.3070 C   0  0  0  0  0  2  0  0  0  0  0  0
  1  3  1  0  0  0  0
  1  4  1  0  0  0  0
  1 16  1  0  0  0  0
  2  1  1  0  0  0  0
  4  9  1  0  0  0  0
  5  6  1  0  0  0  0
  5  4  2  0  0  0  0
  6  7  2  0  0  0  0
  7 12  1  0  0  0  0
  7  8  1  0  0  0  0
  8 13  1  0  0  0  0
  9  8  2  0  0  0  0
  9 14  1  0  0  0  0
 10  5  1  0  0  0  0
 11  6  1  0  0  0  0
 15 21  1  0  0  0  0
 16 15  2  0  0  0  0
 17 23  1  0  0  0  0
 18 17  1  0  0  0  0
 18 24  1  0  0  0  0
 19 18  2  0  0  0  0
 20 21  2  0  0  0  0
 20 19  1  0  0  0  0
 21 22  1  0  0  0  0
 22 17  2  0  0  0  0
 25 19  1  0  0  0  0
 26 25  1  0  0  0  0
 27 26  1  0  0  0  0
 27 25  1  0  0  0  0
M  END
>  <minimizedAffinity>
-4.81315756

$$$$

 OpenBabel03272509063D

 27 29  0  0  0  0  0  0  0  0999 V2000
   35.3460   30.1520   33.8900 C   0  0  0  0  0  0  0  0  0  0  0  0
   34.5880   29.9770   33.0820 H   0  0  0  0  0  0  0  0  0  0  0  0
   36.1380   30.8260   33.5250 H   0  0  0  0  0  0  0  0  0  0  0  0
   34.6170   30.7050   35.0770 C   0  0  0  0  0  0  0  0  0  0  0  0
   33.3230   30.4230   35.4250 C   0  0  0  0  0  0  0  0  0  0  0  0
   32.7600   30.9940   36.5430 C   0  0  0  0  0  0  0  0  0  0  0  0
   33.4730   31.8680   37.3500 C   0  0  0  0  0  0  0  0  0  0  0  0
   34.7660   32.1550   37.0100 C   0  0  0  0  0  0  0  0  0  0  0  0
   35.3400   31.5900   35.8950 C   0  0  0  0  0  0  0  0  0  0  0  0
   32.8480   29.7340   34.7390 H   0  0  0  0  0  0  0  0  0  0  0  0
   31.7250   30.6950   36.7200 H   0  0  0  0  0  0  0  0  0  0  0  0
   32.9110   32.2400   38.1900 H   0  0  0  0  0  0  0  0  0  0  0  0
   35.3010   32.8440   37.6610 H   0  0  0  0  0  0  0  0  0  0  0  0
   36.3810   31.8910   35.7170 H   0  0  0  0  0  0  0  0  0  0  0  0
   36.5640   28.0590   33.3230 C   0  0  0  0  0  3  0  0  0  0  0  0
   35.9580   28.8480   34.1650 C   0  0  0  0  0  3  0  0  0  0  0  0
   37.9900   25.4680   35.4930 C   0  0  0  0  0  0  0  0  0  0  0  0
   38.0780   24.3850   34.5740 C   0  0  0  0  0  0  0  0  0  0  0  0
   37.6490   24.5710   33.2440 C   0  0  0  0  0  0  0  0  0  0  0  0
   37.1710   25.8050   32.9330 N   0  0  0  0  0  0  0  0  0  0  0  0
   37.1030   26.7970   33.8160 C   0  0  0  0  0  0  0  0  0  0  0  0
   37.5070   26.6280   35.0810 N   0  0  0  0  0  0  0  0  0  0  0  0
   38.3350   25.2610   36.4970 H   0  0  0  0  0  0  0  0  0  0  0  0
   38.4630   23.4530   34.8970 H   0  0  0  0  0  0  0  0  0  0  0  0
   37.7250   23.4710   32.2600 C   0  0  0  0  0  3  0  0  0  0  0  0
   36.4350   22.7710   31.8560 C   0  0  0  0  0  2  0  0  0  0  0  0
   37.2050   23.6200   30.9020 C   0  0  0  0  0  2  0  0  0  0  0  0
  1 16  1  0  0  0  0
  1  4  1  0  0  0  0
  2  1  1  0  0  0  0
  3  1  1  0  0  0  0
  4  5  2  0  0  0  0
  4  9  1  0  0  0  0
  5  6  1  0  0  0  0
  6 11  1  0  0  0  0
  6  7  2  0  0  0  0
  7 12  1  0  0  0  0
  8  7  1  0  0  0  0
  8 13  1  0  0  0  0
  9  8  2  0  0  0  0
 10  5  1  0  0  0  0
 14  9  1  0  0  0  0
 15 21  1  0  0  0  0
 15 16  2  0  0  0  0
 17 23  1  0  0  0  0
 18 24  1  0  0  0  0
 18 17  2  0  0  0  0
 19 18  1  0  0  0  0
 20 19  2  0  0  0  0
 20 21  1  0  0  0  0
 21 22  2  0  0  0  0
 22 17  1  0  0  0  0
 25 19  1  0  0  0  0
 26 25  1  0  0  0  0
 27 26  1  0  0  0  0
 27 25  1  0  0  0  0
M  END
>  <minimizedAffinity>
-4.80456066

$$$$
