
 OpenBabel03272509273D

 35 37  0  0  1  0  0  0  0  0999 V2000
   39.3820   32.0930   47.0800 C   0  0  2  0  0  0  0  0  0  0  0  0
   39.9020   33.3060   46.3830 C   0  0  0  0  0  0  0  0  0  0  0  0
   40.3970   32.9250   45.0220 C   0  0  0  0  0  0  0  0  0  0  0  0
   40.8480   31.5190   44.9130 C   0  0  0  0  0  0  0  0  0  0  0  0
   39.8730   30.4680   45.3120 C   0  0  0  0  0  0  0  0  0  0  0  0
   38.7610   31.1290   46.1230 C   0  0  2  0  0  0  0  0  0  0  0  0
   40.2340   31.5230   47.5630 H   0  0  0  0  0  0  0  0  0  0  0  0
   40.5850   33.9160   46.9860 H   0  0  0  0  0  0  0  0  0  0  0  0
   39.0080   33.9760   46.2090 H   0  0  0  0  0  0  0  0  0  0  0  0
   41.3740   33.5340   44.9320 H   0  0  0  0  0  0  0  0  0  0  0  0
   39.8230   33.3410   44.1770 H   0  0  0  0  0  0  0  0  0  0  0  0
   41.0810   31.3300   43.8230 H   0  0  0  0  0  0  0  0  0  0  0  0
   41.8400   31.4070   45.4110 H   0  0  0  0  0  0  0  0  0  0  0  0
   39.4850   29.8620   44.4900 H   0  0  0  0  0  0  0  0  0  0  0  0
   40.4050   29.7690   45.9930 H   0  0  0  0  0  0  0  0  0  0  0  0
   38.3480   30.3000   46.7460 H   0  0  0  0  0  0  0  0  0  0  0  0
   37.6770   31.6310   45.2400 C   0  0  0  0  0  0  0  0  0  0  0  0
   36.4720   30.6380   45.1780 C   0  0  0  0  0  0  0  0  0  0  0  0
   37.2560   30.9340   43.9970 C   0  0  0  0  0  0  0  0  0  0  0  0
   38.1960   32.5630   48.3390 S   0  0  0  0  0  0  0  0  0  0  0  0
   38.3520   31.6380   49.8800 C   0  0  0  0  0  0  0  0  0  0  0  0
   39.4310   31.7220   50.2380 H   0  0  0  0  0  0  0  0  0  0  0  0
   37.7770   32.0520   50.6940 H   0  0  0  0  0  0  0  0  0  0  0  0
   38.1740   30.1700   49.5920 C   0  0  0  0  0  0  0  0  0  0  0  0
   38.4560   29.9990   48.5100 H   0  0  0  0  0  0  0  0  0  0  0  0
   38.7600   29.4990   50.2590 H   0  0  0  0  0  0  0  0  0  0  0  0
   34.8230   29.1710   50.9280 C   0  0  0  0  0  0  0  0  0  0  0  0
   36.1600   29.5740   50.8770 C   0  0  0  0  0  0  0  0  0  0  0  0
   36.7850   29.7410   49.6790 C   0  0  0  0  0  0  0  0  0  0  0  0
   36.0660   29.5010   48.5350 N   0  0  0  0  0  0  0  0  0  0  0  0
   34.7880   29.1160   48.6070 C   0  0  0  0  0  0  0  0  0  0  0  0
   34.1430   28.9430   49.7690 N   0  0  0  0  0  0  0  0  0  0  0  0
   34.2580   29.0160   51.8230 H   0  0  0  0  0  0  0  0  0  0  0  0
   36.5540   29.7220   51.8680 H   0  0  0  0  0  0  0  0  0  0  0  0
   34.3110   28.9520   47.6330 H   0  0  0  0  0  0  0  0  0  0  0  0
  1  7  1  1  0  0  0
  1 20  1  0  0  0  0
  2  8  1  0  0  0  0
  2  1  1  0  0  0  0
  3  2  1  0  0  0  0
  4  3  1  0  0  0  0
  4  5  1  0  0  0  0
  4 13  1  0  0  0  0
  5 15  1  0  0  0  0
  5  6  1  0  0  0  0
  6 16  1  1  0  0  0
  6  1  1  0  0  0  0
  9  2  1  0  0  0  0
 10  3  1  0  0  0  0
 11  3  1  0  0  0  0
 12  4  1  0  0  0  0
 14  5  1  0  0  0  0
 17  6  1  0  0  0  0
 18 17  1  0  0  0  0
 19 18  1  0  0  0  0
 19 17  1  0  0  0  0
 20 21  1  0  0  0  0
 21 22  1  0  0  0  0
 21 23  1  0  0  0  0
 24 29  1  0  0  0  0
 24 21  1  0  0  0  0
 24 26  1  0  0  0  0
 25 24  1  0  0  0  0
 27 33  1  0  0  0  0
 28 27  1  0  0  0  0
 28 34  1  0  0  0  0
 29 28  2  0  0  0  0
 30 31  2  0  0  0  0
 30 29  1  0  0  0  0
 31 32  1  0  0  0  0
 32 27  2  0  0  0  0
 35 31  1  0  0  0  0
M  END
>  <minimizedAffinity>
-5.0391221

>  <minimizedRMSD>
2.98905134

$$$$
