
 OpenBabel03272507053D

 25 28  0  0  0  0  0  0  0  0999 V2000
   35.9190   29.2190   49.5250 C   0  0  0  0  0  0  0  0  0  0  0  0
   35.8560   30.2250   48.5760 C   0  0  0  0  0  0  0  0  0  0  0  0
   34.7990   30.2870   47.7060 C   0  0  0  0  0  0  0  0  0  0  0  0
   33.7790   29.3540   47.7560 C   0  0  0  0  0  0  0  0  0  0  0  0
   32.6470   29.1990   47.0170 N   0  0  0  0  0  0  0  0  0  0  0  0
   32.0670   28.1020   47.5520 C   0  0  0  0  0  0  0  0  0  0  0  0
   32.8030   27.6010   48.5700 N   0  0  0  0  0  0  0  0  0  0  0  0
   33.8860   28.3760   48.7140 C   0  0  0  0  0  0  0  0  0  0  0  0
   34.9170   28.2660   49.6070 C   0  0  0  0  0  0  0  0  0  0  0  0
   36.7540   29.1730   50.2090 H   0  0  0  0  0  0  0  0  0  0  0  0
   34.8070   31.1010   46.9830 H   0  0  0  0  0  0  0  0  0  0  0  0
   32.3500   29.8140   46.2390 H   0  0  0  0  0  0  0  0  0  0  0  0
   31.1180   27.7640   47.1200 H   0  0  0  0  0  0  0  0  0  0  0  0
   34.9280   27.4600   50.3380 H   0  0  0  0  0  0  0  0  0  0  0  0
   38.1040   32.9970   49.4510 C   0  0  0  0  0  0  0  0  0  0  0  0
   38.9740   33.0450   48.3430 C   0  0  0  0  0  0  0  0  0  0  0  0
   38.7550   32.1000   47.3000 C   0  0  0  0  0  0  0  0  0  0  0  0
   37.7310   31.2060   47.4180 N   0  0  0  0  0  0  0  0  0  0  0  0
   36.9300   31.2120   48.5110 C   0  0  0  0  0  0  0  0  0  0  0  0
   37.1190   32.0910   49.4990 N   0  0  0  0  0  0  0  0  0  0  0  0
   38.2770   33.7080   50.2250 H   0  0  0  0  0  0  0  0  0  0  0  0
   39.7810   33.7400   48.2370 H   0  0  0  0  0  0  0  0  0  0  0  0
   39.6080   32.0680   46.1020 C   0  0  0  0  0  0  0  0  0  0  0  0
   40.2700   33.2520   45.5370 C   0  0  0  0  0  0  0  0  0  0  0  0
   39.0200   32.7250   44.8750 C   0  0  0  0  0  0  0  0  0  0  0  0
  1  9  1  0  0  0  0
  1 10  1  0  0  0  0
  2  1  2  0  0  0  0
  3  4  2  0  0  0  0
  3  2  1  0  0  0  0
  4  8  1  0  0  0  0
  5  6  1  0  0  0  0
  5  4  1  0  0  0  0
  6  7  2  0  0  0  0
  7  8  1  0  0  0  0
  8  9  2  0  0  0  0
  9 14  1  0  0  0  0
 11  3  1  0  0  0  0
 12  5  1  0  0  0  0
 13  6  1  0  0  0  0
 15 20  1  0  0  0  0
 15 21  1  0  0  0  0
 16 15  2  0  0  0  0
 17 18  2  0  0  0  0
 17 16  1  0  0  0  0
 18 19  1  0  0  0  0
 19  2  1  0  0  0  0
 19 20  2  0  0  0  0
 22 16  1  0  0  0  0
 23 17  1  0  0  0  0
 24 23  1  0  0  0  0
 25 24  1  0  0  0  0
 25 23  1  0  0  0  0
M  END
>  <minimizedAffinity>
-6.35334826

>  <minimizedRMSD>
2.13555312

$$$$
