
 OpenBabel03272502393D

 34 37  0  0  1  0  0  0  0  0999 V2000
   32.6490   28.0740   48.1590 N   0  0  0  0  0  0  0  0  0  0  0  0
   33.5360   27.9570   47.0120 C   0  0  0  0  0  0  0  0  0  0  0  0
   34.7510   28.7240   47.4400 C   0  0  0  0  0  0  0  0  0  0  0  0
   34.3240   29.4290   48.8110 C   0  0  1  0  0  0  0  0  0  0  0  0
   33.4600   28.3770   49.3550 C   0  0  0  0  0  0  0  0  0  0  0  0
   33.0770   28.5470   46.1670 H   0  0  0  0  0  0  0  0  0  0  0  0
   33.7390   26.9310   46.7120 H   0  0  0  0  0  0  0  0  0  0  0  0
   35.5120   27.9930   47.7910 H   0  0  0  0  0  0  0  0  0  0  0  0
   35.1100   29.4760   46.7460 H   0  0  0  0  0  0  0  0  0  0  0  0
   33.8180   30.2830   48.3550 H   0  0  0  0  0  0  0  0  0  0  0  0
   32.7940   28.7580   50.1560 H   0  0  0  0  0  0  0  0  0  0  0  0
   33.9940   27.4580   49.6780 H   0  0  0  0  0  0  0  0  0  0  0  0
   36.3520   31.1010   47.7410 F   0  0  0  0  0  0  0  0  0  0  0  0
   36.4280   30.5880   48.9870 C   0  0  0  0  0  0  0  0  0  0  0  0
   35.5450   29.7170   49.5690 C   0  0  0  0  0  0  0  0  0  0  0  0
   35.8160   29.2600   50.8720 C   0  0  0  0  0  0  0  0  0  0  0  0
   36.9370   29.6700   51.5630 C   0  0  0  0  0  0  0  0  0  0  0  0
   37.8220   30.5570   50.9510 C   0  0  0  0  0  0  0  0  0  0  0  0
   37.5540   31.0120   49.6510 C   0  0  0  0  0  0  0  0  0  0  0  0
   35.0570   28.5800   51.2300 H   0  0  0  0  0  0  0  0  0  0  0  0
   37.0520   29.2620   52.5580 H   0  0  0  0  0  0  0  0  0  0  0  0
   38.6890   30.8540   51.5250 H   0  0  0  0  0  0  0  0  0  0  0  0
   38.5810   31.9500   49.1440 C   0  0  0  0  0  0  0  0  0  0  0  0
   38.3300   33.4220   49.1880 C   0  0  0  0  0  0  0  0  0  0  0  0
   38.5080   32.6300   47.8520 C   0  0  0  0  0  0  0  0  0  0  0  0
   31.2460   27.9370   48.1650 C   0  0  0  0  0  0  0  0  0  0  0  0
   30.5780   28.4140   47.0280 C   0  0  0  0  0  0  0  0  0  0  0  0
   29.1780   28.3130   46.9780 C   0  0  0  0  0  0  0  0  0  0  0  0
   28.5580   27.7400   48.0730 N   0  0  0  0  0  0  0  0  0  0  0  0
   29.2410   27.2960   49.1440 C   0  0  0  0  0  0  0  0  0  0  0  0
   30.5830   27.3960   49.1840 N   0  0  0  0  0  0  0  0  0  0  0  0
   31.0100   28.8640   46.1550 H   0  0  0  0  0  0  0  0  0  0  0  0
   28.6150   28.6610   46.1340 H   0  0  0  0  0  0  0  0  0  0  0  0
   28.6470   26.8690   49.9380 H   0  0  0  0  0  0  0  0  0  0  0  0
  1 26  1  0  0  0  0
  1  5  1  0  0  0  0
  2  3  1  0  0  0  0
  2  1  1  0  0  0  0
  3  8  1  0  0  0  0
  3  4  1  0  0  0  0
  4 10  1  6  0  0  0
  4  5  1  0  0  0  0
  4 15  1  0  0  0  0
  5 12  1  0  0  0  0
  5 11  1  0  0  0  0
  6  2  1  0  0  0  0
  7  2  1  0  0  0  0
  9  3  1  0  0  0  0
 13 14  1  0  0  0  0
 14 15  2  0  0  0  0
 14 19  1  0  0  0  0
 15 16  1  0  0  0  0
 16 20  1  0  0  0  0
 16 17  2  0  0  0  0
 17 21  1  0  0  0  0
 18 22  1  0  0  0  0
 18 17  1  0  0  0  0
 19 18  2  0  0  0  0
 23 24  1  0  0  0  0
 23 19  1  0  0  0  0
 25 23  1  0  0  0  0
 25 24  1  0  0  0  0
 26 31  1  0  0  0  0
 27 26  2  0  0  0  0
 28 27  1  0  0  0  0
 28 29  2  0  0  0  0
 29 30  1  0  0  0  0
 30 31  2  0  0  0  0
 30 34  1  0  0  0  0
 32 27  1  0  0  0  0
 33 28  1  0  0  0  0
M  END
>  <minimizedAffinity>
-6.74447966

>  <minimizedRMSD>
2.53907704

$$$$
