
 OpenBabel03272505013D

 22 24  0  0  0  0  0  0  0  0999 V2000
   35.9170   20.7850   35.9310 Cl  0  0  0  0  0  0  0  0  0  0  0  0
   36.7450   21.4770   34.5450 C   0  0  0  0  0  0  0  0  0  0  0  0
   37.7980   22.3230   34.7620 C   0  0  0  0  0  0  0  0  0  0  0  0
   38.4070   22.8330   33.6230 C   0  0  0  0  0  0  0  0  0  0  0  0
   37.9430   22.4790   32.3560 C   0  0  0  0  0  0  0  0  0  0  0  0
   36.8830   21.6250   32.1920 C   0  0  0  0  0  0  0  0  0  0  0  0
   36.2750   21.1170   33.3160 C   0  0  0  0  0  0  0  0  0  0  0  0
   39.2460   23.5090   33.7520 H   0  0  0  0  0  0  0  0  0  0  0  0
   38.4870   22.9300   31.5400 H   0  0  0  0  0  0  0  0  0  0  0  0
   36.5820   21.3990   31.1980 H   0  0  0  0  0  0  0  0  0  0  0  0
   37.5060   23.5100   36.9370 C   0  0  0  0  0  0  0  0  0  0  0  0
   38.2910   22.7010   36.0920 C   0  0  0  0  0  0  0  0  0  0  0  0
   39.5330   22.2730   36.5420 C   0  0  0  0  0  0  0  0  0  0  0  0
   39.9310   22.6590   37.7840 N   0  0  0  0  0  0  0  0  0  0  0  0
   39.1750   23.4300   38.5810 C   0  0  0  0  0  0  0  0  0  0  0  0
   37.9620   23.8540   38.1550 N   0  0  0  0  0  0  0  0  0  0  0  0
   36.5350   23.8620   36.6180 H   0  0  0  0  0  0  0  0  0  0  0  0
   40.0790   21.6660   35.8590 H   0  0  0  0  0  0  0  0  0  0  0  0
   39.6230   23.6580   39.5480 H   0  0  0  0  0  0  0  0  0  0  0  0
   35.1190   20.1870   33.1580 C   0  0  0  0  0  3  0  0  0  0  0  0
   35.5670   18.7500   32.8330 C   0  0  0  0  0  2  0  0  0  0  0  0
   34.8340   19.5760   31.8380 C   0  0  0  0  0  2  0  0  0  0  0  0
  2  3  1  0  0  0  0
  2  1  1  0  0  0  0
  3 12  1  0  0  0  0
  4  8  1  0  0  0  0
  4  3  2  0  0  0  0
  5  4  1  0  0  0  0
  6  5  2  0  0  0  0
  6  7  1  0  0  0  0
  7  2  2  0  0  0  0
  9  5  1  0  0  0  0
 10  6  1  0  0  0  0
 11 16  1  0  0  0  0
 12 13  1  0  0  0  0
 12 11  2  0  0  0  0
 13 14  2  0  0  0  0
 14 15  1  0  0  0  0
 15 19  1  0  0  0  0
 16 15  2  0  0  0  0
 17 11  1  0  0  0  0
 18 13  1  0  0  0  0
 20  7  1  0  0  0  0
 21 20  1  0  0  0  0
 22 21  1  0  0  0  0
 22 20  1  0  0  0  0
M  END
>  <minimizedAffinity>
-4.77707005

$$$$

 OpenBabel03272505013D

 22 24  0  0  0  0  0  0  0  0999 V2000
   37.8670   23.7580   33.3850 Cl  0  0  0  0  0  0  0  0  0  0  0  0
   37.8440   25.3190   34.1900 C   0  0  0  0  0  0  0  0  0  0  0  0
   38.4860   25.4500   35.3920 C   0  0  0  0  0  0  0  0  0  0  0  0
   38.4280   26.7100   35.9720 C   0  0  0  0  0  0  0  0  0  0  0  0
   37.7480   27.7490   35.3370 C   0  0  0  0  0  0  0  0  0  0  0  0
   37.1190   27.5660   34.1320 C   0  0  0  0  0  0  0  0  0  0  0  0
   37.1730   26.3200   33.5520 C   0  0  0  0  0  0  0  0  0  0  0  0
   38.9250   26.8550   36.9260 H   0  0  0  0  0  0  0  0  0  0  0  0
   37.7640   28.6860   35.8730 H   0  0  0  0  0  0  0  0  0  0  0  0
   36.6190   28.4010   33.7050 H   0  0  0  0  0  0  0  0  0  0  0  0
   40.4610   23.9390   35.5900 C   0  0  0  0  0  0  0  0  0  0  0  0
   39.2030   24.3620   36.0650 C   0  0  0  0  0  0  0  0  0  0  0  0
   38.6630   23.7280   37.1760 C   0  0  0  0  0  0  0  0  0  0  0  0
   39.3780   22.7270   37.7530 N   0  0  0  0  0  0  0  0  0  0  0  0
   40.5750   22.3320   37.2930 C   0  0  0  0  0  0  0  0  0  0  0  0
   41.1160   22.9400   36.2100 N   0  0  0  0  0  0  0  0  0  0  0  0
   40.9120   24.4090   34.7270 H   0  0  0  0  0  0  0  0  0  0  0  0
   37.7110   24.0920   37.4860 H   0  0  0  0  0  0  0  0  0  0  0  0
   41.0320   21.5180   37.8560 H   0  0  0  0  0  0  0  0  0  0  0  0
   36.4950   26.1010   32.2410 C   0  0  0  0  0  3  0  0  0  0  0  0
   37.3710   26.5350   31.0520 C   0  0  0  0  0  2  0  0  0  0  0  0
   36.1200   27.2600   31.3970 C   0  0  0  0  0  2  0  0  0  0  0  0
  1  2  1  0  0  0  0
  2  3  1  0  0  0  0
  3  4  2  0  0  0  0
  3 12  1  0  0  0  0
  4  8  1  0  0  0  0
  5  9  1  0  0  0  0
  5  4  1  0  0  0  0
  6  5  2  0  0  0  0
  7  6  1  0  0  0  0
  7  2  2  0  0  0  0
 10  6  1  0  0  0  0
 11 12  2  0  0  0  0
 11 16  1  0  0  0  0
 12 13  1  0  0  0  0
 13 18  1  0  0  0  0
 13 14  2  0  0  0  0
 15 14  1  0  0  0  0
 15 19  1  0  0  0  0
 16 15  2  0  0  0  0
 17 11  1  0  0  0  0
 20  7  1  0  0  0  0
 21 22  1  0  0  0  0
 21 20  1  0  0  0  0
 22 20  1  0  0  0  0
M  END
>  <minimizedAffinity>
-4.55568314

$$$$

 OpenBabel03272505013D

 22 24  0  0  0  0  0  0  0  0999 V2000
   36.0060   29.8280   34.9130 Cl  0  0  0  0  0  0  0  0  0  0  0  0
   36.2090   28.4870   33.7960 C   0  0  0  0  0  0  0  0  0  0  0  0
   35.5190   28.5050   32.6140 C   0  0  0  0  0  0  0  0  0  0  0  0
   35.7250   27.4150   31.7790 C   0  0  0  0  0  0  0  0  0  0  0  0
   36.5890   26.3890   32.1580 C   0  0  0  0  0  0  0  0  0  0  0  0
   37.2580   26.4180   33.3550 C   0  0  0  0  0  0  0  0  0  0  0  0
   37.0580   27.4940   34.1870 C   0  0  0  0  0  0  0  0  0  0  0  0
   35.1960   27.3920   30.8310 H   0  0  0  0  0  0  0  0  0  0  0  0
   36.6780   25.5910   31.4370 H   0  0  0  0  0  0  0  0  0  0  0  0
   37.9010   25.6020   33.5800 H   0  0  0  0  0  0  0  0  0  0  0  0
   35.0670   30.6270   31.3810 C   0  0  0  0  0  0  0  0  0  0  0  0
   34.6070   29.5810   32.2080 C   0  0  0  0  0  0  0  0  0  0  0  0
   33.2850   29.5950   32.6280 C   0  0  0  0  0  0  0  0  0  0  0  0
   32.4930   30.6210   32.2170 N   0  0  0  0  0  0  0  0  0  0  0  0
   32.9400   31.6110   31.4290 C   0  0  0  0  0  0  0  0  0  0  0  0
   34.2280   31.6120   31.0120 N   0  0  0  0  0  0  0  0  0  0  0  0
   36.0910   30.6480   31.0360 H   0  0  0  0  0  0  0  0  0  0  0  0
   32.9980   28.7800   33.2500 H   0  0  0  0  0  0  0  0  0  0  0  0
   32.1930   32.3660   31.1800 H   0  0  0  0  0  0  0  0  0  0  0  0
   37.7760   27.5450   35.4940 C   0  0  0  0  0  3  0  0  0  0  0  0
   39.2610   27.1640   35.3580 C   0  0  0  0  0  2  0  0  0  0  0  0
   38.3050   26.2980   36.0970 C   0  0  0  0  0  2  0  0  0  0  0  0
  2  7  1  0  0  0  0
  2  1  1  0  0  0  0
  3  2  2  0  0  0  0
  4  5  2  0  0  0  0
  4  3  1  0  0  0  0
  5  6  1  0  0  0  0
  6 10  1  0  0  0  0
  6  7  2  0  0  0  0
  7 20  1  0  0  0  0
  8  4  1  0  0  0  0
  9  5  1  0  0  0  0
 11 12  1  0  0  0  0
 12  3  1  0  0  0  0
 12 13  2  0  0  0  0
 13 18  1  0  0  0  0
 14 13  1  0  0  0  0
 15 14  2  0  0  0  0
 16 11  2  0  0  0  0
 16 15  1  0  0  0  0
 17 11  1  0  0  0  0
 19 15  1  0  0  0  0
 20 22  1  0  0  0  0
 21 20  1  0  0  0  0
 21 22  1  0  0  0  0
M  END
>  <minimizedAffinity>
-4.47340965

$$$$

 OpenBabel03272505013D

 22 24  0  0  0  0  0  0  0  0999 V2000
   38.7570   26.9530   35.3780 Cl  0  0  0  0  0  0  0  0  0  0  0  0
   38.3980   25.6680   34.2350 C   0  0  0  0  0  0  0  0  0  0  0  0
   38.3210   24.3810   34.6940 C   0  0  0  0  0  0  0  0  0  0  0  0
   38.0340   23.4160   33.7370 C   0  0  0  0  0  0  0  0  0  0  0  0
   37.8430   23.7790   32.4040 C   0  0  0  0  0  0  0  0  0  0  0  0
   37.9310   25.0840   31.9950 C   0  0  0  0  0  0  0  0  0  0  0  0
   38.2150   26.0450   32.9370 C   0  0  0  0  0  0  0  0  0  0  0  0
   37.9640   22.3820   34.0610 H   0  0  0  0  0  0  0  0  0  0  0  0
   37.6250   22.9530   31.7440 H   0  0  0  0  0  0  0  0  0  0  0  0
   37.7750   25.2890   30.9640 H   0  0  0  0  0  0  0  0  0  0  0  0
   39.6880   23.3030   36.4810 C   0  0  0  0  0  0  0  0  0  0  0  0
   38.5210   23.9920   36.0950 C   0  0  0  0  0  0  0  0  0  0  0  0
   37.5720   24.2910   37.0620 C   0  0  0  0  0  0  0  0  0  0  0  0
   37.8170   23.9030   38.3420 N   0  0  0  0  0  0  0  0  0  0  0  0
   38.9320   23.2470   38.6990 C   0  0  0  0  0  0  0  0  0  0  0  0
   39.8670   22.9480   37.7660 N   0  0  0  0  0  0  0  0  0  0  0  0
   40.4470   23.0520   35.7530 H   0  0  0  0  0  0  0  0  0  0  0  0
   36.7130   24.8120   36.7090 H   0  0  0  0  0  0  0  0  0  0  0  0
   38.9930   22.9990   39.7600 H   0  0  0  0  0  0  0  0  0  0  0  0
   38.3160   27.4710   32.5120 C   0  0  0  0  0  3  0  0  0  0  0  0
   36.9400   28.1580   32.4430 C   0  0  0  0  0  2  0  0  0  0  0  0
   37.7380   27.9010   31.2160 C   0  0  0  0  0  2  0  0  0  0  0  0
  2  3  1  0  0  0  0
  2  1  1  0  0  0  0
  3 12  1  0  0  0  0
  4  8  1  0  0  0  0
  4  3  2  0  0  0  0
  5  4  1  0  0  0  0
  6  5  2  0  0  0  0
  6  7  1  0  0  0  0
  7  2  2  0  0  0  0
  9  5  1  0  0  0  0
 10  6  1  0  0  0  0
 11 16  1  0  0  0  0
 12 11  2  0  0  0  0
 12 13  1  0  0  0  0
 13 14  2  0  0  0  0
 14 15  1  0  0  0  0
 15 19  1  0  0  0  0
 16 15  2  0  0  0  0
 17 11  1  0  0  0  0
 18 13  1  0  0  0  0
 20  7  1  0  0  0  0
 21 20  1  0  0  0  0
 22 21  1  0  0  0  0
 22 20  1  0  0  0  0
M  END
>  <minimizedAffinity>
-4.393538

$$$$

 OpenBabel03272505013D

 22 24  0  0  0  0  0  0  0  0999 V2000
   39.5860   26.5430   31.6730 Cl  0  0  0  0  0  0  0  0  0  0  0  0
   38.9190   26.9470   33.2480 C   0  0  0  0  0  0  0  0  0  0  0  0
   39.7220   26.8330   34.3520 C   0  0  0  0  0  0  0  0  0  0  0  0
   39.1320   27.1680   35.5630 C   0  0  0  0  0  0  0  0  0  0  0  0
   37.8040   27.5890   35.6090 C   0  0  0  0  0  0  0  0  0  0  0  0
   37.0410   27.6870   34.4730 C   0  0  0  0  0  0  0  0  0  0  0  0
   37.6190   27.3560   33.2700 C   0  0  0  0  0  0  0  0  0  0  0  0
   39.7350   27.0910   36.4620 H   0  0  0  0  0  0  0  0  0  0  0  0
   37.4440   27.8250   36.5990 H   0  0  0  0  0  0  0  0  0  0  0  0
   36.0360   28.0140   34.5810 H   0  0  0  0  0  0  0  0  0  0  0  0
   42.1190   27.2380   33.7910 C   0  0  0  0  0  0  0  0  0  0  0  0
   41.1200   26.3900   34.3110 C   0  0  0  0  0  0  0  0  0  0  0  0
   41.4870   25.1360   34.7790 C   0  0  0  0  0  0  0  0  0  0  0  0
   42.8000   24.7870   34.7120 N   0  0  0  0  0  0  0  0  0  0  0  0
   43.7430   25.6010   34.2150 C   0  0  0  0  0  0  0  0  0  0  0  0
   43.4000   26.8280   33.7550 N   0  0  0  0  0  0  0  0  0  0  0  0
   41.8690   28.2210   33.4170 H   0  0  0  0  0  0  0  0  0  0  0  0
   40.6890   24.5420   35.1590 H   0  0  0  0  0  0  0  0  0  0  0  0
   44.7520   25.1870   34.2250 H   0  0  0  0  0  0  0  0  0  0  0  0
   36.8060   27.4560   32.0230 C   0  0  0  0  0  3  0  0  0  0  0  0
   36.8210   28.8750   31.4280 C   0  0  0  0  0  2  0  0  0  0  0  0
   35.5810   28.2890   32.0010 C   0  0  0  0  0  2  0  0  0  0  0  0
  1  2  1  0  0  0  0
  2  7  2  0  0  0  0
  2  3  1  0  0  0  0
  3  4  2  0  0  0  0
  4  5  1  0  0  0  0
  4  8  1  0  0  0  0
  5  9  1  0  0  0  0
  6 10  1  0  0  0  0
  6  5  2  0  0  0  0
  7  6  1  0  0  0  0
 11 12  1  0  0  0  0
 12  3  1  0  0  0  0
 12 13  2  0  0  0  0
 13 18  1  0  0  0  0
 14 13  1  0  0  0  0
 15 19  1  0  0  0  0
 15 14  2  0  0  0  0
 16 11  2  0  0  0  0
 16 15  1  0  0  0  0
 17 11  1  0  0  0  0
 20  7  1  0  0  0  0
 21 22  1  0  0  0  0
 21 20  1  0  0  0  0
 22 20  1  0  0  0  0
M  END
>  <minimizedAffinity>
-4.39260674

$$$$

 OpenBabel03272505013D

 22 24  0  0  0  0  0  0  0  0999 V2000
   38.9260   26.8990   35.1780 Cl  0  0  0  0  0  0  0  0  0  0  0  0
   38.4460   25.6230   34.0690 C   0  0  0  0  0  0  0  0  0  0  0  0
   38.3090   24.3490   34.5510 C   0  0  0  0  0  0  0  0  0  0  0  0
   37.9280   23.3910   33.6210 C   0  0  0  0  0  0  0  0  0  0  0  0
   37.7090   23.7470   32.2910 C   0  0  0  0  0  0  0  0  0  0  0  0
   37.8600   25.0390   31.8580 C   0  0  0  0  0  0  0  0  0  0  0  0
   38.2380   25.9930   32.7740 C   0  0  0  0  0  0  0  0  0  0  0  0
   37.8080   22.3680   33.9630 H   0  0  0  0  0  0  0  0  0  0  0  0
   37.4160   22.9270   31.6520 H   0  0  0  0  0  0  0  0  0  0  0  0
   37.6780   25.2390   30.8300 H   0  0  0  0  0  0  0  0  0  0  0  0
   37.5840   24.2880   36.9380 C   0  0  0  0  0  0  0  0  0  0  0  0
   38.5380   23.9680   35.9490 C   0  0  0  0  0  0  0  0  0  0  0  0
   39.6890   23.2910   36.3270 C   0  0  0  0  0  0  0  0  0  0  0  0
   39.8400   22.9670   37.6390 N   0  0  0  0  0  0  0  0  0  0  0  0
   38.9270   23.2760   38.5720 C   0  0  0  0  0  0  0  0  0  0  0  0
   37.7980   23.9370   38.2190 N   0  0  0  0  0  0  0  0  0  0  0  0
   36.6770   24.8150   36.6790 H   0  0  0  0  0  0  0  0  0  0  0  0
   40.3700   23.0790   35.5370 H   0  0  0  0  0  0  0  0  0  0  0  0
   39.1830   22.9540   39.5820 H   0  0  0  0  0  0  0  0  0  0  0  0
   38.4080   27.4050   32.3220 C   0  0  0  0  0  3  0  0  0  0  0  0
   37.0740   28.1720   32.2900 C   0  0  0  0  0  2  0  0  0  0  0  0
   37.8120   27.8510   31.0400 C   0  0  0  0  0  2  0  0  0  0  0  0
  2  3  1  0  0  0  0
  2  1  1  0  0  0  0
  3 12  1  0  0  0  0
  4  8  1  0  0  0  0
  4  3  2  0  0  0  0
  5  4  1  0  0  0  0
  6  5  2  0  0  0  0
  6  7  1  0  0  0  0
  7  2  2  0  0  0  0
  9  5  1  0  0  0  0
 10  6  1  0  0  0  0
 11 16  1  0  0  0  0
 12 13  1  0  0  0  0
 12 11  2  0  0  0  0
 13 14  2  0  0  0  0
 14 15  1  0  0  0  0
 15 19  1  0  0  0  0
 16 15  2  0  0  0  0
 17 11  1  0  0  0  0
 18 13  1  0  0  0  0
 20  7  1  0  0  0  0
 21 20  1  0  0  0  0
 22 21  1  0  0  0  0
 22 20  1  0  0  0  0
M  END
>  <minimizedAffinity>
-4.35594988

$$$$

 OpenBabel03272505013D

 22 24  0  0  0  0  0  0  0  0999 V2000
   38.1900   23.8410   35.3340 Cl  0  0  0  0  0  0  0  0  0  0  0  0
   39.7670   24.5950   35.1530 C   0  0  0  0  0  0  0  0  0  0  0  0
   39.8330   25.8740   34.6690 C   0  0  0  0  0  0  0  0  0  0  0  0
   41.1090   26.4080   34.5510 C   0  0  0  0  0  0  0  0  0  0  0  0
   42.2250   25.6550   34.9130 C   0  0  0  0  0  0  0  0  0  0  0  0
   42.1060   24.3760   35.3930 C   0  0  0  0  0  0  0  0  0  0  0  0
   40.8440   23.8410   35.5130 C   0  0  0  0  0  0  0  0  0  0  0  0
   41.2050   27.4200   34.1710 H   0  0  0  0  0  0  0  0  0  0  0  0
   43.1690   26.1640   34.7830 H   0  0  0  0  0  0  0  0  0  0  0  0
   42.9980   23.8600   35.6500 H   0  0  0  0  0  0  0  0  0  0  0  0
   37.9480   27.3980   35.2600 C   0  0  0  0  0  0  0  0  0  0  0  0
   38.6620   26.6720   34.2860 C   0  0  0  0  0  0  0  0  0  0  0  0
   38.2360   26.7270   32.9670 C   0  0  0  0  0  0  0  0  0  0  0  0
   37.1440   27.4840   32.6780 N   0  0  0  0  0  0  0  0  0  0  0  0
   36.4710   28.1720   33.6130 C   0  0  0  0  0  0  0  0  0  0  0  0
   36.8750   28.1280   34.9050 N   0  0  0  0  0  0  0  0  0  0  0  0
   38.2520   27.3770   36.2970 H   0  0  0  0  0  0  0  0  0  0  0  0
   38.8150   26.1580   32.2780 H   0  0  0  0  0  0  0  0  0  0  0  0
   35.6160   28.7350   33.2350 H   0  0  0  0  0  0  0  0  0  0  0  0
   40.6920   22.4510   36.0320 C   0  0  0  0  0  3  0  0  0  0  0  0
   40.5870   22.4100   37.5670 C   0  0  0  0  0  2  0  0  0  0  0  0
   41.7650   21.8460   36.8570 C   0  0  0  0  0  2  0  0  0  0  0  0
  2  1  1  0  0  0  0
  2  7  1  0  0  0  0
  3  2  2  0  0  0  0
  4  3  1  0  0  0  0
  4  5  2  0  0  0  0
  5  6  1  0  0  0  0
  6  7  2  0  0  0  0
  6 10  1  0  0  0  0
  7 20  1  0  0  0  0
  8  4  1  0  0  0  0
  9  5  1  0  0  0  0
 11 17  1  0  0  0  0
 12  3  1  0  0  0  0
 12 11  2  0  0  0  0
 13 12  1  0  0  0  0
 14 13  2  0  0  0  0
 14 15  1  0  0  0  0
 15 16  2  0  0  0  0
 16 11  1  0  0  0  0
 18 13  1  0  0  0  0
 19 15  1  0  0  0  0
 20 22  1  0  0  0  0
 20 21  1  0  0  0  0
 22 21  1  0  0  0  0
M  END
>  <minimizedAffinity>
-4.30187035

$$$$

 OpenBabel03272505013D

 22 24  0  0  0  0  0  0  0  0999 V2000
   41.2280   24.7340   34.2440 Cl  0  0  0  0  0  0  0  0  0  0  0  0
   40.4720   24.0230   35.6630 C   0  0  0  0  0  0  0  0  0  0  0  0
   39.2190   24.4420   36.0200 C   0  0  0  0  0  0  0  0  0  0  0  0
   38.6820   23.8400   37.1500 C   0  0  0  0  0  0  0  0  0  0  0  0
   39.4060   22.8730   37.8460 C   0  0  0  0  0  0  0  0  0  0  0  0
   40.6600   22.4870   37.4460 C   0  0  0  0  0  0  0  0  0  0  0  0
   41.1980   23.0800   36.3280 C   0  0  0  0  0  0  0  0  0  0  0  0
   37.6900   24.1440   37.4670 H   0  0  0  0  0  0  0  0  0  0  0  0
   38.8970   22.4680   38.7080 H   0  0  0  0  0  0  0  0  0  0  0  0
   41.1560   21.7450   38.0240 H   0  0  0  0  0  0  0  0  0  0  0  0
   37.8290   25.1380   34.0690 C   0  0  0  0  0  0  0  0  0  0  0  0
   38.4510   25.4590   35.2920 C   0  0  0  0  0  0  0  0  0  0  0  0
   38.3230   26.7490   35.7880 C   0  0  0  0  0  0  0  0  0  0  0  0
   37.5980   27.6430   35.0640 N   0  0  0  0  0  0  0  0  0  0  0  0
   37.0100   27.3280   33.9000 C   0  0  0  0  0  0  0  0  0  0  0  0
   37.1270   26.0730   33.4040 N   0  0  0  0  0  0  0  0  0  0  0  0
   37.9100   24.1430   33.6530 H   0  0  0  0  0  0  0  0  0  0  0  0
   38.8150   26.9300   36.7150 H   0  0  0  0  0  0  0  0  0  0  0  0
   36.4620   28.1460   33.4320 H   0  0  0  0  0  0  0  0  0  0  0  0
   42.5610   22.6740   35.8770 C   0  0  0  0  0  3  0  0  0  0  0  0
   42.5360   21.3970   35.0190 C   0  0  0  0  0  2  0  0  0  0  0  0
   43.1590   21.4100   36.3680 C   0  0  0  0  0  2  0  0  0  0  0  0
  1  2  1  0  0  0  0
  2  3  2  0  0  0  0
  2  7  1  0  0  0  0
  3  4  1  0  0  0  0
  4  8  1  0  0  0  0
  4  5  2  0  0  0  0
  5  9  1  0  0  0  0
  6  5  1  0  0  0  0
  6 10  1  0  0  0  0
  7  6  2  0  0  0  0
 11 12  1  0  0  0  0
 12 13  2  0  0  0  0
 12  3  1  0  0  0  0
 13 18  1  0  0  0  0
 14 13  1  0  0  0  0
 15 14  2  0  0  0  0
 16 15  1  0  0  0  0
 16 11  2  0  0  0  0
 17 11  1  0  0  0  0
 19 15  1  0  0  0  0
 20  7  1  0  0  0  0
 20 22  1  0  0  0  0
 21 20  1  0  0  0  0
 21 22  1  0  0  0  0
M  END
>  <minimizedAffinity>
-4.2716403

$$$$

 OpenBabel03272505013D

 22 24  0  0  0  0  0  0  0  0999 V2000
   36.5480   28.0250   34.7610 Cl  0  0  0  0  0  0  0  0  0  0  0  0
   36.2200   28.9090   33.2780 C   0  0  0  0  0  0  0  0  0  0  0  0
   35.5170   30.0810   33.3530 C   0  0  0  0  0  0  0  0  0  0  0  0
   35.2930   30.7280   32.1450 C   0  0  0  0  0  0  0  0  0  0  0  0
   35.7730   30.1840   30.9540 C   0  0  0  0  0  0  0  0  0  0  0  0
   36.4740   29.0050   30.9330 C   0  0  0  0  0  0  0  0  0  0  0  0
   36.6980   28.3590   32.1260 C   0  0  0  0  0  0  0  0  0  0  0  0
   34.7390   31.6610   32.1610 H   0  0  0  0  0  0  0  0  0  0  0  0
   35.5460   30.7660   30.0740 H   0  0  0  0  0  0  0  0  0  0  0  0
   36.8100   28.6480   29.9900 H   0  0  0  0  0  0  0  0  0  0  0  0
   35.8540   31.4370   35.4200 C   0  0  0  0  0  0  0  0  0  0  0  0
   35.0090   30.6590   34.6020 C   0  0  0  0  0  0  0  0  0  0  0  0
   33.6960   30.4540   35.0040 C   0  0  0  0  0  0  0  0  0  0  0  0
   33.2880   31.0170   36.1720 N   0  0  0  0  0  0  0  0  0  0  0  0
   34.1010   31.7550   36.9440 C   0  0  0  0  0  0  0  0  0  0  0  0
   35.3840   31.9650   36.5650 N   0  0  0  0  0  0  0  0  0  0  0  0
   36.8820   31.6170   35.1390 H   0  0  0  0  0  0  0  0  0  0  0  0
   33.1080   29.8580   34.3450 H   0  0  0  0  0  0  0  0  0  0  0  0
   33.6360   32.1430   37.8510 H   0  0  0  0  0  0  0  0  0  0  0  0
   37.4580   27.0750   32.1240 C   0  0  0  0  0  3  0  0  0  0  0  0
   38.9800   27.2980   32.1950 C   0  0  0  0  0  2  0  0  0  0  0  0
   38.3360   26.7350   30.9790 C   0  0  0  0  0  2  0  0  0  0  0  0
  2  3  1  0  0  0  0
  2  1  1  0  0  0  0
  3 12  1  0  0  0  0
  4  8  1  0  0  0  0
  4  3  2  0  0  0  0
  5  4  1  0  0  0  0
  6  5  2  0  0  0  0
  6  7  1  0  0  0  0
  7  2  2  0  0  0  0
  9  5  1  0  0  0  0
 10  6  1  0  0  0  0
 11 16  1  0  0  0  0
 12 13  1  0  0  0  0
 12 11  2  0  0  0  0
 13 14  2  0  0  0  0
 14 15  1  0  0  0  0
 15 19  1  0  0  0  0
 16 15  2  0  0  0  0
 17 11  1  0  0  0  0
 18 13  1  0  0  0  0
 20  7  1  0  0  0  0
 20 21  1  0  0  0  0
 22 20  1  0  0  0  0
 22 21  1  0  0  0  0
M  END
>  <minimizedAffinity>
-4.26126671

$$$$
