
 OpenBabel03272510233D

 25 28  0  0  0  0  0  0  0  0999 V2000
   34.8890   29.6470   46.0440 C   0  0  0  0  0  0  0  0  0  0  0  0
   34.3170   29.5900   47.3010 C   0  0  0  0  0  0  0  0  0  0  0  0
   34.9610   30.1680   48.3620 C   0  0  0  0  0  0  0  0  0  0  0  0
   36.1860   30.7990   48.1290 C   0  0  0  0  0  0  0  0  0  0  0  0
   36.9810   31.4280   49.0380 N   0  0  0  0  0  0  0  0  0  0  0  0
   38.0410   31.8740   48.3550 C   0  0  0  0  0  0  0  0  0  0  0  0
   37.9390   31.5490   47.0590 N   0  0  0  0  0  0  0  0  0  0  0  0
   36.7860   30.8730   46.8830 C   0  0  0  0  0  0  0  0  0  0  0  0
   36.1140   30.2810   45.8270 C   0  0  0  0  0  0  0  0  0  0  0  0
   34.4440   29.2150   45.1480 H   0  0  0  0  0  0  0  0  0  0  0  0
   34.5320   30.1350   49.3540 H   0  0  0  0  0  0  0  0  0  0  0  0
   36.7950   31.5350   50.0520 H   0  0  0  0  0  0  0  0  0  0  0  0
   36.5630   30.3270   44.8470 H   0  0  0  0  0  0  0  0  0  0  0  0
   31.4760   27.4100   48.4430 C   0  0  0  0  0  0  0  0  0  0  0  0
   32.7430   28.0060   48.4260 C   0  0  0  0  0  0  0  0  0  0  0  0
   33.0410   28.9090   47.4250 C   0  0  0  0  0  0  0  0  0  0  0  0
   32.0860   29.1830   46.4880 N   0  0  0  0  0  0  0  0  0  0  0  0
   30.8610   28.5950   46.5190 C   0  0  0  0  0  0  0  0  0  0  0  0
   30.5630   27.7150   47.4920 N   0  0  0  0  0  0  0  0  0  0  0  0
   31.3090   26.7180   49.2490 H   0  0  0  0  0  0  0  0  0  0  0  0
   33.4820   27.7810   49.1660 H   0  0  0  0  0  0  0  0  0  0  0  0
   30.0970   28.8010   45.7870 H   0  0  0  0  0  0  0  0  0  0  0  0
   39.1930   32.6370   48.9520 C   0  0  0  0  0  3  0  0  0  0  0  0
   39.5350   33.8850   48.1360 C   0  0  0  0  0  2  0  0  0  0  0  0
   39.0060   33.9560   49.5610 C   0  0  0  0  0  2  0  0  0  0  0  0
  1  2  1  0  0  0  0
  2 16  1  0  0  0  0
  2  3  2  0  0  0  0
  3 11  1  0  0  0  0
  4  3  1  0  0  0  0
  4  5  1  0  0  0  0
  5 12  1  0  0  0  0
  6 23  1  0  0  0  0
  6  5  1  0  0  0  0
  7  6  2  0  0  0  0
  8  7  1  0  0  0  0
  8  4  2  0  0  0  0
  9  1  2  0  0  0  0
  9  8  1  0  0  0  0
 10  1  1  0  0  0  0
 13  9  1  0  0  0  0
 14 20  1  0  0  0  0
 15 14  1  0  0  0  0
 15 21  1  0  0  0  0
 16 15  2  0  0  0  0
 17 18  2  0  0  0  0
 17 16  1  0  0  0  0
 18 19  1  0  0  0  0
 19 14  2  0  0  0  0
 22 18  1  0  0  0  0
 23 25  1  0  0  0  0
 24 23  1  0  0  0  0
 24 25  1  0  0  0  0
M  END
>  <minimizedAffinity>
-4.59223509

>  <minimizedRMSD>
4.83055019

$$$$
