
 OpenBabel03272509053D

 27 29  0  0  0  0  0  0  0  0999 V2000
   33.2730   27.3580   47.9490 C   0  0  0  0  0  0  0  0  0  0  0  0
   32.6330   28.0660   47.3610 H   0  0  0  0  0  0  0  0  0  0  0  0
   32.7130   26.9710   48.8150 H   0  0  0  0  0  0  0  0  0  0  0  0
   33.7160   26.2720   47.0140 C   0  0  0  0  0  0  0  0  0  0  0  0
   33.9590   24.9690   47.3590 C   0  0  0  0  0  0  0  0  0  0  0  0
   34.3620   24.0600   46.4090 C   0  0  0  0  0  0  0  0  0  0  0  0
   34.5360   24.4240   45.0810 C   0  0  0  0  0  0  0  0  0  0  0  0
   34.2960   25.7230   44.7290 C   0  0  0  0  0  0  0  0  0  0  0  0
   33.8920   26.6410   45.6700 C   0  0  0  0  0  0  0  0  0  0  0  0
   33.7980   24.7790   48.4110 H   0  0  0  0  0  0  0  0  0  0  0  0
   34.5260   23.0530   46.7990 H   0  0  0  0  0  0  0  0  0  0  0  0
   34.8540   23.6140   44.4470 H   0  0  0  0  0  0  0  0  0  0  0  0
   34.4410   25.9790   43.6810 H   0  0  0  0  0  0  0  0  0  0  0  0
   33.7280   27.6530   45.2760 H   0  0  0  0  0  0  0  0  0  0  0  0
   34.7460   28.3240   49.7030 C   0  0  0  0  0  3  0  0  0  0  0  0
   34.3970   28.1490   48.4600 C   0  0  0  0  0  3  0  0  0  0  0  0
   37.3420   30.2390   51.4520 C   0  0  0  0  0  0  0  0  0  0  0  0
   38.0930   30.7220   50.3430 C   0  0  0  0  0  0  0  0  0  0  0  0
   37.6920   30.3810   49.0360 C   0  0  0  0  0  0  0  0  0  0  0  0
   36.5880   29.5950   48.9310 N   0  0  0  0  0  0  0  0  0  0  0  0
   35.9080   29.1600   49.9880 C   0  0  0  0  0  0  0  0  0  0  0  0
   36.2820   29.4790   51.2320 N   0  0  0  0  0  0  0  0  0  0  0  0
   37.7000   30.5360   52.4280 H   0  0  0  0  0  0  0  0  0  0  0  0
   38.9430   31.3310   50.5120 H   0  0  0  0  0  0  0  0  0  0  0  0
   38.4450   30.8640   47.8600 C   0  0  0  0  0  3  0  0  0  0  0  0
   37.7670   31.8540   46.9230 C   0  0  0  0  0  2  0  0  0  0  0  0
   38.9300   32.2400   47.7720 C   0  0  0  0  0  2  0  0  0  0  0  0
  1 16  1  0  0  0  0
  1  3  1  0  0  0  0
  2  1  1  0  0  0  0
  4  5  1  0  0  0  0
  4  1  1  0  0  0  0
  5 10  1  0  0  0  0
  6 11  1  0  0  0  0
  6  5  2  0  0  0  0
  7  6  1  0  0  0  0
  8  7  2  0  0  0  0
  8  9  1  0  0  0  0
  9  4  2  0  0  0  0
 12  7  1  0  0  0  0
 13  8  1  0  0  0  0
 14  9  1  0  0  0  0
 15 21  1  0  0  0  0
 16 15  2  0  0  0  0
 17 23  1  0  0  0  0
 18 24  1  0  0  0  0
 18 17  2  0  0  0  0
 19 18  1  0  0  0  0
 20 19  2  0  0  0  0
 20 21  1  0  0  0  0
 21 22  2  0  0  0  0
 22 17  1  0  0  0  0
 25 19  1  0  0  0  0
 26 27  1  0  0  0  0
 26 25  1  0  0  0  0
 27 25  1  0  0  0  0
M  END
>  <minimizedAffinity>
-5.40967655

>  <minimizedRMSD>
0.192632332

$$$$
