
 OpenBabel03272502043D

 32 35  0  0  0  0  0  0  0  0999 V2000
   35.9300   27.7800   34.6880 F   0  0  0  0  0  0  0  0  0  0  0  0
   36.1260   28.4700   33.5290 C   0  0  0  0  0  0  0  0  0  0  0  0
   35.7360   29.7900   33.3900 C   0  0  0  0  0  0  0  0  0  0  0  0
   36.0150   30.4490   32.2070 C   0  0  0  0  0  0  0  0  0  0  0  0
   36.6870   29.7890   31.1680 C   0  0  0  0  0  0  0  0  0  0  0  0
   37.0460   28.4750   31.3780 C   0  0  0  0  0  0  0  0  0  0  0  0
   36.7850   27.7930   32.5210 C   0  0  0  0  0  0  0  0  0  0  0  0
   35.6460   31.4850   32.2330 H   0  0  0  0  0  0  0  0  0  0  0  0
   36.8080   30.4590   30.3530 H   0  0  0  0  0  0  0  0  0  0  0  0
   37.5620   28.2390   30.4910 H   0  0  0  0  0  0  0  0  0  0  0  0
   35.0230   25.7070   30.9860 Br  0  0  0  0  0  0  0  0  0  0  0  0
   36.5680   25.3020   32.0120 C   0  0  0  0  0  0  0  0  0  0  0  0
   37.1490   26.3920   32.6360 C   0  0  0  0  0  0  0  0  0  0  0  0
   38.2490   26.1840   33.4780 C   0  0  0  0  0  0  0  0  0  0  0  0
   38.7300   24.9290   33.6670 C   0  0  0  0  0  0  0  0  0  0  0  0
   38.1180   23.8690   33.0170 C   0  0  0  0  0  0  0  0  0  0  0  0
   37.0140   24.0380   32.1680 C   0  0  0  0  0  0  0  0  0  0  0  0
   38.9310   26.7370   34.0790 H   0  0  0  0  0  0  0  0  0  0  0  0
   39.5300   24.5080   34.2370 H   0  0  0  0  0  0  0  0  0  0  0  0
   38.3790   22.7950   33.0570 H   0  0  0  0  0  0  0  0  0  0  0  0
   36.3140   22.9480   31.4420 C   0  0  0  0  0  3  0  0  0  0  0  0
   35.5040   21.9560   32.2310 C   0  0  0  0  0  2  0  0  0  0  0  0
   36.7820   21.5630   31.5460 C   0  0  0  0  0  2  0  0  0  0  0  0
   35.9170   31.1180   35.3730 C   0  0  0  0  0  0  0  0  0  0  0  0
   35.0950   30.3780   34.5280 C   0  0  0  0  0  0  0  0  0  0  0  0
   33.7600   30.3030   34.8570 C   0  0  0  0  0  0  0  0  0  0  0  0
   33.3040   30.9380   35.9690 N   0  0  0  0  0  0  0  0  0  0  0  0
   34.1060   31.6340   36.7560 C   0  0  0  0  0  0  0  0  0  0  0  0
   35.4060   31.7290   36.4680 N   0  0  0  0  0  0  0  0  0  0  0  0
   36.9960   31.2850   35.2680 H   0  0  0  0  0  0  0  0  0  0  0  0
   33.1530   29.7280   34.1900 H   0  0  0  0  0  0  0  0  0  0  0  0
   33.5970   32.0830   37.6030 H   0  0  0  0  0  0  0  0  0  0  0  0
  2  1  1  0  0  0  0
  3  2  1  0  0  0  0
  3 25  1  0  0  0  0
  4  8  1  0  0  0  0
  4  3  2  0  0  0  0
  5  6  2  0  0  0  0
  5  4  1  0  0  0  0
  6  7  1  0  0  0  0
  7 13  1  0  0  0  0
  7  2  2  0  0  0  0
  9  5  1  0  0  0  0
 10  6  1  0  0  0  0
 11 12  1  0  0  0  0
 12 17  2  0  0  0  0
 12 13  1  0  0  0  0
 13 14  2  0  0  0  0
 14 15  1  0  0  0  0
 14 18  1  0  0  0  0
 15 19  1  0  0  0  0
 16 20  1  0  0  0  0
 16 15  2  0  0  0  0
 17 16  1  0  0  0  0
 21 23  1  0  0  0  0
 21 17  1  0  0  0  0
 21 22  1  0  0  0  0
 23 22  1  0  0  0  0
 24 29  1  0  0  0  0
 25 26  1  0  0  0  0
 25 24  2  0  0  0  0
 26 27  2  0  0  0  0
 27 28  1  0  0  0  0
 28 32  1  0  0  0  0
 29 28  2  0  0  0  0
 30 24  1  0  0  0  0
 31 26  1  0  0  0  0
M  END
>  <minimizedAffinity>
-5.78669453

$$$$

 OpenBabel03272502043D

 32 35  0  0  0  0  0  0  0  0999 V2000
   36.0230   27.7900   34.7620 F   0  0  0  0  0  0  0  0  0  0  0  0
   36.3180   28.4020   33.5810 C   0  0  0  0  0  0  0  0  0  0  0  0
   37.0760   27.7800   32.6050 C   0  0  0  0  0  0  0  0  0  0  0  0
   37.2920   28.4350   31.4070 C   0  0  0  0  0  0  0  0  0  0  0  0
   36.7460   29.7070   31.1850 C   0  0  0  0  0  0  0  0  0  0  0  0
   36.0010   30.2660   32.2010 C   0  0  0  0  0  0  0  0  0  0  0  0
   35.7720   29.6580   33.3920 C   0  0  0  0  0  0  0  0  0  0  0  0
   37.9110   27.8290   30.7300 H   0  0  0  0  0  0  0  0  0  0  0  0
   37.0210   30.0380   30.2130 H   0  0  0  0  0  0  0  0  0  0  0  0
   35.6780   31.1710   31.7720 H   0  0  0  0  0  0  0  0  0  0  0  0
   32.6500   29.4170   33.3220 Br  0  0  0  0  0  0  0  0  0  0  0  0
   33.6560   30.3350   34.6450 C   0  0  0  0  0  0  0  0  0  0  0  0
   35.0220   30.3420   34.4310 C   0  0  0  0  0  0  0  0  0  0  0  0
   35.8430   31.0590   35.3110 C   0  0  0  0  0  0  0  0  0  0  0  0
   35.2940   31.7300   36.3550 C   0  0  0  0  0  0  0  0  0  0  0  0
   33.9190   31.6920   36.5310 C   0  0  0  0  0  0  0  0  0  0  0  0
   33.0660   30.9860   35.6700 C   0  0  0  0  0  0  0  0  0  0  0  0
   36.8730   31.2710   35.4740 H   0  0  0  0  0  0  0  0  0  0  0  0
   35.6790   32.3330   37.1480 H   0  0  0  0  0  0  0  0  0  0  0  0
   33.3140   32.1750   37.3210 H   0  0  0  0  0  0  0  0  0  0  0  0
   31.5890   30.9030   35.8030 C   0  0  0  0  0  3  0  0  0  0  0  0
   30.7430   31.9670   35.1610 C   0  0  0  0  0  2  0  0  0  0  0  0
   30.8630   31.8490   36.6540 C   0  0  0  0  0  2  0  0  0  0  0  0
   36.8190   25.4120   32.3780 C   0  0  0  0  0  0  0  0  0  0  0  0
   37.5480   26.4650   32.9210 C   0  0  0  0  0  0  0  0  0  0  0  0
   38.6480   26.1420   33.6830 C   0  0  0  0  0  0  0  0  0  0  0  0
   38.9760   24.8360   33.8730 N   0  0  0  0  0  0  0  0  0  0  0  0
   38.2650   23.8530   33.3460 C   0  0  0  0  0  0  0  0  0  0  0  0
   37.1930   24.1290   32.6020 N   0  0  0  0  0  0  0  0  0  0  0  0
   35.9210   25.4810   31.7510 H   0  0  0  0  0  0  0  0  0  0  0  0
   39.1890   26.9720   34.0870 H   0  0  0  0  0  0  0  0  0  0  0  0
   38.6500   22.8670   33.5860 H   0  0  0  0  0  0  0  0  0  0  0  0
  2  1  1  0  0  0  0
  3 25  1  0  0  0  0
  3  2  2  0  0  0  0
  4  3  1  0  0  0  0
  5  4  2  0  0  0  0
  5  6  1  0  0  0  0
  6  7  2  0  0  0  0
  7  2  1  0  0  0  0
  7 13  1  0  0  0  0
  8  4  1  0  0  0  0
  9  5  1  0  0  0  0
 10  6  1  0  0  0  0
 11 12  1  0  0  0  0
 12 17  1  0  0  0  0
 13 12  2  0  0  0  0
 13 14  1  0  0  0  0
 14 18  1  0  0  0  0
 14 15  2  0  0  0  0
 15 16  1  0  0  0  0
 15 19  1  0  0  0  0
 16 20  1  0  0  0  0
 17 21  1  0  0  0  0
 17 16  2  0  0  0  0
 21 23  1  0  0  0  0
 22 21  1  0  0  0  0
 22 23  1  0  0  0  0
 24 29  2  0  0  0  0
 24 25  1  0  0  0  0
 25 26  2  0  0  0  0
 26 27  1  0  0  0  0
 26 31  1  0  0  0  0
 28 32  1  0  0  0  0
 28 27  2  0  0  0  0
 29 28  1  0  0  0  0
 30 24  1  0  0  0  0
M  END
>  <minimizedAffinity>
-5.5422883

$$$$

 OpenBabel03272502043D

 32 35  0  0  0  0  0  0  0  0999 V2000
   35.8420   28.1860   34.8840 F   0  0  0  0  0  0  0  0  0  0  0  0
   35.7610   28.8100   33.6750 C   0  0  0  0  0  0  0  0  0  0  0  0
   36.4240   28.3300   32.5590 C   0  0  0  0  0  0  0  0  0  0  0  0
   36.2540   28.9800   31.3500 C   0  0  0  0  0  0  0  0  0  0  0  0
   35.4190   30.1020   31.2580 C   0  0  0  0  0  0  0  0  0  0  0  0
   34.7900   30.5230   32.4100 C   0  0  0  0  0  0  0  0  0  0  0  0
   34.9360   29.9180   33.6150 C   0  0  0  0  0  0  0  0  0  0  0  0
   36.8390   28.4960   30.5550 H   0  0  0  0  0  0  0  0  0  0  0  0
   35.4190   30.4530   30.2550 H   0  0  0  0  0  0  0  0  0  0  0  0
   34.2050   31.3270   32.0660 H   0  0  0  0  0  0  0  0  0  0  0  0
   36.3260   32.3210   35.0660 Br  0  0  0  0  0  0  0  0  0  0  0  0
   34.6630   31.5470   35.5590 C   0  0  0  0  0  0  0  0  0  0  0  0
   34.2810   30.4610   34.7910 C   0  0  0  0  0  0  0  0  0  0  0  0
   33.1070   29.7750   35.1260 C   0  0  0  0  0  0  0  0  0  0  0  0
   32.3630   30.1800   36.1860 C   0  0  0  0  0  0  0  0  0  0  0  0
   32.7840   31.2760   36.9230 C   0  0  0  0  0  0  0  0  0  0  0  0
   33.9540   31.9880   36.6200 C   0  0  0  0  0  0  0  0  0  0  0  0
   32.5160   28.9580   34.7850 H   0  0  0  0  0  0  0  0  0  0  0  0
   31.4550   29.8460   36.6400 H   0  0  0  0  0  0  0  0  0  0  0  0
   32.3030   31.7360   37.8060 H   0  0  0  0  0  0  0  0  0  0  0  0
   34.4600   33.1670   37.3660 C   0  0  0  0  0  3  0  0  0  0  0  0
   33.4670   34.1310   37.9570 C   0  0  0  0  0  2  0  0  0  0  0  0
   34.3430   34.5140   36.7990 C   0  0  0  0  0  2  0  0  0  0  0  0
   38.5450   27.3670   33.1070 C   0  0  0  0  0  0  0  0  0  0  0  0
   37.2150   27.1530   32.7570 C   0  0  0  0  0  0  0  0  0  0  0  0
   36.7940   25.8460   32.6560 C   0  0  0  0  0  0  0  0  0  0  0  0
   37.6710   24.8350   32.8960 N   0  0  0  0  0  0  0  0  0  0  0  0
   38.9310   25.0660   33.2270 C   0  0  0  0  0  0  0  0  0  0  0  0
   39.3740   26.3210   33.3340 N   0  0  0  0  0  0  0  0  0  0  0  0
   39.0490   28.3340   33.2320 H   0  0  0  0  0  0  0  0  0  0  0  0
   35.7670   25.7120   32.3860 H   0  0  0  0  0  0  0  0  0  0  0  0
   39.5070   24.1600   33.3860 H   0  0  0  0  0  0  0  0  0  0  0  0
  2  1  1  0  0  0  0
  3 25  1  0  0  0  0
  3  2  2  0  0  0  0
  4  3  1  0  0  0  0
  5  4  2  0  0  0  0
  5  6  1  0  0  0  0
  6  7  2  0  0  0  0
  7  2  1  0  0  0  0
  7 13  1  0  0  0  0
  8  4  1  0  0  0  0
  9  5  1  0  0  0  0
 10  6  1  0  0  0  0
 11 12  1  0  0  0  0
 12 17  1  0  0  0  0
 13 14  1  0  0  0  0
 13 12  2  0  0  0  0
 14 15  2  0  0  0  0
 15 19  1  0  0  0  0
 15 16  1  0  0  0  0
 16 20  1  0  0  0  0
 17 16  2  0  0  0  0
 17 21  1  0  0  0  0
 18 14  1  0  0  0  0
 21 22  1  0  0  0  0
 23 21  1  0  0  0  0
 23 22  1  0  0  0  0
 24 30  1  0  0  0  0
 24 29  1  0  0  0  0
 25 24  2  0  0  0  0
 26 25  1  0  0  0  0
 26 27  2  0  0  0  0
 27 28  1  0  0  0  0
 28 29  2  0  0  0  0
 28 32  1  0  0  0  0
 31 26  1  0  0  0  0
M  END
>  <minimizedAffinity>
-5.46653128

$$$$

 OpenBabel03272502043D

 32 35  0  0  0  0  0  0  0  0999 V2000
   35.5030   28.2140   34.3640 F   0  0  0  0  0  0  0  0  0  0  0  0
   35.7890   29.0110   33.2960 C   0  0  0  0  0  0  0  0  0  0  0  0
   35.6380   30.3860   33.3490 C   0  0  0  0  0  0  0  0  0  0  0  0
   36.0000   31.1410   32.2480 C   0  0  0  0  0  0  0  0  0  0  0  0
   36.5150   30.5220   31.1010 C   0  0  0  0  0  0  0  0  0  0  0  0
   36.6390   29.1490   31.1190 C   0  0  0  0  0  0  0  0  0  0  0  0
   36.2890   28.3730   32.1760 C   0  0  0  0  0  0  0  0  0  0  0  0
   35.8230   32.2110   32.4270 H   0  0  0  0  0  0  0  0  0  0  0  0
   36.7330   31.2660   30.3740 H   0  0  0  0  0  0  0  0  0  0  0  0
   37.0800   28.9500   30.1850 H   0  0  0  0  0  0  0  0  0  0  0  0
   38.6970   27.0140   33.6480 Br  0  0  0  0  0  0  0  0  0  0  0  0
   37.3280   26.1030   32.6980 C   0  0  0  0  0  0  0  0  0  0  0  0
   36.3990   26.9280   32.0910 C   0  0  0  0  0  0  0  0  0  0  0  0
   35.3940   26.3520   31.3030 C   0  0  0  0  0  0  0  0  0  0  0  0
   35.3420   25.0050   31.1490 C   0  0  0  0  0  0  0  0  0  0  0  0
   36.2930   24.2190   31.7800 C   0  0  0  0  0  0  0  0  0  0  0  0
   37.3150   24.7590   32.5750 C   0  0  0  0  0  0  0  0  0  0  0  0
   34.5440   26.6380   30.7290 H   0  0  0  0  0  0  0  0  0  0  0  0
   34.7010   24.3320   30.6210 H   0  0  0  0  0  0  0  0  0  0  0  0
   36.3960   23.1170   31.7620 H   0  0  0  0  0  0  0  0  0  0  0  0
   38.3610   23.9750   33.2780 C   0  0  0  0  0  3  0  0  0  0  0  0
   39.4620   23.3450   32.4690 C   0  0  0  0  0  2  0  0  0  0  0  0
   38.4110   22.5150   33.1510 C   0  0  0  0  0  2  0  0  0  0  0  0
   33.7600   30.9320   34.7270 C   0  0  0  0  0  0  0  0  0  0  0  0
   35.1440   30.9150   34.5840 C   0  0  0  0  0  0  0  0  0  0  0  0
   35.8900   31.3870   35.6400 C   0  0  0  0  0  0  0  0  0  0  0  0
   35.2640   31.8420   36.7580 N   0  0  0  0  0  0  0  0  0  0  0  0
   33.9470   31.8470   36.8680 C   0  0  0  0  0  0  0  0  0  0  0  0
   33.1910   31.3970   35.8650 N   0  0  0  0  0  0  0  0  0  0  0  0
   33.0140   30.5980   33.9940 H   0  0  0  0  0  0  0  0  0  0  0  0
   36.9510   31.3620   35.5020 H   0  0  0  0  0  0  0  0  0  0  0  0
   33.5950   32.2390   37.8180 H   0  0  0  0  0  0  0  0  0  0  0  0
  2  3  1  0  0  0  0
  2  1  1  0  0  0  0
  3 25  1  0  0  0  0
  4  8  1  0  0  0  0
  4  3  2  0  0  0  0
  5  6  2  0  0  0  0
  5  4  1  0  0  0  0
  6  7  1  0  0  0  0
  7  2  2  0  0  0  0
  9  5  1  0  0  0  0
 10  6  1  0  0  0  0
 12 11  1  0  0  0  0
 13  7  1  0  0  0  0
 13 12  2  0  0  0  0
 14 13  1  0  0  0  0
 15 14  2  0  0  0  0
 15 16  1  0  0  0  0
 16 17  2  0  0  0  0
 17 12  1  0  0  0  0
 17 21  1  0  0  0  0
 18 14  1  0  0  0  0
 19 15  1  0  0  0  0
 20 16  1  0  0  0  0
 22 23  1  0  0  0  0
 22 21  1  0  0  0  0
 23 21  1  0  0  0  0
 24 29  1  0  0  0  0
 25 24  2  0  0  0  0
 25 26  1  0  0  0  0
 26 27  2  0  0  0  0
 27 28  1  0  0  0  0
 28 32  1  0  0  0  0
 29 28  2  0  0  0  0
 30 24  1  0  0  0  0
 31 26  1  0  0  0  0
M  END
>  <minimizedAffinity>
-5.43922997

$$$$

 OpenBabel03272502043D

 32 35  0  0  0  0  0  0  0  0999 V2000
   35.9970   27.7250   34.8920 F   0  0  0  0  0  0  0  0  0  0  0  0
   36.2010   28.3700   33.7090 C   0  0  0  0  0  0  0  0  0  0  0  0
   35.7810   29.6730   33.5050 C   0  0  0  0  0  0  0  0  0  0  0  0
   36.0690   30.2870   32.3000 C   0  0  0  0  0  0  0  0  0  0  0  0
   36.7790   29.6010   31.3050 C   0  0  0  0  0  0  0  0  0  0  0  0
   37.1660   28.3070   31.5780 C   0  0  0  0  0  0  0  0  0  0  0  0
   36.8980   27.6680   32.7440 C   0  0  0  0  0  0  0  0  0  0  0  0
   35.6740   31.3130   32.2750 H   0  0  0  0  0  0  0  0  0  0  0  0
   36.9000   30.2390   30.4640 H   0  0  0  0  0  0  0  0  0  0  0  0
   37.7070   28.0470   30.7130 H   0  0  0  0  0  0  0  0  0  0  0  0
   39.2960   27.0900   34.6740 Br  0  0  0  0  0  0  0  0  0  0  0  0
   38.2720   25.7760   33.7640 C   0  0  0  0  0  0  0  0  0  0  0  0
   37.2940   26.2830   32.9270 C   0  0  0  0  0  0  0  0  0  0  0  0
   36.5360   25.3940   32.1530 C   0  0  0  0  0  0  0  0  0  0  0  0
   36.7660   24.0590   32.2350 C   0  0  0  0  0  0  0  0  0  0  0  0
   37.7540   23.5970   33.0900 C   0  0  0  0  0  0  0  0  0  0  0  0
   38.5340   24.4560   33.8790 C   0  0  0  0  0  0  0  0  0  0  0  0
   35.7350   25.4030   31.4530 H   0  0  0  0  0  0  0  0  0  0  0  0
   36.3450   23.1930   31.7710 H   0  0  0  0  0  0  0  0  0  0  0  0
   38.0680   22.5530   33.2780 H   0  0  0  0  0  0  0  0  0  0  0  0
   39.6040   24.0290   34.8140 C   0  0  0  0  0  3  0  0  0  0  0  0
   40.9310   23.6000   34.2500 C   0  0  0  0  0  2  0  0  0  0  0  0
   39.9980   22.6190   34.9020 C   0  0  0  0  0  2  0  0  0  0  0  0
   35.8870   31.0890   35.4310 C   0  0  0  0  0  0  0  0  0  0  0  0
   35.1020   30.2920   34.6040 C   0  0  0  0  0  0  0  0  0  0  0  0
   33.7630   30.1950   34.9100 C   0  0  0  0  0  0  0  0  0  0  0  0
   33.2670   30.8650   35.9840 N   0  0  0  0  0  0  0  0  0  0  0  0
   34.0350   31.6160   36.7540 C   0  0  0  0  0  0  0  0  0  0  0  0
   35.3380   31.7340   36.4880 N   0  0  0  0  0  0  0  0  0  0  0  0
   36.9630   31.2810   35.3390 H   0  0  0  0  0  0  0  0  0  0  0  0
   33.1850   29.5750   34.2560 H   0  0  0  0  0  0  0  0  0  0  0  0
   33.4970   32.0870   37.5710 H   0  0  0  0  0  0  0  0  0  0  0  0
  2  1  1  0  0  0  0
  3  2  1  0  0  0  0
  3 25  1  0  0  0  0
  4  3  2  0  0  0  0
  5  6  2  0  0  0  0
  5  4  1  0  0  0  0
  6  7  1  0  0  0  0
  7 13  1  0  0  0  0
  7  2  2  0  0  0  0
  8  4  1  0  0  0  0
  9  5  1  0  0  0  0
 10  6  1  0  0  0  0
 12 17  1  0  0  0  0
 12 11  1  0  0  0  0
 13 12  2  0  0  0  0
 14 15  2  0  0  0  0
 14 13  1  0  0  0  0
 15 16  1  0  0  0  0
 16 20  1  0  0  0  0
 16 17  2  0  0  0  0
 17 21  1  0  0  0  0
 18 14  1  0  0  0  0
 19 15  1  0  0  0  0
 21 23  1  0  0  0  0
 22 21  1  0  0  0  0
 22 23  1  0  0  0  0
 24 29  1  0  0  0  0
 25 26  1  0  0  0  0
 25 24  2  0  0  0  0
 26 27  2  0  0  0  0
 27 28  1  0  0  0  0
 28 32  1  0  0  0  0
 29 28  2  0  0  0  0
 30 24  1  0  0  0  0
 31 26  1  0  0  0  0
M  END
>  <minimizedAffinity>
-5.42983103

$$$$

 OpenBabel03272502043D

 32 35  0  0  0  0  0  0  0  0999 V2000
   38.5910   27.8590   31.5430 F   0  0  0  0  0  0  0  0  0  0  0  0
   37.3770   28.4240   31.7970 C   0  0  0  0  0  0  0  0  0  0  0  0
   36.8000   29.3360   30.9310 C   0  0  0  0  0  0  0  0  0  0  0  0
   35.5400   29.8280   31.2210 C   0  0  0  0  0  0  0  0  0  0  0  0
   34.8600   29.4050   32.3710 C   0  0  0  0  0  0  0  0  0  0  0  0
   35.4960   28.4940   33.1870 C   0  0  0  0  0  0  0  0  0  0  0  0
   36.7320   27.9930   32.9410 C   0  0  0  0  0  0  0  0  0  0  0  0
   35.2090   30.5430   30.4540 H   0  0  0  0  0  0  0  0  0  0  0  0
   33.9160   29.8910   32.4140 H   0  0  0  0  0  0  0  0  0  0  0  0
   34.7720   28.3130   33.9290 H   0  0  0  0  0  0  0  0  0  0  0  0
   36.8150   24.9570   32.1740 Br  0  0  0  0  0  0  0  0  0  0  0  0
   37.5620   25.7180   33.7450 C   0  0  0  0  0  0  0  0  0  0  0  0
   37.3530   27.0790   33.8830 C   0  0  0  0  0  0  0  0  0  0  0  0
   37.7990   27.7190   35.0470 C   0  0  0  0  0  0  0  0  0  0  0  0
   38.4280   27.0040   36.0140 C   0  0  0  0  0  0  0  0  0  0  0  0
   38.6180   25.6440   35.8300 C   0  0  0  0  0  0  0  0  0  0  0  0
   38.1840   24.9680   34.6790 C   0  0  0  0  0  0  0  0  0  0  0  0
   37.8360   28.6910   35.4790 H   0  0  0  0  0  0  0  0  0  0  0  0
   38.8540   27.2390   36.9660 H   0  0  0  0  0  0  0  0  0  0  0  0
   39.1070   24.9200   36.5080 H   0  0  0  0  0  0  0  0  0  0  0  0
   38.3570   23.5170   34.4190 C   0  0  0  0  0  3  0  0  0  0  0  0
   37.8340   22.5320   35.4280 C   0  0  0  0  0  2  0  0  0  0  0  0
   39.3070   22.7260   35.2060 C   0  0  0  0  0  2  0  0  0  0  0  0
   38.0780   30.9570   29.7210 C   0  0  0  0  0  0  0  0  0  0  0  0
   37.5640   29.6650   29.7660 C   0  0  0  0  0  0  0  0  0  0  0  0
   37.8550   28.8370   28.7050 C   0  0  0  0  0  0  0  0  0  0  0  0
   38.6150   29.3000   27.6770 N   0  0  0  0  0  0  0  0  0  0  0  0
   39.0910   30.5330   27.6600 C   0  0  0  0  0  0  0  0  0  0  0  0
   38.8300   31.3640   28.6710 N   0  0  0  0  0  0  0  0  0  0  0  0
   37.9490   31.7470   30.4720 H   0  0  0  0  0  0  0  0  0  0  0  0
   37.4470   27.8490   28.7660 H   0  0  0  0  0  0  0  0  0  0  0  0
   39.6790   30.7560   26.7750 H   0  0  0  0  0  0  0  0  0  0  0  0
  1  2  1  0  0  0  0
  2  7  1  0  0  0  0
  3  4  1  0  0  0  0
  3  2  2  0  0  0  0
  4  5  2  0  0  0  0
  5  9  1  0  0  0  0
  5  6  1  0  0  0  0
  6 10  1  0  0  0  0
  7  6  2  0  0  0  0
  7 13  1  0  0  0  0
  8  4  1  0  0  0  0
 11 12  1  0  0  0  0
 12 13  2  0  0  0  0
 12 17  1  0  0  0  0
 13 14  1  0  0  0  0
 14 18  1  0  0  0  0
 14 15  2  0  0  0  0
 15 19  1  0  0  0  0
 16 15  1  0  0  0  0
 16 20  1  0  0  0  0
 17 16  2  0  0  0  0
 21 17  1  0  0  0  0
 21 23  1  0  0  0  0
 21 22  1  0  0  0  0
 23 22  1  0  0  0  0
 24 25  1  0  0  0  0
 24 30  1  0  0  0  0
 25  3  1  0  0  0  0
 26 31  1  0  0  0  0
 26 25  2  0  0  0  0
 27 26  1  0  0  0  0
 28 27  2  0  0  0  0
 28 29  1  0  0  0  0
 29 24  2  0  0  0  0
 32 28  1  0  0  0  0
M  END
>  <minimizedAffinity>
-5.35243702

$$$$

 OpenBabel03272502043D

 32 35  0  0  0  0  0  0  0  0999 V2000
   37.3380   27.8580   35.6190 F   0  0  0  0  0  0  0  0  0  0  0  0
   37.0390   27.7350   34.2950 C   0  0  0  0  0  0  0  0  0  0  0  0
   36.1470   28.5850   33.6660 C   0  0  0  0  0  0  0  0  0  0  0  0
   35.9310   28.4400   32.3070 C   0  0  0  0  0  0  0  0  0  0  0  0
   36.6090   27.4510   31.5820 C   0  0  0  0  0  0  0  0  0  0  0  0
   37.4840   26.6410   32.2750 C   0  0  0  0  0  0  0  0  0  0  0  0
   37.7180   26.7470   33.6070 C   0  0  0  0  0  0  0  0  0  0  0  0
   35.1990   29.1740   31.9420 H   0  0  0  0  0  0  0  0  0  0  0  0
   36.3120   27.5020   30.5630 H   0  0  0  0  0  0  0  0  0  0  0  0
   37.8840   26.0360   31.5120 H   0  0  0  0  0  0  0  0  0  0  0  0
   40.7970   27.2640   33.3470 Br  0  0  0  0  0  0  0  0  0  0  0  0
   39.9940   25.8650   34.3490 C   0  0  0  0  0  0  0  0  0  0  0  0
   38.6130   25.8160   34.2690 C   0  0  0  0  0  0  0  0  0  0  0  0
   37.9340   24.7730   34.9120 C   0  0  0  0  0  0  0  0  0  0  0  0
   38.6310   23.8340   35.6020 C   0  0  0  0  0  0  0  0  0  0  0  0
   40.0120   23.9280   35.6580 C   0  0  0  0  0  0  0  0  0  0  0  0
   40.7270   24.9560   35.0260 C   0  0  0  0  0  0  0  0  0  0  0  0
   36.9410   24.4310   35.0830 H   0  0  0  0  0  0  0  0  0  0  0  0
   38.3680   22.9650   36.1660 H   0  0  0  0  0  0  0  0  0  0  0  0
   40.7270   23.2570   36.1710 H   0  0  0  0  0  0  0  0  0  0  0  0
   42.2030   25.1150   35.0470 C   0  0  0  0  0  3  0  0  0  0  0  0
   43.0460   24.1660   34.2380 C   0  0  0  0  0  2  0  0  0  0  0  0
   43.0480   24.1380   35.7400 C   0  0  0  0  0  2  0  0  0  0  0  0
   34.1550   29.5380   34.5880 C   0  0  0  0  0  0  0  0  0  0  0  0
   35.5420   29.5850   34.4930 C   0  0  0  0  0  0  0  0  0  0  0  0
   36.1890   30.5670   35.2100 C   0  0  0  0  0  0  0  0  0  0  0  0
   35.4660   31.4340   35.9680 N   0  0  0  0  0  0  0  0  0  0  0  0
   34.1470   31.3670   36.0410 C   0  0  0  0  0  0  0  0  0  0  0  0
   33.4870   30.4280   35.3590 N   0  0  0  0  0  0  0  0  0  0  0  0
   33.4810   28.8300   34.0900 H   0  0  0  0  0  0  0  0  0  0  0  0
   37.2550   30.5790   35.1180 H   0  0  0  0  0  0  0  0  0  0  0  0
   33.7120   32.1250   36.6850 H   0  0  0  0  0  0  0  0  0  0  0  0
  2  1  1  0  0  0  0
  3  2  1  0  0  0  0
  3 25  1  0  0  0  0
  4  3  2  0  0  0  0
  5  6  2  0  0  0  0
  5  4  1  0  0  0  0
  6  7  1  0  0  0  0
  7 13  1  0  0  0  0
  7  2  2  0  0  0  0
  8  4  1  0  0  0  0
  9  5  1  0  0  0  0
 10  6  1  0  0  0  0
 11 12  1  0  0  0  0
 12 17  1  0  0  0  0
 13 12  2  0  0  0  0
 13 14  1  0  0  0  0
 14 18  1  0  0  0  0
 14 15  2  0  0  0  0
 15 16  1  0  0  0  0
 15 19  1  0  0  0  0
 16 20  1  0  0  0  0
 17 21  1  0  0  0  0
 17 16  2  0  0  0  0
 21 23  1  0  0  0  0
 22 21  1  0  0  0  0
 22 23  1  0  0  0  0
 24 29  1  0  0  0  0
 25 24  2  0  0  0  0
 25 26  1  0  0  0  0
 26 27  2  0  0  0  0
 27 28  1  0  0  0  0
 28 32  1  0  0  0  0
 29 28  2  0  0  0  0
 30 24  1  0  0  0  0
 31 26  1  0  0  0  0
M  END
>  <minimizedAffinity>
-5.27586699

$$$$

 OpenBabel03272502043D

 32 35  0  0  0  0  0  0  0  0999 V2000
   35.9190   27.7290   34.6370 F   0  0  0  0  0  0  0  0  0  0  0  0
   36.3000   28.1690   33.4040 C   0  0  0  0  0  0  0  0  0  0  0  0
   37.4620   27.7280   32.7970 C   0  0  0  0  0  0  0  0  0  0  0  0
   37.7600   28.1720   31.5220 C   0  0  0  0  0  0  0  0  0  0  0  0
   36.8960   29.0510   30.8550 C   0  0  0  0  0  0  0  0  0  0  0  0
   35.7550   29.4470   31.5210 C   0  0  0  0  0  0  0  0  0  0  0  0
   35.4310   29.0400   32.7730 C   0  0  0  0  0  0  0  0  0  0  0  0
   38.7110   27.7470   31.1670 H   0  0  0  0  0  0  0  0  0  0  0  0
   37.2960   29.2700   29.8960 H   0  0  0  0  0  0  0  0  0  0  0  0
   35.2730   30.0470   30.8030 H   0  0  0  0  0  0  0  0  0  0  0  0
   35.8210   31.0800   35.1180 Br  0  0  0  0  0  0  0  0  0  0  0  0
   34.1500   30.4960   34.4310 C   0  0  0  0  0  0  0  0  0  0  0  0
   34.2380   29.5520   33.4230 C   0  0  0  0  0  0  0  0  0  0  0  0
   33.0580   29.0030   32.9050 C   0  0  0  0  0  0  0  0  0  0  0  0
   31.8540   29.4020   33.3890 C   0  0  0  0  0  0  0  0  0  0  0  0
   31.8170   30.3530   34.3950 C   0  0  0  0  0  0  0  0  0  0  0  0
   32.9760   30.9250   34.9410 C   0  0  0  0  0  0  0  0  0  0  0  0
   32.7400   28.3110   32.1610 H   0  0  0  0  0  0  0  0  0  0  0  0
   30.8370   29.1520   33.1750 H   0  0  0  0  0  0  0  0  0  0  0  0
   30.9320   30.7880   34.8980 H   0  0  0  0  0  0  0  0  0  0  0  0
   33.0050   31.9470   36.0170 C   0  0  0  0  0  3  0  0  0  0  0  0
   32.8850   31.4970   37.4470 C   0  0  0  0  0  2  0  0  0  0  0  0
   31.7900   32.2720   36.7700 C   0  0  0  0  0  2  0  0  0  0  0  0
   37.9660   25.4530   33.3440 C   0  0  0  0  0  0  0  0  0  0  0  0
   38.2500   26.7990   33.5510 C   0  0  0  0  0  0  0  0  0  0  0  0
   39.2610   27.1000   34.4360 C   0  0  0  0  0  0  0  0  0  0  0  0
   39.9300   26.0940   35.0610 N   0  0  0  0  0  0  0  0  0  0  0  0
   39.6400   24.8220   34.8460 C   0  0  0  0  0  0  0  0  0  0  0  0
   38.6650   24.4940   33.9950 N   0  0  0  0  0  0  0  0  0  0  0  0
   37.1990   25.0330   32.6810 H   0  0  0  0  0  0  0  0  0  0  0  0
   39.4580   28.1420   34.5750 H   0  0  0  0  0  0  0  0  0  0  0  0
   40.2590   24.1370   35.4170 H   0  0  0  0  0  0  0  0  0  0  0  0
  2  1  1  0  0  0  0
  3  2  1  0  0  0  0
  3 25  1  0  0  0  0
  4  3  2  0  0  0  0
  5  6  2  0  0  0  0
  5  4  1  0  0  0  0
  6  7  1  0  0  0  0
  7  2  2  0  0  0  0
  7 13  1  0  0  0  0
  8  4  1  0  0  0  0
  9  5  1  0  0  0  0
 10  6  1  0  0  0  0
 12 17  1  0  0  0  0
 12 11  1  0  0  0  0
 13 12  2  0  0  0  0
 14 15  2  0  0  0  0
 14 13  1  0  0  0  0
 15 16  1  0  0  0  0
 16 20  1  0  0  0  0
 16 17  2  0  0  0  0
 17 21  1  0  0  0  0
 18 14  1  0  0  0  0
 19 15  1  0  0  0  0
 21 23  1  0  0  0  0
 21 22  1  0  0  0  0
 23 22  1  0  0  0  0
 24 25  2  0  0  0  0
 24 29  1  0  0  0  0
 25 26  1  0  0  0  0
 26 31  1  0  0  0  0
 26 27  2  0  0  0  0
 28 27  1  0  0  0  0
 28 32  1  0  0  0  0
 29 28  2  0  0  0  0
 30 24  1  0  0  0  0
M  END
>  <minimizedAffinity>
-5.26492357

$$$$

 OpenBabel03272502043D

 32 35  0  0  0  0  0  0  0  0999 V2000
   36.4570   30.2140   32.0220 F   0  0  0  0  0  0  0  0  0  0  0  0
   36.6630   29.0210   32.6480 C   0  0  0  0  0  0  0  0  0  0  0  0
   37.3540   27.9870   32.0410 C   0  0  0  0  0  0  0  0  0  0  0  0
   37.5760   26.8230   32.7530 C   0  0  0  0  0  0  0  0  0  0  0  0
   37.1120   26.6960   34.0690 C   0  0  0  0  0  0  0  0  0  0  0  0
   36.4320   27.7670   34.6100 C   0  0  0  0  0  0  0  0  0  0  0  0
   36.1890   28.9220   33.9420 C   0  0  0  0  0  0  0  0  0  0  0  0
   38.1300   26.0890   32.1490 H   0  0  0  0  0  0  0  0  0  0  0  0
   37.3810   25.7380   34.4420 H   0  0  0  0  0  0  0  0  0  0  0  0
   36.2420   27.4400   35.5920 H   0  0  0  0  0  0  0  0  0  0  0  0
   33.2170   29.2810   33.0220 Br  0  0  0  0  0  0  0  0  0  0  0  0
   34.0820   30.2930   34.3750 C   0  0  0  0  0  0  0  0  0  0  0  0
   35.4160   29.9800   34.5680 C   0  0  0  0  0  0  0  0  0  0  0  0
   36.1600   30.7250   35.4910 C   0  0  0  0  0  0  0  0  0  0  0  0
   35.5700   31.7330   36.1820 C   0  0  0  0  0  0  0  0  0  0  0  0
   34.2300   32.0080   35.9580 C   0  0  0  0  0  0  0  0  0  0  0  0
   33.4530   31.2850   35.0410 C   0  0  0  0  0  0  0  0  0  0  0  0
   37.1420   30.7680   35.9010 H   0  0  0  0  0  0  0  0  0  0  0  0
   35.8980   32.4320   36.9210 H   0  0  0  0  0  0  0  0  0  0  0  0
   33.5990   32.7840   36.4300 H   0  0  0  0  0  0  0  0  0  0  0  0
   32.0160   31.5260   34.7550 C   0  0  0  0  0  3  0  0  0  0  0  0
   31.6340   32.7110   33.9110 C   0  0  0  0  0  2  0  0  0  0  0  0
   31.3100   32.6500   35.3770 C   0  0  0  0  0  2  0  0  0  0  0  0
   39.1710   27.9980   30.4830 C   0  0  0  0  0  0  0  0  0  0  0  0
   37.8190   28.2400   30.7100 C   0  0  0  0  0  0  0  0  0  0  0  0
   37.0700   28.6740   29.6400 C   0  0  0  0  0  0  0  0  0  0  0  0
   37.6630   28.8480   28.4290 N   0  0  0  0  0  0  0  0  0  0  0  0
   38.9500   28.6110   28.2400 C   0  0  0  0  0  0  0  0  0  0  0  0
   39.7070   28.1890   29.2540 N   0  0  0  0  0  0  0  0  0  0  0  0
   39.9130   27.6510   31.2130 H   0  0  0  0  0  0  0  0  0  0  0  0
   36.0350   28.8520   29.8440 H   0  0  0  0  0  0  0  0  0  0  0  0
   39.2770   28.7950   27.2210 H   0  0  0  0  0  0  0  0  0  0  0  0
  1  2  1  0  0  0  0
  2  7  1  0  0  0  0
  3  2  2  0  0  0  0
  3  4  1  0  0  0  0
  4  5  2  0  0  0  0
  5  9  1  0  0  0  0
  5  6  1  0  0  0  0
  6 10  1  0  0  0  0
  7 13  1  0  0  0  0
  7  6  2  0  0  0  0
  8  4  1  0  0  0  0
 11 12  1  0  0  0  0
 12 13  2  0  0  0  0
 12 17  1  0  0  0  0
 13 14  1  0  0  0  0
 14 18  1  0  0  0  0
 14 15  2  0  0  0  0
 15 19  1  0  0  0  0
 16 15  1  0  0  0  0
 16 20  1  0  0  0  0
 17 16  2  0  0  0  0
 21 17  1  0  0  0  0
 21 23  1  0  0  0  0
 22 21  1  0  0  0  0
 22 23  1  0  0  0  0
 24 25  1  0  0  0  0
 24 30  1  0  0  0  0
 25  3  1  0  0  0  0
 26 31  1  0  0  0  0
 26 25  2  0  0  0  0
 27 26  1  0  0  0  0
 28 27  2  0  0  0  0
 28 29  1  0  0  0  0
 29 24  2  0  0  0  0
 32 28  1  0  0  0  0
M  END
>  <minimizedAffinity>
-5.14723301

$$$$
