
 OpenBabel03272500513D

 39 44  0  0  1  0  0  0  0  0999 V2000
   31.1370   27.8790   46.9760 C   0  0  1  0  0  0  0  0  0  0  0  0
   31.4860   27.7420   45.4500 C   0  0  0  0  0  0  0  0  0  0  0  0
   31.7110   29.0000   46.2340 C   0  0  2  0  0  0  0  0  0  0  0  0
   31.8170   27.3310   47.6580 H   0  0  0  0  0  0  0  0  0  0  0  0
   32.3440   27.1050   45.2400 H   0  0  0  0  0  0  0  0  0  0  0  0
   30.6070   27.6980   44.7650 H   0  0  0  0  0  0  0  0  0  0  0  0
   31.0540   29.8420   45.9400 H   0  0  0  0  0  0  0  0  0  0  0  0
   27.7510   28.6300   47.9260 C   0  0  0  0  0  0  0  0  0  0  0  0
   27.6750   27.2430   47.7860 C   0  0  0  0  0  0  0  0  0  0  0  0
   28.9510   26.7790   47.4070 C   0  0  0  0  0  0  0  0  0  0  0  0
   29.7350   27.8660   47.3320 N   0  0  0  0  0  0  0  0  0  0  0  0
   29.0040   28.9100   47.6390 N   0  0  0  0  0  0  0  0  0  0  0  0
   26.7880   26.6280   47.9400 H   0  0  0  0  0  0  0  0  0  0  0  0
   29.1840   25.7390   47.2280 H   0  0  0  0  0  0  0  0  0  0  0  0
   25.4770   28.9130   48.9570 C   0  0  0  0  0  0  0  0  0  0  0  0
   26.6340   29.4440   48.3050 C   0  0  0  0  0  0  0  0  0  0  0  0
   26.6380   30.7970   48.0450 C   0  0  0  0  0  0  0  0  0  0  0  0
   25.5540   31.5390   48.4220 N   0  0  0  0  0  0  0  0  0  0  0  0
   24.4900   30.9980   49.0320 C   0  0  0  0  0  0  0  0  0  0  0  0
   24.4410   29.6620   49.3100 N   0  0  0  0  0  0  0  0  0  0  0  0
   25.5220   27.8420   49.1400 H   0  0  0  0  0  0  0  0  0  0  0  0
   27.4540   31.3040   47.5590 H   0  0  0  0  0  0  0  0  0  0  0  0
   23.7130   31.7100   49.2670 H   0  0  0  0  0  0  0  0  0  0  0  0
   33.1210   29.4330   46.5180 C   0  0  0  0  0  0  0  0  0  0  0  0
   33.9880   29.9840   45.5880 C   0  0  0  0  0  0  0  0  0  0  0  0
   35.1580   30.2580   46.2270 N   0  0  0  0  0  0  0  0  0  0  0  0
   35.0390   29.8920   47.5280 C   0  0  0  0  0  0  0  0  0  0  0  0
   33.7970   29.3910   47.6970 N   0  0  0  0  0  0  0  0  0  0  0  0
   33.7740   30.1620   44.5540 H   0  0  0  0  0  0  0  0  0  0  0  0
   35.9920   30.6770   45.7790 H   0  0  0  0  0  0  0  0  0  0  0  0
   36.0770   30.0140   48.5930 C   0  0  0  0  0  0  0  0  0  0  0  0
   36.1900   29.0620   49.6130 C   0  0  0  0  0  0  0  0  0  0  0  0
   37.5870   29.6840   50.6190 S   0  0  0  0  0  0  0  0  0  0  0  0
   37.7820   31.1690   49.4510 C   0  0  0  0  0  0  0  0  0  0  0  0
   36.9630   30.9710   48.7070 N   0  0  0  0  0  0  0  0  0  0  0  0
   35.5630   28.1760   49.7280 H   0  0  0  0  0  0  0  0  0  0  0  0
   38.8040   32.3240   49.5310 C   0  0  0  0  0  0  0  0  0  0  0  0
   39.0560   33.0140   48.2500 C   0  0  0  0  0  0  0  0  0  0  0  0
   38.2740   33.6950   49.3400 C   0  0  0  0  0  0  0  0  0  0  0  0
  1 11  1  0  0  0  0
  1  4  1  1  0  0  0
  2  3  1  0  0  0  0
  2  1  1  0  0  0  0
  3  7  1  6  0  0  0
  3 24  1  0  0  0  0
  3  1  1  0  0  0  0
  5  2  1  0  0  0  0
  6  2  1  0  0  0  0
  8 16  1  0  0  0  0
  9  8  1  0  0  0  0
  9 13  1  0  0  0  0
 10  9  2  0  0  0  0
 11 10  1  0  0  0  0
 11 12  1  0  0  0  0
 12  8  2  0  0  0  0
 14 10  1  0  0  0  0
 15 21  1  0  0  0  0
 15 20  1  0  0  0  0
 16 15  2  0  0  0  0
 17 16  1  0  0  0  0
 17 18  2  0  0  0  0
 18 19  1  0  0  0  0
 19 23  1  0  0  0  0
 19 20  2  0  0  0  0
 22 17  1  0  0  0  0
 24 28  1  0  0  0  0
 25 26  1  0  0  0  0
 25 24  2  0  0  0  0
 26 27  1  0  0  0  0
 27 28  2  0  0  0  0
 27 31  1  0  0  0  0
 29 25  1  0  0  0  0
 30 26  1  0  0  0  0
 31 35  1  0  0  0  0
 31 32  2  0  0  0  0
 32 36  1  0  0  0  0
 32 33  1  0  0  0  0
 34 37  1  0  0  0  0
 34 33  1  0  0  0  0
 35 34  2  0  0  0  0
 38 39  1  0  0  0  0
 38 37  1  0  0  0  0
 39 37  1  0  0  0  0
M  END
>  <minimizedAffinity>
-6.59188938

>  <minimizedRMSD>
1.4750303

$$$$
