
 OpenBabel03272506563D

 14 15  0  0  0  0  0  0  0  0999 V2000
   36.5020   29.6440   51.1000 C   0  0  0  0  0  0  0  0  0  0  0  0
   37.4080   30.1540   50.1590 C   0  0  0  0  0  0  0  0  0  0  0  0
   37.0310   30.0560   48.7960 C   0  0  0  0  0  0  0  0  0  0  0  0
   35.8370   29.4870   48.4810 N   0  0  0  0  0  0  0  0  0  0  0  0
   35.0160   29.0190   49.4310 C   0  0  0  0  0  0  0  0  0  0  0  0
   35.3130   29.0790   50.7460 N   0  0  0  0  0  0  0  0  0  0  0  0
   36.8340   29.7400   52.1270 H   0  0  0  0  0  0  0  0  0  0  0  0
   37.6880   30.4300   48.0390 H   0  0  0  0  0  0  0  0  0  0  0  0
   38.6380   30.7350   50.5560 N   0  0  0  0  0  0  0  0  0  0  0  0
   39.0610   31.6060   50.1890 H   0  0  0  0  0  0  0  0  0  0  0  0
   39.1670   30.2190   51.3060 H   0  0  0  0  0  0  0  0  0  0  0  0
   33.7130   28.3970   49.0750 C   0  0  0  0  0  3  0  0  0  0  0  0
   33.8320   27.1550   48.1710 C   0  0  0  0  0  2  0  0  0  0  0  0
   33.2090   28.4690   47.6830 C   0  0  0  0  0  2  0  0  0  0  0  0
  1  7  1  0  0  0  0
  2  9  1  0  0  0  0
  2  1  2  0  0  0  0
  3  2  1  0  0  0  0
  4  3  2  0  0  0  0
  4  5  1  0  0  0  0
  5  6  2  0  0  0  0
  6  1  1  0  0  0  0
  8  3  1  0  0  0  0
  9 11  1  0  0  0  0
 10  9  1  0  0  0  0
 12  5  1  0  0  0  0
 13 12  1  0  0  0  0
 14 13  1  0  0  0  0
 14 12  1  0  0  0  0
M  END
>  <minimizedAffinity>
-3.92471099

>  <minimizedRMSD>
0.657644629

$$$$
