
 OpenBabel03272501273D

 33 36  0  0  1  0  0  0  0  0999 V2000
   34.9920   29.8870   47.4670 C   0  0  0  0  0  0  0  0  0  0  0  0
   35.5250   30.0340   46.1810 C   0  0  0  0  0  0  0  0  0  0  0  0
   36.7100   30.7680   46.3040 C   0  0  0  0  0  0  0  0  0  0  0  0
   36.8450   31.0290   47.6230 N   0  0  0  0  0  0  0  0  0  0  0  0
   35.8280   30.5030   48.2750 N   0  0  0  0  0  0  0  0  0  0  0  0
   35.1560   29.6810   45.2170 H   0  0  0  0  0  0  0  0  0  0  0  0
   37.3750   31.0610   45.5120 H   0  0  0  0  0  0  0  0  0  0  0  0
   38.6090   32.6380   47.3990 N   0  0  0  0  0  0  0  0  0  0  0  0
   39.3140   33.5440   48.2970 C   0  0  0  0  0  0  0  0  0  0  0  0
   38.6230   33.4720   49.6490 C   0  0  0  0  0  0  0  0  0  0  0  0
   37.3550   32.6950   49.3210 C   0  0  0  0  0  0  0  0  0  0  0  0
   37.8760   31.7410   48.2800 C   0  0  1  0  0  0  0  0  0  0  0  0
   39.2660   32.0900   46.8040 H   0  0  0  0  0  0  0  0  0  0  0  0
   40.3240   33.0920   48.4380 H   0  0  0  0  0  0  0  0  0  0  0  0
   39.3960   34.5570   47.8940 H   0  0  0  0  0  0  0  0  0  0  0  0
   39.2150   33.0020   50.4320 H   0  0  0  0  0  0  0  0  0  0  0  0
   38.2760   34.4970   49.8950 H   0  0  0  0  0  0  0  0  0  0  0  0
   36.6120   33.3580   48.8340 H   0  0  0  0  0  0  0  0  0  0  0  0
   36.9270   32.1870   50.2020 H   0  0  0  0  0  0  0  0  0  0  0  0
   38.7610   30.8060   48.9300 N   0  0  0  0  0  0  0  0  0  0  0  0
   38.7050   29.9040   48.4310 H   0  0  0  0  0  0  0  0  0  0  0  0
   38.4830   30.6280   49.9320 H   0  0  0  0  0  0  0  0  0  0  0  0
   33.4820   28.5040   48.8980 C   0  0  0  0  0  0  0  0  0  0  0  0
   33.7490   29.1670   47.6880 C   0  0  0  0  0  0  0  0  0  0  0  0
   32.7760   29.1130   46.6940 C   0  0  0  0  0  0  0  0  0  0  0  0
   31.6410   28.4330   46.9440 N   0  0  0  0  0  0  0  0  0  0  0  0
   31.4050   27.8020   48.1180 C   0  0  0  0  0  0  0  0  0  0  0  0
   32.3450   27.8440   49.1040 N   0  0  0  0  0  0  0  0  0  0  0  0
   34.2650   28.5740   49.6400 H   0  0  0  0  0  0  0  0  0  0  0  0
   32.9700   29.6190   45.7580 H   0  0  0  0  0  0  0  0  0  0  0  0
   30.1390   27.0600   48.3630 C   0  0  0  0  0  0  0  0  0  0  0  0
   28.9410   27.9090   48.6940 C   0  0  0  0  0  0  0  0  0  0  0  0
   29.5490   27.0660   49.7480 C   0  0  0  0  0  0  0  0  0  0  0  0
  1 24  1  0  0  0  0
  1  5  2  0  0  0  0
  2  3  2  0  0  0  0
  2  1  1  0  0  0  0
  3  4  1  0  0  0  0
  4  5  1  0  0  0  0
  4 12  1  0  0  0  0
  6  2  1  0  0  0  0
  7  3  1  0  0  0  0
  8 12  1  0  0  0  0
  8  9  1  0  0  0  0
  9 14  1  0  0  0  0
  9 10  1  0  0  0  0
 10 17  1  0  0  0  0
 10 16  1  0  0  0  0
 11 10  1  0  0  0  0
 11 19  1  0  0  0  0
 12 20  1  1  0  0  0
 12 11  1  0  0  0  0
 13  8  1  0  0  0  0
 15  9  1  0  0  0  0
 18 11  1  0  0  0  0
 20 22  1  0  0  0  0
 21 20  1  0  0  0  0
 23 28  1  0  0  0  0
 23 29  1  0  0  0  0
 24 23  2  0  0  0  0
 25 26  2  0  0  0  0
 25 24  1  0  0  0  0
 26 27  1  0  0  0  0
 27 31  1  0  0  0  0
 27 28  2  0  0  0  0
 30 25  1  0  0  0  0
 31 32  1  0  0  0  0
 31 33  1  0  0  0  0
 32 33  1  0  0  0  0
M  END
>  <minimizedAffinity>
-5.38825035

>  <minimizedRMSD>
0.479583502

$$$$
