
 OpenBabel03272510273D

 39 43  0  0  1  0  0  0  0  0999 V2000
   36.1370   30.2170   46.8730 C   0  0  0  0  0  0  0  0  0  0  0  0
   37.0410   30.7480   47.7900 C   0  0  0  0  0  0  0  0  0  0  0  0
   38.0540   31.6140   47.3840 C   0  0  0  0  0  0  0  0  0  0  0  0
   38.1100   31.9170   46.0270 C   0  0  0  0  0  0  0  0  0  0  0  0
   38.9960   32.7330   45.3870 N   0  0  0  0  0  0  0  0  0  0  0  0
   38.6580   32.7200   44.0890 C   0  0  0  0  0  0  0  0  0  0  0  0
   37.6130   31.9360   43.9100 N   0  0  0  0  0  0  0  0  0  0  0  0
   37.2350   31.4140   45.0880 C   0  0  0  0  0  0  0  0  0  0  0  0
   36.2280   30.5450   45.5300 C   0  0  0  0  0  0  0  0  0  0  0  0
   35.3450   29.5480   47.1420 H   0  0  0  0  0  0  0  0  0  0  0  0
   38.7430   32.0160   48.0980 H   0  0  0  0  0  0  0  0  0  0  0  0
   39.7690   33.2530   45.8280 H   0  0  0  0  0  0  0  0  0  0  0  0
   35.5390   30.1460   44.7980 H   0  0  0  0  0  0  0  0  0  0  0  0
   37.5470   30.1880   51.4710 C   0  0  0  0  0  0  0  0  0  0  0  0
   37.8140   30.6120   50.1790 C   0  0  0  0  0  0  0  0  0  0  0  0
   36.8840   30.3600   49.1760 C   0  0  0  0  0  0  0  0  0  0  0  0
   35.7450   29.6990   49.5350 N   0  0  0  0  0  0  0  0  0  0  0  0
   35.4930   29.2920   50.7930 C   0  0  0  0  0  0  0  0  0  0  0  0
   36.3750   29.5320   51.7380 N   0  0  0  0  0  0  0  0  0  0  0  0
   38.2620   30.3790   52.2610 H   0  0  0  0  0  0  0  0  0  0  0  0
   38.7240   31.1370   49.9030 H   0  0  0  0  0  0  0  0  0  0  0  0
   34.5630   28.7640   51.0260 H   0  0  0  0  0  0  0  0  0  0  0  0
   39.3580   33.4540   43.1310 O   0  0  0  0  0  0  0  0  0  0  0  0
   38.9730   31.5790   41.8620 N   0  0  0  0  0  0  0  0  0  0  0  0
   39.2270   32.9940   41.7950 C   0  0  1  0  0  0  0  0  0  0  0  0
   38.1440   33.6820   41.1050 C   0  0  0  0  0  0  0  0  0  0  0  0
   38.0830   33.2090   39.7830 O   0  0  0  0  0  0  0  0  0  0  0  0
   37.9600   31.8570   39.6510 C   0  0  0  0  0  0  0  0  0  0  0  0
   38.9440   31.0950   40.5130 C   0  0  1  0  0  0  0  0  0  0  0  0
   38.3190   31.2060   42.5040 H   0  0  0  0  0  0  0  0  0  0  0  0
   40.1820   33.1460   41.2690 H   0  0  0  0  0  0  0  0  0  0  0  0
   37.1320   33.6870   41.4110 H   0  0  0  0  0  0  0  0  0  0  0  0
   38.4500   34.7640   40.9800 H   0  0  0  0  0  0  0  0  0  0  0  0
   38.2190   31.6010   38.6070 H   0  0  0  0  0  0  0  0  0  0  0  0
   36.9160   31.5600   39.9220 H   0  0  0  0  0  0  0  0  0  0  0  0
   38.6240   30.0400   40.5330 H   0  0  0  0  0  0  0  0  0  0  0  0
   40.3070   31.1530   39.8650 C   0  0  0  0  0  3  0  0  0  0  0  0
   41.4000   30.2880   40.4010 C   0  0  0  0  0  2  0  0  0  0  0  0
   40.7700   29.9230   39.1050 C   0  0  0  0  0  2  0  0  0  0  0  0
  1 10  1  0  0  0  0
  1  2  1  0  0  0  0
  2 16  1  0  0  0  0
  3  2  2  0  0  0  0
  3 11  1  0  0  0  0
  4  3  1  0  0  0  0
  5 12  1  0  0  0  0
  5  4  1  0  0  0  0
  6  5  1  0  0  0  0
  7  6  2  0  0  0  0
  7  8  1  0  0  0  0
  8  9  1  0  0  0  0
  8  4  2  0  0  0  0
  9  1  2  0  0  0  0
 13  9  1  0  0  0  0
 14 19  1  0  0  0  0
 14 20  1  0  0  0  0
 15 14  2  0  0  0  0
 16 17  2  0  0  0  0
 16 15  1  0  0  0  0
 17 18  1  0  0  0  0
 18 22  1  0  0  0  0
 18 19  2  0  0  0  0
 21 15  1  0  0  0  0
 23  6  1  0  0  0  0
 24 30  1  0  0  0  0
 25 31  1  6  0  0  0
 25 24  1  0  0  0  0
 25 23  1  0  0  0  0
 26 32  1  0  0  0  0
 26 25  1  0  0  0  0
 27 26  1  0  0  0  0
 28 27  1  0  0  0  0
 28 35  1  0  0  0  0
 28 29  1  0  0  0  0
 29 36  1  1  0  0  0
 29 24  1  0  0  0  0
 33 26  1  0  0  0  0
 34 28  1  0  0  0  0
 37 38  1  0  0  0  0
 37 29  1  0  0  0  0
 39 37  1  0  0  0  0
 39 38  1  0  0  0  0
M  END
>  <minimizedAffinity>
-5.58496809

>  <minimizedRMSD>
0.892956853

$$$$
