
 OpenBabel03262521583D

 27 29  0  0  1  0  0  0  0  0999 V2000
   35.8910   29.7730   48.7680 N   0  0  0  0  0  0  0  0  0  0  0  0
   36.6180   28.8960   49.6470 C   0  0  0  0  0  0  0  0  0  0  0  0
   37.0580   29.4240   50.9400 C   0  0  0  0  0  0  0  0  0  0  0  0
   37.3580   30.8840   51.0330 C   0  0  0  0  0  0  0  0  0  0  0  0
   36.6040   31.7000   50.0380 C   0  0  0  0  0  0  0  0  0  0  0  0
   36.6220   30.9910   48.6730 C   0  0  1  0  0  0  0  0  0  0  0  0
   37.5010   28.4690   49.1000 H   0  0  0  0  0  0  0  0  0  0  0  0
   35.9600   28.0140   49.8070 H   0  0  0  0  0  0  0  0  0  0  0  0
   36.3080   29.1760   51.7190 H   0  0  0  0  0  0  0  0  0  0  0  0
   37.9800   28.8770   51.2670 H   0  0  0  0  0  0  0  0  0  0  0  0
   38.4470   31.0550   50.9130 H   0  0  0  0  0  0  0  0  0  0  0  0
   37.1270   31.2440   52.0650 H   0  0  0  0  0  0  0  0  0  0  0  0
   37.0040   32.7110   49.9410 H   0  0  0  0  0  0  0  0  0  0  0  0
   35.5250   31.7080   50.3410 H   0  0  0  0  0  0  0  0  0  0  0  0
   36.0480   31.6900   48.0300 H   0  0  0  0  0  0  0  0  0  0  0  0
   34.6630   29.4520   48.1250 C   0  0  0  0  0  0  0  0  0  0  0  0
   34.1700   30.1310   47.0120 C   0  0  0  0  0  0  0  0  0  0  0  0
   32.9630   29.7430   46.4540 C   0  0  0  0  0  0  0  0  0  0  0  0
   32.3180   28.6950   47.0450 N   0  0  0  0  0  0  0  0  0  0  0  0
   32.8110   28.0600   48.1100 C   0  0  0  0  0  0  0  0  0  0  0  0
   33.9840   28.4330   48.6560 N   0  0  0  0  0  0  0  0  0  0  0  0
   34.7190   30.9360   46.6020 H   0  0  0  0  0  0  0  0  0  0  0  0
   32.6240   30.2860   45.6080 H   0  0  0  0  0  0  0  0  0  0  0  0
   32.2350   27.2220   48.5340 H   0  0  0  0  0  0  0  0  0  0  0  0
   38.0040   30.8630   48.1390 C   0  0  0  0  0  0  0  0  0  0  0  0
   38.3370   30.6390   46.7420 C   0  0  0  0  0  0  0  0  0  0  0  0
   38.4790   32.0290   47.2430 C   0  0  0  0  0  0  0  0  0  0  0  0
  1  2  1  0  0  0  0
  2  8  1  0  0  0  0
  2  3  1  0  0  0  0
  3  4  1  0  0  0  0
  3 10  1  0  0  0  0
  3  9  1  0  0  0  0
  4 12  1  0  0  0  0
  5 14  1  0  0  0  0
  5  4  1  0  0  0  0
  6 15  1  6  0  0  0
  6  1  1  0  0  0  0
  6  5  1  0  0  0  0
  7  2  1  0  0  0  0
 11  4  1  0  0  0  0
 13  5  1  0  0  0  0
 16 21  1  0  0  0  0
 16  1  1  0  0  0  0
 17 16  2  0  0  0  0
 18 17  1  0  0  0  0
 18 19  2  0  0  0  0
 19 20  1  0  0  0  0
 20 24  1  0  0  0  0
 20 21  2  0  0  0  0
 22 17  1  0  0  0  0
 23 18  1  0  0  0  0
 25  6  1  0  0  0  0
 26 27  1  0  0  0  0
 26 25  1  0  0  0  0
 27 25  1  0  0  0  0
M  END
>  <minimizedAffinity>
-5.03245449

>  <minimizedRMSD>
1.43004632

$$$$
