
 OpenBabel03272510203D

 30 33  0  0  0  0  0  0  0  0999 V2000
   37.3820   29.2220   50.8590 Br  0  0  0  0  0  0  0  0  0  0  0  0
   35.9790   29.2700   49.5710 C   0  0  0  0  0  0  0  0  0  0  0  0
   35.9640   30.2330   48.5660 C   0  0  0  0  0  0  0  0  0  0  0  0
   34.9200   30.2030   47.6740 C   0  0  0  0  0  0  0  0  0  0  0  0
   33.9000   29.2820   47.7230 C   0  0  0  0  0  0  0  0  0  0  0  0
   33.9410   28.3430   48.7260 C   0  0  0  0  0  0  0  0  0  0  0  0
   34.9700   28.3500   49.6280 C   0  0  0  0  0  0  0  0  0  0  0  0
   34.9170   30.9550   46.8960 H   0  0  0  0  0  0  0  0  0  0  0  0
   33.1580   27.5990   48.8010 H   0  0  0  0  0  0  0  0  0  0  0  0
   34.9750   27.5980   50.4060 H   0  0  0  0  0  0  0  0  0  0  0  0
   37.9960   33.1500   49.4030 C   0  0  0  0  0  0  0  0  0  0  0  0
   38.9980   33.1540   48.3870 C   0  0  0  0  0  0  0  0  0  0  0  0
   38.9490   32.1510   47.4370 C   0  0  0  0  0  0  0  0  0  0  0  0
   37.9610   31.1990   47.4940 N   0  0  0  0  0  0  0  0  0  0  0  0
   37.0270   31.2300   48.4760 C   0  0  0  0  0  0  0  0  0  0  0  0
   37.0500   32.2050   49.4240 N   0  0  0  0  0  0  0  0  0  0  0  0
   37.9660   33.8970   50.1770 H   0  0  0  0  0  0  0  0  0  0  0  0
   39.7350   33.9220   48.4020 H   0  0  0  0  0  0  0  0  0  0  0  0
   39.6730   32.1100   46.6600 H   0  0  0  0  0  0  0  0  0  0  0  0
   32.7930   29.2520   46.7760 C   0  0  0  0  0  0  0  0  0  0  0  0
   31.9230   28.2010   46.6150 C   0  0  0  0  0  0  0  0  0  0  0  0
   30.8820   28.2180   45.6990 C   0  0  0  0  0  0  0  0  0  0  0  0
   30.7080   29.2970   44.9360 N   0  0  0  0  0  0  0  0  0  0  0  0
   31.5560   30.3460   45.0810 C   0  0  0  0  0  0  0  0  0  0  0  0
   32.5460   30.3010   45.9670 N   0  0  0  0  0  0  0  0  0  0  0  0
   32.0670   27.3190   47.2390 H   0  0  0  0  0  0  0  0  0  0  0  0
   30.2560   27.3270   45.6580 H   0  0  0  0  0  0  0  0  0  0  0  0
   31.3900   31.5720   44.2420 C   0  0  0  0  0  3  0  0  0  0  0  0
   32.5750   32.4040   43.9130 C   0  0  0  0  0  2  0  0  0  0  0  0
   31.5480   32.9310   44.8480 C   0  0  0  0  0  2  0  0  0  0  0  0
  2  7  1  0  0  0  0
  2  1  1  0  0  0  0
  3  2  2  0  0  0  0
  4  5  2  0  0  0  0
  4  3  1  0  0  0  0
  5  6  1  0  0  0  0
  6  9  1  0  0  0  0
  6  7  2  0  0  0  0
  7 10  1  0  0  0  0
  8  4  1  0  0  0  0
 11 16  1  0  0  0  0
 11 17  1  0  0  0  0
 12 18  1  0  0  0  0
 12 11  2  0  0  0  0
 13 14  2  0  0  0  0
 13 12  1  0  0  0  0
 14 15  1  0  0  0  0
 15  3  1  0  0  0  0
 15 16  2  0  0  0  0
 19 13  1  0  0  0  0
 20  5  1  0  0  0  0
 21 20  1  0  0  0  0
 21 26  1  0  0  0  0
 22 21  2  0  0  0  0
 23 24  2  0  0  0  0
 23 22  1  0  0  0  0
 24 25  1  0  0  0  0
 25 20  2  0  0  0  0
 27 22  1  0  0  0  0
 28 30  1  0  0  0  0
 28 24  1  0  0  0  0
 29 28  1  0  0  0  0
 29 30  1  0  0  0  0
M  END
>  <minimizedAffinity>
-5.96013927

>  <minimizedRMSD>
0.264838189

$$$$
