
 OpenBabel03272506143D

 18 19  0  0  0  0  0  0  0  0999 V2000
   37.7270   31.7700   48.9300 C   0  0  0  0  0  0  0  0  0  0  0  0
   36.4640   31.1990   48.7050 C   0  0  0  0  0  0  0  0  0  0  0  0
   35.9940   30.2550   49.6020 C   0  0  0  0  0  0  0  0  0  0  0  0
   36.7600   29.9060   50.6700 N   0  0  0  0  0  0  0  0  0  0  0  0
   37.9890   30.4840   50.8600 C   0  0  0  0  0  0  0  0  0  0  0  0
   38.4690   31.4040   50.0020 N   0  0  0  0  0  0  0  0  0  0  0  0
   35.9460   31.5350   47.8470 H   0  0  0  0  0  0  0  0  0  0  0  0
   38.5180   30.1420   51.7320 H   0  0  0  0  0  0  0  0  0  0  0  0
   34.6740   29.6490   49.3800 C   0  0  0  0  0  0  0  0  0  0  0  0
   34.4770   28.1990   49.4880 C   0  0  0  0  0  0  0  0  0  0  0  0
   34.6390   28.7470   48.1330 C   0  0  0  0  0  0  0  0  0  0  0  0
   38.3390   32.7180   48.1390 O   0  0  0  0  0  0  0  0  0  0  0  0
   39.7180   31.0750   46.5230 O   0  0  0  0  0  0  0  0  0  0  0  0
   38.9100   32.3520   46.5640 P   0  0  0  0  0  0  0  0  0  0  0  0
   37.5360   32.2300   45.5690 O   0  0  0  0  0  0  0  0  0  0  0  0
   37.7840   31.7790   44.7040 H   0  0  0  0  0  0  0  0  0  0  0  0
   39.9290   33.6040   46.0370 O   0  0  0  0  0  0  0  0  0  0  0  0
   40.6170   33.7160   46.7300 H   0  0  0  0  0  0  0  0  0  0  0  0
  1  6  1  0  0  0  0
  2  1  2  0  0  0  0
  2  3  1  0  0  0  0
  3  4  2  0  0  0  0
  4  5  1  0  0  0  0
  5  8  1  0  0  0  0
  6  5  2  0  0  0  0
  7  2  1  0  0  0  0
  9 10  1  0  0  0  0
  9  3  1  0  0  0  0
 11  9  1  0  0  0  0
 11 10  1  0  0  0  0
 12  1  1  0  0  0  0
 13 14  2  0  0  0  0
 14 12  1  0  0  0  0
 15 14  1  0  0  0  0
 16 15  1  0  0  0  0
 17 14  1  0  0  0  0
 17 18  1  0  0  0  0
M  END
>  <minimizedAffinity>
-4.96295404

>  <minimizedRMSD>
4.14932251

$$$$
