
 OpenBabel03272510273D

 39 43  0  0  1  0  0  0  0  0999 V2000
   35.9960   30.2210   46.7790 C   0  0  0  0  0  0  0  0  0  0  0  0
   37.1280   30.2850   47.5900 C   0  0  0  0  0  0  0  0  0  0  0  0
   38.3910   30.5020   47.0450 C   0  0  0  0  0  0  0  0  0  0  0  0
   38.4590   30.6520   45.6630 C   0  0  0  0  0  0  0  0  0  0  0  0
   39.5660   30.8740   44.8980 N   0  0  0  0  0  0  0  0  0  0  0  0
   39.1420   30.9510   43.6270 C   0  0  0  0  0  0  0  0  0  0  0  0
   37.8350   30.7850   43.5830 N   0  0  0  0  0  0  0  0  0  0  0  0
   37.3650   30.5960   44.8270 C   0  0  0  0  0  0  0  0  0  0  0  0
   36.1080   30.3760   45.4070 C   0  0  0  0  0  0  0  0  0  0  0  0
   35.0070   30.0550   47.1560 H   0  0  0  0  0  0  0  0  0  0  0  0
   39.2540   30.5490   47.6770 H   0  0  0  0  0  0  0  0  0  0  0  0
   40.5330   30.9640   45.2420 H   0  0  0  0  0  0  0  0  0  0  0  0
   35.2450   30.3300   44.7560 H   0  0  0  0  0  0  0  0  0  0  0  0
   37.5380   30.2970   51.3240 C   0  0  0  0  0  0  0  0  0  0  0  0
   37.8390   30.5170   49.9900 C   0  0  0  0  0  0  0  0  0  0  0  0
   36.9340   30.1150   49.0140 C   0  0  0  0  0  0  0  0  0  0  0  0
   35.7830   29.5170   49.4410 N   0  0  0  0  0  0  0  0  0  0  0  0
   35.4990   29.3070   50.7390 C   0  0  0  0  0  0  0  0  0  0  0  0
   36.3570   29.6890   51.6580 N   0  0  0  0  0  0  0  0  0  0  0  0
   38.2340   30.6060   52.0940 H   0  0  0  0  0  0  0  0  0  0  0  0
   38.7580   30.9940   49.6600 H   0  0  0  0  0  0  0  0  0  0  0  0
   34.5600   28.8220   51.0270 H   0  0  0  0  0  0  0  0  0  0  0  0
   40.0180   31.1770   42.5640 O   0  0  0  0  0  0  0  0  0  0  0  0
   38.5180   31.5540   40.8660 N   0  0  0  0  0  0  0  0  0  0  0  0
   39.5920   32.1460   41.6190 C   0  0  1  0  0  0  0  0  0  0  0  0
   39.1490   33.3660   42.2810 C   0  0  0  0  0  0  0  0  0  0  0  0
   38.7710   34.2960   41.2980 O   0  0  0  0  0  0  0  0  0  0  0  0
   37.8330   33.8590   40.4090 C   0  0  0  0  0  0  0  0  0  0  0  0
   38.1570   32.4930   39.8430 C   0  0  1  0  0  0  0  0  0  0  0  0
   37.7920   31.0530   41.3150 H   0  0  0  0  0  0  0  0  0  0  0  0
   40.4200   32.3580   40.9260 H   0  0  0  0  0  0  0  0  0  0  0  0
   38.3660   33.4250   42.9900 H   0  0  0  0  0  0  0  0  0  0  0  0
   40.0560   33.8460   42.7580 H   0  0  0  0  0  0  0  0  0  0  0  0
   37.8470   34.5490   39.5460 H   0  0  0  0  0  0  0  0  0  0  0  0
   36.8370   33.8270   40.9190 H   0  0  0  0  0  0  0  0  0  0  0  0
   37.2530   32.1180   39.3360 H   0  0  0  0  0  0  0  0  0  0  0  0
   39.2440   32.6400   38.8060 C   0  0  0  0  0  3  0  0  0  0  0  0
   39.6980   31.4300   38.0560 C   0  0  0  0  0  2  0  0  0  0  0  0
   38.8520   32.4300   37.3550 C   0  0  0  0  0  2  0  0  0  0  0  0
  1 10  1  0  0  0  0
  1  2  1  0  0  0  0
  2 16  1  0  0  0  0
  3  2  2  0  0  0  0
  3 11  1  0  0  0  0
  4  3  1  0  0  0  0
  5 12  1  0  0  0  0
  5  4  1  0  0  0  0
  6  5  1  0  0  0  0
  7  6  2  0  0  0  0
  7  8  1  0  0  0  0
  8  9  1  0  0  0  0
  8  4  2  0  0  0  0
  9  1  2  0  0  0  0
 13  9  1  0  0  0  0
 14 19  1  0  0  0  0
 14 20  1  0  0  0  0
 15 14  2  0  0  0  0
 16 17  2  0  0  0  0
 16 15  1  0  0  0  0
 17 18  1  0  0  0  0
 18 22  1  0  0  0  0
 18 19  2  0  0  0  0
 21 15  1  0  0  0  0
 23  6  1  0  0  0  0
 24 30  1  0  0  0  0
 24 25  1  0  0  0  0
 25 31  1  6  0  0  0
 25 26  1  0  0  0  0
 25 23  1  0  0  0  0
 26 33  1  0  0  0  0
 26 32  1  0  0  0  0
 27 26  1  0  0  0  0
 28 35  1  0  0  0  0
 28 27  1  0  0  0  0
 29 36  1  6  0  0  0
 29 28  1  0  0  0  0
 29 24  1  0  0  0  0
 34 28  1  0  0  0  0
 37 29  1  0  0  0  0
 38 37  1  0  0  0  0
 39 38  1  0  0  0  0
 39 37  1  0  0  0  0
M  END
>  <minimizedAffinity>
-5.14481688

>  <minimizedRMSD>
1.62647939

$$$$
