
 OpenBabel03272506563D

 14 15  0  0  0  0  0  0  0  0999 V2000
   38.0120   32.5760   49.5180 C   0  0  0  0  0  0  0  0  0  0  0  0
   38.6750   32.6240   48.2830 C   0  0  0  0  0  0  0  0  0  0  0  0
   38.6170   31.4540   47.4850 C   0  0  0  0  0  0  0  0  0  0  0  0
   37.9360   30.3720   47.9490 N   0  0  0  0  0  0  0  0  0  0  0  0
   37.3230   30.3930   49.1410 C   0  0  0  0  0  0  0  0  0  0  0  0
   37.3390   31.4720   49.9500 N   0  0  0  0  0  0  0  0  0  0  0  0
   38.0850   33.4920   50.0910 H   0  0  0  0  0  0  0  0  0  0  0  0
   39.1070   31.4390   46.5350 H   0  0  0  0  0  0  0  0  0  0  0  0
   39.3670   33.7850   47.8600 N   0  0  0  0  0  0  0  0  0  0  0  0
   39.3490   34.2110   46.9160 H   0  0  0  0  0  0  0  0  0  0  0  0
   39.9580   34.2580   48.5920 H   0  0  0  0  0  0  0  0  0  0  0  0
   36.5820   29.2040   49.6380 C   0  0  0  0  0  3  0  0  0  0  0  0
   35.1560   29.0650   49.0710 C   0  0  0  0  0  2  0  0  0  0  0  0
   35.4260   29.3720   50.5490 C   0  0  0  0  0  2  0  0  0  0  0  0
  1  6  1  0  0  0  0
  1  7  1  0  0  0  0
  2  1  2  0  0  0  0
  3  4  2  0  0  0  0
  3  2  1  0  0  0  0
  4  5  1  0  0  0  0
  5 12  1  0  0  0  0
  5  6  2  0  0  0  0
  8  3  1  0  0  0  0
  9  2  1  0  0  0  0
  9 11  1  0  0  0  0
 10  9  1  0  0  0  0
 12 14  1  0  0  0  0
 13 12  1  0  0  0  0
 13 14  1  0  0  0  0
M  END
>  <minimizedAffinity>
-4.30107498

>  <minimizedRMSD>
3.20685959

$$$$
