
 OpenBabel03272510183D

 22 24  0  0  0  0  0  0  0  0999 V2000
   34.7650   30.9190   31.9230 Br  0  0  0  0  0  0  0  0  0  0  0  0
   35.8030   29.5510   32.7470 C   0  0  0  0  0  0  0  0  0  0  0  0
   35.8190   29.3800   34.1260 C   0  0  0  0  0  0  0  0  0  0  0  0
   36.5880   28.3740   34.6490 C   0  0  0  0  0  0  0  0  0  0  0  0
   37.3500   27.5240   33.8570 C   0  0  0  0  0  0  0  0  0  0  0  0
   37.3200   27.7110   32.5010 C   0  0  0  0  0  0  0  0  0  0  0  0
   36.5410   28.7290   31.9530 C   0  0  0  0  0  0  0  0  0  0  0  0
   36.5710   28.2770   35.7310 H   0  0  0  0  0  0  0  0  0  0  0  0
   37.9090   27.0550   31.8770 H   0  0  0  0  0  0  0  0  0  0  0  0
   36.5590   28.8270   30.8740 H   0  0  0  0  0  0  0  0  0  0  0  0
   34.9940   32.0730   36.4540 C   0  0  0  0  0  0  0  0  0  0  0  0
   33.5950   31.9670   36.6180 C   0  0  0  0  0  0  0  0  0  0  0  0
   32.9550   30.9580   35.9150 C   0  0  0  0  0  0  0  0  0  0  0  0
   33.6770   30.1130   35.1020 N   0  0  0  0  0  0  0  0  0  0  0  0
   35.0280   30.2590   34.9790 C   0  0  0  0  0  0  0  0  0  0  0  0
   35.6810   31.2400   35.6580 N   0  0  0  0  0  0  0  0  0  0  0  0
   35.5110   32.8540   36.9940 H   0  0  0  0  0  0  0  0  0  0  0  0
   33.0250   32.6210   37.2480 H   0  0  0  0  0  0  0  0  0  0  0  0
   31.8690   30.8260   36.0020 H   0  0  0  0  0  0  0  0  0  0  0  0
   38.1560   26.4570   34.5360 C   0  0  0  0  0  3  0  0  0  0  0  0
   39.5360   26.8560   35.0580 C   0  0  0  0  0  2  0  0  0  0  0  0
   38.4130   26.5300   35.9990 C   0  0  0  0  0  2  0  0  0  0  0  0
  1  2  1  0  0  0  0
  2  3  1  0  0  0  0
  3  4  2  0  0  0  0
  3 15  1  0  0  0  0
  4  8  1  0  0  0  0
  5 20  1  0  0  0  0
  5  4  1  0  0  0  0
  6  5  2  0  0  0  0
  7  6  1  0  0  0  0
  7  2  2  0  0  0  0
  9  6  1  0  0  0  0
 10  7  1  0  0  0  0
 11 12  1  0  0  0  0
 11 17  1  0  0  0  0
 12 18  1  0  0  0  0
 13 19  1  0  0  0  0
 13 12  2  0  0  0  0
 14 13  1  0  0  0  0
 15 14  2  0  0  0  0
 15 16  1  0  0  0  0
 16 11  2  0  0  0  0
 20 21  1  0  0  0  0
 20 22  1  0  0  0  0
 21 22  1  0  0  0  0
M  END
>  <minimizedAffinity>
-4.66120768

$$$$

 OpenBabel03272510183D

 22 24  0  0  0  0  0  0  0  0999 V2000
   39.9620   27.0380   32.4700 Br  0  0  0  0  0  0  0  0  0  0  0  0
   39.3870   25.9520   33.9250 C   0  0  0  0  0  0  0  0  0  0  0  0
   38.1030   26.0520   34.4480 C   0  0  0  0  0  0  0  0  0  0  0  0
   37.7600   25.2380   35.4940 C   0  0  0  0  0  0  0  0  0  0  0  0
   38.6420   24.3200   36.0510 C   0  0  0  0  0  0  0  0  0  0  0  0
   39.9020   24.2370   35.5210 C   0  0  0  0  0  0  0  0  0  0  0  0
   40.2670   25.0590   34.4550 C   0  0  0  0  0  0  0  0  0  0  0  0
   36.7480   25.3510   35.8710 H   0  0  0  0  0  0  0  0  0  0  0  0
   40.5950   23.5270   35.9470 H   0  0  0  0  0  0  0  0  0  0  0  0
   41.2770   24.9460   34.0800 H   0  0  0  0  0  0  0  0  0  0  0  0
   35.8060   27.6110   32.0730 C   0  0  0  0  0  0  0  0  0  0  0  0
   35.3640   28.7770   32.7380 C   0  0  0  0  0  0  0  0  0  0  0  0
   35.8730   29.0050   34.0080 C   0  0  0  0  0  0  0  0  0  0  0  0
   36.7650   28.1190   34.5670 N   0  0  0  0  0  0  0  0  0  0  0  0
   37.1590   27.0090   33.8810 C   0  0  0  0  0  0  0  0  0  0  0  0
   36.6760   26.7600   32.6340 N   0  0  0  0  0  0  0  0  0  0  0  0
   35.4200   27.4160   31.0820 H   0  0  0  0  0  0  0  0  0  0  0  0
   34.6690   29.4720   32.3110 H   0  0  0  0  0  0  0  0  0  0  0  0
   35.5660   29.8950   34.5750 H   0  0  0  0  0  0  0  0  0  0  0  0
   38.1600   23.4790   37.1960 C   0  0  0  0  0  3  0  0  0  0  0  0
   39.1140   23.3030   38.3770 C   0  0  0  0  0  2  0  0  0  0  0  0
   37.8530   24.1080   38.5090 C   0  0  0  0  0  2  0  0  0  0  0  0
  1  2  1  0  0  0  0
  2  3  2  0  0  0  0
  2  7  1  0  0  0  0
  3  4  1  0  0  0  0
  4  8  1  0  0  0  0
  4  5  2  0  0  0  0
  5 20  1  0  0  0  0
  6  9  1  0  0  0  0
  6  5  1  0  0  0  0
  7  6  2  0  0  0  0
 10  7  1  0  0  0  0
 11 16  2  0  0  0  0
 11 12  1  0  0  0  0
 12 13  2  0  0  0  0
 13 14  1  0  0  0  0
 13 19  1  0  0  0  0
 15  3  1  0  0  0  0
 15 14  2  0  0  0  0
 16 15  1  0  0  0  0
 17 11  1  0  0  0  0
 18 12  1  0  0  0  0
 20 21  1  0  0  0  0
 20 22  1  0  0  0  0
 21 22  1  0  0  0  0
M  END
>  <minimizedAffinity>
-4.56249905

$$$$

 OpenBabel03272510183D

 22 24  0  0  0  0  0  0  0  0999 V2000
   39.0120   25.1410   33.4720 Br  0  0  0  0  0  0  0  0  0  0  0  0
   37.8320   23.6750   33.1810 C   0  0  0  0  0  0  0  0  0  0  0  0
   37.7550   22.6120   34.0730 C   0  0  0  0  0  0  0  0  0  0  0  0
   36.8830   21.5930   33.7990 C   0  0  0  0  0  0  0  0  0  0  0  0
   36.0760   21.5800   32.6680 C   0  0  0  0  0  0  0  0  0  0  0  0
   36.1670   22.6370   31.8010 C   0  0  0  0  0  0  0  0  0  0  0  0
   37.0500   23.6830   32.0670 C   0  0  0  0  0  0  0  0  0  0  0  0
   36.8560   20.7830   34.5230 H   0  0  0  0  0  0  0  0  0  0  0  0
   35.5440   22.6370   30.9200 H   0  0  0  0  0  0  0  0  0  0  0  0
   37.0770   24.4900   31.3440 H   0  0  0  0  0  0  0  0  0  0  0  0
   38.8230   23.1760   37.5220 C   0  0  0  0  0  0  0  0  0  0  0  0
   40.1210   22.6220   37.5730 C   0  0  0  0  0  0  0  0  0  0  0  0
   40.6090   22.0570   36.4050 C   0  0  0  0  0  0  0  0  0  0  0  0
   39.8410   22.0520   35.2630 N   0  0  0  0  0  0  0  0  0  0  0  0
   38.5920   22.6020   35.2680 C   0  0  0  0  0  0  0  0  0  0  0  0
   38.0890   23.1630   36.3990 N   0  0  0  0  0  0  0  0  0  0  0  0
   38.4240   23.6210   38.4230 H   0  0  0  0  0  0  0  0  0  0  0  0
   40.7260   22.6200   38.4580 H   0  0  0  0  0  0  0  0  0  0  0  0
   41.6120   21.6100   36.3830 H   0  0  0  0  0  0  0  0  0  0  0  0
   35.1560   20.4120   32.4670 C   0  0  0  0  0  3  0  0  0  0  0  0
   35.6530   19.2870   31.5590 C   0  0  0  0  0  2  0  0  0  0  0  0
   35.5000   19.0820   33.0390 C   0  0  0  0  0  2  0  0  0  0  0  0
  2  1  1  0  0  0  0
  2  3  1  0  0  0  0
  3 15  1  0  0  0  0
  4  3  2  0  0  0  0
  4  8  1  0  0  0  0
  5  4  1  0  0  0  0
  6  7  1  0  0  0  0
  6  5  2  0  0  0  0
  7  2  2  0  0  0  0
  9  6  1  0  0  0  0
 10  7  1  0  0  0  0
 11 12  1  0  0  0  0
 11 17  1  0  0  0  0
 12 18  1  0  0  0  0
 13 12  2  0  0  0  0
 14 15  2  0  0  0  0
 14 13  1  0  0  0  0
 15 16  1  0  0  0  0
 16 11  2  0  0  0  0
 19 13  1  0  0  0  0
 20  5  1  0  0  0  0
 20 22  1  0  0  0  0
 21 20  1  0  0  0  0
 21 22  1  0  0  0  0
M  END
>  <minimizedAffinity>
-4.52244616

$$$$

 OpenBabel03272510183D

 22 24  0  0  0  0  0  0  0  0999 V2000
   37.2690   28.7050   29.5310 Br  0  0  0  0  0  0  0  0  0  0  0  0
   36.5640   29.3720   31.1690 C   0  0  0  0  0  0  0  0  0  0  0  0
   36.1390   28.5190   32.1820 C   0  0  0  0  0  0  0  0  0  0  0  0
   35.6440   29.0700   33.3330 C   0  0  0  0  0  0  0  0  0  0  0  0
   35.5480   30.4420   33.5270 C   0  0  0  0  0  0  0  0  0  0  0  0
   35.9710   31.2650   32.5170 C   0  0  0  0  0  0  0  0  0  0  0  0
   36.4790   30.7190   31.3390 C   0  0  0  0  0  0  0  0  0  0  0  0
   35.3240   28.3670   34.0960 H   0  0  0  0  0  0  0  0  0  0  0  0
   35.9020   32.3330   32.6580 H   0  0  0  0  0  0  0  0  0  0  0  0
   36.7980   31.4210   30.5760 H   0  0  0  0  0  0  0  0  0  0  0  0
   37.3900   25.0970   32.4570 C   0  0  0  0  0  0  0  0  0  0  0  0
   36.4670   24.3340   31.7070 C   0  0  0  0  0  0  0  0  0  0  0  0
   35.4200   25.0220   31.1140 C   0  0  0  0  0  0  0  0  0  0  0  0
   35.3100   26.3850   31.2670 N   0  0  0  0  0  0  0  0  0  0  0  0
   36.2290   27.0740   32.0020 C   0  0  0  0  0  0  0  0  0  0  0  0
   37.2670   26.4250   32.5950 N   0  0  0  0  0  0  0  0  0  0  0  0
   38.2140   24.5780   32.9270 H   0  0  0  0  0  0  0  0  0  0  0  0
   36.5440   23.2710   31.5830 H   0  0  0  0  0  0  0  0  0  0  0  0
   34.6710   24.4830   30.5190 H   0  0  0  0  0  0  0  0  0  0  0  0
   34.9880   30.9370   34.8270 C   0  0  0  0  0  3  0  0  0  0  0  0
   35.9920   31.3890   35.8880 C   0  0  0  0  0  2  0  0  0  0  0  0
   35.1010   32.3760   35.1910 C   0  0  0  0  0  2  0  0  0  0  0  0
  1  2  1  0  0  0  0
  2  7  2  0  0  0  0
  2  3  1  0  0  0  0
  3  4  2  0  0  0  0
  4  5  1  0  0  0  0
  4  8  1  0  0  0  0
  5 20  1  0  0  0  0
  6  9  1  0  0  0  0
  6  5  2  0  0  0  0
  7  6  1  0  0  0  0
 10  7  1  0  0  0  0
 11 16  1  0  0  0  0
 11 17  1  0  0  0  0
 12 11  2  0  0  0  0
 13 14  2  0  0  0  0
 13 12  1  0  0  0  0
 14 15  1  0  0  0  0
 15  3  1  0  0  0  0
 15 16  2  0  0  0  0
 18 12  1  0  0  0  0
 19 13  1  0  0  0  0
 20 22  1  0  0  0  0
 20 21  1  0  0  0  0
 22 21  1  0  0  0  0
M  END
>  <minimizedAffinity>
-4.51991367

$$$$

 OpenBabel03272510183D

 22 24  0  0  0  0  0  0  0  0999 V2000
   39.8430   26.7290   34.9120 Br  0  0  0  0  0  0  0  0  0  0  0  0
   38.8050   25.5670   33.8180 C   0  0  0  0  0  0  0  0  0  0  0  0
   38.2910   24.3710   34.3070 C   0  0  0  0  0  0  0  0  0  0  0  0
   37.5530   23.5850   33.4620 C   0  0  0  0  0  0  0  0  0  0  0  0
   37.3000   23.9360   32.1420 C   0  0  0  0  0  0  0  0  0  0  0  0
   37.8160   25.1170   31.6800 C   0  0  0  0  0  0  0  0  0  0  0  0
   38.5690   25.9290   32.5280 C   0  0  0  0  0  0  0  0  0  0  0  0
   37.1720   22.6610   33.8860 H   0  0  0  0  0  0  0  0  0  0  0  0
   37.6250   25.3990   30.6550 H   0  0  0  0  0  0  0  0  0  0  0  0
   38.9500   26.8510   32.1050 H   0  0  0  0  0  0  0  0  0  0  0  0
   37.8610   24.0770   37.9230 C   0  0  0  0  0  0  0  0  0  0  0  0
   38.9540   23.2830   38.3350 C   0  0  0  0  0  0  0  0  0  0  0  0
   39.8290   22.8590   37.3460 C   0  0  0  0  0  0  0  0  0  0  0  0
   39.6150   23.2110   36.0330 N   0  0  0  0  0  0  0  0  0  0  0  0
   38.5430   23.9810   35.6900 C   0  0  0  0  0  0  0  0  0  0  0  0
   37.6690   24.4110   36.6390 N   0  0  0  0  0  0  0  0  0  0  0  0
   37.1680   24.4170   38.6790 H   0  0  0  0  0  0  0  0  0  0  0  0
   39.1280   23.0020   39.3550 H   0  0  0  0  0  0  0  0  0  0  0  0
   40.6980   22.2380   37.6050 H   0  0  0  0  0  0  0  0  0  0  0  0
   36.4800   22.9990   31.3050 C   0  0  0  0  0  3  0  0  0  0  0  0
   37.0770   21.6220   31.0160 C   0  0  0  0  0  2  0  0  0  0  0  0
   35.8840   21.7790   31.9130 C   0  0  0  0  0  2  0  0  0  0  0  0
  2  3  1  0  0  0  0
  2  1  1  0  0  0  0
  3 15  1  0  0  0  0
  4  8  1  0  0  0  0
  4  3  2  0  0  0  0
  5  4  1  0  0  0  0
  6  5  2  0  0  0  0
  6  7  1  0  0  0  0
  7  2  2  0  0  0  0
  9  6  1  0  0  0  0
 10  7  1  0  0  0  0
 11 12  1  0  0  0  0
 11 17  1  0  0  0  0
 12 18  1  0  0  0  0
 13 19  1  0  0  0  0
 13 12  2  0  0  0  0
 14 13  1  0  0  0  0
 15 14  2  0  0  0  0
 15 16  1  0  0  0  0
 16 11  2  0  0  0  0
 20 22  1  0  0  0  0
 20  5  1  0  0  0  0
 21 20  1  0  0  0  0
 21 22  1  0  0  0  0
M  END
>  <minimizedAffinity>
-4.45470047

$$$$

 OpenBabel03272510183D

 22 24  0  0  0  0  0  0  0  0999 V2000
   36.5120   27.0910   31.6140 Br  0  0  0  0  0  0  0  0  0  0  0  0
   36.4840   25.2040   31.8670 C   0  0  0  0  0  0  0  0  0  0  0  0
   37.3640   24.5710   32.7370 C   0  0  0  0  0  0  0  0  0  0  0  0
   37.2840   23.2100   32.8680 C   0  0  0  0  0  0  0  0  0  0  0  0
   36.3630   22.4420   32.1680 C   0  0  0  0  0  0  0  0  0  0  0  0
   35.5060   23.0850   31.3150 C   0  0  0  0  0  0  0  0  0  0  0  0
   35.5730   24.4700   31.1710 C   0  0  0  0  0  0  0  0  0  0  0  0
   37.9910   22.7580   33.5580 H   0  0  0  0  0  0  0  0  0  0  0  0
   34.7860   22.4960   30.7660 H   0  0  0  0  0  0  0  0  0  0  0  0
   34.8680   24.9210   30.4820 H   0  0  0  0  0  0  0  0  0  0  0  0
   40.4990   26.2470   33.5800 C   0  0  0  0  0  0  0  0  0  0  0  0
   40.2470   26.8320   34.8400 C   0  0  0  0  0  0  0  0  0  0  0  0
   38.9850   26.6360   35.3820 C   0  0  0  0  0  0  0  0  0  0  0  0
   38.0440   25.9000   34.6990 N   0  0  0  0  0  0  0  0  0  0  0  0
   38.3400   25.3560   33.4840 C   0  0  0  0  0  0  0  0  0  0  0  0
   39.5700   25.5320   32.9290 N   0  0  0  0  0  0  0  0  0  0  0  0
   41.4770   26.3890   33.1410 H   0  0  0  0  0  0  0  0  0  0  0  0
   40.9730   27.4070   35.3800 H   0  0  0  0  0  0  0  0  0  0  0  0
   38.7290   27.0660   36.3590 H   0  0  0  0  0  0  0  0  0  0  0  0
   36.3660   20.9580   32.3870 C   0  0  0  0  0  3  0  0  0  0  0  0
   35.5670   20.4310   33.5800 C   0  0  0  0  0  2  0  0  0  0  0  0
   35.1240   20.1680   32.1690 C   0  0  0  0  0  2  0  0  0  0  0  0
  1  2  1  0  0  0  0
  2  3  1  0  0  0  0
  3  4  2  0  0  0  0
  3 15  1  0  0  0  0
  4  8  1  0  0  0  0
  5 20  1  0  0  0  0
  5  4  1  0  0  0  0
  6  5  2  0  0  0  0
  7  6  1  0  0  0  0
  7  2  2  0  0  0  0
  9  6  1  0  0  0  0
 10  7  1  0  0  0  0
 11 12  1  0  0  0  0
 12 18  1  0  0  0  0
 12 13  2  0  0  0  0
 13 19  1  0  0  0  0
 14 13  1  0  0  0  0
 15 14  2  0  0  0  0
 16 15  1  0  0  0  0
 16 11  2  0  0  0  0
 17 11  1  0  0  0  0
 20 21  1  0  0  0  0
 22 20  1  0  0  0  0
 22 21  1  0  0  0  0
M  END
>  <minimizedAffinity>
-4.4521637

$$$$

 OpenBabel03272510183D

 22 24  0  0  0  0  0  0  0  0999 V2000
   39.2360   25.1370   33.4850 Br  0  0  0  0  0  0  0  0  0  0  0  0
   38.0130   23.7090   33.1880 C   0  0  0  0  0  0  0  0  0  0  0  0
   37.8800   22.6620   34.0930 C   0  0  0  0  0  0  0  0  0  0  0  0
   36.9780   21.6700   33.8130 C   0  0  0  0  0  0  0  0  0  0  0  0
   36.1970   21.6690   32.6650 C   0  0  0  0  0  0  0  0  0  0  0  0
   36.3430   22.7090   31.7860 C   0  0  0  0  0  0  0  0  0  0  0  0
   37.2560   23.7270   32.0570 C   0  0  0  0  0  0  0  0  0  0  0  0
   36.9080   20.8720   34.5470 H   0  0  0  0  0  0  0  0  0  0  0  0
   35.7400   22.7170   30.8910 H   0  0  0  0  0  0  0  0  0  0  0  0
   37.3270   24.5230   31.3240 H   0  0  0  0  0  0  0  0  0  0  0  0
   40.6790   21.9810   36.3400 C   0  0  0  0  0  0  0  0  0  0  0  0
   40.2830   22.5570   37.5660 C   0  0  0  0  0  0  0  0  0  0  0  0
   39.0430   23.1780   37.5960 C   0  0  0  0  0  0  0  0  0  0  0  0
   38.2580   23.2130   36.4660 N   0  0  0  0  0  0  0  0  0  0  0  0
   38.6900   22.6400   35.3060 C   0  0  0  0  0  0  0  0  0  0  0  0
   39.9010   22.0250   35.2490 N   0  0  0  0  0  0  0  0  0  0  0  0
   41.6430   21.4920   36.2970 H   0  0  0  0  0  0  0  0  0  0  0  0
   40.8870   22.5350   38.4510 H   0  0  0  0  0  0  0  0  0  0  0  0
   38.6790   23.6440   38.5210 H   0  0  0  0  0  0  0  0  0  0  0  0
   35.2420   20.5300   32.4590 C   0  0  0  0  0  3  0  0  0  0  0  0
   35.7470   19.3390   31.6440 C   0  0  0  0  0  2  0  0  0  0  0  0
   35.4880   19.2190   33.1180 C   0  0  0  0  0  2  0  0  0  0  0  0
  2  1  1  0  0  0  0
  2  3  1  0  0  0  0
  3 15  1  0  0  0  0
  4  3  2  0  0  0  0
  4  8  1  0  0  0  0
  5  4  1  0  0  0  0
  6  7  1  0  0  0  0
  6  5  2  0  0  0  0
  7  2  2  0  0  0  0
  9  6  1  0  0  0  0
 10  7  1  0  0  0  0
 11 12  1  0  0  0  0
 12 13  2  0  0  0  0
 12 18  1  0  0  0  0
 13 19  1  0  0  0  0
 14 13  1  0  0  0  0
 15 14  2  0  0  0  0
 16 15  1  0  0  0  0
 16 11  2  0  0  0  0
 17 11  1  0  0  0  0
 20  5  1  0  0  0  0
 20 22  1  0  0  0  0
 21 20  1  0  0  0  0
 21 22  1  0  0  0  0
M  END
>  <minimizedAffinity>
-4.40553904

$$$$

 OpenBabel03272510183D

 22 24  0  0  0  0  0  0  0  0999 V2000
   37.9110   26.8650   30.9990 Br  0  0  0  0  0  0  0  0  0  0  0  0
   37.0100   27.9590   32.2700 C   0  0  0  0  0  0  0  0  0  0  0  0
   37.1710   27.7720   33.6380 C   0  0  0  0  0  0  0  0  0  0  0  0
   36.4920   28.5980   34.4930 C   0  0  0  0  0  0  0  0  0  0  0  0
   35.6520   29.6110   34.0480 C   0  0  0  0  0  0  0  0  0  0  0  0
   35.5070   29.7790   32.6970 C   0  0  0  0  0  0  0  0  0  0  0  0
   36.1920   28.9460   31.8130 C   0  0  0  0  0  0  0  0  0  0  0  0
   36.6470   28.4150   35.5520 H   0  0  0  0  0  0  0  0  0  0  0  0
   34.8560   30.5630   32.3410 H   0  0  0  0  0  0  0  0  0  0  0  0
   36.0370   29.1280   30.7550 H   0  0  0  0  0  0  0  0  0  0  0  0
   40.1700   26.1090   34.9010 C   0  0  0  0  0  0  0  0  0  0  0  0
   39.7710   24.7650   35.0690 C   0  0  0  0  0  0  0  0  0  0  0  0
   38.4600   24.4540   34.7410 C   0  0  0  0  0  0  0  0  0  0  0  0
   37.6110   25.4310   34.2740 N   0  0  0  0  0  0  0  0  0  0  0  0
   38.0480   26.7150   34.1300 C   0  0  0  0  0  0  0  0  0  0  0  0
   39.3280   27.0480   34.4440 N   0  0  0  0  0  0  0  0  0  0  0  0
   41.1880   26.3720   35.1510 H   0  0  0  0  0  0  0  0  0  0  0  0
   40.4250   23.9970   35.4330 H   0  0  0  0  0  0  0  0  0  0  0  0
   38.0910   23.4250   34.8510 H   0  0  0  0  0  0  0  0  0  0  0  0
   34.9560   30.4570   35.0740 C   0  0  0  0  0  3  0  0  0  0  0  0
   35.8180   31.4470   35.8570 C   0  0  0  0  0  2  0  0  0  0  0  0
   34.8030   31.9200   34.8570 C   0  0  0  0  0  2  0  0  0  0  0  0
  1  2  1  0  0  0  0
  2  3  1  0  0  0  0
  3 15  1  0  0  0  0
  3  4  2  0  0  0  0
  4  8  1  0  0  0  0
  5  4  1  0  0  0  0
  5 20  1  0  0  0  0
  6  5  2  0  0  0  0
  7  2  2  0  0  0  0
  7  6  1  0  0  0  0
  9  6  1  0  0  0  0
 10  7  1  0  0  0  0
 11 12  1  0  0  0  0
 11 17  1  0  0  0  0
 12 18  1  0  0  0  0
 13 19  1  0  0  0  0
 13 12  2  0  0  0  0
 14 13  1  0  0  0  0
 15 14  2  0  0  0  0
 15 16  1  0  0  0  0
 16 11  2  0  0  0  0
 20 21  1  0  0  0  0
 22 20  1  0  0  0  0
 22 21  1  0  0  0  0
M  END
>  <minimizedAffinity>
-4.24137163

$$$$

 OpenBabel03272510183D

 22 24  0  0  0  0  0  0  0  0999 V2000
   38.9070   26.7840   33.6240 Br  0  0  0  0  0  0  0  0  0  0  0  0
   37.8370   25.3900   32.8920 C   0  0  0  0  0  0  0  0  0  0  0  0
   36.8300   25.6510   31.9690 C   0  0  0  0  0  0  0  0  0  0  0  0
   36.1000   24.5980   31.4850 C   0  0  0  0  0  0  0  0  0  0  0  0
   36.3270   23.2860   31.8770 C   0  0  0  0  0  0  0  0  0  0  0  0
   37.3230   23.0490   32.7870 C   0  0  0  0  0  0  0  0  0  0  0  0
   38.0750   24.1100   33.2900 C   0  0  0  0  0  0  0  0  0  0  0  0
   35.3240   24.8490   30.7670 H   0  0  0  0  0  0  0  0  0  0  0  0
   37.5070   22.0320   33.0990 H   0  0  0  0  0  0  0  0  0  0  0  0
   38.8490   23.8600   34.0060 H   0  0  0  0  0  0  0  0  0  0  0  0
   36.9860   28.7130   29.9810 C   0  0  0  0  0  0  0  0  0  0  0  0
   36.1350   29.6090   30.6650 C   0  0  0  0  0  0  0  0  0  0  0  0
   35.5160   29.1350   31.8120 C   0  0  0  0  0  0  0  0  0  0  0  0
   35.7400   27.8470   32.2390 N   0  0  0  0  0  0  0  0  0  0  0  0
   36.5720   27.0220   31.5410 C   0  0  0  0  0  0  0  0  0  0  0  0
   37.1930   27.4610   30.4130 N   0  0  0  0  0  0  0  0  0  0  0  0
   37.4780   29.0640   29.0850 H   0  0  0  0  0  0  0  0  0  0  0  0
   35.9540   30.6150   30.3400 H   0  0  0  0  0  0  0  0  0  0  0  0
   34.8430   29.7860   32.3860 H   0  0  0  0  0  0  0  0  0  0  0  0
   35.4670   22.2090   31.2830 C   0  0  0  0  0  3  0  0  0  0  0  0
   36.1520   20.8900   30.9290 C   0  0  0  0  0  2  0  0  0  0  0  0
   35.1680   20.9760   32.0590 C   0  0  0  0  0  2  0  0  0  0  0  0
  2  7  1  0  0  0  0
  2  1  1  0  0  0  0
  3  2  2  0  0  0  0
  4  5  2  0  0  0  0
  4  3  1  0  0  0  0
  5  6  1  0  0  0  0
  6  9  1  0  0  0  0
  6  7  2  0  0  0  0
  7 10  1  0  0  0  0
  8  4  1  0  0  0  0
 11 16  2  0  0  0  0
 11 12  1  0  0  0  0
 12 13  2  0  0  0  0
 13 14  1  0  0  0  0
 13 19  1  0  0  0  0
 15  3  1  0  0  0  0
 15 14  2  0  0  0  0
 16 15  1  0  0  0  0
 17 11  1  0  0  0  0
 18 12  1  0  0  0  0
 20  5  1  0  0  0  0
 20 22  1  0  0  0  0
 21 20  1  0  0  0  0
 21 22  1  0  0  0  0
M  END
>  <minimizedAffinity>
-4.23979807

$$$$
