
 OpenBabel03272502243D

 23 25  0  0  0  0  0  0  0  0999 V2000
   38.3330   24.7940   35.2120 C   0  0  0  0  0  0  0  0  0  0  0  0
   39.3070   23.9290   34.7470 C   0  0  0  0  0  0  0  0  0  0  0  0
   39.9520   23.0210   35.5640 C   0  0  0  0  0  0  0  0  0  0  0  0
   39.6250   22.9670   36.8720 N   0  0  0  0  0  0  0  0  0  0  0  0
   38.6790   23.8100   37.3120 C   0  0  0  0  0  0  0  0  0  0  0  0
   38.0560   24.6890   36.5180 N   0  0  0  0  0  0  0  0  0  0  0  0
   39.5770   23.9630   33.7010 H   0  0  0  0  0  0  0  0  0  0  0  0
   40.7080   22.3520   35.1910 H   0  0  0  0  0  0  0  0  0  0  0  0
   36.8230   27.9000   33.7040 C   0  0  0  0  0  0  0  0  0  0  0  0
   37.4760   27.0800   34.6480 C   0  0  0  0  0  0  0  0  0  0  0  0
   37.6730   25.7400   34.3240 C   0  0  0  0  0  0  0  0  0  0  0  0
   37.2270   25.3200   33.1320 N   0  0  0  0  0  0  0  0  0  0  0  0
   36.6080   26.1120   32.2430 C   0  0  0  0  0  0  0  0  0  0  0  0
   36.4050   27.4120   32.5350 N   0  0  0  0  0  0  0  0  0  0  0  0
   36.6940   28.9400   34.0090 H   0  0  0  0  0  0  0  0  0  0  0  0
   37.8220   27.4390   35.5930 H   0  0  0  0  0  0  0  0  0  0  0  0
   36.1440   25.5560   30.9360 C   0  0  0  0  0  3  0  0  0  0  0  0
   34.6040   25.2830   30.8710 C   0  0  0  0  0  2  0  0  0  0  0  0
   35.6080   24.2030   30.8080 C   0  0  0  0  0  2  0  0  0  0  0  0
   38.2950   23.7760   38.7480 C   0  0  0  0  0  0  0  0  0  0  0  0
   37.6370   24.9690   39.0450 F   0  0  0  0  0  0  0  0  0  0  0  0
   37.4880   22.6850   39.0200 F   0  0  0  0  0  0  0  0  0  0  0  0
   39.3850   23.7180   39.5700 F   0  0  0  0  0  0  0  0  0  0  0  0
  1  6  1  0  0  0  0
  2  1  2  0  0  0  0
  2  3  1  0  0  0  0
  3  4  2  0  0  0  0
  4  5  1  0  0  0  0
  5 20  1  0  0  0  0
  6  5  2  0  0  0  0
  7  2  1  0  0  0  0
  8  3  1  0  0  0  0
  9 15  1  0  0  0  0
  9 10  1  0  0  0  0
 10 16  1  0  0  0  0
 11 10  2  0  0  0  0
 11  1  1  0  0  0  0
 12 11  1  0  0  0  0
 13 14  1  0  0  0  0
 13 12  2  0  0  0  0
 14  9  2  0  0  0  0
 17 13  1  0  0  0  0
 18 17  1  0  0  0  0
 19 18  1  0  0  0  0
 19 17  1  0  0  0  0
 20 22  1  0  0  0  0
 20 21  1  0  0  0  0
 20 23  1  0  0  0  0
M  END
>  <minimizedAffinity>
-5.53893232

$$$$

 OpenBabel03272502243D

 23 25  0  0  0  0  0  0  0  0999 V2000
   38.7130   22.7500   35.1110 C   0  0  0  0  0  0  0  0  0  0  0  0
   40.0020   22.2500   35.1480 C   0  0  0  0  0  0  0  0  0  0  0  0
   40.7510   22.2020   36.3080 C   0  0  0  0  0  0  0  0  0  0  0  0
   40.2120   22.6590   37.4580 N   0  0  0  0  0  0  0  0  0  0  0  0
   38.9610   23.1410   37.4090 C   0  0  0  0  0  0  0  0  0  0  0  0
   38.2380   23.1870   36.2840 N   0  0  0  0  0  0  0  0  0  0  0  0
   40.4450   21.8810   34.2340 H   0  0  0  0  0  0  0  0  0  0  0  0
   41.7540   21.8100   36.3270 H   0  0  0  0  0  0  0  0  0  0  0  0
   37.0160   23.8570   31.9330 C   0  0  0  0  0  0  0  0  0  0  0  0
   37.7750   23.9470   33.1180 C   0  0  0  0  0  0  0  0  0  0  0  0
   37.9510   22.7870   33.8710 C   0  0  0  0  0  0  0  0  0  0  0  0
   37.3840   21.6620   33.4150 N   0  0  0  0  0  0  0  0  0  0  0  0
   36.6640   21.5910   32.2850 C   0  0  0  0  0  0  0  0  0  0  0  0
   36.4800   22.7000   31.5410 N   0  0  0  0  0  0  0  0  0  0  0  0
   36.9100   24.7930   31.3830 H   0  0  0  0  0  0  0  0  0  0  0  0
   38.2180   24.8560   33.4610 H   0  0  0  0  0  0  0  0  0  0  0  0
   36.0680   20.2910   31.8530 C   0  0  0  0  0  3  0  0  0  0  0  0
   34.5300   20.1760   32.1200 C   0  0  0  0  0  2  0  0  0  0  0  0
   35.5240   19.3260   32.8050 C   0  0  0  0  0  2  0  0  0  0  0  0
   38.3380   23.6520   38.6580 C   0  0  0  0  0  0  0  0  0  0  0  0
   37.3140   22.7760   39.0160 F   0  0  0  0  0  0  0  0  0  0  0  0
   39.2740   23.7600   39.6720 F   0  0  0  0  0  0  0  0  0  0  0  0
   37.7560   24.8760   38.4800 F   0  0  0  0  0  0  0  0  0  0  0  0
  1  2  2  0  0  0  0
  1  6  1  0  0  0  0
  2  3  1  0  0  0  0
  3  8  1  0  0  0  0
  3  4  2  0  0  0  0
  5  4  1  0  0  0  0
  5 20  1  0  0  0  0
  6  5  2  0  0  0  0
  7  2  1  0  0  0  0
  9 10  1  0  0  0  0
 10 16  1  0  0  0  0
 10 11  2  0  0  0  0
 11  1  1  0  0  0  0
 12 11  1  0  0  0  0
 13 12  2  0  0  0  0
 14  9  2  0  0  0  0
 14 13  1  0  0  0  0
 15  9  1  0  0  0  0
 17 18  1  0  0  0  0
 17 13  1  0  0  0  0
 17 19  1  0  0  0  0
 18 19  1  0  0  0  0
 20 21  1  0  0  0  0
 20 22  1  0  0  0  0
 23 20  1  0  0  0  0
M  END
>  <minimizedAffinity>
-5.44201374

$$$$

 OpenBabel03272502243D

 23 25  0  0  0  0  0  0  0  0999 V2000
   38.4030   24.5640   36.1170 C   0  0  0  0  0  0  0  0  0  0  0  0
   37.7460   24.4990   37.3330 C   0  0  0  0  0  0  0  0  0  0  0  0
   38.1960   23.7240   38.3840 C   0  0  0  0  0  0  0  0  0  0  0  0
   39.3210   22.9960   38.2290 N   0  0  0  0  0  0  0  0  0  0  0  0
   39.9500   23.0680   37.0450 C   0  0  0  0  0  0  0  0  0  0  0  0
   39.5110   23.8190   36.0290 N   0  0  0  0  0  0  0  0  0  0  0  0
   36.8430   25.0770   37.4690 H   0  0  0  0  0  0  0  0  0  0  0  0
   37.6770   23.6800   39.3260 H   0  0  0  0  0  0  0  0  0  0  0  0
   37.1850   27.4550   34.0290 C   0  0  0  0  0  0  0  0  0  0  0  0
   37.6720   26.7590   35.1550 C   0  0  0  0  0  0  0  0  0  0  0  0
   37.9010   25.3910   35.0290 C   0  0  0  0  0  0  0  0  0  0  0  0
   37.6420   24.8270   33.8410 N   0  0  0  0  0  0  0  0  0  0  0  0
   37.1780   25.5020   32.7770 C   0  0  0  0  0  0  0  0  0  0  0  0
   36.9490   26.8260   32.8760 N   0  0  0  0  0  0  0  0  0  0  0  0
   37.0230   28.5230   34.1820 H   0  0  0  0  0  0  0  0  0  0  0  0
   37.8710   27.2320   36.0920 H   0  0  0  0  0  0  0  0  0  0  0  0
   36.9170   24.7890   31.4900 C   0  0  0  0  0  3  0  0  0  0  0  0
   35.4100   24.4490   31.2460 C   0  0  0  0  0  2  0  0  0  0  0  0
   36.4390   23.4100   31.4440 C   0  0  0  0  0  2  0  0  0  0  0  0
   41.1930   22.2780   36.8420 C   0  0  0  0  0  0  0  0  0  0  0  0
   41.3190   21.3930   37.9110 F   0  0  0  0  0  0  0  0  0  0  0  0
   41.1570   21.5970   35.6380 F   0  0  0  0  0  0  0  0  0  0  0  0
   42.3100   23.0660   36.8560 F   0  0  0  0  0  0  0  0  0  0  0  0
  1  2  1  0  0  0  0
  2  7  1  0  0  0  0
  2  3  2  0  0  0  0
  3  8  1  0  0  0  0
  4  3  1  0  0  0  0
  5  4  2  0  0  0  0
  6  1  2  0  0  0  0
  6  5  1  0  0  0  0
  9 15  1  0  0  0  0
  9 10  1  0  0  0  0
 10 16  1  0  0  0  0
 11 10  2  0  0  0  0
 11  1  1  0  0  0  0
 12 11  1  0  0  0  0
 13 14  1  0  0  0  0
 13 12  2  0  0  0  0
 14  9  2  0  0  0  0
 17 13  1  0  0  0  0
 18 19  1  0  0  0  0
 18 17  1  0  0  0  0
 19 17  1  0  0  0  0
 20 23  1  0  0  0  0
 20  5  1  0  0  0  0
 20 21  1  0  0  0  0
 22 20  1  0  0  0  0
M  END
>  <minimizedAffinity>
-5.32045412

$$$$

 OpenBabel03272502243D

 23 25  0  0  0  0  0  0  0  0999 V2000
   37.9910   24.7320   34.7340 C   0  0  0  0  0  0  0  0  0  0  0  0
   38.3320   23.5300   34.1410 C   0  0  0  0  0  0  0  0  0  0  0  0
   38.6540   22.4020   34.8720 C   0  0  0  0  0  0  0  0  0  0  0  0
   38.6380   22.4660   36.2190 N   0  0  0  0  0  0  0  0  0  0  0  0
   38.3050   23.6370   36.7820 C   0  0  0  0  0  0  0  0  0  0  0  0
   37.9940   24.7270   36.0720 N   0  0  0  0  0  0  0  0  0  0  0  0
   38.3480   23.4660   33.0630 H   0  0  0  0  0  0  0  0  0  0  0  0
   38.9180   21.4710   34.4010 H   0  0  0  0  0  0  0  0  0  0  0  0
   37.5900   27.1970   31.9110 C   0  0  0  0  0  0  0  0  0  0  0  0
   37.9650   26.0130   32.5800 C   0  0  0  0  0  0  0  0  0  0  0  0
   37.6580   25.9020   33.9340 C   0  0  0  0  0  0  0  0  0  0  0  0
   37.0230   26.9330   34.5110 N   0  0  0  0  0  0  0  0  0  0  0  0
   36.6720   28.0540   33.8620 C   0  0  0  0  0  0  0  0  0  0  0  0
   36.9600   28.1840   32.5520 N   0  0  0  0  0  0  0  0  0  0  0  0
   37.8550   27.2320   30.8540 H   0  0  0  0  0  0  0  0  0  0  0  0
   38.4700   25.2050   32.0980 H   0  0  0  0  0  0  0  0  0  0  0  0
   35.9670   29.1530   34.5870 C   0  0  0  0  0  3  0  0  0  0  0  0
   34.4680   29.3290   34.1730 C   0  0  0  0  0  2  0  0  0  0  0  0
   35.4930   30.3580   33.9100 C   0  0  0  0  0  2  0  0  0  0  0  0
   38.2770   23.7410   38.2650 C   0  0  0  0  0  0  0  0  0  0  0  0
   39.5220   23.3390   38.7470 F   0  0  0  0  0  0  0  0  0  0  0  0
   37.9850   25.0320   38.6670 F   0  0  0  0  0  0  0  0  0  0  0  0
   37.3550   22.9000   38.8220 F   0  0  0  0  0  0  0  0  0  0  0  0
  1  6  1  0  0  0  0
  2  1  2  0  0  0  0
  2  3  1  0  0  0  0
  3  4  2  0  0  0  0
  4  5  1  0  0  0  0
  5 20  1  0  0  0  0
  6  5  2  0  0  0  0
  7  2  1  0  0  0  0
  8  3  1  0  0  0  0
  9 14  2  0  0  0  0
  9 10  1  0  0  0  0
 10 11  2  0  0  0  0
 11 12  1  0  0  0  0
 11  1  1  0  0  0  0
 13 12  2  0  0  0  0
 13 17  1  0  0  0  0
 14 13  1  0  0  0  0
 15  9  1  0  0  0  0
 16 10  1  0  0  0  0
 18 17  1  0  0  0  0
 19 18  1  0  0  0  0
 19 17  1  0  0  0  0
 20 22  1  0  0  0  0
 20 21  1  0  0  0  0
 20 23  1  0  0  0  0
M  END
>  <minimizedAffinity>
-5.30089855

$$$$

 OpenBabel03272502243D

 23 25  0  0  0  0  0  0  0  0999 V2000
   38.0450   24.9090   34.9620 C   0  0  0  0  0  0  0  0  0  0  0  0
   38.5450   23.7880   34.3240 C   0  0  0  0  0  0  0  0  0  0  0  0
   38.9600   22.6620   35.0090 C   0  0  0  0  0  0  0  0  0  0  0  0
   38.8770   22.6450   36.3560 N   0  0  0  0  0  0  0  0  0  0  0  0
   38.3900   23.7370   36.9630 C   0  0  0  0  0  0  0  0  0  0  0  0
   37.9890   24.8260   36.2970 N   0  0  0  0  0  0  0  0  0  0  0  0
   38.6160   23.7890   33.2460 H   0  0  0  0  0  0  0  0  0  0  0  0
   39.3470   21.7940   34.5030 H   0  0  0  0  0  0  0  0  0  0  0  0
   36.5350   28.2090   33.9450 C   0  0  0  0  0  0  0  0  0  0  0  0
   36.8930   27.1260   34.7760 C   0  0  0  0  0  0  0  0  0  0  0  0
   37.6170   26.0790   34.2100 C   0  0  0  0  0  0  0  0  0  0  0  0
   37.9250   26.1730   32.9080 N   0  0  0  0  0  0  0  0  0  0  0  0
   37.5780   27.2090   32.1300 C   0  0  0  0  0  0  0  0  0  0  0  0
   36.8770   28.2330   32.6550 N   0  0  0  0  0  0  0  0  0  0  0  0
   35.9700   29.0010   34.4380 H   0  0  0  0  0  0  0  0  0  0  0  0
   36.6350   27.0750   35.8110 H   0  0  0  0  0  0  0  0  0  0  0  0
   37.9650   27.2280   30.6870 C   0  0  0  0  0  3  0  0  0  0  0  0
   39.3510   27.9000   30.4080 C   0  0  0  0  0  2  0  0  0  0  0  0
   38.0780   28.4690   29.9240 C   0  0  0  0  0  2  0  0  0  0  0  0
   38.2850   23.7510   38.4460 C   0  0  0  0  0  0  0  0  0  0  0  0
   39.5330   23.4130   38.9670 F   0  0  0  0  0  0  0  0  0  0  0  0
   37.8780   24.9920   38.9030 F   0  0  0  0  0  0  0  0  0  0  0  0
   37.4040   22.8130   38.9070 F   0  0  0  0  0  0  0  0  0  0  0  0
  1  6  1  0  0  0  0
  2  1  2  0  0  0  0
  2  3  1  0  0  0  0
  3  4  2  0  0  0  0
  4  5  1  0  0  0  0
  5 20  1  0  0  0  0
  6  5  2  0  0  0  0
  7  2  1  0  0  0  0
  8  3  1  0  0  0  0
  9 15  1  0  0  0  0
  9 10  1  0  0  0  0
 10 16  1  0  0  0  0
 11 10  2  0  0  0  0
 11  1  1  0  0  0  0
 12 11  1  0  0  0  0
 13 14  1  0  0  0  0
 13 12  2  0  0  0  0
 14  9  2  0  0  0  0
 17 13  1  0  0  0  0
 18 17  1  0  0  0  0
 19 18  1  0  0  0  0
 19 17  1  0  0  0  0
 20 22  1  0  0  0  0
 20 23  1  0  0  0  0
 20 21  1  0  0  0  0
M  END
>  <minimizedAffinity>
-5.25965214

$$$$

 OpenBabel03272502243D

 23 25  0  0  0  0  0  0  0  0999 V2000
   37.7490   22.4900   34.3850 C   0  0  0  0  0  0  0  0  0  0  0  0
   37.9330   23.4140   33.3720 C   0  0  0  0  0  0  0  0  0  0  0  0
   37.3520   23.2810   32.1260 C   0  0  0  0  0  0  0  0  0  0  0  0
   36.5710   22.2100   31.8760 N   0  0  0  0  0  0  0  0  0  0  0  0
   36.4000   21.3210   32.8660 C   0  0  0  0  0  0  0  0  0  0  0  0
   36.9640   21.4520   34.0720 N   0  0  0  0  0  0  0  0  0  0  0  0
   38.5560   24.2760   33.5600 H   0  0  0  0  0  0  0  0  0  0  0  0
   37.5010   24.0060   31.3440 H   0  0  0  0  0  0  0  0  0  0  0  0
   38.4850   23.4500   37.9540 C   0  0  0  0  0  0  0  0  0  0  0  0
   37.7780   23.3530   36.7370 C   0  0  0  0  0  0  0  0  0  0  0  0
   38.3760   22.6600   35.6870 C   0  0  0  0  0  0  0  0  0  0  0  0
   39.5880   22.1300   35.9070 N   0  0  0  0  0  0  0  0  0  0  0  0
   40.2490   22.2310   37.0710 C   0  0  0  0  0  0  0  0  0  0  0  0
   39.6900   22.8970   38.1000 N   0  0  0  0  0  0  0  0  0  0  0  0
   37.9710   24.0030   38.7420 H   0  0  0  0  0  0  0  0  0  0  0  0
   36.8130   23.7840   36.5870 H   0  0  0  0  0  0  0  0  0  0  0  0
   41.5980   21.6080   37.2250 C   0  0  0  0  0  3  0  0  0  0  0  0
   42.7610   22.4420   36.5920 C   0  0  0  0  0  2  0  0  0  0  0  0
   42.3660   21.1140   36.0840 C   0  0  0  0  0  2  0  0  0  0  0  0
   35.5440   20.1290   32.6230 C   0  0  0  0  0  0  0  0  0  0  0  0
   34.2610   20.5780   32.3170 F   0  0  0  0  0  0  0  0  0  0  0  0
   36.0550   19.3530   31.5970 F   0  0  0  0  0  0  0  0  0  0  0  0
   35.4270   19.3450   33.7360 F   0  0  0  0  0  0  0  0  0  0  0  0
  1 11  1  0  0  0  0
  2  7  1  0  0  0  0
  2  1  2  0  0  0  0
  3  2  1  0  0  0  0
  4  3  2  0  0  0  0
  4  5  1  0  0  0  0
  5  6  2  0  0  0  0
  6  1  1  0  0  0  0
  8  3  1  0  0  0  0
  9 14  1  0  0  0  0
  9 15  1  0  0  0  0
 10  9  2  0  0  0  0
 11 12  2  0  0  0  0
 11 10  1  0  0  0  0
 12 13  1  0  0  0  0
 13 17  1  0  0  0  0
 13 14  2  0  0  0  0
 16 10  1  0  0  0  0
 18 17  1  0  0  0  0
 19 18  1  0  0  0  0
 19 17  1  0  0  0  0
 20  5  1  0  0  0  0
 20 23  1  0  0  0  0
 21 20  1  0  0  0  0
 22 20  1  0  0  0  0
M  END
>  <minimizedAffinity>
-5.1997757

$$$$

 OpenBabel03272502243D

 23 25  0  0  0  0  0  0  0  0999 V2000
   37.0940   27.1060   33.8880 C   0  0  0  0  0  0  0  0  0  0  0  0
   36.6130   26.9230   32.6050 C   0  0  0  0  0  0  0  0  0  0  0  0
   35.7630   27.8230   31.9910 C   0  0  0  0  0  0  0  0  0  0  0  0
   35.3800   28.9290   32.6630 N   0  0  0  0  0  0  0  0  0  0  0  0
   35.8540   29.0940   33.9080 C   0  0  0  0  0  0  0  0  0  0  0  0
   36.6770   28.2210   34.4990 N   0  0  0  0  0  0  0  0  0  0  0  0
   36.9120   26.0420   32.0560 H   0  0  0  0  0  0  0  0  0  0  0  0
   35.3940   27.6720   30.9910 H   0  0  0  0  0  0  0  0  0  0  0  0
   40.0420   24.9070   34.7100 C   0  0  0  0  0  0  0  0  0  0  0  0
   39.2680   25.8660   34.0250 C   0  0  0  0  0  0  0  0  0  0  0  0
   37.9890   26.1370   34.5060 C   0  0  0  0  0  0  0  0  0  0  0  0
   37.5800   25.4640   35.5910 N   0  0  0  0  0  0  0  0  0  0  0  0
   38.3280   24.5530   36.2320 C   0  0  0  0  0  0  0  0  0  0  0  0
   39.5680   24.2740   35.7850 N   0  0  0  0  0  0  0  0  0  0  0  0
   41.0350   24.7330   34.2920 H   0  0  0  0  0  0  0  0  0  0  0  0
   39.6160   26.3900   33.1620 H   0  0  0  0  0  0  0  0  0  0  0  0
   37.7900   23.8500   37.4360 C   0  0  0  0  0  3  0  0  0  0  0  0
   37.9720   24.6450   38.7720 C   0  0  0  0  0  2  0  0  0  0  0  0
   38.6540   23.3630   38.5080 C   0  0  0  0  0  2  0  0  0  0  0  0
   35.4520   30.3030   34.6760 C   0  0  0  0  0  0  0  0  0  0  0  0
   36.3520   30.4610   35.7280 F   0  0  0  0  0  0  0  0  0  0  0  0
   35.4370   31.4240   33.8640 F   0  0  0  0  0  0  0  0  0  0  0  0
   34.2150   30.1650   35.2400 F   0  0  0  0  0  0  0  0  0  0  0  0
  1  6  1  0  0  0  0
  1 11  1  0  0  0  0
  2  1  2  0  0  0  0
  3  2  1  0  0  0  0
  3  4  2  0  0  0  0
  4  5  1  0  0  0  0
  5  6  2  0  0  0  0
  5 20  1  0  0  0  0
  7  2  1  0  0  0  0
  8  3  1  0  0  0  0
  9 14  1  0  0  0  0
 10 11  1  0  0  0  0
 10  9  2  0  0  0  0
 11 12  2  0  0  0  0
 12 13  1  0  0  0  0
 13 17  1  0  0  0  0
 14 13  2  0  0  0  0
 15  9  1  0  0  0  0
 16 10  1  0  0  0  0
 17 19  1  0  0  0  0
 17 18  1  0  0  0  0
 19 18  1  0  0  0  0
 20 23  1  0  0  0  0
 20 21  1  0  0  0  0
 22 20  1  0  0  0  0
M  END
>  <minimizedAffinity>
-5.18989372

$$$$

 OpenBabel03272502243D

 23 25  0  0  0  0  0  0  0  0999 V2000
   38.5800   23.7040   34.8020 C   0  0  0  0  0  0  0  0  0  0  0  0
   39.6360   22.8230   34.6520 C   0  0  0  0  0  0  0  0  0  0  0  0
   40.2740   22.2330   35.7260 C   0  0  0  0  0  0  0  0  0  0  0  0
   39.8580   22.5210   36.9770 N   0  0  0  0  0  0  0  0  0  0  0  0
   38.8330   23.3770   37.1090 C   0  0  0  0  0  0  0  0  0  0  0  0
   38.2170   23.9470   36.0680 N   0  0  0  0  0  0  0  0  0  0  0  0
   39.9780   22.5840   33.6560 H   0  0  0  0  0  0  0  0  0  0  0  0
   41.0940   21.5470   35.5990 H   0  0  0  0  0  0  0  0  0  0  0  0
   36.7490   24.2670   31.5570 C   0  0  0  0  0  0  0  0  0  0  0  0
   37.3510   23.5660   32.6230 C   0  0  0  0  0  0  0  0  0  0  0  0
   37.9300   24.3100   33.6490 C   0  0  0  0  0  0  0  0  0  0  0  0
   37.8760   25.6460   33.5510 N   0  0  0  0  0  0  0  0  0  0  0  0
   37.3000   26.2990   32.5300 C   0  0  0  0  0  0  0  0  0  0  0  0
   36.7340   25.6000   31.5270 N   0  0  0  0  0  0  0  0  0  0  0  0
   36.3110   23.6370   30.7810 H   0  0  0  0  0  0  0  0  0  0  0  0
   37.3820   22.5000   32.6780 H   0  0  0  0  0  0  0  0  0  0  0  0
   37.2870   27.7930   32.5050 C   0  0  0  0  0  3  0  0  0  0  0  0
   36.1220   28.4330   33.3320 C   0  0  0  0  0  2  0  0  0  0  0  0
   36.2170   28.5540   31.8650 C   0  0  0  0  0  2  0  0  0  0  0  0
   38.3500   23.7150   38.4740 C   0  0  0  0  0  0  0  0  0  0  0  0
   37.9250   25.0430   38.4620 F   0  0  0  0  0  0  0  0  0  0  0  0
   37.3240   22.8710   38.8610 F   0  0  0  0  0  0  0  0  0  0  0  0
   39.3450   23.6350   39.4070 F   0  0  0  0  0  0  0  0  0  0  0  0
  1  6  1  0  0  0  0
  2  1  2  0  0  0  0
  2  3  1  0  0  0  0
  3  4  2  0  0  0  0
  4  5  1  0  0  0  0
  5 20  1  0  0  0  0
  6  5  2  0  0  0  0
  7  2  1  0  0  0  0
  8  3  1  0  0  0  0
  9 10  1  0  0  0  0
 10 16  1  0  0  0  0
 10 11  2  0  0  0  0
 11  1  1  0  0  0  0
 12 11  1  0  0  0  0
 13 12  2  0  0  0  0
 14  9  2  0  0  0  0
 14 13  1  0  0  0  0
 15  9  1  0  0  0  0
 17 13  1  0  0  0  0
 17 18  1  0  0  0  0
 19 17  1  0  0  0  0
 19 18  1  0  0  0  0
 20 22  1  0  0  0  0
 20 23  1  0  0  0  0
 21 20  1  0  0  0  0
M  END
>  <minimizedAffinity>
-5.17280674

$$$$

 OpenBabel03272502243D

 23 25  0  0  0  0  0  0  0  0999 V2000
   38.0180   24.4500   34.3740 C   0  0  0  0  0  0  0  0  0  0  0  0
   38.1620   25.8250   34.3450 C   0  0  0  0  0  0  0  0  0  0  0  0
   38.3100   26.5840   35.4900 C   0  0  0  0  0  0  0  0  0  0  0  0
   38.3170   25.9680   36.6900 N   0  0  0  0  0  0  0  0  0  0  0  0
   38.1770   24.6340   36.7050 C   0  0  0  0  0  0  0  0  0  0  0  0
   38.0330   23.9010   35.5950 N   0  0  0  0  0  0  0  0  0  0  0  0
   38.1580   26.3300   33.3900 H   0  0  0  0  0  0  0  0  0  0  0  0
   38.4220   27.6540   35.4570 H   0  0  0  0  0  0  0  0  0  0  0  0
   38.1030   23.2880   30.7900 C   0  0  0  0  0  0  0  0  0  0  0  0
   38.3100   24.1250   31.9060 C   0  0  0  0  0  0  0  0  0  0  0  0
   37.8620   23.6800   33.1480 C   0  0  0  0  0  0  0  0  0  0  0  0
   37.2630   22.4820   33.1960 N   0  0  0  0  0  0  0  0  0  0  0  0
   37.0720   21.6960   32.1250 C   0  0  0  0  0  0  0  0  0  0  0  0
   37.4960   22.1060   30.9140 N   0  0  0  0  0  0  0  0  0  0  0  0
   38.4720   23.6850   29.8420 H   0  0  0  0  0  0  0  0  0  0  0  0
   38.7910   25.0760   31.8420 H   0  0  0  0  0  0  0  0  0  0  0  0
   36.3930   20.3740   32.2740 C   0  0  0  0  0  3  0  0  0  0  0  0
   34.8350   20.4400   32.1400 C   0  0  0  0  0  2  0  0  0  0  0  0
   35.5110   20.0700   33.3990 C   0  0  0  0  0  2  0  0  0  0  0  0
   38.1810   23.9240   38.0110 C   0  0  0  0  0  0  0  0  0  0  0  0
   37.9460   24.8650   39.0120 F   0  0  0  0  0  0  0  0  0  0  0  0
   37.2220   22.9260   38.0370 F   0  0  0  0  0  0  0  0  0  0  0  0
   39.3950   23.3590   38.2860 F   0  0  0  0  0  0  0  0  0  0  0  0
  1  6  1  0  0  0  0
  2  1  2  0  0  0  0
  2  3  1  0  0  0  0
  3  4  2  0  0  0  0
  4  5  1  0  0  0  0
  5 20  1  0  0  0  0
  6  5  2  0  0  0  0
  7  2  1  0  0  0  0
  8  3  1  0  0  0  0
  9 14  2  0  0  0  0
  9 10  1  0  0  0  0
 10 11  2  0  0  0  0
 11 12  1  0  0  0  0
 11  1  1  0  0  0  0
 13 17  1  0  0  0  0
 13 12  2  0  0  0  0
 14 13  1  0  0  0  0
 15  9  1  0  0  0  0
 16 10  1  0  0  0  0
 17 19  1  0  0  0  0
 18 17  1  0  0  0  0
 18 19  1  0  0  0  0
 20 22  1  0  0  0  0
 20 23  1  0  0  0  0
 20 21  1  0  0  0  0
M  END
>  <minimizedAffinity>
-5.16913319

$$$$
