
 OpenBabel03272509053D

 27 29  0  0  0  0  0  0  0  0999 V2000
   33.1880   27.6010   48.0120 C   0  0  0  0  0  0  0  0  0  0  0  0
   32.5040   28.2910   47.4530 H   0  0  0  0  0  0  0  0  0  0  0  0
   32.6720   27.1900   48.8940 H   0  0  0  0  0  0  0  0  0  0  0  0
   33.6330   26.5370   47.0540 C   0  0  0  0  0  0  0  0  0  0  0  0
   33.8630   25.2230   47.3660 C   0  0  0  0  0  0  0  0  0  0  0  0
   34.2700   24.3360   46.3970 C   0  0  0  0  0  0  0  0  0  0  0  0
   34.4600   24.7340   45.0820 C   0  0  0  0  0  0  0  0  0  0  0  0
   34.2320   26.0430   44.7610 C   0  0  0  0  0  0  0  0  0  0  0  0
   33.8250   26.9390   45.7210 C   0  0  0  0  0  0  0  0  0  0  0  0
   33.6890   25.0070   48.4120 H   0  0  0  0  0  0  0  0  0  0  0  0
   34.4220   23.3190   46.7630 H   0  0  0  0  0  0  0  0  0  0  0  0
   34.7790   23.9380   44.4300 H   0  0  0  0  0  0  0  0  0  0  0  0
   34.3900   26.3260   43.7220 H   0  0  0  0  0  0  0  0  0  0  0  0
   33.6730   27.9620   45.3530 H   0  0  0  0  0  0  0  0  0  0  0  0
   34.9420   28.3220   49.6200 C   0  0  0  0  0  3  0  0  0  0  0  0
   34.3030   28.4260   48.4890 C   0  0  0  0  0  3  0  0  0  0  0  0
   37.5510   30.2630   51.3190 C   0  0  0  0  0  0  0  0  0  0  0  0
   38.0420   31.0370   50.2310 C   0  0  0  0  0  0  0  0  0  0  0  0
   37.4690   30.8750   48.9530 C   0  0  0  0  0  0  0  0  0  0  0  0
   36.4640   29.9650   48.8560 N   0  0  0  0  0  0  0  0  0  0  0  0
   36.0280   29.2570   49.8930 C   0  0  0  0  0  0  0  0  0  0  0  0
   36.5670   29.4050   51.1090 N   0  0  0  0  0  0  0  0  0  0  0  0
   38.0310   30.4340   52.2720 H   0  0  0  0  0  0  0  0  0  0  0  0
   38.8310   31.7260   50.3920 H   0  0  0  0  0  0  0  0  0  0  0  0
   37.9520   31.6610   47.7990 C   0  0  0  0  0  3  0  0  0  0  0  0
   38.9470   31.0110   46.8470 C   0  0  0  0  0  2  0  0  0  0  0  0
   37.5530   31.3360   46.4300 C   0  0  0  0  0  2  0  0  0  0  0  0
  1 16  1  0  0  0  0
  1  3  1  0  0  0  0
  2  1  1  0  0  0  0
  4  5  1  0  0  0  0
  4  1  1  0  0  0  0
  5 10  1  0  0  0  0
  6 11  1  0  0  0  0
  6  5  2  0  0  0  0
  7  6  1  0  0  0  0
  8  7  2  0  0  0  0
  8  9  1  0  0  0  0
  9  4  2  0  0  0  0
 12  7  1  0  0  0  0
 13  8  1  0  0  0  0
 14  9  1  0  0  0  0
 15 21  1  0  0  0  0
 16 15  2  0  0  0  0
 17 23  1  0  0  0  0
 18 24  1  0  0  0  0
 18 17  2  0  0  0  0
 19 18  1  0  0  0  0
 20 19  2  0  0  0  0
 20 21  1  0  0  0  0
 21 22  2  0  0  0  0
 22 17  1  0  0  0  0
 25 19  1  0  0  0  0
 26 25  1  0  0  0  0
 27 26  1  0  0  0  0
 27 25  1  0  0  0  0
M  END
>  <minimizedAffinity>
-5.24482679

>  <minimizedRMSD>
0.502700627

$$$$
