
 OpenBabel03272502233D

 23 25  0  0  0  0  0  0  0  0999 V2000
   37.7080   31.1260   47.2640 C   0  0  0  0  0  0  0  0  0  0  0  0
   37.0050   30.7950   46.1200 C   0  0  0  0  0  0  0  0  0  0  0  0
   37.3510   31.2650   44.8680 C   0  0  0  0  0  0  0  0  0  0  0  0
   38.4180   32.0830   44.7450 N   0  0  0  0  0  0  0  0  0  0  0  0
   39.0920   32.3970   45.8620 C   0  0  0  0  0  0  0  0  0  0  0  0
   38.7540   31.9400   47.0730 N   0  0  0  0  0  0  0  0  0  0  0  0
   36.1490   30.1410   46.2050 H   0  0  0  0  0  0  0  0  0  0  0  0
   36.7970   31.0010   43.9830 H   0  0  0  0  0  0  0  0  0  0  0  0
   37.5550   30.3140   50.9400 C   0  0  0  0  0  0  0  0  0  0  0  0
   38.0350   30.8650   49.7340 C   0  0  0  0  0  0  0  0  0  0  0  0
   37.3160   30.6130   48.5680 C   0  0  0  0  0  0  0  0  0  0  0  0
   36.2120   29.8600   48.6730 N   0  0  0  0  0  0  0  0  0  0  0  0
   35.7670   29.3410   49.8280 C   0  0  0  0  0  0  0  0  0  0  0  0
   36.4470   29.5710   50.9690 N   0  0  0  0  0  0  0  0  0  0  0  0
   38.1560   30.5420   51.8220 H   0  0  0  0  0  0  0  0  0  0  0  0
   38.9180   31.4630   49.6760 H   0  0  0  0  0  0  0  0  0  0  0  0
   34.5240   28.5120   49.8510 C   0  0  0  0  0  0  0  0  0  0  0  0
   34.4080   27.5070   48.6560 C   0  0  0  0  0  0  0  0  0  0  0  0
   33.4800   28.6410   48.8370 C   0  0  0  0  0  0  0  0  0  0  0  0
   40.2720   33.2950   45.7610 C   0  0  0  0  0  0  0  0  0  0  0  0
   40.3800   33.9980   46.9600 F   0  0  0  0  0  0  0  0  0  0  0  0
   41.4250   32.5720   45.5070 F   0  0  0  0  0  0  0  0  0  0  0  0
   40.1250   34.2290   44.7740 F   0  0  0  0  0  0  0  0  0  0  0  0
  1 11  1  0  0  0  0
  2  7  1  0  0  0  0
  2  1  2  0  0  0  0
  3  2  1  0  0  0  0
  4  3  2  0  0  0  0
  4  5  1  0  0  0  0
  5  6  2  0  0  0  0
  6  1  1  0  0  0  0
  8  3  1  0  0  0  0
  9 14  1  0  0  0  0
  9 15  1  0  0  0  0
 10  9  2  0  0  0  0
 11 12  2  0  0  0  0
 11 10  1  0  0  0  0
 12 13  1  0  0  0  0
 13 17  1  0  0  0  0
 13 14  2  0  0  0  0
 16 10  1  0  0  0  0
 18 19  1  0  0  0  0
 18 17  1  0  0  0  0
 19 17  1  0  0  0  0
 20  5  1  0  0  0  0
 20 21  1  0  0  0  0
 22 20  1  0  0  0  0
 23 20  1  0  0  0  0
M  END
>  <minimizedAffinity>
-6.3228693

>  <minimizedRMSD>
0.767677248

$$$$
