
 OpenBabel03272504163D

 18 19  0  0  0  0  0  0  0  0999 V2000
   39.3680   24.5910   35.6780 C   0  0  0  0  0  0  0  0  0  0  0  0
   39.1930   25.9380   35.3640 C   0  0  0  0  0  0  0  0  0  0  0  0
   40.2860   26.6510   34.8610 C   0  0  0  0  0  0  0  0  0  0  0  0
   41.4580   25.9800   34.7080 N   0  0  0  0  0  0  0  0  0  0  0  0
   41.6050   24.6700   35.0200 C   0  0  0  0  0  0  0  0  0  0  0  0
   40.5480   23.9810   35.5070 N   0  0  0  0  0  0  0  0  0  0  0  0
   40.1480   27.6790   34.6230 H   0  0  0  0  0  0  0  0  0  0  0  0
   42.5510   24.1690   34.8860 H   0  0  0  0  0  0  0  0  0  0  0  0
   37.8440   26.5370   35.5850 C   0  0  0  0  0  3  0  0  0  0  0  0
   37.0500   26.9470   34.3470 C   0  0  0  0  0  2  0  0  0  0  0  0
   37.6520   28.0040   35.2550 C   0  0  0  0  0  2  0  0  0  0  0  0
   38.3640   23.7710   36.1840 O   0  0  0  0  0  0  0  0  0  0  0  0
   38.0900   24.5520   38.7490 O   0  0  0  0  0  0  0  0  0  0  0  0
   38.2860   23.3530   37.8490 P   0  0  0  0  0  0  0  0  0  0  0  0
   36.9510   22.2970   37.9990 O   0  0  0  0  0  0  0  0  0  0  0  0
   36.1350   22.8850   37.9800 H   0  0  0  0  0  0  0  0  0  0  0  0
   39.7180   22.5970   38.3240 O   0  0  0  0  0  0  0  0  0  0  0  0
   39.6190   22.3390   39.2760 H   0  0  0  0  0  0  0  0  0  0  0  0
  1 12  1  0  0  0  0
  2  9  1  0  0  0  0
  2  1  2  0  0  0  0
  3  2  1  0  0  0  0
  4  3  2  0  0  0  0
  4  5  1  0  0  0  0
  5  6  2  0  0  0  0
  6  1  1  0  0  0  0
  7  3  1  0  0  0  0
  8  5  1  0  0  0  0
 10 11  1  0  0  0  0
 10  9  1  0  0  0  0
 11  9  1  0  0  0  0
 12 14  1  0  0  0  0
 14 15  1  0  0  0  0
 14 17  1  0  0  0  0
 14 13  2  0  0  0  0
 16 15  1  0  0  0  0
 17 18  1  0  0  0  0
M  END
>  <minimizedAffinity>
-4.44780111

$$$$

 OpenBabel03272504163D

 18 19  0  0  0  0  0  0  0  0999 V2000
   39.9500   24.0810   35.7130 C   0  0  0  0  0  0  0  0  0  0  0  0
   39.5100   23.3830   36.8370 C   0  0  0  0  0  0  0  0  0  0  0  0
   40.3840   22.4740   37.4400 C   0  0  0  0  0  0  0  0  0  0  0  0
   41.6170   22.3260   36.8870 N   0  0  0  0  0  0  0  0  0  0  0  0
   42.0230   23.0150   35.7930 C   0  0  0  0  0  0  0  0  0  0  0  0
   41.1770   23.8950   35.2100 N   0  0  0  0  0  0  0  0  0  0  0  0
   40.0450   21.9430   38.2970 H   0  0  0  0  0  0  0  0  0  0  0  0
   43.0100   22.8730   35.3810 H   0  0  0  0  0  0  0  0  0  0  0  0
   38.1270   23.6530   37.3290 C   0  0  0  0  0  3  0  0  0  0  0  0
   37.9790   24.6230   38.5010 C   0  0  0  0  0  2  0  0  0  0  0  0
   37.7450   23.1370   38.7020 C   0  0  0  0  0  2  0  0  0  0  0  0
   39.1800   25.0110   35.0220 O   0  0  0  0  0  0  0  0  0  0  0  0
   39.2370   27.2580   33.5340 O   0  0  0  0  0  0  0  0  0  0  0  0
   39.6730   26.6490   34.8470 P   0  0  0  0  0  0  0  0  0  0  0  0
   38.9450   27.4920   36.1420 O   0  0  0  0  0  0  0  0  0  0  0  0
   37.9840   27.6230   35.8760 H   0  0  0  0  0  0  0  0  0  0  0  0
   41.3560   26.7570   34.9170 O   0  0  0  0  0  0  0  0  0  0  0  0
   41.5970   27.7150   34.8500 H   0  0  0  0  0  0  0  0  0  0  0  0
  1  2  1  0  0  0  0
  2  9  1  0  0  0  0
  2  3  2  0  0  0  0
  3  7  1  0  0  0  0
  4  3  1  0  0  0  0
  5  4  2  0  0  0  0
  6  1  2  0  0  0  0
  6  5  1  0  0  0  0
  8  5  1  0  0  0  0
  9 10  1  0  0  0  0
  9 11  1  0  0  0  0
 10 11  1  0  0  0  0
 12  1  1  0  0  0  0
 13 14  2  0  0  0  0
 14 17  1  0  0  0  0
 14 12  1  0  0  0  0
 14 15  1  0  0  0  0
 16 15  1  0  0  0  0
 18 17  1  0  0  0  0
M  END
>  <minimizedAffinity>
-4.34216976

$$$$

 OpenBabel03272504163D

 18 19  0  0  0  0  0  0  0  0999 V2000
   39.0700   24.3790   36.1060 C   0  0  0  0  0  0  0  0  0  0  0  0
   40.0250   23.4560   36.5300 C   0  0  0  0  0  0  0  0  0  0  0  0
   39.8490   22.8380   37.7720 C   0  0  0  0  0  0  0  0  0  0  0  0
   38.7480   23.1810   38.4930 N   0  0  0  0  0  0  0  0  0  0  0  0
   37.8330   24.0820   38.0620 C   0  0  0  0  0  0  0  0  0  0  0  0
   38.0040   24.6780   36.8590 N   0  0  0  0  0  0  0  0  0  0  0  0
   40.5790   22.1350   38.0930 H   0  0  0  0  0  0  0  0  0  0  0  0
   36.9700   24.3290   38.6600 H   0  0  0  0  0  0  0  0  0  0  0  0
   41.1810   23.1810   35.6270 C   0  0  0  0  0  3  0  0  0  0  0  0
   41.1400   21.8900   34.8110 C   0  0  0  0  0  2  0  0  0  0  0  0
   42.1020   22.0290   35.9760 C   0  0  0  0  0  2  0  0  0  0  0  0
   39.1290   25.0600   34.8950 O   0  0  0  0  0  0  0  0  0  0  0  0
   39.2790   27.3590   33.4950 O   0  0  0  0  0  0  0  0  0  0  0  0
   39.6700   26.6880   34.7920 P   0  0  0  0  0  0  0  0  0  0  0  0
   38.9390   27.5020   36.1040 O   0  0  0  0  0  0  0  0  0  0  0  0
   37.9870   27.6700   35.8240 H   0  0  0  0  0  0  0  0  0  0  0  0
   41.3530   26.7460   34.9000 O   0  0  0  0  0  0  0  0  0  0  0  0
   41.6220   27.7000   34.8740 H   0  0  0  0  0  0  0  0  0  0  0  0
  1  2  2  0  0  0  0
  1  6  1  0  0  0  0
  2  3  1  0  0  0  0
  3  7  1  0  0  0  0
  3  4  2  0  0  0  0
  5  4  1  0  0  0  0
  5  8  1  0  0  0  0
  6  5  2  0  0  0  0
  9 11  1  0  0  0  0
  9  2  1  0  0  0  0
 10  9  1  0  0  0  0
 10 11  1  0  0  0  0
 12  1  1  0  0  0  0
 13 14  2  0  0  0  0
 14 12  1  0  0  0  0
 14 17  1  0  0  0  0
 14 15  1  0  0  0  0
 16 15  1  0  0  0  0
 18 17  1  0  0  0  0
M  END
>  <minimizedAffinity>
-4.16026878

$$$$

 OpenBabel03272504163D

 18 19  0  0  0  0  0  0  0  0999 V2000
   38.3200   23.9230   35.5420 C   0  0  0  0  0  0  0  0  0  0  0  0
   38.1700   24.7530   34.4320 C   0  0  0  0  0  0  0  0  0  0  0  0
   37.8350   24.1690   33.2060 C   0  0  0  0  0  0  0  0  0  0  0  0
   37.6760   22.8190   33.1750 N   0  0  0  0  0  0  0  0  0  0  0  0
   37.8270   22.0320   34.2680 C   0  0  0  0  0  0  0  0  0  0  0  0
   38.1510   22.5980   35.4530 N   0  0  0  0  0  0  0  0  0  0  0  0
   37.7220   24.8050   32.3610 H   0  0  0  0  0  0  0  0  0  0  0  0
   37.6920   20.9640   34.2070 H   0  0  0  0  0  0  0  0  0  0  0  0
   38.3760   26.2180   34.6220 C   0  0  0  0  0  3  0  0  0  0  0  0
   37.1400   27.0670   34.9120 C   0  0  0  0  0  2  0  0  0  0  0  0
   37.8320   27.1590   33.5650 C   0  0  0  0  0  2  0  0  0  0  0  0
   38.6500   24.3770   36.8160 O   0  0  0  0  0  0  0  0  0  0  0  0
   38.8860   24.0560   39.4810 O   0  0  0  0  0  0  0  0  0  0  0  0
   38.6980   23.3230   38.1720 P   0  0  0  0  0  0  0  0  0  0  0  0
   37.1950   22.5090   38.1800 O   0  0  0  0  0  0  0  0  0  0  0  0
   36.5320   23.1660   38.5560 H   0  0  0  0  0  0  0  0  0  0  0  0
   39.9790   22.2360   38.0160 O   0  0  0  0  0  0  0  0  0  0  0  0
   39.9500   21.6250   38.7960 H   0  0  0  0  0  0  0  0  0  0  0  0
  1 12  1  0  0  0  0
  2  9  1  0  0  0  0
  2  1  2  0  0  0  0
  3  2  1  0  0  0  0
  4  3  2  0  0  0  0
  4  5  1  0  0  0  0
  5  6  2  0  0  0  0
  6  1  1  0  0  0  0
  7  3  1  0  0  0  0
  8  5  1  0  0  0  0
  9 10  1  0  0  0  0
 11  9  1  0  0  0  0
 11 10  1  0  0  0  0
 12 14  1  0  0  0  0
 14 15  1  0  0  0  0
 14 13  2  0  0  0  0
 15 16  1  0  0  0  0
 17 14  1  0  0  0  0
 17 18  1  0  0  0  0
M  END
>  <minimizedAffinity>
-4.09841394

$$$$

 OpenBabel03272504163D

 18 19  0  0  0  0  0  0  0  0999 V2000
   39.7000   23.9300   35.4040 C   0  0  0  0  0  0  0  0  0  0  0  0
   40.5800   24.7010   34.6460 C   0  0  0  0  0  0  0  0  0  0  0  0
   41.3900   24.0550   33.7060 C   0  0  0  0  0  0  0  0  0  0  0  0
   41.2660   22.7060   33.5910 N   0  0  0  0  0  0  0  0  0  0  0  0
   40.4040   21.9770   34.3400 C   0  0  0  0  0  0  0  0  0  0  0  0
   39.6210   22.6020   35.2480 N   0  0  0  0  0  0  0  0  0  0  0  0
   42.0600   24.6460   33.1290 H   0  0  0  0  0  0  0  0  0  0  0  0
   40.3320   20.9070   34.2220 H   0  0  0  0  0  0  0  0  0  0  0  0
   40.6020   26.1740   34.8840 C   0  0  0  0  0  3  0  0  0  0  0  0
   39.7640   27.0460   33.9510 C   0  0  0  0  0  2  0  0  0  0  0  0
   41.2780   27.0540   33.8520 C   0  0  0  0  0  2  0  0  0  0  0  0
   38.8430   24.4480   36.3690 O   0  0  0  0  0  0  0  0  0  0  0  0
   37.7260   24.3520   38.8210 O   0  0  0  0  0  0  0  0  0  0  0  0
   38.3050   23.5110   37.7060 P   0  0  0  0  0  0  0  0  0  0  0  0
   37.1000   22.4700   37.0860 O   0  0  0  0  0  0  0  0  0  0  0  0
   36.2740   23.0350   36.9910 H   0  0  0  0  0  0  0  0  0  0  0  0
   39.5930   22.6350   38.3550 O   0  0  0  0  0  0  0  0  0  0  0  0
   39.2370   22.0830   39.0960 H   0  0  0  0  0  0  0  0  0  0  0  0
  1 12  1  0  0  0  0
  2  9  1  0  0  0  0
  2  1  2  0  0  0  0
  3  2  1  0  0  0  0
  4  3  2  0  0  0  0
  4  5  1  0  0  0  0
  5  6  2  0  0  0  0
  6  1  1  0  0  0  0
  7  3  1  0  0  0  0
  8  5  1  0  0  0  0
 10  9  1  0  0  0  0
 11 10  1  0  0  0  0
 11  9  1  0  0  0  0
 12 14  1  0  0  0  0
 14 17  1  0  0  0  0
 14 13  2  0  0  0  0
 15 14  1  0  0  0  0
 16 15  1  0  0  0  0
 17 18  1  0  0  0  0
M  END
>  <minimizedAffinity>
-4.03982496

$$$$

 OpenBabel03272504163D

 18 19  0  0  0  0  0  0  0  0999 V2000
   38.1060   23.9470   34.0860 C   0  0  0  0  0  0  0  0  0  0  0  0
   38.1430   24.8590   35.1400 C   0  0  0  0  0  0  0  0  0  0  0  0
   37.9880   24.3760   36.4430 C   0  0  0  0  0  0  0  0  0  0  0  0
   37.8110   23.0370   36.6010 N   0  0  0  0  0  0  0  0  0  0  0  0
   37.7780   22.1690   35.5610 C   0  0  0  0  0  0  0  0  0  0  0  0
   37.9280   22.6370   34.3000 N   0  0  0  0  0  0  0  0  0  0  0  0
   38.0170   25.0750   37.2450 H   0  0  0  0  0  0  0  0  0  0  0  0
   37.6360   21.1120   35.7230 H   0  0  0  0  0  0  0  0  0  0  0  0
   38.3460   26.3000   34.8100 C   0  0  0  0  0  3  0  0  0  0  0  0
   39.7490   26.8720   35.0100 C   0  0  0  0  0  2  0  0  0  0  0  0
   38.6220   27.2610   35.9490 C   0  0  0  0  0  2  0  0  0  0  0  0
   38.2470   24.2970   32.7470 O   0  0  0  0  0  0  0  0  0  0  0  0
   36.0270   25.5490   31.8700 O   0  0  0  0  0  0  0  0  0  0  0  0
   36.9060   24.3350   31.6720 P   0  0  0  0  0  0  0  0  0  0  0  0
   37.5750   24.3610   30.0990 O   0  0  0  0  0  0  0  0  0  0  0  0
   37.8820   25.3070   29.9490 H   0  0  0  0  0  0  0  0  0  0  0  0
   35.9400   22.9710   31.9020 O   0  0  0  0  0  0  0  0  0  0  0  0
   35.2020   23.0120   31.2420 H   0  0  0  0  0  0  0  0  0  0  0  0
  1  6  2  0  0  0  0
  1  2  1  0  0  0  0
  2  3  2  0  0  0  0
  3  4  1  0  0  0  0
  3  7  1  0  0  0  0
  5  8  1  0  0  0  0
  5  4  2  0  0  0  0
  6  5  1  0  0  0  0
  9 10  1  0  0  0  0
  9  2  1  0  0  0  0
  9 11  1  0  0  0  0
 10 11  1  0  0  0  0
 12  1  1  0  0  0  0
 14 13  2  0  0  0  0
 14 17  1  0  0  0  0
 14 12  1  0  0  0  0
 15 14  1  0  0  0  0
 16 15  1  0  0  0  0
 18 17  1  0  0  0  0
M  END
>  <minimizedAffinity>
-4.03016376

$$$$

 OpenBabel03272504163D

 18 19  0  0  0  0  0  0  0  0999 V2000
   38.5060   25.2710   35.5320 C   0  0  0  0  0  0  0  0  0  0  0  0
   37.9430   25.0880   34.2700 C   0  0  0  0  0  0  0  0  0  0  0  0
   37.3520   26.1880   33.6400 C   0  0  0  0  0  0  0  0  0  0  0  0
   37.3660   27.3750   34.3030 N   0  0  0  0  0  0  0  0  0  0  0  0
   37.9190   27.5290   35.5310 C   0  0  0  0  0  0  0  0  0  0  0  0
   38.4900   26.4640   36.1400 N   0  0  0  0  0  0  0  0  0  0  0  0
   36.9240   26.0450   32.6770 H   0  0  0  0  0  0  0  0  0  0  0  0
   37.9120   28.4860   36.0280 H   0  0  0  0  0  0  0  0  0  0  0  0
   38.0060   23.7250   33.6670 C   0  0  0  0  0  3  0  0  0  0  0  0
   38.9950   23.5120   32.5220 C   0  0  0  0  0  2  0  0  0  0  0  0
   37.5030   23.5470   32.2490 C   0  0  0  0  0  2  0  0  0  0  0  0
   39.1220   24.2610   36.2640 O   0  0  0  0  0  0  0  0  0  0  0  0
   37.1080   22.8170   37.3240 O   0  0  0  0  0  0  0  0  0  0  0  0
   38.3830   23.5610   37.6500 P   0  0  0  0  0  0  0  0  0  0  0  0
   39.5360   22.4750   38.2900 O   0  0  0  0  0  0  0  0  0  0  0  0
   39.4970   21.6590   37.7030 H   0  0  0  0  0  0  0  0  0  0  0  0
   37.9910   24.7640   38.7660 O   0  0  0  0  0  0  0  0  0  0  0  0
   37.6020   24.3190   39.5620 H   0  0  0  0  0  0  0  0  0  0  0  0
  1  6  1  0  0  0  0
  1 12  1  0  0  0  0
  2  1  2  0  0  0  0
  3  2  1  0  0  0  0
  3  4  2  0  0  0  0
  4  5  1  0  0  0  0
  5  8  1  0  0  0  0
  5  6  2  0  0  0  0
  7  3  1  0  0  0  0
  9  2  1  0  0  0  0
 10  9  1  0  0  0  0
 11 10  1  0  0  0  0
 11  9  1  0  0  0  0
 12 14  1  0  0  0  0
 13 14  2  0  0  0  0
 14 15  1  0  0  0  0
 14 17  1  0  0  0  0
 16 15  1  0  0  0  0
 17 18  1  0  0  0  0
M  END
>  <minimizedAffinity>
-3.9815619

$$$$

 OpenBabel03272504163D

 18 19  0  0  0  0  0  0  0  0999 V2000
   38.8170   24.0200   34.4700 C   0  0  0  0  0  0  0  0  0  0  0  0
   38.4200   25.3440   34.2900 C   0  0  0  0  0  0  0  0  0  0  0  0
   37.5110   25.6330   33.2670 C   0  0  0  0  0  0  0  0  0  0  0  0
   37.0690   24.5950   32.5080 N   0  0  0  0  0  0  0  0  0  0  0  0
   37.4700   23.3150   32.7010 C   0  0  0  0  0  0  0  0  0  0  0  0
   38.3490   23.0370   33.6910 N   0  0  0  0  0  0  0  0  0  0  0  0
   37.2100   26.6440   33.1320 H   0  0  0  0  0  0  0  0  0  0  0  0
   37.0990   22.5150   32.0790 H   0  0  0  0  0  0  0  0  0  0  0  0
   38.9900   26.3760   35.2050 C   0  0  0  0  0  3  0  0  0  0  0  0
   38.2650   26.6170   36.5270 C   0  0  0  0  0  2  0  0  0  0  0  0
   38.2030   27.6530   35.4210 C   0  0  0  0  0  2  0  0  0  0  0  0
   39.7130   23.6020   35.4490 O   0  0  0  0  0  0  0  0  0  0  0  0
   38.9400   23.4710   38.0280 O   0  0  0  0  0  0  0  0  0  0  0  0
   39.2140   22.6480   36.7900 P   0  0  0  0  0  0  0  0  0  0  0  0
   37.7810   21.8630   36.2910 O   0  0  0  0  0  0  0  0  0  0  0  0
   37.0540   22.5560   36.3550 H   0  0  0  0  0  0  0  0  0  0  0  0
   40.4160   21.5310   37.1850 O   0  0  0  0  0  0  0  0  0  0  0  0
   40.0770   20.9790   37.9340 H   0  0  0  0  0  0  0  0  0  0  0  0
  1 12  1  0  0  0  0
  2  1  1  0  0  0  0
  2  9  1  0  0  0  0
  3  2  2  0  0  0  0
  4  5  2  0  0  0  0
  4  3  1  0  0  0  0
  5  6  1  0  0  0  0
  6  1  2  0  0  0  0
  7  3  1  0  0  0  0
  8  5  1  0  0  0  0
  9 11  1  0  0  0  0
  9 10  1  0  0  0  0
 11 10  1  0  0  0  0
 12 14  1  0  0  0  0
 14 17  1  0  0  0  0
 14 13  2  0  0  0  0
 15 16  1  0  0  0  0
 15 14  1  0  0  0  0
 17 18  1  0  0  0  0
M  END
>  <minimizedAffinity>
-3.96448159

$$$$

 OpenBabel03272504163D

 18 19  0  0  0  0  0  0  0  0999 V2000
   38.6470   24.0450   35.0810 C   0  0  0  0  0  0  0  0  0  0  0  0
   38.0310   23.3170   36.0970 C   0  0  0  0  0  0  0  0  0  0  0  0
   37.4330   22.0950   35.7710 C   0  0  0  0  0  0  0  0  0  0  0  0
   37.4920   21.6930   34.4740 N   0  0  0  0  0  0  0  0  0  0  0  0
   38.0960   22.4180   33.5020 C   0  0  0  0  0  0  0  0  0  0  0  0
   38.6740   23.6000   33.8190 N   0  0  0  0  0  0  0  0  0  0  0  0
   36.9630   21.5420   36.5490 H   0  0  0  0  0  0  0  0  0  0  0  0
   38.1240   22.0680   32.4820 H   0  0  0  0  0  0  0  0  0  0  0  0
   38.0480   23.8870   37.4760 C   0  0  0  0  0  3  0  0  0  0  0  0
   39.0970   23.3430   38.4450 C   0  0  0  0  0  2  0  0  0  0  0  0
   37.6320   22.9910   38.6250 C   0  0  0  0  0  2  0  0  0  0  0  0
   39.2770   25.2710   35.2720 O   0  0  0  0  0  0  0  0  0  0  0  0
   37.0300   26.6070   34.6160 O   0  0  0  0  0  0  0  0  0  0  0  0
   38.5120   26.7580   34.8720 P   0  0  0  0  0  0  0  0  0  0  0  0
   38.7620   27.7830   36.2160 O   0  0  0  0  0  0  0  0  0  0  0  0
   38.1000   27.4860   36.9120 H   0  0  0  0  0  0  0  0  0  0  0  0
   39.2000   27.4050   33.4740 O   0  0  0  0  0  0  0  0  0  0  0  0
   38.7600   28.2750   33.2990 H   0  0  0  0  0  0  0  0  0  0  0  0
  1 12  1  0  0  0  0
  1  2  1  0  0  0  0
  2  9  1  0  0  0  0
  3  2  2  0  0  0  0
  3  7  1  0  0  0  0
  4  3  1  0  0  0  0
  5  6  1  0  0  0  0
  5  4  2  0  0  0  0
  6  1  2  0  0  0  0
  8  5  1  0  0  0  0
  9 10  1  0  0  0  0
  9 11  1  0  0  0  0
 10 11  1  0  0  0  0
 13 14  2  0  0  0  0
 14 12  1  0  0  0  0
 14 15  1  0  0  0  0
 15 16  1  0  0  0  0
 17 14  1  0  0  0  0
 18 17  1  0  0  0  0
M  END
>  <minimizedAffinity>
-3.92681026

$$$$
