
 OpenBabel03272505153D

 22 24  0  0  0  0  0  0  0  0999 V2000
   38.6700   32.0440   48.6690 Cl  0  0  0  0  0  0  0  0  0  0  0  0
   37.9390   31.5560   47.1630 C   0  0  0  0  0  0  0  0  0  0  0  0
   36.8550   30.7300   47.1710 C   0  0  0  0  0  0  0  0  0  0  0  0
   36.3300   30.3850   45.9420 C   0  0  0  0  0  0  0  0  0  0  0  0
   36.8330   30.8230   44.7450 C   0  0  0  0  0  0  0  0  0  0  0  0
   37.9260   31.6540   44.7730 C   0  0  0  0  0  0  0  0  0  0  0  0
   38.4970   32.0350   45.9750 C   0  0  0  0  0  0  0  0  0  0  0  0
   35.4700   29.7300   45.9330 H   0  0  0  0  0  0  0  0  0  0  0  0
   36.3830   30.5230   43.8080 H   0  0  0  0  0  0  0  0  0  0  0  0
   38.3230   31.9990   43.8510 H   0  0  0  0  0  0  0  0  0  0  0  0
   36.5730   29.1750   50.6120 C   0  0  0  0  0  0  0  0  0  0  0  0
   37.1020   29.6110   49.3930 C   0  0  0  0  0  0  0  0  0  0  0  0
   36.3270   30.2690   48.4410 C   0  0  0  0  0  0  0  0  0  0  0  0
   35.0160   30.4620   48.7690 N   0  0  0  0  0  0  0  0  0  0  0  0
   34.5160   30.0400   49.9450 C   0  0  0  0  0  0  0  0  0  0  0  0
   35.2820   29.4030   50.8570 N   0  0  0  0  0  0  0  0  0  0  0  0
   37.2990   28.6910   51.2250 H   0  0  0  0  0  0  0  0  0  0  0  0
   38.1510   29.4710   49.0970 H   0  0  0  0  0  0  0  0  0  0  0  0
   33.4680   30.1890   50.2190 H   0  0  0  0  0  0  0  0  0  0  0  0
   39.6800   32.9330   46.0510 C   0  0  0  0  0  0  0  0  0  0  0  0
   40.8630   32.4780   45.2520 C   0  0  0  0  0  0  0  0  0  0  0  0
   40.1100   33.6690   44.8050 C   0  0  0  0  0  0  0  0  0  0  0  0
  2  3  1  0  0  0  0
  2  1  1  0  0  0  0
  3 13  1  0  0  0  0
  4  3  2  0  0  0  0
  5  6  2  0  0  0  0
  5  4  1  0  0  0  0
  6  7  1  0  0  0  0
  7 20  1  0  0  0  0
  7  2  2  0  0  0  0
  8  4  1  0  0  0  0
  9  5  1  0  0  0  0
 10  6  1  0  0  0  0
 11 16  1  0  0  0  0
 11 17  1  0  0  0  0
 12 11  2  0  0  0  0
 13 14  2  0  0  0  0
 13 12  1  0  0  0  0
 14 15  1  0  0  0  0
 15 19  1  0  0  0  0
 15 16  2  0  0  0  0
 18 12  1  0  0  0  0
 21 20  1  0  0  0  0
 22 21  1  0  0  0  0
 22 20  1  0  0  0  0
M  END
>  <minimizedAffinity>
-5.51242495

>  <minimizedRMSD>
1.85387361

$$$$
