
 OpenBabel03272506193D

 28 30  0  0  0  0  0  0  0  0999 V2000
   35.5420   30.2770   49.7630 C   0  0  0  0  0  0  0  0  0  0  0  0
   36.4250   31.2240   49.0740 C   0  0  0  0  0  0  0  0  0  0  0  0
   37.8830   30.8260   49.1580 C   0  0  0  0  0  0  0  0  0  0  0  0
   38.3440   30.7880   50.5950 C   0  0  0  0  0  0  0  0  0  0  0  0
   37.3430   30.1610   51.5190 C   0  0  0  0  0  0  0  0  0  0  0  0
   36.2520   29.4230   50.7700 C   0  0  0  0  0  0  0  0  0  0  0  0
   34.7460   30.8400   50.3460 H   0  0  0  0  0  0  0  0  0  0  0  0
   36.1960   31.5880   48.0950 H   0  0  0  0  0  0  0  0  0  0  0  0
   36.4200   32.1530   49.6970 H   0  0  0  0  0  0  0  0  0  0  0  0
   38.4540   31.6270   48.6170 H   0  0  0  0  0  0  0  0  0  0  0  0
   38.0420   29.8660   48.6320 H   0  0  0  0  0  0  0  0  0  0  0  0
   39.3060   30.2670   50.6070 H   0  0  0  0  0  0  0  0  0  0  0  0
   38.5450   31.8320   50.8950 H   0  0  0  0  0  0  0  0  0  0  0  0
   36.9290   30.9270   52.2080 H   0  0  0  0  0  0  0  0  0  0  0  0
   37.8650   29.3750   52.1190 H   0  0  0  0  0  0  0  0  0  0  0  0
   36.7850   28.6080   50.2070 H   0  0  0  0  0  0  0  0  0  0  0  0
   35.6050   28.9190   51.4870 H   0  0  0  0  0  0  0  0  0  0  0  0
   34.7700   29.3990   48.8740 C   0  0  0  0  0  0  0  0  0  0  0  0
   34.1670   30.0000   47.7590 C   0  0  0  0  0  0  0  0  0  0  0  0
   33.4070   29.1480   46.9280 C   0  0  0  0  0  0  0  0  0  0  0  0
   33.2950   27.8190   47.2320 N   0  0  0  0  0  0  0  0  0  0  0  0
   33.9060   27.2960   48.3280 C   0  0  0  0  0  0  0  0  0  0  0  0
   34.6300   28.0980   49.1250 N   0  0  0  0  0  0  0  0  0  0  0  0
   34.2230   31.0400   47.4740 H   0  0  0  0  0  0  0  0  0  0  0  0
   33.7330   26.2350   48.4480 H   0  0  0  0  0  0  0  0  0  0  0  0
   32.7070   29.6290   45.7120 C   0  0  0  0  0  0  0  0  0  0  0  0
   32.2610   31.0730   45.7790 C   0  0  0  0  0  0  0  0  0  0  0  0
   31.2360   30.0060   45.8410 C   0  0  0  0  0  0  0  0  0  0  0  0
  1  7  1  0  0  0  0
  1  6  1  0  0  0  0
  2  3  1  0  0  0  0
  2  9  1  0  0  0  0
  2  1  1  0  0  0  0
  3  4  1  0  0  0  0
  4 12  1  0  0  0  0
  4 13  1  0  0  0  0
  4  5  1  0  0  0  0
  5 15  1  0  0  0  0
  5 14  1  0  0  0  0
  6 17  1  0  0  0  0
  6  5  1  0  0  0  0
  8  2  1  0  0  0  0
 10  3  1  0  0  0  0
 11  3  1  0  0  0  0
 16  6  1  0  0  0  0
 18 23  1  0  0  0  0
 18  1  1  0  0  0  0
 19 18  2  0  0  0  0
 20 21  2  0  0  0  0
 20 19  1  0  0  0  0
 21 22  1  0  0  0  0
 22 25  1  0  0  0  0
 22 23  2  0  0  0  0
 24 19  1  0  0  0  0
 26 27  1  0  0  0  0
 26 28  1  0  0  0  0
 26 20  1  0  0  0  0
 27 28  1  0  0  0  0
M  END
>  <minimizedAffinity>
-5.0904398

>  <minimizedRMSD>
0.220683828

$$$$
