
 OpenBabel03272510213D

 30 33  0  0  0  0  0  0  0  0999 V2000
   37.4360   29.2300   50.8780 Br  0  0  0  0  0  0  0  0  0  0  0  0
   36.0130   29.2680   49.6120 C   0  0  0  0  0  0  0  0  0  0  0  0
   35.9820   30.2240   48.6000 C   0  0  0  0  0  0  0  0  0  0  0  0
   34.9240   30.1870   47.7260 C   0  0  0  0  0  0  0  0  0  0  0  0
   33.9050   29.2660   47.7980 C   0  0  0  0  0  0  0  0  0  0  0  0
   33.9620   28.3360   48.8070 C   0  0  0  0  0  0  0  0  0  0  0  0
   35.0060   28.3490   49.6920 C   0  0  0  0  0  0  0  0  0  0  0  0
   34.9080   30.9340   46.9430 H   0  0  0  0  0  0  0  0  0  0  0  0
   33.1810   27.5920   48.9000 H   0  0  0  0  0  0  0  0  0  0  0  0
   35.0240   27.6030   50.4760 H   0  0  0  0  0  0  0  0  0  0  0  0
   38.0170   33.1560   49.3750 C   0  0  0  0  0  0  0  0  0  0  0  0
   39.0110   33.1450   48.3520 C   0  0  0  0  0  0  0  0  0  0  0  0
   38.9570   32.1260   47.4180 C   0  0  0  0  0  0  0  0  0  0  0  0
   37.9700   31.1740   47.4980 N   0  0  0  0  0  0  0  0  0  0  0  0
   37.0440   31.2210   48.4860 C   0  0  0  0  0  0  0  0  0  0  0  0
   37.0730   32.2110   49.4180 N   0  0  0  0  0  0  0  0  0  0  0  0
   37.9930   33.9160   50.1360 H   0  0  0  0  0  0  0  0  0  0  0  0
   39.7480   33.9140   48.3480 H   0  0  0  0  0  0  0  0  0  0  0  0
   39.6750   32.0730   46.6370 H   0  0  0  0  0  0  0  0  0  0  0  0
   32.7830   29.2300   46.8690 C   0  0  0  0  0  0  0  0  0  0  0  0
   31.8250   28.2460   46.8310 C   0  0  0  0  0  0  0  0  0  0  0  0
   30.7730   28.2540   45.9280 C   0  0  0  0  0  0  0  0  0  0  0  0
   30.6770   29.2540   45.0520 N   0  0  0  0  0  0  0  0  0  0  0  0
   31.6140   30.2360   45.0740 C   0  0  0  0  0  0  0  0  0  0  0  0
   32.6120   30.2020   45.9520 N   0  0  0  0  0  0  0  0  0  0  0  0
   31.9040   27.4280   47.5470 H   0  0  0  0  0  0  0  0  0  0  0  0
   30.0730   27.4200   45.9900 H   0  0  0  0  0  0  0  0  0  0  0  0
   31.5380   31.3730   44.1070 C   0  0  0  0  0  3  0  0  0  0  0  0
   32.6530   32.3500   44.0320 C   0  0  0  0  0  2  0  0  0  0  0  0
   31.3480   32.7750   44.6000 C   0  0  0  0  0  2  0  0  0  0  0  0
  2  7  1  0  0  0  0
  2  1  1  0  0  0  0
  3  2  2  0  0  0  0
  4  5  2  0  0  0  0
  4  3  1  0  0  0  0
  5  6  1  0  0  0  0
  6  9  1  0  0  0  0
  6  7  2  0  0  0  0
  7 10  1  0  0  0  0
  8  4  1  0  0  0  0
 11 16  1  0  0  0  0
 11 17  1  0  0  0  0
 12 11  2  0  0  0  0
 13 14  2  0  0  0  0
 13 12  1  0  0  0  0
 14 15  1  0  0  0  0
 15  3  1  0  0  0  0
 15 16  2  0  0  0  0
 18 12  1  0  0  0  0
 19 13  1  0  0  0  0
 20  5  1  0  0  0  0
 21 20  1  0  0  0  0
 21 26  1  0  0  0  0
 22 27  1  0  0  0  0
 22 21  2  0  0  0  0
 23 24  2  0  0  0  0
 23 22  1  0  0  0  0
 24 25  1  0  0  0  0
 25 20  2  0  0  0  0
 28 30  1  0  0  0  0
 28 24  1  0  0  0  0
 29 28  1  0  0  0  0
 29 30  1  0  0  0  0
M  END
>  <minimizedAffinity>
-5.84074974

>  <minimizedRMSD>
0.444599271

$$$$
