
 OpenBabel03272504533D

 19 21  0  0  0  0  0  0  0  0999 V2000
   37.3990   31.3830   49.2090 C   0  0  0  0  0  0  0  0  0  0  0  0
   37.7580   32.6650   49.6630 C   0  0  0  0  0  0  0  0  0  0  0  0
   38.6430   33.3660   48.8620 C   0  0  0  0  0  0  0  0  0  0  0  0
   39.1160   32.8130   47.7080 N   0  0  0  0  0  0  0  0  0  0  0  0
   38.7500   31.5780   47.3020 C   0  0  0  0  0  0  0  0  0  0  0  0
   37.8790   30.8540   48.0640 N   0  0  0  0  0  0  0  0  0  0  0  0
   37.3960   33.1080   50.5600 H   0  0  0  0  0  0  0  0  0  0  0  0
   39.0010   34.3780   49.1090 H   0  0  0  0  0  0  0  0  0  0  0  0
   36.4170   30.5980   50.0370 C   0  0  0  0  0  0  0  0  0  0  0  0
   36.3740   29.1430   49.9760 C   0  0  0  0  0  0  0  0  0  0  0  0
   37.0880   29.7840   51.1320 C   0  0  0  0  0  0  0  0  0  0  0  0
   35.5110   31.1770   50.3760 H   0  0  0  0  0  0  0  0  0  0  0  0
   35.4650   28.5700   50.1820 H   0  0  0  0  0  0  0  0  0  0  0  0
   37.0850   28.6490   49.2740 H   0  0  0  0  0  0  0  0  0  0  0  0
   38.1730   29.7870   51.2160 H   0  0  0  0  0  0  0  0  0  0  0  0
   36.5410   29.7560   52.0910 H   0  0  0  0  0  0  0  0  0  0  0  0
   39.2430   30.9440   46.0510 C   0  0  0  0  0  0  0  0  0  0  0  0
   40.7330   31.2110   45.6770 C   0  0  0  0  0  0  0  0  0  0  0  0
   39.6340   31.8020   44.8920 C   0  0  0  0  0  0  0  0  0  0  0  0
  1  2  1  0  0  0  0
  1  9  1  0  0  0  0
  2  7  1  0  0  0  0
  3  8  1  0  0  0  0
  3  2  2  0  0  0  0
  4  3  1  0  0  0  0
  5  4  2  0  0  0  0
  5  6  1  0  0  0  0
  6  1  2  0  0  0  0
  9 12  1  0  0  0  0
  9 11  1  0  0  0  0
 10  9  1  0  0  0  0
 10 13  1  0  0  0  0
 10 11  1  0  0  0  0
 11 15  1  0  0  0  0
 11 16  1  0  0  0  0
 14 10  1  0  0  0  0
 17  5  1  0  0  0  0
 18 17  1  0  0  0  0
 19 18  1  0  0  0  0
 19 17  1  0  0  0  0
M  END
>  <minimizedAffinity>
-4.9435029

>  <minimizedRMSD>
0.572696328

$$$$
