
 OpenBabel03272509043D

 27 29  0  0  0  0  0  0  0  0999 V2000
   33.2710   27.3640   47.9470 C   0  0  0  0  0  0  0  0  0  0  0  0
   32.6310   28.0720   47.3590 H   0  0  0  0  0  0  0  0  0  0  0  0
   32.7090   26.9780   48.8130 H   0  0  0  0  0  0  0  0  0  0  0  0
   33.7140   26.2780   47.0140 C   0  0  0  0  0  0  0  0  0  0  0  0
   33.9560   24.9750   47.3590 C   0  0  0  0  0  0  0  0  0  0  0  0
   34.3600   24.0650   46.4100 C   0  0  0  0  0  0  0  0  0  0  0  0
   34.5360   24.4280   45.0830 C   0  0  0  0  0  0  0  0  0  0  0  0
   34.2960   25.7270   44.7300 C   0  0  0  0  0  0  0  0  0  0  0  0
   33.8920   26.6460   45.6700 C   0  0  0  0  0  0  0  0  0  0  0  0
   33.7930   24.7860   48.4120 H   0  0  0  0  0  0  0  0  0  0  0  0
   34.5220   23.0590   46.8020 H   0  0  0  0  0  0  0  0  0  0  0  0
   34.8540   23.6180   44.4500 H   0  0  0  0  0  0  0  0  0  0  0  0
   34.4430   25.9830   43.6820 H   0  0  0  0  0  0  0  0  0  0  0  0
   33.7290   27.6580   45.2750 H   0  0  0  0  0  0  0  0  0  0  0  0
   34.7520   28.3190   49.7020 C   0  0  0  0  0  3  0  0  0  0  0  0
   34.3940   28.1560   48.4590 C   0  0  0  0  0  3  0  0  0  0  0  0
   37.3420   30.2410   51.4510 C   0  0  0  0  0  0  0  0  0  0  0  0
   38.0920   30.7250   50.3430 C   0  0  0  0  0  0  0  0  0  0  0  0
   37.6930   30.3820   49.0360 C   0  0  0  0  0  0  0  0  0  0  0  0
   36.5910   29.5940   48.9310 N   0  0  0  0  0  0  0  0  0  0  0  0
   35.9110   29.1580   49.9870 C   0  0  0  0  0  0  0  0  0  0  0  0
   36.2840   29.4780   51.2310 N   0  0  0  0  0  0  0  0  0  0  0  0
   37.6990   30.5390   52.4270 H   0  0  0  0  0  0  0  0  0  0  0  0
   38.9410   31.3360   50.5120 H   0  0  0  0  0  0  0  0  0  0  0  0
   38.4470   30.8660   47.8600 C   0  0  0  0  0  3  0  0  0  0  0  0
   37.7680   31.8540   46.9220 C   0  0  0  0  0  2  0  0  0  0  0  0
   38.9300   32.2420   47.7720 C   0  0  0  0  0  2  0  0  0  0  0  0
  1 16  1  0  0  0  0
  1  3  1  0  0  0  0
  2  1  1  0  0  0  0
  4  5  1  0  0  0  0
  4  1  1  0  0  0  0
  5 10  1  0  0  0  0
  6 11  1  0  0  0  0
  6  5  2  0  0  0  0
  7  6  1  0  0  0  0
  8  7  2  0  0  0  0
  8  9  1  0  0  0  0
  9  4  2  0  0  0  0
 12  7  1  0  0  0  0
 13  8  1  0  0  0  0
 14  9  1  0  0  0  0
 15 21  1  0  0  0  0
 16 15  2  0  0  0  0
 17 23  1  0  0  0  0
 18 24  1  0  0  0  0
 18 17  2  0  0  0  0
 19 18  1  0  0  0  0
 20 19  2  0  0  0  0
 20 21  1  0  0  0  0
 21 22  2  0  0  0  0
 22 17  1  0  0  0  0
 25 19  1  0  0  0  0
 26 27  1  0  0  0  0
 26 25  1  0  0  0  0
 27 25  1  0  0  0  0
M  END
>  <minimizedAffinity>
-5.41219473

>  <minimizedRMSD>
0.484383404

$$$$
