
 OpenBabel03262523443D

 22 24  0  0  0  0  0  0  0  0999 V2000
   38.0770   33.3280   49.5970 Cl  0  0  0  0  0  0  0  0  0  0  0  0
   38.5000   32.4820   48.1380 C   0  0  0  0  0  0  0  0  0  0  0  0
   38.0570   31.1830   47.9180 C   0  0  0  0  0  0  0  0  0  0  0  0
   38.4290   30.5780   46.7480 C   0  0  0  0  0  0  0  0  0  0  0  0
   39.2080   31.1950   45.8050 C   0  0  0  0  0  0  0  0  0  0  0  0
   39.6360   32.4940   46.0550 C   0  0  0  0  0  0  0  0  0  0  0  0
   40.6280   33.2700   44.8430 Cl  0  0  0  0  0  0  0  0  0  0  0  0
   39.2890   33.1490   47.2170 C   0  0  0  0  0  0  0  0  0  0  0  0
   38.0690   29.5700   46.6060 H   0  0  0  0  0  0  0  0  0  0  0  0
   39.6390   34.1780   47.3970 H   0  0  0  0  0  0  0  0  0  0  0  0
   36.9980   29.3710   51.0700 C   0  0  0  0  0  0  0  0  0  0  0  0
   37.7880   29.9530   50.0700 C   0  0  0  0  0  0  0  0  0  0  0  0
   37.2300   30.5780   48.9580 C   0  0  0  0  0  0  0  0  0  0  0  0
   35.8690   30.5890   48.9020 N   0  0  0  0  0  0  0  0  0  0  0  0
   35.1270   30.0250   49.8730 C   0  0  0  0  0  0  0  0  0  0  0  0
   35.6690   29.4290   50.9340 N   0  0  0  0  0  0  0  0  0  0  0  0
   37.5860   28.9230   51.8720 H   0  0  0  0  0  0  0  0  0  0  0  0
   38.8750   29.9450   50.1120 H   0  0  0  0  0  0  0  0  0  0  0  0
   34.0380   30.0370   49.8220 H   0  0  0  0  0  0  0  0  0  0  0  0
   39.6050   30.5250   44.5390 C   0  0  0  0  0  0  0  0  0  0  0  0
   38.7680   30.5780   43.3300 C   0  0  0  0  0  0  0  0  0  0  0  0
   38.8730   29.2880   44.1120 C   0  0  0  0  0  0  0  0  0  0  0  0
  2  1  1  0  0  0  0
  3  2  1  0  0  0  0
  3 13  1  0  0  0  0
  4  3  2  0  0  0  0
  5  6  2  0  0  0  0
  5  4  1  0  0  0  0
  6  8  1  0  0  0  0
  7  6  1  0  0  0  0
  8 10  1  0  0  0  0
  8  2  2  0  0  0  0
  9  4  1  0  0  0  0
 11 17  1  0  0  0  0
 12 18  1  0  0  0  0
 12 11  2  0  0  0  0
 13 12  1  0  0  0  0
 14 13  2  0  0  0  0
 14 15  1  0  0  0  0
 15 16  2  0  0  0  0
 16 11  1  0  0  0  0
 19 15  1  0  0  0  0
 20  5  1  0  0  0  0
 21 22  1  0  0  0  0
 21 20  1  0  0  0  0
 22 20  1  0  0  0  0
M  END
>  <minimizedAffinity>
-5.87464762

>  <minimizedRMSD>
0.507466018

$$$$
