
 OpenBabel03272509473D

 19 20  0  0  0  0  0  0  0  0999 V2000
   35.1080   28.2710   49.5460 O   0  0  0  0  0  0  0  0  0  0  0  0
   37.4630   30.3250   51.3700 C   0  0  0  0  0  0  0  0  0  0  0  0
   38.1650   30.8830   50.3050 C   0  0  0  0  0  0  0  0  0  0  0  0
   37.8010   30.5320   49.0080 C   0  0  0  0  0  0  0  0  0  0  0  0
   36.7580   29.6450   48.8870 N   0  0  0  0  0  0  0  0  0  0  0  0
   36.1050   29.1270   49.9260 C   0  0  0  0  0  0  0  0  0  0  0  0
   36.4600   29.4700   51.1850 N   0  0  0  0  0  0  0  0  0  0  0  0
   37.6940   30.5550   52.4120 H   0  0  0  0  0  0  0  0  0  0  0  0
   38.9750   31.5760   50.5130 H   0  0  0  0  0  0  0  0  0  0  0  0
   38.3230   30.9460   48.1620 H   0  0  0  0  0  0  0  0  0  0  0  0
   33.7690   28.7560   49.5470 C   0  0  0  0  0  0  0  0  0  0  0  0
   33.3490   28.7510   50.5680 H   0  0  0  0  0  0  0  0  0  0  0  0
   33.7350   29.8120   49.2070 H   0  0  0  0  0  0  0  0  0  0  0  0
   32.9300   27.9250   48.6130 C   0  0  0  0  0  0  0  0  0  0  0  0
   32.2620   27.2700   49.1720 H   0  0  0  0  0  0  0  0  0  0  0  0
   32.4210   28.5790   47.8890 H   0  0  0  0  0  0  0  0  0  0  0  0
   33.9070   27.0310   47.8460 C   0  0  0  0  0  3  0  0  0  0  0  0
   33.4340   25.7220   47.3440 C   0  0  0  0  0  2  0  0  0  0  0  0
   33.6290   26.8330   46.3640 C   0  0  0  0  0  2  0  0  0  0  0  0
  1 11  1  0  0  0  0
  1  6  1  0  0  0  0
  2  8  1  0  0  0  0
  3  9  1  0  0  0  0
  3  2  2  0  0  0  0
  4  3  1  0  0  0  0
  5  4  2  0  0  0  0
  5  6  1  0  0  0  0
  6  7  2  0  0  0  0
  7  2  1  0  0  0  0
 10  4  1  0  0  0  0
 11 12  1  0  0  0  0
 13 11  1  0  0  0  0
 14 15  1  0  0  0  0
 14 11  1  0  0  0  0
 16 14  1  0  0  0  0
 17 14  1  0  0  0  0
 18 17  1  0  0  0  0
 19 18  1  0  0  0  0
 19 17  1  0  0  0  0
M  END
>  <minimizedAffinity>
-3.86922312

>  <minimizedRMSD>
1.17468798

$$$$
