
 OpenBabel03272502533D

 21 23  0  0  0  0  0  0  0  0999 V2000
   37.9070   25.4790   34.9330 C   0  0  0  0  0  0  0  0  0  0  0  0
   37.6970   26.8070   35.2800 C   0  0  0  0  0  0  0  0  0  0  0  0
   37.1110   27.6940   34.3940 C   0  0  0  0  0  0  0  0  0  0  0  0
   36.7550   27.1770   33.1700 C   0  0  0  0  0  0  0  0  0  0  0  0
   36.9540   25.8530   32.8020 C   0  0  0  0  0  0  0  0  0  0  0  0
   37.5390   25.0390   33.7290 N   0  0  0  0  0  0  0  0  0  0  0  0
   37.9950   27.1470   36.2440 H   0  0  0  0  0  0  0  0  0  0  0  0
   36.9530   28.7230   34.6710 H   0  0  0  0  0  0  0  0  0  0  0  0
   36.2910   27.8200   32.4310 H   0  0  0  0  0  0  0  0  0  0  0  0
   40.2320   23.1190   36.4870 C   0  0  0  0  0  0  0  0  0  0  0  0
   39.6790   22.8980   37.7460 C   0  0  0  0  0  0  0  0  0  0  0  0
   38.4840   23.5750   38.0600 C   0  0  0  0  0  0  0  0  0  0  0  0
   37.9630   24.3970   37.1020 N   0  0  0  0  0  0  0  0  0  0  0  0
   38.5260   24.5850   35.8980 C   0  0  0  0  0  0  0  0  0  0  0  0
   39.6560   23.9400   35.6120 N   0  0  0  0  0  0  0  0  0  0  0  0
   41.1460   22.5690   36.3130 H   0  0  0  0  0  0  0  0  0  0  0  0
   40.0540   22.2580   38.5340 H   0  0  0  0  0  0  0  0  0  0  0  0
   37.9230   23.5190   38.9860 H   0  0  0  0  0  0  0  0  0  0  0  0
   36.5440   25.3570   31.4550 C   0  0  0  0  0  3  0  0  0  0  0  0
   35.5640   24.2090   31.3880 C   0  0  0  0  0  2  0  0  0  0  0  0
   35.1900   25.5800   30.9470 C   0  0  0  0  0  2  0  0  0  0  0  0
  1  2  1  0  0  0  0
  1 14  1  0  0  0  0
  2  7  1  0  0  0  0
  3  8  1  0  0  0  0
  3  2  2  0  0  0  0
  4  3  1  0  0  0  0
  5  4  2  0  0  0  0
  5  6  1  0  0  0  0
  6  1  2  0  0  0  0
  9  4  1  0  0  0  0
 10 11  1  0  0  0  0
 11 12  2  0  0  0  0
 11 17  1  0  0  0  0
 12 18  1  0  0  0  0
 13 12  1  0  0  0  0
 14 13  2  0  0  0  0
 15 14  1  0  0  0  0
 15 10  2  0  0  0  0
 16 10  1  0  0  0  0
 19  5  1  0  0  0  0
 20 19  1  0  0  0  0
 21 20  1  0  0  0  0
 21 19  1  0  0  0  0
M  END
>  <minimizedAffinity>
-4.7186861

$$$$

 OpenBabel03272502533D

 21 23  0  0  0  0  0  0  0  0999 V2000
   38.4440   24.6320   36.1520 C   0  0  0  0  0  0  0  0  0  0  0  0
   37.9320   24.6230   37.4430 C   0  0  0  0  0  0  0  0  0  0  0  0
   38.4240   23.7550   38.4020 C   0  0  0  0  0  0  0  0  0  0  0  0
   39.4370   22.9180   37.9940 C   0  0  0  0  0  0  0  0  0  0  0  0
   39.9640   22.9100   36.7100 C   0  0  0  0  0  0  0  0  0  0  0  0
   39.4260   23.7940   35.8200 N   0  0  0  0  0  0  0  0  0  0  0  0
   37.1470   25.2970   37.6970 H   0  0  0  0  0  0  0  0  0  0  0  0
   38.0210   23.7530   39.4010 H   0  0  0  0  0  0  0  0  0  0  0  0
   39.8660   22.2130   38.6980 H   0  0  0  0  0  0  0  0  0  0  0  0
   37.0470   27.6620   34.6490 C   0  0  0  0  0  0  0  0  0  0  0  0
   36.8560   27.3050   33.3160 C   0  0  0  0  0  0  0  0  0  0  0  0
   37.2150   25.9970   32.9340 C   0  0  0  0  0  0  0  0  0  0  0  0
   37.7240   25.1820   33.9040 N   0  0  0  0  0  0  0  0  0  0  0  0
   37.8940   25.5630   35.1800 C   0  0  0  0  0  0  0  0  0  0  0  0
   37.5520   26.8010   35.5300 N   0  0  0  0  0  0  0  0  0  0  0  0
   36.7510   28.6770   34.8720 H   0  0  0  0  0  0  0  0  0  0  0  0
   36.4570   27.9150   32.5160 H   0  0  0  0  0  0  0  0  0  0  0  0
   37.1320   25.5580   31.9460 H   0  0  0  0  0  0  0  0  0  0  0  0
   41.0640   21.9730   36.3340 C   0  0  0  0  0  3  0  0  0  0  0  0
   42.4880   22.4090   36.5900 C   0  0  0  0  0  2  0  0  0  0  0  0
   41.8630   21.2960   37.3560 C   0  0  0  0  0  2  0  0  0  0  0  0
  1  2  1  0  0  0  0
  2  7  1  0  0  0  0
  2  3  2  0  0  0  0
  3  8  1  0  0  0  0
  4  3  1  0  0  0  0
  4  9  1  0  0  0  0
  5  4  2  0  0  0  0
  6  1  2  0  0  0  0
  6  5  1  0  0  0  0
 10 16  1  0  0  0  0
 10 15  1  0  0  0  0
 11 10  2  0  0  0  0
 12 11  1  0  0  0  0
 12 13  2  0  0  0  0
 13 14  1  0  0  0  0
 14 15  2  0  0  0  0
 14  1  1  0  0  0  0
 17 11  1  0  0  0  0
 18 12  1  0  0  0  0
 19 20  1  0  0  0  0
 19  5  1  0  0  0  0
 19 21  1  0  0  0  0
 20 21  1  0  0  0  0
M  END
>  <minimizedAffinity>
-4.68147612

$$$$

 OpenBabel03272502533D

 21 23  0  0  0  0  0  0  0  0999 V2000
   38.1150   25.3500   35.1440 C   0  0  0  0  0  0  0  0  0  0  0  0
   37.8300   26.6380   35.5800 C   0  0  0  0  0  0  0  0  0  0  0  0
   37.1990   27.5500   34.7520 C   0  0  0  0  0  0  0  0  0  0  0  0
   36.8790   27.1000   33.4920 C   0  0  0  0  0  0  0  0  0  0  0  0
   37.1530   25.8180   33.0350 C   0  0  0  0  0  0  0  0  0  0  0  0
   37.7790   24.9750   33.9090 N   0  0  0  0  0  0  0  0  0  0  0  0
   38.1030   26.9250   36.5680 H   0  0  0  0  0  0  0  0  0  0  0  0
   36.9820   28.5470   35.0970 H   0  0  0  0  0  0  0  0  0  0  0  0
   36.3840   27.7660   32.7950 H   0  0  0  0  0  0  0  0  0  0  0  0
   38.8830   23.3330   38.0990 C   0  0  0  0  0  0  0  0  0  0  0  0
   40.0580   22.6740   37.7460 C   0  0  0  0  0  0  0  0  0  0  0  0
   40.5920   22.9330   36.4680 C   0  0  0  0  0  0  0  0  0  0  0  0
   39.9110   23.8110   35.6750 N   0  0  0  0  0  0  0  0  0  0  0  0
   38.7790   24.4280   36.0500 C   0  0  0  0  0  0  0  0  0  0  0  0
   38.2830   24.1750   37.2600 N   0  0  0  0  0  0  0  0  0  0  0  0
   38.5300   23.0880   39.0900 H   0  0  0  0  0  0  0  0  0  0  0  0
   40.6310   21.9730   38.3400 H   0  0  0  0  0  0  0  0  0  0  0  0
   41.4930   22.5100   36.0360 H   0  0  0  0  0  0  0  0  0  0  0  0
   36.7790   25.3950   31.6530 C   0  0  0  0  0  3  0  0  0  0  0  0
   35.7050   24.3430   31.4990 C   0  0  0  0  0  2  0  0  0  0  0  0
   35.4820   25.7540   31.0780 C   0  0  0  0  0  2  0  0  0  0  0  0
  1  2  1  0  0  0  0
  1 14  1  0  0  0  0
  2  7  1  0  0  0  0
  3  8  1  0  0  0  0
  3  2  2  0  0  0  0
  4  3  1  0  0  0  0
  5  4  2  0  0  0  0
  5  6  1  0  0  0  0
  6  1  2  0  0  0  0
  9  4  1  0  0  0  0
 10 16  1  0  0  0  0
 11 10  1  0  0  0  0
 11 17  1  0  0  0  0
 12 11  2  0  0  0  0
 13 14  2  0  0  0  0
 13 12  1  0  0  0  0
 14 15  1  0  0  0  0
 15 10  2  0  0  0  0
 18 12  1  0  0  0  0
 19  5  1  0  0  0  0
 20 19  1  0  0  0  0
 21 20  1  0  0  0  0
 21 19  1  0  0  0  0
M  END
>  <minimizedAffinity>
-4.63318539

$$$$

 OpenBabel03272502533D

 21 23  0  0  0  0  0  0  0  0999 V2000
   37.2310   21.9250   34.7030 C   0  0  0  0  0  0  0  0  0  0  0  0
   36.3240   20.8850   34.8600 C   0  0  0  0  0  0  0  0  0  0  0  0
   35.5070   20.4840   33.8180 C   0  0  0  0  0  0  0  0  0  0  0  0
   35.6550   21.1740   32.6370 C   0  0  0  0  0  0  0  0  0  0  0  0
   36.5540   22.2150   32.4560 C   0  0  0  0  0  0  0  0  0  0  0  0
   37.3250   22.5540   33.5310 N   0  0  0  0  0  0  0  0  0  0  0  0
   36.2570   20.3910   35.8010 H   0  0  0  0  0  0  0  0  0  0  0  0
   34.8050   19.6770   33.9480 H   0  0  0  0  0  0  0  0  0  0  0  0
   35.0440   20.9090   31.7810 H   0  0  0  0  0  0  0  0  0  0  0  0
   40.1430   22.3690   36.8740 C   0  0  0  0  0  0  0  0  0  0  0  0
   39.6290   23.0530   37.9720 C   0  0  0  0  0  0  0  0  0  0  0  0
   38.2540   23.3640   37.9610 C   0  0  0  0  0  0  0  0  0  0  0  0
   37.5350   22.9690   36.8690 N   0  0  0  0  0  0  0  0  0  0  0  0
   38.0670   22.3100   35.8270 C   0  0  0  0  0  0  0  0  0  0  0  0
   39.3670   22.0220   35.8490 N   0  0  0  0  0  0  0  0  0  0  0  0
   41.2010   22.1630   36.9480 H   0  0  0  0  0  0  0  0  0  0  0  0
   40.1580   23.3850   38.8560 H   0  0  0  0  0  0  0  0  0  0  0  0
   37.6950   23.8880   38.7280 H   0  0  0  0  0  0  0  0  0  0  0  0
   36.6630   22.9220   31.1460 C   0  0  0  0  0  3  0  0  0  0  0  0
   35.9440   24.2420   30.9880 C   0  0  0  0  0  2  0  0  0  0  0  0
   37.4300   24.1620   31.0180 C   0  0  0  0  0  2  0  0  0  0  0  0
  1  2  1  0  0  0  0
  1 14  1  0  0  0  0
  2  7  1  0  0  0  0
  3  8  1  0  0  0  0
  3  2  2  0  0  0  0
  4  3  1  0  0  0  0
  5  4  2  0  0  0  0
  5  6  1  0  0  0  0
  6  1  2  0  0  0  0
  9  4  1  0  0  0  0
 10 16  1  0  0  0  0
 10 11  1  0  0  0  0
 11 17  1  0  0  0  0
 12 11  2  0  0  0  0
 12 18  1  0  0  0  0
 13 12  1  0  0  0  0
 14 15  1  0  0  0  0
 14 13  2  0  0  0  0
 15 10  2  0  0  0  0
 19  5  1  0  0  0  0
 20 21  1  0  0  0  0
 20 19  1  0  0  0  0
 21 19  1  0  0  0  0
M  END
>  <minimizedAffinity>
-4.54164791

$$$$

 OpenBabel03272502533D

 21 23  0  0  0  0  0  0  0  0999 V2000
   38.1080   22.3530   35.8890 C   0  0  0  0  0  0  0  0  0  0  0  0
   37.4640   22.9860   36.9450 C   0  0  0  0  0  0  0  0  0  0  0  0
   38.1650   23.4010   38.0640 C   0  0  0  0  0  0  0  0  0  0  0  0
   39.5170   23.1490   38.0560 C   0  0  0  0  0  0  0  0  0  0  0  0
   40.1810   22.5190   37.0130 C   0  0  0  0  0  0  0  0  0  0  0  0
   39.4220   22.1380   35.9430 N   0  0  0  0  0  0  0  0  0  0  0  0
   36.4140   23.1520   36.8910 H   0  0  0  0  0  0  0  0  0  0  0  0
   37.6580   23.8900   38.8800 H   0  0  0  0  0  0  0  0  0  0  0  0
   40.1230   23.4490   38.9040 H   0  0  0  0  0  0  0  0  0  0  0  0
   36.8820   22.0390   32.4550 C   0  0  0  0  0  0  0  0  0  0  0  0
   35.8360   21.1250   32.5660 C   0  0  0  0  0  0  0  0  0  0  0  0
   35.5520   20.6120   33.8470 C   0  0  0  0  0  0  0  0  0  0  0  0
   36.3270   21.0520   34.8810 N   0  0  0  0  0  0  0  0  0  0  0  0
   37.3290   21.9350   34.7350 C   0  0  0  0  0  0  0  0  0  0  0  0
   37.5890   22.4130   33.5190 N   0  0  0  0  0  0  0  0  0  0  0  0
   37.0450   22.3900   31.4470 H   0  0  0  0  0  0  0  0  0  0  0  0
   35.1970   20.7480   31.7780 H   0  0  0  0  0  0  0  0  0  0  0  0
   34.7790   19.8990   34.1100 H   0  0  0  0  0  0  0  0  0  0  0  0
   41.6530   22.2760   37.0690 C   0  0  0  0  0  3  0  0  0  0  0  0
   42.1310   20.8930   37.4470 C   0  0  0  0  0  2  0  0  0  0  0  0
   42.3190   21.4360   36.0740 C   0  0  0  0  0  2  0  0  0  0  0  0
  1  6  2  0  0  0  0
  1  2  1  0  0  0  0
  2  3  2  0  0  0  0
  3  8  1  0  0  0  0
  4  3  1  0  0  0  0
  4  9  1  0  0  0  0
  5 19  1  0  0  0  0
  5  4  2  0  0  0  0
  6  5  1  0  0  0  0
  7  2  1  0  0  0  0
 10 11  2  0  0  0  0
 10 15  1  0  0  0  0
 11 12  1  0  0  0  0
 12 18  1  0  0  0  0
 12 13  2  0  0  0  0
 14 13  1  0  0  0  0
 14  1  1  0  0  0  0
 15 14  2  0  0  0  0
 16 10  1  0  0  0  0
 17 11  1  0  0  0  0
 19 20  1  0  0  0  0
 21 19  1  0  0  0  0
 21 20  1  0  0  0  0
M  END
>  <minimizedAffinity>
-4.52686787

$$$$

 OpenBabel03272502533D

 21 23  0  0  0  0  0  0  0  0999 V2000
   38.2120   25.9660   34.4550 C   0  0  0  0  0  0  0  0  0  0  0  0
   39.3780   25.5520   33.8260 C   0  0  0  0  0  0  0  0  0  0  0  0
   40.1270   24.5010   34.3250 C   0  0  0  0  0  0  0  0  0  0  0  0
   39.6430   23.9060   35.4660 C   0  0  0  0  0  0  0  0  0  0  0  0
   38.4800   24.3010   36.1120 C   0  0  0  0  0  0  0  0  0  0  0  0
   37.7960   25.3460   35.5600 N   0  0  0  0  0  0  0  0  0  0  0  0
   39.7000   26.0550   32.9440 H   0  0  0  0  0  0  0  0  0  0  0  0
   41.0320   24.1870   33.8310 H   0  0  0  0  0  0  0  0  0  0  0  0
   40.1840   23.0760   35.9090 H   0  0  0  0  0  0  0  0  0  0  0  0
   35.9170   28.7980   34.1340 C   0  0  0  0  0  0  0  0  0  0  0  0
   36.0460   29.1710   32.7980 C   0  0  0  0  0  0  0  0  0  0  0  0
   36.9390   28.4310   31.9980 C   0  0  0  0  0  0  0  0  0  0  0  0
   37.6100   27.4050   32.5990 N   0  0  0  0  0  0  0  0  0  0  0  0
   37.4590   27.0740   33.8920 C   0  0  0  0  0  0  0  0  0  0  0  0
   36.6120   27.7810   34.6390 N   0  0  0  0  0  0  0  0  0  0  0  0
   35.2170   29.4070   34.6880 H   0  0  0  0  0  0  0  0  0  0  0  0
   35.5370   29.9740   32.2800 H   0  0  0  0  0  0  0  0  0  0  0  0
   37.1590   28.5840   30.9470 H   0  0  0  0  0  0  0  0  0  0  0  0
   38.0110   23.6100   37.3500 C   0  0  0  0  0  3  0  0  0  0  0  0
   39.0140   23.3750   38.4560 C   0  0  0  0  0  2  0  0  0  0  0  0
   37.8850   24.3320   38.6170 C   0  0  0  0  0  2  0  0  0  0  0  0
  1  6  1  0  0  0  0
  2  3  1  0  0  0  0
  2  1  2  0  0  0  0
  3  4  2  0  0  0  0
  4  9  1  0  0  0  0
  4  5  1  0  0  0  0
  5 19  1  0  0  0  0
  6  5  2  0  0  0  0
  7  2  1  0  0  0  0
  8  3  1  0  0  0  0
 10 15  1  0  0  0  0
 10 16  1  0  0  0  0
 11 10  2  0  0  0  0
 12 13  2  0  0  0  0
 12 11  1  0  0  0  0
 13 14  1  0  0  0  0
 14  1  1  0  0  0  0
 14 15  2  0  0  0  0
 17 11  1  0  0  0  0
 18 12  1  0  0  0  0
 19 20  1  0  0  0  0
 19 21  1  0  0  0  0
 20 21  1  0  0  0  0
M  END
>  <minimizedAffinity>
-4.31307173

$$$$

 OpenBabel03272502533D

 21 23  0  0  0  0  0  0  0  0999 V2000
   37.9770   22.8050   34.5860 C   0  0  0  0  0  0  0  0  0  0  0  0
   38.1980   23.8370   33.6830 C   0  0  0  0  0  0  0  0  0  0  0  0
   37.8600   23.7040   32.3480 C   0  0  0  0  0  0  0  0  0  0  0  0
   37.2980   22.5030   31.9850 C   0  0  0  0  0  0  0  0  0  0  0  0
   37.0670   21.4580   32.8690 C   0  0  0  0  0  0  0  0  0  0  0  0
   37.4290   21.6630   34.1700 N   0  0  0  0  0  0  0  0  0  0  0  0
   38.6370   24.7440   34.0270 H   0  0  0  0  0  0  0  0  0  0  0  0
   38.0360   24.5100   31.6540 H   0  0  0  0  0  0  0  0  0  0  0  0
   37.0110   22.3350   30.9530 H   0  0  0  0  0  0  0  0  0  0  0  0
   37.8420   23.7340   38.1230 C   0  0  0  0  0  0  0  0  0  0  0  0
   39.0830   23.3320   38.6120 C   0  0  0  0  0  0  0  0  0  0  0  0
   39.9780   22.7320   37.7040 C   0  0  0  0  0  0  0  0  0  0  0  0
   39.5550   22.5920   36.4140 N   0  0  0  0  0  0  0  0  0  0  0  0
   38.3490   22.9920   35.9780 C   0  0  0  0  0  0  0  0  0  0  0  0
   37.5110   23.5570   36.8460 N   0  0  0  0  0  0  0  0  0  0  0  0
   37.2070   24.1850   38.8710 H   0  0  0  0  0  0  0  0  0  0  0  0
   39.4600   23.4230   39.6230 H   0  0  0  0  0  0  0  0  0  0  0  0
   40.9760   22.3650   37.9150 H   0  0  0  0  0  0  0  0  0  0  0  0
   36.4540   20.1770   32.4080 C   0  0  0  0  0  3  0  0  0  0  0  0
   34.9520   20.1240   32.2530 C   0  0  0  0  0  2  0  0  0  0  0  0
   35.8590   20.0610   31.0760 C   0  0  0  0  0  2  0  0  0  0  0  0
  1 14  1  0  0  0  0
  2  7  1  0  0  0  0
  2  1  2  0  0  0  0
  3  2  1  0  0  0  0
  4  3  2  0  0  0  0
  4  5  1  0  0  0  0
  5  6  2  0  0  0  0
  6  1  1  0  0  0  0
  8  3  1  0  0  0  0
  9  4  1  0  0  0  0
 10 11  1  0  0  0  0
 10 16  1  0  0  0  0
 11 17  1  0  0  0  0
 12 18  1  0  0  0  0
 12 11  2  0  0  0  0
 13 12  1  0  0  0  0
 14 13  2  0  0  0  0
 14 15  1  0  0  0  0
 15 10  2  0  0  0  0
 19  5  1  0  0  0  0
 20 19  1  0  0  0  0
 21 20  1  0  0  0  0
 21 19  1  0  0  0  0
M  END
>  <minimizedAffinity>
-4.31050253

$$$$

 OpenBabel03272502533D

 21 23  0  0  0  0  0  0  0  0999 V2000
   35.6410   29.6030   34.3310 C   0  0  0  0  0  0  0  0  0  0  0  0
   35.4710   29.6730   32.9550 C   0  0  0  0  0  0  0  0  0  0  0  0
   36.0960   28.7730   32.1100 C   0  0  0  0  0  0  0  0  0  0  0  0
   36.8810   27.8220   32.7180 C   0  0  0  0  0  0  0  0  0  0  0  0
   37.0650   27.7320   34.0910 C   0  0  0  0  0  0  0  0  0  0  0  0
   36.4170   28.6560   34.8590 N   0  0  0  0  0  0  0  0  0  0  0  0
   34.8490   30.4340   32.5450 H   0  0  0  0  0  0  0  0  0  0  0  0
   35.9600   28.8350   31.0430 H   0  0  0  0  0  0  0  0  0  0  0  0
   37.3990   27.0870   32.1120 H   0  0  0  0  0  0  0  0  0  0  0  0
   35.0380   32.2710   36.7630 C   0  0  0  0  0  0  0  0  0  0  0  0
   33.6510   32.3970   36.7700 C   0  0  0  0  0  0  0  0  0  0  0  0
   32.9150   31.5460   35.9220 C   0  0  0  0  0  0  0  0  0  0  0  0
   33.6230   30.6630   35.1580 N   0  0  0  0  0  0  0  0  0  0  0  0
   34.9630   30.5710   35.1770 C   0  0  0  0  0  0  0  0  0  0  0  0
   35.6480   31.3810   35.9830 N   0  0  0  0  0  0  0  0  0  0  0  0
   35.5390   32.9520   37.4350 H   0  0  0  0  0  0  0  0  0  0  0  0
   33.0490   33.0780   37.3570 H   0  0  0  0  0  0  0  0  0  0  0  0
   31.8380   31.5100   35.8050 H   0  0  0  0  0  0  0  0  0  0  0  0
   37.9340   26.6730   34.6860 C   0  0  0  0  0  3  0  0  0  0  0  0
   39.3690   27.0260   35.0020 C   0  0  0  0  0  2  0  0  0  0  0  0
   38.3770   26.7540   36.0780 C   0  0  0  0  0  2  0  0  0  0  0  0
  1  6  1  0  0  0  0
  1 14  1  0  0  0  0
  2  1  2  0  0  0  0
  3  4  2  0  0  0  0
  3  2  1  0  0  0  0
  4  5  1  0  0  0  0
  5 19  1  0  0  0  0
  5  6  2  0  0  0  0
  7  2  1  0  0  0  0
  8  3  1  0  0  0  0
  9  4  1  0  0  0  0
 10 11  1  0  0  0  0
 10 16  1  0  0  0  0
 11 17  1  0  0  0  0
 12 11  2  0  0  0  0
 13 14  2  0  0  0  0
 13 12  1  0  0  0  0
 14 15  1  0  0  0  0
 15 10  2  0  0  0  0
 18 12  1  0  0  0  0
 19 20  1  0  0  0  0
 19 21  1  0  0  0  0
 20 21  1  0  0  0  0
M  END
>  <minimizedAffinity>
-4.30815077

$$$$

 OpenBabel03272502533D

 21 23  0  0  0  0  0  0  0  0999 V2000
   37.7210   22.6050   34.0620 C   0  0  0  0  0  0  0  0  0  0  0  0
   37.7810   23.6790   33.1830 C   0  0  0  0  0  0  0  0  0  0  0  0
   37.0030   23.7120   32.0390 C   0  0  0  0  0  0  0  0  0  0  0  0
   36.1820   22.6270   31.8370 C   0  0  0  0  0  0  0  0  0  0  0  0
   36.1060   21.5430   32.7010 C   0  0  0  0  0  0  0  0  0  0  0  0
   36.9040   21.5830   33.8080 N   0  0  0  0  0  0  0  0  0  0  0  0
   38.4370   24.4900   33.3960 H   0  0  0  0  0  0  0  0  0  0  0  0
   37.0560   24.5480   31.3620 H   0  0  0  0  0  0  0  0  0  0  0  0
   35.5480   22.5900   30.9590 H   0  0  0  0  0  0  0  0  0  0  0  0
   40.5540   22.0940   36.3210 C   0  0  0  0  0  0  0  0  0  0  0  0
   40.1190   22.6540   37.5200 C   0  0  0  0  0  0  0  0  0  0  0  0
   38.8270   23.2160   37.5460 C   0  0  0  0  0  0  0  0  0  0  0  0
   38.1030   23.1660   36.3890 N   0  0  0  0  0  0  0  0  0  0  0  0
   38.5570   22.6170   35.2510 C   0  0  0  0  0  0  0  0  0  0  0  0
   39.7800   22.0900   35.2380 N   0  0  0  0  0  0  0  0  0  0  0  0
   41.5510   21.6820   36.3720 H   0  0  0  0  0  0  0  0  0  0  0  0
   40.6550   22.7160   38.4580 H   0  0  0  0  0  0  0  0  0  0  0  0
   38.3350   23.6890   38.3880 H   0  0  0  0  0  0  0  0  0  0  0  0
   35.1920   20.3950   32.4210 C   0  0  0  0  0  3  0  0  0  0  0  0
   35.6910   19.2950   31.5130 C   0  0  0  0  0  2  0  0  0  0  0  0
   35.4630   19.0640   32.9650 C   0  0  0  0  0  2  0  0  0  0  0  0
  1 14  1  0  0  0  0
  2  7  1  0  0  0  0
  2  1  2  0  0  0  0
  3  2  1  0  0  0  0
  4  3  2  0  0  0  0
  4  5  1  0  0  0  0
  5  6  2  0  0  0  0
  6  1  1  0  0  0  0
  8  3  1  0  0  0  0
  9  4  1  0  0  0  0
 10 16  1  0  0  0  0
 10 11  1  0  0  0  0
 11 12  2  0  0  0  0
 11 17  1  0  0  0  0
 12 18  1  0  0  0  0
 13 12  1  0  0  0  0
 14 13  2  0  0  0  0
 15 14  1  0  0  0  0
 15 10  2  0  0  0  0
 19  5  1  0  0  0  0
 19 21  1  0  0  0  0
 20 19  1  0  0  0  0
 20 21  1  0  0  0  0
M  END
>  <minimizedAffinity>
-4.2980423

$$$$
