
 OpenBabel03272504543D

 19 21  0  0  0  0  0  0  0  0999 V2000
   38.5960   24.8670   36.3280 C   0  0  0  0  0  0  0  0  0  0  0  0
   37.8980   24.9150   37.5490 C   0  0  0  0  0  0  0  0  0  0  0  0
   38.2010   23.9180   38.4590 C   0  0  0  0  0  0  0  0  0  0  0  0
   39.1260   22.9630   38.1560 N   0  0  0  0  0  0  0  0  0  0  0  0
   39.7770   22.9470   36.9720 C   0  0  0  0  0  0  0  0  0  0  0  0
   39.5070   23.9130   36.0470 N   0  0  0  0  0  0  0  0  0  0  0  0
   37.1750   25.6550   37.7990 H   0  0  0  0  0  0  0  0  0  0  0  0
   37.7230   23.8470   39.4500 H   0  0  0  0  0  0  0  0  0  0  0  0
   38.3160   25.9500   35.3200 C   0  0  0  0  0  0  0  0  0  0  0  0
   38.1280   27.3340   35.7360 C   0  0  0  0  0  0  0  0  0  0  0  0
   39.4660   26.9360   35.1810 C   0  0  0  0  0  0  0  0  0  0  0  0
   37.8900   25.5900   34.3410 H   0  0  0  0  0  0  0  0  0  0  0  0
   37.5200   28.0440   35.1650 H   0  0  0  0  0  0  0  0  0  0  0  0
   38.1780   27.5410   36.8290 H   0  0  0  0  0  0  0  0  0  0  0  0
   40.3470   26.8270   35.8100 H   0  0  0  0  0  0  0  0  0  0  0  0
   39.6620   27.2760   34.1480 H   0  0  0  0  0  0  0  0  0  0  0  0
   40.7910   21.9230   36.6060 C   0  0  0  0  0  3  0  0  0  0  0  0
   42.2860   22.3520   36.7240 C   0  0  0  0  0  2  0  0  0  0  0  0
   41.6580   22.1380   35.4080 C   0  0  0  0  0  2  0  0  0  0  0  0
  1  2  1  0  0  0  0
  2  7  1  0  0  0  0
  2  3  2  0  0  0  0
  3  8  1  0  0  0  0
  4  3  1  0  0  0  0
  5  4  2  0  0  0  0
  6  1  2  0  0  0  0
  6  5  1  0  0  0  0
  9 10  1  0  0  0  0
  9  1  1  0  0  0  0
 10 14  1  0  0  0  0
 11  9  1  0  0  0  0
 11 10  1  0  0  0  0
 11 15  1  0  0  0  0
 12  9  1  0  0  0  0
 13 10  1  0  0  0  0
 16 11  1  0  0  0  0
 17 18  1  0  0  0  0
 17  5  1  0  0  0  0
 19 17  1  0  0  0  0
 19 18  1  0  0  0  0
M  END
>  <minimizedAffinity>
-3.99471807

$$$$

 OpenBabel03272504543D

 19 21  0  0  0  0  0  0  0  0999 V2000
   39.6560   23.0350   37.0180 C   0  0  0  0  0  0  0  0  0  0  0  0
   39.0270   23.0630   38.2750 C   0  0  0  0  0  0  0  0  0  0  0  0
   38.1340   24.1000   38.4840 C   0  0  0  0  0  0  0  0  0  0  0  0
   37.9040   25.0200   37.5030 N   0  0  0  0  0  0  0  0  0  0  0  0
   38.5260   24.9620   36.3060 C   0  0  0  0  0  0  0  0  0  0  0  0
   39.4140   23.9550   36.0620 N   0  0  0  0  0  0  0  0  0  0  0  0
   39.1960   22.3520   39.0490 H   0  0  0  0  0  0  0  0  0  0  0  0
   37.5780   24.2320   39.4260 H   0  0  0  0  0  0  0  0  0  0  0  0
   40.6130   21.9070   36.7410 C   0  0  0  0  0  0  0  0  0  0  0  0
   41.4390   21.8980   35.5400 C   0  0  0  0  0  0  0  0  0  0  0  0
   42.0700   22.3360   36.8310 C   0  0  0  0  0  0  0  0  0  0  0  0
   40.3780   20.9420   37.2730 H   0  0  0  0  0  0  0  0  0  0  0  0
   41.7950   20.9730   35.0760 H   0  0  0  0  0  0  0  0  0  0  0  0
   41.3070   22.7500   34.8340 H   0  0  0  0  0  0  0  0  0  0  0  0
   42.3120   23.3760   37.0360 H   0  0  0  0  0  0  0  0  0  0  0  0
   42.7440   21.5940   37.2960 H   0  0  0  0  0  0  0  0  0  0  0  0
   38.3000   25.9460   35.2140 C   0  0  0  0  0  3  0  0  0  0  0  0
   39.3370   27.1050   35.0970 C   0  0  0  0  0  2  0  0  0  0  0  0
   37.9590   27.3610   35.5530 C   0  0  0  0  0  2  0  0  0  0  0  0
  1  2  1  0  0  0  0
  2  3  2  0  0  0  0
  2  7  1  0  0  0  0
  3  8  1  0  0  0  0
  4  3  1  0  0  0  0
  5  4  2  0  0  0  0
  6  5  1  0  0  0  0
  6  1  2  0  0  0  0
  9 11  1  0  0  0  0
  9  1  1  0  0  0  0
  9 12  1  0  0  0  0
 10  9  1  0  0  0  0
 10 11  1  0  0  0  0
 11 15  1  0  0  0  0
 11 16  1  0  0  0  0
 13 10  1  0  0  0  0
 14 10  1  0  0  0  0
 17 19  1  0  0  0  0
 17  5  1  0  0  0  0
 18 17  1  0  0  0  0
 18 19  1  0  0  0  0
M  END
>  <minimizedAffinity>
-3.97627425

$$$$

 OpenBabel03272504543D

 19 21  0  0  0  0  0  0  0  0999 V2000
   37.0020   27.4360   34.3420 C   0  0  0  0  0  0  0  0  0  0  0  0
   36.3330   28.6730   34.3620 C   0  0  0  0  0  0  0  0  0  0  0  0
   35.5940   28.9810   33.2330 C   0  0  0  0  0  0  0  0  0  0  0  0
   35.5420   28.1120   32.1840 N   0  0  0  0  0  0  0  0  0  0  0  0
   36.1980   26.9310   32.1980 C   0  0  0  0  0  0  0  0  0  0  0  0
   36.9380   26.5900   33.2930 N   0  0  0  0  0  0  0  0  0  0  0  0
   36.3650   29.3600   35.1740 H   0  0  0  0  0  0  0  0  0  0  0  0
   35.0260   29.9200   33.1270 H   0  0  0  0  0  0  0  0  0  0  0  0
   37.7940   27.0500   35.5620 C   0  0  0  0  0  0  0  0  0  0  0  0
   38.5420   25.8000   35.6100 C   0  0  0  0  0  0  0  0  0  0  0  0
   39.2960   27.0670   35.3190 C   0  0  0  0  0  0  0  0  0  0  0  0
   37.4720   27.5540   36.5170 H   0  0  0  0  0  0  0  0  0  0  0  0
   38.7530   25.2750   36.5470 H   0  0  0  0  0  0  0  0  0  0  0  0
   38.4770   25.1420   34.7130 H   0  0  0  0  0  0  0  0  0  0  0  0
   39.6770   27.3000   34.3270 H   0  0  0  0  0  0  0  0  0  0  0  0
   39.8980   27.4550   36.1600 H   0  0  0  0  0  0  0  0  0  0  0  0
   36.1640   25.9580   31.0740 C   0  0  0  0  0  3  0  0  0  0  0  0
   34.8160   25.2080   30.8450 C   0  0  0  0  0  2  0  0  0  0  0  0
   36.0020   24.5010   31.3630 C   0  0  0  0  0  2  0  0  0  0  0  0
  1  2  1  0  0  0  0
  1  9  1  0  0  0  0
  2  7  1  0  0  0  0
  3  2  2  0  0  0  0
  4  5  2  0  0  0  0
  4  3  1  0  0  0  0
  5  6  1  0  0  0  0
  6  1  2  0  0  0  0
  8  3  1  0  0  0  0
  9 10  1  0  0  0  0
  9 12  1  0  0  0  0
 10 13  1  0  0  0  0
 11  9  1  0  0  0  0
 11 10  1  0  0  0  0
 11 16  1  0  0  0  0
 14 10  1  0  0  0  0
 15 11  1  0  0  0  0
 17 19  1  0  0  0  0
 17  5  1  0  0  0  0
 18 17  1  0  0  0  0
 18 19  1  0  0  0  0
M  END
>  <minimizedAffinity>
-3.92434216

$$$$

 OpenBabel03272504543D

 19 21  0  0  0  0  0  0  0  0999 V2000
   37.1050   27.6050   33.9180 C   0  0  0  0  0  0  0  0  0  0  0  0
   36.6620   27.2270   32.6380 C   0  0  0  0  0  0  0  0  0  0  0  0
   35.6440   27.9920   32.0980 C   0  0  0  0  0  0  0  0  0  0  0  0
   35.1260   29.0440   32.7950 N   0  0  0  0  0  0  0  0  0  0  0  0
   35.5750   29.3790   34.0240 C   0  0  0  0  0  0  0  0  0  0  0  0
   36.5790   28.6490   34.5920 N   0  0  0  0  0  0  0  0  0  0  0  0
   37.0580   26.4090   32.0830 H   0  0  0  0  0  0  0  0  0  0  0  0
   35.2110   27.7970   31.1030 H   0  0  0  0  0  0  0  0  0  0  0  0
   38.2300   26.8150   34.5300 C   0  0  0  0  0  0  0  0  0  0  0  0
   38.6590   27.0540   35.9030 C   0  0  0  0  0  0  0  0  0  0  0  0
   37.7610   25.8800   35.6340 C   0  0  0  0  0  0  0  0  0  0  0  0
   38.9380   26.3440   33.7910 H   0  0  0  0  0  0  0  0  0  0  0  0
   39.6800   26.8580   36.2450 H   0  0  0  0  0  0  0  0  0  0  0  0
   38.1290   27.8600   36.4610 H   0  0  0  0  0  0  0  0  0  0  0  0
   36.7120   25.8720   35.9230 H   0  0  0  0  0  0  0  0  0  0  0  0
   38.2620   24.8950   35.6530 H   0  0  0  0  0  0  0  0  0  0  0  0
   35.0370   30.5180   34.8130 C   0  0  0  0  0  3  0  0  0  0  0  0
   35.6220   31.9270   34.4900 C   0  0  0  0  0  2  0  0  0  0  0  0
   35.9310   31.2480   35.7620 C   0  0  0  0  0  2  0  0  0  0  0  0
  1  9  1  0  0  0  0
  1  6  1  0  0  0  0
  2  1  2  0  0  0  0
  3  2  1  0  0  0  0
  3  4  2  0  0  0  0
  4  5  1  0  0  0  0
  5  6  2  0  0  0  0
  5 17  1  0  0  0  0
  7  2  1  0  0  0  0
  8  3  1  0  0  0  0
  9 11  1  0  0  0  0
  9 10  1  0  0  0  0
 10 13  1  0  0  0  0
 10 14  1  0  0  0  0
 11 16  1  0  0  0  0
 11 10  1  0  0  0  0
 11 15  1  0  0  0  0
 12  9  1  0  0  0  0
 17 19  1  0  0  0  0
 18 17  1  0  0  0  0
 18 19  1  0  0  0  0
M  END
>  <minimizedAffinity>
-3.74833608

$$$$

 OpenBabel03272504543D

 19 21  0  0  0  0  0  0  0  0999 V2000
   36.6550   25.8060   31.8350 C   0  0  0  0  0  0  0  0  0  0  0  0
   36.1820   26.9400   31.1500 C   0  0  0  0  0  0  0  0  0  0  0  0
   36.1420   28.1160   31.8780 C   0  0  0  0  0  0  0  0  0  0  0  0
   36.5460   28.1350   33.1810 N   0  0  0  0  0  0  0  0  0  0  0  0
   36.9940   27.0270   33.8080 C   0  0  0  0  0  0  0  0  0  0  0  0
   37.0480   25.8460   33.1250 N   0  0  0  0  0  0  0  0  0  0  0  0
   35.8650   26.9400   30.1330 H   0  0  0  0  0  0  0  0  0  0  0  0
   35.7920   29.0720   31.4540 H   0  0  0  0  0  0  0  0  0  0  0  0
   36.7400   24.5130   31.0700 C   0  0  0  0  0  0  0  0  0  0  0  0
   36.8960   23.2390   31.7600 C   0  0  0  0  0  0  0  0  0  0  0  0
   35.5250   23.6230   31.2810 C   0  0  0  0  0  0  0  0  0  0  0  0
   37.0600   24.6160   29.9940 H   0  0  0  0  0  0  0  0  0  0  0  0
   37.3830   22.3740   31.3000 H   0  0  0  0  0  0  0  0  0  0  0  0
   36.9710   23.2760   32.8710 H   0  0  0  0  0  0  0  0  0  0  0  0
   34.7380   23.9390   31.9630 H   0  0  0  0  0  0  0  0  0  0  0  0
   35.1800   23.0870   30.3780 H   0  0  0  0  0  0  0  0  0  0  0  0
   37.4420   27.0090   35.2260 C   0  0  0  0  0  3  0  0  0  0  0  0
   38.9690   27.2020   35.4750 C   0  0  0  0  0  2  0  0  0  0  0  0
   38.3190   25.9000   35.7090 C   0  0  0  0  0  2  0  0  0  0  0  0
  1  6  1  0  0  0  0
  2  1  2  0  0  0  0
  2  3  1  0  0  0  0
  3  4  2  0  0  0  0
  4  5  1  0  0  0  0
  5 17  1  0  0  0  0
  6  5  2  0  0  0  0
  7  2  1  0  0  0  0
  8  3  1  0  0  0  0
  9 11  1  0  0  0  0
  9 10  1  0  0  0  0
  9  1  1  0  0  0  0
 10 14  1  0  0  0  0
 11 10  1  0  0  0  0
 11 15  1  0  0  0  0
 12  9  1  0  0  0  0
 13 10  1  0  0  0  0
 16 11  1  0  0  0  0
 17 18  1  0  0  0  0
 17 19  1  0  0  0  0
 18 19  1  0  0  0  0
M  END
>  <minimizedAffinity>
-3.68512797

$$$$

 OpenBabel03272504543D

 19 21  0  0  0  0  0  0  0  0999 V2000
   39.9750   26.0420   34.8320 C   0  0  0  0  0  0  0  0  0  0  0  0
   41.2700   26.4970   34.5260 C   0  0  0  0  0  0  0  0  0  0  0  0
   42.3010   25.6080   34.7740 C   0  0  0  0  0  0  0  0  0  0  0  0
   42.0370   24.3710   35.2860 N   0  0  0  0  0  0  0  0  0  0  0  0
   40.7800   23.9660   35.5700 C   0  0  0  0  0  0  0  0  0  0  0  0
   39.7360   24.8150   35.3390 N   0  0  0  0  0  0  0  0  0  0  0  0
   41.4900   27.4590   34.1250 H   0  0  0  0  0  0  0  0  0  0  0  0
   43.3590   25.8460   34.5770 H   0  0  0  0  0  0  0  0  0  0  0  0
   38.8240   26.9690   34.5500 C   0  0  0  0  0  0  0  0  0  0  0  0
   37.4600   26.6100   34.9200 C   0  0  0  0  0  0  0  0  0  0  0  0
   38.2140   27.5520   35.8150 C   0  0  0  0  0  0  0  0  0  0  0  0
   39.0080   27.7220   33.7320 H   0  0  0  0  0  0  0  0  0  0  0  0
   36.5850   26.9910   34.3850 H   0  0  0  0  0  0  0  0  0  0  0  0
   37.3160   25.6130   35.3960 H   0  0  0  0  0  0  0  0  0  0  0  0
   38.5970   27.2480   36.7870 H   0  0  0  0  0  0  0  0  0  0  0  0
   37.9100   28.6110   35.7390 H   0  0  0  0  0  0  0  0  0  0  0  0
   40.4540   22.6270   36.1270 C   0  0  0  0  0  3  0  0  0  0  0  0
   40.3530   22.5260   37.6800 C   0  0  0  0  0  2  0  0  0  0  0  0
   41.4700   21.9020   36.9480 C   0  0  0  0  0  2  0  0  0  0  0  0
  1  6  1  0  0  0  0
  2  3  1  0  0  0  0
  2  1  2  0  0  0  0
  3  4  2  0  0  0  0
  4  5  1  0  0  0  0
  5 17  1  0  0  0  0
  6  5  2  0  0  0  0
  7  2  1  0  0  0  0
  8  3  1  0  0  0  0
  9  1  1  0  0  0  0
  9 10  1  0  0  0  0
  9 11  1  0  0  0  0
 10 14  1  0  0  0  0
 10 11  1  0  0  0  0
 11 15  1  0  0  0  0
 12  9  1  0  0  0  0
 13 10  1  0  0  0  0
 16 11  1  0  0  0  0
 17 19  1  0  0  0  0
 17 18  1  0  0  0  0
 19 18  1  0  0  0  0
M  END
>  <minimizedAffinity>
-3.66821957

$$$$

 OpenBabel03272504543D

 19 21  0  0  0  0  0  0  0  0999 V2000
   37.9710   25.4160   34.9530 C   0  0  0  0  0  0  0  0  0  0  0  0
   37.6780   26.7470   35.2990 C   0  0  0  0  0  0  0  0  0  0  0  0
   37.0380   27.4990   34.3290 C   0  0  0  0  0  0  0  0  0  0  0  0
   36.7270   26.9470   33.1210 N   0  0  0  0  0  0  0  0  0  0  0  0
   37.0250   25.6640   32.8220 C   0  0  0  0  0  0  0  0  0  0  0  0
   37.6560   24.8890   33.7520 N   0  0  0  0  0  0  0  0  0  0  0  0
   37.9140   27.1910   36.2370 H   0  0  0  0  0  0  0  0  0  0  0  0
   36.7550   28.5540   34.4780 H   0  0  0  0  0  0  0  0  0  0  0  0
   38.6420   24.5560   35.9900 C   0  0  0  0  0  0  0  0  0  0  0  0
   38.1500   24.5100   37.3620 C   0  0  0  0  0  0  0  0  0  0  0  0
   37.7760   23.3880   36.4360 C   0  0  0  0  0  0  0  0  0  0  0  0
   39.7110   24.2830   35.7630 H   0  0  0  0  0  0  0  0  0  0  0  0
   38.7990   24.2850   38.2140 H   0  0  0  0  0  0  0  0  0  0  0  0
   37.2750   25.1570   37.6030 H   0  0  0  0  0  0  0  0  0  0  0  0
   36.7710   23.2790   36.0320 H   0  0  0  0  0  0  0  0  0  0  0  0
   38.3220   22.4430   36.6040 H   0  0  0  0  0  0  0  0  0  0  0  0
   36.7010   25.0280   31.5180 C   0  0  0  0  0  3  0  0  0  0  0  0
   35.1880   24.8870   31.1690 C   0  0  0  0  0  2  0  0  0  0  0  0
   36.0070   23.7050   31.4930 C   0  0  0  0  0  2  0  0  0  0  0  0
  1  2  1  0  0  0  0
  1  9  1  0  0  0  0
  2  7  1  0  0  0  0
  3  8  1  0  0  0  0
  3  2  2  0  0  0  0
  4  3  1  0  0  0  0
  5  4  2  0  0  0  0
  5  6  1  0  0  0  0
  6  1  2  0  0  0  0
  9 11  1  0  0  0  0
  9 10  1  0  0  0  0
 10 14  1  0  0  0  0
 10 13  1  0  0  0  0
 11 16  1  0  0  0  0
 11 10  1  0  0  0  0
 12  9  1  0  0  0  0
 15 11  1  0  0  0  0
 17  5  1  0  0  0  0
 18 19  1  0  0  0  0
 18 17  1  0  0  0  0
 19 17  1  0  0  0  0
M  END
>  <minimizedAffinity>
-3.66302776

$$$$

 OpenBabel03272504543D

 19 21  0  0  0  0  0  0  0  0999 V2000
   38.0620   25.8900   34.5750 C   0  0  0  0  0  0  0  0  0  0  0  0
   38.1000   24.8150   33.6680 C   0  0  0  0  0  0  0  0  0  0  0  0
   38.0890   23.5490   34.2280 C   0  0  0  0  0  0  0  0  0  0  0  0
   38.0450   23.3930   35.5820 N   0  0  0  0  0  0  0  0  0  0  0  0
   38.0110   24.4490   36.4240 C   0  0  0  0  0  0  0  0  0  0  0  0
   38.0200   25.7140   35.9120 N   0  0  0  0  0  0  0  0  0  0  0  0
   38.1330   24.9220   32.6100 H   0  0  0  0  0  0  0  0  0  0  0  0
   38.1160   22.6280   33.6240 H   0  0  0  0  0  0  0  0  0  0  0  0
   38.0440   27.2830   34.0060 C   0  0  0  0  0  0  0  0  0  0  0  0
   37.3660   27.5740   32.7490 C   0  0  0  0  0  0  0  0  0  0  0  0
   36.6590   27.9110   34.0310 C   0  0  0  0  0  0  0  0  0  0  0  0
   38.8680   27.9580   34.3740 H   0  0  0  0  0  0  0  0  0  0  0  0
   37.6680   28.3960   32.0920 H   0  0  0  0  0  0  0  0  0  0  0  0
   36.8870   26.7140   32.2260 H   0  0  0  0  0  0  0  0  0  0  0  0
   35.8130   27.3330   34.3970 H   0  0  0  0  0  0  0  0  0  0  0  0
   36.6410   28.9870   34.2850 H   0  0  0  0  0  0  0  0  0  0  0  0
   37.9610   24.3190   37.9040 C   0  0  0  0  0  3  0  0  0  0  0  0
   39.0680   23.4390   38.5620 C   0  0  0  0  0  2  0  0  0  0  0  0
   37.6640   22.9900   38.5190 C   0  0  0  0  0  2  0  0  0  0  0  0
  1  6  1  0  0  0  0
  2  3  1  0  0  0  0
  2  1  2  0  0  0  0
  3  4  2  0  0  0  0
  4  5  1  0  0  0  0
  5 17  1  0  0  0  0
  6  5  2  0  0  0  0
  7  2  1  0  0  0  0
  8  3  1  0  0  0  0
  9 11  1  0  0  0  0
  9 12  1  0  0  0  0
  9  1  1  0  0  0  0
 10  9  1  0  0  0  0
 10 11  1  0  0  0  0
 11 16  1  0  0  0  0
 11 15  1  0  0  0  0
 13 10  1  0  0  0  0
 14 10  1  0  0  0  0
 17 19  1  0  0  0  0
 17 18  1  0  0  0  0
 19 18  1  0  0  0  0
M  END
>  <minimizedAffinity>
-3.61363101

$$$$

 OpenBabel03272504543D

 19 21  0  0  0  0  0  0  0  0999 V2000
   38.2210   25.0120   36.0460 C   0  0  0  0  0  0  0  0  0  0  0  0
   37.7740   24.3550   37.2070 C   0  0  0  0  0  0  0  0  0  0  0  0
   37.4790   23.0100   37.0670 C   0  0  0  0  0  0  0  0  0  0  0  0
   37.6260   22.3930   35.8600 N   0  0  0  0  0  0  0  0  0  0  0  0
   38.0580   23.0550   34.7650 C   0  0  0  0  0  0  0  0  0  0  0  0
   38.3590   24.3830   34.8610 N   0  0  0  0  0  0  0  0  0  0  0  0
   37.6550   24.8240   38.1550 H   0  0  0  0  0  0  0  0  0  0  0  0
   37.1200   22.3860   37.9020 H   0  0  0  0  0  0  0  0  0  0  0  0
   38.5790   26.4690   36.1620 C   0  0  0  0  0  0  0  0  0  0  0  0
   39.1410   27.1990   35.0330 C   0  0  0  0  0  0  0  0  0  0  0  0
   37.6780   27.3650   35.3270 C   0  0  0  0  0  0  0  0  0  0  0  0
   38.7520   26.8340   37.2140 H   0  0  0  0  0  0  0  0  0  0  0  0
   39.7980   28.0650   35.1580 H   0  0  0  0  0  0  0  0  0  0  0  0
   39.3120   26.6190   34.0960 H   0  0  0  0  0  0  0  0  0  0  0  0
   36.9050   26.9200   34.7030 H   0  0  0  0  0  0  0  0  0  0  0  0
   37.4040   28.3230   35.8040 H   0  0  0  0  0  0  0  0  0  0  0  0
   38.2310   22.4160   33.4330 C   0  0  0  0  0  3  0  0  0  0  0  0
   37.0130   22.4900   32.4630 C   0  0  0  0  0  2  0  0  0  0  0  0
   37.4180   21.2140   33.0790 C   0  0  0  0  0  2  0  0  0  0  0  0
  1  9  1  0  0  0  0
  1  2  1  0  0  0  0
  2  7  1  0  0  0  0
  3  2  2  0  0  0  0
  3  8  1  0  0  0  0
  4  3  1  0  0  0  0
  5  6  1  0  0  0  0
  5  4  2  0  0  0  0
  6  1  2  0  0  0  0
  9 12  1  0  0  0  0
 10 13  1  0  0  0  0
 10 11  1  0  0  0  0
 10  9  1  0  0  0  0
 11 16  1  0  0  0  0
 11  9  1  0  0  0  0
 14 10  1  0  0  0  0
 15 11  1  0  0  0  0
 17  5  1  0  0  0  0
 18 19  1  0  0  0  0
 18 17  1  0  0  0  0
 19 17  1  0  0  0  0
M  END
>  <minimizedAffinity>
-3.59642124

$$$$
