
 OpenBabel03262520173D

 12 13  0  0  0  0  0  0  0  0999 V2000
   37.3300   30.1760   51.4350 C   0  0  0  0  0  0  0  0  0  0  0  0
   38.0870   30.6940   50.3670 C   0  0  0  0  0  0  0  0  0  0  0  0
   37.6710   30.4000   49.0560 C   0  0  0  0  0  0  0  0  0  0  0  0
   36.5530   29.6270   48.9120 N   0  0  0  0  0  0  0  0  0  0  0  0
   35.8550   29.1500   49.9640 C   0  0  0  0  0  0  0  0  0  0  0  0
   36.2440   29.4260   51.2330 N   0  0  0  0  0  0  0  0  0  0  0  0
   37.6410   30.3970   52.4500 H   0  0  0  0  0  0  0  0  0  0  0  0
   38.9760   31.3090   50.5630 H   0  0  0  0  0  0  0  0  0  0  0  0
   34.9900   28.5510   49.6440 H   0  0  0  0  0  0  0  0  0  0  0  0
   38.4170   30.9090   47.9040 C   0  0  0  0  0  3  0  0  0  0  0  0
   37.7860   31.5170   46.7340 C   0  0  0  0  0  2  0  0  0  0  0  0
   38.3910   32.4390   47.7920 C   0  0  0  0  0  2  0  0  0  0  0  0
  1  7  1  0  0  0  0
  2  8  1  0  0  0  0
  2  1  2  0  0  0  0
  3  2  1  0  0  0  0
  4  3  2  0  0  0  0
  4  5  1  0  0  0  0
  5  6  2  0  0  0  0
  6  1  1  0  0  0  0
  9  5  1  0  0  0  0
 10  3  1  0  0  0  0
 11 12  1  0  0  0  0
 11 10  1  0  0  0  0
 12 10  1  0  0  0  0
M  END
>  <minimizedAffinity>
-3.90043616

>  <minimizedRMSD>
0.496473581

$$$$
