
 OpenBabel03272501243D

 31 34  0  0  1  0  0  0  0  0999 V2000
   36.6180   30.4090   47.5010 C   0  0  0  0  0  0  0  0  0  0  0  0
   35.8080   30.2480   46.3720 C   0  0  0  0  0  0  0  0  0  0  0  0
   36.5220   30.7240   45.2690 C   0  0  0  0  0  0  0  0  0  0  0  0
   37.7100   31.1430   45.7650 N   0  0  0  0  0  0  0  0  0  0  0  0
   37.7420   30.9470   47.0800 N   0  0  0  0  0  0  0  0  0  0  0  0
   34.8150   29.8450   46.2920 H   0  0  0  0  0  0  0  0  0  0  0  0
   36.1980   30.7540   44.2230 H   0  0  0  0  0  0  0  0  0  0  0  0
   38.3850   32.5610   43.9310 N   0  0  0  0  0  0  0  0  0  0  0  0
   39.5990   33.2790   43.5830 C   0  0  0  0  0  0  0  0  0  0  0  0
   40.4860   33.2940   44.8180 C   0  0  0  0  0  0  0  0  0  0  0  0
   39.5570   32.7150   45.8830 C   0  0  0  0  0  0  0  0  0  0  0  0
   38.8020   31.7160   45.0480 C   0  0  1  0  0  0  0  0  0  0  0  0
   38.1890   31.8880   43.1400 H   0  0  0  0  0  0  0  0  0  0  0  0
   40.1750   32.7100   42.8070 H   0  0  0  0  0  0  0  0  0  0  0  0
   39.3960   34.2680   43.1670 H   0  0  0  0  0  0  0  0  0  0  0  0
   41.3950   32.6780   44.7090 H   0  0  0  0  0  0  0  0  0  0  0  0
   40.7080   34.3700   45.0330 H   0  0  0  0  0  0  0  0  0  0  0  0
   40.0920   32.2750   46.7230 H   0  0  0  0  0  0  0  0  0  0  0  0
   38.8570   33.5250   46.1520 H   0  0  0  0  0  0  0  0  0  0  0  0
   39.6890   30.5900   44.5640 C   0  0  0  0  0  0  0  0  0  0  0  0
   38.9420   29.3210   44.2530 C   0  0  0  0  0  0  0  0  0  0  0  0
   39.5130   30.1160   43.1370 C   0  0  0  0  0  0  0  0  0  0  0  0
   37.0630   29.7400   49.8700 C   0  0  0  0  0  0  0  0  0  0  0  0
   36.1710   30.0100   48.8200 C   0  0  0  0  0  0  0  0  0  0  0  0
   34.8070   29.8770   49.0910 C   0  0  0  0  0  0  0  0  0  0  0  0
   34.4270   29.5020   50.3330 N   0  0  0  0  0  0  0  0  0  0  0  0
   35.3190   29.2490   51.3220 C   0  0  0  0  0  0  0  0  0  0  0  0
   36.6570   29.3710   51.0840 N   0  0  0  0  0  0  0  0  0  0  0  0
   38.1260   29.8380   49.6780 H   0  0  0  0  0  0  0  0  0  0  0  0
   34.0720   30.0710   48.3260 H   0  0  0  0  0  0  0  0  0  0  0  0
   34.8710   28.9570   52.2620 H   0  0  0  0  0  0  0  0  0  0  0  0
  1 24  1  0  0  0  0
  2  1  1  0  0  0  0
  3  4  1  0  0  0  0
  3  2  2  0  0  0  0
  4  5  1  0  0  0  0
  5  1  2  0  0  0  0
  6  2  1  0  0  0  0
  7  3  1  0  0  0  0
  8 12  1  0  0  0  0
  9  8  1  0  0  0  0
  9 10  1  0  0  0  0
 10 17  1  0  0  0  0
 10 11  1  0  0  0  0
 11 19  1  0  0  0  0
 11 18  1  0  0  0  0
 12 20  1  6  0  0  0
 12  4  1  0  0  0  0
 12 11  1  0  0  0  0
 13  8  1  0  0  0  0
 14  9  1  0  0  0  0
 15  9  1  0  0  0  0
 16 10  1  0  0  0  0
 21 20  1  0  0  0  0
 22 21  1  0  0  0  0
 22 20  1  0  0  0  0
 23 28  1  0  0  0  0
 24 25  1  0  0  0  0
 24 23  2  0  0  0  0
 25 26  2  0  0  0  0
 26 27  1  0  0  0  0
 27 31  1  0  0  0  0
 28 27  2  0  0  0  0
 29 23  1  0  0  0  0
 30 25  1  0  0  0  0
M  END
>  <minimizedAffinity>
-5.02366495

>  <minimizedRMSD>
3.39277506

$$$$
