
 OpenBabel03262520533D

 19 21  0  0  1  0  0  0  0  0999 V2000
   39.2480   25.4720   34.7970 C   0  0  2  0  0  0  0  0  0  0  0  0
   40.0340   26.7240   34.8040 C   0  0  0  0  0  0  0  0  0  0  0  0
   38.5250   26.7530   34.7040 C   0  0  1  0  0  0  0  0  0  0  0  0
   39.2940   24.8490   33.8740 H   0  0  0  0  0  0  0  0  0  0  0  0
   40.6540   26.9230   33.9210 H   0  0  0  0  0  0  0  0  0  0  0  0
   40.4790   27.0340   35.7570 H   0  0  0  0  0  0  0  0  0  0  0  0
   37.9650   27.1130   35.6090 H   0  0  0  0  0  0  0  0  0  0  0  0
   39.7520   22.8540   37.3790 C   0  0  0  0  0  0  0  0  0  0  0  0
   38.7630   23.1910   38.3380 C   0  0  0  0  0  0  0  0  0  0  0  0
   37.9310   24.3160   38.0710 C   0  0  0  0  0  0  0  0  0  0  0  0
   38.1360   24.9940   36.9230 N   0  0  0  0  0  0  0  0  0  0  0  0
   39.0890   24.6430   36.0320 C   0  0  0  0  0  0  0  0  0  0  0  0
   39.8950   23.5930   36.2390 N   0  0  0  0  0  0  0  0  0  0  0  0
   40.3830   21.9970   37.5870 H   0  0  0  0  0  0  0  0  0  0  0  0
   38.6410   22.6180   39.2390 H   0  0  0  0  0  0  0  0  0  0  0  0
   37.1650   24.6050   38.7780 H   0  0  0  0  0  0  0  0  0  0  0  0
   37.9630   27.2780   33.4270 C   0  0  0  0  0  3  0  0  0  0  0  0
   36.8410   26.5590   32.7630 C   0  0  0  0  0  2  0  0  0  0  0  0
   36.6510   27.9200   33.4300 C   0  0  0  0  0  2  0  0  0  0  0  0
  1  4  1  6  0  0  0
  1  2  1  0  0  0  0
  1 12  1  0  0  0  0
  2  6  1  0  0  0  0
  3  1  1  0  0  0  0
  3  2  1  0  0  0  0
  3  7  1  1  0  0  0
  5  2  1  0  0  0  0
  8 14  1  0  0  0  0
  8  9  1  0  0  0  0
  9 15  1  0  0  0  0
 10  9  2  0  0  0  0
 10 16  1  0  0  0  0
 11 10  1  0  0  0  0
 12 13  1  0  0  0  0
 12 11  2  0  0  0  0
 13  8  2  0  0  0  0
 17 19  1  0  0  0  0
 17  3  1  0  0  0  0
 18 17  1  0  0  0  0
 18 19  1  0  0  0  0
M  END
>  <minimizedAffinity>
-3.83793879

$$$$

 OpenBabel03262520533D

 19 21  0  0  1  0  0  0  0  0999 V2000
   37.4070   26.6760   35.2660 C   0  0  2  0  0  0  0  0  0  0  0  0
   38.7750   27.0140   35.7130 C   0  0  0  0  0  0  0  0  0  0  0  0
   38.3170   25.5760   35.6320 C   0  0  1  0  0  0  0  0  0  0  0  0
   36.5730   26.8980   35.9710 H   0  0  0  0  0  0  0  0  0  0  0  0
   38.8670   27.5140   36.6850 H   0  0  0  0  0  0  0  0  0  0  0  0
   39.4840   27.3590   34.9510 H   0  0  0  0  0  0  0  0  0  0  0  0
   38.7530   24.9520   34.8060 H   0  0  0  0  0  0  0  0  0  0  0  0
   36.6090   25.9040   31.7240 C   0  0  0  0  0  0  0  0  0  0  0  0
   36.1870   27.1660   31.2350 C   0  0  0  0  0  0  0  0  0  0  0  0
   36.1930   28.2670   32.1390 C   0  0  0  0  0  0  0  0  0  0  0  0
   36.5990   28.0420   33.4050 N   0  0  0  0  0  0  0  0  0  0  0  0
   36.9940   26.8250   33.8360 C   0  0  0  0  0  0  0  0  0  0  0  0
   37.0060   25.7590   33.0240 N   0  0  0  0  0  0  0  0  0  0  0  0
   36.6010   25.0680   31.0340 H   0  0  0  0  0  0  0  0  0  0  0  0
   35.8710   27.2920   30.2150 H   0  0  0  0  0  0  0  0  0  0  0  0
   35.8790   29.2470   31.8030 H   0  0  0  0  0  0  0  0  0  0  0  0
   38.2250   24.8430   36.9260 C   0  0  0  0  0  3  0  0  0  0  0  0
   37.4450   23.5770   37.0060 C   0  0  0  0  0  2  0  0  0  0  0  0
   38.9700   23.5970   37.1010 C   0  0  0  0  0  2  0  0  0  0  0  0
  1  3  1  0  0  0  0
  1  2  1  0  0  0  0
  1  4  1  1  0  0  0
  2  5  1  0  0  0  0
  3  7  1  6  0  0  0
  3  2  1  0  0  0  0
  3 17  1  0  0  0  0
  6  2  1  0  0  0  0
  8 13  1  0  0  0  0
  9  8  2  0  0  0  0
  9 10  1  0  0  0  0
 10 11  2  0  0  0  0
 11 12  1  0  0  0  0
 12  1  1  0  0  0  0
 13 12  2  0  0  0  0
 14  8  1  0  0  0  0
 15  9  1  0  0  0  0
 16 10  1  0  0  0  0
 17 18  1  0  0  0  0
 17 19  1  0  0  0  0
 18 19  1  0  0  0  0
M  END
>  <minimizedAffinity>
-3.74376249

$$$$

 OpenBabel03262520533D

 19 21  0  0  1  0  0  0  0  0999 V2000
   38.7530   23.3220   35.2070 C   0  0  2  0  0  0  0  0  0  0  0  0
   39.1310   23.6160   36.6050 C   0  0  0  0  0  0  0  0  0  0  0  0
   38.3980   24.6380   35.7670 C   0  0  1  0  0  0  0  0  0  0  0  0
   39.5750   23.2980   34.4540 H   0  0  0  0  0  0  0  0  0  0  0  0
   40.2010   23.7320   36.8140 H   0  0  0  0  0  0  0  0  0  0  0  0
   38.5610   23.1150   37.3980 H   0  0  0  0  0  0  0  0  0  0  0  0
   37.3230   24.8300   36.0290 H   0  0  0  0  0  0  0  0  0  0  0  0
   36.4050   21.1570   33.3170 C   0  0  0  0  0  0  0  0  0  0  0  0
   35.6570   20.5520   34.3590 C   0  0  0  0  0  0  0  0  0  0  0  0
   35.9730   20.9110   35.7010 C   0  0  0  0  0  0  0  0  0  0  0  0
   36.9660   21.8020   35.8990 N   0  0  0  0  0  0  0  0  0  0  0  0
   37.6570   22.3580   34.8800 C   0  0  0  0  0  0  0  0  0  0  0  0
   37.3960   22.0530   33.6030 N   0  0  0  0  0  0  0  0  0  0  0  0
   36.1610   20.8800   32.2980 H   0  0  0  0  0  0  0  0  0  0  0  0
   34.8750   19.8450   34.1480 H   0  0  0  0  0  0  0  0  0  0  0  0
   35.4250   20.4710   36.5240 H   0  0  0  0  0  0  0  0  0  0  0  0
   39.1490   25.8850   35.4490 C   0  0  0  0  0  3  0  0  0  0  0  0
   38.6440   26.8030   34.3910 C   0  0  0  0  0  2  0  0  0  0  0  0
   38.6110   27.1760   35.8720 C   0  0  0  0  0  2  0  0  0  0  0  0
  1  4  1  6  0  0  0
  1  3  1  0  0  0  0
  1  2  1  0  0  0  0
  2  5  1  0  0  0  0
  2  6  1  0  0  0  0
  3  7  1  1  0  0  0
  3  2  1  0  0  0  0
  8 13  2  0  0  0  0
  8  9  1  0  0  0  0
  9 10  2  0  0  0  0
 10 11  1  0  0  0  0
 10 16  1  0  0  0  0
 12  1  1  0  0  0  0
 12 11  2  0  0  0  0
 13 12  1  0  0  0  0
 14  8  1  0  0  0  0
 15  9  1  0  0  0  0
 17  3  1  0  0  0  0
 17 19  1  0  0  0  0
 18 17  1  0  0  0  0
 18 19  1  0  0  0  0
M  END
>  <minimizedAffinity>
-3.68548656

$$$$

 OpenBabel03262520533D

 19 21  0  0  1  0  0  0  0  0999 V2000
   35.8700   30.0500   34.4870 C   0  0  2  0  0  0  0  0  0  0  0  0
   35.3680   29.2840   33.3270 C   0  0  0  0  0  0  0  0  0  0  0  0
   35.9070   28.5780   34.5510 C   0  0  1  0  0  0  0  0  0  0  0  0
   36.8450   30.5760   34.3650 H   0  0  0  0  0  0  0  0  0  0  0  0
   35.9630   29.3350   32.4070 H   0  0  0  0  0  0  0  0  0  0  0  0
   34.2830   29.2590   33.1710 H   0  0  0  0  0  0  0  0  0  0  0  0
   35.1580   28.0560   35.2050 H   0  0  0  0  0  0  0  0  0  0  0  0
   32.7910   31.1880   36.2190 C   0  0  0  0  0  0  0  0  0  0  0  0
   33.3010   32.1530   37.1240 C   0  0  0  0  0  0  0  0  0  0  0  0
   34.7040   32.4000   37.1150 C   0  0  0  0  0  0  0  0  0  0  0  0
   35.4620   31.7000   36.2470 N   0  0  0  0  0  0  0  0  0  0  0  0
   34.9400   30.7870   35.3980 C   0  0  0  0  0  0  0  0  0  0  0  0
   33.6280   30.5210   35.3700 N   0  0  0  0  0  0  0  0  0  0  0  0
   31.7230   31.0030   36.2310 H   0  0  0  0  0  0  0  0  0  0  0  0
   32.6530   32.6840   37.7980 H   0  0  0  0  0  0  0  0  0  0  0  0
   35.1310   33.1300   37.7900 H   0  0  0  0  0  0  0  0  0  0  0  0
   37.1560   27.7880   34.3550 C   0  0  0  0  0  3  0  0  0  0  0  0
   38.0660   27.5460   35.5070 C   0  0  0  0  0  2  0  0  0  0  0  0
   37.2360   26.4270   34.8820 C   0  0  0  0  0  2  0  0  0  0  0  0
  1  4  1  6  0  0  0
  1  3  1  0  0  0  0
  1 12  1  0  0  0  0
  2  1  1  0  0  0  0
  2  3  1  0  0  0  0
  3  7  1  1  0  0  0
  5  2  1  0  0  0  0
  6  2  1  0  0  0  0
  8 14  1  0  0  0  0
  8  9  1  0  0  0  0
  9 15  1  0  0  0  0
 10  9  2  0  0  0  0
 10 16  1  0  0  0  0
 11 10  1  0  0  0  0
 12 11  2  0  0  0  0
 13 12  1  0  0  0  0
 13  8  2  0  0  0  0
 17  3  1  0  0  0  0
 17 19  1  0  0  0  0
 17 18  1  0  0  0  0
 19 18  1  0  0  0  0
M  END
>  <minimizedAffinity>
-3.64186358

$$$$

 OpenBabel03262520533D

 19 21  0  0  1  0  0  0  0  0999 V2000
   36.4200   25.0450   31.4530 C   0  0  2  0  0  0  0  0  0  0  0  0
   35.0880   25.0030   30.8140 C   0  0  0  0  0  0  0  0  0  0  0  0
   35.5600   23.8750   31.7040 C   0  0  1  0  0  0  0  0  0  0  0  0
   37.3050   24.8900   30.7930 H   0  0  0  0  0  0  0  0  0  0  0  0
   35.0660   24.8800   29.7240 H   0  0  0  0  0  0  0  0  0  0  0  0
   34.3150   25.6690   31.2160 H   0  0  0  0  0  0  0  0  0  0  0  0
   35.0680   23.7840   32.7090 H   0  0  0  0  0  0  0  0  0  0  0  0
   36.5630   28.0900   33.5710 C   0  0  0  0  0  0  0  0  0  0  0  0
   37.2590   27.6220   34.7140 C   0  0  0  0  0  0  0  0  0  0  0  0
   37.6760   26.2600   34.7290 C   0  0  0  0  0  0  0  0  0  0  0  0
   37.3810   25.4970   33.6570 N   0  0  0  0  0  0  0  0  0  0  0  0
   36.7150   25.9780   32.5850 C   0  0  0  0  0  0  0  0  0  0  0  0
   36.3040   27.2510   32.5230 N   0  0  0  0  0  0  0  0  0  0  0  0
   36.2470   29.1270   33.5640 H   0  0  0  0  0  0  0  0  0  0  0  0
   37.4690   28.2710   35.5450 H   0  0  0  0  0  0  0  0  0  0  0  0
   38.2110   25.8650   35.5840 H   0  0  0  0  0  0  0  0  0  0  0  0
   35.7660   22.5580   31.0380 C   0  0  0  0  0  3  0  0  0  0  0  0
   36.8120   21.6290   31.5450 C   0  0  0  0  0  2  0  0  0  0  0  0
   35.3220   21.3360   31.7060 C   0  0  0  0  0  2  0  0  0  0  0  0
  1  4  1  6  0  0  0
  1  3  1  0  0  0  0
  1 12  1  0  0  0  0
  2  6  1  0  0  0  0
  2  1  1  0  0  0  0
  2  3  1  0  0  0  0
  3  7  1  1  0  0  0
  5  2  1  0  0  0  0
  8  9  1  0  0  0  0
  9 10  2  0  0  0  0
  9 15  1  0  0  0  0
 10 16  1  0  0  0  0
 11 10  1  0  0  0  0
 12 11  2  0  0  0  0
 13 12  1  0  0  0  0
 13  8  2  0  0  0  0
 14  8  1  0  0  0  0
 17 18  1  0  0  0  0
 17  3  1  0  0  0  0
 17 19  1  0  0  0  0
 18 19  1  0  0  0  0
M  END
>  <minimizedAffinity>
-3.63036036

$$$$

 OpenBabel03262520533D

 19 21  0  0  1  0  0  0  0  0999 V2000
   38.3310   26.2040   34.8720 C   0  0  2  0  0  0  0  0  0  0  0  0
   38.3580   27.2340   35.9330 C   0  0  0  0  0  0  0  0  0  0  0  0
   37.1820   27.1180   34.9890 C   0  0  1  0  0  0  0  0  0  0  0  0
   39.0110   26.3540   34.0010 H   0  0  0  0  0  0  0  0  0  0  0  0
   39.0870   28.0450   35.8160 H   0  0  0  0  0  0  0  0  0  0  0  0
   38.2070   26.8970   36.9660 H   0  0  0  0  0  0  0  0  0  0  0  0
   36.2250   26.7160   35.4200 H   0  0  0  0  0  0  0  0  0  0  0  0
   37.7020   23.0560   36.7360 C   0  0  0  0  0  0  0  0  0  0  0  0
   37.7520   22.0870   35.7020 C   0  0  0  0  0  0  0  0  0  0  0  0
   38.0100   22.5380   34.3760 C   0  0  0  0  0  0  0  0  0  0  0  0
   38.1910   23.8610   34.1840 N   0  0  0  0  0  0  0  0  0  0  0  0
   38.1360   24.7560   35.1940 C   0  0  0  0  0  0  0  0  0  0  0  0
   37.8960   24.3800   36.4570 N   0  0  0  0  0  0  0  0  0  0  0  0
   37.5040   22.7080   37.7430 H   0  0  0  0  0  0  0  0  0  0  0  0
   37.5990   21.0430   35.9080 H   0  0  0  0  0  0  0  0  0  0  0  0
   38.0570   21.8290   33.5600 H   0  0  0  0  0  0  0  0  0  0  0  0
   36.9640   28.2710   34.0700 C   0  0  0  0  0  3  0  0  0  0  0  0
   36.1640   28.0850   32.8280 C   0  0  0  0  0  2  0  0  0  0  0  0
   35.6480   28.9040   34.0100 C   0  0  0  0  0  2  0  0  0  0  0  0
  1  4  1  6  0  0  0
  1  3  1  0  0  0  0
  1 12  1  0  0  0  0
  1  2  1  0  0  0  0
  2  6  1  0  0  0  0
  3  7  1  1  0  0  0
  3  2  1  0  0  0  0
  5  2  1  0  0  0  0
  8 14  1  0  0  0  0
  9 15  1  0  0  0  0
  9  8  2  0  0  0  0
 10  9  1  0  0  0  0
 11 10  2  0  0  0  0
 11 12  1  0  0  0  0
 12 13  2  0  0  0  0
 13  8  1  0  0  0  0
 16 10  1  0  0  0  0
 17  3  1  0  0  0  0
 18 19  1  0  0  0  0
 18 17  1  0  0  0  0
 19 17  1  0  0  0  0
M  END
>  <minimizedAffinity>
-3.61756682

$$$$

 OpenBabel03262520533D

 19 21  0  0  1  0  0  0  0  0999 V2000
   37.9820   26.6260   34.6600 C   0  0  2  0  0  0  0  0  0  0  0  0
   38.4010   27.0340   36.0170 C   0  0  0  0  0  0  0  0  0  0  0  0
   39.3180   27.2220   34.8300 C   0  0  1  0  0  0  0  0  0  0  0  0
   37.9380   25.5320   34.4490 H   0  0  0  0  0  0  0  0  0  0  0  0
   38.5850   26.2300   36.7400 H   0  0  0  0  0  0  0  0  0  0  0  0
   37.9360   27.9330   36.4400 H   0  0  0  0  0  0  0  0  0  0  0  0
   39.4780   28.2760   34.4760 H   0  0  0  0  0  0  0  0  0  0  0  0
   35.3920   29.1310   33.7670 C   0  0  0  0  0  0  0  0  0  0  0  0
   35.0760   28.7660   32.4330 C   0  0  0  0  0  0  0  0  0  0  0  0
   35.7600   27.6520   31.8670 C   0  0  0  0  0  0  0  0  0  0  0  0
   36.6670   27.0130   32.6330 N   0  0  0  0  0  0  0  0  0  0  0  0
   36.9430   27.3900   33.9010 C   0  0  0  0  0  0  0  0  0  0  0  0
   36.3260   28.4300   34.4760 N   0  0  0  0  0  0  0  0  0  0  0  0
   34.8690   29.9800   34.1930 H   0  0  0  0  0  0  0  0  0  0  0  0
   34.3440   29.3100   31.8640 H   0  0  0  0  0  0  0  0  0  0  0  0
   35.5460   27.3420   30.8520 H   0  0  0  0  0  0  0  0  0  0  0  0
   40.5720   26.4170   34.8360 C   0  0  0  0  0  3  0  0  0  0  0  0
   40.9430   25.6180   33.6360 C   0  0  0  0  0  2  0  0  0  0  0  0
   41.7200   26.8660   34.0510 C   0  0  0  0  0  2  0  0  0  0  0  0
  1  4  1  6  0  0  0
  1  3  1  0  0  0  0
  1  2  1  0  0  0  0
  2  6  1  0  0  0  0
  2  5  1  0  0  0  0
  3  7  1  6  0  0  0
  3 17  1  0  0  0  0
  3  2  1  0  0  0  0
  8 14  1  0  0  0  0
  8 13  1  0  0  0  0
  9  8  2  0  0  0  0
 10  9  1  0  0  0  0
 10 11  2  0  0  0  0
 11 12  1  0  0  0  0
 12 13  2  0  0  0  0
 12  1  1  0  0  0  0
 15  9  1  0  0  0  0
 16 10  1  0  0  0  0
 18 19  1  0  0  0  0
 18 17  1  0  0  0  0
 19 17  1  0  0  0  0
M  END
>  <minimizedAffinity>
-3.60628319

$$$$

 OpenBabel03262520533D

 19 21  0  0  1  0  0  0  0  0999 V2000
   39.5710   24.1440   35.4440 C   0  0  2  0  0  0  0  0  0  0  0  0
   38.2760   23.7240   34.8700 C   0  0  0  0  0  0  0  0  0  0  0  0
   38.3360   24.5240   36.1510 C   0  0  1  0  0  0  0  0  0  0  0  0
   40.2000   23.3520   35.9140 H   0  0  0  0  0  0  0  0  0  0  0  0
   38.0500   22.6510   34.8940 H   0  0  0  0  0  0  0  0  0  0  0  0
   37.9310   24.2450   33.9680 H   0  0  0  0  0  0  0  0  0  0  0  0
   38.0000   25.5950   36.0940 H   0  0  0  0  0  0  0  0  0  0  0  0
   40.5600   27.2250   33.6240 C   0  0  0  0  0  0  0  0  0  0  0  0
   41.9750   27.1680   33.6950 C   0  0  0  0  0  0  0  0  0  0  0  0
   42.5650   26.0580   34.3650 C   0  0  0  0  0  0  0  0  0  0  0  0
   41.7420   25.1290   34.8930 N   0  0  0  0  0  0  0  0  0  0  0  0
   40.3960   25.2180   34.8070 C   0  0  0  0  0  0  0  0  0  0  0  0
   39.7960   26.2410   34.1870 N   0  0  0  0  0  0  0  0  0  0  0  0
   40.1160   28.0720   33.1140 H   0  0  0  0  0  0  0  0  0  0  0  0
   42.5870   27.9350   33.2570 H   0  0  0  0  0  0  0  0  0  0  0  0
   43.6420   25.9780   34.4390 H   0  0  0  0  0  0  0  0  0  0  0  0
   37.8570   23.8310   37.3800 C   0  0  0  0  0  3  0  0  0  0  0  0
   38.8420   23.3310   38.3780 C   0  0  0  0  0  2  0  0  0  0  0  0
   37.9260   24.5190   38.6670 C   0  0  0  0  0  2  0  0  0  0  0  0
  1  4  1  1  0  0  0
  1  3  1  0  0  0  0
  2  5  1  0  0  0  0
  2  1  1  0  0  0  0
  2  3  1  0  0  0  0
  3  7  1  6  0  0  0
  3 17  1  0  0  0  0
  6  2  1  0  0  0  0
  8  9  2  0  0  0  0
  8 13  1  0  0  0  0
  9 10  1  0  0  0  0
 10 16  1  0  0  0  0
 10 11  2  0  0  0  0
 12 11  1  0  0  0  0
 12  1  1  0  0  0  0
 13 12  2  0  0  0  0
 14  8  1  0  0  0  0
 15  9  1  0  0  0  0
 17 18  1  0  0  0  0
 17 19  1  0  0  0  0
 18 19  1  0  0  0  0
M  END
>  <minimizedAffinity>
-3.60261631

$$$$

 OpenBabel03262520533D

 19 21  0  0  1  0  0  0  0  0999 V2000
   38.0530   26.0450   34.2600 C   0  0  2  0  0  0  0  0  0  0  0  0
   38.0240   27.2510   35.1130 C   0  0  0  0  0  0  0  0  0  0  0  0
   39.1760   26.9930   34.1690 C   0  0  1  0  0  0  0  0  0  0  0  0
   38.2520   25.0700   34.7630 H   0  0  0  0  0  0  0  0  0  0  0  0
   38.1430   27.0950   36.1930 H   0  0  0  0  0  0  0  0  0  0  0  0
   37.3190   28.0460   34.8400 H   0  0  0  0  0  0  0  0  0  0  0  0
   39.2430   27.6520   33.2620 H   0  0  0  0  0  0  0  0  0  0  0  0
   36.0350   24.5570   31.5230 C   0  0  0  0  0  0  0  0  0  0  0  0
   35.4200   25.7010   30.9530 C   0  0  0  0  0  0  0  0  0  0  0  0
   35.7210   26.9710   31.5220 C   0  0  0  0  0  0  0  0  0  0  0  0
   36.5710   27.0090   32.5690 N   0  0  0  0  0  0  0  0  0  0  0  0
   37.1380   25.8970   33.0850 C   0  0  0  0  0  0  0  0  0  0  0  0
   36.8860   24.6810   32.5840 N   0  0  0  0  0  0  0  0  0  0  0  0
   35.8020   23.5920   31.0870 H   0  0  0  0  0  0  0  0  0  0  0  0
   34.7480   25.6160   30.1190 H   0  0  0  0  0  0  0  0  0  0  0  0
   35.2720   27.8690   31.1150 H   0  0  0  0  0  0  0  0  0  0  0  0
   40.5010   26.7460   34.8050 C   0  0  0  0  0  3  0  0  0  0  0  0
   41.2850   25.5360   34.4340 C   0  0  0  0  0  2  0  0  0  0  0  0
   41.7210   26.9420   34.0250 C   0  0  0  0  0  2  0  0  0  0  0  0
  1  4  1  1  0  0  0
  1  2  1  0  0  0  0
  2  5  1  0  0  0  0
  3  7  1  6  0  0  0
  3  1  1  0  0  0  0
  3 17  1  0  0  0  0
  3  2  1  0  0  0  0
  6  2  1  0  0  0  0
  8 13  1  0  0  0  0
  9 10  1  0  0  0  0
  9  8  2  0  0  0  0
 10 11  2  0  0  0  0
 11 12  1  0  0  0  0
 12  1  1  0  0  0  0
 13 12  2  0  0  0  0
 14  8  1  0  0  0  0
 15  9  1  0  0  0  0
 16 10  1  0  0  0  0
 18 17  1  0  0  0  0
 19 18  1  0  0  0  0
 19 17  1  0  0  0  0
M  END
>  <minimizedAffinity>
-3.57020044

$$$$
