
 OpenBabel03272510233D

 25 28  0  0  0  0  0  0  0  0999 V2000
   35.5210   29.9220   47.1010 C   0  0  0  0  0  0  0  0  0  0  0  0
   36.6860   30.3270   47.7230 C   0  0  0  0  0  0  0  0  0  0  0  0
   37.6910   30.8830   46.9760 C   0  0  0  0  0  0  0  0  0  0  0  0
   37.4950   31.0180   45.6000 C   0  0  0  0  0  0  0  0  0  0  0  0
   38.3590   31.5390   44.6870 N   0  0  0  0  0  0  0  0  0  0  0  0
   37.7400   31.4600   43.5030 C   0  0  0  0  0  0  0  0  0  0  0  0
   36.5250   30.9110   43.6430 N   0  0  0  0  0  0  0  0  0  0  0  0
   36.3400   30.6220   44.9460 C   0  0  0  0  0  0  0  0  0  0  0  0
   35.3400   30.0630   45.7240 C   0  0  0  0  0  0  0  0  0  0  0  0
   34.6740   29.4710   47.6190 H   0  0  0  0  0  0  0  0  0  0  0  0
   38.6110   31.2070   47.4420 H   0  0  0  0  0  0  0  0  0  0  0  0
   39.3050   31.9190   44.8770 H   0  0  0  0  0  0  0  0  0  0  0  0
   34.4300   29.7480   45.2360 H   0  0  0  0  0  0  0  0  0  0  0  0
   37.8360   30.3000   51.3010 C   0  0  0  0  0  0  0  0  0  0  0  0
   37.8590   30.5360   49.9210 C   0  0  0  0  0  0  0  0  0  0  0  0
   36.7790   30.1380   49.1590 C   0  0  0  0  0  0  0  0  0  0  0  0
   35.7290   29.5270   49.7840 N   0  0  0  0  0  0  0  0  0  0  0  0
   35.7240   29.3050   51.1250 C   0  0  0  0  0  0  0  0  0  0  0  0
   36.7720   29.6910   51.8740 N   0  0  0  0  0  0  0  0  0  0  0  0
   38.7070   30.6350   51.8360 H   0  0  0  0  0  0  0  0  0  0  0  0
   38.6880   31.0150   49.4450 H   0  0  0  0  0  0  0  0  0  0  0  0
   34.9020   28.8240   51.6320 H   0  0  0  0  0  0  0  0  0  0  0  0
   38.3200   31.9220   42.1940 C   0  0  0  0  0  3  0  0  0  0  0  0
   37.6560   33.2090   41.6990 C   0  0  0  0  0  2  0  0  0  0  0  0
   39.1230   33.1430   42.0980 C   0  0  0  0  0  2  0  0  0  0  0  0
  1 10  1  0  0  0  0
  1  2  1  0  0  0  0
  2 16  1  0  0  0  0
  3 11  1  0  0  0  0
  3  2  2  0  0  0  0
  4  3  1  0  0  0  0
  5 12  1  0  0  0  0
  5  4  1  0  0  0  0
  6  7  2  0  0  0  0
  6  5  1  0  0  0  0
  7  8  1  0  0  0  0
  8  4  2  0  0  0  0
  8  9  1  0  0  0  0
  9  1  2  0  0  0  0
 13  9  1  0  0  0  0
 14 20  1  0  0  0  0
 14 19  1  0  0  0  0
 15 14  2  0  0  0  0
 16 17  2  0  0  0  0
 16 15  1  0  0  0  0
 17 18  1  0  0  0  0
 18 22  1  0  0  0  0
 18 19  2  0  0  0  0
 21 15  1  0  0  0  0
 23  6  1  0  0  0  0
 24 25  1  0  0  0  0
 24 23  1  0  0  0  0
 25 23  1  0  0  0  0
M  END
>  <minimizedAffinity>
-4.77833176

>  <minimizedRMSD>
2.32932544

$$$$
