
 OpenBabel03262520533D

 19 21  0  0  1  0  0  0  0  0999 V2000
   37.0790   30.0420   49.4410 C   0  0  2  0  0  0  0  0  0  0  0  0
   37.2060   30.5040   50.8400 C   0  0  0  0  0  0  0  0  0  0  0  0
   37.2500   31.4840   49.6900 C   0  0  1  0  0  0  0  0  0  0  0  0
   37.9480   29.4970   49.0060 H   0  0  0  0  0  0  0  0  0  0  0  0
   38.1250   30.2260   51.3700 H   0  0  0  0  0  0  0  0  0  0  0  0
   36.2990   30.4950   51.4570 H   0  0  0  0  0  0  0  0  0  0  0  0
   36.3580   32.1540   49.5610 H   0  0  0  0  0  0  0  0  0  0  0  0
   34.0240   29.7230   47.3580 C   0  0  0  0  0  0  0  0  0  0  0  0
   33.4010   28.5800   47.9210 C   0  0  0  0  0  0  0  0  0  0  0  0
   34.0450   27.9430   49.0200 C   0  0  0  0  0  0  0  0  0  0  0  0
   35.2100   28.4640   49.4570 N   0  0  0  0  0  0  0  0  0  0  0  0
   35.7740   29.5550   48.8940 C   0  0  0  0  0  0  0  0  0  0  0  0
   35.2060   30.1880   47.8600 N   0  0  0  0  0  0  0  0  0  0  0  0
   33.5300   30.2040   46.5210 H   0  0  0  0  0  0  0  0  0  0  0  0
   32.4710   28.2040   47.5340 H   0  0  0  0  0  0  0  0  0  0  0  0
   33.6010   27.0690   49.4780 H   0  0  0  0  0  0  0  0  0  0  0  0
   38.5440   32.1960   49.4850 C   0  0  0  0  0  0  0  0  0  0  0  0
   38.9130   32.6830   48.1280 C   0  0  0  0  0  0  0  0  0  0  0  0
   38.5430   33.6400   49.2600 C   0  0  0  0  0  0  0  0  0  0  0  0
  1  4  1  6  0  0  0
  1  3  1  0  0  0  0
  1  2  1  0  0  0  0
  2  5  1  0  0  0  0
  2  6  1  0  0  0  0
  3  7  1  6  0  0  0
  3  2  1  0  0  0  0
  8 13  2  0  0  0  0
  8  9  1  0  0  0  0
  9 10  2  0  0  0  0
 10 11  1  0  0  0  0
 10 16  1  0  0  0  0
 12  1  1  0  0  0  0
 12 11  2  0  0  0  0
 13 12  1  0  0  0  0
 14  8  1  0  0  0  0
 15  9  1  0  0  0  0
 17  3  1  0  0  0  0
 18 19  1  0  0  0  0
 18 17  1  0  0  0  0
 19 17  1  0  0  0  0
M  END
>  <minimizedAffinity>
-4.91554499

>  <minimizedRMSD>
4.8560605

$$$$
