
 OpenBabel03272508183D

 19 21  0  0  0  0  0  0  0  0999 V2000
   36.3860   30.3260   48.8720 C   0  0  0  0  0  0  0  0  0  0  0  0
   37.2820   31.0020   48.0090 C   0  0  0  0  0  0  0  0  0  0  0  0
   36.9510   30.9540   46.6690 C   0  0  0  0  0  0  0  0  0  0  0  0
   35.8410   30.2990   46.2630 N   0  0  0  0  0  0  0  0  0  0  0  0
   35.0030   29.6630   47.1090 C   0  0  0  0  0  0  0  0  0  0  0  0
   35.2810   29.6790   48.4240 N   0  0  0  0  0  0  0  0  0  0  0  0
   37.6050   31.4520   45.9960 H   0  0  0  0  0  0  0  0  0  0  0  0
   34.1300   29.1540   46.7500 H   0  0  0  0  0  0  0  0  0  0  0  0
   36.7100   30.4350   50.3500 C   0  0  0  0  0  0  0  0  0  0  0  0
   36.0770   29.5560   51.3050 C   0  0  0  0  0  0  0  0  0  0  0  0
   37.4640   29.1870   50.8340 C   0  0  0  0  0  0  0  0  0  0  0  0
   37.3930   31.2960   50.6130 H   0  0  0  0  0  0  0  0  0  0  0  0
   35.2230   28.9420   50.9550 H   0  0  0  0  0  0  0  0  0  0  0  0
   35.9460   29.9430   52.3520 H   0  0  0  0  0  0  0  0  0  0  0  0
   37.5550   28.3370   50.1420 H   0  0  0  0  0  0  0  0  0  0  0  0
   38.2140   29.2490   51.6160 H   0  0  0  0  0  0  0  0  0  0  0  0
   38.4760   31.6940   48.5600 C   0  0  0  0  0  0  0  0  0  0  0  0
   38.3880   33.1120   48.9840 C   0  0  0  0  0  0  0  0  0  0  0  0
   39.1360   32.7570   47.7410 C   0  0  0  0  0  0  0  0  0  0  0  0
  1  9  1  0  0  0  0
  2 17  1  0  0  0  0
  2  1  2  0  0  0  0
  3  2  1  0  0  0  0
  4  3  2  0  0  0  0
  4  5  1  0  0  0  0
  5  6  2  0  0  0  0
  6  1  1  0  0  0  0
  7  3  1  0  0  0  0
  8  5  1  0  0  0  0
  9 12  1  0  0  0  0
  9 11  1  0  0  0  0
  9 10  1  0  0  0  0
 10 14  1  0  0  0  0
 11 10  1  0  0  0  0
 11 16  1  0  0  0  0
 13 10  1  0  0  0  0
 15 11  1  0  0  0  0
 17 18  1  0  0  0  0
 19 17  1  0  0  0  0
 19 18  1  0  0  0  0
M  END
>  <minimizedAffinity>
-4.57796097

>  <minimizedRMSD>
2.96060133

$$$$
