
 OpenBabel03272504083D

 24 26  0  0  0  0  0  0  0  0999 V2000
   38.0490   23.8160   36.3150 C   0  0  0  0  0  0  0  0  0  0  0  0
   38.8050   24.5280   35.3680 C   0  0  0  0  0  0  0  0  0  0  0  0
   40.1680   24.2870   35.2800 C   0  0  0  0  0  0  0  0  0  0  0  0
   40.7260   23.3740   36.1090 N   0  0  0  0  0  0  0  0  0  0  0  0
   39.9610   22.6930   37.0260 C   0  0  0  0  0  0  0  0  0  0  0  0
   38.6310   22.9200   37.1200 N   0  0  0  0  0  0  0  0  0  0  0  0
   40.5950   21.7440   37.8740 N   0  0  0  0  0  0  0  0  0  0  0  0
   36.9850   23.9940   36.3950 H   0  0  0  0  0  0  0  0  0  0  0  0
   40.0450   21.2540   38.5890 H   0  0  0  0  0  0  0  0  0  0  0  0
   41.5950   21.5410   37.7840 H   0  0  0  0  0  0  0  0  0  0  0  0
   38.4270   27.4150   36.2490 Cl  0  0  0  0  0  0  0  0  0  0  0  0
   37.8130   26.8240   34.7360 C   0  0  0  0  0  0  0  0  0  0  0  0
   38.0830   25.4990   34.5180 C   0  0  0  0  0  0  0  0  0  0  0  0
   37.6280   24.9230   33.3160 C   0  0  0  0  0  0  0  0  0  0  0  0
   36.9410   25.6360   32.3880 C   0  0  0  0  0  0  0  0  0  0  0  0
   36.6850   26.9750   32.6400 C   0  0  0  0  0  0  0  0  0  0  0  0
   35.8060   27.9260   31.4740 Cl  0  0  0  0  0  0  0  0  0  0  0  0
   37.1180   27.5310   33.7880 C   0  0  0  0  0  0  0  0  0  0  0  0
   37.7920   23.8850   33.0550 H   0  0  0  0  0  0  0  0  0  0  0  0
   36.5750   25.2290   31.4530 H   0  0  0  0  0  0  0  0  0  0  0  0
   36.9550   28.5850   34.0600 H   0  0  0  0  0  0  0  0  0  0  0  0
   40.9470   25.0340   34.2880 C   0  0  0  0  0  3  0  0  0  0  0  0
   41.4380   26.4070   34.5460 C   0  0  0  0  0  2  0  0  0  0  0  0
   42.4180   25.3050   34.7250 C   0  0  0  0  0  2  0  0  0  0  0  0
  1  8  1  0  0  0  0
  1  6  1  0  0  0  0
  2  1  2  0  0  0  0
  3  2  1  0  0  0  0
  3  4  2  0  0  0  0
  4  5  1  0  0  0  0
  5  6  2  0  0  0  0
  5  7  1  0  0  0  0
  7  9  1  0  0  0  0
 10  7  1  0  0  0  0
 12 11  1  0  0  0  0
 13 12  1  0  0  0  0
 13  2  1  0  0  0  0
 14 13  2  0  0  0  0
 15 16  2  0  0  0  0
 15 14  1  0  0  0  0
 16 18  1  0  0  0  0
 17 16  1  0  0  0  0
 18 21  1  0  0  0  0
 18 12  2  0  0  0  0
 19 14  1  0  0  0  0
 20 15  1  0  0  0  0
 22 23  1  0  0  0  0
 22 24  1  0  0  0  0
 22  3  1  0  0  0  0
 23 24  1  0  0  0  0
M  END
>  <minimizedAffinity>
-5.27175808

$$$$

 OpenBabel03272504083D

 24 26  0  0  0  0  0  0  0  0999 V2000
   40.8920   24.4060   35.0230 C   0  0  0  0  0  0  0  0  0  0  0  0
   39.6140   24.4530   35.6070 C   0  0  0  0  0  0  0  0  0  0  0  0
   39.3100   23.5630   36.6260 C   0  0  0  0  0  0  0  0  0  0  0  0
   40.2540   22.6790   37.0270 N   0  0  0  0  0  0  0  0  0  0  0  0
   41.4940   22.6560   36.4370 C   0  0  0  0  0  0  0  0  0  0  0  0
   41.8020   23.5190   35.4420 N   0  0  0  0  0  0  0  0  0  0  0  0
   42.4510   21.7080   36.8940 N   0  0  0  0  0  0  0  0  0  0  0  0
   41.1420   25.0930   34.2270 H   0  0  0  0  0  0  0  0  0  0  0  0
   43.3700   21.6540   36.4390 H   0  0  0  0  0  0  0  0  0  0  0  0
   42.2380   21.0760   37.6710 H   0  0  0  0  0  0  0  0  0  0  0  0
   37.7790   23.8270   33.2620 Cl  0  0  0  0  0  0  0  0  0  0  0  0
   37.7720   25.3740   34.0520 C   0  0  0  0  0  0  0  0  0  0  0  0
   38.6680   25.4620   35.0840 C   0  0  0  0  0  0  0  0  0  0  0  0
   38.7400   26.6780   35.7930 C   0  0  0  0  0  0  0  0  0  0  0  0
   37.9580   27.7420   35.4800 C   0  0  0  0  0  0  0  0  0  0  0  0
   37.0620   27.6190   34.4300 C   0  0  0  0  0  0  0  0  0  0  0  0
   36.0400   28.9630   33.9970 Cl  0  0  0  0  0  0  0  0  0  0  0  0
   36.9890   26.4580   33.7490 C   0  0  0  0  0  0  0  0  0  0  0  0
   39.4150   26.8440   36.6220 H   0  0  0  0  0  0  0  0  0  0  0  0
   37.9840   28.6920   36.0010 H   0  0  0  0  0  0  0  0  0  0  0  0
   36.3060   26.2820   32.9060 H   0  0  0  0  0  0  0  0  0  0  0  0
   37.9740   23.6210   37.2290 C   0  0  0  0  0  3  0  0  0  0  0  0
   37.6760   22.9980   38.5400 C   0  0  0  0  0  2  0  0  0  0  0  0
   37.9150   24.4650   38.5380 C   0  0  0  0  0  2  0  0  0  0  0  0
  1  6  2  0  0  0  0
  1  2  1  0  0  0  0
  2  3  2  0  0  0  0
  3  4  1  0  0  0  0
  3 22  1  0  0  0  0
  5  7  1  0  0  0  0
  5  4  2  0  0  0  0
  6  5  1  0  0  0  0
  7 10  1  0  0  0  0
  8  1  1  0  0  0  0
  9  7  1  0  0  0  0
 11 12  1  0  0  0  0
 12 13  1  0  0  0  0
 13  2  1  0  0  0  0
 13 14  2  0  0  0  0
 14 19  1  0  0  0  0
 15 14  1  0  0  0  0
 15 20  1  0  0  0  0
 16 15  2  0  0  0  0
 17 16  1  0  0  0  0
 18 12  2  0  0  0  0
 18 16  1  0  0  0  0
 21 18  1  0  0  0  0
 22 24  1  0  0  0  0
 22 23  1  0  0  0  0
 24 23  1  0  0  0  0
M  END
>  <minimizedAffinity>
-5.16802692

$$$$

 OpenBabel03272504083D

 24 26  0  0  0  0  0  0  0  0999 V2000
   38.2500   23.7700   36.6340 C   0  0  0  0  0  0  0  0  0  0  0  0
   38.9490   24.5270   35.6770 C   0  0  0  0  0  0  0  0  0  0  0  0
   40.2920   24.2590   35.4620 C   0  0  0  0  0  0  0  0  0  0  0  0
   40.8870   23.2760   36.1790 N   0  0  0  0  0  0  0  0  0  0  0  0
   40.1780   22.5540   37.1080 C   0  0  0  0  0  0  0  0  0  0  0  0
   38.8670   22.8070   37.3270 N   0  0  0  0  0  0  0  0  0  0  0  0
   40.8490   21.5320   37.8360 N   0  0  0  0  0  0  0  0  0  0  0  0
   37.2030   23.9690   36.8120 H   0  0  0  0  0  0  0  0  0  0  0  0
   40.3420   21.0080   38.5590 H   0  0  0  0  0  0  0  0  0  0  0  0
   41.8310   21.3110   37.6510 H   0  0  0  0  0  0  0  0  0  0  0  0
   37.7020   23.9780   32.9570 Cl  0  0  0  0  0  0  0  0  0  0  0  0
   37.5650   25.5220   33.7410 C   0  0  0  0  0  0  0  0  0  0  0  0
   38.1920   25.5730   34.9570 C   0  0  0  0  0  0  0  0  0  0  0  0
   38.1390   26.7840   35.6760 C   0  0  0  0  0  0  0  0  0  0  0  0
   37.4930   27.8780   35.2000 C   0  0  0  0  0  0  0  0  0  0  0  0
   36.8690   27.7920   33.9650 C   0  0  0  0  0  0  0  0  0  0  0  0
   36.0290   29.1750   33.3170 Cl  0  0  0  0  0  0  0  0  0  0  0  0
   36.9170   26.6360   33.2730 C   0  0  0  0  0  0  0  0  0  0  0  0
   38.6030   26.9210   36.6440 H   0  0  0  0  0  0  0  0  0  0  0  0
   37.4300   28.8250   35.7220 H   0  0  0  0  0  0  0  0  0  0  0  0
   36.4470   26.4900   32.2890 H   0  0  0  0  0  0  0  0  0  0  0  0
   41.0130   25.0530   34.4610 C   0  0  0  0  0  3  0  0  0  0  0  0
   42.3930   24.7220   34.0410 C   0  0  0  0  0  2  0  0  0  0  0  0
   41.3000   24.2800   33.1390 C   0  0  0  0  0  2  0  0  0  0  0  0
  1  8  1  0  0  0  0
  1  6  1  0  0  0  0
  2  1  2  0  0  0  0
  3  2  1  0  0  0  0
  3  4  2  0  0  0  0
  4  5  1  0  0  0  0
  5  6  2  0  0  0  0
  5  7  1  0  0  0  0
  7  9  1  0  0  0  0
 10  7  1  0  0  0  0
 11 12  1  0  0  0  0
 12 13  1  0  0  0  0
 13 14  2  0  0  0  0
 13  2  1  0  0  0  0
 14 19  1  0  0  0  0
 15 14  1  0  0  0  0
 15 20  1  0  0  0  0
 16 15  2  0  0  0  0
 17 16  1  0  0  0  0
 18 12  2  0  0  0  0
 18 16  1  0  0  0  0
 21 18  1  0  0  0  0
 22  3  1  0  0  0  0
 23 22  1  0  0  0  0
 24 23  1  0  0  0  0
 24 22  1  0  0  0  0
M  END
>  <minimizedAffinity>
-5.05731297

$$$$

 OpenBabel03272504083D

 24 26  0  0  0  0  0  0  0  0999 V2000
   35.8100   29.9320   31.7920 C   0  0  0  0  0  0  0  0  0  0  0  0
   35.8280   29.3740   33.0830 C   0  0  0  0  0  0  0  0  0  0  0  0
   36.5030   28.1810   33.2880 C   0  0  0  0  0  0  0  0  0  0  0  0
   37.1240   27.5910   32.2400 N   0  0  0  0  0  0  0  0  0  0  0  0
   37.0900   28.1600   30.9890 C   0  0  0  0  0  0  0  0  0  0  0  0
   36.4340   29.3240   30.7770 N   0  0  0  0  0  0  0  0  0  0  0  0
   37.7590   27.5020   29.9210 N   0  0  0  0  0  0  0  0  0  0  0  0
   35.2870   30.8620   31.6180 H   0  0  0  0  0  0  0  0  0  0  0  0
   37.7120   27.8940   28.9730 H   0  0  0  0  0  0  0  0  0  0  0  0
   38.2870   26.6390   30.0810 H   0  0  0  0  0  0  0  0  0  0  0  0
   32.8180   29.1030   33.4360 Cl  0  0  0  0  0  0  0  0  0  0  0  0
   33.7800   30.1200   34.4640 C   0  0  0  0  0  0  0  0  0  0  0  0
   35.1120   30.1100   34.1470 C   0  0  0  0  0  0  0  0  0  0  0  0
   35.9800   30.9030   34.9240 C   0  0  0  0  0  0  0  0  0  0  0  0
   35.5350   31.6620   35.9570 C   0  0  0  0  0  0  0  0  0  0  0  0
   34.1800   31.6490   36.2500 C   0  0  0  0  0  0  0  0  0  0  0  0
   33.5670   32.6100   37.5690 Cl  0  0  0  0  0  0  0  0  0  0  0  0
   33.3450   30.8920   35.5110 C   0  0  0  0  0  0  0  0  0  0  0  0
   37.0470   30.9600   34.7520 H   0  0  0  0  0  0  0  0  0  0  0  0
   36.1700   32.2840   36.5760 H   0  0  0  0  0  0  0  0  0  0  0  0
   32.2600   30.8290   35.6800 H   0  0  0  0  0  0  0  0  0  0  0  0
   36.5160   27.6070   34.6380 C   0  0  0  0  0  3  0  0  0  0  0  0
   37.3050   26.4000   34.9710 C   0  0  0  0  0  2  0  0  0  0  0  0
   37.9000   27.7090   35.3470 C   0  0  0  0  0  2  0  0  0  0  0  0
  1  2  1  0  0  0  0
  2  3  2  0  0  0  0
  2 13  1  0  0  0  0
  3 22  1  0  0  0  0
  4  3  1  0  0  0  0
  5  4  2  0  0  0  0
  6  5  1  0  0  0  0
  6  1  2  0  0  0  0
  7 10  1  0  0  0  0
  7  5  1  0  0  0  0
  8  1  1  0  0  0  0
  9  7  1  0  0  0  0
 11 12  1  0  0  0  0
 12 18  1  0  0  0  0
 13 12  2  0  0  0  0
 13 14  1  0  0  0  0
 14 15  2  0  0  0  0
 15 16  1  0  0  0  0
 15 20  1  0  0  0  0
 16 17  1  0  0  0  0
 18 21  1  0  0  0  0
 18 16  2  0  0  0  0
 19 14  1  0  0  0  0
 22 23  1  0  0  0  0
 22 24  1  0  0  0  0
 23 24  1  0  0  0  0
M  END
>  <minimizedAffinity>
-5.02079725

$$$$

 OpenBabel03272504083D

 24 26  0  0  0  0  0  0  0  0999 V2000
   38.3680   24.7810   31.9700 C   0  0  0  0  0  0  0  0  0  0  0  0
   38.2170   25.1840   33.3080 C   0  0  0  0  0  0  0  0  0  0  0  0
   37.3640   26.2380   33.5990 C   0  0  0  0  0  0  0  0  0  0  0  0
   36.7040   26.8450   32.5840 N   0  0  0  0  0  0  0  0  0  0  0  0
   36.8710   26.4290   31.2850 C   0  0  0  0  0  0  0  0  0  0  0  0
   37.7010   25.4010   30.9900 N   0  0  0  0  0  0  0  0  0  0  0  0
   36.1540   27.0980   30.2550 N   0  0  0  0  0  0  0  0  0  0  0  0
   39.0290   23.9610   31.7290 H   0  0  0  0  0  0  0  0  0  0  0  0
   36.2960   26.8230   29.2760 H   0  0  0  0  0  0  0  0  0  0  0  0
   35.4980   27.8530   30.4740 H   0  0  0  0  0  0  0  0  0  0  0  0
   41.0860   25.9520   33.9690 Cl  0  0  0  0  0  0  0  0  0  0  0  0
   40.2760   24.6350   34.7630 C   0  0  0  0  0  0  0  0  0  0  0  0
   38.9910   24.4460   34.3290 C   0  0  0  0  0  0  0  0  0  0  0  0
   38.2460   23.4010   34.9110 C   0  0  0  0  0  0  0  0  0  0  0  0
   38.7640   22.5950   35.8720 C   0  0  0  0  0  0  0  0  0  0  0  0
   40.0680   22.8150   36.2880 C   0  0  0  0  0  0  0  0  0  0  0  0
   40.7700   21.8010   37.5210 Cl  0  0  0  0  0  0  0  0  0  0  0  0
   40.7840   23.8130   35.7350 C   0  0  0  0  0  0  0  0  0  0  0  0
   37.2250   23.1730   34.6350 H   0  0  0  0  0  0  0  0  0  0  0  0
   38.2230   21.7820   36.3440 H   0  0  0  0  0  0  0  0  0  0  0  0
   41.8230   24.0490   36.0100 H   0  0  0  0  0  0  0  0  0  0  0  0
   37.2140   26.6510   34.9980 C   0  0  0  0  0  3  0  0  0  0  0  0
   38.2170   27.5010   35.6780 C   0  0  0  0  0  2  0  0  0  0  0  0
   36.9960   28.1840   35.1770 C   0  0  0  0  0  2  0  0  0  0  0  0
  1  2  1  0  0  0  0
  2  3  2  0  0  0  0
  2 13  1  0  0  0  0
  3 22  1  0  0  0  0
  4  3  1  0  0  0  0
  5  4  2  0  0  0  0
  6  5  1  0  0  0  0
  6  1  2  0  0  0  0
  7 10  1  0  0  0  0
  7  5  1  0  0  0  0
  8  1  1  0  0  0  0
  9  7  1  0  0  0  0
 11 12  1  0  0  0  0
 12 18  1  0  0  0  0
 13 12  2  0  0  0  0
 13 14  1  0  0  0  0
 14 15  2  0  0  0  0
 15 16  1  0  0  0  0
 15 20  1  0  0  0  0
 16 17  1  0  0  0  0
 18 21  1  0  0  0  0
 18 16  2  0  0  0  0
 19 14  1  0  0  0  0
 22 24  1  0  0  0  0
 22 23  1  0  0  0  0
 24 23  1  0  0  0  0
M  END
>  <minimizedAffinity>
-4.89137554

$$$$

 OpenBabel03272504083D

 24 26  0  0  0  0  0  0  0  0999 V2000
   41.1090   24.2970   33.7630 C   0  0  0  0  0  0  0  0  0  0  0  0
   39.8800   24.6090   34.3690 C   0  0  0  0  0  0  0  0  0  0  0  0
   39.6860   25.8850   34.8750 C   0  0  0  0  0  0  0  0  0  0  0  0
   40.6880   26.7900   34.7680 N   0  0  0  0  0  0  0  0  0  0  0  0
   41.8790   26.4560   34.1700 C   0  0  0  0  0  0  0  0  0  0  0  0
   42.0790   25.2140   33.6730 N   0  0  0  0  0  0  0  0  0  0  0  0
   42.8990   27.4430   34.0820 N   0  0  0  0  0  0  0  0  0  0  0  0
   41.2730   23.3050   33.3650 H   0  0  0  0  0  0  0  0  0  0  0  0
   43.8080   27.1990   33.6710 H   0  0  0  0  0  0  0  0  0  0  0  0
   42.7430   28.3960   34.4230 H   0  0  0  0  0  0  0  0  0  0  0  0
   39.3980   23.0320   36.9270 Cl  0  0  0  0  0  0  0  0  0  0  0  0
   38.5020   22.7250   35.4700 C   0  0  0  0  0  0  0  0  0  0  0  0
   38.8630   23.5370   34.4280 C   0  0  0  0  0  0  0  0  0  0  0  0
   38.1940   23.3680   33.1990 C   0  0  0  0  0  0  0  0  0  0  0  0
   37.2200   22.4380   33.0300 C   0  0  0  0  0  0  0  0  0  0  0  0
   36.8800   21.6330   34.1050 C   0  0  0  0  0  0  0  0  0  0  0  0
   35.6340   20.4270   33.9290 Cl  0  0  0  0  0  0  0  0  0  0  0  0
   37.5160   21.7910   35.2830 C   0  0  0  0  0  0  0  0  0  0  0  0
   38.4080   23.9610   32.3190 H   0  0  0  0  0  0  0  0  0  0  0  0
   36.6840   22.2790   32.1020 H   0  0  0  0  0  0  0  0  0  0  0  0
   37.3030   21.1920   36.1810 H   0  0  0  0  0  0  0  0  0  0  0  0
   38.4000   26.2010   35.5050 C   0  0  0  0  0  3  0  0  0  0  0  0
   37.9980   27.5920   35.8170 C   0  0  0  0  0  2  0  0  0  0  0  0
   37.4300   26.9970   34.5800 C   0  0  0  0  0  2  0  0  0  0  0  0
  1  2  1  0  0  0  0
  2 13  1  0  0  0  0
  2  3  2  0  0  0  0
  3 22  1  0  0  0  0
  4  3  1  0  0  0  0
  5  4  2  0  0  0  0
  6  1  2  0  0  0  0
  6  5  1  0  0  0  0
  7  5  1  0  0  0  0
  7 10  1  0  0  0  0
  8  1  1  0  0  0  0
  9  7  1  0  0  0  0
 12 11  1  0  0  0  0
 13 12  2  0  0  0  0
 14 13  1  0  0  0  0
 15 14  2  0  0  0  0
 15 16  1  0  0  0  0
 16 18  2  0  0  0  0
 17 16  1  0  0  0  0
 18 12  1  0  0  0  0
 18 21  1  0  0  0  0
 19 14  1  0  0  0  0
 20 15  1  0  0  0  0
 22 23  1  0  0  0  0
 24 22  1  0  0  0  0
 24 23  1  0  0  0  0
M  END
>  <minimizedAffinity>
-4.8572917

$$$$

 OpenBabel03272504083D

 24 26  0  0  0  0  0  0  0  0999 V2000
   37.7480   22.1540   34.5520 C   0  0  0  0  0  0  0  0  0  0  0  0
   37.1760   21.7670   33.3280 C   0  0  0  0  0  0  0  0  0  0  0  0
   36.0190   21.0020   33.3410 C   0  0  0  0  0  0  0  0  0  0  0  0
   35.4780   20.6550   34.5320 N   0  0  0  0  0  0  0  0  0  0  0  0
   36.0600   21.0480   35.7130 C   0  0  0  0  0  0  0  0  0  0  0  0
   37.1880   21.7940   35.7120 N   0  0  0  0  0  0  0  0  0  0  0  0
   35.4520   20.6570   36.9380 N   0  0  0  0  0  0  0  0  0  0  0  0
   38.6500   22.7500   34.5560 H   0  0  0  0  0  0  0  0  0  0  0  0
   35.8950   20.9120   37.8290 H   0  0  0  0  0  0  0  0  0  0  0  0
   34.5780   20.1230   36.9470 H   0  0  0  0  0  0  0  0  0  0  0  0
   39.3950   20.1030   32.0760 Cl  0  0  0  0  0  0  0  0  0  0  0  0
   38.8660   21.6070   31.3850 C   0  0  0  0  0  0  0  0  0  0  0  0
   37.8580   22.2070   32.0920 C   0  0  0  0  0  0  0  0  0  0  0  0
   37.3560   23.4330   31.6130 C   0  0  0  0  0  0  0  0  0  0  0  0
   37.8400   24.0210   30.4900 C   0  0  0  0  0  0  0  0  0  0  0  0
   38.8600   23.3870   29.7980 C   0  0  0  0  0  0  0  0  0  0  0  0
   39.5090   24.1090   28.3500 Cl  0  0  0  0  0  0  0  0  0  0  0  0
   39.3430   22.2130   30.2520 C   0  0  0  0  0  0  0  0  0  0  0  0
   36.5630   23.9820   32.1020 H   0  0  0  0  0  0  0  0  0  0  0  0
   37.4810   24.9620   30.0900 H   0  0  0  0  0  0  0  0  0  0  0  0
   40.1500   21.6500   29.7600 H   0  0  0  0  0  0  0  0  0  0  0  0
   35.4290   20.6040   32.0590 C   0  0  0  0  0  3  0  0  0  0  0  0
   35.9100   19.4230   31.3060 C   0  0  0  0  0  2  0  0  0  0  0  0
   34.6770   19.2400   32.1140 C   0  0  0  0  0  2  0  0  0  0  0  0
  1  8  1  0  0  0  0
  1  6  1  0  0  0  0
  2  3  1  0  0  0  0
  2  1  2  0  0  0  0
  3  4  2  0  0  0  0
  4  5  1  0  0  0  0
  5  7  1  0  0  0  0
  6  5  2  0  0  0  0
  7 10  1  0  0  0  0
  7  9  1  0  0  0  0
 12 11  1  0  0  0  0
 12 13  1  0  0  0  0
 13  2  1  0  0  0  0
 14 13  2  0  0  0  0
 14 19  1  0  0  0  0
 15 14  1  0  0  0  0
 16 18  1  0  0  0  0
 16 15  2  0  0  0  0
 17 16  1  0  0  0  0
 18 12  2  0  0  0  0
 20 15  1  0  0  0  0
 21 18  1  0  0  0  0
 22 24  1  0  0  0  0
 22  3  1  0  0  0  0
 23 22  1  0  0  0  0
 23 24  1  0  0  0  0
M  END
>  <minimizedAffinity>
-4.83211422

$$$$

 OpenBabel03272504083D

 24 26  0  0  0  0  0  0  0  0999 V2000
   35.9950   31.3360   35.5050 C   0  0  0  0  0  0  0  0  0  0  0  0
   35.1600   30.4330   34.8240 C   0  0  0  0  0  0  0  0  0  0  0  0
   33.8100   30.3990   35.1400 C   0  0  0  0  0  0  0  0  0  0  0  0
   33.3400   31.2370   36.0950 N   0  0  0  0  0  0  0  0  0  0  0  0
   34.1810   32.1080   36.7450 C   0  0  0  0  0  0  0  0  0  0  0  0
   35.4990   32.1500   36.4440 N   0  0  0  0  0  0  0  0  0  0  0  0
   33.6380   32.9680   37.7390 N   0  0  0  0  0  0  0  0  0  0  0  0
   37.0490   31.3730   35.2690 H   0  0  0  0  0  0  0  0  0  0  0  0
   34.2590   33.5990   38.2590 H   0  0  0  0  0  0  0  0  0  0  0  0
   32.6360   32.9670   37.9470 H   0  0  0  0  0  0  0  0  0  0  0  0
   35.2620   31.2690   31.9000 Cl  0  0  0  0  0  0  0  0  0  0  0  0
   35.9320   29.7650   32.4550 C   0  0  0  0  0  0  0  0  0  0  0  0
   35.7880   29.5690   33.8020 C   0  0  0  0  0  0  0  0  0  0  0  0
   36.3000   28.3770   34.3530 C   0  0  0  0  0  0  0  0  0  0  0  0
   36.9190   27.4390   33.5940 C   0  0  0  0  0  0  0  0  0  0  0  0
   37.0480   27.6700   32.2330 C   0  0  0  0  0  0  0  0  0  0  0  0
   37.8380   26.4890   31.2220 Cl  0  0  0  0  0  0  0  0  0  0  0  0
   36.5610   28.8080   31.7010 C   0  0  0  0  0  0  0  0  0  0  0  0
   36.2340   28.1320   35.4050 H   0  0  0  0  0  0  0  0  0  0  0  0
   37.3250   26.5110   33.9800 H   0  0  0  0  0  0  0  0  0  0  0  0
   36.6240   29.0630   30.6330 H   0  0  0  0  0  0  0  0  0  0  0  0
   32.9470   29.4550   34.4240 C   0  0  0  0  0  3  0  0  0  0  0  0
   31.4700   29.5230   34.5050 C   0  0  0  0  0  2  0  0  0  0  0  0
   32.0980   30.1160   33.2960 C   0  0  0  0  0  2  0  0  0  0  0  0
  1  6  1  0  0  0  0
  2  3  1  0  0  0  0
  2  1  2  0  0  0  0
  3  4  2  0  0  0  0
  4  5  1  0  0  0  0
  5  7  1  0  0  0  0
  6  5  2  0  0  0  0
  7 10  1  0  0  0  0
  7  9  1  0  0  0  0
  8  1  1  0  0  0  0
 11 12  1  0  0  0  0
 12 13  1  0  0  0  0
 13 14  2  0  0  0  0
 13  2  1  0  0  0  0
 14 19  1  0  0  0  0
 15 20  1  0  0  0  0
 15 14  1  0  0  0  0
 16 15  2  0  0  0  0
 17 16  1  0  0  0  0
 18 16  1  0  0  0  0
 18 12  2  0  0  0  0
 21 18  1  0  0  0  0
 22 23  1  0  0  0  0
 22  3  1  0  0  0  0
 24 22  1  0  0  0  0
 24 23  1  0  0  0  0
M  END
>  <minimizedAffinity>
-4.76082039

$$$$

 OpenBabel03272504083D

 24 26  0  0  0  0  0  0  0  0999 V2000
   38.4320   26.9660   32.7210 C   0  0  0  0  0  0  0  0  0  0  0  0
   37.9880   25.6440   32.9010 C   0  0  0  0  0  0  0  0  0  0  0  0
   37.0610   25.1210   32.0130 C   0  0  0  0  0  0  0  0  0  0  0  0
   36.6130   25.9010   31.0000 N   0  0  0  0  0  0  0  0  0  0  0  0
   37.0650   27.1900   30.8490 C   0  0  0  0  0  0  0  0  0  0  0  0
   37.9700   27.7100   31.7100 N   0  0  0  0  0  0  0  0  0  0  0  0
   36.5640   27.9670   29.7690 N   0  0  0  0  0  0  0  0  0  0  0  0
   39.1540   27.3860   33.4060 H   0  0  0  0  0  0  0  0  0  0  0  0
   36.8640   28.9440   29.6640 H   0  0  0  0  0  0  0  0  0  0  0  0
   35.9070   27.5690   29.0930 H   0  0  0  0  0  0  0  0  0  0  0  0
   40.3570   23.7690   32.5430 Cl  0  0  0  0  0  0  0  0  0  0  0  0
   39.5970   24.0120   34.0860 C   0  0  0  0  0  0  0  0  0  0  0  0
   38.5490   24.8920   34.0440 C   0  0  0  0  0  0  0  0  0  0  0  0
   37.8640   25.1590   35.2460 C   0  0  0  0  0  0  0  0  0  0  0  0
   38.2130   24.5750   36.4200 C   0  0  0  0  0  0  0  0  0  0  0  0
   39.2790   23.6890   36.4270 C   0  0  0  0  0  0  0  0  0  0  0  0
   39.7600   22.9180   37.9150 Cl  0  0  0  0  0  0  0  0  0  0  0  0
   39.9370   23.4300   35.2800 C   0  0  0  0  0  0  0  0  0  0  0  0
   37.0250   25.8390   35.3140 H   0  0  0  0  0  0  0  0  0  0  0  0
   37.7120   24.7550   37.3640 H   0  0  0  0  0  0  0  0  0  0  0  0
   40.7910   22.7410   35.2040 H   0  0  0  0  0  0  0  0  0  0  0  0
   36.6040   23.7410   32.2090 C   0  0  0  0  0  3  0  0  0  0  0  0
   35.7090   23.0650   31.2420 C   0  0  0  0  0  2  0  0  0  0  0  0
   37.1560   22.7440   31.1460 C   0  0  0  0  0  2  0  0  0  0  0  0
  1  2  1  0  0  0  0
  1  8  1  0  0  0  0
  2 13  1  0  0  0  0
  3 22  1  0  0  0  0
  3  2  2  0  0  0  0
  4  3  1  0  0  0  0
  5  4  2  0  0  0  0
  5  6  1  0  0  0  0
  6  1  2  0  0  0  0
  7  5  1  0  0  0  0
  9  7  1  0  0  0  0
 10  7  1  0  0  0  0
 11 12  1  0  0  0  0
 12 18  1  0  0  0  0
 13 12  2  0  0  0  0
 13 14  1  0  0  0  0
 14 19  1  0  0  0  0
 14 15  2  0  0  0  0
 15 16  1  0  0  0  0
 15 20  1  0  0  0  0
 16 17  1  0  0  0  0
 18 16  2  0  0  0  0
 21 18  1  0  0  0  0
 23 22  1  0  0  0  0
 24 23  1  0  0  0  0
 24 22  1  0  0  0  0
M  END
>  <minimizedAffinity>
-4.72972345

$$$$
