
 OpenBabel03272500363D

 15 16  0  0  0  0  0  0  0  0999 V2000
   38.1580   23.8850   36.9850 C   0  0  0  0  0  0  0  0  0  0  0  0
   38.1460   22.7460   36.1870 C   0  0  0  0  0  0  0  0  0  0  0  0
   38.1210   22.9120   34.7980 C   0  0  0  0  0  0  0  0  0  0  0  0
   38.1090   24.2020   34.3080 N   0  0  0  0  0  0  0  0  0  0  0  0
   38.1210   25.2710   35.1160 C   0  0  0  0  0  0  0  0  0  0  0  0
   38.1460   25.1080   36.4570 N   0  0  0  0  0  0  0  0  0  0  0  0
   38.1560   21.7750   36.6480 H   0  0  0  0  0  0  0  0  0  0  0  0
   38.1120   22.0460   34.1460 H   0  0  0  0  0  0  0  0  0  0  0  0
   38.1850   23.7140   38.4820 C   0  0  0  0  0  0  0  0  0  0  0  0
   37.9870   24.9350   39.0970 F   0  0  0  0  0  0  0  0  0  0  0  0
   37.2840   22.7550   38.8170 F   0  0  0  0  0  0  0  0  0  0  0  0
   39.4880   23.3270   38.8140 F   0  0  0  0  0  0  0  0  0  0  0  0
   38.1090   26.6460   34.5330 C   0  0  0  0  0  3  0  0  0  0  0  0
   36.8500   27.4270   34.4860 C   0  0  0  0  0  2  0  0  0  0  0  0
   37.9790   27.8310   35.4380 C   0  0  0  0  0  2  0  0  0  0  0  0
  1  9  1  0  0  0  0
  2  7  1  0  0  0  0
  2  1  2  0  0  0  0
  3  2  1  0  0  0  0
  4  3  2  0  0  0  0
  4  5  1  0  0  0  0
  5  6  2  0  0  0  0
  6  1  1  0  0  0  0
  8  3  1  0  0  0  0
  9 12  1  0  0  0  0
  9 11  1  0  0  0  0
  9 10  1  0  0  0  0
 13  5  1  0  0  0  0
 13 15  1  0  0  0  0
 14 13  1  0  0  0  0
 14 15  1  0  0  0  0
M  END
>  <minimizedAffinity>
-4.61837339

$$$$

 OpenBabel03272500363D

 15 16  0  0  0  0  0  0  0  0999 V2000
   38.1230   23.9170   36.9480 C   0  0  0  0  0  0  0  0  0  0  0  0
   38.2590   25.1980   36.4250 C   0  0  0  0  0  0  0  0  0  0  0  0
   38.2270   25.3500   35.0340 C   0  0  0  0  0  0  0  0  0  0  0  0
   38.0610   24.2130   34.2700 N   0  0  0  0  0  0  0  0  0  0  0  0
   37.9340   22.9980   34.8180 C   0  0  0  0  0  0  0  0  0  0  0  0
   37.9650   22.8540   36.1620 N   0  0  0  0  0  0  0  0  0  0  0  0
   38.3850   26.0320   37.0900 H   0  0  0  0  0  0  0  0  0  0  0  0
   38.3300   26.3340   34.5910 H   0  0  0  0  0  0  0  0  0  0  0  0
   38.1560   23.7450   38.4460 C   0  0  0  0  0  0  0  0  0  0  0  0
   37.9530   24.9640   39.0610 F   0  0  0  0  0  0  0  0  0  0  0  0
   37.2620   22.7800   38.7830 F   0  0  0  0  0  0  0  0  0  0  0  0
   39.4630   23.3650   38.7730 F   0  0  0  0  0  0  0  0  0  0  0  0
   37.7550   21.8000   33.9450 C   0  0  0  0  0  3  0  0  0  0  0  0
   36.4380   21.1250   33.8610 C   0  0  0  0  0  2  0  0  0  0  0  0
   36.9780   21.9230   32.6710 C   0  0  0  0  0  2  0  0  0  0  0  0
  1  9  1  0  0  0  0
  2  1  1  0  0  0  0
  2  7  1  0  0  0  0
  3  2  2  0  0  0  0
  4  5  2  0  0  0  0
  4  3  1  0  0  0  0
  5  6  1  0  0  0  0
  6  1  2  0  0  0  0
  8  3  1  0  0  0  0
  9 12  1  0  0  0  0
  9 11  1  0  0  0  0
  9 10  1  0  0  0  0
 13  5  1  0  0  0  0
 14 13  1  0  0  0  0
 15 14  1  0  0  0  0
 15 13  1  0  0  0  0
M  END
>  <minimizedAffinity>
-4.3044548

$$$$

 OpenBabel03272500363D

 15 16  0  0  0  0  0  0  0  0999 V2000
   39.1970   23.1170   37.3740 C   0  0  0  0  0  0  0  0  0  0  0  0
   38.6090   23.0340   36.1160 C   0  0  0  0  0  0  0  0  0  0  0  0
   39.3490   22.4540   35.0790 C   0  0  0  0  0  0  0  0  0  0  0  0
   40.6180   22.0000   35.3750 N   0  0  0  0  0  0  0  0  0  0  0  0
   41.1430   22.1010   36.6030 C   0  0  0  0  0  0  0  0  0  0  0  0
   40.4270   22.6620   37.6020 N   0  0  0  0  0  0  0  0  0  0  0  0
   37.6150   23.4120   35.9680 H   0  0  0  0  0  0  0  0  0  0  0  0
   38.9220   22.3720   34.0860 H   0  0  0  0  0  0  0  0  0  0  0  0
   38.4060   23.7410   38.4960 C   0  0  0  0  0  0  0  0  0  0  0  0
   39.2030   23.8680   39.6160 F   0  0  0  0  0  0  0  0  0  0  0  0
   37.8710   24.9050   38.0430 F   0  0  0  0  0  0  0  0  0  0  0  0
   37.4090   22.8220   38.8380 F   0  0  0  0  0  0  0  0  0  0  0  0
   42.5220   21.5930   36.8690 C   0  0  0  0  0  3  0  0  0  0  0  0
   42.7360   20.1760   37.2480 C   0  0  0  0  0  2  0  0  0  0  0  0
   43.1800   20.6880   35.8750 C   0  0  0  0  0  2  0  0  0  0  0  0
  1  6  1  0  0  0  0
  1  9  1  0  0  0  0
  2  1  2  0  0  0  0
  3  4  2  0  0  0  0
  3  2  1  0  0  0  0
  4  5  1  0  0  0  0
  5 13  1  0  0  0  0
  5  6  2  0  0  0  0
  7  2  1  0  0  0  0
  8  3  1  0  0  0  0
  9 12  1  0  0  0  0
  9 10  1  0  0  0  0
 11  9  1  0  0  0  0
 13 14  1  0  0  0  0
 15 13  1  0  0  0  0
 15 14  1  0  0  0  0
M  END
>  <minimizedAffinity>
-4.26118565

$$$$

 OpenBabel03272500363D

 15 16  0  0  0  0  0  0  0  0999 V2000
   36.1740   25.8170   31.8840 C   0  0  0  0  0  0  0  0  0  0  0  0
   35.8180   27.1240   31.5670 C   0  0  0  0  0  0  0  0  0  0  0  0
   36.3060   28.1560   32.3780 C   0  0  0  0  0  0  0  0  0  0  0  0
   37.1110   27.8070   33.4420 N   0  0  0  0  0  0  0  0  0  0  0  0
   37.4280   26.5330   33.7090 C   0  0  0  0  0  0  0  0  0  0  0  0
   36.9550   25.5390   32.9260 N   0  0  0  0  0  0  0  0  0  0  0  0
   35.1850   27.3110   30.7200 H   0  0  0  0  0  0  0  0  0  0  0  0
   36.0490   29.1860   32.1590 H   0  0  0  0  0  0  0  0  0  0  0  0
   35.6520   24.7000   31.0160 C   0  0  0  0  0  0  0  0  0  0  0  0
   34.6400   25.1710   30.2050 F   0  0  0  0  0  0  0  0  0  0  0  0
   36.7030   24.1500   30.3550 F   0  0  0  0  0  0  0  0  0  0  0  0
   35.0520   23.7750   31.8780 F   0  0  0  0  0  0  0  0  0  0  0  0
   38.3050   26.2110   34.8740 C   0  0  0  0  0  3  0  0  0  0  0  0
   39.6390   26.8450   35.0030 C   0  0  0  0  0  2  0  0  0  0  0  0
   38.5020   27.2290   35.9540 C   0  0  0  0  0  2  0  0  0  0  0  0
  1  6  1  0  0  0  0
  2  1  2  0  0  0  0
  2  3  1  0  0  0  0
  3  4  2  0  0  0  0
  4  5  1  0  0  0  0
  5 13  1  0  0  0  0
  6  5  2  0  0  0  0
  7  2  1  0  0  0  0
  8  3  1  0  0  0  0
  9 12  1  0  0  0  0
  9  1  1  0  0  0  0
 10  9  1  0  0  0  0
 11  9  1  0  0  0  0
 13 14  1  0  0  0  0
 13 15  1  0  0  0  0
 14 15  1  0  0  0  0
M  END
>  <minimizedAffinity>
-4.25571108

$$$$

 OpenBabel03272500363D

 15 16  0  0  0  0  0  0  0  0999 V2000
   37.4980   26.4340   34.6710 C   0  0  0  0  0  0  0  0  0  0  0  0
   37.0790   27.7590   34.7180 C   0  0  0  0  0  0  0  0  0  0  0  0
   36.4100   28.2800   33.6050 C   0  0  0  0  0  0  0  0  0  0  0  0
   36.2070   27.4410   32.5300 N   0  0  0  0  0  0  0  0  0  0  0  0
   36.6280   26.1690   32.5280 C   0  0  0  0  0  0  0  0  0  0  0  0
   37.2750   25.6680   33.6040 N   0  0  0  0  0  0  0  0  0  0  0  0
   37.2770   28.3470   35.5960 H   0  0  0  0  0  0  0  0  0  0  0  0
   36.0690   29.3100   33.6080 H   0  0  0  0  0  0  0  0  0  0  0  0
   38.2200   25.8650   35.8660 C   0  0  0  0  0  0  0  0  0  0  0  0
   37.4360   24.9040   36.4730 F   0  0  0  0  0  0  0  0  0  0  0  0
   39.4400   25.4300   35.4580 F   0  0  0  0  0  0  0  0  0  0  0  0
   38.3340   26.9060   36.7930 F   0  0  0  0  0  0  0  0  0  0  0  0
   36.3820   25.3030   31.3370 C   0  0  0  0  0  3  0  0  0  0  0  0
   35.6920   24.0000   31.4900 C   0  0  0  0  0  2  0  0  0  0  0  0
   34.9930   25.1710   30.7940 C   0  0  0  0  0  2  0  0  0  0  0  0
  1  2  1  0  0  0  0
  1  9  1  0  0  0  0
  2  7  1  0  0  0  0
  3  8  1  0  0  0  0
  3  2  2  0  0  0  0
  4  3  1  0  0  0  0
  5  4  2  0  0  0  0
  5  6  1  0  0  0  0
  6  1  2  0  0  0  0
  9 10  1  0  0  0  0
  9 12  1  0  0  0  0
 11  9  1  0  0  0  0
 13 14  1  0  0  0  0
 13  5  1  0  0  0  0
 15 13  1  0  0  0  0
 15 14  1  0  0  0  0
M  END
>  <minimizedAffinity>
-4.1206522

$$$$

 OpenBabel03272500363D

 15 16  0  0  0  0  0  0  0  0999 V2000
   40.0620   23.1400   36.9610 C   0  0  0  0  0  0  0  0  0  0  0  0
   39.2270   22.9980   38.0640 C   0  0  0  0  0  0  0  0  0  0  0  0
   38.0860   23.8050   38.1350 C   0  0  0  0  0  0  0  0  0  0  0  0
   37.8630   24.6910   37.1020 N   0  0  0  0  0  0  0  0  0  0  0  0
   38.6960   24.7920   36.0570 C   0  0  0  0  0  0  0  0  0  0  0  0
   39.7980   24.0130   35.9910 N   0  0  0  0  0  0  0  0  0  0  0  0
   39.4730   22.2840   38.8280 H   0  0  0  0  0  0  0  0  0  0  0  0
   37.4120   23.7220   38.9810 H   0  0  0  0  0  0  0  0  0  0  0  0
   41.2940   22.2740   36.8770 C   0  0  0  0  0  0  0  0  0  0  0  0
   41.2340   21.4820   35.7480 F   0  0  0  0  0  0  0  0  0  0  0  0
   42.3850   23.0790   36.9500 F   0  0  0  0  0  0  0  0  0  0  0  0
   41.2370   21.3940   37.9640 F   0  0  0  0  0  0  0  0  0  0  0  0
   38.4070   25.7680   34.9640 C   0  0  0  0  0  3  0  0  0  0  0  0
   37.5620   26.9570   35.2280 C   0  0  0  0  0  2  0  0  0  0  0  0
   39.0650   27.1120   34.9810 C   0  0  0  0  0  2  0  0  0  0  0  0
  1  2  1  0  0  0  0
  2  3  2  0  0  0  0
  2  7  1  0  0  0  0
  3  8  1  0  0  0  0
  4  3  1  0  0  0  0
  5  4  2  0  0  0  0
  6  5  1  0  0  0  0
  6  1  2  0  0  0  0
  9 11  1  0  0  0  0
  9  1  1  0  0  0  0
  9 12  1  0  0  0  0
 10  9  1  0  0  0  0
 13 15  1  0  0  0  0
 13 14  1  0  0  0  0
 13  5  1  0  0  0  0
 15 14  1  0  0  0  0
M  END
>  <minimizedAffinity>
-4.11326694

$$$$

 OpenBabel03272500363D

 15 16  0  0  0  0  0  0  0  0999 V2000
   38.5880   25.7190   34.7630 C   0  0  0  0  0  0  0  0  0  0  0  0
   38.5810   24.8500   33.6770 C   0  0  0  0  0  0  0  0  0  0  0  0
   38.2990   23.5000   33.9130 C   0  0  0  0  0  0  0  0  0  0  0  0
   38.0440   23.1180   35.2140 N   0  0  0  0  0  0  0  0  0  0  0  0
   38.0610   23.9910   36.2300 C   0  0  0  0  0  0  0  0  0  0  0  0
   38.3350   25.2940   35.9990 N   0  0  0  0  0  0  0  0  0  0  0  0
   38.7910   25.2290   32.6940 H   0  0  0  0  0  0  0  0  0  0  0  0
   38.2850   22.7950   33.0900 H   0  0  0  0  0  0  0  0  0  0  0  0
   38.8920   27.1750   34.5170 C   0  0  0  0  0  0  0  0  0  0  0  0
   40.2260   27.3270   34.1970 F   0  0  0  0  0  0  0  0  0  0  0  0
   38.0250   27.6370   33.5800 F   0  0  0  0  0  0  0  0  0  0  0  0
   38.7160   27.8300   35.7410 F   0  0  0  0  0  0  0  0  0  0  0  0
   37.7770   23.5240   37.6200 C   0  0  0  0  0  3  0  0  0  0  0  0
   38.8880   23.3140   38.5800 C   0  0  0  0  0  2  0  0  0  0  0  0
   37.9120   24.4800   38.7630 C   0  0  0  0  0  2  0  0  0  0  0  0
  1  6  1  0  0  0  0
  2  3  1  0  0  0  0
  2  1  2  0  0  0  0
  3  4  2  0  0  0  0
  4  5  1  0  0  0  0
  5 13  1  0  0  0  0
  6  5  2  0  0  0  0
  7  2  1  0  0  0  0
  8  3  1  0  0  0  0
  9  1  1  0  0  0  0
  9 12  1  0  0  0  0
 10  9  1  0  0  0  0
 11  9  1  0  0  0  0
 13 14  1  0  0  0  0
 13 15  1  0  0  0  0
 14 15  1  0  0  0  0
M  END
>  <minimizedAffinity>
-4.10694218

$$$$

 OpenBabel03272500363D

 15 16  0  0  0  0  0  0  0  0999 V2000
   39.1450   23.1220   37.3380 C   0  0  0  0  0  0  0  0  0  0  0  0
   40.4030   22.5900   37.5980 C   0  0  0  0  0  0  0  0  0  0  0  0
   41.1000   21.9930   36.5410 C   0  0  0  0  0  0  0  0  0  0  0  0
   40.4900   21.9730   35.3040 N   0  0  0  0  0  0  0  0  0  0  0  0
   39.2750   22.5000   35.0990 C   0  0  0  0  0  0  0  0  0  0  0  0
   38.6040   23.0750   36.1220 N   0  0  0  0  0  0  0  0  0  0  0  0
   40.8080   22.6450   38.5920 H   0  0  0  0  0  0  0  0  0  0  0  0
   42.0830   21.5680   36.7080 H   0  0  0  0  0  0  0  0  0  0  0  0
   38.3890   23.7660   38.4720 C   0  0  0  0  0  0  0  0  0  0  0  0
   39.2000   23.8530   39.5860 F   0  0  0  0  0  0  0  0  0  0  0  0
   37.8940   24.9520   38.0340 F   0  0  0  0  0  0  0  0  0  0  0  0
   37.3610   22.8810   38.8170 F   0  0  0  0  0  0  0  0  0  0  0  0
   38.6600   22.4520   33.7390 C   0  0  0  0  0  3  0  0  0  0  0  0
   38.9090   21.2950   32.8460 C   0  0  0  0  0  2  0  0  0  0  0  0
   37.5280   21.5100   33.4720 C   0  0  0  0  0  2  0  0  0  0  0  0
  1  2  1  0  0  0  0
  1  9  1  0  0  0  0
  2  7  1  0  0  0  0
  3  8  1  0  0  0  0
  3  2  2  0  0  0  0
  4  3  1  0  0  0  0
  5  4  2  0  0  0  0
  5  6  1  0  0  0  0
  6  1  2  0  0  0  0
  9 12  1  0  0  0  0
  9 10  1  0  0  0  0
 11  9  1  0  0  0  0
 13  5  1  0  0  0  0
 14 15  1  0  0  0  0
 14 13  1  0  0  0  0
 15 13  1  0  0  0  0
M  END
>  <minimizedAffinity>
-4.0778017

$$$$

 OpenBabel03272500363D

 15 16  0  0  0  0  0  0  0  0999 V2000
   39.6580   23.1370   36.1710 C   0  0  0  0  0  0  0  0  0  0  0  0
   38.8730   22.2300   35.4680 C   0  0  0  0  0  0  0  0  0  0  0  0
   38.0240   22.7250   34.4720 C   0  0  0  0  0  0  0  0  0  0  0  0
   38.0210   24.0870   34.2520 N   0  0  0  0  0  0  0  0  0  0  0  0
   38.7960   24.9240   34.9550 C   0  0  0  0  0  0  0  0  0  0  0  0
   39.6150   24.4430   35.9160 N   0  0  0  0  0  0  0  0  0  0  0  0
   38.9340   21.1830   35.7010 H   0  0  0  0  0  0  0  0  0  0  0  0
   37.3980   22.0460   33.9040 H   0  0  0  0  0  0  0  0  0  0  0  0
   40.5760   22.6120   37.2460 C   0  0  0  0  0  0  0  0  0  0  0  0
   40.1350   23.0330   38.4850 F   0  0  0  0  0  0  0  0  0  0  0  0
   40.6700   21.2650   37.1030 F   0  0  0  0  0  0  0  0  0  0  0  0
   41.8140   23.2330   37.0500 F   0  0  0  0  0  0  0  0  0  0  0  0
   38.7550   26.3900   34.6750 C   0  0  0  0  0  3  0  0  0  0  0  0
   37.4620   27.1150   34.6720 C   0  0  0  0  0  2  0  0  0  0  0  0
   38.4800   27.3480   35.7920 C   0  0  0  0  0  2  0  0  0  0  0  0
  1  9  1  0  0  0  0
  2  7  1  0  0  0  0
  2  1  2  0  0  0  0
  3  2  1  0  0  0  0
  4  3  2  0  0  0  0
  4  5  1  0  0  0  0
  5  6  2  0  0  0  0
  6  1  1  0  0  0  0
  8  3  1  0  0  0  0
  9 10  1  0  0  0  0
 11  9  1  0  0  0  0
 12  9  1  0  0  0  0
 13  5  1  0  0  0  0
 13 15  1  0  0  0  0
 14 13  1  0  0  0  0
 14 15  1  0  0  0  0
M  END
>  <minimizedAffinity>
-3.94541073

$$$$
