
 OpenBabel03272505123D

 33 36  0  0  0  0  0  0  0  0999 V2000
   36.4220   30.9000   45.7190 Cl  0  0  0  0  0  0  0  0  0  0  0  0
   36.7050   30.7910   47.4360 C   0  0  0  0  0  0  0  0  0  0  0  0
   37.9610   31.1260   47.8960 C   0  0  0  0  0  0  0  0  0  0  0  0
   38.1950   31.0430   49.2570 C   0  0  0  0  0  0  0  0  0  0  0  0
   37.2050   30.6410   50.0970 C   0  0  0  0  0  0  0  0  0  0  0  0
   35.9510   30.3140   49.5690 C   0  0  0  0  0  0  0  0  0  0  0  0
   35.6430   30.3710   48.2390 C   0  0  0  0  0  0  0  0  0  0  0  0
   39.1780   31.3050   49.6250 H   0  0  0  0  0  0  0  0  0  0  0  0
   37.4140   30.5850   51.1490 H   0  0  0  0  0  0  0  0  0  0  0  0
   35.1710   29.9930   50.2570 H   0  0  0  0  0  0  0  0  0  0  0  0
   40.2220   33.3310   46.0770 C   0  0  0  0  0  0  0  0  0  0  0  0
   40.9320   32.4700   45.2170 C   0  0  0  0  0  0  0  0  0  0  0  0
   40.6130   31.1090   45.2790 C   0  0  0  0  0  0  0  0  0  0  0  0
   39.6490   30.6970   46.1530 N   0  0  0  0  0  0  0  0  0  0  0  0
   39.0080   31.5600   46.9450 C   0  0  0  0  0  0  0  0  0  0  0  0
   39.2910   32.8610   46.9070 N   0  0  0  0  0  0  0  0  0  0  0  0
   40.5060   34.3700   45.9900 H   0  0  0  0  0  0  0  0  0  0  0  0
   41.6920   32.7140   44.5140 H   0  0  0  0  0  0  0  0  0  0  0  0
   41.0730   30.3410   44.6830 H   0  0  0  0  0  0  0  0  0  0  0  0
   34.0770   29.9660   47.5550 S   0  0  0  0  0  0  0  0  0  0  0  0
   33.8750   29.2300   44.5070 Cl  0  0  0  0  0  0  0  0  0  0  0  0
   33.8710   27.9790   45.7430 C   0  0  0  0  0  0  0  0  0  0  0  0
   33.9580   28.2320   47.1120 C   0  0  0  0  0  0  0  0  0  0  0  0
   33.9460   27.1840   47.9980 C   0  0  0  0  0  0  0  0  0  0  0  0
   33.8520   25.8990   47.5540 C   0  0  0  0  0  0  0  0  0  0  0  0
   33.7640   25.5990   46.2090 C   0  0  0  0  0  0  0  0  0  0  0  0
   33.7760   26.6500   45.3390 C   0  0  0  0  0  0  0  0  0  0  0  0
   34.0180   27.4850   49.0350 H   0  0  0  0  0  0  0  0  0  0  0  0
   33.8480   25.1170   48.3020 H   0  0  0  0  0  0  0  0  0  0  0  0
   33.6910   24.5740   45.9150 H   0  0  0  0  0  0  0  0  0  0  0  0
   33.6820   26.3670   43.8830 C   0  0  0  0  0  3  0  0  0  0  0  0
   34.9390   26.0420   43.1680 C   0  0  0  0  0  2  0  0  0  0  0  0
   33.8670   24.9490   43.3870 C   0  0  0  0  0  2  0  0  0  0  0  0
  1  2  1  0  0  0  0
  2  3  2  0  0  0  0
  2  7  1  0  0  0  0
  3  4  1  0  0  0  0
  4  8  1  0  0  0  0
  4  5  2  0  0  0  0
  5  9  1  0  0  0  0
  6  5  1  0  0  0  0
  6 10  1  0  0  0  0
  7  6  2  0  0  0  0
 11 16  1  0  0  0  0
 12 13  1  0  0  0  0
 12 11  2  0  0  0  0
 13 14  2  0  0  0  0
 14 15  1  0  0  0  0
 15  3  1  0  0  0  0
 16 15  2  0  0  0  0
 17 11  1  0  0  0  0
 18 12  1  0  0  0  0
 19 13  1  0  0  0  0
 20  7  1  0  0  0  0
 21 22  1  0  0  0  0
 22 23  1  0  0  0  0
 23 20  1  0  0  0  0
 23 24  2  0  0  0  0
 24 28  1  0  0  0  0
 25 24  1  0  0  0  0
 25 29  1  0  0  0  0
 26 25  2  0  0  0  0
 27 22  2  0  0  0  0
 27 26  1  0  0  0  0
 30 26  1  0  0  0  0
 31 27  1  0  0  0  0
 32 33  1  0  0  0  0
 32 31  1  0  0  0  0
 33 31  1  0  0  0  0
M  END
>  <minimizedAffinity>
-5.68306208

>  <minimizedRMSD>
0.690507293

$$$$
