
 OpenBabel03262523303D

 25 28  0  0  0  0  0  0  0  0999 V2000
   37.7930   26.7680   35.7010 C   0  0  0  0  0  0  0  0  0  0  0  0
   37.9970   25.4680   35.2960 C   0  0  0  0  0  0  0  0  0  0  0  0
   37.6830   25.0820   34.0140 C   0  0  0  0  0  0  0  0  0  0  0  0
   37.1600   26.0410   33.1520 C   0  0  0  0  0  0  0  0  0  0  0  0
   36.7780   25.8940   31.8540 N   0  0  0  0  0  0  0  0  0  0  0  0
   36.3350   27.1000   31.4390 C   0  0  0  0  0  0  0  0  0  0  0  0
   36.4270   27.9870   32.4300 N   0  0  0  0  0  0  0  0  0  0  0  0
   36.9370   27.3570   33.5150 C   0  0  0  0  0  0  0  0  0  0  0  0
   37.2670   27.7100   34.8210 C   0  0  0  0  0  0  0  0  0  0  0  0
   38.0220   27.1260   36.6950 H   0  0  0  0  0  0  0  0  0  0  0  0
   37.8410   24.0610   33.6880 H   0  0  0  0  0  0  0  0  0  0  0  0
   36.8050   25.0360   31.2520 H   0  0  0  0  0  0  0  0  0  0  0  0
   35.9400   27.4180   30.4700 H   0  0  0  0  0  0  0  0  0  0  0  0
   37.1060   28.7250   35.1290 H   0  0  0  0  0  0  0  0  0  0  0  0
   38.7190   23.4770   38.3990 C   0  0  0  0  0  0  0  0  0  0  0  0
   38.0950   24.4070   37.5720 C   0  0  0  0  0  0  0  0  0  0  0  0
   38.5520   24.5380   36.2750 C   0  0  0  0  0  0  0  0  0  0  0  0
   39.5880   23.7500   35.8760 N   0  0  0  0  0  0  0  0  0  0  0  0
   40.1780   22.8520   36.7010 C   0  0  0  0  0  0  0  0  0  0  0  0
   39.7510   22.7130   37.9520 N   0  0  0  0  0  0  0  0  0  0  0  0
   38.3540   23.3830   39.4100 H   0  0  0  0  0  0  0  0  0  0  0  0
   37.2860   25.0200   37.8880 H   0  0  0  0  0  0  0  0  0  0  0  0
   41.3060   22.0240   36.1950 C   0  0  0  0  0  3  0  0  0  0  0  0
   42.2130   21.3100   37.1020 C   0  0  0  0  0  2  0  0  0  0  0  0
   42.6960   22.5960   36.5580 C   0  0  0  0  0  2  0  0  0  0  0  0
  1 10  1  0  0  0  0
  2  1  1  0  0  0  0
  2 17  1  0  0  0  0
  3  2  2  0  0  0  0
  4  8  2  0  0  0  0
  4  3  1  0  0  0  0
  5  4  1  0  0  0  0
  6  5  1  0  0  0  0
  6  7  2  0  0  0  0
  7  8  1  0  0  0  0
  8  9  1  0  0  0  0
  9 14  1  0  0  0  0
  9  1  2  0  0  0  0
 11  3  1  0  0  0  0
 12  5  1  0  0  0  0
 13  6  1  0  0  0  0
 15 21  1  0  0  0  0
 16 22  1  0  0  0  0
 16 15  2  0  0  0  0
 17 16  1  0  0  0  0
 18 17  2  0  0  0  0
 18 19  1  0  0  0  0
 19 20  2  0  0  0  0
 20 15  1  0  0  0  0
 23 25  1  0  0  0  0
 23 19  1  0  0  0  0
 23 24  1  0  0  0  0
 25 24  1  0  0  0  0
M  END
>  <minimizedAffinity>
-5.30457926

$$$$

 OpenBabel03262523303D

 25 28  0  0  0  0  0  0  0  0999 V2000
   37.2920   26.6830   34.2830 C   0  0  0  0  0  0  0  0  0  0  0  0
   37.7400   25.6060   33.5520 C   0  0  0  0  0  0  0  0  0  0  0  0
   37.7960   25.6710   32.1800 C   0  0  0  0  0  0  0  0  0  0  0  0
   37.3890   26.8510   31.5650 C   0  0  0  0  0  0  0  0  0  0  0  0
   37.3560   27.1450   30.2360 N   0  0  0  0  0  0  0  0  0  0  0  0
   36.8880   28.4070   30.1280 C   0  0  0  0  0  0  0  0  0  0  0  0
   36.6310   28.9050   31.3380 N   0  0  0  0  0  0  0  0  0  0  0  0
   36.9320   27.9580   32.2580 C   0  0  0  0  0  0  0  0  0  0  0  0
   36.8900   27.8540   33.6460 C   0  0  0  0  0  0  0  0  0  0  0  0
   37.2280   26.6870   35.3630 H   0  0  0  0  0  0  0  0  0  0  0  0
   38.1470   24.8270   31.5980 H   0  0  0  0  0  0  0  0  0  0  0  0
   37.6290   26.5450   29.4220 H   0  0  0  0  0  0  0  0  0  0  0  0
   36.7070   29.0260   29.2440 H   0  0  0  0  0  0  0  0  0  0  0  0
   36.5400   28.6980   34.2080 H   0  0  0  0  0  0  0  0  0  0  0  0
   39.1470   22.2720   34.5650 C   0  0  0  0  0  0  0  0  0  0  0  0
   38.8240   23.3450   33.7400 C   0  0  0  0  0  0  0  0  0  0  0  0
   38.1440   24.4140   34.2920 C   0  0  0  0  0  0  0  0  0  0  0  0
   37.8280   24.3590   35.6150 N   0  0  0  0  0  0  0  0  0  0  0  0
   38.1540   23.3010   36.3970 C   0  0  0  0  0  0  0  0  0  0  0  0
   38.8070   22.2660   35.8820 N   0  0  0  0  0  0  0  0  0  0  0  0
   39.6770   21.4430   34.1230 H   0  0  0  0  0  0  0  0  0  0  0  0
   39.0730   23.3840   32.7070 H   0  0  0  0  0  0  0  0  0  0  0  0
   37.7750   23.3110   37.8360 C   0  0  0  0  0  3  0  0  0  0  0  0
   37.9190   24.5100   38.6700 C   0  0  0  0  0  2  0  0  0  0  0  0
   38.9810   23.4890   38.7870 C   0  0  0  0  0  2  0  0  0  0  0  0
  1 10  1  0  0  0  0
  2  1  2  0  0  0  0
  2 17  1  0  0  0  0
  3  2  1  0  0  0  0
  4  3  2  0  0  0  0
  4  8  1  0  0  0  0
  5  4  1  0  0  0  0
  6  5  1  0  0  0  0
  6  7  2  0  0  0  0
  7  8  1  0  0  0  0
  8  9  2  0  0  0  0
  9 14  1  0  0  0  0
  9  1  1  0  0  0  0
 11  3  1  0  0  0  0
 12  5  1  0  0  0  0
 13  6  1  0  0  0  0
 15 20  1  0  0  0  0
 16 17  1  0  0  0  0
 16 15  2  0  0  0  0
 17 18  2  0  0  0  0
 18 19  1  0  0  0  0
 19 23  1  0  0  0  0
 20 19  2  0  0  0  0
 21 15  1  0  0  0  0
 22 16  1  0  0  0  0
 23 24  1  0  0  0  0
 23 25  1  0  0  0  0
 24 25  1  0  0  0  0
M  END
>  <minimizedAffinity>
-5.08832788

$$$$

 OpenBabel03262523303D

 25 28  0  0  0  0  0  0  0  0999 V2000
   34.7120   31.5890   33.5530 C   0  0  0  0  0  0  0  0  0  0  0  0
   35.2440   30.6280   34.3820 C   0  0  0  0  0  0  0  0  0  0  0  0
   35.3250   30.8470   35.7380 C   0  0  0  0  0  0  0  0  0  0  0  0
   34.8530   32.0580   36.2330 C   0  0  0  0  0  0  0  0  0  0  0  0
   34.8300   32.4940   37.5230 N   0  0  0  0  0  0  0  0  0  0  0  0
   34.2820   33.7280   37.5070 C   0  0  0  0  0  0  0  0  0  0  0  0
   33.9660   34.0730   36.2580 N   0  0  0  0  0  0  0  0  0  0  0  0
   34.3110   33.0520   35.4380 C   0  0  0  0  0  0  0  0  0  0  0  0
   34.2470   32.7950   34.0710 C   0  0  0  0  0  0  0  0  0  0  0  0
   34.6240   31.4700   32.4810 H   0  0  0  0  0  0  0  0  0  0  0  0
   35.7430   30.0960   36.3970 H   0  0  0  0  0  0  0  0  0  0  0  0
   35.1590   32.0050   38.3890 H   0  0  0  0  0  0  0  0  0  0  0  0
   34.0790   34.4280   38.3240 H   0  0  0  0  0  0  0  0  0  0  0  0
   33.8290   33.5480   33.4310 H   0  0  0  0  0  0  0  0  0  0  0  0
   35.9360   27.7980   32.0100 C   0  0  0  0  0  0  0  0  0  0  0  0
   35.4220   29.0070   32.4690 C   0  0  0  0  0  0  0  0  0  0  0  0
   35.7120   29.3910   33.7650 C   0  0  0  0  0  0  0  0  0  0  0  0
   36.4860   28.5650   34.5220 N   0  0  0  0  0  0  0  0  0  0  0  0
   36.9740   27.3920   34.0500 C   0  0  0  0  0  0  0  0  0  0  0  0
   36.7050   27.0080   32.8070 N   0  0  0  0  0  0  0  0  0  0  0  0
   35.7030   27.5080   30.9970 H   0  0  0  0  0  0  0  0  0  0  0  0
   34.8180   29.6490   31.8750 H   0  0  0  0  0  0  0  0  0  0  0  0
   37.8130   26.5400   34.9350 C   0  0  0  0  0  3  0  0  0  0  0  0
   38.4250   27.0620   36.1640 C   0  0  0  0  0  2  0  0  0  0  0  0
   39.2980   26.9730   34.9740 C   0  0  0  0  0  2  0  0  0  0  0  0
  1  9  2  0  0  0  0
  1  2  1  0  0  0  0
  2  3  2  0  0  0  0
  3  4  1  0  0  0  0
  3 11  1  0  0  0  0
  4  5  1  0  0  0  0
  5 12  1  0  0  0  0
  6  5  1  0  0  0  0
  6 13  1  0  0  0  0
  7  6  2  0  0  0  0
  8  4  2  0  0  0  0
  8  7  1  0  0  0  0
  9  8  1  0  0  0  0
 10  1  1  0  0  0  0
 14  9  1  0  0  0  0
 15 16  2  0  0  0  0
 15 20  1  0  0  0  0
 16 17  1  0  0  0  0
 17  2  1  0  0  0  0
 17 18  2  0  0  0  0
 19 18  1  0  0  0  0
 19 23  1  0  0  0  0
 20 19  2  0  0  0  0
 21 15  1  0  0  0  0
 22 16  1  0  0  0  0
 23 25  1  0  0  0  0
 23 24  1  0  0  0  0
 25 24  1  0  0  0  0
M  END
>  <minimizedAffinity>
-5.08173943

$$$$

 OpenBabel03262523303D

 25 28  0  0  0  0  0  0  0  0999 V2000
   36.0810   20.9510   34.8680 C   0  0  0  0  0  0  0  0  0  0  0  0
   37.2930   21.5820   34.7000 C   0  0  0  0  0  0  0  0  0  0  0  0
   37.8920   21.6180   33.4620 C   0  0  0  0  0  0  0  0  0  0  0  0
   37.2360   21.0030   32.4010 C   0  0  0  0  0  0  0  0  0  0  0  0
   37.6310   20.9110   31.1010 N   0  0  0  0  0  0  0  0  0  0  0  0
   36.6690   20.2230   30.4490 C   0  0  0  0  0  0  0  0  0  0  0  0
   35.6940   19.8870   31.2950 N   0  0  0  0  0  0  0  0  0  0  0  0
   36.0190   20.3580   32.5230 C   0  0  0  0  0  0  0  0  0  0  0  0
   35.4430   20.3420   33.7910 C   0  0  0  0  0  0  0  0  0  0  0  0
   35.5650   20.8920   35.8170 H   0  0  0  0  0  0  0  0  0  0  0  0
   38.8460   22.1130   33.3220 H   0  0  0  0  0  0  0  0  0  0  0  0
   38.5000   21.2840   30.6480 H   0  0  0  0  0  0  0  0  0  0  0  0
   36.5910   19.9300   29.3980 H   0  0  0  0  0  0  0  0  0  0  0  0
   34.4980   19.8490   33.9140 H   0  0  0  0  0  0  0  0  0  0  0  0
   37.9010   23.3760   37.9440 C   0  0  0  0  0  0  0  0  0  0  0  0
   37.1910   22.8340   36.8770 C   0  0  0  0  0  0  0  0  0  0  0  0
   37.8990   22.1970   35.8760 C   0  0  0  0  0  0  0  0  0  0  0  0
   39.2550   22.1340   35.9890 N   0  0  0  0  0  0  0  0  0  0  0  0
   39.9220   22.6710   37.0390 C   0  0  0  0  0  0  0  0  0  0  0  0
   39.2570   23.2870   38.0100 N   0  0  0  0  0  0  0  0  0  0  0  0
   37.3380   23.8720   38.7200 H   0  0  0  0  0  0  0  0  0  0  0  0
   36.1330   22.8850   36.7930 H   0  0  0  0  0  0  0  0  0  0  0  0
   41.4060   22.5640   37.0950 C   0  0  0  0  0  3  0  0  0  0  0  0
   42.1610   21.7360   36.1470 C   0  0  0  0  0  2  0  0  0  0  0  0
   41.9040   21.1520   37.4810 C   0  0  0  0  0  2  0  0  0  0  0  0
  1 10  1  0  0  0  0
  2  1  1  0  0  0  0
  2 17  1  0  0  0  0
  3  2  2  0  0  0  0
  4  8  2  0  0  0  0
  4  3  1  0  0  0  0
  5  4  1  0  0  0  0
  6  5  1  0  0  0  0
  6  7  2  0  0  0  0
  7  8  1  0  0  0  0
  8  9  1  0  0  0  0
  9 14  1  0  0  0  0
  9  1  2  0  0  0  0
 11  3  1  0  0  0  0
 12  5  1  0  0  0  0
 13  6  1  0  0  0  0
 15 20  1  0  0  0  0
 15 21  1  0  0  0  0
 16 15  2  0  0  0  0
 17 18  2  0  0  0  0
 17 16  1  0  0  0  0
 18 19  1  0  0  0  0
 19 23  1  0  0  0  0
 19 20  2  0  0  0  0
 22 16  1  0  0  0  0
 23 25  1  0  0  0  0
 24 23  1  0  0  0  0
 24 25  1  0  0  0  0
M  END
>  <minimizedAffinity>
-5.0323329

$$$$

 OpenBabel03262523303D

 25 28  0  0  0  0  0  0  0  0999 V2000
   37.4750   27.1720   32.4550 C   0  0  0  0  0  0  0  0  0  0  0  0
   37.4870   27.0410   33.8250 C   0  0  0  0  0  0  0  0  0  0  0  0
   36.7570   27.9000   34.6120 C   0  0  0  0  0  0  0  0  0  0  0  0
   36.0150   28.8930   33.9820 C   0  0  0  0  0  0  0  0  0  0  0  0
   35.2250   29.8470   34.5470 N   0  0  0  0  0  0  0  0  0  0  0  0
   34.7150   30.5810   33.5340 C   0  0  0  0  0  0  0  0  0  0  0  0
   35.1580   30.1170   32.3650 N   0  0  0  0  0  0  0  0  0  0  0  0
   35.9730   29.0640   32.6100 C   0  0  0  0  0  0  0  0  0  0  0  0
   36.7250   28.1750   31.8450 C   0  0  0  0  0  0  0  0  0  0  0  0
   38.0290   26.5260   31.7880 H   0  0  0  0  0  0  0  0  0  0  0  0
   36.7620   27.8030   35.6920 H   0  0  0  0  0  0  0  0  0  0  0  0
   35.0220   30.0190   35.5610 H   0  0  0  0  0  0  0  0  0  0  0  0
   34.0370   31.4390   33.5480 H   0  0  0  0  0  0  0  0  0  0  0  0
   36.7100   28.2830   30.7780 H   0  0  0  0  0  0  0  0  0  0  0  0
   40.1810   24.5160   34.5220 C   0  0  0  0  0  0  0  0  0  0  0  0
   39.5150   25.5560   33.8800 C   0  0  0  0  0  0  0  0  0  0  0  0
   38.2980   25.9660   34.3890 C   0  0  0  0  0  0  0  0  0  0  0  0
   37.8160   25.3310   35.4930 N   0  0  0  0  0  0  0  0  0  0  0  0
   38.4850   24.3200   36.1000 C   0  0  0  0  0  0  0  0  0  0  0  0
   39.6570   23.9130   35.6230 N   0  0  0  0  0  0  0  0  0  0  0  0
   41.1300   24.2030   34.1150 H   0  0  0  0  0  0  0  0  0  0  0  0
   39.8940   26.0500   33.0190 H   0  0  0  0  0  0  0  0  0  0  0  0
   37.8970   23.6720   37.3030 C   0  0  0  0  0  3  0  0  0  0  0  0
   37.8810   24.3340   38.6130 C   0  0  0  0  0  2  0  0  0  0  0  0
   38.9440   23.3320   38.3900 C   0  0  0  0  0  2  0  0  0  0  0  0
  1  2  1  0  0  0  0
  2 17  1  0  0  0  0
  2  3  2  0  0  0  0
  3 11  1  0  0  0  0
  4  5  1  0  0  0  0
  4  3  1  0  0  0  0
  5 12  1  0  0  0  0
  6 13  1  0  0  0  0
  6  5  1  0  0  0  0
  7  8  1  0  0  0  0
  7  6  2  0  0  0  0
  8  4  2  0  0  0  0
  9  1  2  0  0  0  0
  9  8  1  0  0  0  0
 10  1  1  0  0  0  0
 14  9  1  0  0  0  0
 15 20  1  0  0  0  0
 16 17  1  0  0  0  0
 16 15  2  0  0  0  0
 17 18  2  0  0  0  0
 18 19  1  0  0  0  0
 19 23  1  0  0  0  0
 20 19  2  0  0  0  0
 21 15  1  0  0  0  0
 22 16  1  0  0  0  0
 23 25  1  0  0  0  0
 23 24  1  0  0  0  0
 25 24  1  0  0  0  0
M  END
>  <minimizedAffinity>
-5.02480841

$$$$

 OpenBabel03262523303D

 25 28  0  0  0  0  0  0  0  0999 V2000
   36.5540   27.9980   34.6180 C   0  0  0  0  0  0  0  0  0  0  0  0
   37.2940   27.2260   33.7510 C   0  0  0  0  0  0  0  0  0  0  0  0
   37.3680   27.5540   32.4180 C   0  0  0  0  0  0  0  0  0  0  0  0
   36.6780   28.6800   31.9820 C   0  0  0  0  0  0  0  0  0  0  0  0
   36.6040   29.1940   30.7240 N   0  0  0  0  0  0  0  0  0  0  0  0
   35.8180   30.2900   30.7960 C   0  0  0  0  0  0  0  0  0  0  0  0
   35.4030   30.4740   32.0500 N   0  0  0  0  0  0  0  0  0  0  0  0
   35.9210   29.4840   32.8160 C   0  0  0  0  0  0  0  0  0  0  0  0
   35.8700   29.1210   34.1590 C   0  0  0  0  0  0  0  0  0  0  0  0
   36.4610   27.7870   35.6740 H   0  0  0  0  0  0  0  0  0  0  0  0
   37.9490   26.9510   31.7290 H   0  0  0  0  0  0  0  0  0  0  0  0
   37.0500   28.8450   29.8420 H   0  0  0  0  0  0  0  0  0  0  0  0
   35.5020   30.9920   30.0180 H   0  0  0  0  0  0  0  0  0  0  0  0
   35.2920   29.7280   34.8280 H   0  0  0  0  0  0  0  0  0  0  0  0
   39.4030   24.1550   34.2440 C   0  0  0  0  0  0  0  0  0  0  0  0
   38.8110   25.2280   33.5830 C   0  0  0  0  0  0  0  0  0  0  0  0
   37.9820   26.0640   34.3060 C   0  0  0  0  0  0  0  0  0  0  0  0
   37.7910   25.7940   35.6270 N   0  0  0  0  0  0  0  0  0  0  0  0
   38.3800   24.7420   36.2470 C   0  0  0  0  0  0  0  0  0  0  0  0
   39.1790   23.9280   35.5660 N   0  0  0  0  0  0  0  0  0  0  0  0
   40.0480   23.5090   33.6690 H   0  0  0  0  0  0  0  0  0  0  0  0
   38.9630   25.4360   32.5520 H   0  0  0  0  0  0  0  0  0  0  0  0
   38.1240   24.5080   37.6940 C   0  0  0  0  0  3  0  0  0  0  0  0
   38.7890   23.4300   38.4360 C   0  0  0  0  0  2  0  0  0  0  0  0
   37.4080   23.1680   37.9800 C   0  0  0  0  0  2  0  0  0  0  0  0
  1 10  1  0  0  0  0
  2 17  1  0  0  0  0
  2  1  2  0  0  0  0
  3  2  1  0  0  0  0
  4  3  2  0  0  0  0
  4  8  1  0  0  0  0
  5  6  1  0  0  0  0
  5  4  1  0  0  0  0
  6  7  2  0  0  0  0
  7  8  1  0  0  0  0
  8  9  2  0  0  0  0
  9  1  1  0  0  0  0
  9 14  1  0  0  0  0
 11  3  1  0  0  0  0
 12  5  1  0  0  0  0
 13  6  1  0  0  0  0
 15 20  1  0  0  0  0
 16 15  2  0  0  0  0
 16 17  1  0  0  0  0
 17 18  2  0  0  0  0
 18 19  1  0  0  0  0
 19 23  1  0  0  0  0
 20 19  2  0  0  0  0
 21 15  1  0  0  0  0
 22 16  1  0  0  0  0
 23 25  1  0  0  0  0
 23 24  1  0  0  0  0
 25 24  1  0  0  0  0
M  END
>  <minimizedAffinity>
-4.92749691

$$$$

 OpenBabel03262523303D

 25 28  0  0  0  0  0  0  0  0999 V2000
   37.7120   27.8190   35.4500 C   0  0  0  0  0  0  0  0  0  0  0  0
   37.0100   27.5330   34.3010 C   0  0  0  0  0  0  0  0  0  0  0  0
   37.1300   26.3020   33.7010 C   0  0  0  0  0  0  0  0  0  0  0  0
   37.9740   25.3670   34.2910 C   0  0  0  0  0  0  0  0  0  0  0  0
   38.2490   24.0980   33.8820 N   0  0  0  0  0  0  0  0  0  0  0  0
   39.1230   23.5820   34.7730 C   0  0  0  0  0  0  0  0  0  0  0  0
   39.3990   24.4820   35.7170 N   0  0  0  0  0  0  0  0  0  0  0  0
   38.6990   25.6090   35.4440 C   0  0  0  0  0  0  0  0  0  0  0  0
   38.5520   26.8670   36.0230 C   0  0  0  0  0  0  0  0  0  0  0  0
   37.6560   28.7690   35.9630 H   0  0  0  0  0  0  0  0  0  0  0  0
   36.5810   26.0700   32.7960 H   0  0  0  0  0  0  0  0  0  0  0  0
   37.8800   23.5790   33.0490 H   0  0  0  0  0  0  0  0  0  0  0  0
   39.5960   22.5970   34.8170 H   0  0  0  0  0  0  0  0  0  0  0  0
   39.1020   27.0820   36.9190 H   0  0  0  0  0  0  0  0  0  0  0  0
   34.7830   29.6280   32.1160 C   0  0  0  0  0  0  0  0  0  0  0  0
   35.5840   28.5560   32.5010 C   0  0  0  0  0  0  0  0  0  0  0  0
   36.1510   28.5830   33.7600 C   0  0  0  0  0  0  0  0  0  0  0  0
   35.8940   29.6560   34.5580 N   0  0  0  0  0  0  0  0  0  0  0  0
   35.1100   30.6870   34.1590 C   0  0  0  0  0  0  0  0  0  0  0  0
   34.5580   30.6770   32.9510 N   0  0  0  0  0  0  0  0  0  0  0  0
   34.3460   29.5960   31.1300 H   0  0  0  0  0  0  0  0  0  0  0  0
   35.7820   27.7200   31.8750 H   0  0  0  0  0  0  0  0  0  0  0  0
   34.8740   31.8280   35.0840 C   0  0  0  0  0  3  0  0  0  0  0  0
   35.3000   31.7890   36.4890 C   0  0  0  0  0  2  0  0  0  0  0  0
   33.8760   31.5000   36.2190 C   0  0  0  0  0  2  0  0  0  0  0  0
  1 10  1  0  0  0  0
  1  9  1  0  0  0  0
  2  1  2  0  0  0  0
  3  4  2  0  0  0  0
  3  2  1  0  0  0  0
  4  8  1  0  0  0  0
  5  4  1  0  0  0  0
  5  6  1  0  0  0  0
  6 13  1  0  0  0  0
  6  7  2  0  0  0  0
  8  7  1  0  0  0  0
  8  9  2  0  0  0  0
  9 14  1  0  0  0  0
 11  3  1  0  0  0  0
 12  5  1  0  0  0  0
 15 16  2  0  0  0  0
 15 20  1  0  0  0  0
 16 17  1  0  0  0  0
 17  2  1  0  0  0  0
 17 18  2  0  0  0  0
 19 18  1  0  0  0  0
 19 23  1  0  0  0  0
 20 19  2  0  0  0  0
 21 15  1  0  0  0  0
 22 16  1  0  0  0  0
 23 25  1  0  0  0  0
 23 24  1  0  0  0  0
 25 24  1  0  0  0  0
M  END
>  <minimizedAffinity>
-4.92097187

$$$$

 OpenBabel03262523303D

 25 28  0  0  0  0  0  0  0  0999 V2000
   38.2180   25.3670   33.4940 C   0  0  0  0  0  0  0  0  0  0  0  0
   37.5890   26.2830   34.3070 C   0  0  0  0  0  0  0  0  0  0  0  0
   37.4940   26.0630   35.6610 C   0  0  0  0  0  0  0  0  0  0  0  0
   38.0510   24.8950   36.1730 C   0  0  0  0  0  0  0  0  0  0  0  0
   38.0790   24.4670   37.4650 N   0  0  0  0  0  0  0  0  0  0  0  0
   38.7260   23.2810   37.4680 C   0  0  0  0  0  0  0  0  0  0  0  0
   39.0990   22.9600   36.2290 N   0  0  0  0  0  0  0  0  0  0  0  0
   38.6910   23.9470   35.3960 C   0  0  0  0  0  0  0  0  0  0  0  0
   38.7670   24.2050   34.0290 C   0  0  0  0  0  0  0  0  0  0  0  0
   38.3210   25.4890   32.4250 H   0  0  0  0  0  0  0  0  0  0  0  0
   37.0010   26.7790   36.3070 H   0  0  0  0  0  0  0  0  0  0  0  0
   37.6910   24.9300   38.3210 H   0  0  0  0  0  0  0  0  0  0  0  0
   38.9650   22.6030   38.2930 H   0  0  0  0  0  0  0  0  0  0  0  0
   39.2600   23.4860   33.4030 H   0  0  0  0  0  0  0  0  0  0  0  0
   36.5870   28.9530   31.8600 C   0  0  0  0  0  0  0  0  0  0  0  0
   37.1660   27.7770   32.3300 C   0  0  0  0  0  0  0  0  0  0  0  0
   37.0380   27.4770   33.6720 C   0  0  0  0  0  0  0  0  0  0  0  0
   36.3510   28.3470   34.4630 N   0  0  0  0  0  0  0  0  0  0  0  0
   35.7960   29.4860   33.9800 C   0  0  0  0  0  0  0  0  0  0  0  0
   35.9100   29.7900   32.6910 N   0  0  0  0  0  0  0  0  0  0  0  0
   36.6940   29.1780   30.8100 H   0  0  0  0  0  0  0  0  0  0  0  0
   37.7010   27.1010   31.7090 H   0  0  0  0  0  0  0  0  0  0  0  0
   35.0600   30.3900   34.9030 C   0  0  0  0  0  3  0  0  0  0  0  0
   35.0530   31.8470   34.7220 C   0  0  0  0  0  2  0  0  0  0  0  0
   35.9890   31.3080   35.7320 C   0  0  0  0  0  2  0  0  0  0  0  0
  1  9  2  0  0  0  0
  1  2  1  0  0  0  0
  2  3  2  0  0  0  0
  3  4  1  0  0  0  0
  3 11  1  0  0  0  0
  4  5  1  0  0  0  0
  5  6  1  0  0  0  0
  5 12  1  0  0  0  0
  6 13  1  0  0  0  0
  7  6  2  0  0  0  0
  8  4  2  0  0  0  0
  8  7  1  0  0  0  0
  9  8  1  0  0  0  0
 10  1  1  0  0  0  0
 14  9  1  0  0  0  0
 15 16  2  0  0  0  0
 15 20  1  0  0  0  0
 16 17  1  0  0  0  0
 17  2  1  0  0  0  0
 17 18  2  0  0  0  0
 19 18  1  0  0  0  0
 19 23  1  0  0  0  0
 20 19  2  0  0  0  0
 21 15  1  0  0  0  0
 22 16  1  0  0  0  0
 23 25  1  0  0  0  0
 24 23  1  0  0  0  0
 24 25  1  0  0  0  0
M  END
>  <minimizedAffinity>
-4.89329529

$$$$

 OpenBabel03262523303D

 25 28  0  0  0  0  0  0  0  0999 V2000
   36.3280   28.0130   32.6880 C   0  0  0  0  0  0  0  0  0  0  0  0
   35.9280   28.6350   33.8490 C   0  0  0  0  0  0  0  0  0  0  0  0
   36.6830   28.5240   34.9930 C   0  0  0  0  0  0  0  0  0  0  0  0
   37.8510   27.7710   34.9340 C   0  0  0  0  0  0  0  0  0  0  0  0
   38.7490   27.5220   35.9270 N   0  0  0  0  0  0  0  0  0  0  0  0
   39.7150   26.7440   35.3930 C   0  0  0  0  0  0  0  0  0  0  0  0
   39.4500   26.5020   34.1090 N   0  0  0  0  0  0  0  0  0  0  0  0
   38.2920   27.1280   33.7910 C   0  0  0  0  0  0  0  0  0  0  0  0
   37.5010   27.2640   32.6530 C   0  0  0  0  0  0  0  0  0  0  0  0
   35.7740   28.0670   31.7610 H   0  0  0  0  0  0  0  0  0  0  0  0
   36.3750   29.0110   35.9110 H   0  0  0  0  0  0  0  0  0  0  0  0
   38.7370   27.8470   36.9230 H   0  0  0  0  0  0  0  0  0  0  0  0
   40.6170   26.3190   35.8430 H   0  0  0  0  0  0  0  0  0  0  0  0
   37.8190   26.7770   31.7520 H   0  0  0  0  0  0  0  0  0  0  0  0
   32.5810   30.0660   32.9180 C   0  0  0  0  0  0  0  0  0  0  0  0
   33.7180   29.2680   32.8320 C   0  0  0  0  0  0  0  0  0  0  0  0
   34.6870   29.4030   33.8070 C   0  0  0  0  0  0  0  0  0  0  0  0
   34.4760   30.3100   34.8010 N   0  0  0  0  0  0  0  0  0  0  0  0
   33.3600   31.0750   34.8610 C   0  0  0  0  0  0  0  0  0  0  0  0
   32.4180   30.9580   33.9310 N   0  0  0  0  0  0  0  0  0  0  0  0
   31.8310   29.9530   32.1500 H   0  0  0  0  0  0  0  0  0  0  0  0
   33.8780   28.5600   32.0550 H   0  0  0  0  0  0  0  0  0  0  0  0
   33.1980   32.0470   35.9770 C   0  0  0  0  0  3  0  0  0  0  0  0
   34.0880   32.0440   37.1450 C   0  0  0  0  0  2  0  0  0  0  0  0
   32.7740   31.3850   37.3090 C   0  0  0  0  0  2  0  0  0  0  0  0
  1  2  1  0  0  0  0
  2  3  2  0  0  0  0
  3 11  1  0  0  0  0
  4  3  1  0  0  0  0
  4  5  1  0  0  0  0
  5 12  1  0  0  0  0
  6 13  1  0  0  0  0
  6  5  1  0  0  0  0
  7  6  2  0  0  0  0
  8  7  1  0  0  0  0
  8  4  2  0  0  0  0
  9  1  2  0  0  0  0
  9  8  1  0  0  0  0
 10  1  1  0  0  0  0
 14  9  1  0  0  0  0
 15 20  1  0  0  0  0
 16 15  2  0  0  0  0
 16 17  1  0  0  0  0
 17  2  1  0  0  0  0
 17 18  2  0  0  0  0
 18 19  1  0  0  0  0
 19 23  1  0  0  0  0
 20 19  2  0  0  0  0
 21 15  1  0  0  0  0
 22 16  1  0  0  0  0
 23 24  1  0  0  0  0
 23 25  1  0  0  0  0
 24 25  1  0  0  0  0
M  END
>  <minimizedAffinity>
-4.82527733

$$$$
