
 OpenBabel03272507373D

 13 14  0  0  0  0  0  0  0  0999 V2000
   41.0200   22.4530   37.0030 C   0  0  0  0  0  0  0  0  0  0  0  0
   39.9180   23.2070   36.5660 C   0  0  0  0  0  0  0  0  0  0  0  0
   40.1660   24.1350   35.5670 C   0  0  0  0  0  0  0  0  0  0  0  0
   41.4220   24.2730   35.0680 N   0  0  0  0  0  0  0  0  0  0  0  0
   42.4640   23.5310   35.5100 C   0  0  0  0  0  0  0  0  0  0  0  0
   42.2490   22.6320   36.4710 N   0  0  0  0  0  0  0  0  0  0  0  0
   39.4210   24.7700   35.1470 H   0  0  0  0  0  0  0  0  0  0  0  0
   43.4680   23.6290   35.1230 H   0  0  0  0  0  0  0  0  0  0  0  0
   38.5560   23.0540   37.1120 C   0  0  0  0  0  3  0  0  0  0  0  0
   37.4950   24.0600   37.0630 C   0  0  0  0  0  2  0  0  0  0  0  0
   38.2640   23.9570   38.3110 C   0  0  0  0  0  2  0  0  0  0  0  0
   40.6880   21.5550   37.9980 O   0  0  0  0  0  0  0  0  0  0  0  0
   41.3640   20.8150   38.1750 H   0  0  0  0  0  0  0  0  0  0  0  0
  1 12  1  0  0  0  0
  2  1  1  0  0  0  0
  2  9  1  0  0  0  0
  3  2  2  0  0  0  0
  4  5  2  0  0  0  0
  4  3  1  0  0  0  0
  5  6  1  0  0  0  0
  6  1  2  0  0  0  0
  7  3  1  0  0  0  0
  8  5  1  0  0  0  0
  9 11  1  0  0  0  0
 10  9  1  0  0  0  0
 10 11  1  0  0  0  0
 12 13  1  0  0  0  0
M  END
>  <minimizedAffinity>
-3.53370643

$$$$

 OpenBabel03272507373D

 13 14  0  0  0  0  0  0  0  0999 V2000
   37.4410   22.0540   35.6200 C   0  0  0  0  0  0  0  0  0  0  0  0
   37.8990   23.1780   36.3270 C   0  0  0  0  0  0  0  0  0  0  0  0
   38.6720   24.0800   35.6130 C   0  0  0  0  0  0  0  0  0  0  0  0
   38.9450   23.8470   34.3020 N   0  0  0  0  0  0  0  0  0  0  0  0
   38.4870   22.7540   33.6480 C   0  0  0  0  0  0  0  0  0  0  0  0
   37.7420   21.8730   34.3160 N   0  0  0  0  0  0  0  0  0  0  0  0
   39.0820   24.9700   36.0270 H   0  0  0  0  0  0  0  0  0  0  0  0
   38.6950   22.5560   32.6060 H   0  0  0  0  0  0  0  0  0  0  0  0
   37.6010   23.4250   37.7500 C   0  0  0  0  0  3  0  0  0  0  0  0
   38.0360   24.5850   38.5280 C   0  0  0  0  0  2  0  0  0  0  0  0
   38.8280   23.3540   38.6610 C   0  0  0  0  0  2  0  0  0  0  0  0
   36.6800   21.2080   36.4040 O   0  0  0  0  0  0  0  0  0  0  0  0
   36.1140   20.5250   35.9040 H   0  0  0  0  0  0  0  0  0  0  0  0
  1  2  1  0  0  0  0
  1 12  1  0  0  0  0
  2  9  1  0  0  0  0
  3  7  1  0  0  0  0
  3  2  2  0  0  0  0
  4  3  1  0  0  0  0
  5  4  2  0  0  0  0
  5  6  1  0  0  0  0
  6  1  2  0  0  0  0
  8  5  1  0  0  0  0
  9 10  1  0  0  0  0
  9 11  1  0  0  0  0
 10 11  1  0  0  0  0
 13 12  1  0  0  0  0
M  END
>  <minimizedAffinity>
-3.49163651

$$$$

 OpenBabel03272507373D

 13 14  0  0  0  0  0  0  0  0999 V2000
   38.6860   23.8260   37.6640 C   0  0  0  0  0  0  0  0  0  0  0  0
   38.7180   24.4150   36.3900 C   0  0  0  0  0  0  0  0  0  0  0  0
   39.6780   23.9320   35.5130 C   0  0  0  0  0  0  0  0  0  0  0  0
   40.5190   22.9410   35.9100 N   0  0  0  0  0  0  0  0  0  0  0  0
   40.4610   22.3930   37.1470 C   0  0  0  0  0  0  0  0  0  0  0  0
   39.5470   22.8430   38.0060 N   0  0  0  0  0  0  0  0  0  0  0  0
   39.8100   24.2900   34.5200 H   0  0  0  0  0  0  0  0  0  0  0  0
   41.1230   21.6050   37.4770 H   0  0  0  0  0  0  0  0  0  0  0  0
   37.8040   25.4910   35.9630 C   0  0  0  0  0  3  0  0  0  0  0  0
   37.9910   26.3680   34.8070 C   0  0  0  0  0  2  0  0  0  0  0  0
   38.3860   26.8970   36.1200 C   0  0  0  0  0  2  0  0  0  0  0  0
   37.7050   24.3650   38.4730 O   0  0  0  0  0  0  0  0  0  0  0  0
   37.4600   23.8230   39.2990 H   0  0  0  0  0  0  0  0  0  0  0  0
  1  6  1  0  0  0  0
  1 12  1  0  0  0  0
  2  1  2  0  0  0  0
  3  4  2  0  0  0  0
  3  2  1  0  0  0  0
  4  5  1  0  0  0  0
  5  8  1  0  0  0  0
  5  6  2  0  0  0  0
  7  3  1  0  0  0  0
  9 11  1  0  0  0  0
  9  2  1  0  0  0  0
 10  9  1  0  0  0  0
 10 11  1  0  0  0  0
 12 13  1  0  0  0  0
M  END
>  <minimizedAffinity>
-3.43010163

$$$$

 OpenBabel03272507373D

 13 14  0  0  0  0  0  0  0  0999 V2000
   39.2520   26.7320   35.5540 C   0  0  0  0  0  0  0  0  0  0  0  0
   38.8200   25.4030   35.6930 C   0  0  0  0  0  0  0  0  0  0  0  0
   39.4120   24.4730   34.8520 C   0  0  0  0  0  0  0  0  0  0  0  0
   40.3550   24.8730   33.9580 N   0  0  0  0  0  0  0  0  0  0  0  0
   40.7500   26.1630   33.8500 C   0  0  0  0  0  0  0  0  0  0  0  0
   40.1930   27.0740   34.6490 N   0  0  0  0  0  0  0  0  0  0  0  0
   39.1760   23.4350   34.8530 H   0  0  0  0  0  0  0  0  0  0  0  0
   41.4980   26.4970   33.1450 H   0  0  0  0  0  0  0  0  0  0  0  0
   37.7960   24.9730   36.6630 C   0  0  0  0  0  3  0  0  0  0  0  0
   38.0460   24.5270   38.0340 C   0  0  0  0  0  2  0  0  0  0  0  0
   37.8590   23.4850   37.0140 C   0  0  0  0  0  2  0  0  0  0  0  0
   38.6130   27.5910   36.4270 O   0  0  0  0  0  0  0  0  0  0  0  0
   39.0500   28.5010   36.5580 H   0  0  0  0  0  0  0  0  0  0  0  0
  1  2  1  0  0  0  0
  1 12  1  0  0  0  0
  2  9  1  0  0  0  0
  3  7  1  0  0  0  0
  3  2  2  0  0  0  0
  4  3  1  0  0  0  0
  5  4  2  0  0  0  0
  5  6  1  0  0  0  0
  6  1  2  0  0  0  0
  8  5  1  0  0  0  0
  9 11  1  0  0  0  0
  9 10  1  0  0  0  0
 11 10  1  0  0  0  0
 12 13  1  0  0  0  0
M  END
>  <minimizedAffinity>
-3.3858974

$$$$

 OpenBabel03272507373D

 13 14  0  0  0  0  0  0  0  0999 V2000
   39.2640   22.9980   37.1560 C   0  0  0  0  0  0  0  0  0  0  0  0
   40.5070   22.9570   36.5040 C   0  0  0  0  0  0  0  0  0  0  0  0
   40.5120   23.3240   35.1670 C   0  0  0  0  0  0  0  0  0  0  0  0
   39.3520   23.6950   34.5630 N   0  0  0  0  0  0  0  0  0  0  0  0
   38.1690   23.7250   35.2210 C   0  0  0  0  0  0  0  0  0  0  0  0
   38.1420   23.3760   36.5070 N   0  0  0  0  0  0  0  0  0  0  0  0
   41.3840   23.3370   34.5570 H   0  0  0  0  0  0  0  0  0  0  0  0
   37.2390   24.0180   34.7540 H   0  0  0  0  0  0  0  0  0  0  0  0
   41.7630   22.5530   37.1630 C   0  0  0  0  0  3  0  0  0  0  0  0
   42.9840   22.1160   36.4870 C   0  0  0  0  0  2  0  0  0  0  0  0
   42.0940   21.0670   37.0070 C   0  0  0  0  0  2  0  0  0  0  0  0
   39.3470   22.6180   38.4820 O   0  0  0  0  0  0  0  0  0  0  0  0
   38.5530   22.8660   39.0680 H   0  0  0  0  0  0  0  0  0  0  0  0
  1 12  1  0  0  0  0
  2  1  2  0  0  0  0
  2  9  1  0  0  0  0
  3  2  1  0  0  0  0
  4  3  2  0  0  0  0
  4  5  1  0  0  0  0
  5  6  2  0  0  0  0
  6  1  1  0  0  0  0
  7  3  1  0  0  0  0
  8  5  1  0  0  0  0
 10 11  1  0  0  0  0
 10  9  1  0  0  0  0
 11  9  1  0  0  0  0
 12 13  1  0  0  0  0
M  END
>  <minimizedAffinity>
-3.35533953

$$$$

 OpenBabel03272507373D

 13 14  0  0  0  0  0  0  0  0999 V2000
   38.5920   26.3750   35.9920 C   0  0  0  0  0  0  0  0  0  0  0  0
   39.0910   26.0770   34.7140 C   0  0  0  0  0  0  0  0  0  0  0  0
   38.9940   24.7540   34.3090 C   0  0  0  0  0  0  0  0  0  0  0  0
   38.4390   23.8320   35.1400 N   0  0  0  0  0  0  0  0  0  0  0  0
   37.9660   24.1520   36.3670 C   0  0  0  0  0  0  0  0  0  0  0  0
   38.0490   25.4190   36.7760 N   0  0  0  0  0  0  0  0  0  0  0  0
   39.3330   24.3940   33.3670 H   0  0  0  0  0  0  0  0  0  0  0  0
   37.5220   23.4310   37.0380 H   0  0  0  0  0  0  0  0  0  0  0  0
   39.6930   27.0810   33.8170 C   0  0  0  0  0  3  0  0  0  0  0  0
   40.5060   26.7970   32.6340 C   0  0  0  0  0  2  0  0  0  0  0  0
   41.2210   27.1260   33.8750 C   0  0  0  0  0  2  0  0  0  0  0  0
   38.7270   27.7110   36.3160 O   0  0  0  0  0  0  0  0  0  0  0  0
   38.1670   28.0390   37.1010 H   0  0  0  0  0  0  0  0  0  0  0  0
  1 12  1  0  0  0  0
  1  6  1  0  0  0  0
  2  1  2  0  0  0  0
  3  2  1  0  0  0  0
  3  4  2  0  0  0  0
  4  5  1  0  0  0  0
  5  6  2  0  0  0  0
  5  8  1  0  0  0  0
  7  3  1  0  0  0  0
  9 11  1  0  0  0  0
  9  2  1  0  0  0  0
 10  9  1  0  0  0  0
 10 11  1  0  0  0  0
 12 13  1  0  0  0  0
M  END
>  <minimizedAffinity>
-3.32144856

$$$$

 OpenBabel03272507373D

 13 14  0  0  0  0  0  0  0  0999 V2000
   38.2070   27.5300   35.2180 C   0  0  0  0  0  0  0  0  0  0  0  0
   39.2060   27.0730   34.3430 C   0  0  0  0  0  0  0  0  0  0  0  0
   38.8560   26.9820   33.0040 C   0  0  0  0  0  0  0  0  0  0  0  0
   37.6030   27.3270   32.6080 N   0  0  0  0  0  0  0  0  0  0  0  0
   36.6620   27.7660   33.4770 C   0  0  0  0  0  0  0  0  0  0  0  0
   36.9770   27.8610   34.7690 N   0  0  0  0  0  0  0  0  0  0  0  0
   39.5170   26.6500   32.2390 H   0  0  0  0  0  0  0  0  0  0  0  0
   35.6620   28.0440   33.1760 H   0  0  0  0  0  0  0  0  0  0  0  0
   40.5640   26.6980   34.7780 C   0  0  0  0  0  3  0  0  0  0  0  0
   41.5680   26.0120   33.9640 C   0  0  0  0  0  2  0  0  0  0  0  0
   40.7830   25.1890   34.8950 C   0  0  0  0  0  2  0  0  0  0  0  0
   38.6370   27.5910   36.5290 O   0  0  0  0  0  0  0  0  0  0  0  0
   38.0630   28.1440   37.1620 H   0  0  0  0  0  0  0  0  0  0  0  0
  1 12  1  0  0  0  0
  2  9  1  0  0  0  0
  2  1  2  0  0  0  0
  3  2  1  0  0  0  0
  4  3  2  0  0  0  0
  4  5  1  0  0  0  0
  5  6  2  0  0  0  0
  6  1  1  0  0  0  0
  7  3  1  0  0  0  0
  8  5  1  0  0  0  0
  9 11  1  0  0  0  0
 10  9  1  0  0  0  0
 10 11  1  0  0  0  0
 12 13  1  0  0  0  0
M  END
>  <minimizedAffinity>
-3.31906557

$$$$

 OpenBabel03272507373D

 13 14  0  0  0  0  0  0  0  0999 V2000
   34.8290   31.7070   36.6210 C   0  0  0  0  0  0  0  0  0  0  0  0
   33.5330   31.2750   36.2980 C   0  0  0  0  0  0  0  0  0  0  0  0
   33.4200   30.4400   35.1970 C   0  0  0  0  0  0  0  0  0  0  0  0
   34.5310   30.0860   34.5000 N   0  0  0  0  0  0  0  0  0  0  0  0
   35.7680   30.5190   34.8380 C   0  0  0  0  0  0  0  0  0  0  0  0
   35.9000   31.3240   35.8930 N   0  0  0  0  0  0  0  0  0  0  0  0
   32.4980   30.0420   34.8450 H   0  0  0  0  0  0  0  0  0  0  0  0
   36.6610   30.2470   34.2940 H   0  0  0  0  0  0  0  0  0  0  0  0
   32.3290   31.6630   37.0570 C   0  0  0  0  0  3  0  0  0  0  0  0
   30.9520   31.6110   36.5660 C   0  0  0  0  0  2  0  0  0  0  0  0
   31.6320   32.9130   36.5180 C   0  0  0  0  0  2  0  0  0  0  0  0
   34.8520   32.5340   37.7280 O   0  0  0  0  0  0  0  0  0  0  0  0
   35.7620   32.6720   38.1630 H   0  0  0  0  0  0  0  0  0  0  0  0
  1 12  1  0  0  0  0
  2  1  1  0  0  0  0
  2  9  1  0  0  0  0
  3  2  2  0  0  0  0
  4  5  2  0  0  0  0
  4  3  1  0  0  0  0
  5  6  1  0  0  0  0
  6  1  2  0  0  0  0
  7  3  1  0  0  0  0
  8  5  1  0  0  0  0
 10  9  1  0  0  0  0
 11 10  1  0  0  0  0
 11  9  1  0  0  0  0
 12 13  1  0  0  0  0
M  END
>  <minimizedAffinity>
-3.27442694

$$$$

 OpenBabel03272507373D

 13 14  0  0  0  0  0  0  0  0999 V2000
   37.9790   27.2410   35.2940 C   0  0  0  0  0  0  0  0  0  0  0  0
   38.1590   25.8600   35.1180 C   0  0  0  0  0  0  0  0  0  0  0  0
   37.6150   25.3110   33.9670 C   0  0  0  0  0  0  0  0  0  0  0  0
   36.9520   26.1060   33.0870 N   0  0  0  0  0  0  0  0  0  0  0  0
   36.7960   27.4360   33.2860 C   0  0  0  0  0  0  0  0  0  0  0  0
   37.3110   27.9850   34.3860 N   0  0  0  0  0  0  0  0  0  0  0  0
   37.6790   24.2800   33.7120 H   0  0  0  0  0  0  0  0  0  0  0  0
   36.2720   28.0810   32.5950 H   0  0  0  0  0  0  0  0  0  0  0  0
   38.8780   25.0000   36.0770 C   0  0  0  0  0  3  0  0  0  0  0  0
   38.7580   23.5460   36.1830 C   0  0  0  0  0  2  0  0  0  0  0  0
   37.9750   24.3550   37.1290 C   0  0  0  0  0  2  0  0  0  0  0  0
   38.5500   27.7060   36.4640 O   0  0  0  0  0  0  0  0  0  0  0  0
   38.6790   28.7130   36.5270 H   0  0  0  0  0  0  0  0  0  0  0  0
  1 12  1  0  0  0  0
  2  1  1  0  0  0  0
  2  9  1  0  0  0  0
  3  2  2  0  0  0  0
  4  5  2  0  0  0  0
  4  3  1  0  0  0  0
  5  6  1  0  0  0  0
  6  1  2  0  0  0  0
  7  3  1  0  0  0  0
  8  5  1  0  0  0  0
  9 10  1  0  0  0  0
  9 11  1  0  0  0  0
 10 11  1  0  0  0  0
 12 13  1  0  0  0  0
M  END
>  <minimizedAffinity>
-3.25945592

$$$$
