
 OpenBabel03272500383D

 30 32  0  0  1  0  0  0  0  0999 V2000
   37.0370   30.6380   49.1120 C   0  0  0  0  0  0  0  0  0  0  0  0
   37.1590   31.7540   49.9520 C   0  0  0  0  0  0  0  0  0  0  0  0
   37.8510   32.8650   49.4630 C   0  0  0  0  0  0  0  0  0  0  0  0
   38.3600   32.7810   48.2010 N   0  0  0  0  0  0  0  0  0  0  0  0
   38.2210   31.6810   47.4190 C   0  0  0  0  0  0  0  0  0  0  0  0
   37.5600   30.6250   47.8900 N   0  0  0  0  0  0  0  0  0  0  0  0
   38.7860   31.7200   46.1240 N   0  0  0  0  0  0  0  0  0  0  0  0
   40.1540   31.2480   45.9460 C   0  0  0  0  0  0  0  0  0  0  0  0
   40.8220   32.3100   45.0590 C   0  0  0  0  0  0  0  0  0  0  0  0
   40.1950   32.0870   43.7090 C   0  0  0  0  0  0  0  0  0  0  0  0
   38.7740   32.5550   43.7890 C   0  0  0  0  0  0  0  0  0  0  0  0
   38.0370   32.2130   45.0370 C   0  0  1  0  0  0  0  0  0  0  0  0
   36.7460   31.7940   50.9470 H   0  0  0  0  0  0  0  0  0  0  0  0
   37.9920   33.7650   50.0420 H   0  0  0  0  0  0  0  0  0  0  0  0
   40.7150   31.2420   46.9060 H   0  0  0  0  0  0  0  0  0  0  0  0
   40.1860   30.2500   45.4710 H   0  0  0  0  0  0  0  0  0  0  0  0
   40.4910   33.3100   45.4060 H   0  0  0  0  0  0  0  0  0  0  0  0
   41.9200   32.1780   45.0460 H   0  0  0  0  0  0  0  0  0  0  0  0
   40.7270   32.6630   42.9410 H   0  0  0  0  0  0  0  0  0  0  0  0
   40.1660   30.9880   43.4470 H   0  0  0  0  0  0  0  0  0  0  0  0
   38.8050   33.6480   43.5930 H   0  0  0  0  0  0  0  0  0  0  0  0
   38.2880   32.1350   42.8680 H   0  0  0  0  0  0  0  0  0  0  0  0
   37.6030   33.1970   45.4140 H   0  0  0  0  0  0  0  0  0  0  0  0
   36.2880   29.4410   49.6190 C   0  0  0  0  0  0  0  0  0  0  0  0
   35.3440   29.8520   50.5750 F   0  0  0  0  0  0  0  0  0  0  0  0
   35.7240   28.7930   48.5670 F   0  0  0  0  0  0  0  0  0  0  0  0
   37.1960   28.6420   50.2980 F   0  0  0  0  0  0  0  0  0  0  0  0
   36.8300   31.4040   44.6350 C   0  0  0  0  0  0  0  0  0  0  0  0
   36.5060   30.9820   43.2860 C   0  0  0  0  0  0  0  0  0  0  0  0
   37.0760   29.9450   44.2030 C   0  0  0  0  0  0  0  0  0  0  0  0
  1 24  1  0  0  0  0
  1  2  1  0  0  0  0
  2 13  1  0  0  0  0
  3  2  2  0  0  0  0
  3 14  1  0  0  0  0
  4  3  1  0  0  0  0
  5  6  1  0  0  0  0
  5  4  2  0  0  0  0
  6  1  2  0  0  0  0
  7  5  1  0  0  0  0
  8  7  1  0  0  0  0
  8 15  1  0  0  0  0
  9 17  1  0  0  0  0
  9  8  1  0  0  0  0
 10 11  1  0  0  0  0
 10  9  1  0  0  0  0
 11 12  1  0  0  0  0
 12 23  1  1  0  0  0
 12  7  1  0  0  0  0
 16  8  1  0  0  0  0
 18  9  1  0  0  0  0
 19 10  1  0  0  0  0
 20 10  1  0  0  0  0
 21 11  1  0  0  0  0
 22 11  1  0  0  0  0
 24 27  1  0  0  0  0
 24 25  1  0  0  0  0
 26 24  1  0  0  0  0
 28 12  1  0  0  0  0
 29 30  1  0  0  0  0
 29 28  1  0  0  0  0
 30 28  1  0  0  0  0
M  END
>  <minimizedAffinity>
-6.14666986

>  <minimizedRMSD>
1.01895547

$$$$
