
 OpenBabel03272504483D

 21 23  0  0  0  0  0  0  0  0999 V2000
   36.3220   31.1480   49.7670 C   0  0  0  0  0  0  0  0  0  0  0  0
   37.3320   31.3480   48.8070 C   0  0  0  0  0  0  0  0  0  0  0  0
   37.1190   30.8260   47.5290 C   0  0  0  0  0  0  0  0  0  0  0  0
   35.9500   30.1570   47.2870 N   0  0  0  0  0  0  0  0  0  0  0  0
   35.0030   29.9860   48.2370 C   0  0  0  0  0  0  0  0  0  0  0  0
   35.2060   30.4860   49.4630 N   0  0  0  0  0  0  0  0  0  0  0  0
   36.4710   31.5470   50.7640 H   0  0  0  0  0  0  0  0  0  0  0  0
   37.8660   30.9530   46.7530 H   0  0  0  0  0  0  0  0  0  0  0  0
   33.7830   29.2650   47.9180 C   0  0  0  0  0  0  0  0  0  0  0  0
   33.3270   28.2950   48.7820 C   0  0  0  0  0  0  0  0  0  0  0  0
   32.1680   27.5800   48.5210 C   0  0  0  0  0  0  0  0  0  0  0  0
   31.5160   27.9120   47.3460 C   0  0  0  0  0  0  0  0  0  0  0  0
   31.9560   28.8870   46.4590 C   0  0  0  0  0  0  0  0  0  0  0  0
   33.1080   29.5410   46.7970 N   0  0  0  0  0  0  0  0  0  0  0  0
   33.8350   28.0280   49.7080 H   0  0  0  0  0  0  0  0  0  0  0  0
   31.7850   26.8120   49.1800 H   0  0  0  0  0  0  0  0  0  0  0  0
   30.5920   27.3990   47.0600 H   0  0  0  0  0  0  0  0  0  0  0  0
   31.4010   29.1010   45.5560 H   0  0  0  0  0  0  0  0  0  0  0  0
   38.5680   32.0840   49.1490 C   0  0  0  0  0  0  0  0  0  0  0  0
   38.5530   33.5140   49.4590 C   0  0  0  0  0  0  0  0  0  0  0  0
   39.0510   33.0970   48.1210 C   0  0  0  0  0  0  0  0  0  0  0  0
  1  7  1  0  0  0  0
  2 19  1  0  0  0  0
  2  1  2  0  0  0  0
  3  2  1  0  0  0  0
  4  3  2  0  0  0  0
  4  5  1  0  0  0  0
  5  6  2  0  0  0  0
  6  1  1  0  0  0  0
  8  3  1  0  0  0  0
  9  5  1  0  0  0  0
  9 10  1  0  0  0  0
 10 15  1  0  0  0  0
 11 10  2  0  0  0  0
 11 16  1  0  0  0  0
 12 11  1  0  0  0  0
 13 14  1  0  0  0  0
 13 12  2  0  0  0  0
 14  9  2  0  0  0  0
 17 12  1  0  0  0  0
 18 13  1  0  0  0  0
 19 20  1  0  0  0  0
 21 19  1  0  0  0  0
 21 20  1  0  0  0  0
M  END
>  <minimizedAffinity>
-4.81856918

>  <minimizedRMSD>
2.55702376

$$$$
