
 OpenBabel03272506563D

 14 15  0  0  0  0  0  0  0  0999 V2000
   36.5570   29.6730   51.0470 C   0  0  0  0  0  0  0  0  0  0  0  0
   37.4210   30.2170   50.0860 C   0  0  0  0  0  0  0  0  0  0  0  0
   37.0090   30.1210   48.7340 C   0  0  0  0  0  0  0  0  0  0  0  0
   35.8220   29.5210   48.4460 N   0  0  0  0  0  0  0  0  0  0  0  0
   35.0430   29.0210   49.4150 C   0  0  0  0  0  0  0  0  0  0  0  0
   35.3740   29.0770   50.7210 N   0  0  0  0  0  0  0  0  0  0  0  0
   36.9160   29.7690   52.0650 H   0  0  0  0  0  0  0  0  0  0  0  0
   37.6320   30.5210   47.9620 H   0  0  0  0  0  0  0  0  0  0  0  0
   38.6450   30.8290   50.4540 N   0  0  0  0  0  0  0  0  0  0  0  0
   39.0330   31.7140   50.0840 H   0  0  0  0  0  0  0  0  0  0  0  0
   39.2090   30.3210   51.1830 H   0  0  0  0  0  0  0  0  0  0  0  0
   33.7480   28.3660   49.0890 C   0  0  0  0  0  3  0  0  0  0  0  0
   33.8730   27.1480   48.1550 C   0  0  0  0  0  2  0  0  0  0  0  0
   33.1940   28.4510   47.7160 C   0  0  0  0  0  2  0  0  0  0  0  0
  1  7  1  0  0  0  0
  2  9  1  0  0  0  0
  2  1  2  0  0  0  0
  3  2  1  0  0  0  0
  4  3  2  0  0  0  0
  4  5  1  0  0  0  0
  5  6  2  0  0  0  0
  6  1  1  0  0  0  0
  8  3  1  0  0  0  0
  9 11  1  0  0  0  0
 10  9  1  0  0  0  0
 12  5  1  0  0  0  0
 13 12  1  0  0  0  0
 14 13  1  0  0  0  0
 14 12  1  0  0  0  0
M  END
>  <minimizedAffinity>
-3.93079948

>  <minimizedRMSD>
0.642665982

$$$$
