
 OpenBabel03262521013D

 31 33  0  0  1  0  0  0  0  0999 V2000
   39.9320   32.3220   43.4580 N   0  0  0  0  0  0  0  0  0  0  0  0
   38.9200   32.1870   44.4820 C   0  0  1  0  0  0  0  0  0  0  0  0
   37.6960   31.4970   43.9390 C   0  0  0  0  0  0  0  0  0  0  0  0
   38.1380   30.1870   43.4400 N   0  0  0  0  0  0  0  0  0  0  0  0
   38.9400   30.4950   42.2470 C   0  0  0  0  0  0  0  0  0  0  0  0
   40.2190   31.1090   42.7750 C   0  0  2  0  0  0  0  0  0  0  0  0
   39.6810   33.0790   42.8100 H   0  0  0  0  0  0  0  0  0  0  0  0
   38.6570   33.2020   44.8050 H   0  0  0  0  0  0  0  0  0  0  0  0
   37.0200   31.2810   44.7830 H   0  0  0  0  0  0  0  0  0  0  0  0
   37.2180   32.0350   43.1120 H   0  0  0  0  0  0  0  0  0  0  0  0
   38.7320   29.7100   44.1330 H   0  0  0  0  0  0  0  0  0  0  0  0
   38.4050   31.2490   41.6440 H   0  0  0  0  0  0  0  0  0  0  0  0
   39.2220   29.5980   41.6890 H   0  0  0  0  0  0  0  0  0  0  0  0
   40.8490   31.3710   41.8840 H   0  0  0  0  0  0  0  0  0  0  0  0
   40.9130   30.1490   43.6040 N   0  0  0  0  0  0  0  0  0  0  0  0
   40.6280   29.1630   43.3540 H   0  0  0  0  0  0  0  0  0  0  0  0
   41.9470   30.2490   43.5850 H   0  0  0  0  0  0  0  0  0  0  0  0
   39.5060   31.1620   45.8640 S   0  0  0  0  0  0  0  0  0  0  0  0
   38.9270   33.6170   49.0240 C   0  0  0  0  0  0  0  0  0  0  0  0
   39.3450   33.1600   47.7910 C   0  0  0  0  0  0  0  0  0  0  0  0
   39.0350   31.8820   47.4120 C   0  0  0  0  0  0  0  0  0  0  0  0
   38.3090   31.0980   48.2900 N   0  0  0  0  0  0  0  0  0  0  0  0
   37.9320   31.5970   49.4700 C   0  0  0  0  0  0  0  0  0  0  0  0
   38.2210   32.8340   49.8600 N   0  0  0  0  0  0  0  0  0  0  0  0
   39.1930   34.6470   49.2950 H   0  0  0  0  0  0  0  0  0  0  0  0
   39.9150   33.7870   47.1110 H   0  0  0  0  0  0  0  0  0  0  0  0
   37.1600   30.7470   50.3700 C   0  0  0  0  0  0  0  0  0  0  0  0
   37.5610   30.3480   51.4820 O   0  0  0  0  0  0  0  0  0  0  0  0
   35.7940   30.2880   50.0020 C   0  0  0  0  0  3  0  0  0  0  0  0
   35.8000   28.8390   49.4420 C   0  0  0  0  0  2  0  0  0  0  0  0
   35.1000   29.2180   50.7190 C   0  0  0  0  0  2  0  0  0  0  0  0
  1  2  1  0  0  0  0
  2  8  1  1  0  0  0
  2 18  1  0  0  0  0
  3  2  1  0  0  0  0
  3  9  1  0  0  0  0
  4  3  1  0  0  0  0
  4 11  1  0  0  0  0
  5  6  1  0  0  0  0
  5  4  1  0  0  0  0
  6 14  1  6  0  0  0
  6  1  1  0  0  0  0
  6 15  1  0  0  0  0
  7  1  1  0  0  0  0
 10  3  1  0  0  0  0
 12  5  1  0  0  0  0
 13  5  1  0  0  0  0
 16 15  1  0  0  0  0
 17 15  1  0  0  0  0
 18 21  1  0  0  0  0
 19 25  1  0  0  0  0
 19 24  1  0  0  0  0
 20 19  2  0  0  0  0
 21 20  1  0  0  0  0
 21 22  2  0  0  0  0
 22 23  1  0  0  0  0
 23 24  2  0  0  0  0
 23 27  1  0  0  0  0
 26 20  1  0  0  0  0
 27 28  2  0  0  0  0
 29 27  1  0  0  0  0
 29 31  1  0  0  0  0
 30 29  1  0  0  0  0
 30 31  1  0  0  0  0
M  END
>  <minimizedAffinity>
-5.65208006

>  <minimizedRMSD>
2.69539714

$$$$
