
 OpenBabel03272505353D

 31 34  0  0  1  0  0  0  0  0999 V2000
   37.5640   30.7870   49.4650 C   0  0  0  0  0  0  0  0  0  0  0  0
   37.2620   32.1240   49.6830 C   0  0  0  0  0  0  0  0  0  0  0  0
   37.5940   33.0380   48.6510 C   0  0  0  0  0  0  0  0  0  0  0  0
   38.1840   32.5430   47.5200 N   0  0  0  0  0  0  0  0  0  0  0  0
   38.4470   31.2530   47.3730 C   0  0  0  0  0  0  0  0  0  0  0  0
   38.1420   30.3660   48.3360 N   0  0  0  0  0  0  0  0  0  0  0  0
   39.0670   30.8290   46.1540 N   0  0  0  0  0  0  0  0  0  0  0  0
   40.5040   30.7640   46.0620 C   0  0  0  0  0  0  0  0  0  0  0  0
   40.9990   31.3350   44.7550 C   0  0  0  0  0  0  0  0  0  0  0  0
   40.2680   30.8300   43.6350 N   0  0  0  0  0  0  0  0  0  0  0  0
   39.2230   29.8860   43.9480 C   0  0  0  0  0  0  0  0  0  0  0  0
   38.2870   30.4590   45.0030 C   0  0  2  0  0  0  0  0  0  0  0  0
   36.7950   32.4900   50.5870 H   0  0  0  0  0  0  0  0  0  0  0  0
   37.3810   34.0920   48.7670 H   0  0  0  0  0  0  0  0  0  0  0  0
   41.0200   31.3450   46.8680 H   0  0  0  0  0  0  0  0  0  0  0  0
   40.8050   29.6820   46.1170 H   0  0  0  0  0  0  0  0  0  0  0  0
   42.0630   31.0340   44.6700 H   0  0  0  0  0  0  0  0  0  0  0  0
   40.8630   32.4370   44.8040 H   0  0  0  0  0  0  0  0  0  0  0  0
   39.8660   31.5840   43.0280 H   0  0  0  0  0  0  0  0  0  0  0  0
   38.6400   29.7350   43.0240 H   0  0  0  0  0  0  0  0  0  0  0  0
   39.6430   28.9460   44.3580 H   0  0  0  0  0  0  0  0  0  0  0  0
   37.6030   29.6310   45.3130 H   0  0  0  0  0  0  0  0  0  0  0  0
   37.2220   29.8030   50.5450 C   0  0  0  0  0  0  0  0  0  0  0  0
   35.8540   29.4790   50.4690 F   0  0  0  0  0  0  0  0  0  0  0  0
   38.0490   28.7420   50.4380 F   0  0  0  0  0  0  0  0  0  0  0  0
   37.3650   30.4850   51.7690 F   0  0  0  0  0  0  0  0  0  0  0  0
   37.4560   31.5350   44.4560 C   0  0  1  0  0  3  0  0  0  0  0  0
   37.9500   32.6550   44.2070 O   0  0  0  0  0  0  0  0  0  0  0  0
   36.5270   32.5380   43.9060 C   0  0  0  0  0  0  0  0  0  0  0  0
   35.5340   32.2850   42.8690 C   0  0  0  0  0  2  0  0  0  0  0  0
   36.8260   32.9030   42.4310 C   0  0  0  0  0  2  0  0  0  0  0  0
  1  2  1  0  0  0  0
  1 23  1  0  0  0  0
  2 13  1  0  0  0  0
  3 14  1  0  0  0  0
  3  2  2  0  0  0  0
  4  3  1  0  0  0  0
  5  4  2  0  0  0  0
  5  6  1  0  0  0  0
  6  1  2  0  0  0  0
  7  5  1  0  0  0  0
  8 16  1  0  0  0  0
  8  7  1  0  0  0  0
  8 15  1  0  0  0  0
  9 18  1  0  0  0  0
  9  8  1  0  0  0  0
 10 11  1  0  0  0  0
 10  9  1  0  0  0  0
 11 21  1  0  0  0  0
 11 12  1  0  0  0  0
 12 22  1  1  0  0  0
 12  7  1  0  0  0  0
 17  9  1  0  0  0  0
 19 10  1  0  0  0  0
 20 11  1  0  0  0  0
 23 26  1  0  0  0  0
 24 23  1  0  0  0  0
 25 23  1  0  0  0  0
 27 28  1  6  0  0  0
 27 12  1  0  0  0  0
 29 28  1  0  0  0  0
 29 27  1  0  0  0  0
 30 29  1  0  0  0  0
 31 30  1  0  0  0  0
 31 29  1  0  0  0  0
M  END
>  <minimizedAffinity>
-4.98108006

>  <minimizedRMSD>
0.651993692

$$$$
