
 OpenBabel03272505363D

 31 34  0  0  1  0  0  0  0  0999 V2000
   38.1890   25.0230   36.3980 C   0  0  0  0  0  0  0  0  0  0  0  0
   38.5230   26.3510   36.6220 C   0  0  0  0  0  0  0  0  0  0  0  0
   38.7010   27.1740   35.4810 C   0  0  0  0  0  0  0  0  0  0  0  0
   38.5310   26.6060   34.2470 N   0  0  0  0  0  0  0  0  0  0  0  0
   38.2110   25.3290   34.1000 C   0  0  0  0  0  0  0  0  0  0  0  0
   38.0370   24.5270   35.1660 N   0  0  0  0  0  0  0  0  0  0  0  0
   38.0570   24.8240   32.7700 N   0  0  0  0  0  0  0  0  0  0  0  0
   39.1840   24.2480   32.0820 C   0  0  0  0  0  0  0  0  0  0  0  0
   39.2560   24.7200   30.6490 C   0  0  0  0  0  0  0  0  0  0  0  0
   37.9920   24.6240   29.9870 N   0  0  0  0  0  0  0  0  0  0  0  0
   36.9090   24.1010   30.7840 C   0  0  0  0  0  0  0  0  0  0  0  0
   36.7890   24.8730   32.0900 C   0  0  2  0  0  0  0  0  0  0  0  0
   38.6510   26.7760   37.6080 H   0  0  0  0  0  0  0  0  0  0  0  0
   38.9620   28.2170   35.5950 H   0  0  0  0  0  0  0  0  0  0  0  0
   40.1660   24.5230   32.5460 H   0  0  0  0  0  0  0  0  0  0  0  0
   39.0580   23.1310   32.0860 H   0  0  0  0  0  0  0  0  0  0  0  0
   39.9900   24.0610   30.1430 H   0  0  0  0  0  0  0  0  0  0  0  0
   39.5700   25.7860   30.6670 H   0  0  0  0  0  0  0  0  0  0  0  0
   37.6820   25.5260   29.5530 H   0  0  0  0  0  0  0  0  0  0  0  0
   35.9820   24.2590   30.2100 H   0  0  0  0  0  0  0  0  0  0  0  0
   37.0830   23.0380   31.0470 H   0  0  0  0  0  0  0  0  0  0  0  0
   36.0470   24.3270   32.7230 H   0  0  0  0  0  0  0  0  0  0  0  0
   37.9960   24.1350   37.5920 C   0  0  0  0  0  0  0  0  0  0  0  0
   37.7900   24.9260   38.7380 F   0  0  0  0  0  0  0  0  0  0  0  0
   36.9930   23.2700   37.3280 F   0  0  0  0  0  0  0  0  0  0  0  0
   39.2280   23.4900   37.8150 F   0  0  0  0  0  0  0  0  0  0  0  0
   36.2670   26.2260   31.8670 C   0  0  1  0  0  3  0  0  0  0  0  0
   35.7880   26.5460   30.7590 O   0  0  0  0  0  0  0  0  0  0  0  0
   35.7700   27.6080   31.7600 C   0  0  0  0  0  0  0  0  0  0  0  0
   36.6040   28.8050   31.7830 C   0  0  0  0  0  2  0  0  0  0  0  0
   35.9370   28.4200   33.0690 C   0  0  0  0  0  2  0  0  0  0  0  0
  1  2  1  0  0  0  0
  1 23  1  0  0  0  0
  2 13  1  0  0  0  0
  3 14  1  0  0  0  0
  3  2  2  0  0  0  0
  4  3  1  0  0  0  0
  5  4  2  0  0  0  0
  5  6  1  0  0  0  0
  6  1  2  0  0  0  0
  7  5  1  0  0  0  0
  8 16  1  0  0  0  0
  8 15  1  0  0  0  0
  8  7  1  0  0  0  0
  9 18  1  0  0  0  0
  9  8  1  0  0  0  0
 10  9  1  0  0  0  0
 10 11  1  0  0  0  0
 11 21  1  0  0  0  0
 11 12  1  0  0  0  0
 12 22  1  1  0  0  0
 12  7  1  0  0  0  0
 17  9  1  0  0  0  0
 19 10  1  0  0  0  0
 20 11  1  0  0  0  0
 23 26  1  0  0  0  0
 23 24  1  0  0  0  0
 25 23  1  0  0  0  0
 27 28  1  1  0  0  0
 27 12  1  0  0  0  0
 28 29  1  0  0  0  0
 29 30  1  0  0  0  0
 29 27  1  0  0  0  0
 29 31  1  0  0  0  0
 30 31  1  0  0  0  0
M  END
>  <minimizedAffinity>
-5.72462988

$$$$

 OpenBabel03272505363D

 31 34  0  0  1  0  0  0  0  0999 V2000
   38.8340   23.7630   36.4980 C   0  0  0  0  0  0  0  0  0  0  0  0
   40.1760   23.4650   36.3070 C   0  0  0  0  0  0  0  0  0  0  0  0
   40.6830   23.5810   34.9870 C   0  0  0  0  0  0  0  0  0  0  0  0
   39.8200   23.9760   34.0010 N   0  0  0  0  0  0  0  0  0  0  0  0
   38.5480   24.2460   34.2480 C   0  0  0  0  0  0  0  0  0  0  0  0
   38.0420   24.1440   35.4910 N   0  0  0  0  0  0  0  0  0  0  0  0
   37.7220   24.6510   33.1510 N   0  0  0  0  0  0  0  0  0  0  0  0
   36.9920   23.6640   32.3970 C   0  0  0  0  0  0  0  0  0  0  0  0
   37.0850   23.9260   30.9120 C   0  0  0  0  0  0  0  0  0  0  0  0
   36.8220   25.2930   30.5890 N   0  0  0  0  0  0  0  0  0  0  0  0
   36.5170   26.1510   31.7080 C   0  0  0  0  0  0  0  0  0  0  0  0
   37.5960   26.0350   32.7770 C   0  0  2  0  0  0  0  0  0  0  0  0
   40.8370   23.1550   37.1050 H   0  0  0  0  0  0  0  0  0  0  0  0
   41.7210   23.3610   34.7810 H   0  0  0  0  0  0  0  0  0  0  0  0
   37.3760   22.6240   32.5510 H   0  0  0  0  0  0  0  0  0  0  0  0
   35.9120   23.7230   32.7040 H   0  0  0  0  0  0  0  0  0  0  0  0
   36.3200   23.2790   30.4360 H   0  0  0  0  0  0  0  0  0  0  0  0
   38.1210   23.6760   30.5970 H   0  0  0  0  0  0  0  0  0  0  0  0
   37.5840   25.7400   30.0250 H   0  0  0  0  0  0  0  0  0  0  0  0
   36.5240   27.1860   31.3310 H   0  0  0  0  0  0  0  0  0  0  0  0
   35.5560   25.8640   32.1810 H   0  0  0  0  0  0  0  0  0  0  0  0
   37.2260   26.5930   33.6720 H   0  0  0  0  0  0  0  0  0  0  0  0
   38.2780   23.6470   37.8860 C   0  0  0  0  0  0  0  0  0  0  0  0
   38.0190   24.9330   38.3980 F   0  0  0  0  0  0  0  0  0  0  0  0
   37.1990   22.8370   37.8510 F   0  0  0  0  0  0  0  0  0  0  0  0
   39.3150   23.1390   38.6930 F   0  0  0  0  0  0  0  0  0  0  0  0
   38.8460   26.6690   32.3470 C   0  0  1  0  0  3  0  0  0  0  0  0
   38.8560   27.4650   31.3850 O   0  0  0  0  0  0  0  0  0  0  0  0
   40.1580   27.2460   32.0070 C   0  0  0  0  0  0  0  0  0  0  0  0
   41.4180   26.5120   31.9810 C   0  0  0  0  0  2  0  0  0  0  0  0
   41.1270   27.3120   33.2140 C   0  0  0  0  0  2  0  0  0  0  0  0
  1 23  1  0  0  0  0
  2  1  1  0  0  0  0
  2 13  1  0  0  0  0
  3  2  2  0  0  0  0
  4  5  2  0  0  0  0
  4  3  1  0  0  0  0
  5  6  1  0  0  0  0
  6  1  2  0  0  0  0
  7  5  1  0  0  0  0
  8 15  1  0  0  0  0
  8 16  1  0  0  0  0
  8  7  1  0  0  0  0
  9  8  1  0  0  0  0
 10  9  1  0  0  0  0
 10 11  1  0  0  0  0
 11 21  1  0  0  0  0
 11 12  1  0  0  0  0
 12  7  1  0  0  0  0
 12 22  1  1  0  0  0
 14  3  1  0  0  0  0
 17  9  1  0  0  0  0
 18  9  1  0  0  0  0
 19 10  1  0  0  0  0
 20 11  1  0  0  0  0
 23 24  1  0  0  0  0
 23 26  1  0  0  0  0
 25 23  1  0  0  0  0
 27 28  1  1  0  0  0
 27 12  1  0  0  0  0
 28 29  1  0  0  0  0
 29 27  1  0  0  0  0
 29 31  1  0  0  0  0
 30 29  1  0  0  0  0
 30 31  1  0  0  0  0
M  END
>  <minimizedAffinity>
-5.43963146

$$$$

 OpenBabel03272505363D

 31 34  0  0  1  0  0  0  0  0999 V2000
   37.0970   24.9190   32.6180 C   0  0  0  0  0  0  0  0  0  0  0  0
   37.4470   26.2610   32.6480 C   0  0  0  0  0  0  0  0  0  0  0  0
   38.2540   26.6950   33.7300 C   0  0  0  0  0  0  0  0  0  0  0  0
   38.6300   25.7660   34.6630 N   0  0  0  0  0  0  0  0  0  0  0  0
   38.2620   24.4980   34.5770 C   0  0  0  0  0  0  0  0  0  0  0  0
   37.4970   24.0610   33.5600 N   0  0  0  0  0  0  0  0  0  0  0  0
   38.7030   23.6000   35.6010 N   0  0  0  0  0  0  0  0  0  0  0  0
   37.8880   23.3820   36.7690 C   0  0  0  0  0  0  0  0  0  0  0  0
   38.7190   23.3830   38.0300 C   0  0  0  0  0  0  0  0  0  0  0  0
   39.8840   22.5630   37.9080 N   0  0  0  0  0  0  0  0  0  0  0  0
   40.0450   21.8950   36.6390 C   0  0  0  0  0  0  0  0  0  0  0  0
   39.9550   22.8960   35.4960 C   0  0  2  0  0  0  0  0  0  0  0  0
   37.1360   26.9760   31.8980 H   0  0  0  0  0  0  0  0  0  0  0  0
   38.5560   27.7310   33.8050 H   0  0  0  0  0  0  0  0  0  0  0  0
   37.1100   24.1750   36.9130 H   0  0  0  0  0  0  0  0  0  0  0  0
   37.3960   22.3770   36.6650 H   0  0  0  0  0  0  0  0  0  0  0  0
   38.0660   22.9820   38.8310 H   0  0  0  0  0  0  0  0  0  0  0  0
   39.0380   24.4320   38.2150 H   0  0  0  0  0  0  0  0  0  0  0  0
   40.7730   23.0680   38.1340 H   0  0  0  0  0  0  0  0  0  0  0  0
   41.0590   21.4620   36.6310 H   0  0  0  0  0  0  0  0  0  0  0  0
   39.2470   21.1420   36.4790 H   0  0  0  0  0  0  0  0  0  0  0  0
   39.9290   22.3040   34.5480 H   0  0  0  0  0  0  0  0  0  0  0  0
   36.2440   24.4400   31.4810 C   0  0  0  0  0  0  0  0  0  0  0  0
   35.6480   23.2120   31.8250 F   0  0  0  0  0  0  0  0  0  0  0  0
   35.3640   25.4130   31.1630 F   0  0  0  0  0  0  0  0  0  0  0  0
   37.1210   24.1320   30.4230 F   0  0  0  0  0  0  0  0  0  0  0  0
   41.1390   23.7590   35.4440 C   0  0  1  0  0  3  0  0  0  0  0  0
   42.0780   23.5970   36.2520 O   0  0  0  0  0  0  0  0  0  0  0  0
   42.2770   24.6820   35.2960 C   0  0  0  0  0  0  0  0  0  0  0  0
   43.5290   24.3710   34.6150 C   0  0  0  0  0  2  0  0  0  0  0  0
   43.5230   24.2500   36.1090 C   0  0  0  0  0  2  0  0  0  0  0  0
  1  2  2  0  0  0  0
  1  6  1  0  0  0  0
  2  3  1  0  0  0  0
  3 14  1  0  0  0  0
  3  4  2  0  0  0  0
  5  4  1  0  0  0  0
  5  7  1  0  0  0  0
  6  5  2  0  0  0  0
  7  8  1  0  0  0  0
  8 15  1  0  0  0  0
  8  9  1  0  0  0  0
  9 18  1  0  0  0  0
  9 17  1  0  0  0  0
 10  9  1  0  0  0  0
 10 19  1  0  0  0  0
 11 10  1  0  0  0  0
 12 22  1  6  0  0  0
 12  7  1  0  0  0  0
 12 11  1  0  0  0  0
 13  2  1  0  0  0  0
 16  8  1  0  0  0  0
 20 11  1  0  0  0  0
 21 11  1  0  0  0  0
 23 24  1  0  0  0  0
 23  1  1  0  0  0  0
 25 23  1  0  0  0  0
 26 23  1  0  0  0  0
 27 12  1  0  0  0  0
 27 28  1  6  0  0  0
 29 27  1  0  0  0  0
 29 31  1  0  0  0  0
 29 28  1  0  0  0  0
 30 29  1  0  0  0  0
 30 31  1  0  0  0  0
M  END
>  <minimizedAffinity>
-5.29436731

$$$$

 OpenBabel03272505363D

 31 34  0  0  1  0  0  0  0  0999 V2000
   36.0590   20.6480   33.4410 C   0  0  0  0  0  0  0  0  0  0  0  0
   35.5860   20.5970   34.7450 C   0  0  0  0  0  0  0  0  0  0  0  0
   36.3310   21.2920   35.7310 C   0  0  0  0  0  0  0  0  0  0  0  0
   37.4560   21.9610   35.3320 N   0  0  0  0  0  0  0  0  0  0  0  0
   37.8550   21.9720   34.0690 C   0  0  0  0  0  0  0  0  0  0  0  0
   37.1670   21.3200   33.1150 N   0  0  0  0  0  0  0  0  0  0  0  0
   39.0460   22.6980   33.7470 N   0  0  0  0  0  0  0  0  0  0  0  0
   40.3240   22.0340   33.7690 C   0  0  0  0  0  0  0  0  0  0  0  0
   41.3770   22.8850   34.4380 C   0  0  0  0  0  0  0  0  0  0  0  0
   41.3710   24.2300   33.9530 N   0  0  0  0  0  0  0  0  0  0  0  0
   40.3900   24.5200   32.9350 C   0  0  0  0  0  0  0  0  0  0  0  0
   39.0030   24.0930   33.3950 C   0  0  2  0  0  0  0  0  0  0  0  0
   34.6930   20.0600   35.0340 H   0  0  0  0  0  0  0  0  0  0  0  0
   36.0090   21.2860   36.7630 H   0  0  0  0  0  0  0  0  0  0  0  0
   40.3050   21.0670   34.3350 H   0  0  0  0  0  0  0  0  0  0  0  0
   40.6360   21.8480   32.7060 H   0  0  0  0  0  0  0  0  0  0  0  0
   42.3520   22.4110   34.2030 H   0  0  0  0  0  0  0  0  0  0  0  0
   41.1510   22.8960   35.5260 H   0  0  0  0  0  0  0  0  0  0  0  0
   41.2820   24.9450   34.7140 H   0  0  0  0  0  0  0  0  0  0  0  0
   40.3810   25.6140   32.8000 H   0  0  0  0  0  0  0  0  0  0  0  0
   40.6090   23.9660   32.0000 H   0  0  0  0  0  0  0  0  0  0  0  0
   38.3230   24.1970   32.5140 H   0  0  0  0  0  0  0  0  0  0  0  0
   35.2850   19.9190   32.3830 C   0  0  0  0  0  0  0  0  0  0  0  0
   35.9700   20.0050   31.1560 F   0  0  0  0  0  0  0  0  0  0  0  0
   35.0620   18.6560   32.8060 F   0  0  0  0  0  0  0  0  0  0  0  0
   34.0940   20.6460   32.1850 F   0  0  0  0  0  0  0  0  0  0  0  0
   38.4940   24.9750   34.4510 C   0  0  1  0  0  3  0  0  0  0  0  0
   39.0310   24.9910   35.5780 O   0  0  0  0  0  0  0  0  0  0  0  0
   37.9000   25.9010   35.4290 C   0  0  0  0  0  0  0  0  0  0  0  0
   37.4200   27.2460   35.1310 C   0  0  0  0  0  2  0  0  0  0  0  0
   38.7920   27.1330   35.7240 C   0  0  0  0  0  2  0  0  0  0  0  0
  1  2  1  0  0  0  0
  2 13  1  0  0  0  0
  2  3  2  0  0  0  0
  3 14  1  0  0  0  0
  4  3  1  0  0  0  0
  5  4  2  0  0  0  0
  6  1  2  0  0  0  0
  6  5  1  0  0  0  0
  7  8  1  0  0  0  0
  7  5  1  0  0  0  0
  8 15  1  0  0  0  0
  8  9  1  0  0  0  0
  9 18  1  0  0  0  0
 10  9  1  0  0  0  0
 10 19  1  0  0  0  0
 11 12  1  0  0  0  0
 11 10  1  0  0  0  0
 12 22  1  6  0  0  0
 12  7  1  0  0  0  0
 12 27  1  0  0  0  0
 16  8  1  0  0  0  0
 17  9  1  0  0  0  0
 20 11  1  0  0  0  0
 21 11  1  0  0  0  0
 23 25  1  0  0  0  0
 23  1  1  0  0  0  0
 24 23  1  0  0  0  0
 26 23  1  0  0  0  0
 27 29  1  0  0  0  0
 27 28  1  6  0  0  0
 29 28  1  0  0  0  0
 29 31  1  0  0  0  0
 30 29  1  0  0  0  0
 30 31  1  0  0  0  0
M  END
>  <minimizedAffinity>
-5.2548914

$$$$

 OpenBabel03272505363D

 31 34  0  0  1  0  0  0  0  0999 V2000
   36.8870   22.7660   32.4840 C   0  0  0  0  0  0  0  0  0  0  0  0
   36.8570   24.1000   32.1040 C   0  0  0  0  0  0  0  0  0  0  0  0
   37.4780   25.0340   32.9720 C   0  0  0  0  0  0  0  0  0  0  0  0
   38.0600   24.5580   34.1160 N   0  0  0  0  0  0  0  0  0  0  0  0
   38.0550   23.2700   34.4220 C   0  0  0  0  0  0  0  0  0  0  0  0
   37.4730   22.3640   33.6150 N   0  0  0  0  0  0  0  0  0  0  0  0
   38.6880   22.8670   35.6410 N   0  0  0  0  0  0  0  0  0  0  0  0
   37.9230   22.7900   36.8600 C   0  0  0  0  0  0  0  0  0  0  0  0
   38.6780   23.3860   38.0240 C   0  0  0  0  0  0  0  0  0  0  0  0
   40.0260   22.9120   38.0900 N   0  0  0  0  0  0  0  0  0  0  0  0
   40.4060   21.9710   37.0650 C   0  0  0  0  0  0  0  0  0  0  0  0
   40.0860   22.5290   35.6850 C   0  0  2  0  0  0  0  0  0  0  0  0
   36.3900   24.4510   31.1940 H   0  0  0  0  0  0  0  0  0  0  0  0
   37.4850   26.0870   32.7260 H   0  0  0  0  0  0  0  0  0  0  0  0
   36.9540   23.3490   36.8030 H   0  0  0  0  0  0  0  0  0  0  0  0
   37.7270   21.7050   37.0770 H   0  0  0  0  0  0  0  0  0  0  0  0
   38.1320   23.0770   38.9370 H   0  0  0  0  0  0  0  0  0  0  0  0
   38.6930   24.4880   37.8790 H   0  0  0  0  0  0  0  0  0  0  0  0
   40.7360   23.6830   38.1150 H   0  0  0  0  0  0  0  0  0  0  0  0
   41.4990   21.8450   37.1350 H   0  0  0  0  0  0  0  0  0  0  0  0
   39.8500   21.0190   37.1700 H   0  0  0  0  0  0  0  0  0  0  0  0
   40.2550   21.7000   34.9540 H   0  0  0  0  0  0  0  0  0  0  0  0
   36.2360   21.7620   31.5790 C   0  0  0  0  0  0  0  0  0  0  0  0
   35.3770   22.4240   30.6820 F   0  0  0  0  0  0  0  0  0  0  0  0
   37.2020   21.0300   30.9830 F   0  0  0  0  0  0  0  0  0  0  0  0
   35.3850   20.9850   32.3890 F   0  0  0  0  0  0  0  0  0  0  0  0
   40.9920   23.6250   35.3260 C   0  0  1  0  0  3  0  0  0  0  0  0
   42.0650   23.7900   35.9450 O   0  0  0  0  0  0  0  0  0  0  0  0
   41.8230   24.7550   34.8780 C   0  0  0  0  0  0  0  0  0  0  0  0
   41.3470   26.1180   34.6710 C   0  0  0  0  0  2  0  0  0  0  0  0
   41.4620   25.2500   33.4550 C   0  0  0  0  0  2  0  0  0  0  0  0
  1  6  1  0  0  0  0
  2  1  2  0  0  0  0
  2  3  1  0  0  0  0
  3  4  2  0  0  0  0
  4  5  1  0  0  0  0
  5  7  1  0  0  0  0
  6  5  2  0  0  0  0
  7 12  1  0  0  0  0
  7  8  1  0  0  0  0
  8 16  1  0  0  0  0
  8  9  1  0  0  0  0
  9 10  1  0  0  0  0
  9 17  1  0  0  0  0
 10 19  1  0  0  0  0
 11 20  1  0  0  0  0
 11 21  1  0  0  0  0
 11 10  1  0  0  0  0
 12 22  1  6  0  0  0
 12 11  1  0  0  0  0
 13  2  1  0  0  0  0
 14  3  1  0  0  0  0
 15  8  1  0  0  0  0
 18  9  1  0  0  0  0
 23 26  1  0  0  0  0
 23  1  1  0  0  0  0
 24 23  1  0  0  0  0
 25 23  1  0  0  0  0
 27 12  1  0  0  0  0
 27 28  1  6  0  0  0
 29 27  1  0  0  0  0
 29 28  1  0  0  0  0
 30 29  1  0  0  0  0
 31 30  1  0  0  0  0
 31 29  1  0  0  0  0
M  END
>  <minimizedAffinity>
-5.23852539

$$$$

 OpenBabel03272505363D

 31 34  0  0  1  0  0  0  0  0999 V2000
   38.7410   23.0640   36.7930 C   0  0  0  0  0  0  0  0  0  0  0  0
   40.0750   22.7230   36.6240 C   0  0  0  0  0  0  0  0  0  0  0  0
   40.4560   22.2090   35.3580 C   0  0  0  0  0  0  0  0  0  0  0  0
   39.4890   22.0870   34.3980 N   0  0  0  0  0  0  0  0  0  0  0  0
   38.2300   22.4300   34.6220 C   0  0  0  0  0  0  0  0  0  0  0  0
   37.8430   22.9200   35.8140 N   0  0  0  0  0  0  0  0  0  0  0  0
   37.2880   22.2640   33.5570 N   0  0  0  0  0  0  0  0  0  0  0  0
   36.5520   21.0320   33.4310 C   0  0  0  0  0  0  0  0  0  0  0  0
   36.4980   20.5660   31.9960 C   0  0  0  0  0  0  0  0  0  0  0  0
   36.1300   21.6190   31.1010 N   0  0  0  0  0  0  0  0  0  0  0  0
   35.8760   22.8990   31.7160 C   0  0  0  0  0  0  0  0  0  0  0  0
   37.0500   23.3090   32.5950 C   0  0  2  0  0  0  0  0  0  0  0  0
   40.8210   22.8300   37.4000 H   0  0  0  0  0  0  0  0  0  0  0  0
   41.4830   21.9270   35.1700 H   0  0  0  0  0  0  0  0  0  0  0  0
   37.0070   20.1900   34.0120 H   0  0  0  0  0  0  0  0  0  0  0  0
   35.5020   21.2190   33.7870 H   0  0  0  0  0  0  0  0  0  0  0  0
   35.7320   19.7650   31.9600 H   0  0  0  0  0  0  0  0  0  0  0  0
   37.5140   20.2070   31.7270 H   0  0  0  0  0  0  0  0  0  0  0  0
   36.8120   21.7550   30.3180 H   0  0  0  0  0  0  0  0  0  0  0  0
   35.7900   23.6360   30.9010 H   0  0  0  0  0  0  0  0  0  0  0  0
   34.9790   22.8600   32.3660 H   0  0  0  0  0  0  0  0  0  0  0  0
   36.7300   24.2190   33.1600 H   0  0  0  0  0  0  0  0  0  0  0  0
   38.3180   23.6090   38.1250 C   0  0  0  0  0  0  0  0  0  0  0  0
   38.0570   24.9880   38.0070 F   0  0  0  0  0  0  0  0  0  0  0  0
   37.2720   22.8830   38.5740 F   0  0  0  0  0  0  0  0  0  0  0  0
   39.4430   23.5250   38.9690 F   0  0  0  0  0  0  0  0  0  0  0  0
   38.2190   23.6770   31.7910 C   0  0  1  0  0  3  0  0  0  0  0  0
   38.7950   22.8260   31.0820 O   0  0  0  0  0  0  0  0  0  0  0  0
   39.3800   24.1610   31.0250 C   0  0  0  0  0  0  0  0  0  0  0  0
   39.3450   25.2270   30.0290 C   0  0  0  0  0  2  0  0  0  0  0  0
   39.3010   23.8200   29.5160 C   0  0  0  0  0  2  0  0  0  0  0  0
  1 23  1  0  0  0  0
  2  1  1  0  0  0  0
  2 13  1  0  0  0  0
  3  2  2  0  0  0  0
  4  5  2  0  0  0  0
  4  3  1  0  0  0  0
  5  6  1  0  0  0  0
  6  1  2  0  0  0  0
  7  5  1  0  0  0  0
  8  7  1  0  0  0  0
  8 16  1  0  0  0  0
  8 15  1  0  0  0  0
  9  8  1  0  0  0  0
 10 11  1  0  0  0  0
 10  9  1  0  0  0  0
 11 21  1  0  0  0  0
 11 12  1  0  0  0  0
 12 22  1  1  0  0  0
 12  7  1  0  0  0  0
 14  3  1  0  0  0  0
 17  9  1  0  0  0  0
 18  9  1  0  0  0  0
 19 10  1  0  0  0  0
 20 11  1  0  0  0  0
 23 25  1  0  0  0  0
 23 26  1  0  0  0  0
 24 23  1  0  0  0  0
 27 28  1  6  0  0  0
 27 12  1  0  0  0  0
 29 28  1  0  0  0  0
 29 27  1  0  0  0  0
 30 29  1  0  0  0  0
 31 30  1  0  0  0  0
 31 29  1  0  0  0  0
M  END
>  <minimizedAffinity>
-5.20530367

$$$$

 OpenBabel03272505363D

 31 34  0  0  1  0  0  0  0  0999 V2000
   38.4590   24.0620   36.8020 C   0  0  0  0  0  0  0  0  0  0  0  0
   38.3360   25.3740   36.3680 C   0  0  0  0  0  0  0  0  0  0  0  0
   38.6300   25.6350   35.0060 C   0  0  0  0  0  0  0  0  0  0  0  0
   39.0110   24.5820   34.2190 N   0  0  0  0  0  0  0  0  0  0  0  0
   39.1100   23.3510   34.6940 C   0  0  0  0  0  0  0  0  0  0  0  0
   38.8360   23.0770   35.9820 N   0  0  0  0  0  0  0  0  0  0  0  0
   39.5180   22.3140   33.7940 N   0  0  0  0  0  0  0  0  0  0  0  0
   40.9140   21.9870   33.6580 C   0  0  0  0  0  0  0  0  0  0  0  0
   41.2970   21.7950   32.2100 C   0  0  0  0  0  0  0  0  0  0  0  0
   40.3770   20.9480   31.5170 N   0  0  0  0  0  0  0  0  0  0  0  0
   39.2830   20.4380   32.3080 C   0  0  0  0  0  0  0  0  0  0  0  0
   38.5600   21.5770   33.0130 C   0  0  2  0  0  0  0  0  0  0  0  0
   38.0320   26.1890   37.0110 H   0  0  0  0  0  0  0  0  0  0  0  0
   38.5510   26.6400   34.6130 H   0  0  0  0  0  0  0  0  0  0  0  0
   41.5910   22.7870   34.0520 H   0  0  0  0  0  0  0  0  0  0  0  0
   41.1000   21.0240   34.2080 H   0  0  0  0  0  0  0  0  0  0  0  0
   42.3010   21.3250   32.2150 H   0  0  0  0  0  0  0  0  0  0  0  0
   41.2900   22.7980   31.7310 H   0  0  0  0  0  0  0  0  0  0  0  0
   39.9850   21.3840   30.6480 H   0  0  0  0  0  0  0  0  0  0  0  0
   38.5730   19.9670   31.6090 H   0  0  0  0  0  0  0  0  0  0  0  0
   39.6470   19.7460   33.0930 H   0  0  0  0  0  0  0  0  0  0  0  0
   37.8340   21.1100   33.7240 H   0  0  0  0  0  0  0  0  0  0  0  0
   38.1520   23.7650   38.2400 C   0  0  0  0  0  0  0  0  0  0  0  0
   37.8170   24.9580   38.9060 F   0  0  0  0  0  0  0  0  0  0  0  0
   37.1940   22.8150   38.2880 F   0  0  0  0  0  0  0  0  0  0  0  0
   39.3620   23.3480   38.8300 F   0  0  0  0  0  0  0  0  0  0  0  0
   37.7880   22.3890   32.0670 C   0  0  1  0  0  3  0  0  0  0  0  0
   37.7980   22.1230   30.8470 O   0  0  0  0  0  0  0  0  0  0  0  0
   36.9750   23.2710   31.2120 C   0  0  0  0  0  0  0  0  0  0  0  0
   36.2860   24.4760   31.6610 C   0  0  0  0  0  2  0  0  0  0  0  0
   35.4640   23.2280   31.5540 C   0  0  0  0  0  2  0  0  0  0  0  0
  1 23  1  0  0  0  0
  2  1  1  0  0  0  0
  2 13  1  0  0  0  0
  3  2  2  0  0  0  0
  4  5  2  0  0  0  0
  4  3  1  0  0  0  0
  5  6  1  0  0  0  0
  6  1  2  0  0  0  0
  7  5  1  0  0  0  0
  8  7  1  0  0  0  0
  8 15  1  0  0  0  0
  8 16  1  0  0  0  0
  9 17  1  0  0  0  0
  9  8  1  0  0  0  0
 10  9  1  0  0  0  0
 10 11  1  0  0  0  0
 11 12  1  0  0  0  0
 11 21  1  0  0  0  0
 12 22  1  1  0  0  0
 12  7  1  0  0  0  0
 14  3  1  0  0  0  0
 18  9  1  0  0  0  0
 19 10  1  0  0  0  0
 20 11  1  0  0  0  0
 23 25  1  0  0  0  0
 23 26  1  0  0  0  0
 23 24  1  0  0  0  0
 27 28  1  1  0  0  0
 27 12  1  0  0  0  0
 28 29  1  0  0  0  0
 29 31  1  0  0  0  0
 29 30  1  0  0  0  0
 29 27  1  0  0  0  0
 31 30  1  0  0  0  0
M  END
>  <minimizedAffinity>
-5.16210794

$$$$

 OpenBabel03272505363D

 31 34  0  0  1  0  0  0  0  0999 V2000
   39.2210   26.8290   32.9510 C   0  0  0  0  0  0  0  0  0  0  0  0
   40.5120   27.2530   33.2310 C   0  0  0  0  0  0  0  0  0  0  0  0
   41.1330   26.7180   34.3880 C   0  0  0  0  0  0  0  0  0  0  0  0
   40.4210   25.8250   35.1430 N   0  0  0  0  0  0  0  0  0  0  0  0
   39.1900   25.4590   34.8210 C   0  0  0  0  0  0  0  0  0  0  0  0
   38.5790   25.9520   33.7290 N   0  0  0  0  0  0  0  0  0  0  0  0
   38.5240   24.5200   35.6730 N   0  0  0  0  0  0  0  0  0  0  0  0
   37.7130   24.9900   36.7680 C   0  0  0  0  0  0  0  0  0  0  0  0
   37.9610   24.1860   38.0220 C   0  0  0  0  0  0  0  0  0  0  0  0
   37.9380   22.7790   37.7740 N   0  0  0  0  0  0  0  0  0  0  0  0
   37.6810   22.3920   36.4080 C   0  0  0  0  0  0  0  0  0  0  0  0
   38.6410   23.1010   35.4640 C   0  0  2  0  0  0  0  0  0  0  0  0
   41.0530   27.9610   32.6170 H   0  0  0  0  0  0  0  0  0  0  0  0
   42.1380   27.0140   34.6550 H   0  0  0  0  0  0  0  0  0  0  0  0
   37.9200   26.0560   37.0390 H   0  0  0  0  0  0  0  0  0  0  0  0
   36.6340   24.8720   36.4740 H   0  0  0  0  0  0  0  0  0  0  0  0
   37.1460   24.4520   38.7250 H   0  0  0  0  0  0  0  0  0  0  0  0
   38.9680   24.4660   38.4000 H   0  0  0  0  0  0  0  0  0  0  0  0
   38.8010   22.2850   38.1030 H   0  0  0  0  0  0  0  0  0  0  0  0
   37.8760   21.3090   36.3390 H   0  0  0  0  0  0  0  0  0  0  0  0
   36.6530   22.6700   36.1000 H   0  0  0  0  0  0  0  0  0  0  0  0
   38.2930   22.8850   34.4240 H   0  0  0  0  0  0  0  0  0  0  0  0
   38.5460   27.3830   31.7310 C   0  0  0  0  0  0  0  0  0  0  0  0
   37.4710   28.2040   32.1210 F   0  0  0  0  0  0  0  0  0  0  0  0
   39.4730   28.0060   30.9730 F   0  0  0  0  0  0  0  0  0  0  0  0
   37.9470   26.2910   31.0730 F   0  0  0  0  0  0  0  0  0  0  0  0
   40.0040   22.5750   35.5900 C   0  0  1  0  0  3  0  0  0  0  0  0
   40.6370   22.7040   36.6590 O   0  0  0  0  0  0  0  0  0  0  0  0
   41.3620   22.0050   35.6020 C   0  0  0  0  0  0  0  0  0  0  0  0
   42.0330   21.4550   36.7750 C   0  0  0  0  0  2  0  0  0  0  0  0
   42.3770   22.8640   36.3980 C   0  0  0  0  0  2  0  0  0  0  0  0
  1  2  2  0  0  0  0
  1  6  1  0  0  0  0
  2  3  1  0  0  0  0
  3 14  1  0  0  0  0
  3  4  2  0  0  0  0
  5  4  1  0  0  0  0
  5  7  1  0  0  0  0
  6  5  2  0  0  0  0
  7  8  1  0  0  0  0
  8 15  1  0  0  0  0
  8  9  1  0  0  0  0
  9 18  1  0  0  0  0
  9 17  1  0  0  0  0
 10  9  1  0  0  0  0
 10 19  1  0  0  0  0
 11 10  1  0  0  0  0
 12 22  1  6  0  0  0
 12 27  1  0  0  0  0
 12  7  1  0  0  0  0
 12 11  1  0  0  0  0
 13  2  1  0  0  0  0
 16  8  1  0  0  0  0
 20 11  1  0  0  0  0
 21 11  1  0  0  0  0
 23 24  1  0  0  0  0
 23  1  1  0  0  0  0
 25 23  1  0  0  0  0
 26 23  1  0  0  0  0
 27 29  1  0  0  0  0
 27 28  1  1  0  0  0
 29 31  1  0  0  0  0
 29 28  1  0  0  0  0
 29 30  1  0  0  0  0
 31 30  1  0  0  0  0
M  END
>  <minimizedAffinity>
-5.14933014

$$$$

 OpenBabel03272505363D

 31 34  0  0  1  0  0  0  0  0999 V2000
   36.6670   21.8100   32.8930 C   0  0  0  0  0  0  0  0  0  0  0  0
   37.6290   21.5330   33.8540 C   0  0  0  0  0  0  0  0  0  0  0  0
   38.5620   22.5580   34.1500 C   0  0  0  0  0  0  0  0  0  0  0  0
   38.4510   23.7420   33.4720 N   0  0  0  0  0  0  0  0  0  0  0  0
   37.5090   23.9450   32.5640 C   0  0  0  0  0  0  0  0  0  0  0  0
   36.6110   22.9880   32.2650 N   0  0  0  0  0  0  0  0  0  0  0  0
   37.4730   25.2150   31.9050 N   0  0  0  0  0  0  0  0  0  0  0  0
   38.1970   25.4100   30.6750 C   0  0  0  0  0  0  0  0  0  0  0  0
   38.9270   26.7310   30.6680 C   0  0  0  0  0  0  0  0  0  0  0  0
   38.0910   27.8110   31.0890 N   0  0  0  0  0  0  0  0  0  0  0  0
   36.7350   27.4540   31.4280 C   0  0  0  0  0  0  0  0  0  0  0  0
   36.7220   26.3190   32.4430 C   0  0  2  0  0  0  0  0  0  0  0  0
   37.6950   20.5880   34.3770 H   0  0  0  0  0  0  0  0  0  0  0  0
   39.3330   22.3980   34.8910 H   0  0  0  0  0  0  0  0  0  0  0  0
   38.9760   24.6260   30.4970 H   0  0  0  0  0  0  0  0  0  0  0  0
   37.4530   25.4070   29.8320 H   0  0  0  0  0  0  0  0  0  0  0  0
   39.2510   26.9000   29.6210 H   0  0  0  0  0  0  0  0  0  0  0  0
   39.7800   26.6410   31.3760 H   0  0  0  0  0  0  0  0  0  0  0  0
   38.4970   28.3660   31.8800 H   0  0  0  0  0  0  0  0  0  0  0  0
   36.2790   28.3380   31.9030 H   0  0  0  0  0  0  0  0  0  0  0  0
   36.1800   27.1020   30.5360 H   0  0  0  0  0  0  0  0  0  0  0  0
   35.6600   25.9860   32.5440 H   0  0  0  0  0  0  0  0  0  0  0  0
   35.6700   20.7380   32.5660 C   0  0  0  0  0  0  0  0  0  0  0  0
   35.9990   20.1510   31.3300 F   0  0  0  0  0  0  0  0  0  0  0  0
   35.6190   19.8680   33.5970 F   0  0  0  0  0  0  0  0  0  0  0  0
   34.4410   21.3890   32.3420 F   0  0  0  0  0  0  0  0  0  0  0  0
   37.1680   26.7760   33.7640 C   0  0  1  0  0  3  0  0  0  0  0  0
   38.3280   27.2070   33.9280 O   0  0  0  0  0  0  0  0  0  0  0  0
   37.5030   27.2090   35.1310 C   0  0  0  0  0  0  0  0  0  0  0  0
   38.8500   27.2720   35.6870 C   0  0  0  0  0  2  0  0  0  0  0  0
   38.0350   26.0590   36.0220 C   0  0  0  0  0  2  0  0  0  0  0  0
  1  2  1  0  0  0  0
  2  3  2  0  0  0  0
  2 13  1  0  0  0  0
  3 14  1  0  0  0  0
  4  3  1  0  0  0  0
  5  4  2  0  0  0  0
  6  5  1  0  0  0  0
  6  1  2  0  0  0  0
  7 12  1  0  0  0  0
  7  5  1  0  0  0  0
  8  7  1  0  0  0  0
  9  8  1  0  0  0  0
  9 10  1  0  0  0  0
  9 18  1  0  0  0  0
 10 11  1  0  0  0  0
 10 19  1  0  0  0  0
 11 20  1  0  0  0  0
 11 12  1  0  0  0  0
 12 22  1  1  0  0  0
 12 27  1  0  0  0  0
 15  8  1  0  0  0  0
 16  8  1  0  0  0  0
 17  9  1  0  0  0  0
 21 11  1  0  0  0  0
 23  1  1  0  0  0  0
 23 25  1  0  0  0  0
 24 23  1  0  0  0  0
 26 23  1  0  0  0  0
 27 28  1  6  0  0  0
 27 29  1  0  0  0  0
 28 29  1  0  0  0  0
 29 30  1  0  0  0  0
 29 31  1  0  0  0  0
 30 31  1  0  0  0  0
M  END
>  <minimizedAffinity>
-5.14346695

$$$$
