
 OpenBabel03262521013D

 31 33  0  0  1  0  0  0  0  0999 V2000
   39.4980   32.8430   46.4080 N   0  0  0  0  0  0  0  0  0  0  0  0
   38.1690   32.3150   46.1990 C   0  0  1  0  0  0  0  0  0  0  0  0
   37.8090   32.3310   44.7360 C   0  0  0  0  0  0  0  0  0  0  0  0
   38.8260   31.5270   44.0440 N   0  0  0  0  0  0  0  0  0  0  0  0
   40.0530   32.3310   44.1240 C   0  0  0  0  0  0  0  0  0  0  0  0
   40.4860   32.2530   45.5720 C   0  0  2  0  0  0  0  0  0  0  0  0
   39.4890   33.8680   46.3280 H   0  0  0  0  0  0  0  0  0  0  0  0
   37.4790   32.9610   46.7550 H   0  0  0  0  0  0  0  0  0  0  0  0
   36.8590   31.7840   44.6100 H   0  0  0  0  0  0  0  0  0  0  0  0
   37.8070   33.3340   44.2950 H   0  0  0  0  0  0  0  0  0  0  0  0
   38.9770   30.6290   44.5260 H   0  0  0  0  0  0  0  0  0  0  0  0
   39.8090   33.3790   43.8800 H   0  0  0  0  0  0  0  0  0  0  0  0
   40.8670   31.9130   43.5250 H   0  0  0  0  0  0  0  0  0  0  0  0
   41.4170   32.8730   45.6700 H   0  0  0  0  0  0  0  0  0  0  0  0
   40.7700   30.8800   45.9230 N   0  0  0  0  0  0  0  0  0  0  0  0
   41.0050   30.3150   45.0620 H   0  0  0  0  0  0  0  0  0  0  0  0
   41.5090   30.7760   46.6460 H   0  0  0  0  0  0  0  0  0  0  0  0
   38.0540   30.5790   46.7280 S   0  0  0  0  0  0  0  0  0  0  0  0
   35.5720   30.9630   49.8970 C   0  0  0  0  0  0  0  0  0  0  0  0
   36.6040   31.2100   49.0160 C   0  0  0  0  0  0  0  0  0  0  0  0
   36.7750   30.3850   47.9380 C   0  0  0  0  0  0  0  0  0  0  0  0
   35.8960   29.3280   47.7770 N   0  0  0  0  0  0  0  0  0  0  0  0
   34.9160   29.1410   48.6640 C   0  0  0  0  0  0  0  0  0  0  0  0
   34.7300   29.9290   49.7190 N   0  0  0  0  0  0  0  0  0  0  0  0
   35.4650   31.6450   50.7500 H   0  0  0  0  0  0  0  0  0  0  0  0
   37.2880   32.0430   49.1530 H   0  0  0  0  0  0  0  0  0  0  0  0
   34.0000   28.0230   48.4630 C   0  0  0  0  0  0  0  0  0  0  0  0
   34.3440   26.8890   48.0720 O   0  0  0  0  0  0  0  0  0  0  0  0
   32.5430   28.1740   48.7230 C   0  0  0  0  0  3  0  0  0  0  0  0
   31.7210   28.2210   47.4050 C   0  0  0  0  0  2  0  0  0  0  0  0
   31.5740   27.1210   48.4210 C   0  0  0  0  0  2  0  0  0  0  0  0
  2  1  1  0  0  0  0
  2 18  1  0  0  0  0
  2  8  1  1  0  0  0
  3  2  1  0  0  0  0
  4  5  1  0  0  0  0
  4 11  1  0  0  0  0
  4  3  1  0  0  0  0
  5  6  1  0  0  0  0
  6 14  1  1  0  0  0
  6 15  1  0  0  0  0
  6  1  1  0  0  0  0
  7  1  1  0  0  0  0
  9  3  1  0  0  0  0
 10  3  1  0  0  0  0
 12  5  1  0  0  0  0
 13  5  1  0  0  0  0
 15 17  1  0  0  0  0
 16 15  1  0  0  0  0
 18 21  1  0  0  0  0
 19 25  1  0  0  0  0
 20 26  1  0  0  0  0
 20 19  2  0  0  0  0
 21 20  1  0  0  0  0
 22 21  2  0  0  0  0
 22 23  1  0  0  0  0
 23 24  2  0  0  0  0
 24 19  1  0  0  0  0
 27 23  1  0  0  0  0
 27 29  1  0  0  0  0
 28 27  2  0  0  0  0
 30 31  1  0  0  0  0
 30 29  1  0  0  0  0
 31 29  1  0  0  0  0
M  END
>  <minimizedAffinity>
-4.70603943

>  <minimizedRMSD>
1.94143796

$$$$
