
 OpenBabel03272502423D

 21 22  0  0  0  0  0  0  0  0999 V2000
   37.2080   29.0710   50.4680 Cl  0  0  0  0  0  0  0  0  0  0  0  0
   35.9030   29.1710   49.3180 C   0  0  0  0  0  0  0  0  0  0  0  0
   35.8730   30.2000   48.3930 C   0  0  0  0  0  0  0  0  0  0  0  0
   34.8660   30.3150   47.4740 C   0  0  0  0  0  0  0  0  0  0  0  0
   33.8380   29.3860   47.4480 C   0  0  0  0  0  0  0  0  0  0  0  0
   33.8330   28.3360   48.3630 C   0  0  0  0  0  0  0  0  0  0  0  0
   32.5900   27.1020   48.4290 Cl  0  0  0  0  0  0  0  0  0  0  0  0
   34.8740   28.2650   49.2730 C   0  0  0  0  0  0  0  0  0  0  0  0
   34.8680   31.1270   46.7630 H   0  0  0  0  0  0  0  0  0  0  0  0
   33.0200   29.4350   46.7390 H   0  0  0  0  0  0  0  0  0  0  0  0
   34.8940   27.4580   49.9950 H   0  0  0  0  0  0  0  0  0  0  0  0
   38.0540   32.9760   49.4120 C   0  0  0  0  0  0  0  0  0  0  0  0
   38.9880   33.0300   48.3770 C   0  0  0  0  0  0  0  0  0  0  0  0
   38.8510   32.1010   47.3300 C   0  0  0  0  0  0  0  0  0  0  0  0
   37.8290   31.2080   47.3840 N   0  0  0  0  0  0  0  0  0  0  0  0
   36.9400   31.1820   48.4030 C   0  0  0  0  0  0  0  0  0  0  0  0
   37.0710   32.0750   49.4090 N   0  0  0  0  0  0  0  0  0  0  0  0
   38.1860   33.7090   50.2080 H   0  0  0  0  0  0  0  0  0  0  0  0
   39.8020   33.7070   48.2900 H   0  0  0  0  0  0  0  0  0  0  0  0
   39.9650   32.0270   45.9150 S   0  0  0  0  0  0  0  0  0  0  0  0
   39.5830   30.9970   45.0410 H   0  0  0  0  0  0  0  0  0  0  0  0
  2  1  1  0  0  0  0
  3 16  1  0  0  0  0
  3  2  2  0  0  0  0
  4  3  1  0  0  0  0
  5  4  2  0  0  0  0
  5  6  1  0  0  0  0
  6  7  1  0  0  0  0
  6  8  2  0  0  0  0
  8  2  1  0  0  0  0
  8 11  1  0  0  0  0
  9  4  1  0  0  0  0
 10  5  1  0  0  0  0
 12 18  1  0  0  0  0
 13 12  2  0  0  0  0
 14 15  2  0  0  0  0
 14 13  1  0  0  0  0
 15 16  1  0  0  0  0
 16 17  2  0  0  0  0
 17 12  1  0  0  0  0
 19 13  1  0  0  0  0
 20 14  1  0  0  0  0
 21 20  1  0  0  0  0
M  END
>  <minimizedAffinity>
-5.63067627

>  <minimizedRMSD>
0.18527995

$$$$
