
 OpenBabel03262520163D

 11 11  0  0  0  0  0  0  0  0999 V2000
   37.3670   30.2110   51.3500 C   0  0  0  0  0  0  0  0  0  0  0  0
   38.0130   30.7090   50.2090 C   0  0  0  0  0  0  0  0  0  0  0  0
   37.4940   30.3550   48.9650 C   0  0  0  0  0  0  0  0  0  0  0  0
   36.3950   29.5510   48.9280 N   0  0  0  0  0  0  0  0  0  0  0  0
   35.8020   29.0920   50.0430 C   0  0  0  0  0  0  0  0  0  0  0  0
   36.2870   29.4210   51.2570 N   0  0  0  0  0  0  0  0  0  0  0  0
   37.7730   30.4870   52.3030 H   0  0  0  0  0  0  0  0  0  0  0  0
   38.8850   31.3490   50.2200 H   0  0  0  0  0  0  0  0  0  0  0  0
   34.9280   28.4500   50.0350 H   0  0  0  0  0  0  0  0  0  0  0  0
   38.1820   30.8950   47.4060 S   0  0  0  0  0  0  0  0  0  0  0  0
   38.7680   29.8250   46.6940 H   0  0  0  0  0  0  0  0  0  0  0  0
  1  7  1  0  0  0  0
  2  8  1  0  0  0  0
  2  1  2  0  0  0  0
  3  2  1  0  0  0  0
  4  3  2  0  0  0  0
  4  5  1  0  0  0  0
  5  6  2  0  0  0  0
  6  1  1  0  0  0  0
  9  5  1  0  0  0  0
 10  3  1  0  0  0  0
 11 10  1  0  0  0  0
M  END
>  <minimizedAffinity>
-3.15195775

>  <minimizedRMSD>
0.198761567

$$$$
