
 OpenBabel03272504373D

 23 24  0  0  0  0  0  0  0  0999 V2000
   37.8940   23.6760   33.3660 Cl  0  0  0  0  0  0  0  0  0  0  0  0
   37.7660   25.2870   34.0060 C   0  0  0  0  0  0  0  0  0  0  0  0
   38.3610   25.5780   35.2150 C   0  0  0  0  0  0  0  0  0  0  0  0
   38.2760   26.8450   35.7440 C   0  0  0  0  0  0  0  0  0  0  0  0
   37.5850   27.8080   35.0380 C   0  0  0  0  0  0  0  0  0  0  0  0
   36.9920   27.4970   33.8210 C   0  0  0  0  0  0  0  0  0  0  0  0
   37.0660   26.2060   33.2610 C   0  0  0  0  0  0  0  0  0  0  0  0
   38.7120   27.1490   36.6760 H   0  0  0  0  0  0  0  0  0  0  0  0
   37.4810   28.8220   35.3950 H   0  0  0  0  0  0  0  0  0  0  0  0
   36.4410   28.2420   33.2470 H   0  0  0  0  0  0  0  0  0  0  0  0
   40.9240   23.1370   36.2620 C   0  0  0  0  0  0  0  0  0  0  0  0
   40.3430   22.6180   37.4470 C   0  0  0  0  0  0  0  0  0  0  0  0
   39.0920   23.1300   37.8390 C   0  0  0  0  0  0  0  0  0  0  0  0
   38.5120   24.0820   37.0710 N   0  0  0  0  0  0  0  0  0  0  0  0
   39.0880   24.5530   35.9530 C   0  0  0  0  0  0  0  0  0  0  0  0
   40.2790   24.0790   35.5640 N   0  0  0  0  0  0  0  0  0  0  0  0
   41.8730   22.7980   35.9000 H   0  0  0  0  0  0  0  0  0  0  0  0
   40.9110   21.8600   37.9680 H   0  0  0  0  0  0  0  0  0  0  0  0
   38.5420   22.5920   39.0250 N   0  0  0  0  0  0  0  0  0  0  0  0
   39.0780   22.7480   39.9220 H   0  0  0  0  0  0  0  0  0  0  0  0
   37.6310   22.0730   38.9150 H   0  0  0  0  0  0  0  0  0  0  0  0
   36.3120   25.8010   31.7100 S   0  0  0  0  0  0  0  0  0  0  0  0
   34.9960   25.3280   31.8710 H   0  0  0  0  0  0  0  0  0  0  0  0
  1  2  1  0  0  0  0
  2  3  1  0  0  0  0
  3  4  2  0  0  0  0
  3 15  1  0  0  0  0
  4  8  1  0  0  0  0
  5  9  1  0  0  0  0
  5  4  1  0  0  0  0
  6  5  2  0  0  0  0
  7  6  1  0  0  0  0
  7  2  2  0  0  0  0
 10  6  1  0  0  0  0
 11 12  1  0  0  0  0
 12 13  2  0  0  0  0
 12 18  1  0  0  0  0
 13 19  1  0  0  0  0
 14 13  1  0  0  0  0
 15 14  2  0  0  0  0
 16 15  1  0  0  0  0
 16 11  2  0  0  0  0
 17 11  1  0  0  0  0
 19 20  1  0  0  0  0
 21 19  1  0  0  0  0
 22 23  1  0  0  0  0
 22  7  1  0  0  0  0
M  END
>  <minimizedAffinity>
-5.10349369

$$$$

 OpenBabel03272504373D

 23 24  0  0  0  0  0  0  0  0999 V2000
   37.8070   23.5060   33.6000 Cl  0  0  0  0  0  0  0  0  0  0  0  0
   38.8140   24.9230   33.6080 C   0  0  0  0  0  0  0  0  0  0  0  0
   39.3620   25.3510   34.7980 C   0  0  0  0  0  0  0  0  0  0  0  0
   40.1640   26.4680   34.8330 C   0  0  0  0  0  0  0  0  0  0  0  0
   40.4030   27.1430   33.6550 C   0  0  0  0  0  0  0  0  0  0  0  0
   39.8430   26.6990   32.4640 C   0  0  0  0  0  0  0  0  0  0  0  0
   39.0180   25.5570   32.4050 C   0  0  0  0  0  0  0  0  0  0  0  0
   40.6260   26.8610   35.7180 H   0  0  0  0  0  0  0  0  0  0  0  0
   41.0230   28.0260   33.6110 H   0  0  0  0  0  0  0  0  0  0  0  0
   40.0180   27.2170   31.5210 H   0  0  0  0  0  0  0  0  0  0  0  0
   37.8980   24.2740   38.0120 C   0  0  0  0  0  0  0  0  0  0  0  0
   38.7350   23.1780   38.3430 C   0  0  0  0  0  0  0  0  0  0  0  0
   39.7700   22.8540   37.4470 C   0  0  0  0  0  0  0  0  0  0  0  0
   39.9130   23.5970   36.3240 N   0  0  0  0  0  0  0  0  0  0  0  0
   39.1030   24.6300   36.0390 C   0  0  0  0  0  0  0  0  0  0  0  0
   38.1120   24.9550   36.8790 N   0  0  0  0  0  0  0  0  0  0  0  0
   37.0900   24.5820   38.6430 H   0  0  0  0  0  0  0  0  0  0  0  0
   38.5130   22.6680   39.2700 H   0  0  0  0  0  0  0  0  0  0  0  0
   40.5850   21.7560   37.8070 N   0  0  0  0  0  0  0  0  0  0  0  0
   40.1190   20.8100   37.8790 H   0  0  0  0  0  0  0  0  0  0  0  0
   41.6020   21.9740   37.9750 H   0  0  0  0  0  0  0  0  0  0  0  0
   38.3000   24.9830   30.8910 S   0  0  0  0  0  0  0  0  0  0  0  0
   37.0280   25.5430   30.6660 H   0  0  0  0  0  0  0  0  0  0  0  0
  1  2  1  0  0  0  0
  2  3  1  0  0  0  0
  3  4  2  0  0  0  0
  3 15  1  0  0  0  0
  4  8  1  0  0  0  0
  5  4  1  0  0  0  0
  6  5  2  0  0  0  0
  7  6  1  0  0  0  0
  7  2  2  0  0  0  0
  9  5  1  0  0  0  0
 10  6  1  0  0  0  0
 11 12  1  0  0  0  0
 11 17  1  0  0  0  0
 12 18  1  0  0  0  0
 13 19  1  0  0  0  0
 13 12  2  0  0  0  0
 14 13  1  0  0  0  0
 15 14  2  0  0  0  0
 15 16  1  0  0  0  0
 16 11  2  0  0  0  0
 19 20  1  0  0  0  0
 19 21  1  0  0  0  0
 22  7  1  0  0  0  0
 23 22  1  0  0  0  0
M  END
>  <minimizedAffinity>
-4.89241743

$$$$

 OpenBabel03272504373D

 23 24  0  0  0  0  0  0  0  0999 V2000
   39.1840   26.6300   34.8930 Cl  0  0  0  0  0  0  0  0  0  0  0  0
   38.5810   25.3800   33.8470 C   0  0  0  0  0  0  0  0  0  0  0  0
   38.2730   24.1480   34.3810 C   0  0  0  0  0  0  0  0  0  0  0  0
   37.7920   23.1410   33.5760 C   0  0  0  0  0  0  0  0  0  0  0  0
   37.6270   23.3970   32.2310 C   0  0  0  0  0  0  0  0  0  0  0  0
   37.9430   24.6450   31.7090 C   0  0  0  0  0  0  0  0  0  0  0  0
   38.4370   25.6900   32.5150 C   0  0  0  0  0  0  0  0  0  0  0  0
   37.5290   22.1590   33.9170 H   0  0  0  0  0  0  0  0  0  0  0  0
   37.2540   22.6520   31.5440 H   0  0  0  0  0  0  0  0  0  0  0  0
   37.8210   24.8680   30.6490 H   0  0  0  0  0  0  0  0  0  0  0  0
   37.8950   24.2180   38.0530 C   0  0  0  0  0  0  0  0  0  0  0  0
   38.9010   23.3010   38.4520 C   0  0  0  0  0  0  0  0  0  0  0  0
   39.6680   22.6940   37.4400 C   0  0  0  0  0  0  0  0  0  0  0  0
   39.4110   23.0150   36.1500 N   0  0  0  0  0  0  0  0  0  0  0  0
   38.4510   23.8880   35.8050 C   0  0  0  0  0  0  0  0  0  0  0  0
   37.7090   24.4760   36.7530 N   0  0  0  0  0  0  0  0  0  0  0  0
   37.2710   24.7200   38.7630 H   0  0  0  0  0  0  0  0  0  0  0  0
   39.0030   23.1340   39.5150 H   0  0  0  0  0  0  0  0  0  0  0  0
   40.6610   21.7850   37.8710 N   0  0  0  0  0  0  0  0  0  0  0  0
   40.3350   20.9180   38.3810 H   0  0  0  0  0  0  0  0  0  0  0  0
   41.6560   22.0500   37.6460 H   0  0  0  0  0  0  0  0  0  0  0  0
   38.8420   27.2840   31.8570 S   0  0  0  0  0  0  0  0  0  0  0  0
   40.1880   27.3620   31.4550 H   0  0  0  0  0  0  0  0  0  0  0  0
  2  3  1  0  0  0  0
  2  1  1  0  0  0  0
  3 15  1  0  0  0  0
  4  8  1  0  0  0  0
  4  3  2  0  0  0  0
  5  4  1  0  0  0  0
  6  5  2  0  0  0  0
  6  7  1  0  0  0  0
  7  2  2  0  0  0  0
  9  5  1  0  0  0  0
 10  6  1  0  0  0  0
 11 12  1  0  0  0  0
 11 17  1  0  0  0  0
 12 18  1  0  0  0  0
 13 19  1  0  0  0  0
 13 12  2  0  0  0  0
 14 13  1  0  0  0  0
 15 14  2  0  0  0  0
 15 16  1  0  0  0  0
 16 11  2  0  0  0  0
 19 20  1  0  0  0  0
 21 19  1  0  0  0  0
 22  7  1  0  0  0  0
 23 22  1  0  0  0  0
M  END
>  <minimizedAffinity>
-4.71660471

$$$$

 OpenBabel03272504373D

 23 24  0  0  0  0  0  0  0  0999 V2000
   38.7350   26.5900   35.1780 Cl  0  0  0  0  0  0  0  0  0  0  0  0
   38.0600   25.4540   34.0490 C   0  0  0  0  0  0  0  0  0  0  0  0
   38.2970   24.1080   34.2290 C   0  0  0  0  0  0  0  0  0  0  0  0
   37.7740   23.1870   33.3510 C   0  0  0  0  0  0  0  0  0  0  0  0
   37.0120   23.6420   32.2960 C   0  0  0  0  0  0  0  0  0  0  0  0
   36.7820   25.0020   32.1300 C   0  0  0  0  0  0  0  0  0  0  0  0
   37.3090   25.9630   33.0160 C   0  0  0  0  0  0  0  0  0  0  0  0
   37.9130   22.1250   33.4250 H   0  0  0  0  0  0  0  0  0  0  0  0
   36.5700   22.9740   31.5720 H   0  0  0  0  0  0  0  0  0  0  0  0
   36.1830   25.3840   31.3040 H   0  0  0  0  0  0  0  0  0  0  0  0
   41.1350   22.9640   36.2940 C   0  0  0  0  0  0  0  0  0  0  0  0
   40.4990   22.7500   37.5440 C   0  0  0  0  0  0  0  0  0  0  0  0
   39.1180   23.0090   37.6250 C   0  0  0  0  0  0  0  0  0  0  0  0
   38.4730   23.4440   36.5170 N   0  0  0  0  0  0  0  0  0  0  0  0
   39.1050   23.6370   35.3470 C   0  0  0  0  0  0  0  0  0  0  0  0
   40.4190   23.3960   35.2490 N   0  0  0  0  0  0  0  0  0  0  0  0
   42.1820   22.7890   36.1530 H   0  0  0  0  0  0  0  0  0  0  0  0
   41.1290   22.4010   38.3490 H   0  0  0  0  0  0  0  0  0  0  0  0
   38.5160   22.7870   38.8840 N   0  0  0  0  0  0  0  0  0  0  0  0
   38.8480   23.3810   39.6930 H   0  0  0  0  0  0  0  0  0  0  0  0
   37.7750   22.0370   38.9140 H   0  0  0  0  0  0  0  0  0  0  0  0
   37.0220   27.7000   32.8120 S   0  0  0  0  0  0  0  0  0  0  0  0
   38.0210   28.3110   32.0320 H   0  0  0  0  0  0  0  0  0  0  0  0
  2  3  1  0  0  0  0
  2  1  1  0  0  0  0
  3 15  1  0  0  0  0
  4  8  1  0  0  0  0
  4  3  2  0  0  0  0
  5  4  1  0  0  0  0
  6  5  2  0  0  0  0
  6  7  1  0  0  0  0
  7  2  2  0  0  0  0
  9  5  1  0  0  0  0
 10  6  1  0  0  0  0
 11 12  1  0  0  0  0
 12 13  2  0  0  0  0
 12 18  1  0  0  0  0
 13 19  1  0  0  0  0
 14 13  1  0  0  0  0
 15 14  2  0  0  0  0
 16 15  1  0  0  0  0
 16 11  2  0  0  0  0
 17 11  1  0  0  0  0
 19 21  1  0  0  0  0
 19 20  1  0  0  0  0
 22  7  1  0  0  0  0
 23 22  1  0  0  0  0
M  END
>  <minimizedAffinity>
-4.56596088

$$$$

 OpenBabel03272504373D

 23 24  0  0  0  0  0  0  0  0999 V2000
   37.9540   23.6410   33.5260 Cl  0  0  0  0  0  0  0  0  0  0  0  0
   37.8630   25.2420   34.1970 C   0  0  0  0  0  0  0  0  0  0  0  0
   38.4540   25.4930   35.4160 C   0  0  0  0  0  0  0  0  0  0  0  0
   38.3980   26.7510   35.9700 C   0  0  0  0  0  0  0  0  0  0  0  0
   37.7410   27.7460   35.2770 C   0  0  0  0  0  0  0  0  0  0  0  0
   37.1520   27.4760   34.0480 C   0  0  0  0  0  0  0  0  0  0  0  0
   37.1960   26.1950   33.4630 C   0  0  0  0  0  0  0  0  0  0  0  0
   38.8330   27.0250   36.9120 H   0  0  0  0  0  0  0  0  0  0  0  0
   37.6610   28.7550   35.6530 H   0  0  0  0  0  0  0  0  0  0  0  0
   36.6270   28.2460   33.4840 H   0  0  0  0  0  0  0  0  0  0  0  0
   39.2960   22.8700   37.8740 C   0  0  0  0  0  0  0  0  0  0  0  0
   40.5670   22.4500   37.4050 C   0  0  0  0  0  0  0  0  0  0  0  0
   41.0830   23.0860   36.2610 C   0  0  0  0  0  0  0  0  0  0  0  0
   40.3470   24.0590   35.6720 N   0  0  0  0  0  0  0  0  0  0  0  0
   39.1460   24.4340   36.1410 C   0  0  0  0  0  0  0  0  0  0  0  0
   38.6370   23.8400   37.2290 N   0  0  0  0  0  0  0  0  0  0  0  0
   38.8370   22.4340   38.7370 H   0  0  0  0  0  0  0  0  0  0  0  0
   41.0500   21.6630   37.9670 H   0  0  0  0  0  0  0  0  0  0  0  0
   42.3510   22.6440   35.8200 N   0  0  0  0  0  0  0  0  0  0  0  0
   42.4310   21.6380   35.5050 H   0  0  0  0  0  0  0  0  0  0  0  0
   43.1220   23.3630   35.8410 H   0  0  0  0  0  0  0  0  0  0  0  0
   36.4470   25.8410   31.8970 S   0  0  0  0  0  0  0  0  0  0  0  0
   35.1170   25.4010   32.0370 H   0  0  0  0  0  0  0  0  0  0  0  0
  1  2  1  0  0  0  0
  2  3  1  0  0  0  0
  3  4  2  0  0  0  0
  3 15  1  0  0  0  0
  4  8  1  0  0  0  0
  5  9  1  0  0  0  0
  5  4  1  0  0  0  0
  6  5  2  0  0  0  0
  7  6  1  0  0  0  0
  7  2  2  0  0  0  0
 10  6  1  0  0  0  0
 11 17  1  0  0  0  0
 12 11  1  0  0  0  0
 12 18  1  0  0  0  0
 13 12  2  0  0  0  0
 14 15  2  0  0  0  0
 14 13  1  0  0  0  0
 15 16  1  0  0  0  0
 16 11  2  0  0  0  0
 19 21  1  0  0  0  0
 19 13  1  0  0  0  0
 20 19  1  0  0  0  0
 22 23  1  0  0  0  0
 22  7  1  0  0  0  0
M  END
>  <minimizedAffinity>
-4.50156116

$$$$

 OpenBabel03272504373D

 23 24  0  0  0  0  0  0  0  0999 V2000
   38.2040   23.2880   33.5640 Cl  0  0  0  0  0  0  0  0  0  0  0  0
   39.0440   24.8070   33.6530 C   0  0  0  0  0  0  0  0  0  0  0  0
   40.0010   24.9890   34.6280 C   0  0  0  0  0  0  0  0  0  0  0  0
   40.6810   26.1810   34.7200 C   0  0  0  0  0  0  0  0  0  0  0  0
   40.3830   27.1810   33.8180 C   0  0  0  0  0  0  0  0  0  0  0  0
   39.4160   26.9800   32.8410 C   0  0  0  0  0  0  0  0  0  0  0  0
   38.7060   25.7680   32.7280 C   0  0  0  0  0  0  0  0  0  0  0  0
   41.4380   26.3980   35.4480 H   0  0  0  0  0  0  0  0  0  0  0  0
   40.8800   28.1390   33.8330 H   0  0  0  0  0  0  0  0  0  0  0  0
   39.1640   27.7560   32.1180 H   0  0  0  0  0  0  0  0  0  0  0  0
   41.5880   22.1080   36.3030 C   0  0  0  0  0  0  0  0  0  0  0  0
   40.7670   21.9690   37.4520 C   0  0  0  0  0  0  0  0  0  0  0  0
   39.7000   22.8740   37.6030 C   0  0  0  0  0  0  0  0  0  0  0  0
   39.5120   23.8220   36.6540 N   0  0  0  0  0  0  0  0  0  0  0  0
   40.3080   23.9270   35.5770 C   0  0  0  0  0  0  0  0  0  0  0  0
   41.3300   23.0750   35.4140 N   0  0  0  0  0  0  0  0  0  0  0  0
   42.4180   21.4580   36.1180 H   0  0  0  0  0  0  0  0  0  0  0  0
   41.0250   21.1710   38.1320 H   0  0  0  0  0  0  0  0  0  0  0  0
   38.9020   22.7090   38.7590 N   0  0  0  0  0  0  0  0  0  0  0  0
   39.3730   22.8420   39.6960 H   0  0  0  0  0  0  0  0  0  0  0  0
   37.8910   22.4640   38.5880 H   0  0  0  0  0  0  0  0  0  0  0  0
   37.4710   25.5040   31.4860 S   0  0  0  0  0  0  0  0  0  0  0  0
   36.1870   25.8650   31.9350 H   0  0  0  0  0  0  0  0  0  0  0  0
  1  2  1  0  0  0  0
  2  3  1  0  0  0  0
  3  4  2  0  0  0  0
  3 15  1  0  0  0  0
  4  8  1  0  0  0  0
  5  9  1  0  0  0  0
  5  4  1  0  0  0  0
  6  5  2  0  0  0  0
  7  6  1  0  0  0  0
  7  2  2  0  0  0  0
 10  6  1  0  0  0  0
 11 12  1  0  0  0  0
 12 13  2  0  0  0  0
 12 18  1  0  0  0  0
 13 19  1  0  0  0  0
 14 13  1  0  0  0  0
 15 14  2  0  0  0  0
 16 15  1  0  0  0  0
 16 11  2  0  0  0  0
 17 11  1  0  0  0  0
 19 20  1  0  0  0  0
 21 19  1  0  0  0  0
 22 23  1  0  0  0  0
 22  7  1  0  0  0  0
M  END
>  <minimizedAffinity>
-4.42770195

$$$$

 OpenBabel03272504373D

 23 24  0  0  0  0  0  0  0  0999 V2000
   40.7810   23.3320   34.6380 Cl  0  0  0  0  0  0  0  0  0  0  0  0
   39.7760   23.6000   36.0310 C   0  0  0  0  0  0  0  0  0  0  0  0
   38.7740   24.5430   35.9640 C   0  0  0  0  0  0  0  0  0  0  0  0
   37.9630   24.7750   37.0510 C   0  0  0  0  0  0  0  0  0  0  0  0
   38.1780   24.0430   38.2000 C   0  0  0  0  0  0  0  0  0  0  0  0
   39.1930   23.0950   38.2510 C   0  0  0  0  0  0  0  0  0  0  0  0
   40.0350   22.8430   37.1490 C   0  0  0  0  0  0  0  0  0  0  0  0
   37.1630   25.4900   37.0770 H   0  0  0  0  0  0  0  0  0  0  0  0
   37.5790   24.1730   39.0890 H   0  0  0  0  0  0  0  0  0  0  0  0
   39.3810   22.5060   39.1470 H   0  0  0  0  0  0  0  0  0  0  0  0
   38.9920   27.1290   33.3390 C   0  0  0  0  0  0  0  0  0  0  0  0
   38.0350   26.6560   32.4050 C   0  0  0  0  0  0  0  0  0  0  0  0
   37.3540   25.4650   32.7160 C   0  0  0  0  0  0  0  0  0  0  0  0
   37.6420   24.8380   33.8810 N   0  0  0  0  0  0  0  0  0  0  0  0
   38.5550   25.3120   34.7450 C   0  0  0  0  0  0  0  0  0  0  0  0
   39.2150   26.4440   34.4670 N   0  0  0  0  0  0  0  0  0  0  0  0
   39.5510   28.0270   33.1730 H   0  0  0  0  0  0  0  0  0  0  0  0
   37.9000   27.2520   31.5130 H   0  0  0  0  0  0  0  0  0  0  0  0
   36.4080   25.0210   31.7640 N   0  0  0  0  0  0  0  0  0  0  0  0
   36.7700   24.7640   30.8050 H   0  0  0  0  0  0  0  0  0  0  0  0
   35.4070   24.9820   32.0930 H   0  0  0  0  0  0  0  0  0  0  0  0
   41.3320   21.6370   37.2040 S   0  0  0  0  0  0  0  0  0  0  0  0
   42.5530   22.1950   37.6270 H   0  0  0  0  0  0  0  0  0  0  0  0
  1  2  1  0  0  0  0
  2  7  1  0  0  0  0
  3  2  2  0  0  0  0
  3  4  1  0  0  0  0
  4  8  1  0  0  0  0
  4  5  2  0  0  0  0
  5  6  1  0  0  0  0
  5  9  1  0  0  0  0
  6 10  1  0  0  0  0
  7 22  1  0  0  0  0
  7  6  2  0  0  0  0
 11 16  1  0  0  0  0
 12 13  1  0  0  0  0
 12 11  2  0  0  0  0
 13 14  2  0  0  0  0
 14 15  1  0  0  0  0
 15  3  1  0  0  0  0
 16 15  2  0  0  0  0
 17 11  1  0  0  0  0
 18 12  1  0  0  0  0
 19 21  1  0  0  0  0
 19 13  1  0  0  0  0
 20 19  1  0  0  0  0
 22 23  1  0  0  0  0
M  END
>  <minimizedAffinity>
-4.39700365

$$$$

 OpenBabel03272504373D

 23 24  0  0  0  0  0  0  0  0999 V2000
   38.6440   22.4160   33.9710 Cl  0  0  0  0  0  0  0  0  0  0  0  0
   37.4660   23.1470   32.9230 C   0  0  0  0  0  0  0  0  0  0  0  0
   37.5060   24.5080   32.7130 C   0  0  0  0  0  0  0  0  0  0  0  0
   36.5870   25.1120   31.8870 C   0  0  0  0  0  0  0  0  0  0  0  0
   35.6310   24.3250   31.2800 C   0  0  0  0  0  0  0  0  0  0  0  0
   35.6050   22.9540   31.5020 C   0  0  0  0  0  0  0  0  0  0  0  0
   36.5370   22.3150   32.3440 C   0  0  0  0  0  0  0  0  0  0  0  0
   36.5540   26.1630   31.6740 H   0  0  0  0  0  0  0  0  0  0  0  0
   34.8810   24.7340   30.6200 H   0  0  0  0  0  0  0  0  0  0  0  0
   34.8590   22.3130   31.0330 H   0  0  0  0  0  0  0  0  0  0  0  0
   40.6950   26.1750   33.5400 C   0  0  0  0  0  0  0  0  0  0  0  0
   40.3250   26.9270   34.6840 C   0  0  0  0  0  0  0  0  0  0  0  0
   38.9920   26.8310   35.1240 C   0  0  0  0  0  0  0  0  0  0  0  0
   38.1390   26.0320   34.4410 N   0  0  0  0  0  0  0  0  0  0  0  0
   38.5200   25.3320   33.3600 C   0  0  0  0  0  0  0  0  0  0  0  0
   39.7850   25.4100   32.9250 N   0  0  0  0  0  0  0  0  0  0  0  0
   41.6900   26.1960   33.1440 H   0  0  0  0  0  0  0  0  0  0  0  0
   41.1030   27.5260   35.1370 H   0  0  0  0  0  0  0  0  0  0  0  0
   38.6560   27.5940   36.2660 N   0  0  0  0  0  0  0  0  0  0  0  0
   38.7340   28.6450   36.1870 H   0  0  0  0  0  0  0  0  0  0  0  0
   38.3520   27.0450   37.1130 H   0  0  0  0  0  0  0  0  0  0  0  0
   36.5100   20.5670   32.6340 S   0  0  0  0  0  0  0  0  0  0  0  0
   35.7230   20.2300   33.7510 H   0  0  0  0  0  0  0  0  0  0  0  0
  2  1  1  0  0  0  0
  3  2  1  0  0  0  0
  3 15  1  0  0  0  0
  4  3  2  0  0  0  0
  5  6  2  0  0  0  0
  5  4  1  0  0  0  0
  6  7  1  0  0  0  0
  7 22  1  0  0  0  0
  7  2  2  0  0  0  0
  8  4  1  0  0  0  0
  9  5  1  0  0  0  0
 10  6  1  0  0  0  0
 11 12  1  0  0  0  0
 12 13  2  0  0  0  0
 12 18  1  0  0  0  0
 13 19  1  0  0  0  0
 14 13  1  0  0  0  0
 15 14  2  0  0  0  0
 16 15  1  0  0  0  0
 16 11  2  0  0  0  0
 17 11  1  0  0  0  0
 19 21  1  0  0  0  0
 20 19  1  0  0  0  0
 22 23  1  0  0  0  0
M  END
>  <minimizedAffinity>
-4.3833437

$$$$

 OpenBabel03272504373D

 23 24  0  0  0  0  0  0  0  0999 V2000
   39.2570   24.6420   33.3370 Cl  0  0  0  0  0  0  0  0  0  0  0  0
   38.1930   23.2980   33.0520 C   0  0  0  0  0  0  0  0  0  0  0  0
   37.7820   22.5290   34.1200 C   0  0  0  0  0  0  0  0  0  0  0  0
   36.9390   21.4600   33.9230 C   0  0  0  0  0  0  0  0  0  0  0  0
   36.5180   21.1810   32.6400 C   0  0  0  0  0  0  0  0  0  0  0  0
   36.9410   21.9670   31.5750 C   0  0  0  0  0  0  0  0  0  0  0  0
   37.8050   23.0660   31.7530 C   0  0  0  0  0  0  0  0  0  0  0  0
   36.5760   20.8160   34.7010 H   0  0  0  0  0  0  0  0  0  0  0  0
   35.8560   20.3590   32.4150 H   0  0  0  0  0  0  0  0  0  0  0  0
   36.6210   21.7660   30.5530 H   0  0  0  0  0  0  0  0  0  0  0  0
   38.1130   24.0400   37.4710 C   0  0  0  0  0  0  0  0  0  0  0  0
   39.1910   23.2900   38.0080 C   0  0  0  0  0  0  0  0  0  0  0  0
   39.7600   22.2930   37.1940 C   0  0  0  0  0  0  0  0  0  0  0  0
   39.2560   22.1030   35.9520 N   0  0  0  0  0  0  0  0  0  0  0  0
   38.2330   22.8310   35.4720 C   0  0  0  0  0  0  0  0  0  0  0  0
   37.6780   23.7850   36.2320 N   0  0  0  0  0  0  0  0  0  0  0  0
   37.6290   24.8160   38.0290 H   0  0  0  0  0  0  0  0  0  0  0  0
   39.4980   23.5430   39.0130 H   0  0  0  0  0  0  0  0  0  0  0  0
   40.8310   21.5630   37.7590 N   0  0  0  0  0  0  0  0  0  0  0  0
   40.6230   20.9840   38.6180 H   0  0  0  0  0  0  0  0  0  0  0  0
   41.7600   21.6590   37.2710 H   0  0  0  0  0  0  0  0  0  0  0  0
   38.3500   24.0740   30.4020 S   0  0  0  0  0  0  0  0  0  0  0  0
   39.5530   23.6030   29.8450 H   0  0  0  0  0  0  0  0  0  0  0  0
  2  1  1  0  0  0  0
  2  3  1  0  0  0  0
  3 15  1  0  0  0  0
  4  3  2  0  0  0  0
  4  8  1  0  0  0  0
  5  4  1  0  0  0  0
  6  7  1  0  0  0  0
  6  5  2  0  0  0  0
  7  2  2  0  0  0  0
  9  5  1  0  0  0  0
 10  6  1  0  0  0  0
 11 12  1  0  0  0  0
 11 17  1  0  0  0  0
 12 18  1  0  0  0  0
 13 19  1  0  0  0  0
 13 12  2  0  0  0  0
 14 13  1  0  0  0  0
 15 14  2  0  0  0  0
 15 16  1  0  0  0  0
 16 11  2  0  0  0  0
 19 20  1  0  0  0  0
 21 19  1  0  0  0  0
 22  7  1  0  0  0  0
 23 22  1  0  0  0  0
M  END
>  <minimizedAffinity>
-4.36433458

$$$$
