
 OpenBabel03272509463D

 18 18  0  0  0  0  0  0  0  0999 V2000
   37.3470   30.2420   51.4350 C   0  0  0  0  0  0  0  0  0  0  0  0
   38.0870   30.7390   50.3640 C   0  0  0  0  0  0  0  0  0  0  0  0
   37.7120   30.3790   49.0590 C   0  0  0  0  0  0  0  0  0  0  0  0
   36.6340   29.5560   48.9420 N   0  0  0  0  0  0  0  0  0  0  0  0
   35.9430   29.0940   49.9850 C   0  0  0  0  0  0  0  0  0  0  0  0
   36.3200   29.4510   51.2230 N   0  0  0  0  0  0  0  0  0  0  0  0
   37.6270   30.5120   52.4480 H   0  0  0  0  0  0  0  0  0  0  0  0
   38.9420   31.3950   50.4880 H   0  0  0  0  0  0  0  0  0  0  0  0
   38.2400   30.7280   48.1800 H   0  0  0  0  0  0  0  0  0  0  0  0
   34.8880   28.2730   49.6250 O   0  0  0  0  0  0  0  0  0  0  0  0
   34.4150   28.3360   48.3040 C   0  0  0  0  0  0  0  0  0  0  0  0
   35.2330   28.4370   47.5710 H   0  0  0  0  0  0  0  0  0  0  0  0
   33.7260   29.2170   48.2280 H   0  0  0  0  0  0  0  0  0  0  0  0
   33.5600   27.1350   47.9690 C   0  0  0  0  0  0  0  0  0  0  0  0
   33.6750   26.9110   46.8890 H   0  0  0  0  0  0  0  0  0  0  0  0
   33.9100   26.2530   48.5620 H   0  0  0  0  0  0  0  0  0  0  0  0
   31.8470   27.5190   48.4120 S   0  0  0  0  0  0  0  0  0  0  0  0
   30.9750   26.8180   47.5670 H   0  0  0  0  0  0  0  0  0  0  0  0
  1  7  1  0  0  0  0
  2  8  1  0  0  0  0
  2  1  2  0  0  0  0
  3  2  1  0  0  0  0
  4  3  2  0  0  0  0
  4  5  1  0  0  0  0
  5  6  2  0  0  0  0
  6  1  1  0  0  0  0
  9  3  1  0  0  0  0
 10  5  1  0  0  0  0
 11 10  1  0  0  0  0
 12 11  1  0  0  0  0
 13 11  1  0  0  0  0
 14 11  1  0  0  0  0
 14 17  1  0  0  0  0
 14 16  1  0  0  0  0
 15 14  1  0  0  0  0
 18 17  1  0  0  0  0
M  END
>  <minimizedAffinity>
-3.42638898

>  <minimizedRMSD>
0.553422749

$$$$
