
 OpenBabel03262522543D

 21 22  0  0  0  0  0  0  0  0999 V2000
   38.8730   27.2550   35.9700 Cl  0  0  0  0  0  0  0  0  0  0  0  0
   38.3530   26.3810   34.5430 C   0  0  0  0  0  0  0  0  0  0  0  0
   38.1930   25.0000   34.5760 C   0  0  0  0  0  0  0  0  0  0  0  0
   37.7830   24.4020   33.4150 C   0  0  0  0  0  0  0  0  0  0  0  0
   37.5320   25.0930   32.2550 C   0  0  0  0  0  0  0  0  0  0  0  0
   37.7040   26.4710   32.2660 C   0  0  0  0  0  0  0  0  0  0  0  0
   37.3830   27.3500   30.7880 Cl  0  0  0  0  0  0  0  0  0  0  0  0
   38.1140   27.1360   33.3990 C   0  0  0  0  0  0  0  0  0  0  0  0
   37.6590   23.3240   33.4440 H   0  0  0  0  0  0  0  0  0  0  0  0
   37.2100   24.5380   31.3800 H   0  0  0  0  0  0  0  0  0  0  0  0
   38.2500   28.2180   33.4100 H   0  0  0  0  0  0  0  0  0  0  0  0
   37.9160   23.8320   38.1610 C   0  0  0  0  0  0  0  0  0  0  0  0
   37.6440   24.4800   36.9470 C   0  0  0  0  0  0  0  0  0  0  0  0
   38.4740   24.3290   35.8300 C   0  0  0  0  0  0  0  0  0  0  0  0
   39.5420   23.5260   36.0000 N   0  0  0  0  0  0  0  0  0  0  0  0
   39.7960   22.9090   37.1670 C   0  0  0  0  0  0  0  0  0  0  0  0
   38.9950   23.0600   38.2300 N   0  0  0  0  0  0  0  0  0  0  0  0
   37.2000   24.0350   38.9320 H   0  0  0  0  0  0  0  0  0  0  0  0
   36.7720   25.1340   36.8140 H   0  0  0  0  0  0  0  0  0  0  0  0
   41.2580   21.8610   37.2650 S   0  0  0  0  0  0  0  0  0  0  0  0
   42.3190   22.5420   36.6830 H   0  0  0  0  0  0  0  0  0  0  0  0
  2  3  1  0  0  0  0
  2  1  1  0  0  0  0
  3 14  1  0  0  0  0
  4  9  1  0  0  0  0
  4  3  2  0  0  0  0
  5  6  2  0  0  0  0
  5  4  1  0  0  0  0
  6  8  1  0  0  0  0
  7  6  1  0  0  0  0
  8 11  1  0  0  0  0
  8  2  2  0  0  0  0
 10  5  1  0  0  0  0
 12 17  1  0  0  0  0
 12 18  1  0  0  0  0
 13 12  2  0  0  0  0
 14 15  2  0  0  0  0
 14 13  1  0  0  0  0
 15 16  1  0  0  0  0
 16 20  1  0  0  0  0
 16 17  2  0  0  0  0
 19 13  1  0  0  0  0
 21 20  1  0  0  0  0
M  END
>  <minimizedAffinity>
-4.59555101

$$$$

 OpenBabel03262522543D

 21 22  0  0  0  0  0  0  0  0999 V2000
   37.8850   23.5450   33.6400 Cl  0  0  0  0  0  0  0  0  0  0  0  0
   37.7720   25.2200   34.1410 C   0  0  0  0  0  0  0  0  0  0  0  0
   38.2130   25.6160   35.3990 C   0  0  0  0  0  0  0  0  0  0  0  0
   38.0860   26.9440   35.7050 C   0  0  0  0  0  0  0  0  0  0  0  0
   37.5530   27.8710   34.8430 C   0  0  0  0  0  0  0  0  0  0  0  0
   37.1240   27.4330   33.5960 C   0  0  0  0  0  0  0  0  0  0  0  0
   36.4480   28.6160   32.4990 Cl  0  0  0  0  0  0  0  0  0  0  0  0
   37.2240   26.1120   33.2250 C   0  0  0  0  0  0  0  0  0  0  0  0
   38.4310   27.2490   36.6880 H   0  0  0  0  0  0  0  0  0  0  0  0
   37.4900   28.9050   35.1680 H   0  0  0  0  0  0  0  0  0  0  0  0
   36.8880   25.7660   32.2470 H   0  0  0  0  0  0  0  0  0  0  0  0
   38.6670   23.2230   38.2910 C   0  0  0  0  0  0  0  0  0  0  0  0
   38.1350   24.2160   37.4560 C   0  0  0  0  0  0  0  0  0  0  0  0
   38.7640   24.5890   36.2620 C   0  0  0  0  0  0  0  0  0  0  0  0
   39.9060   23.9340   35.9740 N   0  0  0  0  0  0  0  0  0  0  0  0
   40.4090   22.9840   36.7800 C   0  0  0  0  0  0  0  0  0  0  0  0
   39.8000   22.6350   37.9210 N   0  0  0  0  0  0  0  0  0  0  0  0
   38.0850   23.0380   39.1720 H   0  0  0  0  0  0  0  0  0  0  0  0
   37.2050   24.7470   37.6950 H   0  0  0  0  0  0  0  0  0  0  0  0
   41.9440   22.1830   36.2820 S   0  0  0  0  0  0  0  0  0  0  0  0
   42.8280   23.1660   35.8580 H   0  0  0  0  0  0  0  0  0  0  0  0
  1  2  1  0  0  0  0
  2  3  1  0  0  0  0
  3  4  2  0  0  0  0
  3 14  1  0  0  0  0
  4  9  1  0  0  0  0
  5 10  1  0  0  0  0
  5  4  1  0  0  0  0
  6  5  2  0  0  0  0
  7  6  1  0  0  0  0
  8  6  1  0  0  0  0
  8  2  2  0  0  0  0
 11  8  1  0  0  0  0
 12 18  1  0  0  0  0
 13 19  1  0  0  0  0
 13 12  2  0  0  0  0
 14 13  1  0  0  0  0
 15 14  2  0  0  0  0
 15 16  1  0  0  0  0
 16 17  2  0  0  0  0
 17 12  1  0  0  0  0
 20 16  1  0  0  0  0
 21 20  1  0  0  0  0
M  END
>  <minimizedAffinity>
-4.54532814

$$$$

 OpenBabel03262522543D

 21 22  0  0  0  0  0  0  0  0999 V2000
   37.3970   23.9070   37.2210 Cl  0  0  0  0  0  0  0  0  0  0  0  0
   39.0400   23.6590   36.6640 C   0  0  0  0  0  0  0  0  0  0  0  0
   39.5820   24.4680   35.6700 C   0  0  0  0  0  0  0  0  0  0  0  0
   40.8720   24.2020   35.2980 C   0  0  0  0  0  0  0  0  0  0  0  0
   41.6270   23.1970   35.8510 C   0  0  0  0  0  0  0  0  0  0  0  0
   41.0480   22.4130   36.8400 C   0  0  0  0  0  0  0  0  0  0  0  0
   42.0120   21.1340   37.5440 Cl  0  0  0  0  0  0  0  0  0  0  0  0
   39.7550   22.6270   37.2620 C   0  0  0  0  0  0  0  0  0  0  0  0
   41.2910   24.8350   34.5220 H   0  0  0  0  0  0  0  0  0  0  0  0
   42.6430   23.0560   35.4950 H   0  0  0  0  0  0  0  0  0  0  0  0
   39.2980   22.0120   38.0380 H   0  0  0  0  0  0  0  0  0  0  0  0
   37.7440   27.7460   35.2550 C   0  0  0  0  0  0  0  0  0  0  0  0
   38.5660   26.7370   35.7790 C   0  0  0  0  0  0  0  0  0  0  0  0
   38.7330   25.5100   35.1270 C   0  0  0  0  0  0  0  0  0  0  0  0
   38.0550   25.3660   33.9710 N   0  0  0  0  0  0  0  0  0  0  0  0
   37.2700   26.3370   33.4750 C   0  0  0  0  0  0  0  0  0  0  0  0
   37.1170   27.5080   34.1070 N   0  0  0  0  0  0  0  0  0  0  0  0
   37.7070   28.6320   35.8550 H   0  0  0  0  0  0  0  0  0  0  0  0
   39.1150   26.8600   36.7210 H   0  0  0  0  0  0  0  0  0  0  0  0
   36.4180   26.0190   31.9210 S   0  0  0  0  0  0  0  0  0  0  0  0
   35.8640   24.7470   31.9820 H   0  0  0  0  0  0  0  0  0  0  0  0
  2  1  1  0  0  0  0
  2  8  1  0  0  0  0
  3  2  2  0  0  0  0
  4  3  1  0  0  0  0
  4  5  2  0  0  0  0
  5  6  1  0  0  0  0
  6  8  2  0  0  0  0
  6  7  1  0  0  0  0
  8 11  1  0  0  0  0
  9  4  1  0  0  0  0
 10  5  1  0  0  0  0
 12 13  1  0  0  0  0
 12 18  1  0  0  0  0
 13 19  1  0  0  0  0
 14  3  1  0  0  0  0
 14 13  2  0  0  0  0
 15 14  1  0  0  0  0
 16 15  2  0  0  0  0
 16 17  1  0  0  0  0
 17 12  2  0  0  0  0
 20 21  1  0  0  0  0
 20 16  1  0  0  0  0
M  END
>  <minimizedAffinity>
-4.49108744

$$$$

 OpenBabel03262522543D

 21 22  0  0  0  0  0  0  0  0999 V2000
   41.2650   25.1250   34.0060 Cl  0  0  0  0  0  0  0  0  0  0  0  0
   40.6580   24.1410   35.3220 C   0  0  0  0  0  0  0  0  0  0  0  0
   39.3770   24.3410   35.8260 C   0  0  0  0  0  0  0  0  0  0  0  0
   38.9870   23.5260   36.8540 C   0  0  0  0  0  0  0  0  0  0  0  0
   39.7900   22.5490   37.3910 C   0  0  0  0  0  0  0  0  0  0  0  0
   41.0620   22.3830   36.8590 C   0  0  0  0  0  0  0  0  0  0  0  0
   42.0820   21.1370   37.5430 Cl  0  0  0  0  0  0  0  0  0  0  0  0
   41.5160   23.1680   35.8240 C   0  0  0  0  0  0  0  0  0  0  0  0
   37.9870   23.6850   37.2450 H   0  0  0  0  0  0  0  0  0  0  0  0
   39.4000   21.9480   38.2060 H   0  0  0  0  0  0  0  0  0  0  0  0
   42.5150   23.0400   35.4040 H   0  0  0  0  0  0  0  0  0  0  0  0
   37.6470   27.6510   35.2380 C   0  0  0  0  0  0  0  0  0  0  0  0
   38.4180   26.6380   35.8260 C   0  0  0  0  0  0  0  0  0  0  0  0
   38.5810   25.3880   35.2160 C   0  0  0  0  0  0  0  0  0  0  0  0
   37.9510   25.2280   34.0360 N   0  0  0  0  0  0  0  0  0  0  0  0
   37.2150   26.2040   33.4790 C   0  0  0  0  0  0  0  0  0  0  0  0
   37.0650   27.3970   34.0700 N   0  0  0  0  0  0  0  0  0  0  0  0
   37.6070   28.5550   35.8110 H   0  0  0  0  0  0  0  0  0  0  0  0
   38.9280   26.7730   36.7890 H   0  0  0  0  0  0  0  0  0  0  0  0
   36.4240   25.8640   31.8970 S   0  0  0  0  0  0  0  0  0  0  0  0
   35.8340   24.6090   31.9680 H   0  0  0  0  0  0  0  0  0  0  0  0
  1  2  1  0  0  0  0
  2  8  2  0  0  0  0
  2  3  1  0  0  0  0
  3  4  2  0  0  0  0
  4  9  1  0  0  0  0
  4  5  1  0  0  0  0
  5 10  1  0  0  0  0
  6  5  2  0  0  0  0
  6  7  1  0  0  0  0
  8  6  1  0  0  0  0
 11  8  1  0  0  0  0
 12 18  1  0  0  0  0
 12 13  1  0  0  0  0
 13 19  1  0  0  0  0
 14 13  2  0  0  0  0
 14  3  1  0  0  0  0
 15 14  1  0  0  0  0
 16 15  2  0  0  0  0
 16 17  1  0  0  0  0
 17 12  2  0  0  0  0
 20 21  1  0  0  0  0
 20 16  1  0  0  0  0
M  END
>  <minimizedAffinity>
-4.33659363

$$$$

 OpenBabel03262522543D

 21 22  0  0  0  0  0  0  0  0999 V2000
   38.1380   22.7420   33.3680 Cl  0  0  0  0  0  0  0  0  0  0  0  0
   37.1160   23.8780   32.5120 C   0  0  0  0  0  0  0  0  0  0  0  0
   36.0930   23.4280   31.6830 C   0  0  0  0  0  0  0  0  0  0  0  0
   35.3460   24.3870   31.0550 C   0  0  0  0  0  0  0  0  0  0  0  0
   35.5610   25.7350   31.2070 C   0  0  0  0  0  0  0  0  0  0  0  0
   36.5940   26.1410   32.0430 C   0  0  0  0  0  0  0  0  0  0  0  0
   36.8660   27.8590   32.2350 Cl  0  0  0  0  0  0  0  0  0  0  0  0
   37.3830   25.2300   32.7050 C   0  0  0  0  0  0  0  0  0  0  0  0
   34.5480   24.0320   30.4090 H   0  0  0  0  0  0  0  0  0  0  0  0
   34.9200   26.4260   30.6690 H   0  0  0  0  0  0  0  0  0  0  0  0
   38.1940   25.5460   33.3620 H   0  0  0  0  0  0  0  0  0  0  0  0
   34.8510   19.9060   32.2680 C   0  0  0  0  0  0  0  0  0  0  0  0
   35.0210   21.2930   32.3800 C   0  0  0  0  0  0  0  0  0  0  0  0
   35.9180   21.9940   31.5660 C   0  0  0  0  0  0  0  0  0  0  0  0
   36.6010   21.2500   30.6740 N   0  0  0  0  0  0  0  0  0  0  0  0
   36.4320   19.9200   30.5720 C   0  0  0  0  0  0  0  0  0  0  0  0
   35.5710   19.2590   31.3570 N   0  0  0  0  0  0  0  0  0  0  0  0
   34.1340   19.4980   32.9520 H   0  0  0  0  0  0  0  0  0  0  0  0
   34.4620   21.8950   33.1090 H   0  0  0  0  0  0  0  0  0  0  0  0
   37.4060   19.0400   29.3390 S   0  0  0  0  0  0  0  0  0  0  0  0
   38.7160   19.4920   29.4180 H   0  0  0  0  0  0  0  0  0  0  0  0
  2  8  1  0  0  0  0
  2  1  1  0  0  0  0
  3  2  2  0  0  0  0
  4  5  2  0  0  0  0
  4  3  1  0  0  0  0
  5  6  1  0  0  0  0
  6  7  1  0  0  0  0
  6  8  2  0  0  0  0
  8 11  1  0  0  0  0
  9  4  1  0  0  0  0
 10  5  1  0  0  0  0
 12 13  1  0  0  0  0
 12 18  1  0  0  0  0
 13 19  1  0  0  0  0
 14  3  1  0  0  0  0
 14 13  2  0  0  0  0
 15 14  1  0  0  0  0
 16 15  2  0  0  0  0
 16 17  1  0  0  0  0
 17 12  2  0  0  0  0
 20 21  1  0  0  0  0
 20 16  1  0  0  0  0
M  END
>  <minimizedAffinity>
-4.29867935

$$$$

 OpenBabel03262522543D

 21 22  0  0  0  0  0  0  0  0999 V2000
   34.9410   31.7400   32.4190 Cl  0  0  0  0  0  0  0  0  0  0  0  0
   35.6750   30.2020   32.8240 C   0  0  0  0  0  0  0  0  0  0  0  0
   35.6320   29.7160   34.1270 C   0  0  0  0  0  0  0  0  0  0  0  0
   36.2310   28.5060   34.3510 C   0  0  0  0  0  0  0  0  0  0  0  0
   36.8540   27.7770   33.3680 C   0  0  0  0  0  0  0  0  0  0  0  0
   36.8740   28.2990   32.0810 C   0  0  0  0  0  0  0  0  0  0  0  0
   37.6680   27.3680   30.8300 Cl  0  0  0  0  0  0  0  0  0  0  0  0
   36.2900   29.5090   31.7870 C   0  0  0  0  0  0  0  0  0  0  0  0
   36.1960   28.1300   35.3690 H   0  0  0  0  0  0  0  0  0  0  0  0
   37.3040   26.8260   33.6350 H   0  0  0  0  0  0  0  0  0  0  0  0
   36.3050   29.9210   30.7770 H   0  0  0  0  0  0  0  0  0  0  0  0
   35.0040   32.2630   36.8500 C   0  0  0  0  0  0  0  0  0  0  0  0
   35.6540   31.4720   35.8910 C   0  0  0  0  0  0  0  0  0  0  0  0
   34.9600   30.5340   35.1170 C   0  0  0  0  0  0  0  0  0  0  0  0
   33.6370   30.4440   35.3570 N   0  0  0  0  0  0  0  0  0  0  0  0
   33.0220   31.2060   36.2770 C   0  0  0  0  0  0  0  0  0  0  0  0
   33.6950   32.1010   37.0130 N   0  0  0  0  0  0  0  0  0  0  0  0
   35.6550   32.9380   37.3690 H   0  0  0  0  0  0  0  0  0  0  0  0
   36.7320   31.5490   35.7010 H   0  0  0  0  0  0  0  0  0  0  0  0
   31.2480   30.9890   36.5010 S   0  0  0  0  0  0  0  0  0  0  0  0
   30.9790   29.6280   36.5470 H   0  0  0  0  0  0  0  0  0  0  0  0
  1  2  1  0  0  0  0
  2  3  1  0  0  0  0
  3  4  2  0  0  0  0
  3 14  1  0  0  0  0
  4  9  1  0  0  0  0
  5 10  1  0  0  0  0
  5  4  1  0  0  0  0
  6  5  2  0  0  0  0
  7  6  1  0  0  0  0
  8  6  1  0  0  0  0
  8  2  2  0  0  0  0
 11  8  1  0  0  0  0
 12 17  1  0  0  0  0
 12 18  1  0  0  0  0
 13 12  2  0  0  0  0
 14 15  2  0  0  0  0
 14 13  1  0  0  0  0
 15 16  1  0  0  0  0
 16 20  1  0  0  0  0
 16 17  2  0  0  0  0
 19 13  1  0  0  0  0
 20 21  1  0  0  0  0
M  END
>  <minimizedAffinity>
-4.26518106

$$$$

 OpenBabel03262522543D

 21 22  0  0  0  0  0  0  0  0999 V2000
   36.5940   25.3630   32.0420 Cl  0  0  0  0  0  0  0  0  0  0  0  0
   37.2600   25.9010   33.5710 C   0  0  0  0  0  0  0  0  0  0  0  0
   37.2490   27.2480   33.9150 C   0  0  0  0  0  0  0  0  0  0  0  0
   37.7900   27.5760   35.1290 C   0  0  0  0  0  0  0  0  0  0  0  0
   38.3280   26.6530   35.9920 C   0  0  0  0  0  0  0  0  0  0  0  0
   38.3190   25.3180   35.6090 C   0  0  0  0  0  0  0  0  0  0  0  0
   39.0040   24.1440   36.7100 Cl  0  0  0  0  0  0  0  0  0  0  0  0
   37.7900   24.9200   34.4030 C   0  0  0  0  0  0  0  0  0  0  0  0
   37.7800   28.6290   35.3940 H   0  0  0  0  0  0  0  0  0  0  0  0
   38.7370   27.0020   36.9350 H   0  0  0  0  0  0  0  0  0  0  0  0
   37.7820   23.8720   34.1000 H   0  0  0  0  0  0  0  0  0  0  0  0
   34.9120   29.7460   32.3050 C   0  0  0  0  0  0  0  0  0  0  0  0
   35.4750   28.8530   33.2290 C   0  0  0  0  0  0  0  0  0  0  0  0
   36.6680   28.1720   32.9600 C   0  0  0  0  0  0  0  0  0  0  0  0
   37.2320   28.4310   31.7650 N   0  0  0  0  0  0  0  0  0  0  0  0
   36.6860   29.2880   30.8860 C   0  0  0  0  0  0  0  0  0  0  0  0
   35.5440   29.9350   31.1520 N   0  0  0  0  0  0  0  0  0  0  0  0
   33.9990   30.1980   32.6390 H   0  0  0  0  0  0  0  0  0  0  0  0
   35.0110   28.6450   34.2010 H   0  0  0  0  0  0  0  0  0  0  0  0
   37.5390   29.5470   29.3210 S   0  0  0  0  0  0  0  0  0  0  0  0
   37.9170   28.3070   28.8220 H   0  0  0  0  0  0  0  0  0  0  0  0
  1  2  1  0  0  0  0
  2  3  2  0  0  0  0
  2  8  1  0  0  0  0
  3  4  1  0  0  0  0
  4  9  1  0  0  0  0
  4  5  2  0  0  0  0
  5 10  1  0  0  0  0
  6  5  1  0  0  0  0
  6  7  1  0  0  0  0
  8  6  2  0  0  0  0
 11  8  1  0  0  0  0
 12 18  1  0  0  0  0
 12 13  1  0  0  0  0
 13 19  1  0  0  0  0
 14 13  2  0  0  0  0
 14  3  1  0  0  0  0
 15 14  1  0  0  0  0
 16 17  1  0  0  0  0
 16 15  2  0  0  0  0
 17 12  2  0  0  0  0
 20 16  1  0  0  0  0
 21 20  1  0  0  0  0
M  END
>  <minimizedAffinity>
-4.22067308

$$$$

 OpenBabel03262522543D

 21 22  0  0  0  0  0  0  0  0999 V2000
   36.7270   25.2560   32.0200 Cl  0  0  0  0  0  0  0  0  0  0  0  0
   37.3370   25.8090   33.5660 C   0  0  0  0  0  0  0  0  0  0  0  0
   37.2840   27.1560   33.9090 C   0  0  0  0  0  0  0  0  0  0  0  0
   37.7840   27.4970   35.1370 C   0  0  0  0  0  0  0  0  0  0  0  0
   38.3200   26.5870   36.0150 C   0  0  0  0  0  0  0  0  0  0  0  0
   38.3550   25.2520   35.6320 C   0  0  0  0  0  0  0  0  0  0  0  0
   39.0370   24.0950   36.7520 Cl  0  0  0  0  0  0  0  0  0  0  0  0
   37.8680   24.8420   34.4120 C   0  0  0  0  0  0  0  0  0  0  0  0
   37.7410   28.5490   35.4010 H   0  0  0  0  0  0  0  0  0  0  0  0
   38.6950   26.9460   36.9690 H   0  0  0  0  0  0  0  0  0  0  0  0
   37.8940   23.7940   34.1100 H   0  0  0  0  0  0  0  0  0  0  0  0
   36.8170   29.2790   30.8160 C   0  0  0  0  0  0  0  0  0  0  0  0
   37.3750   28.3990   31.7550 C   0  0  0  0  0  0  0  0  0  0  0  0
   36.7070   28.0650   32.9390 C   0  0  0  0  0  0  0  0  0  0  0  0
   35.5020   28.6440   33.1120 N   0  0  0  0  0  0  0  0  0  0  0  0
   34.9750   29.4850   32.2080 C   0  0  0  0  0  0  0  0  0  0  0  0
   35.6220   29.7990   31.0780 N   0  0  0  0  0  0  0  0  0  0  0  0
   37.4350   29.4460   29.9560 H   0  0  0  0  0  0  0  0  0  0  0  0
   38.3570   27.9310   31.6080 H   0  0  0  0  0  0  0  0  0  0  0  0
   33.3560   30.1930   32.5580 S   0  0  0  0  0  0  0  0  0  0  0  0
   33.3460   30.6200   33.8790 H   0  0  0  0  0  0  0  0  0  0  0  0
  1  2  1  0  0  0  0
  2  3  2  0  0  0  0
  2  8  1  0  0  0  0
  3  4  1  0  0  0  0
  4  9  1  0  0  0  0
  4  5  2  0  0  0  0
  5 10  1  0  0  0  0
  6  5  1  0  0  0  0
  6  7  1  0  0  0  0
  8  6  2  0  0  0  0
 11  8  1  0  0  0  0
 12 17  2  0  0  0  0
 12 13  1  0  0  0  0
 13 14  2  0  0  0  0
 14 15  1  0  0  0  0
 14  3  1  0  0  0  0
 16 20  1  0  0  0  0
 16 15  2  0  0  0  0
 17 16  1  0  0  0  0
 18 12  1  0  0  0  0
 19 13  1  0  0  0  0
 20 21  1  0  0  0  0
M  END
>  <minimizedAffinity>
-4.15252256

$$$$

 OpenBabel03262522543D

 21 22  0  0  0  0  0  0  0  0999 V2000
   37.7770   27.6010   35.3860 Cl  0  0  0  0  0  0  0  0  0  0  0  0
   38.0230   25.8730   35.5350 C   0  0  0  0  0  0  0  0  0  0  0  0
   38.0940   25.0660   34.4040 C   0  0  0  0  0  0  0  0  0  0  0  0
   38.2890   23.7280   34.6160 C   0  0  0  0  0  0  0  0  0  0  0  0
   38.4110   23.1690   35.8650 C   0  0  0  0  0  0  0  0  0  0  0  0
   38.3340   24.0110   36.9670 C   0  0  0  0  0  0  0  0  0  0  0  0
   38.4910   23.2980   38.5570 Cl  0  0  0  0  0  0  0  0  0  0  0  0
   38.1410   25.3660   36.8250 C   0  0  0  0  0  0  0  0  0  0  0  0
   38.3430   23.1010   33.7320 H   0  0  0  0  0  0  0  0  0  0  0  0
   38.5630   22.0970   35.9410 H   0  0  0  0  0  0  0  0  0  0  0  0
   38.0790   26.0290   37.6890 H   0  0  0  0  0  0  0  0  0  0  0  0
   36.5890   26.4260   31.2140 C   0  0  0  0  0  0  0  0  0  0  0  0
   36.7230   25.7980   32.4610 C   0  0  0  0  0  0  0  0  0  0  0  0
   37.9570   25.7160   33.1160 C   0  0  0  0  0  0  0  0  0  0  0  0
   38.9990   26.2780   32.4710 N   0  0  0  0  0  0  0  0  0  0  0  0
   38.8620   26.8780   31.2770 C   0  0  0  0  0  0  0  0  0  0  0  0
   37.6760   26.9510   30.6580 N   0  0  0  0  0  0  0  0  0  0  0  0
   35.5900   26.4170   30.8270 H   0  0  0  0  0  0  0  0  0  0  0  0
   35.8710   25.3410   32.9810 H   0  0  0  0  0  0  0  0  0  0  0  0
   40.3330   27.5900   30.5190 S   0  0  0  0  0  0  0  0  0  0  0  0
   41.3680   26.6720   30.6350 H   0  0  0  0  0  0  0  0  0  0  0  0
  1  2  1  0  0  0  0
  2  8  1  0  0  0  0
  3  4  1  0  0  0  0
  3  2  2  0  0  0  0
  4  5  2  0  0  0  0
  5 10  1  0  0  0  0
  5  6  1  0  0  0  0
  6  7  1  0  0  0  0
  8  6  2  0  0  0  0
  8 11  1  0  0  0  0
  9  4  1  0  0  0  0
 12 13  1  0  0  0  0
 13 19  1  0  0  0  0
 13 14  2  0  0  0  0
 14  3  1  0  0  0  0
 15 14  1  0  0  0  0
 16 15  2  0  0  0  0
 17 12  2  0  0  0  0
 17 16  1  0  0  0  0
 18 12  1  0  0  0  0
 20 21  1  0  0  0  0
 20 16  1  0  0  0  0
M  END
>  <minimizedAffinity>
-4.08493757

$$$$
