
 OpenBabel03272501003D

 21 22  0  0  0  0  0  0  0  0999 V2000
   38.9500   30.9180   49.5920 F   0  0  0  0  0  0  0  0  0  0  0  0
   37.8010   30.6060   48.9500 C   0  0  0  0  0  0  0  0  0  0  0  0
   37.6010   30.7930   47.5730 C   0  0  0  0  0  0  0  0  0  0  0  0
   36.3920   30.4400   47.0260 C   0  0  0  0  0  0  0  0  0  0  0  0
   35.3520   29.9090   47.7500 C   0  0  0  0  0  0  0  0  0  0  0  0
   35.5560   29.7260   49.1210 C   0  0  0  0  0  0  0  0  0  0  0  0
   36.7530   30.0670   49.7060 C   0  0  0  0  0  0  0  0  0  0  0  0
   36.2460   30.5890   45.9510 H   0  0  0  0  0  0  0  0  0  0  0  0
   34.4250   29.6530   47.2560 H   0  0  0  0  0  0  0  0  0  0  0  0
   34.7420   29.3070   49.7030 H   0  0  0  0  0  0  0  0  0  0  0  0
   39.9850   33.2360   46.2850 C   0  0  0  0  0  0  0  0  0  0  0  0
   40.7610   32.5200   45.3660 C   0  0  0  0  0  0  0  0  0  0  0  0
   40.4400   31.1650   45.2000 C   0  0  0  0  0  0  0  0  0  0  0  0
   39.4210   30.6180   45.9150 N   0  0  0  0  0  0  0  0  0  0  0  0
   38.7010   31.3570   46.7920 C   0  0  0  0  0  0  0  0  0  0  0  0
   38.9870   32.6530   46.9700 N   0  0  0  0  0  0  0  0  0  0  0  0
   40.1770   34.2860   46.4630 H   0  0  0  0  0  0  0  0  0  0  0  0
   41.5570   33.0290   44.8340 H   0  0  0  0  0  0  0  0  0  0  0  0
   41.0260   30.5940   44.4960 H   0  0  0  0  0  0  0  0  0  0  0  0
   36.9690   29.8150   51.4540 S   0  0  0  0  0  0  0  0  0  0  0  0
   36.3320   30.8610   52.1490 H   0  0  0  0  0  0  0  0  0  0  0  0
  2  1  1  0  0  0  0
  2  7  1  0  0  0  0
  3  2  2  0  0  0  0
  4  3  1  0  0  0  0
  4  5  2  0  0  0  0
  5  6  1  0  0  0  0
  6 10  1  0  0  0  0
  6  7  2  0  0  0  0
  7 20  1  0  0  0  0
  8  4  1  0  0  0  0
  9  5  1  0  0  0  0
 11 17  1  0  0  0  0
 11 16  1  0  0  0  0
 12 11  2  0  0  0  0
 13 12  1  0  0  0  0
 13 14  2  0  0  0  0
 14 15  1  0  0  0  0
 15 16  2  0  0  0  0
 15  3  1  0  0  0  0
 18 12  1  0  0  0  0
 19 13  1  0  0  0  0
 20 21  1  0  0  0  0
M  END
>  <minimizedAffinity>
-5.18596554

>  <minimizedRMSD>
2.68669939

$$$$
