
 OpenBabel03272508343D

 24 25  0  0  0  0  0  0  0  0999 V2000
   37.7470   31.0950   47.9720 C   0  0  0  0  0  0  0  0  0  0  0  0
   37.1200   30.8630   46.7690 C   0  0  0  0  0  0  0  0  0  0  0  0
   37.8220   31.5300   45.7840 C   0  0  0  0  0  0  0  0  0  0  0  0
   38.8510   32.1470   46.4100 N   0  0  0  0  0  0  0  0  0  0  0  0
   38.8020   31.8850   47.7140 N   0  0  0  0  0  0  0  0  0  0  0  0
   36.2250   30.2710   46.5380 H   0  0  0  0  0  0  0  0  0  0  0  0
   37.5710   31.5400   44.7130 H   0  0  0  0  0  0  0  0  0  0  0  0
   37.3860   30.1400   51.5870 C   0  0  0  0  0  0  0  0  0  0  0  0
   37.9310   30.7180   50.4450 C   0  0  0  0  0  0  0  0  0  0  0  0
   37.2660   30.5360   49.2240 C   0  0  0  0  0  0  0  0  0  0  0  0
   36.1210   29.8010   49.2330 N   0  0  0  0  0  0  0  0  0  0  0  0
   35.6270   29.2540   50.3840 C   0  0  0  0  0  0  0  0  0  0  0  0
   36.2640   29.4300   51.5470 N   0  0  0  0  0  0  0  0  0  0  0  0
   37.9450   30.3110   52.5180 H   0  0  0  0  0  0  0  0  0  0  0  0
   38.8420   31.3020   50.4410 H   0  0  0  0  0  0  0  0  0  0  0  0
   34.7090   28.6750   50.3410 H   0  0  0  0  0  0  0  0  0  0  0  0
   39.8410   32.9670   45.7160 C   0  0  0  0  0  0  0  0  0  0  0  0
   39.4680   33.9570   45.4590 H   0  0  0  0  0  0  0  0  0  0  0  0
   40.6980   33.0770   46.4270 H   0  0  0  0  0  0  0  0  0  0  0  0
   40.3800   32.2120   44.5160 C   0  0  0  0  0  0  0  0  0  0  0  0
   40.1450   31.1460   44.5170 H   0  0  0  0  0  0  0  0  0  0  0  0
   41.4550   32.4550   44.3890 H   0  0  0  0  0  0  0  0  0  0  0  0
   39.5320   32.9430   43.0640 S   0  0  0  0  0  0  0  0  0  0  0  0
   40.1730   32.4790   41.8850 H   0  0  0  0  0  0  0  0  0  0  0  0
  1 10  1  0  0  0  0
  2  1  1  0  0  0  0
  3  4  1  0  0  0  0
  3  2  2  0  0  0  0
  4  5  1  0  0  0  0
  5  1  2  0  0  0  0
  6  2  1  0  0  0  0
  7  3  1  0  0  0  0
  8 14  1  0  0  0  0
  9  8  2  0  0  0  0
 10 11  2  0  0  0  0
 10  9  1  0  0  0  0
 11 12  1  0  0  0  0
 12 13  2  0  0  0  0
 13  8  1  0  0  0  0
 15  9  1  0  0  0  0
 16 12  1  0  0  0  0
 17  4  1  0  0  0  0
 17 19  1  0  0  0  0
 18 17  1  0  0  0  0
 20 21  1  0  0  0  0
 20 17  1  0  0  0  0
 22 20  1  0  0  0  0
 23 20  1  0  0  0  0
 24 23  1  0  0  0  0
M  END
>  <minimizedAffinity>
-4.5224719

>  <minimizedRMSD>
0.818141639

$$$$
