
 OpenBabel03272510083D

 37 40  0  0  0  0  0  0  0  0999 V2000
   36.1620   28.9930   49.2180 C   0  0  0  0  0  0  0  0  0  0  0  0
   36.0680   30.2840   48.6570 C   0  0  0  0  0  0  0  0  0  0  0  0
   34.8470   30.6700   48.0120 C   0  0  0  0  0  0  0  0  0  0  0  0
   33.8210   29.7790   47.9590 N   0  0  0  0  0  0  0  0  0  0  0  0
   33.9770   28.5430   48.5210 C   0  0  0  0  0  0  0  0  0  0  0  0
   35.1180   28.1470   49.1410 N   0  0  0  0  0  0  0  0  0  0  0  0
   32.8590   27.6310   48.4180 N   0  0  0  0  0  0  0  0  0  0  0  0
   31.5570   27.8790   48.9540 C   0  0  0  0  0  0  0  0  0  0  0  0
   30.7150   26.7670   48.4180 C   0  0  0  0  0  0  0  0  0  0  0  0
   31.5110   26.1080   47.3130 C   0  0  0  0  0  0  0  0  0  0  0  0
   32.9200   26.3230   47.7400 C   0  0  0  0  0  0  0  0  0  0  0  0
   37.0990   28.7880   49.6790 H   0  0  0  0  0  0  0  0  0  0  0  0
   34.7100   31.6310   47.5700 H   0  0  0  0  0  0  0  0  0  0  0  0
   31.1950   28.8350   48.5140 H   0  0  0  0  0  0  0  0  0  0  0  0
   31.5280   27.9860   50.0440 H   0  0  0  0  0  0  0  0  0  0  0  0
   30.5120   26.0150   49.2070 H   0  0  0  0  0  0  0  0  0  0  0  0
   29.7520   27.0800   48.0100 H   0  0  0  0  0  0  0  0  0  0  0  0
   31.2880   26.5990   46.3380 H   0  0  0  0  0  0  0  0  0  0  0  0
   31.2700   25.0350   47.2830 H   0  0  0  0  0  0  0  0  0  0  0  0
   33.3070   25.5490   48.4040 H   0  0  0  0  0  0  0  0  0  0  0  0
   33.5340   26.4960   46.8190 H   0  0  0  0  0  0  0  0  0  0  0  0
   37.0680   31.3100   48.6340 C   0  0  0  0  0  0  0  0  0  0  0  0
   37.1730   32.0500   49.7560 N   0  0  0  0  0  0  0  0  0  0  0  0
   38.0720   33.0470   49.8010 C   0  0  0  0  0  0  0  0  0  0  0  0
   38.9120   33.3870   48.7830 N   0  0  0  0  0  0  0  0  0  0  0  0
   38.8310   32.6610   47.6400 C   0  0  0  0  0  0  0  0  0  0  0  0
   39.6350   32.9150   46.5400 C   0  0  0  0  0  0  0  0  0  0  0  0
   39.5250   32.1470   45.3890 C   0  0  0  0  0  0  0  0  0  0  0  0
   38.5880   31.1050   45.3480 C   0  0  0  0  0  0  0  0  0  0  0  0
   37.8120   30.8920   46.4680 C   0  0  0  0  0  0  0  0  0  0  0  0
   37.9070   31.6410   47.6060 C   0  0  0  0  0  0  0  0  0  0  0  0
   38.1620   33.6530   50.7110 H   0  0  0  0  0  0  0  0  0  0  0  0
   40.3300   33.7210   46.6320 H   0  0  0  0  0  0  0  0  0  0  0  0
   40.1760   32.3900   44.5610 H   0  0  0  0  0  0  0  0  0  0  0  0
   38.5830   30.5710   44.4110 H   0  0  0  0  0  0  0  0  0  0  0  0
   36.7390   29.4890   46.2240 S   0  0  0  0  0  0  0  0  0  0  0  0
   36.5840   28.7400   47.4220 H   0  0  0  0  0  0  0  0  0  0  0  0
  1 12  1  0  0  0  0
  2  1  2  0  0  0  0
  3  2  1  0  0  0  0
  4  3  2  0  0  0  0
  4  5  1  0  0  0  0
  5  6  2  0  0  0  0
  6  1  1  0  0  0  0
  7  5  1  0  0  0  0
  7  8  1  0  0  0  0
  8 15  1  0  0  0  0
  9  8  1  0  0  0  0
  9 16  1  0  0  0  0
 10 11  1  0  0  0  0
 10  9  1  0  0  0  0
 11 20  1  0  0  0  0
 11  7  1  0  0  0  0
 13  3  1  0  0  0  0
 14  8  1  0  0  0  0
 17  9  1  0  0  0  0
 18 10  1  0  0  0  0
 19 10  1  0  0  0  0
 21 11  1  0  0  0  0
 22  2  1  0  0  0  0
 22 23  1  0  0  0  0
 23 24  2  0  0  0  0
 24 32  1  0  0  0  0
 25 24  1  0  0  0  0
 26 25  2  0  0  0  0
 27 33  1  0  0  0  0
 27 26  1  0  0  0  0
 28 27  2  0  0  0  0
 29 28  1  0  0  0  0
 29 30  2  0  0  0  0
 30 31  1  0  0  0  0
 31 26  1  0  0  0  0
 31 22  2  0  0  0  0
 34 28  1  0  0  0  0
 35 29  1  0  0  0  0
 36 30  1  0  0  0  0
 36 37  1  0  0  0  0
M  END
>  <minimizedAffinity>
-4.90708447

>  <minimizedRMSD>
0.44627592

$$$$
