
 OpenBabel03262521523D

 15 15  0  0  0  0  0  0  0  0999 V2000
   38.5060   23.9170   36.0640 C   0  0  0  0  0  0  0  0  0  0  0  0
   39.6790   23.2200   36.3470 C   0  0  0  0  0  0  0  0  0  0  0  0
   39.9120   22.8600   37.6770 C   0  0  0  0  0  0  0  0  0  0  0  0
   38.9840   23.2050   38.6350 N   0  0  0  0  0  0  0  0  0  0  0  0
   37.8690   23.8790   38.2890 C   0  0  0  0  0  0  0  0  0  0  0  0
   37.6340   24.2280   37.0320 N   0  0  0  0  0  0  0  0  0  0  0  0
   40.4350   22.9220   35.6640 H   0  0  0  0  0  0  0  0  0  0  0  0
   40.7860   22.3250   37.9720 H   0  0  0  0  0  0  0  0  0  0  0  0
   37.1780   24.1290   39.0610 H   0  0  0  0  0  0  0  0  0  0  0  0
   38.2880   24.3270   34.3420 S   0  0  0  0  0  0  0  0  0  0  0  0
   37.9710   26.0900   34.2010 C   0  0  0  0  0  0  0  0  0  0  0  0
   38.1020   26.4750   33.1690 H   0  0  0  0  0  0  0  0  0  0  0  0
   36.8810   26.2440   34.4720 H   0  0  0  0  0  0  0  0  0  0  0  0
   39.0020   27.0840   35.3270 S   0  0  0  0  0  0  0  0  0  0  0  0
   40.3410   26.6750   35.2680 H   0  0  0  0  0  0  0  0  0  0  0  0
  1  2  2  0  0  0  0
  1  6  1  0  0  0  0
  2  3  1  0  0  0  0
  3  8  1  0  0  0  0
  3  4  2  0  0  0  0
  5  4  1  0  0  0  0
  5  9  1  0  0  0  0
  6  5  2  0  0  0  0
  7  2  1  0  0  0  0
 10  1  1  0  0  0  0
 11 10  1  0  0  0  0
 11 13  1  0  0  0  0
 11 14  1  0  0  0  0
 12 11  1  0  0  0  0
 15 14  1  0  0  0  0
M  END
>  <minimizedAffinity>
-2.86091375

$$$$

 OpenBabel03262521523D

 15 15  0  0  0  0  0  0  0  0999 V2000
   38.3430   22.5570   35.9680 C   0  0  0  0  0  0  0  0  0  0  0  0
   39.6670   22.3200   36.3300 C   0  0  0  0  0  0  0  0  0  0  0  0
   40.0570   22.6760   37.6250 C   0  0  0  0  0  0  0  0  0  0  0  0
   39.1280   23.2390   38.4710 N   0  0  0  0  0  0  0  0  0  0  0  0
   37.8620   23.4390   38.0530 C   0  0  0  0  0  0  0  0  0  0  0  0
   37.4760   23.1070   36.8290 N   0  0  0  0  0  0  0  0  0  0  0  0
   40.4340   21.8910   35.7340 H   0  0  0  0  0  0  0  0  0  0  0  0
   41.0520   22.5240   37.9760 H   0  0  0  0  0  0  0  0  0  0  0  0
   37.1740   23.8800   38.7390 H   0  0  0  0  0  0  0  0  0  0  0  0
   37.9330   22.0640   34.3040 S   0  0  0  0  0  0  0  0  0  0  0  0
   37.8230   23.5320   33.2740 C   0  0  0  0  0  0  0  0  0  0  0  0
   37.5230   24.4390   33.8380 H   0  0  0  0  0  0  0  0  0  0  0  0
   38.8660   23.7240   32.8760 H   0  0  0  0  0  0  0  0  0  0  0  0
   36.6860   23.3210   31.8660 S   0  0  0  0  0  0  0  0  0  0  0  0
   35.4770   22.7490   32.2830 H   0  0  0  0  0  0  0  0  0  0  0  0
  1  2  2  0  0  0  0
  1  6  1  0  0  0  0
  2  3  1  0  0  0  0
  3  8  1  0  0  0  0
  3  4  2  0  0  0  0
  5  4  1  0  0  0  0
  5  9  1  0  0  0  0
  6  5  2  0  0  0  0
  7  2  1  0  0  0  0
 10  1  1  0  0  0  0
 11 12  1  0  0  0  0
 11 10  1  0  0  0  0
 13 11  1  0  0  0  0
 14 15  1  0  0  0  0
 14 11  1  0  0  0  0
M  END
>  <minimizedAffinity>
-2.80024457

$$$$

 OpenBabel03262521523D

 15 15  0  0  0  0  0  0  0  0999 V2000
   39.8230   22.8700   37.2540 C   0  0  0  0  0  0  0  0  0  0  0  0
   39.5510   23.4350   36.0100 C   0  0  0  0  0  0  0  0  0  0  0  0
   38.4680   24.3150   35.9220 C   0  0  0  0  0  0  0  0  0  0  0  0
   37.7290   24.5790   37.0540 N   0  0  0  0  0  0  0  0  0  0  0  0
   38.0510   23.9970   38.2260 C   0  0  0  0  0  0  0  0  0  0  0  0
   39.0740   23.1600   38.3260 N   0  0  0  0  0  0  0  0  0  0  0  0
   40.0760   23.2790   35.1000 H   0  0  0  0  0  0  0  0  0  0  0  0
   38.1990   24.7880   35.0060 H   0  0  0  0  0  0  0  0  0  0  0  0
   37.4510   24.2260   39.0780 H   0  0  0  0  0  0  0  0  0  0  0  0
   41.2250   21.7690   37.2750 S   0  0  0  0  0  0  0  0  0  0  0  0
   42.3410   22.2260   35.9420 C   0  0  0  0  0  0  0  0  0  0  0  0
   42.9420   21.3730   35.5640 H   0  0  0  0  0  0  0  0  0  0  0  0
   41.6910   22.5740   35.0820 H   0  0  0  0  0  0  0  0  0  0  0  0
   43.4760   23.5750   36.4040 S   0  0  0  0  0  0  0  0  0  0  0  0
   44.0530   23.3330   37.6580 H   0  0  0  0  0  0  0  0  0  0  0  0
  1 10  1  0  0  0  0
  1  6  1  0  0  0  0
  2  1  2  0  0  0  0
  3  2  1  0  0  0  0
  3  4  2  0  0  0  0
  4  5  1  0  0  0  0
  5  6  2  0  0  0  0
  5  9  1  0  0  0  0
  7  2  1  0  0  0  0
  8  3  1  0  0  0  0
 11 14  1  0  0  0  0
 11 10  1  0  0  0  0
 12 11  1  0  0  0  0
 13 11  1  0  0  0  0
 14 15  1  0  0  0  0
M  END
>  <minimizedAffinity>
-2.76949453

$$$$

 OpenBabel03262521523D

 15 15  0  0  0  0  0  0  0  0999 V2000
   38.6030   23.3790   35.9830 C   0  0  0  0  0  0  0  0  0  0  0  0
   37.7220   24.1080   36.7790 C   0  0  0  0  0  0  0  0  0  0  0  0
   37.9580   24.1260   38.1570 C   0  0  0  0  0  0  0  0  0  0  0  0
   39.0370   23.4320   38.6590 N   0  0  0  0  0  0  0  0  0  0  0  0
   39.8490   22.7480   37.8290 C   0  0  0  0  0  0  0  0  0  0  0  0
   39.6380   22.7200   36.5200 N   0  0  0  0  0  0  0  0  0  0  0  0
   36.8750   24.6650   36.4640 H   0  0  0  0  0  0  0  0  0  0  0  0
   37.3300   24.6630   38.8310 H   0  0  0  0  0  0  0  0  0  0  0  0
   40.6710   22.2210   38.2580 H   0  0  0  0  0  0  0  0  0  0  0  0
   38.2300   23.4200   34.2410 S   0  0  0  0  0  0  0  0  0  0  0  0
   37.4790   21.8560   33.7710 C   0  0  0  0  0  0  0  0  0  0  0  0
   38.2220   21.0480   33.6080 H   0  0  0  0  0  0  0  0  0  0  0  0
   36.8320   21.5340   34.6440 H   0  0  0  0  0  0  0  0  0  0  0  0
   36.4350   21.9940   32.2850 S   0  0  0  0  0  0  0  0  0  0  0  0
   37.0960   22.7070   31.2760 H   0  0  0  0  0  0  0  0  0  0  0  0
  1  6  2  0  0  0  0
  1  2  1  0  0  0  0
  2  3  2  0  0  0  0
  3  4  1  0  0  0  0
  3  8  1  0  0  0  0
  5  9  1  0  0  0  0
  5  4  2  0  0  0  0
  6  5  1  0  0  0  0
  7  2  1  0  0  0  0
 10  1  1  0  0  0  0
 11 10  1  0  0  0  0
 11 13  1  0  0  0  0
 12 11  1  0  0  0  0
 14 11  1  0  0  0  0
 15 14  1  0  0  0  0
M  END
>  <minimizedAffinity>
-2.73726535

$$$$

 OpenBabel03262521523D

 15 15  0  0  0  0  0  0  0  0999 V2000
   38.2700   25.1720   35.8310 C   0  0  0  0  0  0  0  0  0  0  0  0
   37.9900   24.6920   37.1090 C   0  0  0  0  0  0  0  0  0  0  0  0
   37.7970   23.3140   37.2540 C   0  0  0  0  0  0  0  0  0  0  0  0
   37.8910   22.5060   36.1420 N   0  0  0  0  0  0  0  0  0  0  0  0
   38.1670   23.0400   34.9360 C   0  0  0  0  0  0  0  0  0  0  0  0
   38.3520   24.3440   34.7820 N   0  0  0  0  0  0  0  0  0  0  0  0
   37.9040   25.2520   38.0060 H   0  0  0  0  0  0  0  0  0  0  0  0
   37.5810   22.8710   38.1990 H   0  0  0  0  0  0  0  0  0  0  0  0
   38.2290   22.3800   34.1010 H   0  0  0  0  0  0  0  0  0  0  0  0
   38.5100   26.9370   35.7420 S   0  0  0  0  0  0  0  0  0  0  0  0
   37.1320   27.6650   34.8490 C   0  0  0  0  0  0  0  0  0  0  0  0
   36.1460   27.2740   35.1740 H   0  0  0  0  0  0  0  0  0  0  0  0
   37.1400   28.7720   35.0910 H   0  0  0  0  0  0  0  0  0  0  0  0
   37.2730   27.4580   33.0440 S   0  0  0  0  0  0  0  0  0  0  0  0
   37.6100   26.1370   32.7190 H   0  0  0  0  0  0  0  0  0  0  0  0
  1  2  1  0  0  0  0
  2  3  2  0  0  0  0
  2  7  1  0  0  0  0
  3  8  1  0  0  0  0
  4  3  1  0  0  0  0
  5  4  2  0  0  0  0
  6  5  1  0  0  0  0
  6  1  2  0  0  0  0
  9  5  1  0  0  0  0
 10  1  1  0  0  0  0
 11 13  1  0  0  0  0
 11 12  1  0  0  0  0
 11 10  1  0  0  0  0
 14 11  1  0  0  0  0
 15 14  1  0  0  0  0
M  END
>  <minimizedAffinity>
-2.72752094

$$$$

 OpenBabel03262521523D

 15 15  0  0  0  0  0  0  0  0999 V2000
   36.5690   26.1640   32.1790 C   0  0  0  0  0  0  0  0  0  0  0  0
   37.1140   24.9160   32.4700 C   0  0  0  0  0  0  0  0  0  0  0  0
   36.5170   23.7960   31.8830 C   0  0  0  0  0  0  0  0  0  0  0  0
   35.4320   23.9760   31.0540 N   0  0  0  0  0  0  0  0  0  0  0  0
   34.9570   25.2150   30.8150 C   0  0  0  0  0  0  0  0  0  0  0  0
   35.5110   26.2860   31.3650 N   0  0  0  0  0  0  0  0  0  0  0  0
   37.9450   24.7030   33.0960 H   0  0  0  0  0  0  0  0  0  0  0  0
   36.8770   22.8080   32.0560 H   0  0  0  0  0  0  0  0  0  0  0  0
   34.1140   25.3090   30.1700 H   0  0  0  0  0  0  0  0  0  0  0  0
   37.3980   27.5340   32.9630 S   0  0  0  0  0  0  0  0  0  0  0  0
   37.0700   27.4770   34.7290 C   0  0  0  0  0  0  0  0  0  0  0  0
   36.5880   28.4000   35.1130 H   0  0  0  0  0  0  0  0  0  0  0  0
   36.3320   26.6320   34.8920 H   0  0  0  0  0  0  0  0  0  0  0  0
   38.5670   27.1490   35.7140 S   0  0  0  0  0  0  0  0  0  0  0  0
   39.6280   27.9620   35.2940 H   0  0  0  0  0  0  0  0  0  0  0  0
  1  2  1  0  0  0  0
  1 10  1  0  0  0  0
  2  7  1  0  0  0  0
  3  8  1  0  0  0  0
  3  2  2  0  0  0  0
  4  3  1  0  0  0  0
  5  4  2  0  0  0  0
  5  6  1  0  0  0  0
  6  1  2  0  0  0  0
  9  5  1  0  0  0  0
 10 11  1  0  0  0  0
 11 13  1  0  0  0  0
 11 12  1  0  0  0  0
 11 14  1  0  0  0  0
 15 14  1  0  0  0  0
M  END
>  <minimizedAffinity>
-2.71433592

$$$$

 OpenBabel03262521523D

 15 15  0  0  0  0  0  0  0  0999 V2000
   38.0730   24.7820   35.6700 C   0  0  0  0  0  0  0  0  0  0  0  0
   38.2590   25.9300   36.4370 C   0  0  0  0  0  0  0  0  0  0  0  0
   38.4820   27.1330   35.7590 C   0  0  0  0  0  0  0  0  0  0  0  0
   38.5080   27.1270   34.3810 N   0  0  0  0  0  0  0  0  0  0  0  0
   38.3200   25.9770   33.7030 C   0  0  0  0  0  0  0  0  0  0  0  0
   38.1080   24.8290   34.3320 N   0  0  0  0  0  0  0  0  0  0  0  0
   38.2500   26.0090   37.4950 H   0  0  0  0  0  0  0  0  0  0  0  0
   38.6300   28.0530   36.2750 H   0  0  0  0  0  0  0  0  0  0  0  0
   38.3510   26.0160   32.6380 H   0  0  0  0  0  0  0  0  0  0  0  0
   37.7870   23.2990   36.6170 S   0  0  0  0  0  0  0  0  0  0  0  0
   38.9890   23.2210   37.9510 C   0  0  0  0  0  0  0  0  0  0  0  0
   39.2200   24.2150   38.3880 H   0  0  0  0  0  0  0  0  0  0  0  0
   38.5160   22.6040   38.7750 H   0  0  0  0  0  0  0  0  0  0  0  0
   40.5510   22.4310   37.4460 S   0  0  0  0  0  0  0  0  0  0  0  0
   40.9970   22.9450   36.2220 H   0  0  0  0  0  0  0  0  0  0  0  0
  1  2  1  0  0  0  0
  1 10  1  0  0  0  0
  2  7  1  0  0  0  0
  3  8  1  0  0  0  0
  3  2  2  0  0  0  0
  4  3  1  0  0  0  0
  5  6  1  0  0  0  0
  5  4  2  0  0  0  0
  6  1  2  0  0  0  0
  9  5  1  0  0  0  0
 10 11  1  0  0  0  0
 11 12  1  0  0  0  0
 11 13  1  0  0  0  0
 14 11  1  0  0  0  0
 15 14  1  0  0  0  0
M  END
>  <minimizedAffinity>
-2.68769956

$$$$

 OpenBabel03262521523D

 15 15  0  0  0  0  0  0  0  0999 V2000
   38.6150   24.5810   36.1330 C   0  0  0  0  0  0  0  0  0  0  0  0
   38.0000   24.3930   37.3700 C   0  0  0  0  0  0  0  0  0  0  0  0
   38.5820   23.4720   38.2470 C   0  0  0  0  0  0  0  0  0  0  0  0
   39.7200   22.8030   37.8550 N   0  0  0  0  0  0  0  0  0  0  0  0
   40.2610   23.0360   36.6430 C   0  0  0  0  0  0  0  0  0  0  0  0
   39.7210   23.9050   35.7990 N   0  0  0  0  0  0  0  0  0  0  0  0
   37.1280   24.8720   37.7380 H   0  0  0  0  0  0  0  0  0  0  0  0
   38.1720   23.2750   39.2110 H   0  0  0  0  0  0  0  0  0  0  0  0
   41.1400   22.4950   36.3770 H   0  0  0  0  0  0  0  0  0  0  0  0
   37.8110   25.7780   35.0840 S   0  0  0  0  0  0  0  0  0  0  0  0
   38.2230   25.4200   33.3730 C   0  0  0  0  0  0  0  0  0  0  0  0
   39.0170   26.0800   32.9680 H   0  0  0  0  0  0  0  0  0  0  0  0
   38.6350   24.3640   33.3550 H   0  0  0  0  0  0  0  0  0  0  0  0
   36.7770   25.5050   32.2670 S   0  0  0  0  0  0  0  0  0  0  0  0
   36.0330   26.6670   32.5080 H   0  0  0  0  0  0  0  0  0  0  0  0
  1  2  1  0  0  0  0
  2  7  1  0  0  0  0
  2  3  2  0  0  0  0
  3  8  1  0  0  0  0
  4  3  1  0  0  0  0
  5  4  2  0  0  0  0
  6  1  2  0  0  0  0
  6  5  1  0  0  0  0
  9  5  1  0  0  0  0
 10  1  1  0  0  0  0
 11 10  1  0  0  0  0
 12 11  1  0  0  0  0
 13 11  1  0  0  0  0
 14 15  1  0  0  0  0
 14 11  1  0  0  0  0
M  END
>  <minimizedAffinity>
-2.67647982

$$$$

 OpenBabel03262521523D

 15 15  0  0  0  0  0  0  0  0999 V2000
   37.5010   27.5230   33.4780 C   0  0  0  0  0  0  0  0  0  0  0  0
   37.2310   27.6050   34.8430 C   0  0  0  0  0  0  0  0  0  0  0  0
   38.2770   27.3220   35.7270 C   0  0  0  0  0  0  0  0  0  0  0  0
   39.5090   26.9790   35.2150 N   0  0  0  0  0  0  0  0  0  0  0  0
   39.6980   26.9200   33.8820 C   0  0  0  0  0  0  0  0  0  0  0  0
   38.7170   27.1850   33.0310 N   0  0  0  0  0  0  0  0  0  0  0  0
   36.3120   27.8630   35.3060 H   0  0  0  0  0  0  0  0  0  0  0  0
   38.1500   27.3650   36.7840 H   0  0  0  0  0  0  0  0  0  0  0  0
   40.6670   26.6480   33.5270 H   0  0  0  0  0  0  0  0  0  0  0  0
   36.1130   27.9100   32.4270 S   0  0  0  0  0  0  0  0  0  0  0  0
   36.2250   26.9200   30.9310 C   0  0  0  0  0  0  0  0  0  0  0  0
   35.7600   27.4080   30.0500 H   0  0  0  0  0  0  0  0  0  0  0  0
   37.3290   26.8100   30.7000 H   0  0  0  0  0  0  0  0  0  0  0  0
   35.4970   25.2610   31.1280 S   0  0  0  0  0  0  0  0  0  0  0  0
   34.2410   25.3380   31.7430 H   0  0  0  0  0  0  0  0  0  0  0  0
  1  2  1  0  0  0  0
  2  7  1  0  0  0  0
  2  3  2  0  0  0  0
  3  8  1  0  0  0  0
  4  3  1  0  0  0  0
  5  4  2  0  0  0  0
  6  1  2  0  0  0  0
  6  5  1  0  0  0  0
  9  5  1  0  0  0  0
 10  1  1  0  0  0  0
 11 14  1  0  0  0  0
 11 10  1  0  0  0  0
 12 11  1  0  0  0  0
 13 11  1  0  0  0  0
 14 15  1  0  0  0  0
M  END
>  <minimizedAffinity>
-2.65478063

$$$$
