
 OpenBabel03272510293D

 21 22  0  0  0  0  0  0  0  0999 V2000
   37.5520   31.4610   49.3340 C   0  0  0  0  0  0  0  0  0  0  0  0
   38.0360   32.7230   49.6850 C   0  0  0  0  0  0  0  0  0  0  0  0
   38.8540   33.3340   48.7650 C   0  0  0  0  0  0  0  0  0  0  0  0
   39.1500   32.6990   47.5810 N   0  0  0  0  0  0  0  0  0  0  0  0
   38.6480   31.4590   47.2820 C   0  0  0  0  0  0  0  0  0  0  0  0
   37.8300   30.8300   48.1880 N   0  0  0  0  0  0  0  0  0  0  0  0
   37.7900   33.1880   50.6070 H   0  0  0  0  0  0  0  0  0  0  0  0
   39.2790   34.3130   48.9470 H   0  0  0  0  0  0  0  0  0  0  0  0
   36.6260   30.7720   50.3010 C   0  0  0  0  0  0  0  0  0  0  0  0
   36.5070   29.3400   50.3870 C   0  0  0  0  0  0  0  0  0  0  0  0
   37.3690   30.0330   51.4210 C   0  0  0  0  0  0  0  0  0  0  0  0
   35.7760   31.4160   50.6360 H   0  0  0  0  0  0  0  0  0  0  0  0
   37.1370   28.7310   49.6760 H   0  0  0  0  0  0  0  0  0  0  0  0
   35.5740   28.8450   50.6520 H   0  0  0  0  0  0  0  0  0  0  0  0
   36.9090   30.1670   52.4140 H   0  0  0  0  0  0  0  0  0  0  0  0
   38.4570   29.9830   51.3690 H   0  0  0  0  0  0  0  0  0  0  0  0
   38.9330   30.7740   46.0280 C   0  0  0  0  0  0  0  0  0  0  0  0
   40.0250   30.5430   45.9500 H   0  0  0  0  0  0  0  0  0  0  0  0
   38.3250   29.8500   45.9770 H   0  0  0  0  0  0  0  0  0  0  0  0
   38.4100   31.8380   44.6400 S   0  0  0  0  0  0  0  0  0  0  0  0
   39.2070   31.6010   43.5130 H   0  0  0  0  0  0  0  0  0  0  0  0
  1  2  1  0  0  0  0
  1  9  1  0  0  0  0
  2  7  1  0  0  0  0
  3  8  1  0  0  0  0
  3  2  2  0  0  0  0
  4  3  1  0  0  0  0
  5  4  2  0  0  0  0
  5  6  1  0  0  0  0
  6  1  2  0  0  0  0
  9 10  1  0  0  0  0
  9 12  1  0  0  0  0
  9 11  1  0  0  0  0
 10 14  1  0  0  0  0
 10 11  1  0  0  0  0
 11 15  1  0  0  0  0
 13 10  1  0  0  0  0
 16 11  1  0  0  0  0
 17  5  1  0  0  0  0
 18 17  1  0  0  0  0
 19 17  1  0  0  0  0
 20 17  1  0  0  0  0
 21 20  1  0  0  0  0
M  END
>  <minimizedAffinity>
-4.38897181

>  <minimizedRMSD>
0.372814596

$$$$
