
 OpenBabel03272510133D

 34 36  0  0  0  0  0  0  0  0999 V2000
   34.0320   28.8060   48.2910 C   0  0  0  0  0  0  0  0  0  0  0  0
   34.6690   28.3690   49.4020 C   0  0  0  0  0  0  0  0  0  0  0  0
   35.8970   28.8020   49.8230 C   0  0  0  0  0  0  0  0  0  0  0  0
   36.5800   29.7350   49.1190 C   0  0  0  0  0  0  0  0  0  0  0  0
   35.9350   30.2050   47.9570 C   0  0  0  0  0  0  0  0  0  0  0  0
   34.7230   29.7520   47.5780 N   0  0  0  0  0  0  0  0  0  0  0  0
   34.1900   27.6130   50.0330 H   0  0  0  0  0  0  0  0  0  0  0  0
   36.4020   28.4430   50.7200 H   0  0  0  0  0  0  0  0  0  0  0  0
   36.4090   30.9540   47.3300 H   0  0  0  0  0  0  0  0  0  0  0  0
   31.9330   27.5030   48.5750 C   0  0  0  0  0  0  0  0  0  0  0  0
   32.7490   28.3620   47.8410 C   0  0  0  0  0  0  0  0  0  0  0  0
   32.2630   28.7820   46.6280 C   0  0  0  0  0  0  0  0  0  0  0  0
   31.0350   28.3540   46.2020 N   0  0  0  0  0  0  0  0  0  0  0  0
   30.2840   27.5150   46.9650 C   0  0  0  0  0  0  0  0  0  0  0  0
   30.7270   27.0770   48.1690 N   0  0  0  0  0  0  0  0  0  0  0  0
   32.2700   27.1460   49.5330 H   0  0  0  0  0  0  0  0  0  0  0  0
   32.8620   29.4530   46.0180 H   0  0  0  0  0  0  0  0  0  0  0  0
   29.3110   27.1620   46.6530 H   0  0  0  0  0  0  0  0  0  0  0  0
   37.8180   30.2910   49.3800 O   0  0  0  0  0  0  0  0  0  0  0  0
   38.3950   31.2600   48.5810 C   0  0  0  0  0  0  0  0  0  0  0  0
   38.4790   32.5150   49.1860 C   0  0  0  0  0  0  0  0  0  0  0  0
   39.0820   33.3630   48.2430 C   0  0  0  0  0  0  0  0  0  0  0  0
   39.3290   32.6210   47.1560 N   0  0  0  0  0  0  0  0  0  0  0  0
   38.9280   31.3920   47.3510 N   0  0  0  0  0  0  0  0  0  0  0  0
   38.2010   32.9380   50.1460 H   0  0  0  0  0  0  0  0  0  0  0  0
   39.3200   34.4330   48.3490 H   0  0  0  0  0  0  0  0  0  0  0  0
   39.9470   33.1350   45.9620 C   0  0  0  0  0  0  0  0  0  0  0  0
   39.2260   33.4620   45.2140 H   0  0  0  0  0  0  0  0  0  0  0  0
   40.6240   33.9680   46.2620 H   0  0  0  0  0  0  0  0  0  0  0  0
   40.8240   32.0240   45.4090 C   0  0  0  0  0  0  0  0  0  0  0  0
   41.8380   32.4430   45.2320 H   0  0  0  0  0  0  0  0  0  0  0  0
   40.8160   31.1420   46.0510 H   0  0  0  0  0  0  0  0  0  0  0  0
   40.1450   31.5780   43.7780 S   0  0  0  0  0  0  0  0  0  0  0  0
   40.6540   30.3270   43.3750 H   0  0  0  0  0  0  0  0  0  0  0  0
  1  2  1  0  0  0  0
  2  3  2  0  0  0  0
  2  7  1  0  0  0  0
  3  8  1  0  0  0  0
  4 19  1  0  0  0  0
  4  3  1  0  0  0  0
  5  4  2  0  0  0  0
  6  5  1  0  0  0  0
  6  1  2  0  0  0  0
  9  5  1  0  0  0  0
 10 16  1  0  0  0  0
 11  1  1  0  0  0  0
 11 10  2  0  0  0  0
 12 11  1  0  0  0  0
 13 12  2  0  0  0  0
 13 14  1  0  0  0  0
 14 15  2  0  0  0  0
 15 10  1  0  0  0  0
 17 12  1  0  0  0  0
 18 14  1  0  0  0  0
 20 21  1  0  0  0  0
 20 19  1  0  0  0  0
 21 25  1  0  0  0  0
 22 26  1  0  0  0  0
 22 21  2  0  0  0  0
 23 24  1  0  0  0  0
 23 22  1  0  0  0  0
 24 20  2  0  0  0  0
 27 29  1  0  0  0  0
 27 23  1  0  0  0  0
 28 27  1  0  0  0  0
 30 27  1  0  0  0  0
 30 32  1  0  0  0  0
 31 30  1  0  0  0  0
 33 30  1  0  0  0  0
 34 33  1  0  0  0  0
M  END
>  <minimizedAffinity>
-5.42983961

>  <minimizedRMSD>
0.369199753

$$$$
