
 OpenBabel03272509173D

 23 24  0  0  0  0  0  0  0  0999 V2000
   37.9660   31.3770   47.5990 C   0  0  0  0  0  0  0  0  0  0  0  0
   37.0370   31.2950   48.6070 C   0  0  0  0  0  0  0  0  0  0  0  0
   37.1420   32.2970   49.5870 C   0  0  0  0  0  0  0  0  0  0  0  0
   38.1290   33.2920   49.5110 C   0  0  0  0  0  0  0  0  0  0  0  0
   39.0220   33.2880   48.4500 C   0  0  0  0  0  0  0  0  0  0  0  0
   38.9410   32.3140   47.4740 C   0  0  0  0  0  0  0  0  0  0  0  0
   36.4550   32.3240   50.4290 H   0  0  0  0  0  0  0  0  0  0  0  0
   38.1890   34.0540   50.2800 H   0  0  0  0  0  0  0  0  0  0  0  0
   39.7690   34.0760   48.4320 H   0  0  0  0  0  0  0  0  0  0  0  0
   34.9380   30.3180   47.8000 C   0  0  0  0  0  0  0  0  0  0  0  0
   36.0280   30.2790   48.6850 C   0  0  0  0  0  0  0  0  0  0  0  0
   36.0740   29.2400   49.6050 C   0  0  0  0  0  0  0  0  0  0  0  0
   35.0720   28.3210   49.6060 N   0  0  0  0  0  0  0  0  0  0  0  0
   34.0350   28.3910   48.7350 C   0  0  0  0  0  0  0  0  0  0  0  0
   33.9670   29.3920   47.8310 N   0  0  0  0  0  0  0  0  0  0  0  0
   34.9230   31.1420   47.0860 H   0  0  0  0  0  0  0  0  0  0  0  0
   33.2440   27.6450   48.7540 H   0  0  0  0  0  0  0  0  0  0  0  0
   37.4220   29.1290   50.7540 S   0  0  0  0  0  0  0  0  0  0  0  0
   38.4480   28.3160   50.1850 H   0  0  0  0  0  0  0  0  0  0  0  0
   37.9430   30.4190   46.5710 O   0  0  0  0  0  0  0  0  0  0  0  0
   37.1470   30.4600   45.9470 H   0  0  0  0  0  0  0  0  0  0  0  0
   39.8560   32.3530   46.4330 O   0  0  0  0  0  0  0  0  0  0  0  0
   39.9480   31.6520   45.7270 H   0  0  0  0  0  0  0  0  0  0  0  0
  1  2  1  0  0  0  0
  2 11  1  0  0  0  0
  2  3  2  0  0  0  0
  3  7  1  0  0  0  0
  4  3  1  0  0  0  0
  4  8  1  0  0  0  0
  5  4  2  0  0  0  0
  6  1  2  0  0  0  0
  6  5  1  0  0  0  0
  9  5  1  0  0  0  0
 10 15  2  0  0  0  0
 10 11  1  0  0  0  0
 11 12  2  0  0  0  0
 12 13  1  0  0  0  0
 12 18  1  0  0  0  0
 14 17  1  0  0  0  0
 14 13  2  0  0  0  0
 15 14  1  0  0  0  0
 16 10  1  0  0  0  0
 19 18  1  0  0  0  0
 20  1  1  0  0  0  0
 21 20  1  0  0  0  0
 22  6  1  0  0  0  0
 23 22  1  0  0  0  0
M  END
>  <minimizedAffinity>
-5.56789351

>  <minimizedRMSD>
2.07214141

$$$$
