
 OpenBabel03272508383D

 37 39  0  0  1  0  0  0  0  0999 V2000
   36.5720   27.0510   32.4670 C   0  0  0  0  0  0  0  0  0  0  0  0
   35.5730   26.5140   32.4460 H   0  0  0  0  0  0  0  0  0  0  0  0
   37.1750   26.4780   31.7730 H   0  0  0  0  0  0  0  0  0  0  0  0
   38.0460   25.6940   35.4470 C   0  0  0  0  0  0  0  0  0  0  0  0
   38.0190   27.0400   35.7630 C   0  0  0  0  0  0  0  0  0  0  0  0
   37.4540   27.7010   34.6670 C   0  0  0  0  0  0  0  0  0  0  0  0
   37.1730   26.7650   33.7640 N   0  0  0  0  0  0  0  0  0  0  0  0
   37.5250   25.5660   34.2270 N   0  0  0  0  0  0  0  0  0  0  0  0
   38.3800   27.4840   36.7100 H   0  0  0  0  0  0  0  0  0  0  0  0
   37.3650   28.7210   34.7570 H   0  0  0  0  0  0  0  0  0  0  0  0
   38.6540   23.4010   38.3630 C   0  0  0  0  0  0  0  0  0  0  0  0
   38.0540   24.4100   37.5980 C   0  0  0  0  0  0  0  0  0  0  0  0
   38.5650   24.6890   36.3420 C   0  0  0  0  0  0  0  0  0  0  0  0
   39.6270   23.9410   35.9590 N   0  0  0  0  0  0  0  0  0  0  0  0
   40.1920   22.9730   36.7090 C   0  0  0  0  0  0  0  0  0  0  0  0
   39.6940   22.7160   37.9080 N   0  0  0  0  0  0  0  0  0  0  0  0
   38.1660   23.2750   39.3270 H   0  0  0  0  0  0  0  0  0  0  0  0
   37.2070   25.0140   37.8910 H   0  0  0  0  0  0  0  0  0  0  0  0
   41.0380   22.3980   36.3710 H   0  0  0  0  0  0  0  0  0  0  0  0
   36.3060   28.4700   32.3130 C   0  0  0  0  0  0  0  0  0  0  0  0
   35.4700   28.8150   32.9710 H   0  0  0  0  0  0  0  0  0  0  0  0
   37.1950   29.0320   32.7310 H   0  0  0  0  0  0  0  0  0  0  0  0
   36.0760   28.9730   31.0320 N   0  0  0  0  0  0  0  0  0  0  0  0
   36.6760   28.2820   29.9570 C   0  0  0  0  0  0  0  0  0  0  0  0
   37.6750   29.0270   29.1500 C   0  0  0  0  0  0  0  0  0  0  0  0
   37.2820   30.3490   28.9090 O   0  0  0  0  0  0  0  0  0  0  0  0
   36.9990   30.9910   30.0760 C   0  0  0  0  0  0  0  0  0  0  0  0
   35.8810   30.3290   30.8090 C   0  0  2  0  0  0  0  0  0  0  0  0
   36.8800   27.2270   30.0330 H   0  0  0  0  0  0  0  0  0  0  0  0
   35.7510   28.2310   29.2830 H   0  0  0  0  0  0  0  0  0  0  0  0
   37.5270   28.6230   28.0740 H   0  0  0  0  0  0  0  0  0  0  0  0
   38.7180   28.8150   29.2280 H   0  0  0  0  0  0  0  0  0  0  0  0
   36.5290   31.9500   29.7220 H   0  0  0  0  0  0  0  0  0  0  0  0
   37.8170   31.3710   30.6700 H   0  0  0  0  0  0  0  0  0  0  0  0
   34.9050   30.4750   30.2610 H   0  0  0  0  0  0  0  0  0  0  0  0
   35.6980   31.2650   32.3720 S   0  0  0  0  0  0  0  0  0  0  0  0
   36.8640   31.9890   32.6380 H   0  0  0  0  0  0  0  0  0  0  0  0
  1  7  1  0  0  0  0
  2  1  1  0  0  0  0
  3  1  1  0  0  0  0
  4  5  1  0  0  0  0
  4 13  1  0  0  0  0
  5  9  1  0  0  0  0
  6 10  1  0  0  0  0
  6  5  2  0  0  0  0
  7  8  1  0  0  0  0
  7  6  1  0  0  0  0
  8  4  2  0  0  0  0
 11 17  1  0  0  0  0
 12 18  1  0  0  0  0
 12 11  2  0  0  0  0
 13 12  1  0  0  0  0
 14 13  2  0  0  0  0
 14 15  1  0  0  0  0
 15 16  2  0  0  0  0
 16 11  1  0  0  0  0
 19 15  1  0  0  0  0
 20  1  1  0  0  0  0
 20 22  1  0  0  0  0
 20 21  1  0  0  0  0
 23 20  1  0  0  0  0
 24 29  1  0  0  0  0
 24 23  1  0  0  0  0
 25 32  1  0  0  0  0
 25 24  1  0  0  0  0
 26 25  1  0  0  0  0
 26 27  1  0  0  0  0
 27 34  1  0  0  0  0
 27 28  1  0  0  0  0
 28 35  1  6  0  0  0
 28 23  1  0  0  0  0
 28 36  1  0  0  0  0
 30 24  1  0  0  0  0
 31 25  1  0  0  0  0
 33 27  1  0  0  0  0
 36 37  1  0  0  0  0
M  END
>  <minimizedAffinity>
-4.76581383

$$$$

 OpenBabel03272508383D

 37 39  0  0  1  0  0  0  0  0999 V2000
   36.4460   27.4050   32.8630 C   0  0  0  0  0  0  0  0  0  0  0  0
   36.2840   28.5260   32.9240 H   0  0  0  0  0  0  0  0  0  0  0  0
   35.4480   27.0040   32.9950 H   0  0  0  0  0  0  0  0  0  0  0  0
   38.0870   25.8070   35.6280 C   0  0  0  0  0  0  0  0  0  0  0  0
   38.1670   27.1330   36.0130 C   0  0  0  0  0  0  0  0  0  0  0  0
   37.5510   27.8830   35.0060 C   0  0  0  0  0  0  0  0  0  0  0  0
   37.1380   27.0150   34.0850 N   0  0  0  0  0  0  0  0  0  0  0  0
   37.4570   25.7760   34.4550 N   0  0  0  0  0  0  0  0  0  0  0  0
   38.6330   27.5040   36.9450 H   0  0  0  0  0  0  0  0  0  0  0  0
   37.5310   28.9000   35.1540 H   0  0  0  0  0  0  0  0  0  0  0  0
   38.7540   23.2770   38.3270 C   0  0  0  0  0  0  0  0  0  0  0  0
   38.1430   24.3500   37.6660 C   0  0  0  0  0  0  0  0  0  0  0  0
   38.6210   24.7270   36.4220 C   0  0  0  0  0  0  0  0  0  0  0  0
   39.6630   24.0040   35.9480 N   0  0  0  0  0  0  0  0  0  0  0  0
   40.2380   22.9730   36.5990 C   0  0  0  0  0  0  0  0  0  0  0  0
   39.7720   22.6220   37.7870 N   0  0  0  0  0  0  0  0  0  0  0  0
   38.2920   23.0760   39.2920 H   0  0  0  0  0  0  0  0  0  0  0  0
   37.3120   24.9360   38.0320 H   0  0  0  0  0  0  0  0  0  0  0  0
   41.0670   22.4200   36.1890 H   0  0  0  0  0  0  0  0  0  0  0  0
   37.2640   27.1470   31.6910 C   0  0  0  0  0  0  0  0  0  0  0  0
   37.2920   28.0240   30.9970 H   0  0  0  0  0  0  0  0  0  0  0  0
   38.3390   27.0710   32.0350 H   0  0  0  0  0  0  0  0  0  0  0  0
   37.0010   26.0090   30.9280 N   0  0  0  0  0  0  0  0  0  0  0  0
   35.6700   25.5370   30.9230 C   0  0  0  0  0  0  0  0  0  0  0  0
   35.4330   24.1820   31.4810 C   0  0  0  0  0  0  0  0  0  0  0  0
   36.4260   23.2710   31.1030 O   0  0  0  0  0  0  0  0  0  0  0  0
   37.6630   23.7400   31.4280 C   0  0  0  0  0  0  0  0  0  0  0  0
   37.9620   25.0260   30.7350 C   0  0  2  0  0  0  0  0  0  0  0  0
   34.8490   26.2180   31.0740 H   0  0  0  0  0  0  0  0  0  0  0  0
   35.5700   25.3960   29.7910 H   0  0  0  0  0  0  0  0  0  0  0  0
   34.5740   23.7540   30.8310 H   0  0  0  0  0  0  0  0  0  0  0  0
   34.9590   24.0490   32.4280 H   0  0  0  0  0  0  0  0  0  0  0  0
   38.3460   23.0140   30.9080 H   0  0  0  0  0  0  0  0  0  0  0  0
   38.0010   23.6430   32.4500 H   0  0  0  0  0  0  0  0  0  0  0  0
   38.0990   24.8590   29.6280 H   0  0  0  0  0  0  0  0  0  0  0  0
   39.6070   25.5430   31.3490 S   0  0  0  0  0  0  0  0  0  0  0  0
   39.9010   24.8870   32.5490 H   0  0  0  0  0  0  0  0  0  0  0  0
  1  2  1  0  0  0  0
  1  3  1  0  0  0  0
  1  7  1  0  0  0  0
  4  5  1  0  0  0  0
  4 13  1  0  0  0  0
  5  9  1  0  0  0  0
  6 10  1  0  0  0  0
  6  5  2  0  0  0  0
  7  8  1  0  0  0  0
  7  6  1  0  0  0  0
  8  4  2  0  0  0  0
 11 17  1  0  0  0  0
 12 18  1  0  0  0  0
 12 11  2  0  0  0  0
 13 12  1  0  0  0  0
 14 13  2  0  0  0  0
 14 15  1  0  0  0  0
 15 16  2  0  0  0  0
 16 11  1  0  0  0  0
 19 15  1  0  0  0  0
 20 22  1  0  0  0  0
 20  1  1  0  0  0  0
 21 20  1  0  0  0  0
 23 20  1  0  0  0  0
 24 23  1  0  0  0  0
 24 29  1  0  0  0  0
 24 25  1  0  0  0  0
 25 32  1  0  0  0  0
 26 27  1  0  0  0  0
 26 25  1  0  0  0  0
 27 34  1  0  0  0  0
 28 35  1  6  0  0  0
 28 23  1  0  0  0  0
 28 36  1  0  0  0  0
 28 27  1  0  0  0  0
 30 24  1  0  0  0  0
 31 25  1  0  0  0  0
 33 27  1  0  0  0  0
 36 37  1  0  0  0  0
M  END
>  <minimizedAffinity>
-4.75094128

$$$$

 OpenBabel03272508383D

 37 39  0  0  1  0  0  0  0  0999 V2000
   38.8150   25.7490   35.1310 C   0  0  0  0  0  0  0  0  0  0  0  0
   38.6350   25.9480   36.2330 H   0  0  0  0  0  0  0  0  0  0  0  0
   39.7860   26.1970   34.9560 H   0  0  0  0  0  0  0  0  0  0  0  0
   36.4390   28.1590   33.9330 C   0  0  0  0  0  0  0  0  0  0  0  0
   36.7710   27.5180   32.7550 C   0  0  0  0  0  0  0  0  0  0  0  0
   37.7080   26.5320   33.0820 C   0  0  0  0  0  0  0  0  0  0  0  0
   37.8990   26.6120   34.3960 N   0  0  0  0  0  0  0  0  0  0  0  0
   37.1420   27.5830   34.9070 N   0  0  0  0  0  0  0  0  0  0  0  0
   36.3600   27.7570   31.7560 H   0  0  0  0  0  0  0  0  0  0  0  0
   38.0520   25.9640   32.2970 H   0  0  0  0  0  0  0  0  0  0  0  0
   34.6190   31.3410   34.7720 C   0  0  0  0  0  0  0  0  0  0  0  0
   35.6130   30.3540   34.8160 C   0  0  0  0  0  0  0  0  0  0  0  0
   35.4920   29.2460   33.9940 C   0  0  0  0  0  0  0  0  0  0  0  0
   34.3940   29.2190   33.2020 N   0  0  0  0  0  0  0  0  0  0  0  0
   33.4470   30.1780   33.1720 C   0  0  0  0  0  0  0  0  0  0  0  0
   33.5750   31.2320   33.9630 N   0  0  0  0  0  0  0  0  0  0  0  0
   34.8240   32.1580   35.4600 H   0  0  0  0  0  0  0  0  0  0  0  0
   36.4930   30.3630   35.4430 H   0  0  0  0  0  0  0  0  0  0  0  0
   32.5860   30.1210   32.5280 H   0  0  0  0  0  0  0  0  0  0  0  0
   38.5250   24.3470   34.8890 C   0  0  0  0  0  0  0  0  0  0  0  0
   37.6900   24.2120   34.1560 H   0  0  0  0  0  0  0  0  0  0  0  0
   39.4090   23.9050   34.3380 H   0  0  0  0  0  0  0  0  0  0  0  0
   38.2720   23.5170   35.9810 N   0  0  0  0  0  0  0  0  0  0  0  0
   37.4640   24.0450   37.0120 C   0  0  0  0  0  0  0  0  0  0  0  0
   38.0890   24.1940   38.3490 C   0  0  0  0  0  0  0  0  0  0  0  0
   38.9000   23.1030   38.6810 O   0  0  0  0  0  0  0  0  0  0  0  0
   39.8310   22.8790   37.7130 C   0  0  0  0  0  0  0  0  0  0  0  0
   39.1940   22.5680   36.4010 C   0  0  2  0  0  0  0  0  0  0  0  0
   36.7220   24.7950   36.7920 H   0  0  0  0  0  0  0  0  0  0  0  0
   36.7670   23.1430   37.1260 H   0  0  0  0  0  0  0  0  0  0  0  0
   37.2260   23.9780   39.0910 H   0  0  0  0  0  0  0  0  0  0  0  0
   38.3520   25.1550   38.7320 H   0  0  0  0  0  0  0  0  0  0  0  0
   40.2680   21.8880   38.0170 H   0  0  0  0  0  0  0  0  0  0  0  0
   40.7170   23.4970   37.6930 H   0  0  0  0  0  0  0  0  0  0  0  0
   38.6940   21.5580   36.4310 H   0  0  0  0  0  0  0  0  0  0  0  0
   40.5780   22.3820   35.2160 S   0  0  0  0  0  0  0  0  0  0  0  0
   41.7290   22.9930   35.7220 H   0  0  0  0  0  0  0  0  0  0  0  0
  1  2  1  0  0  0  0
  3  1  1  0  0  0  0
  4 13  1  0  0  0  0
  4  8  2  0  0  0  0
  5  6  2  0  0  0  0
  5  4  1  0  0  0  0
  6  7  1  0  0  0  0
  7  8  1  0  0  0  0
  7  1  1  0  0  0  0
  9  5  1  0  0  0  0
 10  6  1  0  0  0  0
 11 12  1  0  0  0  0
 11 17  1  0  0  0  0
 12 18  1  0  0  0  0
 13 12  2  0  0  0  0
 14 13  1  0  0  0  0
 15 14  2  0  0  0  0
 15 16  1  0  0  0  0
 16 11  2  0  0  0  0
 19 15  1  0  0  0  0
 20  1  1  0  0  0  0
 20 23  1  0  0  0  0
 21 20  1  0  0  0  0
 22 20  1  0  0  0  0
 23 28  1  0  0  0  0
 23 24  1  0  0  0  0
 24 30  1  0  0  0  0
 24 25  1  0  0  0  0
 25 26  1  0  0  0  0
 25 32  1  0  0  0  0
 25 31  1  0  0  0  0
 27 33  1  0  0  0  0
 27 26  1  0  0  0  0
 28 35  1  1  0  0  0
 28 27  1  0  0  0  0
 29 24  1  0  0  0  0
 34 27  1  0  0  0  0
 36 37  1  0  0  0  0
 36 28  1  0  0  0  0
M  END
>  <minimizedAffinity>
-4.69139767

$$$$

 OpenBabel03272508383D

 37 39  0  0  1  0  0  0  0  0999 V2000
   38.8950   26.5660   35.4810 C   0  0  0  0  0  0  0  0  0  0  0  0
   38.0710   26.5210   36.2580 H   0  0  0  0  0  0  0  0  0  0  0  0
   39.5080   27.3940   35.8180 H   0  0  0  0  0  0  0  0  0  0  0  0
   38.0050   27.6560   32.1770 C   0  0  0  0  0  0  0  0  0  0  0  0
   36.8210   27.8850   32.8520 C   0  0  0  0  0  0  0  0  0  0  0  0
   37.0310   27.4980   34.1800 C   0  0  0  0  0  0  0  0  0  0  0  0
   38.2860   27.0660   34.2540 N   0  0  0  0  0  0  0  0  0  0  0  0
   38.8710   27.1590   33.0600 N   0  0  0  0  0  0  0  0  0  0  0  0
   35.8970   28.2980   32.4040 H   0  0  0  0  0  0  0  0  0  0  0  0
   36.2280   27.6140   34.8110 H   0  0  0  0  0  0  0  0  0  0  0  0
   37.6560   28.9810   28.6760 C   0  0  0  0  0  0  0  0  0  0  0  0
   37.3780   28.7970   30.0370 C   0  0  0  0  0  0  0  0  0  0  0  0
   38.1740   27.9350   30.7720 C   0  0  0  0  0  0  0  0  0  0  0  0
   39.1760   27.3340   30.0880 N   0  0  0  0  0  0  0  0  0  0  0  0
   39.4300   27.5230   28.7780 C   0  0  0  0  0  0  0  0  0  0  0  0
   38.6610   28.3490   28.0870 N   0  0  0  0  0  0  0  0  0  0  0  0
   36.9650   29.6780   28.2080 H   0  0  0  0  0  0  0  0  0  0  0  0
   36.5810   29.2700   30.5940 H   0  0  0  0  0  0  0  0  0  0  0  0
   40.2380   27.0250   28.2680 H   0  0  0  0  0  0  0  0  0  0  0  0
   39.4010   25.2170   35.3040 C   0  0  0  0  0  0  0  0  0  0  0  0
   39.4250   24.9140   34.2280 H   0  0  0  0  0  0  0  0  0  0  0  0
   40.4980   25.2230   35.5820 H   0  0  0  0  0  0  0  0  0  0  0  0
   38.8080   24.1790   36.0250 N   0  0  0  0  0  0  0  0  0  0  0  0
   37.7670   24.5320   36.9130 C   0  0  0  0  0  0  0  0  0  0  0  0
   37.9940   24.2680   38.3550 C   0  0  0  0  0  0  0  0  0  0  0  0
   38.6220   23.0380   38.5780 O   0  0  0  0  0  0  0  0  0  0  0  0
   39.7780   22.9470   37.8620 C   0  0  0  0  0  0  0  0  0  0  0  0
   39.5240   23.0500   36.3960 C   0  0  2  0  0  0  0  0  0  0  0  0
   37.1570   25.3990   36.7200 H   0  0  0  0  0  0  0  0  0  0  0  0
   37.0230   23.7220   36.5920 H   0  0  0  0  0  0  0  0  0  0  0  0
   36.9460   23.9830   38.7590 H   0  0  0  0  0  0  0  0  0  0  0  0
   38.1850   25.0650   39.0390 H   0  0  0  0  0  0  0  0  0  0  0  0
   40.0610   21.8660   37.9890 H   0  0  0  0  0  0  0  0  0  0  0  0
   40.6630   23.4370   38.2430 H   0  0  0  0  0  0  0  0  0  0  0  0
   38.9870   22.1330   36.0200 H   0  0  0  0  0  0  0  0  0  0  0  0
   41.1760   22.9940   35.6090 S   0  0  0  0  0  0  0  0  0  0  0  0
   42.1660   23.3150   36.5440 H   0  0  0  0  0  0  0  0  0  0  0  0
  1  3  1  0  0  0  0
  1  2  1  0  0  0  0
  4  5  1  0  0  0  0
  4  8  2  0  0  0  0
  5  6  2  0  0  0  0
  6  7  1  0  0  0  0
  6 10  1  0  0  0  0
  7  1  1  0  0  0  0
  8  7  1  0  0  0  0
  9  5  1  0  0  0  0
 11 12  1  0  0  0  0
 12 18  1  0  0  0  0
 12 13  2  0  0  0  0
 13  4  1  0  0  0  0
 14 13  1  0  0  0  0
 15 14  2  0  0  0  0
 16 11  2  0  0  0  0
 16 15  1  0  0  0  0
 17 11  1  0  0  0  0
 19 15  1  0  0  0  0
 20  1  1  0  0  0  0
 20 22  1  0  0  0  0
 20 23  1  0  0  0  0
 21 20  1  0  0  0  0
 23 28  1  0  0  0  0
 23 24  1  0  0  0  0
 24 25  1  0  0  0  0
 25 26  1  0  0  0  0
 25 31  1  0  0  0  0
 25 32  1  0  0  0  0
 27 33  1  0  0  0  0
 27 34  1  0  0  0  0
 27 26  1  0  0  0  0
 28 35  1  6  0  0  0
 28 27  1  0  0  0  0
 29 24  1  0  0  0  0
 30 24  1  0  0  0  0
 36 28  1  0  0  0  0
 36 37  1  0  0  0  0
M  END
>  <minimizedAffinity>
-4.63584423

$$$$

 OpenBabel03272508383D

 37 39  0  0  1  0  0  0  0  0999 V2000
   37.7580   23.1830   33.2730 C   0  0  0  0  0  0  0  0  0  0  0  0
   38.5060   22.7680   32.5280 H   0  0  0  0  0  0  0  0  0  0  0  0
   37.0120   22.4000   33.3350 H   0  0  0  0  0  0  0  0  0  0  0  0
   36.4430   26.2700   31.9950 C   0  0  0  0  0  0  0  0  0  0  0  0
   35.6920   25.3550   31.2800 C   0  0  0  0  0  0  0  0  0  0  0  0
   36.1090   24.0840   31.6890 C   0  0  0  0  0  0  0  0  0  0  0  0
   37.0590   24.2720   32.6010 N   0  0  0  0  0  0  0  0  0  0  0  0
   37.2600   25.5760   32.7850 N   0  0  0  0  0  0  0  0  0  0  0  0
   34.9160   25.6060   30.5330 H   0  0  0  0  0  0  0  0  0  0  0  0
   35.6330   23.2920   31.2400 H   0  0  0  0  0  0  0  0  0  0  0  0
   35.8430   29.9370   32.5720 C   0  0  0  0  0  0  0  0  0  0  0  0
   35.9490   28.5690   32.8600 C   0  0  0  0  0  0  0  0  0  0  0  0
   36.2940   27.6970   31.8410 C   0  0  0  0  0  0  0  0  0  0  0  0
   36.5030   28.2620   30.6280 N   0  0  0  0  0  0  0  0  0  0  0  0
   36.3970   29.5810   30.3700 C   0  0  0  0  0  0  0  0  0  0  0  0
   36.0660   30.4040   31.3520 N   0  0  0  0  0  0  0  0  0  0  0  0
   35.5680   30.5180   33.4490 H   0  0  0  0  0  0  0  0  0  0  0  0
   35.7840   28.1060   33.8220 H   0  0  0  0  0  0  0  0  0  0  0  0
   36.5700   29.9940   29.3900 H   0  0  0  0  0  0  0  0  0  0  0  0
   38.5070   23.6680   34.4180 C   0  0  0  0  0  0  0  0  0  0  0  0
   39.5880   23.8250   34.1770 H   0  0  0  0  0  0  0  0  0  0  0  0
   38.1510   24.7180   34.6410 H   0  0  0  0  0  0  0  0  0  0  0  0
   38.4370   22.9550   35.6150 N   0  0  0  0  0  0  0  0  0  0  0  0
   37.5700   23.4590   36.6090 C   0  0  0  0  0  0  0  0  0  0  0  0
   38.1880   23.8910   37.8870 C   0  0  0  0  0  0  0  0  0  0  0  0
   39.1940   23.0160   38.3130 O   0  0  0  0  0  0  0  0  0  0  0  0
   40.1270   22.8380   37.3370 C   0  0  0  0  0  0  0  0  0  0  0  0
   39.5280   22.2500   36.1050 C   0  0  2  0  0  0  0  0  0  0  0  0
   36.6980   24.0290   36.3340 H   0  0  0  0  0  0  0  0  0  0  0  0
   37.0540   22.4690   36.8670 H   0  0  0  0  0  0  0  0  0  0  0  0
   37.3970   23.6220   38.6900 H   0  0  0  0  0  0  0  0  0  0  0  0
   38.2790   24.9250   38.1350 H   0  0  0  0  0  0  0  0  0  0  0  0
   40.7470   21.9910   37.7410 H   0  0  0  0  0  0  0  0  0  0  0  0
   40.8840   23.5980   37.2000 H   0  0  0  0  0  0  0  0  0  0  0  0
   39.2230   21.1790   36.2840 H   0  0  0  0  0  0  0  0  0  0  0  0
   40.8940   22.1630   34.8890 S   0  0  0  0  0  0  0  0  0  0  0  0
   41.9250   23.0320   35.2610 H   0  0  0  0  0  0  0  0  0  0  0  0
  1  3  1  0  0  0  0
  1 20  1  0  0  0  0
  2  1  1  0  0  0  0
  4  8  2  0  0  0  0
  5  6  2  0  0  0  0
  5  4  1  0  0  0  0
  6  7  1  0  0  0  0
  7  8  1  0  0  0  0
  7  1  1  0  0  0  0
  9  5  1  0  0  0  0
 10  6  1  0  0  0  0
 11 12  1  0  0  0  0
 11 17  1  0  0  0  0
 12 18  1  0  0  0  0
 13  4  1  0  0  0  0
 13 12  2  0  0  0  0
 14 13  1  0  0  0  0
 15 14  2  0  0  0  0
 15 16  1  0  0  0  0
 16 11  2  0  0  0  0
 19 15  1  0  0  0  0
 20 22  1  0  0  0  0
 20 23  1  0  0  0  0
 21 20  1  0  0  0  0
 23 28  1  0  0  0  0
 23 24  1  0  0  0  0
 24 30  1  0  0  0  0
 24 25  1  0  0  0  0
 25 32  1  0  0  0  0
 25 26  1  0  0  0  0
 25 31  1  0  0  0  0
 27 33  1  0  0  0  0
 27 26  1  0  0  0  0
 28 35  1  1  0  0  0
 28 27  1  0  0  0  0
 29 24  1  0  0  0  0
 34 27  1  0  0  0  0
 36 37  1  0  0  0  0
 36 28  1  0  0  0  0
M  END
>  <minimizedAffinity>
-4.59319878

$$$$

 OpenBabel03272508383D

 37 39  0  0  1  0  0  0  0  0999 V2000
   36.8870   23.2410   31.2070 C   0  0  0  0  0  0  0  0  0  0  0  0
   37.4090   23.8230   30.3860 H   0  0  0  0  0  0  0  0  0  0  0  0
   35.8650   23.5970   31.1500 H   0  0  0  0  0  0  0  0  0  0  0  0
   38.0730   23.9090   34.5290 C   0  0  0  0  0  0  0  0  0  0  0  0
   38.0470   25.1870   34.0040 C   0  0  0  0  0  0  0  0  0  0  0  0
   37.5920   25.0720   32.6860 C   0  0  0  0  0  0  0  0  0  0  0  0
   37.3690   23.7780   32.4730 N   0  0  0  0  0  0  0  0  0  0  0  0
   37.6550   23.0810   33.5720 N   0  0  0  0  0  0  0  0  0  0  0  0
   38.3360   26.1090   34.5430 H   0  0  0  0  0  0  0  0  0  0  0  0
   37.5180   25.9520   32.1600 H   0  0  0  0  0  0  0  0  0  0  0  0
   39.9490   22.7570   37.5770 C   0  0  0  0  0  0  0  0  0  0  0  0
   39.6600   22.9630   36.2210 C   0  0  0  0  0  0  0  0  0  0  0  0
   38.4930   23.6250   35.8800 C   0  0  0  0  0  0  0  0  0  0  0  0
   37.7180   24.0230   36.9170 N   0  0  0  0  0  0  0  0  0  0  0  0
   38.0120   23.8160   38.2160 C   0  0  0  0  0  0  0  0  0  0  0  0
   39.1310   23.1820   38.5290 N   0  0  0  0  0  0  0  0  0  0  0  0
   40.8890   22.2290   37.7180 H   0  0  0  0  0  0  0  0  0  0  0  0
   40.2690   22.6500   35.3850 H   0  0  0  0  0  0  0  0  0  0  0  0
   37.3700   24.1480   39.0140 H   0  0  0  0  0  0  0  0  0  0  0  0
   37.2570   21.8450   31.0530 C   0  0  0  0  0  0  0  0  0  0  0  0
   37.9350   21.6840   30.1780 H   0  0  0  0  0  0  0  0  0  0  0  0
   37.9180   21.5680   31.9290 H   0  0  0  0  0  0  0  0  0  0  0  0
   36.2460   20.8870   30.9900 N   0  0  0  0  0  0  0  0  0  0  0  0
   35.3120   20.8720   32.0500 C   0  0  0  0  0  0  0  0  0  0  0  0
   35.2580   19.6460   32.8840 C   0  0  0  0  0  0  0  0  0  0  0  0
   35.3600   18.4780   32.1190 O   0  0  0  0  0  0  0  0  0  0  0  0
   36.4760   18.5070   31.3380 C   0  0  0  0  0  0  0  0  0  0  0  0
   36.4490   19.6540   30.3850 C   0  0  2  0  0  0  0  0  0  0  0  0
   35.0890   21.7770   32.5920 H   0  0  0  0  0  0  0  0  0  0  0  0
   34.3650   20.8190   31.4080 H   0  0  0  0  0  0  0  0  0  0  0  0
   34.1390   19.5470   33.1700 H   0  0  0  0  0  0  0  0  0  0  0  0
   35.6480   19.6350   33.8780 H   0  0  0  0  0  0  0  0  0  0  0  0
   36.3260   17.6210   30.6620 H   0  0  0  0  0  0  0  0  0  0  0  0
   37.4280   18.2630   31.7860 H   0  0  0  0  0  0  0  0  0  0  0  0
   35.6600   19.4980   29.5950 H   0  0  0  0  0  0  0  0  0  0  0  0
   38.0440   19.5830   29.4890 S   0  0  0  0  0  0  0  0  0  0  0  0
   38.9670   18.8190   30.2100 H   0  0  0  0  0  0  0  0  0  0  0  0
  1  7  1  0  0  0  0
  2  1  1  0  0  0  0
  3  1  1  0  0  0  0
  4 13  1  0  0  0  0
  5  4  1  0  0  0  0
  5  9  1  0  0  0  0
  6  5  2  0  0  0  0
  7  6  1  0  0  0  0
  7  8  1  0  0  0  0
  8  4  2  0  0  0  0
 10  6  1  0  0  0  0
 11 17  1  0  0  0  0
 11 16  1  0  0  0  0
 12 11  2  0  0  0  0
 13 12  1  0  0  0  0
 13 14  2  0  0  0  0
 14 15  1  0  0  0  0
 15 16  2  0  0  0  0
 15 19  1  0  0  0  0
 18 12  1  0  0  0  0
 20  1  1  0  0  0  0
 20 22  1  0  0  0  0
 21 20  1  0  0  0  0
 23 20  1  0  0  0  0
 23 24  1  0  0  0  0
 24 29  1  0  0  0  0
 24 25  1  0  0  0  0
 25 31  1  0  0  0  0
 25 32  1  0  0  0  0
 26 25  1  0  0  0  0
 27 34  1  0  0  0  0
 27 26  1  0  0  0  0
 28 35  1  6  0  0  0
 28 23  1  0  0  0  0
 28 27  1  0  0  0  0
 30 24  1  0  0  0  0
 33 27  1  0  0  0  0
 36 37  1  0  0  0  0
 36 28  1  0  0  0  0
M  END
>  <minimizedAffinity>
-4.54724407

$$$$

 OpenBabel03272508383D

 37 39  0  0  1  0  0  0  0  0999 V2000
   36.2150   28.3660   33.1810 C   0  0  0  0  0  0  0  0  0  0  0  0
   35.2920   28.1090   32.5750 H   0  0  0  0  0  0  0  0  0  0  0  0
   36.8840   28.7930   32.4420 H   0  0  0  0  0  0  0  0  0  0  0  0
   37.7590   25.4960   34.6870 C   0  0  0  0  0  0  0  0  0  0  0  0
   37.7340   25.1080   33.3610 C   0  0  0  0  0  0  0  0  0  0  0  0
   37.1460   26.1560   32.6450 C   0  0  0  0  0  0  0  0  0  0  0  0
   36.8500   27.1020   33.5320 N   0  0  0  0  0  0  0  0  0  0  0  0
   37.2150   26.7110   34.7520 N   0  0  0  0  0  0  0  0  0  0  0  0
   38.1130   24.1460   32.9660 H   0  0  0  0  0  0  0  0  0  0  0  0
   37.0600   26.0120   31.6310 H   0  0  0  0  0  0  0  0  0  0  0  0
   39.8160   23.0830   36.7070 C   0  0  0  0  0  0  0  0  0  0  0  0
   39.3960   23.8340   35.6010 C   0  0  0  0  0  0  0  0  0  0  0  0
   38.2970   24.6650   35.7370 C   0  0  0  0  0  0  0  0  0  0  0  0
   37.7150   24.6760   36.9600 N   0  0  0  0  0  0  0  0  0  0  0  0
   38.1340   23.9460   38.0130 C   0  0  0  0  0  0  0  0  0  0  0  0
   39.1850   23.1550   37.8700 N   0  0  0  0  0  0  0  0  0  0  0  0
   40.6860   22.4700   36.4780 H   0  0  0  0  0  0  0  0  0  0  0  0
   39.8510   23.8340   34.6210 H   0  0  0  0  0  0  0  0  0  0  0  0
   37.6440   23.9800   38.9720 H   0  0  0  0  0  0  0  0  0  0  0  0
   35.7730   29.0790   34.3660 C   0  0  0  0  0  0  0  0  0  0  0  0
   35.8220   28.4410   35.2830 H   0  0  0  0  0  0  0  0  0  0  0  0
   36.5370   29.8840   34.5860 H   0  0  0  0  0  0  0  0  0  0  0  0
   34.5240   29.7010   34.3470 N   0  0  0  0  0  0  0  0  0  0  0  0
   33.6850   29.4160   33.2470 C   0  0  0  0  0  0  0  0  0  0  0  0
   33.3210   30.5520   32.3640 C   0  0  0  0  0  0  0  0  0  0  0  0
   33.0380   31.7160   33.0870 O   0  0  0  0  0  0  0  0  0  0  0  0
   34.0700   32.0340   33.9170 C   0  0  0  0  0  0  0  0  0  0  0  0
   34.3280   30.9540   34.9120 C   0  0  2  0  0  0  0  0  0  0  0  0
   33.7640   28.4730   32.7320 H   0  0  0  0  0  0  0  0  0  0  0  0
   32.7310   29.2060   33.8440 H   0  0  0  0  0  0  0  0  0  0  0  0
   32.2390   30.3120   32.0260 H   0  0  0  0  0  0  0  0  0  0  0  0
   33.7440   30.6510   31.3890 H   0  0  0  0  0  0  0  0  0  0  0  0
   33.6330   32.8550   34.5500 H   0  0  0  0  0  0  0  0  0  0  0  0
   34.9330   32.5350   33.5010 H   0  0  0  0  0  0  0  0  0  0  0  0
   33.4860   30.8920   35.6590 H   0  0  0  0  0  0  0  0  0  0  0  0
   35.7830   31.5100   35.8730 S   0  0  0  0  0  0  0  0  0  0  0  0
   36.4810   32.4930   35.1650 H   0  0  0  0  0  0  0  0  0  0  0  0
  1  7  1  0  0  0  0
  1 20  1  0  0  0  0
  2  1  1  0  0  0  0
  3  1  1  0  0  0  0
  4  8  2  0  0  0  0
  4 13  1  0  0  0  0
  5  4  1  0  0  0  0
  6  5  2  0  0  0  0
  6  7  1  0  0  0  0
  7  8  1  0  0  0  0
  9  5  1  0  0  0  0
 10  6  1  0  0  0  0
 11 16  1  0  0  0  0
 12 13  1  0  0  0  0
 12 11  2  0  0  0  0
 13 14  2  0  0  0  0
 14 15  1  0  0  0  0
 15 19  1  0  0  0  0
 16 15  2  0  0  0  0
 17 11  1  0  0  0  0
 18 12  1  0  0  0  0
 20 22  1  0  0  0  0
 20 21  1  0  0  0  0
 23 20  1  0  0  0  0
 23 28  1  0  0  0  0
 24 30  1  0  0  0  0
 24 23  1  0  0  0  0
 25 26  1  0  0  0  0
 25 24  1  0  0  0  0
 26 27  1  0  0  0  0
 27 33  1  0  0  0  0
 27 28  1  0  0  0  0
 28 35  1  1  0  0  0
 28 36  1  0  0  0  0
 29 24  1  0  0  0  0
 31 25  1  0  0  0  0
 32 25  1  0  0  0  0
 34 27  1  0  0  0  0
 37 36  1  0  0  0  0
M  END
>  <minimizedAffinity>
-4.54497147

$$$$

 OpenBabel03272508383D

 37 39  0  0  1  0  0  0  0  0999 V2000
   37.4920   26.3640   33.4040 C   0  0  0  0  0  0  0  0  0  0  0  0
   38.5470   26.6070   33.0670 H   0  0  0  0  0  0  0  0  0  0  0  0
   37.0680   25.8620   32.5410 H   0  0  0  0  0  0  0  0  0  0  0  0
   35.7650   29.4050   34.2170 C   0  0  0  0  0  0  0  0  0  0  0  0
   35.7290   29.4500   32.8360 C   0  0  0  0  0  0  0  0  0  0  0  0
   36.3790   28.2990   32.3770 C   0  0  0  0  0  0  0  0  0  0  0  0
   36.7680   27.6280   33.4570 N   0  0  0  0  0  0  0  0  0  0  0  0
   36.4030   28.2860   34.5570 N   0  0  0  0  0  0  0  0  0  0  0  0
   35.2660   30.2530   32.2320 H   0  0  0  0  0  0  0  0  0  0  0  0
   36.4300   28.1910   31.3560 H   0  0  0  0  0  0  0  0  0  0  0  0
   35.2270   32.3050   36.5480 C   0  0  0  0  0  0  0  0  0  0  0  0
   35.9160   31.3560   35.7810 C   0  0  0  0  0  0  0  0  0  0  0  0
   35.1890   30.4320   35.0500 C   0  0  0  0  0  0  0  0  0  0  0  0
   33.8420   30.5350   35.1460 N   0  0  0  0  0  0  0  0  0  0  0  0
   33.1960   31.4560   35.8890 C   0  0  0  0  0  0  0  0  0  0  0  0
   33.9020   32.3330   36.5830 N   0  0  0  0  0  0  0  0  0  0  0  0
   35.9040   32.9730   37.0750 H   0  0  0  0  0  0  0  0  0  0  0  0
   36.9900   31.2620   35.6960 H   0  0  0  0  0  0  0  0  0  0  0  0
   32.1210   31.5060   35.9410 H   0  0  0  0  0  0  0  0  0  0  0  0
   37.5830   25.7540   34.7180 C   0  0  0  0  0  0  0  0  0  0  0  0
   36.8380   26.1840   35.4340 H   0  0  0  0  0  0  0  0  0  0  0  0
   37.2400   24.6800   34.6220 H   0  0  0  0  0  0  0  0  0  0  0  0
   38.8220   25.7280   35.3600 N   0  0  0  0  0  0  0  0  0  0  0  0
   39.6590   26.8510   35.1800 C   0  0  0  0  0  0  0  0  0  0  0  0
   40.9570   26.6230   34.4990 C   0  0  0  0  0  0  0  0  0  0  0  0
   41.5750   25.4390   34.9170 O   0  0  0  0  0  0  0  0  0  0  0  0
   40.7350   24.3760   34.7690 C   0  0  0  0  0  0  0  0  0  0  0  0
   39.4980   24.5370   35.5850 C   0  0  2  0  0  0  0  0  0  0  0  0
   39.2330   27.8230   34.9890 H   0  0  0  0  0  0  0  0  0  0  0  0
   39.9400   27.0000   36.2800 H   0  0  0  0  0  0  0  0  0  0  0  0
   41.6820   27.3660   35.0150 H   0  0  0  0  0  0  0  0  0  0  0  0
   41.1220   26.9540   33.4980 H   0  0  0  0  0  0  0  0  0  0  0  0
   41.2820   23.5540   35.3070 H   0  0  0  0  0  0  0  0  0  0  0  0
   40.6220   23.9390   33.7870 H   0  0  0  0  0  0  0  0  0  0  0  0
   39.7330   24.4500   36.6850 H   0  0  0  0  0  0  0  0  0  0  0  0
   38.4640   23.0760   35.2000 S   0  0  0  0  0  0  0  0  0  0  0  0
   38.8770   22.4990   33.9950 H   0  0  0  0  0  0  0  0  0  0  0  0
  1  7  1  0  0  0  0
  1 20  1  0  0  0  0
  2  1  1  0  0  0  0
  3  1  1  0  0  0  0
  4  8  2  0  0  0  0
  4 13  1  0  0  0  0
  5  4  1  0  0  0  0
  6  5  2  0  0  0  0
  6  7  1  0  0  0  0
  7  8  1  0  0  0  0
  9  5  1  0  0  0  0
 10  6  1  0  0  0  0
 11 16  1  0  0  0  0
 11 17  1  0  0  0  0
 12 11  2  0  0  0  0
 13 14  2  0  0  0  0
 13 12  1  0  0  0  0
 14 15  1  0  0  0  0
 15 19  1  0  0  0  0
 15 16  2  0  0  0  0
 18 12  1  0  0  0  0
 20 23  1  0  0  0  0
 20 21  1  0  0  0  0
 22 20  1  0  0  0  0
 23 28  1  0  0  0  0
 24 23  1  0  0  0  0
 24 30  1  0  0  0  0
 25 26  1  0  0  0  0
 25 31  1  0  0  0  0
 25 24  1  0  0  0  0
 27 26  1  0  0  0  0
 27 33  1  0  0  0  0
 27 28  1  0  0  0  0
 28 35  1  1  0  0  0
 29 24  1  0  0  0  0
 32 25  1  0  0  0  0
 34 27  1  0  0  0  0
 36 28  1  0  0  0  0
 37 36  1  0  0  0  0
M  END
>  <minimizedAffinity>
-4.50932741

$$$$

 OpenBabel03272508383D

 37 39  0  0  1  0  0  0  0  0999 V2000
   37.3850   26.2530   32.8540 C   0  0  0  0  0  0  0  0  0  0  0  0
   36.5960   25.4740   33.0920 H   0  0  0  0  0  0  0  0  0  0  0  0
   38.0680   26.1770   33.6930 H   0  0  0  0  0  0  0  0  0  0  0  0
   35.8190   29.2840   33.9720 C   0  0  0  0  0  0  0  0  0  0  0  0
   35.9210   29.5320   32.6160 C   0  0  0  0  0  0  0  0  0  0  0  0
   36.5250   28.4070   32.0440 C   0  0  0  0  0  0  0  0  0  0  0  0
   36.7570   27.5550   33.0390 N   0  0  0  0  0  0  0  0  0  0  0  0
   36.3360   28.0760   34.1910 N   0  0  0  0  0  0  0  0  0  0  0  0
   35.5810   30.4530   32.1040 H   0  0  0  0  0  0  0  0  0  0  0  0
   36.6670   28.4450   31.0270 H   0  0  0  0  0  0  0  0  0  0  0  0
   35.2760   32.0070   36.5070 C   0  0  0  0  0  0  0  0  0  0  0  0
   35.9650   31.1450   35.6440 C   0  0  0  0  0  0  0  0  0  0  0  0
   35.2420   30.2270   34.9000 C   0  0  0  0  0  0  0  0  0  0  0  0
   33.9010   30.2480   35.0810 N   0  0  0  0  0  0  0  0  0  0  0  0
   33.2540   31.0860   35.9160 C   0  0  0  0  0  0  0  0  0  0  0  0
   33.9560   31.9590   36.6220 N   0  0  0  0  0  0  0  0  0  0  0  0
   35.9480   32.6800   37.0350 H   0  0  0  0  0  0  0  0  0  0  0  0
   37.0340   31.1160   35.4900 H   0  0  0  0  0  0  0  0  0  0  0  0
   32.1840   31.0730   36.0340 H   0  0  0  0  0  0  0  0  0  0  0  0
   37.7900   26.0560   31.4740 C   0  0  0  0  0  0  0  0  0  0  0  0
   37.6320   26.9740   30.8540 H   0  0  0  0  0  0  0  0  0  0  0  0
   38.9150   25.9410   31.4600 H   0  0  0  0  0  0  0  0  0  0  0  0
   37.2640   24.9720   30.7700 N   0  0  0  0  0  0  0  0  0  0  0  0
   35.9290   24.6120   31.0560 C   0  0  0  0  0  0  0  0  0  0  0  0
   35.7020   23.2620   31.6300 C   0  0  0  0  0  0  0  0  0  0  0  0
   36.5010   22.2860   31.0230 O   0  0  0  0  0  0  0  0  0  0  0  0
   37.8160   22.6390   31.0700 C   0  0  0  0  0  0  0  0  0  0  0  0
   38.0670   23.9210   30.3500 C   0  0  2  0  0  0  0  0  0  0  0  0
   35.2260   25.3530   31.3990 H   0  0  0  0  0  0  0  0  0  0  0  0
   35.5680   24.5210   29.9730 H   0  0  0  0  0  0  0  0  0  0  0  0
   34.6860   22.9310   31.1820 H   0  0  0  0  0  0  0  0  0  0  0  0
   35.4400   23.1350   32.6570 H   0  0  0  0  0  0  0  0  0  0  0  0
   38.2990   21.8780   30.3980 H   0  0  0  0  0  0  0  0  0  0  0  0
   38.3630   22.4770   31.9880 H   0  0  0  0  0  0  0  0  0  0  0  0
   37.9390   23.7830   29.2370 H   0  0  0  0  0  0  0  0  0  0  0  0
   39.8470   24.2760   30.5870 S   0  0  0  0  0  0  0  0  0  0  0  0
   40.3400   23.5550   31.6800 H   0  0  0  0  0  0  0  0  0  0  0  0
  1  7  1  0  0  0  0
  1  2  1  0  0  0  0
  1  3  1  0  0  0  0
  4  8  2  0  0  0  0
  4 13  1  0  0  0  0
  5  4  1  0  0  0  0
  6  5  2  0  0  0  0
  6  7  1  0  0  0  0
  7  8  1  0  0  0  0
  9  5  1  0  0  0  0
 10  6  1  0  0  0  0
 11 16  1  0  0  0  0
 11 17  1  0  0  0  0
 12 11  2  0  0  0  0
 13 14  2  0  0  0  0
 13 12  1  0  0  0  0
 14 15  1  0  0  0  0
 15 19  1  0  0  0  0
 15 16  2  0  0  0  0
 18 12  1  0  0  0  0
 20  1  1  0  0  0  0
 21 20  1  0  0  0  0
 22 20  1  0  0  0  0
 23 24  1  0  0  0  0
 23 20  1  0  0  0  0
 24 29  1  0  0  0  0
 24 25  1  0  0  0  0
 25 32  1  0  0  0  0
 26 27  1  0  0  0  0
 26 25  1  0  0  0  0
 27 34  1  0  0  0  0
 28 35  1  6  0  0  0
 28 36  1  0  0  0  0
 28 23  1  0  0  0  0
 28 27  1  0  0  0  0
 30 24  1  0  0  0  0
 31 25  1  0  0  0  0
 33 27  1  0  0  0  0
 36 37  1  0  0  0  0
M  END
>  <minimizedAffinity>
-4.4325304

$$$$
