
 OpenBabel03272506233D

 24 25  0  0  0  0  0  0  0  0999 V2000
   38.0190   30.3140   50.1910 C   0  0  0  0  0  0  0  0  0  0  0  0
   37.3960   30.4970   48.9270 C   0  0  0  0  0  0  0  0  0  0  0  0
   36.0670   30.1040   48.8030 C   0  0  0  0  0  0  0  0  0  0  0  0
   35.4290   29.5720   49.8800 N   0  0  0  0  0  0  0  0  0  0  0  0
   36.0580   29.4070   51.0860 C   0  0  0  0  0  0  0  0  0  0  0  0
   37.3580   29.7850   51.2300 N   0  0  0  0  0  0  0  0  0  0  0  0
   39.0540   30.6120   50.3110 H   0  0  0  0  0  0  0  0  0  0  0  0
   35.4690   28.9720   51.8940 H   0  0  0  0  0  0  0  0  0  0  0  0
   38.1980   31.0720   47.8870 C   0  0  0  0  0  0  0  0  0  0  0  0
   38.5240   30.2690   46.8210 C   0  0  0  0  0  0  0  0  0  0  0  0
   39.2880   30.6590   45.7320 C   0  0  0  0  0  0  0  0  0  0  0  0
   39.7720   31.9810   45.7090 C   0  0  0  0  0  0  0  0  0  0  0  0
   39.4480   32.8000   46.7810 C   0  0  0  0  0  0  0  0  0  0  0  0
   38.6860   32.3850   47.8510 C   0  0  0  0  0  0  0  0  0  0  0  0
   38.1760   29.2260   46.7790 H   0  0  0  0  0  0  0  0  0  0  0  0
   39.5060   29.9590   44.9200 H   0  0  0  0  0  0  0  0  0  0  0  0
   40.3610   32.3290   44.8990 H   0  0  0  0  0  0  0  0  0  0  0  0
   39.8030   33.8210   46.7960 H   0  0  0  0  0  0  0  0  0  0  0  0
   38.2590   33.4180   49.2330 S   0  0  0  0  0  0  0  0  0  0  0  0
   37.6430   32.6830   50.2320 H   0  0  0  0  0  0  0  0  0  0  0  0
   35.2890   30.2360   47.5400 C   0  0  0  0  0  0  0  0  0  0  0  0
   34.0180   30.7680   47.8280 F   0  0  0  0  0  0  0  0  0  0  0  0
   35.8540   30.9750   46.5620 F   0  0  0  0  0  0  0  0  0  0  0  0
   34.9980   28.9660   47.0380 F   0  0  0  0  0  0  0  0  0  0  0  0
  1  7  1  0  0  0  0
  1  6  1  0  0  0  0
  2  1  2  0  0  0  0
  3  2  1  0  0  0  0
  3  4  2  0  0  0  0
  4  5  1  0  0  0  0
  5  6  2  0  0  0  0
  5  8  1  0  0  0  0
  9  2  1  0  0  0  0
 10  9  2  0  0  0  0
 11 10  1  0  0  0  0
 12 11  2  0  0  0  0
 12 13  1  0  0  0  0
 13 18  1  0  0  0  0
 13 14  2  0  0  0  0
 14  9  1  0  0  0  0
 14 19  1  0  0  0  0
 15 10  1  0  0  0  0
 16 11  1  0  0  0  0
 17 12  1  0  0  0  0
 19 20  1  0  0  0  0
 21 22  1  0  0  0  0
 21  3  1  0  0  0  0
 23 21  1  0  0  0  0
 24 21  1  0  0  0  0
M  END
>  <minimizedAffinity>
-5.45159578

>  <minimizedRMSD>
0.619411111

$$$$
