
 OpenBabel03272500513D

 38 42  0  0  1  0  0  0  0  0999 V2000
   31.6250   28.2030   47.1220 C   0  0  1  0  0  0  0  0  0  0  0  0
   32.3780   27.1560   46.2160 C   0  0  0  0  0  0  0  0  0  0  0  0
   32.4720   28.6390   46.0130 C   0  0  2  0  0  0  0  0  0  0  0  0
   32.0190   28.2100   48.1760 H   0  0  0  0  0  0  0  0  0  0  0  0
   33.2790   26.7130   46.6460 H   0  0  0  0  0  0  0  0  0  0  0  0
   31.7340   26.5860   45.5240 H   0  0  0  0  0  0  0  0  0  0  0  0
   31.9830   29.0250   45.0940 H   0  0  0  0  0  0  0  0  0  0  0  0
   28.0860   28.6970   47.5280 C   0  0  0  0  0  0  0  0  0  0  0  0
   28.1080   27.9860   46.3280 C   0  0  0  0  0  0  0  0  0  0  0  0
   29.4560   27.7060   46.0200 C   0  0  0  0  0  0  0  0  0  0  0  0
   30.1840   28.2390   47.0100 N   0  0  0  0  0  0  0  0  0  0  0  0
   29.3530   28.7970   47.8520 N   0  0  0  0  0  0  0  0  0  0  0  0
   27.2640   27.6840   45.7140 H   0  0  0  0  0  0  0  0  0  0  0  0
   29.7990   27.1580   45.1350 H   0  0  0  0  0  0  0  0  0  0  0  0
   25.9410   28.2770   48.7490 C   0  0  0  0  0  0  0  0  0  0  0  0
   26.8750   29.1470   48.1370 C   0  0  0  0  0  0  0  0  0  0  0  0
   26.5510   30.4800   48.1530 C   0  0  0  0  0  0  0  0  0  0  0  0
   25.4000   30.8940   48.7300 N   0  0  0  0  0  0  0  0  0  0  0  0
   24.5350   30.0170   49.3070 C   0  0  0  0  0  0  0  0  0  0  0  0
   24.8130   28.6910   49.3150 N   0  0  0  0  0  0  0  0  0  0  0  0
   26.1630   27.2050   48.7570 H   0  0  0  0  0  0  0  0  0  0  0  0
   27.2480   31.1670   47.6910 H   0  0  0  0  0  0  0  0  0  0  0  0
   23.6880   30.5640   49.7030 H   0  0  0  0  0  0  0  0  0  0  0  0
   33.7710   29.3250   46.3040 C   0  0  0  0  0  0  0  0  0  0  0  0
   34.5730   29.9560   45.3600 C   0  0  0  0  0  0  0  0  0  0  0  0
   35.6520   30.4700   46.0120 N   0  0  0  0  0  0  0  0  0  0  0  0
   35.5340   30.1710   47.3460 C   0  0  0  0  0  0  0  0  0  0  0  0
   34.3990   29.4830   47.5010 N   0  0  0  0  0  0  0  0  0  0  0  0
   34.4090   30.0480   44.2790 H   0  0  0  0  0  0  0  0  0  0  0  0
   36.4500   31.0120   45.5690 H   0  0  0  0  0  0  0  0  0  0  0  0
   36.5020   30.5550   48.4130 C   0  0  0  0  0  0  0  0  0  0  0  0
   36.7330   29.6930   49.5070 C   0  0  0  0  0  0  0  0  0  0  0  0
   37.9780   30.6300   50.4830 S   0  0  0  0  0  0  0  0  0  0  0  0
   37.9590   32.0350   49.2170 C   0  0  0  0  0  0  0  0  0  0  0  0
   37.2090   31.6550   48.4660 N   0  0  0  0  0  0  0  0  0  0  0  0
   36.2850   28.7320   49.7070 H   0  0  0  0  0  0  0  0  0  0  0  0
   38.9240   33.6080   49.2260 S   0  0  0  0  0  0  0  0  0  0  0  0
   40.0950   33.4030   49.9860 H   0  0  0  0  0  0  0  0  0  0  0  0
  1  4  1  1  0  0  0
  2  5  1  0  0  0  0
  2  1  1  0  0  0  0
  3  7  1  6  0  0  0
  3  2  1  0  0  0  0
  3 24  1  0  0  0  0
  3  1  1  0  0  0  0
  6  2  1  0  0  0  0
  8 12  2  0  0  0  0
  8 16  1  0  0  0  0
  9  8  1  0  0  0  0
 10  9  2  0  0  0  0
 10 11  1  0  0  0  0
 11  1  1  0  0  0  0
 11 12  1  0  0  0  0
 13  9  1  0  0  0  0
 14 10  1  0  0  0  0
 15 21  1  0  0  0  0
 15 20  1  0  0  0  0
 16 17  1  0  0  0  0
 16 15  2  0  0  0  0
 17 18  2  0  0  0  0
 18 19  1  0  0  0  0
 19 20  2  0  0  0  0
 19 23  1  0  0  0  0
 22 17  1  0  0  0  0
 24 28  1  0  0  0  0
 25 26  1  0  0  0  0
 25 24  2  0  0  0  0
 26 27  1  0  0  0  0
 27 28  2  0  0  0  0
 27 31  1  0  0  0  0
 29 25  1  0  0  0  0
 30 26  1  0  0  0  0
 31 35  1  0  0  0  0
 31 32  2  0  0  0  0
 32 36  1  0  0  0  0
 32 33  1  0  0  0  0
 34 37  1  0  0  0  0
 34 33  1  0  0  0  0
 35 34  2  0  0  0  0
 37 38  1  0  0  0  0
M  END
>  <minimizedAffinity>
-6.09112406

>  <minimizedRMSD>
0.706241727

$$$$
