
 OpenBabel03272510303D

 21 22  0  0  0  0  0  0  0  0999 V2000
   38.6000   24.8430   36.3300 C   0  0  0  0  0  0  0  0  0  0  0  0
   37.8840   24.9020   37.5270 C   0  0  0  0  0  0  0  0  0  0  0  0
   38.1670   23.9240   38.4500 C   0  0  0  0  0  0  0  0  0  0  0  0
   39.1100   22.9640   38.1660 N   0  0  0  0  0  0  0  0  0  0  0  0
   39.7880   22.9500   36.9740 C   0  0  0  0  0  0  0  0  0  0  0  0
   39.5200   23.9170   36.0370 N   0  0  0  0  0  0  0  0  0  0  0  0
   37.1610   25.6570   37.7180 H   0  0  0  0  0  0  0  0  0  0  0  0
   37.6630   23.8860   39.4070 H   0  0  0  0  0  0  0  0  0  0  0  0
   38.3420   25.9160   35.3060 C   0  0  0  0  0  0  0  0  0  0  0  0
   38.0690   27.2860   35.6570 C   0  0  0  0  0  0  0  0  0  0  0  0
   39.4760   26.9450   35.2140 C   0  0  0  0  0  0  0  0  0  0  0  0
   37.9800   25.5160   34.3270 H   0  0  0  0  0  0  0  0  0  0  0  0
   38.0390   27.5360   36.7570 H   0  0  0  0  0  0  0  0  0  0  0  0
   37.4160   27.9230   35.0620 H   0  0  0  0  0  0  0  0  0  0  0  0
   39.7330   27.2240   34.1790 H   0  0  0  0  0  0  0  0  0  0  0  0
   40.2910   26.8770   35.9360 H   0  0  0  0  0  0  0  0  0  0  0  0
   40.8030   21.9540   36.6560 C   0  0  0  0  0  0  0  0  0  0  0  0
   40.8780   21.1990   37.4780 H   0  0  0  0  0  0  0  0  0  0  0  0
   40.5460   21.4720   35.6930 H   0  0  0  0  0  0  0  0  0  0  0  0
   42.4060   22.7960   36.4230 S   0  0  0  0  0  0  0  0  0  0  0  0
   43.0530   22.3110   35.2780 H   0  0  0  0  0  0  0  0  0  0  0  0
  1  2  1  0  0  0  0
  2  7  1  0  0  0  0
  2  3  2  0  0  0  0
  3  8  1  0  0  0  0
  4  3  1  0  0  0  0
  5  4  2  0  0  0  0
  6  1  2  0  0  0  0
  6  5  1  0  0  0  0
  9 10  1  0  0  0  0
  9  1  1  0  0  0  0
 10 13  1  0  0  0  0
 11  9  1  0  0  0  0
 11 10  1  0  0  0  0
 11 16  1  0  0  0  0
 12  9  1  0  0  0  0
 14 10  1  0  0  0  0
 15 11  1  0  0  0  0
 17  5  1  0  0  0  0
 17 18  1  0  0  0  0
 19 17  1  0  0  0  0
 20 17  1  0  0  0  0
 21 20  1  0  0  0  0
M  END
>  <minimizedAffinity>
-3.69108176

$$$$

 OpenBabel03272510303D

 21 22  0  0  0  0  0  0  0  0999 V2000
   38.2730   25.0430   36.1080 C   0  0  0  0  0  0  0  0  0  0  0  0
   37.8060   24.4970   37.3050 C   0  0  0  0  0  0  0  0  0  0  0  0
   37.5270   23.1520   37.2880 C   0  0  0  0  0  0  0  0  0  0  0  0
   37.7110   22.4270   36.1330 N   0  0  0  0  0  0  0  0  0  0  0  0
   38.1730   23.0110   34.9820 C   0  0  0  0  0  0  0  0  0  0  0  0
   38.4570   24.3540   34.9770 N   0  0  0  0  0  0  0  0  0  0  0  0
   37.6740   25.0830   38.1810 H   0  0  0  0  0  0  0  0  0  0  0  0
   37.1600   22.6390   38.1670 H   0  0  0  0  0  0  0  0  0  0  0  0
   38.6210   26.5090   36.0950 C   0  0  0  0  0  0  0  0  0  0  0  0
   39.1070   27.1880   34.9220 C   0  0  0  0  0  0  0  0  0  0  0  0
   37.6430   27.3520   35.2680 C   0  0  0  0  0  0  0  0  0  0  0  0
   38.8650   26.9150   37.1070 H   0  0  0  0  0  0  0  0  0  0  0  0
   39.2360   26.5680   33.9880 H   0  0  0  0  0  0  0  0  0  0  0  0
   39.8090   28.0200   34.9760 H   0  0  0  0  0  0  0  0  0  0  0  0
   37.3680   28.3050   35.7510 H   0  0  0  0  0  0  0  0  0  0  0  0
   36.8690   26.8320   34.7010 H   0  0  0  0  0  0  0  0  0  0  0  0
   38.3930   22.2620   33.7520 C   0  0  0  0  0  0  0  0  0  0  0  0
   38.7030   22.9510   32.9270 H   0  0  0  0  0  0  0  0  0  0  0  0
   39.1640   21.4870   33.9350 H   0  0  0  0  0  0  0  0  0  0  0  0
   36.8530   21.3910   33.3050 S   0  0  0  0  0  0  0  0  0  0  0  0
   37.1270   20.0660   32.9380 H   0  0  0  0  0  0  0  0  0  0  0  0
  1  2  1  0  0  0  0
  2  7  1  0  0  0  0
  3  2  2  0  0  0  0
  3  8  1  0  0  0  0
  4  3  1  0  0  0  0
  5  4  2  0  0  0  0
  6  5  1  0  0  0  0
  6  1  2  0  0  0  0
  9  1  1  0  0  0  0
  9 12  1  0  0  0  0
 10 14  1  0  0  0  0
 10 11  1  0  0  0  0
 10  9  1  0  0  0  0
 11 15  1  0  0  0  0
 11  9  1  0  0  0  0
 13 10  1  0  0  0  0
 16 11  1  0  0  0  0
 17 19  1  0  0  0  0
 17  5  1  0  0  0  0
 18 17  1  0  0  0  0
 20 17  1  0  0  0  0
 21 20  1  0  0  0  0
M  END
>  <minimizedAffinity>
-3.42208958

$$$$

 OpenBabel03272510303D

 21 22  0  0  0  0  0  0  0  0999 V2000
   38.2090   25.3360   35.8190 C   0  0  0  0  0  0  0  0  0  0  0  0
   38.2660   26.6510   36.2840 C   0  0  0  0  0  0  0  0  0  0  0  0
   37.8820   27.6240   35.3940 C   0  0  0  0  0  0  0  0  0  0  0  0
   37.4730   27.2740   34.1270 N   0  0  0  0  0  0  0  0  0  0  0  0
   37.4340   25.9660   33.7190 C   0  0  0  0  0  0  0  0  0  0  0  0
   37.8150   24.9780   34.5920 N   0  0  0  0  0  0  0  0  0  0  0  0
   38.5860   26.8900   37.2680 H   0  0  0  0  0  0  0  0  0  0  0  0
   37.8920   28.6730   35.6620 H   0  0  0  0  0  0  0  0  0  0  0  0
   38.5920   24.2370   36.7760 C   0  0  0  0  0  0  0  0  0  0  0  0
   38.1290   24.1890   38.1390 C   0  0  0  0  0  0  0  0  0  0  0  0
   37.4190   23.3130   37.1290 C   0  0  0  0  0  0  0  0  0  0  0  0
   39.5420   23.7190   36.4990 H   0  0  0  0  0  0  0  0  0  0  0  0
   37.4630   25.0320   38.4830 H   0  0  0  0  0  0  0  0  0  0  0  0
   38.7280   23.7690   38.9460 H   0  0  0  0  0  0  0  0  0  0  0  0
   37.6940   22.2450   37.1450 H   0  0  0  0  0  0  0  0  0  0  0  0
   36.4290   23.5750   36.7550 H   0  0  0  0  0  0  0  0  0  0  0  0
   36.9890   25.5680   32.3900 C   0  0  0  0  0  0  0  0  0  0  0  0
   37.8620   25.2580   31.7630 H   0  0  0  0  0  0  0  0  0  0  0  0
   36.2550   24.7440   32.4870 H   0  0  0  0  0  0  0  0  0  0  0  0
   36.1180   26.9720   31.6120 S   0  0  0  0  0  0  0  0  0  0  0  0
   34.9300   26.5380   31.0090 H   0  0  0  0  0  0  0  0  0  0  0  0
  1  2  1  0  0  0  0
  1  9  1  0  0  0  0
  2  7  1  0  0  0  0
  3  8  1  0  0  0  0
  3  2  2  0  0  0  0
  4  3  1  0  0  0  0
  5  4  2  0  0  0  0
  5  6  1  0  0  0  0
  6  1  2  0  0  0  0
  9 11  1  0  0  0  0
  9 10  1  0  0  0  0
 10 13  1  0  0  0  0
 10 14  1  0  0  0  0
 11 15  1  0  0  0  0
 11 10  1  0  0  0  0
 12  9  1  0  0  0  0
 16 11  1  0  0  0  0
 17 19  1  0  0  0  0
 17  5  1  0  0  0  0
 18 17  1  0  0  0  0
 20 17  1  0  0  0  0
 21 20  1  0  0  0  0
M  END
>  <minimizedAffinity>
-3.40523148

$$$$

 OpenBabel03272510303D

 21 22  0  0  0  0  0  0  0  0999 V2000
   37.0730   27.0280   33.9190 C   0  0  0  0  0  0  0  0  0  0  0  0
   36.4010   28.1740   33.4890 C   0  0  0  0  0  0  0  0  0  0  0  0
   35.9470   28.1580   32.1920 C   0  0  0  0  0  0  0  0  0  0  0  0
   36.1660   27.0530   31.4010 N   0  0  0  0  0  0  0  0  0  0  0  0
   36.8310   25.9510   31.8720 C   0  0  0  0  0  0  0  0  0  0  0  0
   37.2940   25.9460   33.1640 N   0  0  0  0  0  0  0  0  0  0  0  0
   36.2480   29.0120   34.1230 H   0  0  0  0  0  0  0  0  0  0  0  0
   35.4160   29.0000   31.7680 H   0  0  0  0  0  0  0  0  0  0  0  0
   37.5580   26.9930   35.3440 C   0  0  0  0  0  0  0  0  0  0  0  0
   38.3350   25.9070   35.8810 C   0  0  0  0  0  0  0  0  0  0  0  0
   39.0780   27.1590   35.4660 C   0  0  0  0  0  0  0  0  0  0  0  0
   36.9510   27.6290   36.0340 H   0  0  0  0  0  0  0  0  0  0  0  0
   38.5650   25.0490   35.1850 H   0  0  0  0  0  0  0  0  0  0  0  0
   38.2650   25.5960   36.9230 H   0  0  0  0  0  0  0  0  0  0  0  0
   39.3810   27.8300   36.2870 H   0  0  0  0  0  0  0  0  0  0  0  0
   39.6670   27.1840   34.5480 H   0  0  0  0  0  0  0  0  0  0  0  0
   37.0600   24.7630   31.0600 C   0  0  0  0  0  0  0  0  0  0  0  0
   37.0910   25.0320   29.9750 H   0  0  0  0  0  0  0  0  0  0  0  0
   38.0070   24.2850   31.3790 H   0  0  0  0  0  0  0  0  0  0  0  0
   35.7220   23.5620   31.3770 S   0  0  0  0  0  0  0  0  0  0  0  0
   36.2490   22.2760   31.5550 H   0  0  0  0  0  0  0  0  0  0  0  0
  1  9  1  0  0  0  0
  2  1  1  0  0  0  0
  2  7  1  0  0  0  0
  3  2  2  0  0  0  0
  4  5  2  0  0  0  0
  4  3  1  0  0  0  0
  5  6  1  0  0  0  0
  6  1  2  0  0  0  0
  8  3  1  0  0  0  0
  9 11  1  0  0  0  0
  9 10  1  0  0  0  0
  9 12  1  0  0  0  0
 10 14  1  0  0  0  0
 11 10  1  0  0  0  0
 11 15  1  0  0  0  0
 13 10  1  0  0  0  0
 16 11  1  0  0  0  0
 17 20  1  0  0  0  0
 17 19  1  0  0  0  0
 17  5  1  0  0  0  0
 18 17  1  0  0  0  0
 20 21  1  0  0  0  0
M  END
>  <minimizedAffinity>
-3.38332725

$$$$

 OpenBabel03272510303D

 21 22  0  0  0  0  0  0  0  0999 V2000
   38.5640   25.1680   36.2290 C   0  0  0  0  0  0  0  0  0  0  0  0
   38.2250   26.5170   36.1100 C   0  0  0  0  0  0  0  0  0  0  0  0
   39.0380   27.2750   35.3020 C   0  0  0  0  0  0  0  0  0  0  0  0
   40.1110   26.6930   34.6680 N   0  0  0  0  0  0  0  0  0  0  0  0
   40.4010   25.3620   34.8160 C   0  0  0  0  0  0  0  0  0  0  0  0
   39.6030   24.5860   35.6200 N   0  0  0  0  0  0  0  0  0  0  0  0
   37.3900   26.9380   36.6130 H   0  0  0  0  0  0  0  0  0  0  0  0
   38.8570   28.3310   35.1490 H   0  0  0  0  0  0  0  0  0  0  0  0
   37.6780   24.2960   37.0800 C   0  0  0  0  0  0  0  0  0  0  0  0
   38.1710   23.1610   37.8170 C   0  0  0  0  0  0  0  0  0  0  0  0
   37.9500   24.4480   38.5820 C   0  0  0  0  0  0  0  0  0  0  0  0
   36.6020   24.3330   36.7830 H   0  0  0  0  0  0  0  0  0  0  0  0
   39.2720   22.9280   37.7230 H   0  0  0  0  0  0  0  0  0  0  0  0
   37.5670   22.2720   37.9960 H   0  0  0  0  0  0  0  0  0  0  0  0
   37.0310   24.4910   39.1910 H   0  0  0  0  0  0  0  0  0  0  0  0
   38.7910   25.0700   38.8910 H   0  0  0  0  0  0  0  0  0  0  0  0
   41.5210   24.7190   34.1420 C   0  0  0  0  0  0  0  0  0  0  0  0
   41.2230   23.7060   33.7720 H   0  0  0  0  0  0  0  0  0  0  0  0
   41.8580   25.3650   33.3080 H   0  0  0  0  0  0  0  0  0  0  0  0
   42.9160   24.5810   35.3110 S   0  0  0  0  0  0  0  0  0  0  0  0
   44.1120   24.9720   34.6950 H   0  0  0  0  0  0  0  0  0  0  0  0
  1  9  1  0  0  0  0
  2  1  1  0  0  0  0
  2  7  1  0  0  0  0
  3  2  2  0  0  0  0
  4  5  2  0  0  0  0
  4  3  1  0  0  0  0
  5  6  1  0  0  0  0
  6  1  2  0  0  0  0
  8  3  1  0  0  0  0
  9 10  1  0  0  0  0
  9 11  1  0  0  0  0
 10 14  1  0  0  0  0
 10 11  1  0  0  0  0
 11 16  1  0  0  0  0
 11 15  1  0  0  0  0
 12  9  1  0  0  0  0
 13 10  1  0  0  0  0
 17  5  1  0  0  0  0
 17 20  1  0  0  0  0
 18 17  1  0  0  0  0
 19 17  1  0  0  0  0
 21 20  1  0  0  0  0
M  END
>  <minimizedAffinity>
-3.34064865

$$$$

 OpenBabel03272510303D

 21 22  0  0  0  0  0  0  0  0999 V2000
   39.7800   23.0080   36.9760 C   0  0  0  0  0  0  0  0  0  0  0  0
   39.1330   23.0890   38.2110 C   0  0  0  0  0  0  0  0  0  0  0  0
   38.1510   24.0440   38.3170 C   0  0  0  0  0  0  0  0  0  0  0  0
   37.8590   24.8510   37.2420 N   0  0  0  0  0  0  0  0  0  0  0  0
   38.5230   24.7310   36.0490 C   0  0  0  0  0  0  0  0  0  0  0  0
   39.5090   23.7840   35.9210 N   0  0  0  0  0  0  0  0  0  0  0  0
   39.3820   22.4520   39.0230 H   0  0  0  0  0  0  0  0  0  0  0  0
   37.5950   24.1840   39.2350 H   0  0  0  0  0  0  0  0  0  0  0  0
   40.8400   21.9510   36.8090 C   0  0  0  0  0  0  0  0  0  0  0  0
   41.6060   21.7940   35.5990 C   0  0  0  0  0  0  0  0  0  0  0  0
   42.2600   22.5280   36.7500 C   0  0  0  0  0  0  0  0  0  0  0  0
   40.7070   21.0780   37.4930 H   0  0  0  0  0  0  0  0  0  0  0  0
   41.3700   22.4980   34.7490 H   0  0  0  0  0  0  0  0  0  0  0  0
   41.9650   20.8240   35.2550 H   0  0  0  0  0  0  0  0  0  0  0  0
   42.9940   21.9470   37.3330 H   0  0  0  0  0  0  0  0  0  0  0  0
   42.3730   23.6130   36.7320 H   0  0  0  0  0  0  0  0  0  0  0  0
   38.2200   25.5610   34.8900 C   0  0  0  0  0  0  0  0  0  0  0  0
   38.2040   24.9400   33.9600 H   0  0  0  0  0  0  0  0  0  0  0  0
   37.2450   26.0620   35.0520 H   0  0  0  0  0  0  0  0  0  0  0  0
   39.4810   26.8730   34.7560 S   0  0  0  0  0  0  0  0  0  0  0  0
   38.8750   28.1120   34.5040 H   0  0  0  0  0  0  0  0  0  0  0  0
  1  2  1  0  0  0  0
  2  3  2  0  0  0  0
  2  7  1  0  0  0  0
  3  8  1  0  0  0  0
  4  3  1  0  0  0  0
  5  4  2  0  0  0  0
  6  5  1  0  0  0  0
  6  1  2  0  0  0  0
  9  1  1  0  0  0  0
  9 12  1  0  0  0  0
 10 11  1  0  0  0  0
 10  9  1  0  0  0  0
 11  9  1  0  0  0  0
 11 15  1  0  0  0  0
 13 10  1  0  0  0  0
 14 10  1  0  0  0  0
 16 11  1  0  0  0  0
 17 19  1  0  0  0  0
 17  5  1  0  0  0  0
 18 17  1  0  0  0  0
 20 17  1  0  0  0  0
 21 20  1  0  0  0  0
M  END
>  <minimizedAffinity>
-3.33303618

$$$$

 OpenBabel03272510303D

 21 22  0  0  0  0  0  0  0  0999 V2000
   36.4870   21.0960   33.7620 C   0  0  0  0  0  0  0  0  0  0  0  0
   35.6080   20.6240   34.7390 C   0  0  0  0  0  0  0  0  0  0  0  0
   35.8640   21.0260   36.0280 C   0  0  0  0  0  0  0  0  0  0  0  0
   36.9360   21.8460   36.2910 N   0  0  0  0  0  0  0  0  0  0  0  0
   37.7700   22.2840   35.2950 C   0  0  0  0  0  0  0  0  0  0  0  0
   37.5340   21.8930   34.0010 N   0  0  0  0  0  0  0  0  0  0  0  0
   34.7880   19.9910   34.5040 H   0  0  0  0  0  0  0  0  0  0  0  0
   35.2390   20.7110   36.8530 H   0  0  0  0  0  0  0  0  0  0  0  0
   36.2220   20.7040   32.3320 C   0  0  0  0  0  0  0  0  0  0  0  0
   34.9100   20.3700   31.8410 C   0  0  0  0  0  0  0  0  0  0  0  0
   35.4290   21.7630   31.5560 C   0  0  0  0  0  0  0  0  0  0  0  0
   37.1240   20.3030   31.8080 H   0  0  0  0  0  0  0  0  0  0  0  0
   34.0630   20.3980   32.5870 H   0  0  0  0  0  0  0  0  0  0  0  0
   34.7500   19.6410   31.0490 H   0  0  0  0  0  0  0  0  0  0  0  0
   35.8080   21.9330   30.5340 H   0  0  0  0  0  0  0  0  0  0  0  0
   35.0520   22.6270   32.1050 H   0  0  0  0  0  0  0  0  0  0  0  0
   38.9020   23.1670   35.5460 C   0  0  0  0  0  0  0  0  0  0  0  0
   39.3580   23.4990   34.5810 H   0  0  0  0  0  0  0  0  0  0  0  0
   38.5570   24.0340   36.1440 H   0  0  0  0  0  0  0  0  0  0  0  0
   40.1350   22.2780   36.5570 S   0  0  0  0  0  0  0  0  0  0  0  0
   40.5960   23.0940   37.5990 H   0  0  0  0  0  0  0  0  0  0  0  0
  1  6  2  0  0  0  0
  1  2  1  0  0  0  0
  2  3  2  0  0  0  0
  3  4  1  0  0  0  0
  3  8  1  0  0  0  0
  5 17  1  0  0  0  0
  5  4  2  0  0  0  0
  6  5  1  0  0  0  0
  7  2  1  0  0  0  0
  9  1  1  0  0  0  0
 10  9  1  0  0  0  0
 10 13  1  0  0  0  0
 11 10  1  0  0  0  0
 11 16  1  0  0  0  0
 11  9  1  0  0  0  0
 12  9  1  0  0  0  0
 14 10  1  0  0  0  0
 15 11  1  0  0  0  0
 17 19  1  0  0  0  0
 17 20  1  0  0  0  0
 18 17  1  0  0  0  0
 20 21  1  0  0  0  0
M  END
>  <minimizedAffinity>
-3.26264119

$$$$

 OpenBabel03272510303D

 21 22  0  0  0  0  0  0  0  0999 V2000
   35.9780   23.7500   31.5360 C   0  0  0  0  0  0  0  0  0  0  0  0
   35.1730   24.7240   30.9430 C   0  0  0  0  0  0  0  0  0  0  0  0
   35.4580   26.0270   31.2740 C   0  0  0  0  0  0  0  0  0  0  0  0
   36.4870   26.3050   32.1440 N   0  0  0  0  0  0  0  0  0  0  0  0
   37.2490   25.3110   32.7000 C   0  0  0  0  0  0  0  0  0  0  0  0
   36.9810   24.0020   32.3840 N   0  0  0  0  0  0  0  0  0  0  0  0
   34.3850   24.4780   30.2740 H   0  0  0  0  0  0  0  0  0  0  0  0
   34.8890   26.8520   30.8650 H   0  0  0  0  0  0  0  0  0  0  0  0
   35.7180   22.3110   31.1730 C   0  0  0  0  0  0  0  0  0  0  0  0
   36.4570   21.2140   31.7430 C   0  0  0  0  0  0  0  0  0  0  0  0
   35.0880   21.5070   32.3180 C   0  0  0  0  0  0  0  0  0  0  0  0
   35.2290   22.1870   30.1760 H   0  0  0  0  0  0  0  0  0  0  0  0
   37.2720   21.4730   32.4800 H   0  0  0  0  0  0  0  0  0  0  0  0
   36.6670   20.2990   31.1890 H   0  0  0  0  0  0  0  0  0  0  0  0
   34.2770   20.8370   31.9870 H   0  0  0  0  0  0  0  0  0  0  0  0
   34.9790   21.9940   33.2880 H   0  0  0  0  0  0  0  0  0  0  0  0
   38.3550   25.5810   33.6100 C   0  0  0  0  0  0  0  0  0  0  0  0
   39.3230   25.6040   33.0500 H   0  0  0  0  0  0  0  0  0  0  0  0
   38.1700   26.5440   34.1260 H   0  0  0  0  0  0  0  0  0  0  0  0
   38.3950   24.2840   34.8930 S   0  0  0  0  0  0  0  0  0  0  0  0
   38.5720   24.8540   36.1610 H   0  0  0  0  0  0  0  0  0  0  0  0
  1  6  1  0  0  0  0
  2  3  1  0  0  0  0
  2  1  2  0  0  0  0
  3  4  2  0  0  0  0
  4  5  1  0  0  0  0
  5 17  1  0  0  0  0
  6  5  2  0  0  0  0
  7  2  1  0  0  0  0
  8  3  1  0  0  0  0
  9  1  1  0  0  0  0
  9 10  1  0  0  0  0
  9 11  1  0  0  0  0
 10 11  1  0  0  0  0
 10 13  1  0  0  0  0
 11 16  1  0  0  0  0
 12  9  1  0  0  0  0
 14 10  1  0  0  0  0
 15 11  1  0  0  0  0
 17 19  1  0  0  0  0
 17 20  1  0  0  0  0
 18 17  1  0  0  0  0
 20 21  1  0  0  0  0
M  END
>  <minimizedAffinity>
-3.24121761

$$$$

 OpenBabel03272510303D

 21 22  0  0  0  0  0  0  0  0999 V2000
   37.9130   25.4250   33.9860 C   0  0  0  0  0  0  0  0  0  0  0  0
   38.2970   24.3320   34.7650 C   0  0  0  0  0  0  0  0  0  0  0  0
   38.0050   23.0910   34.2510 C   0  0  0  0  0  0  0  0  0  0  0  0
   37.3700   22.9830   33.0350 N   0  0  0  0  0  0  0  0  0  0  0  0
   37.0140   24.0890   32.3070 C   0  0  0  0  0  0  0  0  0  0  0  0
   37.2950   25.3390   32.8030 N   0  0  0  0  0  0  0  0  0  0  0  0
   38.7860   24.4470   35.7000 H   0  0  0  0  0  0  0  0  0  0  0  0
   38.2630   22.1840   34.7820 H   0  0  0  0  0  0  0  0  0  0  0  0
   38.2440   26.8020   34.4990 C   0  0  0  0  0  0  0  0  0  0  0  0
   38.9390   27.0300   35.7400 C   0  0  0  0  0  0  0  0  0  0  0  0
   39.7460   27.1120   34.4620 C   0  0  0  0  0  0  0  0  0  0  0  0
   37.5810   27.6000   34.0850 H   0  0  0  0  0  0  0  0  0  0  0  0
   39.2230   26.1180   36.3420 H   0  0  0  0  0  0  0  0  0  0  0  0
   38.7530   27.9040   36.3620 H   0  0  0  0  0  0  0  0  0  0  0  0
   39.9740   28.1300   34.1050 H   0  0  0  0  0  0  0  0  0  0  0  0
   40.4290   26.3100   34.1760 H   0  0  0  0  0  0  0  0  0  0  0  0
   36.3570   24.0010   31.0100 C   0  0  0  0  0  0  0  0  0  0  0  0
   37.0980   24.1590   30.1870 H   0  0  0  0  0  0  0  0  0  0  0  0
   35.8660   23.0120   30.9210 H   0  0  0  0  0  0  0  0  0  0  0  0
   35.0400   25.2620   30.9260 S   0  0  0  0  0  0  0  0  0  0  0  0
   33.8650   24.7090   30.4000 H   0  0  0  0  0  0  0  0  0  0  0  0
  1  9  1  0  0  0  0
  1  2  1  0  0  0  0
  2  7  1  0  0  0  0
  3  2  2  0  0  0  0
  3  8  1  0  0  0  0
  4  3  1  0  0  0  0
  5  6  1  0  0  0  0
  5  4  2  0  0  0  0
  6  1  2  0  0  0  0
  9 10  1  0  0  0  0
 10 13  1  0  0  0  0
 10 14  1  0  0  0  0
 11  9  1  0  0  0  0
 11 10  1  0  0  0  0
 12  9  1  0  0  0  0
 15 11  1  0  0  0  0
 16 11  1  0  0  0  0
 17  5  1  0  0  0  0
 18 17  1  0  0  0  0
 19 17  1  0  0  0  0
 20 17  1  0  0  0  0
 21 20  1  0  0  0  0
M  END
>  <minimizedAffinity>
-3.19960308

$$$$
