
 OpenBabel03272505233D

 28 30  0  0  0  0  0  0  0  0999 V2000
   38.0540   31.2270   48.3990 Br  0  0  0  0  0  0  0  0  0  0  0  0
   36.8560   30.6600   47.0170 C   0  0  0  0  0  0  0  0  0  0  0  0
   35.6950   29.9840   47.3410 C   0  0  0  0  0  0  0  0  0  0  0  0
   34.8530   29.6010   46.2960 C   0  0  0  0  0  0  0  0  0  0  0  0
   35.1930   29.8980   44.9930 C   0  0  0  0  0  0  0  0  0  0  0  0
   36.3610   30.5770   44.6670 C   0  0  0  0  0  0  0  0  0  0  0  0
   37.1960   30.9580   45.7040 C   0  0  0  0  0  0  0  0  0  0  0  0
   33.9480   29.0720   46.5650 H   0  0  0  0  0  0  0  0  0  0  0  0
   34.5270   29.5910   44.2010 H   0  0  0  0  0  0  0  0  0  0  0  0
   36.6500   30.8210   43.6640 H   0  0  0  0  0  0  0  0  0  0  0  0
   36.0820   28.9100   50.9360 C   0  0  0  0  0  0  0  0  0  0  0  0
   36.3560   29.1320   49.5800 C   0  0  0  0  0  0  0  0  0  0  0  0
   35.4350   29.7290   48.7550 C   0  0  0  0  0  0  0  0  0  0  0  0
   34.2350   30.0970   49.3150 N   0  0  0  0  0  0  0  0  0  0  0  0
   33.9770   29.8780   50.6250 C   0  0  0  0  0  0  0  0  0  0  0  0
   34.8800   29.2950   51.4290 N   0  0  0  0  0  0  0  0  0  0  0  0
   36.7820   28.4430   51.6160 H   0  0  0  0  0  0  0  0  0  0  0  0
   37.3150   28.7890   49.2610 H   0  0  0  0  0  0  0  0  0  0  0  0
   33.0010   30.2060   50.9620 H   0  0  0  0  0  0  0  0  0  0  0  0
   38.4310   31.6690   45.4230 C   0  0  0  0  0  0  0  0  0  0  0  0
   38.5780   32.7760   44.6350 C   0  0  0  0  0  0  0  0  0  0  0  0
   39.8570   33.1670   44.5980 N   0  0  0  0  0  0  0  0  0  0  0  0
   40.5480   32.3070   45.3670 C   0  0  0  0  0  0  0  0  0  0  0  0
   39.6940   31.3810   45.8830 N   0  0  0  0  0  0  0  0  0  0  0  0
   37.7600   33.2820   44.1010 H   0  0  0  0  0  0  0  0  0  0  0  0
   40.3030   33.9620   44.1010 H   0  0  0  0  0  0  0  0  0  0  0  0
   42.3010   32.3380   45.6890 S   0  0  0  0  0  0  0  0  0  0  0  0
   42.8930   31.1800   45.1490 H   0  0  0  0  0  0  0  0  0  0  0  0
  2  3  1  0  0  0  0
  2  1  1  0  0  0  0
  3 13  1  0  0  0  0
  4  8  1  0  0  0  0
  4  3  2  0  0  0  0
  5  4  1  0  0  0  0
  6  5  2  0  0  0  0
  6  7  1  0  0  0  0
  7  2  2  0  0  0  0
  9  5  1  0  0  0  0
 10  6  1  0  0  0  0
 11 16  1  0  0  0  0
 11 17  1  0  0  0  0
 12 11  2  0  0  0  0
 13 14  2  0  0  0  0
 13 12  1  0  0  0  0
 14 15  1  0  0  0  0
 15 19  1  0  0  0  0
 15 16  2  0  0  0  0
 18 12  1  0  0  0  0
 20  7  1  0  0  0  0
 20 24  1  0  0  0  0
 21 20  2  0  0  0  0
 22 21  1  0  0  0  0
 22 23  1  0  0  0  0
 23 27  1  0  0  0  0
 23 24  2  0  0  0  0
 25 21  1  0  0  0  0
 26 22  1  0  0  0  0
 28 27  1  0  0  0  0
M  END
>  <minimizedAffinity>
-3.33179569

>  <minimizedRMSD>
0.483634561

$$$$
