
 OpenBabel03272506383D

 30 31  0  0  1  0  0  0  0  0999 V2000
   35.2950   28.5980   50.0340 O   0  0  0  0  0  0  0  0  0  0  0  0
   35.0970   28.9870   48.8760 C   0  0  0  0  0  0  0  0  0  0  0  0
   35.7810   30.1390   48.3310 C   0  0  2  0  0  0  0  0  0  0  0  0
   35.3320   30.0900   46.8440 C   0  0  0  0  0  0  0  0  0  0  0  0
   34.0270   29.3640   46.8930 C   0  0  0  0  0  0  0  0  0  0  0  0
   34.1940   28.3710   47.9470 N   0  0  0  0  0  0  0  0  0  0  0  0
   35.5060   31.1070   48.7480 H   0  0  0  0  0  0  0  0  0  0  0  0
   35.1830   31.1430   46.5560 H   0  0  0  0  0  0  0  0  0  0  0  0
   36.0860   29.6110   46.2220 H   0  0  0  0  0  0  0  0  0  0  0  0
   33.8610   28.8860   45.9110 H   0  0  0  0  0  0  0  0  0  0  0  0
   33.1890   29.9960   47.1800 H   0  0  0  0  0  0  0  0  0  0  0  0
   33.5740   27.0560   48.0190 C   0  0  0  0  0  0  0  0  0  0  0  0
   33.6830   26.6120   46.9940 H   0  0  0  0  0  0  0  0  0  0  0  0
   34.0540   26.3840   48.7410 H   0  0  0  0  0  0  0  0  0  0  0  0
   31.8060   27.3030   48.2970 S   0  0  0  0  0  0  0  0  0  0  0  0
   31.1530   26.0850   48.0290 H   0  0  0  0  0  0  0  0  0  0  0  0
   37.2020   30.0360   48.3250 O   0  0  0  0  0  0  0  0  0  0  0  0
   37.9370   31.2190   48.2830 C   0  0  0  0  0  0  0  0  0  0  0  0
   38.0980   31.9000   49.4740 C   0  0  0  0  0  0  0  0  0  0  0  0
   38.8270   33.0810   49.4590 C   0  0  0  0  0  0  0  0  0  0  0  0
   39.3480   33.5150   48.2790 N   0  0  0  0  0  0  0  0  0  0  0  0
   39.1810   32.8400   47.1300 C   0  0  0  0  0  0  0  0  0  0  0  0
   38.4850   31.7130   47.1520 N   0  0  0  0  0  0  0  0  0  0  0  0
   40.6480   32.4040   45.3210 C   0  0  0  0  0  0  0  0  0  0  0  0
   40.9990   31.2710   45.7440 O   0  0  0  0  0  0  0  0  0  0  0  0
   39.7360   33.3210   45.9080 N   0  0  0  0  0  0  0  0  0  0  0  0
   37.7030   31.5890   50.4180 H   0  0  0  0  0  0  0  0  0  0  0  0
   38.9660   33.6300   50.3770 H   0  0  0  0  0  0  0  0  0  0  0  0
   41.2200   32.4810   44.4060 H   0  0  0  0  0  0  0  0  0  0  0  0
   39.6040   34.1860   45.3840 H   0  0  0  0  0  0  0  0  0  0  0  0
  2  1  2  0  0  0  0
  3  7  1  1  0  0  0
  3  2  1  0  0  0  0
  4  5  1  0  0  0  0
  4  3  1  0  0  0  0
  5 11  1  0  0  0  0
  5  6  1  0  0  0  0
  6 12  1  0  0  0  0
  6  2  1  0  0  0  0
  8  4  1  0  0  0  0
  9  4  1  0  0  0  0
 10  5  1  0  0  0  0
 12 15  1  0  0  0  0
 12 14  1  0  0  0  0
 13 12  1  0  0  0  0
 16 15  1  0  0  0  0
 17  3  1  0  0  0  0
 18 17  1  0  0  0  0
 18 19  1  0  0  0  0
 19 27  1  0  0  0  0
 20 19  2  0  0  0  0
 20 28  1  0  0  0  0
 21 20  1  0  0  0  0
 22 23  1  0  0  0  0
 22 21  2  0  0  0  0
 23 18  2  0  0  0  0
 24 25  2  0  0  0  0
 24 26  1  0  0  0  0
 26 22  1  0  0  0  0
 29 24  1  0  0  0  0
 30 26  1  0  0  0  0
M  END
>  <minimizedAffinity>
-5.35039425

>  <minimizedRMSD>
0.247941807

$$$$
