
 OpenBabel03272509593D

 39 41  0  0  0  0  0  0  0  0999 V2000
   36.8850   26.6620   33.6250 O   0  0  0  0  0  0  0  0  0  0  0  0
   36.3990   29.7110   31.7390 C   0  0  0  0  0  0  0  0  0  0  0  0
   35.7560   30.5020   32.7070 C   0  0  0  0  0  0  0  0  0  0  0  0
   35.5260   29.9410   33.9550 C   0  0  0  0  0  0  0  0  0  0  0  0
   35.9560   28.6480   34.1230 N   0  0  0  0  0  0  0  0  0  0  0  0
   36.5610   27.9130   33.2010 C   0  0  0  0  0  0  0  0  0  0  0  0
   36.7880   28.4620   31.9780 N   0  0  0  0  0  0  0  0  0  0  0  0
   36.5610   30.1890   30.7720 H   0  0  0  0  0  0  0  0  0  0  0  0
   35.4250   31.5170   32.5570 H   0  0  0  0  0  0  0  0  0  0  0  0
   36.6950   31.7590   35.8800 F   0  0  0  0  0  0  0  0  0  0  0  0
   35.4080   31.4470   35.9690 C   0  0  0  0  0  0  0  0  0  0  0  0
   34.8830   30.5990   35.0630 C   0  0  0  0  0  0  0  0  0  0  0  0
   33.5270   30.3480   35.2560 C   0  0  0  0  0  0  0  0  0  0  0  0
   32.7990   30.9050   36.2660 C   0  0  0  0  0  0  0  0  0  0  0  0
   33.3810   31.7660   37.1660 C   0  0  0  0  0  0  0  0  0  0  0  0
   34.7000   32.0310   37.0040 C   0  0  0  0  0  0  0  0  0  0  0  0
   32.9550   29.6760   34.5990 H   0  0  0  0  0  0  0  0  0  0  0  0
   31.7340   30.6920   36.3990 H   0  0  0  0  0  0  0  0  0  0  0  0
   32.7840   32.1960   37.9590 H   0  0  0  0  0  0  0  0  0  0  0  0
   35.1880   32.7100   37.7040 H   0  0  0  0  0  0  0  0  0  0  0  0
   37.5190   26.5160   34.8830 C   0  0  0  0  0  0  0  0  0  0  0  0
   37.8350   27.5570   35.1860 H   0  0  0  0  0  0  0  0  0  0  0  0
   36.8070   26.1550   35.6520 H   0  0  0  0  0  0  0  0  0  0  0  0
   38.6790   25.5760   34.7940 C   0  0  0  0  0  0  0  0  0  0  0  0
   39.5930   26.1560   34.6570 H   0  0  0  0  0  0  0  0  0  0  0  0
   38.5950   24.9420   33.8630 H   0  0  0  0  0  0  0  0  0  0  0  0
   38.8070   24.7050   35.9900 C   0  0  0  0  0  0  0  0  0  0  0  0
   37.8990   24.8780   37.0230 C   0  0  0  0  0  0  0  0  0  0  0  0
   37.9480   24.1190   38.1580 C   0  0  0  0  0  0  0  0  0  0  0  0
   38.8910   23.1840   38.2820 N   0  0  0  0  0  0  0  0  0  0  0  0
   39.7830   23.0160   37.2620 C   0  0  0  0  0  0  0  0  0  0  0  0
   39.7550   23.7510   36.1390 N   0  0  0  0  0  0  0  0  0  0  0  0
   37.1030   25.6150   37.0020 H   0  0  0  0  0  0  0  0  0  0  0  0
   37.2690   24.2110   38.9900 H   0  0  0  0  0  0  0  0  0  0  0  0
   40.8260   21.9610   37.4330 C   0  0  0  0  0  0  0  0  0  0  0  0
   41.2210   22.0000   38.4850 H   0  0  0  0  0  0  0  0  0  0  0  0
   40.4900   20.9540   37.1920 H   0  0  0  0  0  0  0  0  0  0  0  0
   42.2680   22.4060   36.3930 S   0  0  0  0  0  0  0  0  0  0  0  0
   42.8760   23.5770   36.8770 H   0  0  0  0  0  0  0  0  0  0  0  0
  1 21  1  0  0  0  0
  2  7  2  0  0  0  0
  2  3  1  0  0  0  0
  3  4  2  0  0  0  0
  4  5  1  0  0  0  0
  4 12  1  0  0  0  0
  6  1  1  0  0  0  0
  6  5  2  0  0  0  0
  7  6  1  0  0  0  0
  8  2  1  0  0  0  0
  9  3  1  0  0  0  0
 10 11  1  0  0  0  0
 11 16  1  0  0  0  0
 12 13  1  0  0  0  0
 12 11  2  0  0  0  0
 13 14  2  0  0  0  0
 14 18  1  0  0  0  0
 14 15  1  0  0  0  0
 15 19  1  0  0  0  0
 16 15  2  0  0  0  0
 16 20  1  0  0  0  0
 17 13  1  0  0  0  0
 21 22  1  0  0  0  0
 21 23  1  0  0  0  0
 24 21  1  0  0  0  0
 24 27  1  0  0  0  0
 25 24  1  0  0  0  0
 26 24  1  0  0  0  0
 27 32  2  0  0  0  0
 27 28  1  0  0  0  0
 28 29  2  0  0  0  0
 29 30  1  0  0  0  0
 29 34  1  0  0  0  0
 31 35  1  0  0  0  0
 31 30  2  0  0  0  0
 32 31  1  0  0  0  0
 33 28  1  0  0  0  0
 35 36  1  0  0  0  0
 37 35  1  0  0  0  0
 38 39  1  0  0  0  0
 38 35  1  0  0  0  0
M  END
>  <minimizedAffinity>
-5.9618125

$$$$

 OpenBabel03272509593D

 39 41  0  0  0  0  0  0  0  0999 V2000
   36.8350   25.1360   32.0350 O   0  0  0  0  0  0  0  0  0  0  0  0
   37.3140   27.5220   34.7130 C   0  0  0  0  0  0  0  0  0  0  0  0
   37.9940   26.7170   35.6440 C   0  0  0  0  0  0  0  0  0  0  0  0
   38.2490   25.3970   35.2980 C   0  0  0  0  0  0  0  0  0  0  0  0
   37.8050   25.0030   34.0600 N   0  0  0  0  0  0  0  0  0  0  0  0
   37.1650   25.7730   33.1910 C   0  0  0  0  0  0  0  0  0  0  0  0
   36.9150   27.0660   33.5300 N   0  0  0  0  0  0  0  0  0  0  0  0
   37.1340   28.5510   35.0250 H   0  0  0  0  0  0  0  0  0  0  0  0
   38.3350   27.0440   36.6140 H   0  0  0  0  0  0  0  0  0  0  0  0
   37.4070   24.3050   37.8420 F   0  0  0  0  0  0  0  0  0  0  0  0
   38.5570   23.9110   37.3070 C   0  0  0  0  0  0  0  0  0  0  0  0
   38.9300   24.4320   36.1210 C   0  0  0  0  0  0  0  0  0  0  0  0
   40.1500   23.9460   35.6600 C   0  0  0  0  0  0  0  0  0  0  0  0
   40.8970   23.0310   36.3400 C   0  0  0  0  0  0  0  0  0  0  0  0
   40.4730   22.5280   37.5480 C   0  0  0  0  0  0  0  0  0  0  0  0
   39.2880   22.9820   38.0240 C   0  0  0  0  0  0  0  0  0  0  0  0
   40.5910   24.2750   34.7070 H   0  0  0  0  0  0  0  0  0  0  0  0
   41.8550   22.6620   35.9590 H   0  0  0  0  0  0  0  0  0  0  0  0
   41.0810   21.8030   38.0710 H   0  0  0  0  0  0  0  0  0  0  0  0
   38.9260   22.6010   38.9790 H   0  0  0  0  0  0  0  0  0  0  0  0
   36.9490   23.7260   31.9830 C   0  0  0  0  0  0  0  0  0  0  0  0
   37.7810   23.5150   31.2490 H   0  0  0  0  0  0  0  0  0  0  0  0
   37.2650   23.3120   32.9620 H   0  0  0  0  0  0  0  0  0  0  0  0
   35.6560   23.0980   31.5680 C   0  0  0  0  0  0  0  0  0  0  0  0
   35.3520   23.5200   30.6090 H   0  0  0  0  0  0  0  0  0  0  0  0
   34.8340   23.3870   32.2860 H   0  0  0  0  0  0  0  0  0  0  0  0
   35.7410   21.6190   31.4660 C   0  0  0  0  0  0  0  0  0  0  0  0
   34.8730   20.8600   32.2360 C   0  0  0  0  0  0  0  0  0  0  0  0
   34.8870   19.4940   32.2010 C   0  0  0  0  0  0  0  0  0  0  0  0
   35.7570   18.8670   31.4070 N   0  0  0  0  0  0  0  0  0  0  0  0
   36.6100   19.6180   30.6500 C   0  0  0  0  0  0  0  0  0  0  0  0
   36.6140   20.9600   30.6690 N   0  0  0  0  0  0  0  0  0  0  0  0
   34.1370   21.2910   32.9060 H   0  0  0  0  0  0  0  0  0  0  0  0
   34.2360   18.8570   32.7770 H   0  0  0  0  0  0  0  0  0  0  0  0
   37.5700   18.8850   29.7720 C   0  0  0  0  0  0  0  0  0  0  0  0
   38.4400   19.5570   29.5350 H   0  0  0  0  0  0  0  0  0  0  0  0
   37.9230   17.9400   30.1830 H   0  0  0  0  0  0  0  0  0  0  0  0
   36.7640   18.6010   28.1510 S   0  0  0  0  0  0  0  0  0  0  0  0
   36.5530   19.8250   27.4910 H   0  0  0  0  0  0  0  0  0  0  0  0
  1  6  1  0  0  0  0
  2  8  1  0  0  0  0
  2  3  1  0  0  0  0
  3  9  1  0  0  0  0
  4  3  2  0  0  0  0
  4 12  1  0  0  0  0
  5  4  1  0  0  0  0
  6  7  1  0  0  0  0
  6  5  2  0  0  0  0
  7  2  2  0  0  0  0
 11 10  1  0  0  0  0
 11 16  1  0  0  0  0
 12 11  2  0  0  0  0
 13 12  1  0  0  0  0
 13 14  2  0  0  0  0
 14 15  1  0  0  0  0
 15 16  2  0  0  0  0
 15 19  1  0  0  0  0
 16 20  1  0  0  0  0
 17 13  1  0  0  0  0
 18 14  1  0  0  0  0
 21  1  1  0  0  0  0
 21 23  1  0  0  0  0
 22 21  1  0  0  0  0
 24 21  1  0  0  0  0
 24 26  1  0  0  0  0
 25 24  1  0  0  0  0
 27 24  1  0  0  0  0
 27 28  1  0  0  0  0
 28 33  1  0  0  0  0
 29 28  2  0  0  0  0
 29 34  1  0  0  0  0
 30 29  1  0  0  0  0
 31 32  1  0  0  0  0
 31 30  2  0  0  0  0
 32 27  2  0  0  0  0
 35 37  1  0  0  0  0
 35 31  1  0  0  0  0
 36 35  1  0  0  0  0
 38 35  1  0  0  0  0
 39 38  1  0  0  0  0
M  END
>  <minimizedAffinity>
-5.73188877

$$$$

 OpenBabel03272509593D

 39 41  0  0  0  0  0  0  0  0999 V2000
   37.2090   26.9590   34.0210 O   0  0  0  0  0  0  0  0  0  0  0  0
   35.9440   29.5430   31.8260 C   0  0  0  0  0  0  0  0  0  0  0  0
   35.3170   30.3810   32.7650 C   0  0  0  0  0  0  0  0  0  0  0  0
   35.3630   30.0090   34.1010 C   0  0  0  0  0  0  0  0  0  0  0  0
   36.0290   28.8400   34.3780 N   0  0  0  0  0  0  0  0  0  0  0  0
   36.6180   28.0600   33.4830 C   0  0  0  0  0  0  0  0  0  0  0  0
   36.5730   28.4240   32.1730 N   0  0  0  0  0  0  0  0  0  0  0  0
   35.8840   29.8710   30.7880 H   0  0  0  0  0  0  0  0  0  0  0  0
   34.7970   31.2960   32.5280 H   0  0  0  0  0  0  0  0  0  0  0  0
   36.6710   31.8070   35.9540 F   0  0  0  0  0  0  0  0  0  0  0  0
   35.3670   31.5800   36.0680 C   0  0  0  0  0  0  0  0  0  0  0  0
   34.7780   30.7400   35.1940 C   0  0  0  0  0  0  0  0  0  0  0  0
   33.4120   30.5810   35.4110 C   0  0  0  0  0  0  0  0  0  0  0  0
   32.7330   31.2140   36.4100 C   0  0  0  0  0  0  0  0  0  0  0  0
   33.3800   32.0630   37.2760 C   0  0  0  0  0  0  0  0  0  0  0  0
   34.7110   32.2390   37.0920 C   0  0  0  0  0  0  0  0  0  0  0  0
   32.7900   29.9270   34.7810 H   0  0  0  0  0  0  0  0  0  0  0  0
   31.6590   31.0740   36.5620 H   0  0  0  0  0  0  0  0  0  0  0  0
   32.8220   32.5550   38.0620 H   0  0  0  0  0  0  0  0  0  0  0  0
   35.2500   32.9070   37.7640 H   0  0  0  0  0  0  0  0  0  0  0  0
   38.4880   27.0980   34.6120 C   0  0  0  0  0  0  0  0  0  0  0  0
   39.2040   26.5750   33.9130 H   0  0  0  0  0  0  0  0  0  0  0  0
   38.7950   28.1620   34.6580 H   0  0  0  0  0  0  0  0  0  0  0  0
   38.5100   26.5110   35.9880 C   0  0  0  0  0  0  0  0  0  0  0  0
   37.7500   27.0060   36.5940 H   0  0  0  0  0  0  0  0  0  0  0  0
   39.4890   26.7490   36.4970 H   0  0  0  0  0  0  0  0  0  0  0  0
   38.2820   25.0430   35.9900 C   0  0  0  0  0  0  0  0  0  0  0  0
   37.7210   24.4710   37.1220 C   0  0  0  0  0  0  0  0  0  0  0  0
   37.4790   23.1290   37.2050 C   0  0  0  0  0  0  0  0  0  0  0  0
   37.7880   22.3420   36.1730 N   0  0  0  0  0  0  0  0  0  0  0  0
   38.3390   22.9090   35.0600 C   0  0  0  0  0  0  0  0  0  0  0  0
   38.5860   24.2240   34.9570 N   0  0  0  0  0  0  0  0  0  0  0  0
   37.4420   25.0400   38.0030 H   0  0  0  0  0  0  0  0  0  0  0  0
   37.0470   22.6330   38.0590 H   0  0  0  0  0  0  0  0  0  0  0  0
   38.6730   21.9990   33.9240 C   0  0  0  0  0  0  0  0  0  0  0  0
   39.3840   22.5240   33.2280 H   0  0  0  0  0  0  0  0  0  0  0  0
   39.0790   21.0350   34.2240 H   0  0  0  0  0  0  0  0  0  0  0  0
   37.1580   21.7560   32.9200 S   0  0  0  0  0  0  0  0  0  0  0  0
   36.7830   22.9620   32.3030 H   0  0  0  0  0  0  0  0  0  0  0  0
  1 21  1  0  0  0  0
  2  7  2  0  0  0  0
  2  3  1  0  0  0  0
  3  4  2  0  0  0  0
  4  5  1  0  0  0  0
  4 12  1  0  0  0  0
  6  1  1  0  0  0  0
  6  5  2  0  0  0  0
  7  6  1  0  0  0  0
  8  2  1  0  0  0  0
  9  3  1  0  0  0  0
 10 11  1  0  0  0  0
 11 16  1  0  0  0  0
 12 13  1  0  0  0  0
 12 11  2  0  0  0  0
 13 14  2  0  0  0  0
 14 18  1  0  0  0  0
 14 15  1  0  0  0  0
 15 19  1  0  0  0  0
 16 15  2  0  0  0  0
 16 20  1  0  0  0  0
 17 13  1  0  0  0  0
 21 23  1  0  0  0  0
 21 24  1  0  0  0  0
 22 21  1  0  0  0  0
 24 27  1  0  0  0  0
 24 26  1  0  0  0  0
 24 25  1  0  0  0  0
 27 28  1  0  0  0  0
 28 29  2  0  0  0  0
 28 33  1  0  0  0  0
 29 34  1  0  0  0  0
 30 29  1  0  0  0  0
 31 30  2  0  0  0  0
 32 31  1  0  0  0  0
 32 27  2  0  0  0  0
 35 37  1  0  0  0  0
 35 31  1  0  0  0  0
 36 35  1  0  0  0  0
 38 35  1  0  0  0  0
 39 38  1  0  0  0  0
M  END
>  <minimizedAffinity>
-5.69310665

$$$$

 OpenBabel03272509593D

 39 41  0  0  0  0  0  0  0  0999 V2000
   38.7990   24.8050   33.1940 O   0  0  0  0  0  0  0  0  0  0  0  0
   35.6550   24.9470   31.4100 C   0  0  0  0  0  0  0  0  0  0  0  0
   35.3320   23.5790   31.3670 C   0  0  0  0  0  0  0  0  0  0  0  0
   36.2150   22.6850   31.9550 C   0  0  0  0  0  0  0  0  0  0  0  0
   37.3350   23.2330   32.5290 N   0  0  0  0  0  0  0  0  0  0  0  0
   37.6270   24.5260   32.5630 C   0  0  0  0  0  0  0  0  0  0  0  0
   36.7620   25.4030   31.9870 N   0  0  0  0  0  0  0  0  0  0  0  0
   34.9350   25.6160   30.9370 H   0  0  0  0  0  0  0  0  0  0  0  0
   34.4460   23.1660   30.9100 H   0  0  0  0  0  0  0  0  0  0  0  0
   35.3750   21.0590   34.1980 F   0  0  0  0  0  0  0  0  0  0  0  0
   35.6600   20.4800   33.0370 C   0  0  0  0  0  0  0  0  0  0  0  0
   36.0480   21.2550   32.0050 C   0  0  0  0  0  0  0  0  0  0  0  0
   36.3190   20.5390   30.8420 C   0  0  0  0  0  0  0  0  0  0  0  0
   36.2020   19.1830   30.7540 C   0  0  0  0  0  0  0  0  0  0  0  0
   35.8010   18.4360   31.8360 C   0  0  0  0  0  0  0  0  0  0  0  0
   35.5300   19.1040   32.9830 C   0  0  0  0  0  0  0  0  0  0  0  0
   36.6470   21.0290   29.9140 H   0  0  0  0  0  0  0  0  0  0  0  0
   36.4210   18.6400   29.8290 H   0  0  0  0  0  0  0  0  0  0  0  0
   35.7150   17.3620   31.7430 H   0  0  0  0  0  0  0  0  0  0  0  0
   35.2100   18.5370   33.8570 H   0  0  0  0  0  0  0  0  0  0  0  0
   38.7920   25.7520   34.2470 C   0  0  0  0  0  0  0  0  0  0  0  0
   39.8490   25.7730   34.6430 H   0  0  0  0  0  0  0  0  0  0  0  0
   38.5630   26.7690   33.8720 H   0  0  0  0  0  0  0  0  0  0  0  0
   37.8000   25.3720   35.3020 C   0  0  0  0  0  0  0  0  0  0  0  0
   36.9570   24.8690   34.8280 H   0  0  0  0  0  0  0  0  0  0  0  0
   37.3590   26.2990   35.7730 H   0  0  0  0  0  0  0  0  0  0  0  0
   38.3840   24.5000   36.3520 C   0  0  0  0  0  0  0  0  0  0  0  0
   37.8910   24.6130   37.6440 C   0  0  0  0  0  0  0  0  0  0  0  0
   38.3740   23.8480   38.6670 C   0  0  0  0  0  0  0  0  0  0  0  0
   39.3460   22.9660   38.4260 N   0  0  0  0  0  0  0  0  0  0  0  0
   39.8280   22.8580   37.1540 C   0  0  0  0  0  0  0  0  0  0  0  0
   39.3700   23.5990   36.1330 N   0  0  0  0  0  0  0  0  0  0  0  0
   37.1030   25.3040   37.9230 H   0  0  0  0  0  0  0  0  0  0  0  0
   38.0270   23.8950   39.6870 H   0  0  0  0  0  0  0  0  0  0  0  0
   40.9150   21.8610   36.9180 C   0  0  0  0  0  0  0  0  0  0  0  0
   41.7400   22.0320   37.6630 H   0  0  0  0  0  0  0  0  0  0  0  0
   40.5880   20.8230   36.9470 H   0  0  0  0  0  0  0  0  0  0  0  0
   41.6890   22.2280   35.2970 S   0  0  0  0  0  0  0  0  0  0  0  0
   42.3550   23.4660   35.3440 H   0  0  0  0  0  0  0  0  0  0  0  0
  1 21  1  0  0  0  0
  2  7  1  0  0  0  0
  3  2  2  0  0  0  0
  3  4  1  0  0  0  0
  4 12  1  0  0  0  0
  4  5  2  0  0  0  0
  5  6  1  0  0  0  0
  6  1  1  0  0  0  0
  7  6  2  0  0  0  0
  8  2  1  0  0  0  0
  9  3  1  0  0  0  0
 11 10  1  0  0  0  0
 12 11  2  0  0  0  0
 13 12  1  0  0  0  0
 14 13  2  0  0  0  0
 14 15  1  0  0  0  0
 15 16  2  0  0  0  0
 16 11  1  0  0  0  0
 16 20  1  0  0  0  0
 17 13  1  0  0  0  0
 18 14  1  0  0  0  0
 19 15  1  0  0  0  0
 21 22  1  0  0  0  0
 21 24  1  0  0  0  0
 23 21  1  0  0  0  0
 24 26  1  0  0  0  0
 24 27  1  0  0  0  0
 25 24  1  0  0  0  0
 27 28  1  0  0  0  0
 28 33  1  0  0  0  0
 28 29  2  0  0  0  0
 29 34  1  0  0  0  0
 30 29  1  0  0  0  0
 31 30  2  0  0  0  0
 32 27  2  0  0  0  0
 32 31  1  0  0  0  0
 35 37  1  0  0  0  0
 35 31  1  0  0  0  0
 35 36  1  0  0  0  0
 38 39  1  0  0  0  0
 38 35  1  0  0  0  0
M  END
>  <minimizedAffinity>
-5.64802647

$$$$

 OpenBabel03272509593D

 39 41  0  0  0  0  0  0  0  0999 V2000
   35.5590   22.8690   31.4640 O   0  0  0  0  0  0  0  0  0  0  0  0
   35.2010   26.4320   30.9500 C   0  0  0  0  0  0  0  0  0  0  0  0
   36.2420   26.9070   31.7660 C   0  0  0  0  0  0  0  0  0  0  0  0
   37.0090   25.9730   32.4490 C   0  0  0  0  0  0  0  0  0  0  0  0
   36.6690   24.6570   32.2550 N   0  0  0  0  0  0  0  0  0  0  0  0
   35.6850   24.2230   31.4810 C   0  0  0  0  0  0  0  0  0  0  0  0
   34.9320   25.1370   30.8120 N   0  0  0  0  0  0  0  0  0  0  0  0
   34.6220   27.1980   30.4320 H   0  0  0  0  0  0  0  0  0  0  0  0
   36.4950   27.9460   31.9070 H   0  0  0  0  0  0  0  0  0  0  0  0
   37.0150   26.0900   35.3410 F   0  0  0  0  0  0  0  0  0  0  0  0
   38.1350   26.3350   34.6720 C   0  0  0  0  0  0  0  0  0  0  0  0
   38.1110   26.2750   33.3250 C   0  0  0  0  0  0  0  0  0  0  0  0
   39.3410   26.5490   32.7340 C   0  0  0  0  0  0  0  0  0  0  0  0
   40.4640   26.8500   33.4470 C   0  0  0  0  0  0  0  0  0  0  0  0
   40.4380   26.8990   34.8210 C   0  0  0  0  0  0  0  0  0  0  0  0
   39.2540   26.6360   35.4260 C   0  0  0  0  0  0  0  0  0  0  0  0
   39.4840   26.5400   31.6430 H   0  0  0  0  0  0  0  0  0  0  0  0
   41.4210   27.0630   32.9610 H   0  0  0  0  0  0  0  0  0  0  0  0
   41.3400   27.1390   35.3660 H   0  0  0  0  0  0  0  0  0  0  0  0
   39.2040   26.6680   36.5150 H   0  0  0  0  0  0  0  0  0  0  0  0
   36.7160   22.0850   31.2370 C   0  0  0  0  0  0  0  0  0  0  0  0
   36.7140   21.8540   30.1310 H   0  0  0  0  0  0  0  0  0  0  0  0
   37.6390   22.6600   31.4480 H   0  0  0  0  0  0  0  0  0  0  0  0
   36.6960   20.8450   32.0740 C   0  0  0  0  0  0  0  0  0  0  0  0
   37.5550   20.2270   31.8080 H   0  0  0  0  0  0  0  0  0  0  0  0
   35.7940   20.2160   31.8170 H   0  0  0  0  0  0  0  0  0  0  0  0
   36.7130   21.1340   33.5300 C   0  0  0  0  0  0  0  0  0  0  0  0
   35.6920   20.6140   34.3110 C   0  0  0  0  0  0  0  0  0  0  0  0
   35.6340   20.8340   35.6580 C   0  0  0  0  0  0  0  0  0  0  0  0
   36.5820   21.5670   36.2450 N   0  0  0  0  0  0  0  0  0  0  0  0
   37.5860   22.0760   35.4730 C   0  0  0  0  0  0  0  0  0  0  0  0
   37.6630   21.8740   34.1480 N   0  0  0  0  0  0  0  0  0  0  0  0
   34.8840   20.0100   33.9130 H   0  0  0  0  0  0  0  0  0  0  0  0
   34.8640   20.4550   36.3110 H   0  0  0  0  0  0  0  0  0  0  0  0
   38.6310   22.8910   36.1620 C   0  0  0  0  0  0  0  0  0  0  0  0
   39.4250   22.2050   36.5670 H   0  0  0  0  0  0  0  0  0  0  0  0
   39.0790   23.6650   35.5410 H   0  0  0  0  0  0  0  0  0  0  0  0
   37.8810   23.6430   37.6550 S   0  0  0  0  0  0  0  0  0  0  0  0
   37.5460   22.6460   38.5880 H   0  0  0  0  0  0  0  0  0  0  0  0
  1  6  1  0  0  0  0
  2  3  1  0  0  0  0
  3  9  1  0  0  0  0
  3  4  2  0  0  0  0
  4 12  1  0  0  0  0
  5  4  1  0  0  0  0
  6  5  2  0  0  0  0
  7  2  2  0  0  0  0
  7  6  1  0  0  0  0
  8  2  1  0  0  0  0
 11 10  1  0  0  0  0
 11 16  1  0  0  0  0
 12 11  2  0  0  0  0
 13 12  1  0  0  0  0
 13 14  2  0  0  0  0
 14 15  1  0  0  0  0
 15 19  1  0  0  0  0
 15 16  2  0  0  0  0
 16 20  1  0  0  0  0
 17 13  1  0  0  0  0
 18 14  1  0  0  0  0
 21 23  1  0  0  0  0
 21  1  1  0  0  0  0
 21 24  1  0  0  0  0
 22 21  1  0  0  0  0
 24 27  1  0  0  0  0
 25 24  1  0  0  0  0
 26 24  1  0  0  0  0
 27 32  2  0  0  0  0
 27 28  1  0  0  0  0
 28 29  2  0  0  0  0
 29 30  1  0  0  0  0
 29 34  1  0  0  0  0
 31 35  1  0  0  0  0
 31 30  2  0  0  0  0
 32 31  1  0  0  0  0
 33 28  1  0  0  0  0
 35 36  1  0  0  0  0
 35 38  1  0  0  0  0
 37 35  1  0  0  0  0
 38 39  1  0  0  0  0
M  END
>  <minimizedAffinity>
-5.4701376

$$$$

 OpenBabel03272509593D

 39 41  0  0  0  0  0  0  0  0999 V2000
   36.9610   27.0020   33.7560 O   0  0  0  0  0  0  0  0  0  0  0  0
   35.7210   29.7010   31.6900 C   0  0  0  0  0  0  0  0  0  0  0  0
   35.1480   30.5240   32.6750 C   0  0  0  0  0  0  0  0  0  0  0  0
   35.2210   30.1040   33.9960 C   0  0  0  0  0  0  0  0  0  0  0  0
   35.8550   28.9060   34.2120 N   0  0  0  0  0  0  0  0  0  0  0  0
   36.3920   28.1390   33.2740 C   0  0  0  0  0  0  0  0  0  0  0  0
   36.3210   28.5500   31.9790 N   0  0  0  0  0  0  0  0  0  0  0  0
   35.6420   30.0670   30.6660 H   0  0  0  0  0  0  0  0  0  0  0  0
   34.6520   31.4640   32.4860 H   0  0  0  0  0  0  0  0  0  0  0  0
   36.6490   31.7420   35.9070 F   0  0  0  0  0  0  0  0  0  0  0  0
   35.3370   31.5810   36.0320 C   0  0  0  0  0  0  0  0  0  0  0  0
   34.6910   30.8140   35.1300 C   0  0  0  0  0  0  0  0  0  0  0  0
   33.3220   30.7190   35.3620 C   0  0  0  0  0  0  0  0  0  0  0  0
   32.6920   31.3410   36.4000 C   0  0  0  0  0  0  0  0  0  0  0  0
   33.3960   32.1130   37.2930 C   0  0  0  0  0  0  0  0  0  0  0  0
   34.7320   32.2260   37.0950 C   0  0  0  0  0  0  0  0  0  0  0  0
   32.6560   30.1290   34.7140 H   0  0  0  0  0  0  0  0  0  0  0  0
   31.6140   31.2510   36.5630 H   0  0  0  0  0  0  0  0  0  0  0  0
   32.8770   32.5970   38.1090 H   0  0  0  0  0  0  0  0  0  0  0  0
   35.3160   32.8320   37.7880 H   0  0  0  0  0  0  0  0  0  0  0  0
   37.5360   27.0290   35.0500 C   0  0  0  0  0  0  0  0  0  0  0  0
   38.4520   27.6840   34.9610 H   0  0  0  0  0  0  0  0  0  0  0  0
   36.8580   27.5130   35.7810 H   0  0  0  0  0  0  0  0  0  0  0  0
   37.8720   25.6470   35.5160 C   0  0  0  0  0  0  0  0  0  0  0  0
   37.2570   24.9310   34.9700 H   0  0  0  0  0  0  0  0  0  0  0  0
   37.5760   25.5190   36.5980 H   0  0  0  0  0  0  0  0  0  0  0  0
   39.3090   25.3160   35.3420 C   0  0  0  0  0  0  0  0  0  0  0  0
   40.1580   26.3110   34.8810 C   0  0  0  0  0  0  0  0  0  0  0  0
   41.4930   26.0870   34.6930 C   0  0  0  0  0  0  0  0  0  0  0  0
   42.0000   24.8820   34.9580 N   0  0  0  0  0  0  0  0  0  0  0  0
   41.1610   23.9050   35.4110 C   0  0  0  0  0  0  0  0  0  0  0  0
   39.8470   24.1010   35.6030 N   0  0  0  0  0  0  0  0  0  0  0  0
   39.8260   27.3150   34.6430 H   0  0  0  0  0  0  0  0  0  0  0  0
   42.1960   26.8230   34.3380 H   0  0  0  0  0  0  0  0  0  0  0  0
   41.7610   22.5680   35.6980 C   0  0  0  0  0  0  0  0  0  0  0  0
   41.4360   21.8400   34.9050 H   0  0  0  0  0  0  0  0  0  0  0  0
   42.8470   22.5720   35.7860 H   0  0  0  0  0  0  0  0  0  0  0  0
   41.0110   21.9210   37.2400 S   0  0  0  0  0  0  0  0  0  0  0  0
   39.6450   21.6540   37.0420 H   0  0  0  0  0  0  0  0  0  0  0  0
  1 21  1  0  0  0  0
  2  7  2  0  0  0  0
  2  3  1  0  0  0  0
  3  4  2  0  0  0  0
  4  5  1  0  0  0  0
  4 12  1  0  0  0  0
  6  1  1  0  0  0  0
  6  5  2  0  0  0  0
  7  6  1  0  0  0  0
  8  2  1  0  0  0  0
  9  3  1  0  0  0  0
 10 11  1  0  0  0  0
 11 16  1  0  0  0  0
 12 13  1  0  0  0  0
 12 11  2  0  0  0  0
 13 14  2  0  0  0  0
 14 18  1  0  0  0  0
 14 15  1  0  0  0  0
 15 19  1  0  0  0  0
 16 15  2  0  0  0  0
 16 20  1  0  0  0  0
 17 13  1  0  0  0  0
 21 24  1  0  0  0  0
 21 23  1  0  0  0  0
 22 21  1  0  0  0  0
 24 26  1  0  0  0  0
 25 24  1  0  0  0  0
 27 24  1  0  0  0  0
 27 32  1  0  0  0  0
 28 27  2  0  0  0  0
 29 28  1  0  0  0  0
 29 30  2  0  0  0  0
 30 31  1  0  0  0  0
 31 32  2  0  0  0  0
 31 35  1  0  0  0  0
 33 28  1  0  0  0  0
 34 29  1  0  0  0  0
 35 37  1  0  0  0  0
 35 38  1  0  0  0  0
 36 35  1  0  0  0  0
 39 38  1  0  0  0  0
M  END
>  <minimizedAffinity>
-5.44974184

$$$$

 OpenBabel03272509593D

 39 41  0  0  0  0  0  0  0  0999 V2000
   37.0290   27.0420   33.6230 O   0  0  0  0  0  0  0  0  0  0  0  0
   35.6650   29.7120   31.5990 C   0  0  0  0  0  0  0  0  0  0  0  0
   35.0110   30.4660   32.5900 C   0  0  0  0  0  0  0  0  0  0  0  0
   35.0760   30.0110   33.8990 C   0  0  0  0  0  0  0  0  0  0  0  0
   35.7840   28.8530   34.1000 N   0  0  0  0  0  0  0  0  0  0  0  0
   36.3970   28.1530   33.1570 C   0  0  0  0  0  0  0  0  0  0  0  0
   36.3340   28.5970   31.8730 N   0  0  0  0  0  0  0  0  0  0  0  0
   35.5900   30.1040   30.5830 H   0  0  0  0  0  0  0  0  0  0  0  0
   34.4580   31.3750   32.4120 H   0  0  0  0  0  0  0  0  0  0  0  0
   32.3380   29.8100   34.8160 F   0  0  0  0  0  0  0  0  0  0  0  0
   33.1990   30.5710   35.4810 C   0  0  0  0  0  0  0  0  0  0  0  0
   34.4690   30.6500   35.0370 C   0  0  0  0  0  0  0  0  0  0  0  0
   35.2780   31.4750   35.8140 C   0  0  0  0  0  0  0  0  0  0  0  0
   34.8300   32.1400   36.9170 C   0  0  0  0  0  0  0  0  0  0  0  0
   33.5240   32.0260   37.3300 C   0  0  0  0  0  0  0  0  0  0  0  0
   32.7110   31.2290   36.5950 C   0  0  0  0  0  0  0  0  0  0  0  0
   36.3400   31.6440   35.5810 H   0  0  0  0  0  0  0  0  0  0  0  0
   35.4850   32.7850   37.5130 H   0  0  0  0  0  0  0  0  0  0  0  0
   33.1900   32.5620   38.2080 H   0  0  0  0  0  0  0  0  0  0  0  0
   31.6690   31.1200   36.8980 H   0  0  0  0  0  0  0  0  0  0  0  0
   37.2090   26.9020   35.0210 C   0  0  0  0  0  0  0  0  0  0  0  0
   36.4180   27.5540   35.4950 H   0  0  0  0  0  0  0  0  0  0  0  0
   37.0150   25.8620   35.3490 H   0  0  0  0  0  0  0  0  0  0  0  0
   38.5920   27.3060   35.4270 C   0  0  0  0  0  0  0  0  0  0  0  0
   38.5810   27.5870   36.4810 H   0  0  0  0  0  0  0  0  0  0  0  0
   38.9000   28.2430   34.8780 H   0  0  0  0  0  0  0  0  0  0  0  0
   39.5940   26.2340   35.2000 C   0  0  0  0  0  0  0  0  0  0  0  0
   40.8290   26.5930   34.6810 C   0  0  0  0  0  0  0  0  0  0  0  0
   41.8050   25.6670   34.4420 C   0  0  0  0  0  0  0  0  0  0  0  0
   41.5710   24.3820   34.7130 N   0  0  0  0  0  0  0  0  0  0  0  0
   40.3540   24.0330   35.2240 C   0  0  0  0  0  0  0  0  0  0  0  0
   39.3800   24.9240   35.4660 N   0  0  0  0  0  0  0  0  0  0  0  0
   41.0980   27.6140   34.4340 H   0  0  0  0  0  0  0  0  0  0  0  0
   42.7800   25.8910   34.0410 H   0  0  0  0  0  0  0  0  0  0  0  0
   40.1260   22.5860   35.5160 C   0  0  0  0  0  0  0  0  0  0  0  0
   40.4960   21.9720   34.6500 H   0  0  0  0  0  0  0  0  0  0  0  0
   40.5750   22.2380   36.4450 H   0  0  0  0  0  0  0  0  0  0  0  0
   38.3180   22.2840   35.5430 S   0  0  0  0  0  0  0  0  0  0  0  0
   37.7740   22.4710   34.2600 H   0  0  0  0  0  0  0  0  0  0  0  0
  1 21  1  0  0  0  0
  2  7  2  0  0  0  0
  2  3  1  0  0  0  0
  3  4  2  0  0  0  0
  4  5  1  0  0  0  0
  4 12  1  0  0  0  0
  6  1  1  0  0  0  0
  6  5  2  0  0  0  0
  7  6  1  0  0  0  0
  8  2  1  0  0  0  0
  9  3  1  0  0  0  0
 10 11  1  0  0  0  0
 11 16  1  0  0  0  0
 12 11  2  0  0  0  0
 12 13  1  0  0  0  0
 13 14  2  0  0  0  0
 14 15  1  0  0  0  0
 14 18  1  0  0  0  0
 15 19  1  0  0  0  0
 16 20  1  0  0  0  0
 16 15  2  0  0  0  0
 17 13  1  0  0  0  0
 21 23  1  0  0  0  0
 21 24  1  0  0  0  0
 21 22  1  0  0  0  0
 24 25  1  0  0  0  0
 26 24  1  0  0  0  0
 27 24  1  0  0  0  0
 27 32  1  0  0  0  0
 28 27  2  0  0  0  0
 29 28  1  0  0  0  0
 29 30  2  0  0  0  0
 30 31  1  0  0  0  0
 31 32  2  0  0  0  0
 31 35  1  0  0  0  0
 33 28  1  0  0  0  0
 34 29  1  0  0  0  0
 35 38  1  0  0  0  0
 35 37  1  0  0  0  0
 36 35  1  0  0  0  0
 39 38  1  0  0  0  0
M  END
>  <minimizedAffinity>
-5.42846441

$$$$

 OpenBabel03272509593D

 39 41  0  0  0  0  0  0  0  0999 V2000
   35.9510   27.6340   31.9690 O   0  0  0  0  0  0  0  0  0  0  0  0
   36.4290   31.1740   31.3960 C   0  0  0  0  0  0  0  0  0  0  0  0
   35.8940   31.6930   32.5880 C   0  0  0  0  0  0  0  0  0  0  0  0
   35.3980   30.7950   33.5210 C   0  0  0  0  0  0  0  0  0  0  0  0
   35.4800   29.4670   33.1830 N   0  0  0  0  0  0  0  0  0  0  0  0
   35.9890   28.9910   32.0560 C   0  0  0  0  0  0  0  0  0  0  0  0
   36.4760   29.8700   31.1400 N   0  0  0  0  0  0  0  0  0  0  0  0
   36.8090   31.9130   30.6890 H   0  0  0  0  0  0  0  0  0  0  0  0
   35.8370   32.7410   32.8360 H   0  0  0  0  0  0  0  0  0  0  0  0
   36.6850   32.0210   35.8060 F   0  0  0  0  0  0  0  0  0  0  0  0
   35.3940   31.7140   35.8660 C   0  0  0  0  0  0  0  0  0  0  0  0
   34.8150   31.1440   34.7910 C   0  0  0  0  0  0  0  0  0  0  0  0
   33.4610   30.8690   34.9690 C   0  0  0  0  0  0  0  0  0  0  0  0
   32.7860   31.1480   36.1210 C   0  0  0  0  0  0  0  0  0  0  0  0
   33.4230   31.7310   37.1910 C   0  0  0  0  0  0  0  0  0  0  0  0
   34.7410   32.0120   37.0480 C   0  0  0  0  0  0  0  0  0  0  0  0
   32.8480   30.4040   34.1830 H   0  0  0  0  0  0  0  0  0  0  0  0
   31.7220   30.9230   36.2400 H   0  0  0  0  0  0  0  0  0  0  0  0
   32.8690   31.9440   38.0950 H   0  0  0  0  0  0  0  0  0  0  0  0
   35.2730   32.4730   37.8800 H   0  0  0  0  0  0  0  0  0  0  0  0
   37.1750   26.9260   31.8950 C   0  0  0  0  0  0  0  0  0  0  0  0
   37.3440   26.7250   30.7960 H   0  0  0  0  0  0  0  0  0  0  0  0
   38.0210   27.5500   32.2460 H   0  0  0  0  0  0  0  0  0  0  0  0
   37.1150   25.6650   32.6970 C   0  0  0  0  0  0  0  0  0  0  0  0
   37.7080   24.8990   32.1950 H   0  0  0  0  0  0  0  0  0  0  0  0
   36.0620   25.2580   32.7050 H   0  0  0  0  0  0  0  0  0  0  0  0
   37.5980   25.8460   34.0900 C   0  0  0  0  0  0  0  0  0  0  0  0
   37.9150   27.1290   34.5090 C   0  0  0  0  0  0  0  0  0  0  0  0
   38.3670   27.3810   35.7740 C   0  0  0  0  0  0  0  0  0  0  0  0
   38.5090   26.3710   36.6340 N   0  0  0  0  0  0  0  0  0  0  0  0
   38.1950   25.1100   36.2170 C   0  0  0  0  0  0  0  0  0  0  0  0
   37.7510   24.8380   34.9800 N   0  0  0  0  0  0  0  0  0  0  0  0
   37.8290   28.0040   33.8730 H   0  0  0  0  0  0  0  0  0  0  0  0
   38.6280   28.3570   36.1510 H   0  0  0  0  0  0  0  0  0  0  0  0
   38.3650   24.0020   37.2050 C   0  0  0  0  0  0  0  0  0  0  0  0
   39.0670   24.3370   38.0170 H   0  0  0  0  0  0  0  0  0  0  0  0
   37.4330   23.6380   37.6360 H   0  0  0  0  0  0  0  0  0  0  0  0
   39.2530   22.6280   36.3790 S   0  0  0  0  0  0  0  0  0  0  0  0
   40.5670   23.0170   36.0630 H   0  0  0  0  0  0  0  0  0  0  0  0
  1  6  1  0  0  0  0
  2  3  1  0  0  0  0
  3  9  1  0  0  0  0
  3  4  2  0  0  0  0
  4 12  1  0  0  0  0
  5  4  1  0  0  0  0
  6  5  2  0  0  0  0
  7  2  2  0  0  0  0
  7  6  1  0  0  0  0
  8  2  1  0  0  0  0
 10 11  1  0  0  0  0
 11 16  1  0  0  0  0
 12 13  1  0  0  0  0
 12 11  2  0  0  0  0
 13 14  2  0  0  0  0
 14 18  1  0  0  0  0
 14 15  1  0  0  0  0
 15 19  1  0  0  0  0
 16 15  2  0  0  0  0
 16 20  1  0  0  0  0
 17 13  1  0  0  0  0
 21  1  1  0  0  0  0
 21 23  1  0  0  0  0
 21 24  1  0  0  0  0
 22 21  1  0  0  0  0
 24 26  1  0  0  0  0
 24 27  1  0  0  0  0
 25 24  1  0  0  0  0
 27 28  2  0  0  0  0
 27 32  1  0  0  0  0
 28 29  1  0  0  0  0
 29 34  1  0  0  0  0
 29 30  2  0  0  0  0
 31 30  1  0  0  0  0
 31 35  1  0  0  0  0
 32 31  2  0  0  0  0
 33 28  1  0  0  0  0
 35 37  1  0  0  0  0
 35 36  1  0  0  0  0
 38 35  1  0  0  0  0
 39 38  1  0  0  0  0
M  END
>  <minimizedAffinity>
-5.28945303

$$$$

 OpenBabel03272509593D

 39 41  0  0  0  0  0  0  0  0999 V2000
   36.4840   25.8610   32.3950 O   0  0  0  0  0  0  0  0  0  0  0  0
   37.5270   27.9810   35.1350 C   0  0  0  0  0  0  0  0  0  0  0  0
   38.2270   27.0470   35.9190 C   0  0  0  0  0  0  0  0  0  0  0  0
   38.2990   25.7400   35.4610 C   0  0  0  0  0  0  0  0  0  0  0  0
   37.6710   25.4840   34.2680 N   0  0  0  0  0  0  0  0  0  0  0  0
   37.0150   26.3740   33.5370 C   0  0  0  0  0  0  0  0  0  0  0  0
   36.9430   27.6560   33.9850 N   0  0  0  0  0  0  0  0  0  0  0  0
   37.4940   28.9970   35.5300 H   0  0  0  0  0  0  0  0  0  0  0  0
   38.7140   27.2670   36.8560 H   0  0  0  0  0  0  0  0  0  0  0  0
   40.6410   24.2770   34.5940 F   0  0  0  0  0  0  0  0  0  0  0  0
   40.0590   23.9600   35.7440 C   0  0  0  0  0  0  0  0  0  0  0  0
   38.9700   24.6550   36.1300 C   0  0  0  0  0  0  0  0  0  0  0  0
   38.4460   24.2360   37.3500 C   0  0  0  0  0  0  0  0  0  0  0  0
   38.9830   23.2210   38.0860 C   0  0  0  0  0  0  0  0  0  0  0  0
   40.0960   22.5430   37.6500 C   0  0  0  0  0  0  0  0  0  0  0  0
   40.6300   22.9270   36.4650 C   0  0  0  0  0  0  0  0  0  0  0  0
   37.5570   24.7030   37.8000 H   0  0  0  0  0  0  0  0  0  0  0  0
   38.5550   22.9070   39.0430 H   0  0  0  0  0  0  0  0  0  0  0  0
   40.5050   21.7410   38.2490 H   0  0  0  0  0  0  0  0  0  0  0  0
   41.5130   22.4070   36.0930 H   0  0  0  0  0  0  0  0  0  0  0  0
   36.9360   24.5950   31.9480 C   0  0  0  0  0  0  0  0  0  0  0  0
   37.5890   24.8060   31.0520 H   0  0  0  0  0  0  0  0  0  0  0  0
   37.5740   24.1050   32.7100 H   0  0  0  0  0  0  0  0  0  0  0  0
   35.7830   23.7030   31.6100 C   0  0  0  0  0  0  0  0  0  0  0  0
   35.3060   24.0730   30.7020 H   0  0  0  0  0  0  0  0  0  0  0  0
   34.9870   23.7760   32.4080 H   0  0  0  0  0  0  0  0  0  0  0  0
   36.1880   22.2860   31.4280 C   0  0  0  0  0  0  0  0  0  0  0  0
   35.2290   21.3030   31.6220 C   0  0  0  0  0  0  0  0  0  0  0  0
   35.5190   19.9760   31.4750 C   0  0  0  0  0  0  0  0  0  0  0  0
   36.7560   19.6080   31.1360 N   0  0  0  0  0  0  0  0  0  0  0  0
   37.6970   20.5790   30.9460 C   0  0  0  0  0  0  0  0  0  0  0  0
   37.4350   21.8880   31.0860 N   0  0  0  0  0  0  0  0  0  0  0  0
   34.2020   21.5170   31.8990 H   0  0  0  0  0  0  0  0  0  0  0  0
   34.8140   19.1720   31.6130 H   0  0  0  0  0  0  0  0  0  0  0  0
   39.0710   20.1330   30.5670 C   0  0  0  0  0  0  0  0  0  0  0  0
   39.0770   19.0150   30.4510 H   0  0  0  0  0  0  0  0  0  0  0  0
   39.4660   20.6080   29.6700 H   0  0  0  0  0  0  0  0  0  0  0  0
   40.1880   20.4460   31.9860 S   0  0  0  0  0  0  0  0  0  0  0  0
   39.8410   19.6210   33.0700 H   0  0  0  0  0  0  0  0  0  0  0  0
  1  6  1  0  0  0  0
  2  8  1  0  0  0  0
  2  3  1  0  0  0  0
  3  9  1  0  0  0  0
  4  3  2  0  0  0  0
  4 12  1  0  0  0  0
  5  4  1  0  0  0  0
  6  7  1  0  0  0  0
  6  5  2  0  0  0  0
  7  2  2  0  0  0  0
 10 11  1  0  0  0  0
 11 12  2  0  0  0  0
 11 16  1  0  0  0  0
 12 13  1  0  0  0  0
 13 17  1  0  0  0  0
 13 14  2  0  0  0  0
 14 18  1  0  0  0  0
 15 14  1  0  0  0  0
 15 19  1  0  0  0  0
 16 15  2  0  0  0  0
 20 16  1  0  0  0  0
 21  1  1  0  0  0  0
 21 23  1  0  0  0  0
 22 21  1  0  0  0  0
 24 21  1  0  0  0  0
 24 26  1  0  0  0  0
 25 24  1  0  0  0  0
 27 24  1  0  0  0  0
 27 28  1  0  0  0  0
 28 33  1  0  0  0  0
 29 34  1  0  0  0  0
 29 28  2  0  0  0  0
 30 29  1  0  0  0  0
 31 32  1  0  0  0  0
 31 30  2  0  0  0  0
 32 27  2  0  0  0  0
 35 31  1  0  0  0  0
 35 38  1  0  0  0  0
 36 35  1  0  0  0  0
 37 35  1  0  0  0  0
 38 39  1  0  0  0  0
M  END
>  <minimizedAffinity>
-5.19746828

$$$$
