
 OpenBabel03272504373D

 29 30  0  0  0  0  0  0  0  0999 V2000
   37.9280   23.9590   33.3160 Cl  0  0  0  0  0  0  0  0  0  0  0  0
   37.7890   25.5340   34.0810 C   0  0  0  0  0  0  0  0  0  0  0  0
   38.3550   25.7300   35.3110 C   0  0  0  0  0  0  0  0  0  0  0  0
   38.2530   26.9450   35.9090 C   0  0  0  0  0  0  0  0  0  0  0  0
   37.5860   27.9580   35.2770 C   0  0  0  0  0  0  0  0  0  0  0  0
   37.0200   27.7490   34.0380 C   0  0  0  0  0  0  0  0  0  0  0  0
   37.1080   26.5170   33.4000 C   0  0  0  0  0  0  0  0  0  0  0  0
   38.6850   27.1380   36.8770 H   0  0  0  0  0  0  0  0  0  0  0  0
   37.5010   28.9310   35.7490 H   0  0  0  0  0  0  0  0  0  0  0  0
   36.4820   28.5400   33.5090 H   0  0  0  0  0  0  0  0  0  0  0  0
   40.8440   23.1440   36.1650 C   0  0  0  0  0  0  0  0  0  0  0  0
   40.2840   22.6050   37.3530 C   0  0  0  0  0  0  0  0  0  0  0  0
   39.0810   23.1470   37.8130 C   0  0  0  0  0  0  0  0  0  0  0  0
   38.5100   24.1540   37.1080 N   0  0  0  0  0  0  0  0  0  0  0  0
   39.0660   24.6460   35.9810 C   0  0  0  0  0  0  0  0  0  0  0  0
   40.2200   24.1380   35.5240 N   0  0  0  0  0  0  0  0  0  0  0  0
   41.7740   22.7580   35.7680 H   0  0  0  0  0  0  0  0  0  0  0  0
   40.8430   21.7950   37.8250 H   0  0  0  0  0  0  0  0  0  0  0  0
   38.5510   22.5930   38.9920 N   0  0  0  0  0  0  0  0  0  0  0  0
   37.9760   21.7200   38.9480 H   0  0  0  0  0  0  0  0  0  0  0  0
   38.7740   23.1110   39.8860 H   0  0  0  0  0  0  0  0  0  0  0  0
   36.5180   26.2280   32.0680 C   0  0  0  0  0  0  0  0  0  0  0  0
   35.8250   25.3760   32.2340 H   0  0  0  0  0  0  0  0  0  0  0  0
   37.3370   25.8750   31.3920 H   0  0  0  0  0  0  0  0  0  0  0  0
   35.7980   27.3300   31.4280 C   0  0  0  0  0  0  0  0  0  0  0  0
   34.9200   26.9660   30.8350 H   0  0  0  0  0  0  0  0  0  0  0  0
   35.4560   28.1100   32.1380 H   0  0  0  0  0  0  0  0  0  0  0  0
   36.8910   28.1620   30.2420 S   0  0  0  0  0  0  0  0  0  0  0  0
   38.1950   28.2960   30.7760 H   0  0  0  0  0  0  0  0  0  0  0  0
  1  2  1  0  0  0  0
  2  3  1  0  0  0  0
  3  4  2  0  0  0  0
  3 15  1  0  0  0  0
  4  8  1  0  0  0  0
  5  9  1  0  0  0  0
  5  4  1  0  0  0  0
  6  5  2  0  0  0  0
  7  6  1  0  0  0  0
  7  2  2  0  0  0  0
 10  6  1  0  0  0  0
 11 12  1  0  0  0  0
 12 13  2  0  0  0  0
 12 18  1  0  0  0  0
 13 19  1  0  0  0  0
 14 13  1  0  0  0  0
 15 14  2  0  0  0  0
 16 15  1  0  0  0  0
 16 11  2  0  0  0  0
 17 11  1  0  0  0  0
 19 21  1  0  0  0  0
 20 19  1  0  0  0  0
 22 23  1  0  0  0  0
 22  7  1  0  0  0  0
 24 22  1  0  0  0  0
 25 22  1  0  0  0  0
 25 27  1  0  0  0  0
 26 25  1  0  0  0  0
 28 29  1  0  0  0  0
 28 25  1  0  0  0  0
M  END
>  <minimizedAffinity>
-5.11966515

$$$$

 OpenBabel03272504373D

 29 30  0  0  0  0  0  0  0  0999 V2000
   38.4030   26.8200   36.2600 Cl  0  0  0  0  0  0  0  0  0  0  0  0
   37.9300   25.9970   34.7830 C   0  0  0  0  0  0  0  0  0  0  0  0
   38.3320   24.7050   34.5800 C   0  0  0  0  0  0  0  0  0  0  0  0
   37.9690   24.0610   33.4410 C   0  0  0  0  0  0  0  0  0  0  0  0
   37.2080   24.7100   32.5090 C   0  0  0  0  0  0  0  0  0  0  0  0
   36.8090   26.0120   32.7230 C   0  0  0  0  0  0  0  0  0  0  0  0
   37.1640   26.6970   33.8790 C   0  0  0  0  0  0  0  0  0  0  0  0
   38.2670   23.0440   33.2450 H   0  0  0  0  0  0  0  0  0  0  0  0
   36.9150   24.2020   31.5960 H   0  0  0  0  0  0  0  0  0  0  0  0
   36.1990   26.5550   31.9960 H   0  0  0  0  0  0  0  0  0  0  0  0
   41.1500   23.0830   36.3250 C   0  0  0  0  0  0  0  0  0  0  0  0
   40.5390   22.7140   37.5520 C   0  0  0  0  0  0  0  0  0  0  0  0
   39.1900   23.0340   37.7320 C   0  0  0  0  0  0  0  0  0  0  0  0
   38.5360   23.6770   36.7340 N   0  0  0  0  0  0  0  0  0  0  0  0
   39.1440   24.0160   35.5780 C   0  0  0  0  0  0  0  0  0  0  0  0
   40.4370   23.7160   35.3860 N   0  0  0  0  0  0  0  0  0  0  0  0
   42.1910   22.8570   36.1360 H   0  0  0  0  0  0  0  0  0  0  0  0
   41.1760   22.2000   38.2720 H   0  0  0  0  0  0  0  0  0  0  0  0
   38.6120   22.6570   38.9570 N   0  0  0  0  0  0  0  0  0  0  0  0
   38.2510   21.6830   39.0870 H   0  0  0  0  0  0  0  0  0  0  0  0
   38.5760   23.4060   39.7010 H   0  0  0  0  0  0  0  0  0  0  0  0
   36.7670   28.0990   34.1680 C   0  0  0  0  0  0  0  0  0  0  0  0
   37.7150   28.6780   34.1580 H   0  0  0  0  0  0  0  0  0  0  0  0
   36.3530   28.1390   35.2070 H   0  0  0  0  0  0  0  0  0  0  0  0
   35.8130   28.7040   33.2380 C   0  0  0  0  0  0  0  0  0  0  0  0
   36.3090   29.4270   32.5420 H   0  0  0  0  0  0  0  0  0  0  0  0
   35.2410   27.9640   32.6420 H   0  0  0  0  0  0  0  0  0  0  0  0
   34.5880   29.6680   34.1680 S   0  0  0  0  0  0  0  0  0  0  0  0
   34.1960   28.9770   35.3390 H   0  0  0  0  0  0  0  0  0  0  0  0
  2  1  1  0  0  0  0
  3  2  1  0  0  0  0
  3 15  1  0  0  0  0
  4  3  2  0  0  0  0
  5  6  2  0  0  0  0
  5  4  1  0  0  0  0
  6  7  1  0  0  0  0
  7 22  1  0  0  0  0
  7  2  2  0  0  0  0
  8  4  1  0  0  0  0
  9  5  1  0  0  0  0
 10  6  1  0  0  0  0
 11 12  1  0  0  0  0
 12 13  2  0  0  0  0
 12 18  1  0  0  0  0
 13 19  1  0  0  0  0
 14 13  1  0  0  0  0
 15 14  2  0  0  0  0
 16 15  1  0  0  0  0
 16 11  2  0  0  0  0
 17 11  1  0  0  0  0
 19 20  1  0  0  0  0
 19 21  1  0  0  0  0
 22 24  1  0  0  0  0
 23 22  1  0  0  0  0
 25 22  1  0  0  0  0
 25 28  1  0  0  0  0
 26 25  1  0  0  0  0
 27 25  1  0  0  0  0
 28 29  1  0  0  0  0
M  END
>  <minimizedAffinity>
-4.90252352

$$$$

 OpenBabel03272504373D

 29 30  0  0  0  0  0  0  0  0999 V2000
   37.5950   23.7790   33.7050 Cl  0  0  0  0  0  0  0  0  0  0  0  0
   38.7420   25.1080   33.7170 C   0  0  0  0  0  0  0  0  0  0  0  0
   39.3920   25.4190   34.8800 C   0  0  0  0  0  0  0  0  0  0  0  0
   40.2810   26.4440   34.8980 C   0  0  0  0  0  0  0  0  0  0  0  0
   40.5170   27.1560   33.7550 C   0  0  0  0  0  0  0  0  0  0  0  0
   39.8570   26.8350   32.5880 C   0  0  0  0  0  0  0  0  0  0  0  0
   38.9420   25.7910   32.5390 C   0  0  0  0  0  0  0  0  0  0  0  0
   40.8120   26.7190   35.7950 H   0  0  0  0  0  0  0  0  0  0  0  0
   41.2270   27.9770   33.7610 H   0  0  0  0  0  0  0  0  0  0  0  0
   40.0270   27.3860   31.6590 H   0  0  0  0  0  0  0  0  0  0  0  0
   37.9400   24.2280   38.0570 C   0  0  0  0  0  0  0  0  0  0  0  0
   38.7850   23.1260   38.3500 C   0  0  0  0  0  0  0  0  0  0  0  0
   39.8150   22.8350   37.4510 C   0  0  0  0  0  0  0  0  0  0  0  0
   39.9560   23.6130   36.3510 N   0  0  0  0  0  0  0  0  0  0  0  0
   39.1370   24.6550   36.0980 C   0  0  0  0  0  0  0  0  0  0  0  0
   38.1440   24.9510   36.9490 N   0  0  0  0  0  0  0  0  0  0  0  0
   37.1290   24.4950   38.7220 H   0  0  0  0  0  0  0  0  0  0  0  0
   38.5650   22.5810   39.2690 H   0  0  0  0  0  0  0  0  0  0  0  0
   40.6340   21.7370   37.7670 N   0  0  0  0  0  0  0  0  0  0  0  0
   41.4380   21.8570   38.4270 H   0  0  0  0  0  0  0  0  0  0  0  0
   40.3810   20.8230   37.3020 H   0  0  0  0  0  0  0  0  0  0  0  0
   38.1970   25.3970   31.3150 C   0  0  0  0  0  0  0  0  0  0  0  0
   37.8710   24.3500   31.4970 H   0  0  0  0  0  0  0  0  0  0  0  0
   38.9150   25.3870   30.4570 H   0  0  0  0  0  0  0  0  0  0  0  0
   37.0370   26.2200   30.9730 C   0  0  0  0  0  0  0  0  0  0  0  0
   36.8960   27.0640   31.6970 H   0  0  0  0  0  0  0  0  0  0  0  0
   37.0710   26.6310   29.9430 H   0  0  0  0  0  0  0  0  0  0  0  0
   35.5280   25.2170   31.0750 S   0  0  0  0  0  0  0  0  0  0  0  0
   35.7500   23.9290   30.5320 H   0  0  0  0  0  0  0  0  0  0  0  0
  1  2  1  0  0  0  0
  2  3  1  0  0  0  0
  3  4  2  0  0  0  0
  3 15  1  0  0  0  0
  4  8  1  0  0  0  0
  5  9  1  0  0  0  0
  5  4  1  0  0  0  0
  6  5  2  0  0  0  0
  7  6  1  0  0  0  0
  7  2  2  0  0  0  0
 10  6  1  0  0  0  0
 11 12  1  0  0  0  0
 11 17  1  0  0  0  0
 12 18  1  0  0  0  0
 13 19  1  0  0  0  0
 13 12  2  0  0  0  0
 14 13  1  0  0  0  0
 15 14  2  0  0  0  0
 15 16  1  0  0  0  0
 16 11  2  0  0  0  0
 19 20  1  0  0  0  0
 21 19  1  0  0  0  0
 22 23  1  0  0  0  0
 22  7  1  0  0  0  0
 24 22  1  0  0  0  0
 25 28  1  0  0  0  0
 25 22  1  0  0  0  0
 25 26  1  0  0  0  0
 27 25  1  0  0  0  0
 29 28  1  0  0  0  0
M  END
>  <minimizedAffinity>
-4.83834219

$$$$

 OpenBabel03272504373D

 29 30  0  0  0  0  0  0  0  0999 V2000
   39.4200   26.6880   35.0020 Cl  0  0  0  0  0  0  0  0  0  0  0  0
   38.7570   25.4860   33.9060 C   0  0  0  0  0  0  0  0  0  0  0  0
   38.3810   24.2670   34.4010 C   0  0  0  0  0  0  0  0  0  0  0  0
   37.8660   23.3340   33.5600 C   0  0  0  0  0  0  0  0  0  0  0  0
   37.7310   23.6200   32.2300 C   0  0  0  0  0  0  0  0  0  0  0  0
   38.1140   24.8510   31.7420 C   0  0  0  0  0  0  0  0  0  0  0  0
   38.6430   25.8270   32.5780 C   0  0  0  0  0  0  0  0  0  0  0  0
   37.5590   22.3620   33.9120 H   0  0  0  0  0  0  0  0  0  0  0  0
   37.3210   22.8780   31.5520 H   0  0  0  0  0  0  0  0  0  0  0  0
   38.0160   25.1080   30.6840 H   0  0  0  0  0  0  0  0  0  0  0  0
   37.9360   24.2420   38.0640 C   0  0  0  0  0  0  0  0  0  0  0  0
   38.9220   23.2980   38.4540 C   0  0  0  0  0  0  0  0  0  0  0  0
   39.6970   22.7110   37.4500 C   0  0  0  0  0  0  0  0  0  0  0  0
   39.4720   23.0670   36.1630 N   0  0  0  0  0  0  0  0  0  0  0  0
   38.5270   23.9670   35.8210 C   0  0  0  0  0  0  0  0  0  0  0  0
   37.7740   24.5430   36.7690 N   0  0  0  0  0  0  0  0  0  0  0  0
   37.3110   24.7260   38.8020 H   0  0  0  0  0  0  0  0  0  0  0  0
   39.0030   23.1010   39.5240 H   0  0  0  0  0  0  0  0  0  0  0  0
   40.6650   21.7800   37.8680 N   0  0  0  0  0  0  0  0  0  0  0  0
   41.6010   22.1110   38.1990 H   0  0  0  0  0  0  0  0  0  0  0  0
   40.3790   20.7640   37.8200 H   0  0  0  0  0  0  0  0  0  0  0  0
   39.0750   27.1710   32.1150 C   0  0  0  0  0  0  0  0  0  0  0  0
   39.9950   26.9920   31.5190 H   0  0  0  0  0  0  0  0  0  0  0  0
   39.3610   27.7750   33.0120 H   0  0  0  0  0  0  0  0  0  0  0  0
   38.1070   27.9180   31.3100 C   0  0  0  0  0  0  0  0  0  0  0  0
   38.5220   28.8990   30.9620 H   0  0  0  0  0  0  0  0  0  0  0  0
   37.7270   27.3550   30.4330 H   0  0  0  0  0  0  0  0  0  0  0  0
   36.6580   28.3230   32.3260 S   0  0  0  0  0  0  0  0  0  0  0  0
   36.3010   27.2240   33.1430 H   0  0  0  0  0  0  0  0  0  0  0  0
  2  3  1  0  0  0  0
  2  1  1  0  0  0  0
  3 15  1  0  0  0  0
  4  8  1  0  0  0  0
  4  3  2  0  0  0  0
  5  4  1  0  0  0  0
  6  5  2  0  0  0  0
  6  7  1  0  0  0  0
  7  2  2  0  0  0  0
  9  5  1  0  0  0  0
 10  6  1  0  0  0  0
 11 12  1  0  0  0  0
 11 17  1  0  0  0  0
 12 18  1  0  0  0  0
 13 19  1  0  0  0  0
 13 12  2  0  0  0  0
 14 13  1  0  0  0  0
 15 14  2  0  0  0  0
 15 16  1  0  0  0  0
 16 11  2  0  0  0  0
 19 20  1  0  0  0  0
 21 19  1  0  0  0  0
 22  7  1  0  0  0  0
 22 24  1  0  0  0  0
 23 22  1  0  0  0  0
 25 22  1  0  0  0  0
 25 28  1  0  0  0  0
 26 25  1  0  0  0  0
 27 25  1  0  0  0  0
 28 29  1  0  0  0  0
M  END
>  <minimizedAffinity>
-4.79902887

$$$$

 OpenBabel03272504373D

 29 30  0  0  0  0  0  0  0  0999 V2000
   34.8270   29.8900   34.5620 Cl  0  0  0  0  0  0  0  0  0  0  0  0
   34.1890   31.0490   35.7170 C   0  0  0  0  0  0  0  0  0  0  0  0
   32.9060   30.9030   36.1690 C   0  0  0  0  0  0  0  0  0  0  0  0
   32.4060   31.7950   37.0630 C   0  0  0  0  0  0  0  0  0  0  0  0
   33.1870   32.8280   37.5000 C   0  0  0  0  0  0  0  0  0  0  0  0
   34.4780   32.9660   37.0370 C   0  0  0  0  0  0  0  0  0  0  0  0
   35.0190   32.0690   36.1230 C   0  0  0  0  0  0  0  0  0  0  0  0
   31.4000   31.7130   37.4420 H   0  0  0  0  0  0  0  0  0  0  0  0
   32.7940   33.5440   38.2130 H   0  0  0  0  0  0  0  0  0  0  0  0
   35.1260   33.7810   37.3690 H   0  0  0  0  0  0  0  0  0  0  0  0
   30.6640   28.7930   34.1360 C   0  0  0  0  0  0  0  0  0  0  0  0
   30.5510   27.6400   34.9570 C   0  0  0  0  0  0  0  0  0  0  0  0
   31.2440   27.6320   36.1700 C   0  0  0  0  0  0  0  0  0  0  0  0
   31.9860   28.7160   36.5020 N   0  0  0  0  0  0  0  0  0  0  0  0
   32.0760   29.7980   35.7010 C   0  0  0  0  0  0  0  0  0  0  0  0
   31.4170   29.8260   34.5330 N   0  0  0  0  0  0  0  0  0  0  0  0
   30.1460   28.8490   33.1880 H   0  0  0  0  0  0  0  0  0  0  0  0
   29.9210   26.8360   34.5740 H   0  0  0  0  0  0  0  0  0  0  0  0
   31.1140   26.4770   36.9620 N   0  0  0  0  0  0  0  0  0  0  0  0
   30.2880   26.3690   37.5960 H   0  0  0  0  0  0  0  0  0  0  0  0
   31.8840   25.7610   36.8650 H   0  0  0  0  0  0  0  0  0  0  0  0
   36.4000   32.1630   35.5850 C   0  0  0  0  0  0  0  0  0  0  0  0
   36.3770   31.6080   34.6240 H   0  0  0  0  0  0  0  0  0  0  0  0
   37.0840   31.6160   36.2800 H   0  0  0  0  0  0  0  0  0  0  0  0
   36.9140   33.5150   35.3600 C   0  0  0  0  0  0  0  0  0  0  0  0
   36.2010   34.2990   35.7250 H   0  0  0  0  0  0  0  0  0  0  0  0
   37.9100   33.6950   35.8120 H   0  0  0  0  0  0  0  0  0  0  0  0
   37.1010   33.8040   33.5780 S   0  0  0  0  0  0  0  0  0  0  0  0
   37.6340   32.6580   32.9410 H   0  0  0  0  0  0  0  0  0  0  0  0
  1  2  1  0  0  0  0
  2  7  2  0  0  0  0
  2  3  1  0  0  0  0
  3  4  2  0  0  0  0
  4  8  1  0  0  0  0
  4  5  1  0  0  0  0
  5  9  1  0  0  0  0
  6 10  1  0  0  0  0
  6  5  2  0  0  0  0
  7  6  1  0  0  0  0
 11 16  2  0  0  0  0
 11 12  1  0  0  0  0
 12 13  2  0  0  0  0
 13 14  1  0  0  0  0
 13 19  1  0  0  0  0
 15  3  1  0  0  0  0
 15 14  2  0  0  0  0
 16 15  1  0  0  0  0
 17 11  1  0  0  0  0
 18 12  1  0  0  0  0
 19 20  1  0  0  0  0
 21 19  1  0  0  0  0
 22  7  1  0  0  0  0
 22 24  1  0  0  0  0
 23 22  1  0  0  0  0
 25 22  1  0  0  0  0
 25 26  1  0  0  0  0
 25 27  1  0  0  0  0
 28 25  1  0  0  0  0
 29 28  1  0  0  0  0
M  END
>  <minimizedAffinity>
-4.7908721

$$$$

 OpenBabel03272504373D

 29 30  0  0  0  0  0  0  0  0999 V2000
   38.3630   22.4110   33.3730 Cl  0  0  0  0  0  0  0  0  0  0  0  0
   38.1170   24.1410   33.5400 C   0  0  0  0  0  0  0  0  0  0  0  0
   38.6250   24.7850   34.6360 C   0  0  0  0  0  0  0  0  0  0  0  0
   38.4390   26.1230   34.7720 C   0  0  0  0  0  0  0  0  0  0  0  0
   37.7480   26.8130   33.8160 C   0  0  0  0  0  0  0  0  0  0  0  0
   37.2400   26.1540   32.7170 C   0  0  0  0  0  0  0  0  0  0  0  0
   37.4140   24.7860   32.5480 C   0  0  0  0  0  0  0  0  0  0  0  0
   38.8240   26.6650   35.6210 H   0  0  0  0  0  0  0  0  0  0  0  0
   37.5960   27.8820   33.9180 H   0  0  0  0  0  0  0  0  0  0  0  0
   36.6840   26.6800   31.9350 H   0  0  0  0  0  0  0  0  0  0  0  0
   41.2920   23.0050   36.4630 C   0  0  0  0  0  0  0  0  0  0  0  0
   40.6160   22.6510   37.6600 C   0  0  0  0  0  0  0  0  0  0  0  0
   39.2790   23.0350   37.7930 C   0  0  0  0  0  0  0  0  0  0  0  0
   38.6950   23.7210   36.7810 N   0  0  0  0  0  0  0  0  0  0  0  0
   39.3630   24.0450   35.6540 C   0  0  0  0  0  0  0  0  0  0  0  0
   40.6460   23.6840   35.5070 N   0  0  0  0  0  0  0  0  0  0  0  0
   42.3270   22.7310   36.3100 H   0  0  0  0  0  0  0  0  0  0  0  0
   41.2000   22.0980   38.3970 H   0  0  0  0  0  0  0  0  0  0  0  0
   38.6370   22.6710   38.9900 N   0  0  0  0  0  0  0  0  0  0  0  0
   38.2240   21.7150   39.0930 H   0  0  0  0  0  0  0  0  0  0  0  0
   38.6080   23.4120   39.7430 H   0  0  0  0  0  0  0  0  0  0  0  0
   36.8910   24.0180   31.3890 C   0  0  0  0  0  0  0  0  0  0  0  0
   37.6040   23.1790   31.2490 H   0  0  0  0  0  0  0  0  0  0  0  0
   36.9490   24.6710   30.4820 H   0  0  0  0  0  0  0  0  0  0  0  0
   35.5320   23.4910   31.5240 C   0  0  0  0  0  0  0  0  0  0  0  0
   35.1350   23.6230   32.5640 H   0  0  0  0  0  0  0  0  0  0  0  0
   34.8100   23.9280   30.8040 H   0  0  0  0  0  0  0  0  0  0  0  0
   35.5410   21.7020   31.2170 S   0  0  0  0  0  0  0  0  0  0  0  0
   36.3880   21.3890   30.1270 H   0  0  0  0  0  0  0  0  0  0  0  0
  1  2  1  0  0  0  0
  2  3  1  0  0  0  0
  3  4  2  0  0  0  0
  3 15  1  0  0  0  0
  4  8  1  0  0  0  0
  5  9  1  0  0  0  0
  5  4  1  0  0  0  0
  6  5  2  0  0  0  0
  7  6  1  0  0  0  0
  7  2  2  0  0  0  0
 10  6  1  0  0  0  0
 11 12  1  0  0  0  0
 12 13  2  0  0  0  0
 12 18  1  0  0  0  0
 13 19  1  0  0  0  0
 14 13  1  0  0  0  0
 15 14  2  0  0  0  0
 16 15  1  0  0  0  0
 16 11  2  0  0  0  0
 17 11  1  0  0  0  0
 19 20  1  0  0  0  0
 19 21  1  0  0  0  0
 22 25  1  0  0  0  0
 22  7  1  0  0  0  0
 23 22  1  0  0  0  0
 24 22  1  0  0  0  0
 25 26  1  0  0  0  0
 27 25  1  0  0  0  0
 28 25  1  0  0  0  0
 29 28  1  0  0  0  0
M  END
>  <minimizedAffinity>
-4.5929904

$$$$

 OpenBabel03272504373D

 29 30  0  0  0  0  0  0  0  0999 V2000
   36.8290   21.5030   34.3790 Cl  0  0  0  0  0  0  0  0  0  0  0  0
   37.5710   22.8260   33.4950 C   0  0  0  0  0  0  0  0  0  0  0  0
   38.3290   23.7410   34.1740 C   0  0  0  0  0  0  0  0  0  0  0  0
   38.9060   24.7660   33.4970 C   0  0  0  0  0  0  0  0  0  0  0  0
   38.7240   24.8760   32.1460 C   0  0  0  0  0  0  0  0  0  0  0  0
   37.9580   23.9490   31.4730 C   0  0  0  0  0  0  0  0  0  0  0  0
   37.3540   22.8880   32.1370 C   0  0  0  0  0  0  0  0  0  0  0  0
   39.5100   25.5060   33.9970 H   0  0  0  0  0  0  0  0  0  0  0  0
   39.1830   25.6930   31.5990 H   0  0  0  0  0  0  0  0  0  0  0  0
   37.7960   24.0110   30.3930 H   0  0  0  0  0  0  0  0  0  0  0  0
   38.0040   24.1760   37.8230 C   0  0  0  0  0  0  0  0  0  0  0  0
   39.0030   23.2850   38.2970 C   0  0  0  0  0  0  0  0  0  0  0  0
   39.7440   22.5730   37.3500 C   0  0  0  0  0  0  0  0  0  0  0  0
   39.4770   22.7650   36.0360 N   0  0  0  0  0  0  0  0  0  0  0  0
   38.5210   23.6200   35.6150 C   0  0  0  0  0  0  0  0  0  0  0  0
   37.8000   24.3130   36.5080 N   0  0  0  0  0  0  0  0  0  0  0  0
   37.4040   24.7510   38.5150 H   0  0  0  0  0  0  0  0  0  0  0  0
   39.1180   23.2220   39.3800 H   0  0  0  0  0  0  0  0  0  0  0  0
   40.7250   21.6970   37.8490 N   0  0  0  0  0  0  0  0  0  0  0  0
   41.6720   22.0630   38.1060 H   0  0  0  0  0  0  0  0  0  0  0  0
   40.4370   20.6850   37.9390 H   0  0  0  0  0  0  0  0  0  0  0  0
   36.5170   21.8590   31.4690 C   0  0  0  0  0  0  0  0  0  0  0  0
   35.9250   22.4120   30.7090 H   0  0  0  0  0  0  0  0  0  0  0  0
   35.8020   21.4460   32.2240 H   0  0  0  0  0  0  0  0  0  0  0  0
   37.2370   20.7590   30.8260 C   0  0  0  0  0  0  0  0  0  0  0  0
   37.3990   20.9490   29.7340 H   0  0  0  0  0  0  0  0  0  0  0  0
   38.2120   20.5270   31.3010 H   0  0  0  0  0  0  0  0  0  0  0  0
   36.2450   19.2420   30.9270 S   0  0  0  0  0  0  0  0  0  0  0  0
   35.6370   19.1300   32.2010 H   0  0  0  0  0  0  0  0  0  0  0  0
  2  3  1  0  0  0  0
  2  1  1  0  0  0  0
  3 15  1  0  0  0  0
  4  8  1  0  0  0  0
  4  3  2  0  0  0  0
  5  4  1  0  0  0  0
  6  7  1  0  0  0  0
  6  5  2  0  0  0  0
  7  2  2  0  0  0  0
  9  5  1  0  0  0  0
 10  6  1  0  0  0  0
 11 12  1  0  0  0  0
 11 17  1  0  0  0  0
 12 18  1  0  0  0  0
 13 19  1  0  0  0  0
 13 12  2  0  0  0  0
 14 13  1  0  0  0  0
 15 14  2  0  0  0  0
 15 16  1  0  0  0  0
 16 11  2  0  0  0  0
 19 21  1  0  0  0  0
 19 20  1  0  0  0  0
 22  7  1  0  0  0  0
 22 24  1  0  0  0  0
 23 22  1  0  0  0  0
 25 28  1  0  0  0  0
 25 27  1  0  0  0  0
 25 22  1  0  0  0  0
 26 25  1  0  0  0  0
 28 29  1  0  0  0  0
M  END
>  <minimizedAffinity>
-4.5143609

$$$$

 OpenBabel03272504373D

 29 30  0  0  0  0  0  0  0  0999 V2000
   38.3780   22.3630   34.5150 Cl  0  0  0  0  0  0  0  0  0  0  0  0
   37.3960   23.0200   33.2160 C   0  0  0  0  0  0  0  0  0  0  0  0
   37.5900   24.3160   32.8220 C   0  0  0  0  0  0  0  0  0  0  0  0
   36.8350   24.8310   31.8180 C   0  0  0  0  0  0  0  0  0  0  0  0
   35.8890   24.0520   31.2130 C   0  0  0  0  0  0  0  0  0  0  0  0
   35.7010   22.7480   31.6180 C   0  0  0  0  0  0  0  0  0  0  0  0
   36.4580   22.1920   32.6420 C   0  0  0  0  0  0  0  0  0  0  0  0
   36.9590   25.8470   31.4800 H   0  0  0  0  0  0  0  0  0  0  0  0
   35.2820   24.4570   30.4100 H   0  0  0  0  0  0  0  0  0  0  0  0
   34.9520   22.1010   31.1520 H   0  0  0  0  0  0  0  0  0  0  0  0
   40.7920   25.9150   33.7190 C   0  0  0  0  0  0  0  0  0  0  0  0
   40.3890   26.7560   34.7900 C   0  0  0  0  0  0  0  0  0  0  0  0
   39.0420   26.7410   35.1600 C   0  0  0  0  0  0  0  0  0  0  0  0
   38.1910   25.9320   34.4850 N   0  0  0  0  0  0  0  0  0  0  0  0
   38.6020   25.1430   33.4700 C   0  0  0  0  0  0  0  0  0  0  0  0
   39.8910   25.1420   33.1010 N   0  0  0  0  0  0  0  0  0  0  0  0
   41.8240   25.8900   33.3940 H   0  0  0  0  0  0  0  0  0  0  0  0
   41.1730   27.3590   35.2500 H   0  0  0  0  0  0  0  0  0  0  0  0
   38.6730   27.5840   36.2230 N   0  0  0  0  0  0  0  0  0  0  0  0
   38.8010   27.2660   37.2120 H   0  0  0  0  0  0  0  0  0  0  0  0
   38.2740   28.5240   35.9500 H   0  0  0  0  0  0  0  0  0  0  0  0
   36.3030   20.7960   33.1260 C   0  0  0  0  0  0  0  0  0  0  0  0
   35.2750   20.7440   33.5430 H   0  0  0  0  0  0  0  0  0  0  0  0
   37.0220   20.6350   33.9680 H   0  0  0  0  0  0  0  0  0  0  0  0
   36.4810   19.7430   32.1250 C   0  0  0  0  0  0  0  0  0  0  0  0
   36.1570   20.0770   31.1060 H   0  0  0  0  0  0  0  0  0  0  0  0
   37.5180   19.3560   32.0650 H   0  0  0  0  0  0  0  0  0  0  0  0
   35.4290   18.3240   32.5420 S   0  0  0  0  0  0  0  0  0  0  0  0
   35.4540   18.0790   33.9360 H   0  0  0  0  0  0  0  0  0  0  0  0
  2  1  1  0  0  0  0
  3  2  1  0  0  0  0
  3 15  1  0  0  0  0
  4  3  2  0  0  0  0
  5  6  2  0  0  0  0
  5  4  1  0  0  0  0
  6  7  1  0  0  0  0
  7 22  1  0  0  0  0
  7  2  2  0  0  0  0
  8  4  1  0  0  0  0
  9  5  1  0  0  0  0
 10  6  1  0  0  0  0
 11 12  1  0  0  0  0
 12 13  2  0  0  0  0
 12 18  1  0  0  0  0
 13 19  1  0  0  0  0
 14 13  1  0  0  0  0
 15 14  2  0  0  0  0
 16 15  1  0  0  0  0
 16 11  2  0  0  0  0
 17 11  1  0  0  0  0
 19 20  1  0  0  0  0
 21 19  1  0  0  0  0
 22 23  1  0  0  0  0
 22 24  1  0  0  0  0
 25 28  1  0  0  0  0
 25 22  1  0  0  0  0
 26 25  1  0  0  0  0
 27 25  1  0  0  0  0
 28 29  1  0  0  0  0
M  END
>  <minimizedAffinity>
-4.49697971

$$$$

 OpenBabel03272504373D

 29 30  0  0  0  0  0  0  0  0999 V2000
   35.0510   31.1610   31.8340 Cl  0  0  0  0  0  0  0  0  0  0  0  0
   35.9350   29.7450   32.3790 C   0  0  0  0  0  0  0  0  0  0  0  0
   35.7280   29.2760   33.6480 C   0  0  0  0  0  0  0  0  0  0  0  0
   36.4070   28.1820   34.0770 C   0  0  0  0  0  0  0  0  0  0  0  0
   37.2900   27.5600   33.2380 C   0  0  0  0  0  0  0  0  0  0  0  0
   37.4910   28.0410   31.9620 C   0  0  0  0  0  0  0  0  0  0  0  0
   36.8110   29.1590   31.4940 C   0  0  0  0  0  0  0  0  0  0  0  0
   36.2710   27.7830   35.0690 H   0  0  0  0  0  0  0  0  0  0  0  0
   37.8360   26.6850   33.5740 H   0  0  0  0  0  0  0  0  0  0  0  0
   38.1900   27.5640   31.2700 H   0  0  0  0  0  0  0  0  0  0  0  0
   32.6240   30.3610   35.3230 C   0  0  0  0  0  0  0  0  0  0  0  0
   33.1340   31.2740   36.2830 C   0  0  0  0  0  0  0  0  0  0  0  0
   34.5160   31.4810   36.3180 C   0  0  0  0  0  0  0  0  0  0  0  0
   35.2970   30.8060   35.4410 N   0  0  0  0  0  0  0  0  0  0  0  0
   34.7840   29.9420   34.5390 C   0  0  0  0  0  0  0  0  0  0  0  0
   33.4600   29.7320   34.4890 N   0  0  0  0  0  0  0  0  0  0  0  0
   31.5620   30.1670   35.2550 H   0  0  0  0  0  0  0  0  0  0  0  0
   32.3990   31.7540   36.9300 H   0  0  0  0  0  0  0  0  0  0  0  0
   34.9910   32.3910   37.2790 N   0  0  0  0  0  0  0  0  0  0  0  0
   34.9860   33.4180   37.0760 H   0  0  0  0  0  0  0  0  0  0  0  0
   35.3380   31.9680   38.1830 H   0  0  0  0  0  0  0  0  0  0  0  0
   36.9840   29.7270   30.1330 C   0  0  0  0  0  0  0  0  0  0  0  0
   37.7920   30.4830   30.2330 H   0  0  0  0  0  0  0  0  0  0  0  0
   36.0440   30.2650   29.8560 H   0  0  0  0  0  0  0  0  0  0  0  0
   37.3310   28.7750   29.0760 C   0  0  0  0  0  0  0  0  0  0  0  0
   37.7250   27.8130   29.4940 H   0  0  0  0  0  0  0  0  0  0  0  0
   36.4930   28.5520   28.3850 H   0  0  0  0  0  0  0  0  0  0  0  0
   38.6680   29.4600   28.0570 S   0  0  0  0  0  0  0  0  0  0  0  0
   38.4540   30.8380   27.8170 H   0  0  0  0  0  0  0  0  0  0  0  0
  1  2  1  0  0  0  0
  2  3  1  0  0  0  0
  3  4  2  0  0  0  0
  3 15  1  0  0  0  0
  4  8  1  0  0  0  0
  5  9  1  0  0  0  0
  5  4  1  0  0  0  0
  6  5  2  0  0  0  0
  7  6  1  0  0  0  0
  7  2  2  0  0  0  0
 10  6  1  0  0  0  0
 11 12  1  0  0  0  0
 12 13  2  0  0  0  0
 12 18  1  0  0  0  0
 13 19  1  0  0  0  0
 14 13  1  0  0  0  0
 15 14  2  0  0  0  0
 16 15  1  0  0  0  0
 16 11  2  0  0  0  0
 17 11  1  0  0  0  0
 19 21  1  0  0  0  0
 20 19  1  0  0  0  0
 22 23  1  0  0  0  0
 22  7  1  0  0  0  0
 24 22  1  0  0  0  0
 25 26  1  0  0  0  0
 25 22  1  0  0  0  0
 27 25  1  0  0  0  0
 28 25  1  0  0  0  0
 29 28  1  0  0  0  0
M  END
>  <minimizedAffinity>
-4.46409082

$$$$
