
 OpenBabel03272508523D

 26 28  0  0  1  0  0  0  0  0999 V2000
   37.2580   26.0080   32.8800 C   0  0  2  0  0  0  0  0  0  0  0  0
   38.6450   25.8290   32.4730 C   0  0  0  0  0  0  0  0  0  0  0  0
   37.4730   25.4670   31.5430 C   0  0  1  0  0  0  0  0  0  0  0  0
   36.7010   25.2790   33.5610 H   0  0  0  0  0  0  0  0  0  0  0  0
   39.2040   24.9560   32.8210 H   0  0  0  0  0  0  0  0  0  0  0  0
   39.2280   26.7370   32.2300 H   0  0  0  0  0  0  0  0  0  0  0  0
   37.5540   26.0240   30.6060 H   0  0  0  0  0  0  0  0  0  0  0  0
   35.9730   29.1290   34.3970 C   0  0  0  0  0  0  0  0  0  0  0  0
   35.4750   29.8400   33.2710 C   0  0  0  0  0  0  0  0  0  0  0  0
   35.6010   29.2070   31.9890 C   0  0  0  0  0  0  0  0  0  0  0  0
   36.1770   27.9840   31.9060 N   0  0  0  0  0  0  0  0  0  0  0  0
   36.6320   27.3580   33.0260 C   0  0  0  0  0  0  0  0  0  0  0  0
   36.5440   27.9050   34.2780 N   0  0  0  0  0  0  0  0  0  0  0  0
   35.8330   29.6830   35.3150 H   0  0  0  0  0  0  0  0  0  0  0  0
   35.0260   30.7990   33.3480 H   0  0  0  0  0  0  0  0  0  0  0  0
   35.2470   29.6870   31.0960 H   0  0  0  0  0  0  0  0  0  0  0  0
   35.9280   23.5730   31.2020 C   0  0  0  0  0  0  0  0  0  0  0  0
   34.9820   24.3930   31.0960 O   0  0  0  0  0  0  0  0  0  0  0  0
   37.2850   24.0210   31.3770 N   0  0  0  0  0  0  0  0  0  0  0  0
   38.0670   23.3450   31.3810 H   0  0  0  0  0  0  0  0  0  0  0  0
   35.7310   22.1030   31.1570 C   0  0  0  0  0  3  0  0  0  0  0  0
   37.0330   21.3430   30.9510 C   0  0  0  0  0  2  0  0  0  0  0  0
   36.6360   19.9540   30.4930 C   0  0  0  0  0  2  0  0  0  0  0  0
   35.7620   19.2790   31.5060 C   0  0  0  0  0  2  0  0  0  0  0  0
   34.6790   20.1270   32.0800 C   0  0  0  0  0  2  0  0  0  0  0  0
   35.1430   21.5430   32.4410 C   0  0  0  0  0  2  0  0  0  0  0  0
  1 12  1  0  0  0  0
  1  4  1  1  0  0  0
  2  5  1  0  0  0  0
  2  1  1  0  0  0  0
  3  7  1  6  0  0  0
  3  2  1  0  0  0  0
  3  1  1  0  0  0  0
  6  2  1  0  0  0  0
  8 14  1  0  0  0  0
  9 15  1  0  0  0  0
  9  8  2  0  0  0  0
 10  9  1  0  0  0  0
 11 10  2  0  0  0  0
 11 12  1  0  0  0  0
 12 13  2  0  0  0  0
 13  8  1  0  0  0  0
 16 10  1  0  0  0  0
 17 19  1  0  0  0  0
 18 17  2  0  0  0  0
 19 20  1  0  0  0  0
 19  3  1  0  0  0  0
 21 17  1  0  0  0  0
 21 26  1  0  0  0  0
 22 21  1  0  0  0  0
 23 22  1  0  0  0  0
 23 24  1  0  0  0  0
 24 25  1  0  0  0  0
 25 26  1  0  0  0  0
M  END
>  <minimizedAffinity>
-4.69160557

$$$$

 OpenBabel03272508523D

 26 28  0  0  1  0  0  0  0  0999 V2000
   37.0930   26.4530   32.9050 C   0  0  2  0  0  0  0  0  0  0  0  0
   38.4060   26.1370   33.4530 C   0  0  0  0  0  0  0  0  0  0  0  0
   37.7860   25.3180   32.3060 C   0  0  1  0  0  0  0  0  0  0  0  0
   36.1110   26.1500   33.4040 H   0  0  0  0  0  0  0  0  0  0  0  0
   38.4810   25.5770   34.3900 H   0  0  0  0  0  0  0  0  0  0  0  0
   39.2420   26.8150   33.2020 H   0  0  0  0  0  0  0  0  0  0  0  0
   38.4510   25.3280   31.4380 H   0  0  0  0  0  0  0  0  0  0  0  0
   36.1540   29.8970   31.9330 C   0  0  0  0  0  0  0  0  0  0  0  0
   36.3860   29.9000   30.5310 C   0  0  0  0  0  0  0  0  0  0  0  0
   36.8730   28.6820   29.9460 C   0  0  0  0  0  0  0  0  0  0  0  0
   37.0870   27.6050   30.7390 N   0  0  0  0  0  0  0  0  0  0  0  0
   36.8430   27.6710   32.0750 C   0  0  0  0  0  0  0  0  0  0  0  0
   36.3780   28.7990   32.6970 N   0  0  0  0  0  0  0  0  0  0  0  0
   35.7880   30.8540   32.2800 H   0  0  0  0  0  0  0  0  0  0  0  0
   36.2150   30.7510   29.9200 H   0  0  0  0  0  0  0  0  0  0  0  0
   37.0700   28.6130   28.8930 H   0  0  0  0  0  0  0  0  0  0  0  0
   36.3940   23.3320   31.8490 C   0  0  0  0  0  0  0  0  0  0  0  0
   36.0570   23.8490   30.7550 O   0  0  0  0  0  0  0  0  0  0  0  0
   37.3420   23.9810   32.7170 N   0  0  0  0  0  0  0  0  0  0  0  0
   37.6780   23.5130   33.5750 H   0  0  0  0  0  0  0  0  0  0  0  0
   35.8570   22.0350   32.3290 C   0  0  0  0  0  3  0  0  0  0  0  0
   35.9270   20.9430   31.2720 C   0  0  0  0  0  2  0  0  0  0  0  0
   34.9750   19.8580   31.7310 C   0  0  0  0  0  2  0  0  0  0  0  0
   35.3580   19.3360   33.0830 C   0  0  0  0  0  2  0  0  0  0  0  0
   35.7190   20.3760   34.0880 C   0  0  0  0  0  2  0  0  0  0  0  0
   36.6170   21.4820   33.5230 C   0  0  0  0  0  2  0  0  0  0  0  0
  1  4  1  1  0  0  0
  1  2  1  0  0  0  0
  2  5  1  0  0  0  0
  3  7  1  6  0  0  0
  3 19  1  0  0  0  0
  3  1  1  0  0  0  0
  3  2  1  0  0  0  0
  6  2  1  0  0  0  0
  8 14  1  0  0  0  0
  8 13  1  0  0  0  0
  9  8  2  0  0  0  0
 10  9  1  0  0  0  0
 10 11  2  0  0  0  0
 11 12  1  0  0  0  0
 12 13  2  0  0  0  0
 12  1  1  0  0  0  0
 15  9  1  0  0  0  0
 16 10  1  0  0  0  0
 17 21  1  0  0  0  0
 17 19  1  0  0  0  0
 18 17  2  0  0  0  0
 19 20  1  0  0  0  0
 21 26  1  0  0  0  0
 22 23  1  0  0  0  0
 22 21  1  0  0  0  0
 23 24  1  0  0  0  0
 24 25  1  0  0  0  0
 26 25  1  0  0  0  0
M  END
>  <minimizedAffinity>
-4.63792229

$$$$

 OpenBabel03272508523D

 26 28  0  0  1  0  0  0  0  0999 V2000
   37.8860   26.3190   31.8430 C   0  0  2  0  0  0  0  0  0  0  0  0
   37.3760   25.0720   31.2890 C   0  0  0  0  0  0  0  0  0  0  0  0
   37.1060   25.4840   32.7480 C   0  0  1  0  0  0  0  0  0  0  0  0
   38.9630   26.4580   32.1980 H   0  0  0  0  0  0  0  0  0  0  0  0
   38.0390   24.2060   31.2030 H   0  0  0  0  0  0  0  0  0  0  0  0
   36.5340   25.1350   30.5760 H   0  0  0  0  0  0  0  0  0  0  0  0
   36.0280   25.5280   32.9290 H   0  0  0  0  0  0  0  0  0  0  0  0
   36.2120   29.6150   32.0020 C   0  0  0  0  0  0  0  0  0  0  0  0
   36.3640   30.1060   30.6770 C   0  0  0  0  0  0  0  0  0  0  0  0
   37.0570   29.2640   29.7430 C   0  0  0  0  0  0  0  0  0  0  0  0
   37.5280   28.0630   30.1550 N   0  0  0  0  0  0  0  0  0  0  0  0
   37.3480   27.6550   31.4400 C   0  0  0  0  0  0  0  0  0  0  0  0
   36.6970   28.4070   32.3810 N   0  0  0  0  0  0  0  0  0  0  0  0
   35.6790   30.3150   32.6300 H   0  0  0  0  0  0  0  0  0  0  0  0
   35.9900   31.0490   30.3660 H   0  0  0  0  0  0  0  0  0  0  0  0
   37.2070   29.5720   28.7250 H   0  0  0  0  0  0  0  0  0  0  0  0
   37.9530   25.2440   35.0530 C   0  0  0  0  0  0  0  0  0  0  0  0
   37.3390   26.2960   35.3630 O   0  0  0  0  0  0  0  0  0  0  0  0
   37.8550   24.6900   33.7270 N   0  0  0  0  0  0  0  0  0  0  0  0
   38.2960   23.7820   33.5020 H   0  0  0  0  0  0  0  0  0  0  0  0
   38.8130   24.5000   36.0060 C   0  0  0  0  0  3  0  0  0  0  0  0
   38.0100   23.6580   36.9860 C   0  0  0  0  0  2  0  0  0  0  0  0
   38.9540   23.3320   38.1250 C   0  0  0  0  0  2  0  0  0  0  0  0
   40.1630   22.5950   37.6340 C   0  0  0  0  0  2  0  0  0  0  0  0
   40.7790   23.1410   36.3910 C   0  0  0  0  0  2  0  0  0  0  0  0
   39.7530   23.5230   35.3200 C   0  0  0  0  0  2  0  0  0  0  0  0
  1  4  1  1  0  0  0
  1  3  1  0  0  0  0
  2  1  1  0  0  0  0
  2  3  1  0  0  0  0
  3  7  1  1  0  0  0
  3 19  1  0  0  0  0
  5  2  1  0  0  0  0
  6  2  1  0  0  0  0
  8 13  1  0  0  0  0
  8 14  1  0  0  0  0
  9  8  2  0  0  0  0
 10 11  2  0  0  0  0
 10  9  1  0  0  0  0
 11 12  1  0  0  0  0
 12  1  1  0  0  0  0
 12 13  2  0  0  0  0
 15  9  1  0  0  0  0
 16 10  1  0  0  0  0
 17 18  2  0  0  0  0
 17 21  1  0  0  0  0
 19 17  1  0  0  0  0
 20 19  1  0  0  0  0
 21 22  1  0  0  0  0
 22 23  1  0  0  0  0
 24 23  1  0  0  0  0
 25 24  1  0  0  0  0
 26 21  1  0  0  0  0
 26 25  1  0  0  0  0
M  END
>  <minimizedAffinity>
-4.63303518

$$$$

 OpenBabel03272508523D

 26 28  0  0  1  0  0  0  0  0999 V2000
   37.8560   26.3140   31.8380 C   0  0  2  0  0  0  0  0  0  0  0  0
   37.4070   25.0580   31.2510 C   0  0  0  0  0  0  0  0  0  0  0  0
   37.0560   25.4500   32.6980 C   0  0  1  0  0  0  0  0  0  0  0  0
   38.9100   26.4790   32.2450 H   0  0  0  0  0  0  0  0  0  0  0  0
   38.0970   24.2110   31.1890 H   0  0  0  0  0  0  0  0  0  0  0  0
   36.5980   25.1050   30.4990 H   0  0  0  0  0  0  0  0  0  0  0  0
   35.9700   25.4630   32.8280 H   0  0  0  0  0  0  0  0  0  0  0  0
   37.0240   29.2710   29.7740 C   0  0  0  0  0  0  0  0  0  0  0  0
   36.2740   30.0770   30.6730 C   0  0  0  0  0  0  0  0  0  0  0  0
   36.0720   29.5640   31.9990 C   0  0  0  0  0  0  0  0  0  0  0  0
   36.5930   28.3590   32.3310 N   0  0  0  0  0  0  0  0  0  0  0  0
   37.3010   27.6380   31.4200 C   0  0  0  0  0  0  0  0  0  0  0  0
   37.5310   28.0680   30.1400 N   0  0  0  0  0  0  0  0  0  0  0  0
   37.1240   29.7380   28.8040 H   0  0  0  0  0  0  0  0  0  0  0  0
   35.8710   31.0210   30.4020 H   0  0  0  0  0  0  0  0  0  0  0  0
   35.5160   30.1210   32.7300 H   0  0  0  0  0  0  0  0  0  0  0  0
   37.8840   25.2600   35.0150 C   0  0  0  0  0  0  0  0  0  0  0  0
   37.2940   26.3350   35.2890 O   0  0  0  0  0  0  0  0  0  0  0  0
   37.7800   24.6680   33.7060 N   0  0  0  0  0  0  0  0  0  0  0  0
   38.1990   23.7430   33.5110 H   0  0  0  0  0  0  0  0  0  0  0  0
   38.7190   24.5240   35.9950 C   0  0  0  0  0  3  0  0  0  0  0  0
   37.8910   23.7020   36.9720 C   0  0  0  0  0  2  0  0  0  0  0  0
   38.8100   23.3860   38.1340 C   0  0  0  0  0  2  0  0  0  0  0  0
   40.0240   22.6340   37.6780 C   0  0  0  0  0  2  0  0  0  0  0  0
   40.6680   23.1580   36.4400 C   0  0  0  0  0  2  0  0  0  0  0  0
   39.6660   23.5300   35.3430 C   0  0  0  0  0  2  0  0  0  0  0  0
  1  4  1  1  0  0  0
  1  3  1  0  0  0  0
  2  1  1  0  0  0  0
  2  3  1  0  0  0  0
  3  7  1  1  0  0  0
  3 19  1  0  0  0  0
  5  2  1  0  0  0  0
  6  2  1  0  0  0  0
  8 13  2  0  0  0  0
  8  9  1  0  0  0  0
  9 10  2  0  0  0  0
 10 11  1  0  0  0  0
 10 16  1  0  0  0  0
 12  1  1  0  0  0  0
 12 11  2  0  0  0  0
 13 12  1  0  0  0  0
 14  8  1  0  0  0  0
 15  9  1  0  0  0  0
 17 18  2  0  0  0  0
 17 21  1  0  0  0  0
 19 17  1  0  0  0  0
 20 19  1  0  0  0  0
 21 22  1  0  0  0  0
 22 23  1  0  0  0  0
 24 23  1  0  0  0  0
 25 24  1  0  0  0  0
 26 21  1  0  0  0  0
 26 25  1  0  0  0  0
M  END
>  <minimizedAffinity>
-4.6264801

$$$$

 OpenBabel03272508523D

 26 28  0  0  1  0  0  0  0  0999 V2000
   38.8460   26.2580   35.1650 C   0  0  2  0  0  0  0  0  0  0  0  0
   38.3180   27.2360   36.1070 C   0  0  0  0  0  0  0  0  0  0  0  0
   37.4580   26.6590   34.9680 C   0  0  1  0  0  0  0  0  0  0  0  0
   39.5090   26.5310   34.2760 H   0  0  0  0  0  0  0  0  0  0  0  0
   38.5520   28.2960   35.9750 H   0  0  0  0  0  0  0  0  0  0  0  0
   38.1020   26.8910   37.1350 H   0  0  0  0  0  0  0  0  0  0  0  0
   36.5640   26.1820   35.3810 H   0  0  0  0  0  0  0  0  0  0  0  0
   40.6510   23.0640   35.6500 C   0  0  0  0  0  0  0  0  0  0  0  0
   39.6770   22.2490   36.2860 C   0  0  0  0  0  0  0  0  0  0  0  0
   38.3920   22.8390   36.5360 C   0  0  0  0  0  0  0  0  0  0  0  0
   38.1670   24.1220   36.1640 N   0  0  0  0  0  0  0  0  0  0  0  0
   39.1460   24.8460   35.5580 C   0  0  0  0  0  0  0  0  0  0  0  0
   40.3920   24.3460   35.2900 N   0  0  0  0  0  0  0  0  0  0  0  0
   41.5830   22.5350   35.5030 H   0  0  0  0  0  0  0  0  0  0  0  0
   39.8640   21.2440   36.5740 H   0  0  0  0  0  0  0  0  0  0  0  0
   37.6090   22.2810   37.0130 H   0  0  0  0  0  0  0  0  0  0  0  0
   36.8780   27.0590   32.6030 C   0  0  0  0  0  0  0  0  0  0  0  0
   36.7400   25.8200   32.4510 O   0  0  0  0  0  0  0  0  0  0  0  0
   37.1930   27.6200   33.8920 N   0  0  0  0  0  0  0  0  0  0  0  0
   37.2250   28.6440   34.0280 H   0  0  0  0  0  0  0  0  0  0  0  0
   36.7320   28.0300   31.4920 C   0  0  0  0  0  3  0  0  0  0  0  0
   36.4740   29.4480   31.9820 C   0  0  0  0  0  2  0  0  0  0  0  0
   35.9220   30.2050   30.7910 C   0  0  0  0  0  2  0  0  0  0  0  0
   36.8860   30.1900   29.6440 C   0  0  0  0  0  2  0  0  0  0  0  0
   37.5170   28.8700   29.3610 C   0  0  0  0  0  2  0  0  0  0  0  0
   37.9750   28.1310   30.6220 C   0  0  0  0  0  2  0  0  0  0  0  0
  1  4  1  6  0  0  0
  1 12  1  0  0  0  0
  1  2  1  0  0  0  0
  2  6  1  0  0  0  0
  3  1  1  0  0  0  0
  3  7  1  1  0  0  0
  3  2  1  0  0  0  0
  5  2  1  0  0  0  0
  8  9  1  0  0  0  0
  9 10  2  0  0  0  0
  9 15  1  0  0  0  0
 10 16  1  0  0  0  0
 11 10  1  0  0  0  0
 12 11  2  0  0  0  0
 13 12  1  0  0  0  0
 13  8  2  0  0  0  0
 14  8  1  0  0  0  0
 17 19  1  0  0  0  0
 18 17  2  0  0  0  0
 19 20  1  0  0  0  0
 19  3  1  0  0  0  0
 21 22  1  0  0  0  0
 21 17  1  0  0  0  0
 23 22  1  0  0  0  0
 24 23  1  0  0  0  0
 25 24  1  0  0  0  0
 25 26  1  0  0  0  0
 26 21  1  0  0  0  0
M  END
>  <minimizedAffinity>
-4.61247969

$$$$

 OpenBabel03272508523D

 26 28  0  0  1  0  0  0  0  0999 V2000
   37.1980   27.3210   33.1940 C   0  0  2  0  0  0  0  0  0  0  0  0
   38.0780   27.1630   34.3440 C   0  0  0  0  0  0  0  0  0  0  0  0
   36.6280   27.6590   34.4930 C   0  0  1  0  0  0  0  0  0  0  0  0
   37.2360   28.2190   32.4890 H   0  0  0  0  0  0  0  0  0  0  0  0
   38.8220   27.9330   34.5680 H   0  0  0  0  0  0  0  0  0  0  0  0
   38.3020   26.1330   34.6790 H   0  0  0  0  0  0  0  0  0  0  0  0
   36.0750   26.9990   35.1680 H   0  0  0  0  0  0  0  0  0  0  0  0
   35.1390   25.3080   30.8700 C   0  0  0  0  0  0  0  0  0  0  0  0
   35.6440   23.9940   31.0650 C   0  0  0  0  0  0  0  0  0  0  0  0
   36.7080   23.8360   32.0160 C   0  0  0  0  0  0  0  0  0  0  0  0
   37.1760   24.9230   32.6740 N   0  0  0  0  0  0  0  0  0  0  0  0
   36.6460   26.1540   32.4390 C   0  0  0  0  0  0  0  0  0  0  0  0
   35.6310   26.3750   31.5470 N   0  0  0  0  0  0  0  0  0  0  0  0
   34.3430   25.3270   30.1390 H   0  0  0  0  0  0  0  0  0  0  0  0
   35.2690   23.1490   30.5430 H   0  0  0  0  0  0  0  0  0  0  0  0
   37.1370   22.8720   32.2130 H   0  0  0  0  0  0  0  0  0  0  0  0
   35.3130   29.7460   34.4260 C   0  0  0  0  0  0  0  0  0  0  0  0
   34.3590   29.1010   33.9240 O   0  0  0  0  0  0  0  0  0  0  0  0
   36.5300   29.0850   34.8220 N   0  0  0  0  0  0  0  0  0  0  0  0
   37.2780   29.6060   35.3090 H   0  0  0  0  0  0  0  0  0  0  0  0
   35.2680   31.2120   34.6500 C   0  0  0  0  0  3  0  0  0  0  0  0
   35.9620   31.6300   35.9380 C   0  0  0  0  0  2  0  0  0  0  0  0
   35.4650   33.0270   36.2440 C   0  0  0  0  0  2  0  0  0  0  0  0
   35.7770   33.9720   35.1230 C   0  0  0  0  0  2  0  0  0  0  0  0
   35.5000   33.4500   33.7550 C   0  0  0  0  0  2  0  0  0  0  0  0
   35.9600   32.0020   33.5520 C   0  0  0  0  0  2  0  0  0  0  0  0
  1  4  1  6  0  0  0
  1  2  1  0  0  0  0
  1  3  1  0  0  0  0
  2  3  1  0  0  0  0
  2  5  1  0  0  0  0
  2  6  1  0  0  0  0
  3 19  1  0  0  0  0
  3  7  1  1  0  0  0
  8  9  2  0  0  0  0
  8 13  1  0  0  0  0
  9 10  1  0  0  0  0
 10 16  1  0  0  0  0
 10 11  2  0  0  0  0
 12 11  1  0  0  0  0
 12  1  1  0  0  0  0
 13 12  2  0  0  0  0
 14  8  1  0  0  0  0
 15  9  1  0  0  0  0
 17 21  1  0  0  0  0
 17 19  1  0  0  0  0
 18 17  2  0  0  0  0
 19 20  1  0  0  0  0
 21 22  1  0  0  0  0
 22 23  1  0  0  0  0
 24 23  1  0  0  0  0
 25 24  1  0  0  0  0
 26 25  1  0  0  0  0
 26 21  1  0  0  0  0
M  END
>  <minimizedAffinity>
-4.57792377

$$$$

 OpenBabel03272508523D

 26 28  0  0  1  0  0  0  0  0999 V2000
   38.1850   24.4460   34.6550 C   0  0  2  0  0  0  0  0  0  0  0  0
   39.1220   24.2240   33.5620 C   0  0  0  0  0  0  0  0  0  0  0  0
   38.8520   25.6310   34.1280 C   0  0  1  0  0  0  0  0  0  0  0  0
   37.0520   24.4860   34.5170 H   0  0  0  0  0  0  0  0  0  0  0  0
   38.7450   24.0910   32.5440 H   0  0  0  0  0  0  0  0  0  0  0  0
   40.0920   23.7530   33.8070 H   0  0  0  0  0  0  0  0  0  0  0  0
   39.7860   26.0780   34.4780 H   0  0  0  0  0  0  0  0  0  0  0  0
   37.8980   24.0270   38.3210 C   0  0  0  0  0  0  0  0  0  0  0  0
   39.0190   23.2110   38.6300 C   0  0  0  0  0  0  0  0  0  0  0  0
   39.8630   22.8170   37.5370 C   0  0  0  0  0  0  0  0  0  0  0  0
   39.5620   23.2320   36.2830 N   0  0  0  0  0  0  0  0  0  0  0  0
   38.4720   24.0140   36.0580 C   0  0  0  0  0  0  0  0  0  0  0  0
   37.6260   24.4250   37.0530 N   0  0  0  0  0  0  0  0  0  0  0  0
   37.3250   24.2720   39.2040 H   0  0  0  0  0  0  0  0  0  0  0  0
   39.2450   22.8910   39.6160 H   0  0  0  0  0  0  0  0  0  0  0  0
   40.7270   22.2010   37.6980 H   0  0  0  0  0  0  0  0  0  0  0  0
   37.2690   27.5040   33.8500 C   0  0  0  0  0  0  0  0  0  0  0  0
   37.3280   27.7070   35.0890 O   0  0  0  0  0  0  0  0  0  0  0  0
   38.0700   26.4830   33.2250 N   0  0  0  0  0  0  0  0  0  0  0  0
   38.0790   26.3760   32.1970 H   0  0  0  0  0  0  0  0  0  0  0  0
   36.3880   28.2820   32.9450 C   0  0  0  0  0  3  0  0  0  0  0  0
   35.7590   29.4860   33.6310 C   0  0  0  0  0  2  0  0  0  0  0  0
   34.5920   29.8990   32.7590 C   0  0  0  0  0  2  0  0  0  0  0  0
   35.0440   30.2350   31.3700 C   0  0  0  0  0  2  0  0  0  0  0  0
   36.0210   29.2820   30.7710 C   0  0  0  0  0  2  0  0  0  0  0  0
   37.1240   28.8490   31.7430 C   0  0  0  0  0  2  0  0  0  0  0  0
  1  4  1  6  0  0  0
  1 12  1  0  0  0  0
  2  6  1  0  0  0  0
  2  3  1  0  0  0  0
  2  1  1  0  0  0  0
  3  7  1  1  0  0  0
  3  1  1  0  0  0  0
  5  2  1  0  0  0  0
  8  9  1  0  0  0  0
  8 14  1  0  0  0  0
  9 15  1  0  0  0  0
 10 16  1  0  0  0  0
 10  9  2  0  0  0  0
 11 10  1  0  0  0  0
 12 11  2  0  0  0  0
 12 13  1  0  0  0  0
 13  8  2  0  0  0  0
 17 18  2  0  0  0  0
 19 17  1  0  0  0  0
 19  3  1  0  0  0  0
 20 19  1  0  0  0  0
 21 22  1  0  0  0  0
 21 17  1  0  0  0  0
 23 22  1  0  0  0  0
 24 23  1  0  0  0  0
 25 24  1  0  0  0  0
 25 26  1  0  0  0  0
 26 21  1  0  0  0  0
M  END
>  <minimizedAffinity>
-4.57696152

$$$$

 OpenBabel03272508523D

 26 28  0  0  1  0  0  0  0  0999 V2000
   38.2300   23.9610   34.5900 C   0  0  2  0  0  0  0  0  0  0  0  0
   38.7310   23.0660   33.5560 C   0  0  0  0  0  0  0  0  0  0  0  0
   39.2980   24.4840   33.7460 C   0  0  1  0  0  0  0  0  0  0  0  0
   37.2630   24.5610   34.4910 H   0  0  0  0  0  0  0  0  0  0  0  0
   38.1720   22.9470   32.6230 H   0  0  0  0  0  0  0  0  0  0  0  0
   39.3620   22.2160   33.8760 H   0  0  0  0  0  0  0  0  0  0  0  0
   40.3750   24.4350   33.9310 H   0  0  0  0  0  0  0  0  0  0  0  0
   39.8180   22.7930   37.7210 C   0  0  0  0  0  0  0  0  0  0  0  0
   38.9650   23.3320   38.7230 C   0  0  0  0  0  0  0  0  0  0  0  0
   37.8390   24.1030   38.2780 C   0  0  0  0  0  0  0  0  0  0  0  0
   37.6390   24.2810   36.9500 N   0  0  0  0  0  0  0  0  0  0  0  0
   38.4960   23.7360   36.0440 C   0  0  0  0  0  0  0  0  0  0  0  0
   39.5880   22.9910   36.4000 N   0  0  0  0  0  0  0  0  0  0  0  0
   40.6340   22.2290   38.1510 H   0  0  0  0  0  0  0  0  0  0  0  0
   39.1310   23.1850   39.7610 H   0  0  0  0  0  0  0  0  0  0  0  0
   37.1530   24.5390   38.9790 H   0  0  0  0  0  0  0  0  0  0  0  0
   38.7940   26.8020   33.0640 C   0  0  0  0  0  0  0  0  0  0  0  0
   39.1200   27.1870   34.2160 O   0  0  0  0  0  0  0  0  0  0  0  0
   38.9050   25.4170   32.6840 N   0  0  0  0  0  0  0  0  0  0  0  0
   38.7140   25.1210   31.7130 H   0  0  0  0  0  0  0  0  0  0  0  0
   38.2800   27.7220   32.0210 C   0  0  0  0  0  3  0  0  0  0  0  0
   38.1880   27.0640   30.6520 C   0  0  0  0  0  2  0  0  0  0  0  0
   38.0850   28.1960   29.6520 C   0  0  0  0  0  2  0  0  0  0  0  0
   36.8880   29.0560   29.9270 C   0  0  0  0  0  2  0  0  0  0  0  0
   36.6740   29.4090   31.3590 C   0  0  0  0  0  2  0  0  0  0  0  0
   36.8770   28.2280   32.3130 C   0  0  0  0  0  2  0  0  0  0  0  0
  1  4  1  6  0  0  0
  1 12  1  0  0  0  0
  2  3  1  0  0  0  0
  2  6  1  0  0  0  0
  2  1  1  0  0  0  0
  3  7  1  1  0  0  0
  3  1  1  0  0  0  0
  5  2  1  0  0  0  0
  8 14  1  0  0  0  0
  8  9  1  0  0  0  0
  9 15  1  0  0  0  0
 10  9  2  0  0  0  0
 10 16  1  0  0  0  0
 11 10  1  0  0  0  0
 12 13  1  0  0  0  0
 12 11  2  0  0  0  0
 13  8  2  0  0  0  0
 17 18  2  0  0  0  0
 19 17  1  0  0  0  0
 19  3  1  0  0  0  0
 20 19  1  0  0  0  0
 21 26  1  0  0  0  0
 21 17  1  0  0  0  0
 22 21  1  0  0  0  0
 23 24  1  0  0  0  0
 23 22  1  0  0  0  0
 24 25  1  0  0  0  0
 25 26  1  0  0  0  0
M  END
>  <minimizedAffinity>
-4.50708199

$$$$

 OpenBabel03272508523D

 26 28  0  0  1  0  0  0  0  0999 V2000
   38.6630   26.3170   35.4190 C   0  0  2  0  0  0  0  0  0  0  0  0
   38.0480   27.6230   35.6140 C   0  0  0  0  0  0  0  0  0  0  0  0
   37.7350   26.7530   34.3820 C   0  0  1  0  0  0  0  0  0  0  0  0
   39.7240   26.1720   35.0210 H   0  0  0  0  0  0  0  0  0  0  0  0
   38.6100   28.5290   35.3690 H   0  0  0  0  0  0  0  0  0  0  0  0
   37.2650   27.7100   36.3900 H   0  0  0  0  0  0  0  0  0  0  0  0
   36.6600   26.5570   34.3270 H   0  0  0  0  0  0  0  0  0  0  0  0
   37.7810   22.8620   36.4090 C   0  0  0  0  0  0  0  0  0  0  0  0
   37.6580   22.9640   37.8210 C   0  0  0  0  0  0  0  0  0  0  0  0
   37.8890   24.2550   38.4060 C   0  0  0  0  0  0  0  0  0  0  0  0
   38.2080   25.2990   37.6050 N   0  0  0  0  0  0  0  0  0  0  0  0
   38.3100   25.1310   36.2590 C   0  0  0  0  0  0  0  0  0  0  0  0
   38.1030   23.9290   35.6360 N   0  0  0  0  0  0  0  0  0  0  0  0
   37.5890   21.8560   36.0620 H   0  0  0  0  0  0  0  0  0  0  0  0
   37.4070   22.1390   38.4390 H   0  0  0  0  0  0  0  0  0  0  0  0
   37.8120   24.4050   39.4660 H   0  0  0  0  0  0  0  0  0  0  0  0
   37.3960   27.7240   32.1390 C   0  0  0  0  0  0  0  0  0  0  0  0
   36.1620   27.7720   32.3720 O   0  0  0  0  0  0  0  0  0  0  0  0
   38.3240   27.2660   33.1400 N   0  0  0  0  0  0  0  0  0  0  0  0
   39.3430   27.3060   32.9720 H   0  0  0  0  0  0  0  0  0  0  0  0
   37.9890   28.1260   30.8400 C   0  0  0  0  0  3  0  0  0  0  0  0
   38.8070   27.0140   30.1990 C   0  0  0  0  0  2  0  0  0  0  0  0
   39.6790   27.6860   29.1580 C   0  0  0  0  0  2  0  0  0  0  0  0
   38.8490   28.4110   28.1420 C   0  0  0  0  0  2  0  0  0  0  0  0
   37.7270   29.2210   28.6960 C   0  0  0  0  0  2  0  0  0  0  0  0
   36.9460   28.5020   29.8010 C   0  0  0  0  0  2  0  0  0  0  0  0
  1  4  1  6  0  0  0
  1  2  1  0  0  0  0
  1 12  1  0  0  0  0
  2  6  1  0  0  0  0
  3  7  1  6  0  0  0
  3  1  1  0  0  0  0
  3  2  1  0  0  0  0
  5  2  1  0  0  0  0
  8  9  1  0  0  0  0
  9 10  2  0  0  0  0
  9 15  1  0  0  0  0
 10 16  1  0  0  0  0
 11 10  1  0  0  0  0
 12 11  2  0  0  0  0
 13 12  1  0  0  0  0
 13  8  2  0  0  0  0
 14  8  1  0  0  0  0
 17 18  2  0  0  0  0
 17 19  1  0  0  0  0
 19  3  1  0  0  0  0
 20 19  1  0  0  0  0
 21 17  1  0  0  0  0
 22 21  1  0  0  0  0
 23 22  1  0  0  0  0
 24 25  1  0  0  0  0
 24 23  1  0  0  0  0
 25 26  1  0  0  0  0
 26 21  1  0  0  0  0
M  END
>  <minimizedAffinity>
-4.4914546

$$$$
