
 OpenBabel03272503493D

 34 36  0  0  1  0  0  0  0  0999 V2000
   33.1880   27.3150   45.8570 C   0  0  1  0  0  0  0  0  0  0  0  0
   33.9180   27.4670   47.2100 C   0  0  2  0  0  0  0  0  0  0  0  0
   33.7730   26.2410   47.7790 O   0  0  0  0  0  0  0  0  0  0  0  0
   34.0750   25.3470   46.7670 C   0  0  0  0  0  0  0  0  0  0  0  0
   33.5730   25.9160   45.4760 C   0  0  2  0  0  0  0  0  0  0  0  0
   33.6530   28.0240   45.1560 H   0  0  0  0  0  0  0  0  0  0  0  0
   34.9660   27.7790   46.9610 H   0  0  0  0  0  0  0  0  0  0  0  0
   33.5010   24.4160   46.9790 H   0  0  0  0  0  0  0  0  0  0  0  0
   35.1730   25.2040   46.7850 H   0  0  0  0  0  0  0  0  0  0  0  0
   32.7280   25.3320   45.0620 H   0  0  0  0  0  0  0  0  0  0  0  0
   31.8320   27.5170   46.0190 O   0  0  0  0  0  0  0  0  0  0  0  0
   31.5080   28.0500   45.2340 H   0  0  0  0  0  0  0  0  0  0  0  0
   33.2970   28.5160   47.8230 O   0  0  0  0  0  0  0  0  0  0  0  0
   35.3430   29.8180   46.7810 O   0  0  0  0  0  0  0  0  0  0  0  0
   34.0830   29.9900   47.6180 P   0  0  1  0  0  0  0  0  0  0  0  0
   33.1070   31.0500   46.7280 O   0  0  0  0  0  0  0  0  0  0  0  0
   32.1530   30.9010   46.9840 H   0  0  0  0  0  0  0  0  0  0  0  0
   34.3810   30.6090   49.1800 O   0  0  0  0  0  0  0  0  0  0  0  0
   35.6200   30.4970   49.7890 C   0  0  0  0  0  0  0  0  0  0  0  0
   35.9620   29.4800   50.7080 C   0  0  0  0  0  0  0  0  0  0  0  0
   37.2440   29.4920   51.2410 C   0  0  0  0  0  0  0  0  0  0  0  0
   38.1060   30.4770   50.8550 N   0  0  0  0  0  0  0  0  0  0  0  0
   37.7510   31.4440   49.9690 C   0  0  0  0  0  0  0  0  0  0  0  0
   36.4960   31.4520   49.4330 N   0  0  0  0  0  0  0  0  0  0  0  0
   35.2000   28.7500   50.9410 H   0  0  0  0  0  0  0  0  0  0  0  0
   37.5140   28.7170   51.9440 H   0  0  0  0  0  0  0  0  0  0  0  0
   38.4790   32.1980   49.7030 H   0  0  0  0  0  0  0  0  0  0  0  0
   34.5950   25.9490   44.5260 O   0  0  0  0  0  0  0  0  0  0  0  0
   34.1430   25.7120   43.2450 C   0  0  0  0  0  3  0  0  0  0  0  0
   35.2680   25.3270   42.3050 C   0  0  0  0  0  2  0  0  0  0  0  0
   35.6530   23.8830   42.5840 C   0  0  0  0  0  2  0  0  0  0  0  0
   34.5740   22.9200   42.1890 C   0  0  0  0  0  2  0  0  0  0  0  0
   33.3000   23.7180   41.9680 C   0  0  0  0  0  2  0  0  0  0  0  0
   33.1410   24.5730   43.2170 C   0  0  0  0  0  2  0  0  0  0  0  0
  1  6  1  6  0  0  0
  1 11  1  0  0  0  0
  1  2  1  0  0  0  0
  2  7  1  6  0  0  0
  2  3  1  0  0  0  0
  2 13  1  0  0  0  0
  4  9  1  0  0  0  0
  4  8  1  0  0  0  0
  4  3  1  0  0  0  0
  5 10  1  6  0  0  0
  5  1  1  0  0  0  0
  5  4  1  0  0  0  0
 12 11  1  0  0  0  0
 15 14  2  6  0  0  0
 15 13  1  0  0  0  0
 15 18  1  0  0  0  0
 16 17  1  0  0  0  0
 16 15  1  0  0  0  0
 18 19  1  0  0  0  0
 19 20  1  0  0  0  0
 20 25  1  0  0  0  0
 20 21  2  0  0  0  0
 21 26  1  0  0  0  0
 22 21  1  0  0  0  0
 23 22  2  0  0  0  0
 24 19  2  0  0  0  0
 24 23  1  0  0  0  0
 27 23  1  0  0  0  0
 28  5  1  0  0  0  0
 29 28  1  0  0  0  0
 30 31  1  0  0  0  0
 30 29  1  0  0  0  0
 32 31  1  0  0  0  0
 33 32  1  0  0  0  0
 33 34  1  0  0  0  0
 34 29  1  0  0  0  0
M  END
>  <minimizedAffinity>
-3.94919038

>  <minimizedRMSD>
0.37542221

$$$$
