
 OpenBabel03272503493D

 34 36  0  0  1  0  0  0  0  0999 V2000
   33.1420   27.3520   45.8820 C   0  0  1  0  0  0  0  0  0  0  0  0
   33.9230   27.4810   47.2090 C   0  0  2  0  0  0  0  0  0  0  0  0
   33.7960   26.2470   47.7640 O   0  0  0  0  0  0  0  0  0  0  0  0
   34.0560   25.3670   46.7280 C   0  0  0  0  0  0  0  0  0  0  0  0
   33.5070   25.9580   45.4660 C   0  0  2  0  0  0  0  0  0  0  0  0
   33.5820   28.0700   45.1750 H   0  0  0  0  0  0  0  0  0  0  0  0
   34.9610   27.7930   46.9250 H   0  0  0  0  0  0  0  0  0  0  0  0
   33.4880   24.4350   46.9470 H   0  0  0  0  0  0  0  0  0  0  0  0
   35.1540   25.2210   46.7020 H   0  0  0  0  0  0  0  0  0  0  0  0
   32.6450   25.3820   45.0750 H   0  0  0  0  0  0  0  0  0  0  0  0
   31.7930   27.5550   46.0990 O   0  0  0  0  0  0  0  0  0  0  0  0
   31.4410   28.1010   45.3360 H   0  0  0  0  0  0  0  0  0  0  0  0
   33.3290   28.5220   47.8610 O   0  0  0  0  0  0  0  0  0  0  0  0
   35.3450   29.8340   46.7720 O   0  0  0  0  0  0  0  0  0  0  0  0
   34.0960   30.0020   47.6250 P   0  0  1  0  0  0  0  0  0  0  0  0
   33.0950   31.0400   46.7360 O   0  0  0  0  0  0  0  0  0  0  0  0
   32.1460   30.8840   47.0090 H   0  0  0  0  0  0  0  0  0  0  0  0
   34.4090   30.6450   49.1740 O   0  0  0  0  0  0  0  0  0  0  0  0
   35.6460   30.5170   49.7840 C   0  0  0  0  0  0  0  0  0  0  0  0
   35.9780   29.4940   50.6990 C   0  0  0  0  0  0  0  0  0  0  0  0
   37.2590   29.4900   51.2330 C   0  0  0  0  0  0  0  0  0  0  0  0
   38.1310   30.4680   50.8530 N   0  0  0  0  0  0  0  0  0  0  0  0
   37.7870   31.4430   49.9700 C   0  0  0  0  0  0  0  0  0  0  0  0
   36.5330   31.4650   49.4330 N   0  0  0  0  0  0  0  0  0  0  0  0
   35.2070   28.7700   50.9290 H   0  0  0  0  0  0  0  0  0  0  0  0
   37.5200   28.7090   51.9340 H   0  0  0  0  0  0  0  0  0  0  0  0
   38.5230   32.1900   49.7080 H   0  0  0  0  0  0  0  0  0  0  0  0
   34.4920   26.0020   44.4790 O   0  0  0  0  0  0  0  0  0  0  0  0
   34.2100   25.1830   43.4040 C   0  0  0  0  0  3  0  0  0  0  0  0
   33.1360   25.7690   42.5070 C   0  0  0  0  0  2  0  0  0  0  0  0
   33.7600   26.8790   41.6770 C   0  0  0  0  0  2  0  0  0  0  0  0
   34.7480   26.3560   40.6780 C   0  0  0  0  0  2  0  0  0  0  0  0
   35.0750   24.9220   41.0590 C   0  0  0  0  0  2  0  0  0  0  0  0
   35.4370   24.9740   42.5360 C   0  0  0  0  0  2  0  0  0  0  0  0
  1  6  1  6  0  0  0
  1 11  1  0  0  0  0
  1  2  1  0  0  0  0
  2  7  1  6  0  0  0
  2  3  1  0  0  0  0
  2 13  1  0  0  0  0
  4  8  1  0  0  0  0
  4  3  1  0  0  0  0
  5 10  1  6  0  0  0
  5  1  1  0  0  0  0
  5  4  1  0  0  0  0
  9  4  1  0  0  0  0
 12 11  1  0  0  0  0
 15 14  2  6  0  0  0
 15 13  1  0  0  0  0
 15 18  1  0  0  0  0
 16 17  1  0  0  0  0
 16 15  1  0  0  0  0
 18 19  1  0  0  0  0
 19 20  1  0  0  0  0
 20 25  1  0  0  0  0
 20 21  2  0  0  0  0
 21 26  1  0  0  0  0
 22 21  1  0  0  0  0
 23 22  2  0  0  0  0
 24 19  2  0  0  0  0
 24 23  1  0  0  0  0
 27 23  1  0  0  0  0
 28  5  1  0  0  0  0
 29 28  1  0  0  0  0
 30 29  1  0  0  0  0
 31 30  1  0  0  0  0
 32 33  1  0  0  0  0
 32 31  1  0  0  0  0
 33 34  1  0  0  0  0
 34 29  1  0  0  0  0
M  END
>  <minimizedAffinity>
-3.92564297

>  <minimizedRMSD>
0.200724289

$$$$
