
 OpenBabel03272509263D

 22 23  0  0  0  0  0  0  0  0999 V2000
   38.7490   27.1160   35.6620 C   0  0  0  0  0  0  0  0  0  0  0  0
   38.7270   27.5200   36.6930 H   0  0  0  0  0  0  0  0  0  0  0  0
   39.5700   27.5550   35.0590 H   0  0  0  0  0  0  0  0  0  0  0  0
   38.0680   23.4810   36.3680 C   0  0  0  0  0  0  0  0  0  0  0  0
   37.8950   24.8640   36.3640 C   0  0  0  0  0  0  0  0  0  0  0  0
   38.8300   25.6550   35.7290 C   0  0  0  0  0  0  0  0  0  0  0  0
   39.8950   25.0140   35.1260 N   0  0  0  0  0  0  0  0  0  0  0  0
   40.0210   23.6890   35.1540 C   0  0  0  0  0  0  0  0  0  0  0  0
   39.1280   22.8970   35.7640 N   0  0  0  0  0  0  0  0  0  0  0  0
   37.3010   22.9140   36.8830 H   0  0  0  0  0  0  0  0  0  0  0  0
   37.0550   25.2970   36.8430 H   0  0  0  0  0  0  0  0  0  0  0  0
   40.8600   23.1870   34.6800 H   0  0  0  0  0  0  0  0  0  0  0  0
   37.4580   27.5490   34.9690 C   0  0  0  0  0  0  0  0  0  0  0  0
   36.5490   27.2050   35.4560 H   0  0  0  0  0  0  0  0  0  0  0  0
   37.4620   28.6710   35.1250 H   0  0  0  0  0  0  0  0  0  0  0  0
   37.5690   27.3060   33.2010 S   0  0  0  0  0  0  0  0  0  0  0  0
   36.6440   25.8820   32.5990 C   0  0  0  0  0  3  0  0  0  0  0  0
   37.6180   24.7860   32.2460 C   0  0  0  0  0  2  0  0  0  0  0  0
   37.0990   23.9710   31.0710 C   0  0  0  0  0  2  0  0  0  0  0  0
   35.5910   23.8980   31.1390 C   0  0  0  0  0  2  0  0  0  0  0  0
   34.9520   25.2380   30.8750 C   0  0  0  0  0  2  0  0  0  0  0  0
   35.9030   26.3120   31.3520 C   0  0  0  0  0  2  0  0  0  0  0  0
  1  6  1  0  0  0  0
  1  2  1  0  0  0  0
  3  1  1  0  0  0  0
  4 10  1  0  0  0  0
  5  4  1  0  0  0  0
  5 11  1  0  0  0  0
  6  5  2  0  0  0  0
  7  8  2  0  0  0  0
  7  6  1  0  0  0  0
  8  9  1  0  0  0  0
  9  4  2  0  0  0  0
 12  8  1  0  0  0  0
 13 15  1  0  0  0  0
 13 14  1  0  0  0  0
 13  1  1  0  0  0  0
 16 13  1  0  0  0  0
 17 16  1  0  0  0  0
 18 17  1  0  0  0  0
 19 20  1  0  0  0  0
 19 18  1  0  0  0  0
 21 20  1  0  0  0  0
 21 22  1  0  0  0  0
 22 17  1  0  0  0  0
M  END
>  <minimizedAffinity>
-4.09994078

$$$$

 OpenBabel03272509263D

 22 23  0  0  0  0  0  0  0  0999 V2000
   39.1610   24.6630   34.5190 C   0  0  0  0  0  0  0  0  0  0  0  0
   39.1170   25.7700   34.5490 H   0  0  0  0  0  0  0  0  0  0  0  0
   40.0510   24.2970   33.9680 H   0  0  0  0  0  0  0  0  0  0  0  0
   39.8490   22.7970   37.7150 C   0  0  0  0  0  0  0  0  0  0  0  0
   39.9900   23.2190   36.3940 C   0  0  0  0  0  0  0  0  0  0  0  0
   39.1060   24.1490   35.8890 C   0  0  0  0  0  0  0  0  0  0  0  0
   38.1200   24.6120   36.7390 N   0  0  0  0  0  0  0  0  0  0  0  0
   38.0210   24.1810   37.9950 C   0  0  0  0  0  0  0  0  0  0  0  0
   38.8660   23.2770   38.5110 N   0  0  0  0  0  0  0  0  0  0  0  0
   40.5730   22.0650   38.0540 H   0  0  0  0  0  0  0  0  0  0  0  0
   40.7690   22.8290   35.7920 H   0  0  0  0  0  0  0  0  0  0  0  0
   37.2450   24.5450   38.6620 H   0  0  0  0  0  0  0  0  0  0  0  0
   37.9570   24.1750   33.7150 C   0  0  0  0  0  0  0  0  0  0  0  0
   37.0000   24.3020   34.2170 H   0  0  0  0  0  0  0  0  0  0  0  0
   37.9280   24.9050   32.8500 H   0  0  0  0  0  0  0  0  0  0  0  0
   38.2790   22.5740   32.9870 S   0  0  0  0  0  0  0  0  0  0  0  0
   36.7950   21.6880   32.4820 C   0  0  0  0  0  3  0  0  0  0  0  0
   36.1740   21.0500   33.7010 C   0  0  0  0  0  2  0  0  0  0  0  0
   35.5030   19.7350   33.3300 C   0  0  0  0  0  2  0  0  0  0  0  0
   34.9340   19.8410   31.9350 C   0  0  0  0  0  2  0  0  0  0  0  0
   36.0180   19.9240   30.8910 C   0  0  0  0  0  2  0  0  0  0  0  0
   37.2150   20.6050   31.5120 C   0  0  0  0  0  2  0  0  0  0  0  0
  1  2  1  0  0  0  0
  1  6  1  0  0  0  0
  3  1  1  0  0  0  0
  4 10  1  0  0  0  0
  4  9  1  0  0  0  0
  5  4  2  0  0  0  0
  6  5  1  0  0  0  0
  6  7  2  0  0  0  0
  7  8  1  0  0  0  0
  8  9  2  0  0  0  0
  8 12  1  0  0  0  0
 11  5  1  0  0  0  0
 13 14  1  0  0  0  0
 13  1  1  0  0  0  0
 15 13  1  0  0  0  0
 16 13  1  0  0  0  0
 17 16  1  0  0  0  0
 17 18  1  0  0  0  0
 19 18  1  0  0  0  0
 20 19  1  0  0  0  0
 21 22  1  0  0  0  0
 21 20  1  0  0  0  0
 22 17  1  0  0  0  0
M  END
>  <minimizedAffinity>
-4.08666229

$$$$

 OpenBabel03272509263D

 22 23  0  0  0  0  0  0  0  0999 V2000
   36.7620   24.1580   31.0740 C   0  0  0  0  0  0  0  0  0  0  0  0
   37.7520   24.6210   31.2610 H   0  0  0  0  0  0  0  0  0  0  0  0
   36.6380   23.8540   30.0150 H   0  0  0  0  0  0  0  0  0  0  0  0
   37.1920   21.6490   33.8470 C   0  0  0  0  0  0  0  0  0  0  0  0
   37.4580   22.7410   33.0230 C   0  0  0  0  0  0  0  0  0  0  0  0
   36.5830   23.0360   31.9990 C   0  0  0  0  0  0  0  0  0  0  0  0
   35.4800   22.2180   31.8530 N   0  0  0  0  0  0  0  0  0  0  0  0
   35.2640   21.1840   32.6640 C   0  0  0  0  0  0  0  0  0  0  0  0
   36.0980   20.8730   33.6660 N   0  0  0  0  0  0  0  0  0  0  0  0
   37.9160   21.4670   34.6330 H   0  0  0  0  0  0  0  0  0  0  0  0
   38.3200   23.3330   33.1870 H   0  0  0  0  0  0  0  0  0  0  0  0
   34.3960   20.5400   32.5470 H   0  0  0  0  0  0  0  0  0  0  0  0
   35.6990   25.2280   31.3170 C   0  0  0  0  0  0  0  0  0  0  0  0
   34.9750   25.3340   30.5130 H   0  0  0  0  0  0  0  0  0  0  0  0
   35.1080   24.7930   32.1800 H   0  0  0  0  0  0  0  0  0  0  0  0
   36.4350   26.7320   31.9440 S   0  0  0  0  0  0  0  0  0  0  0  0
   37.5820   26.4700   33.3080 C   0  0  0  0  0  3  0  0  0  0  0  0
   36.9780   27.0450   34.5660 C   0  0  0  0  0  2  0  0  0  0  0  0
   38.0670   27.5940   35.4770 C   0  0  0  0  0  2  0  0  0  0  0  0
   39.3090   26.7460   35.3370 C   0  0  0  0  0  2  0  0  0  0  0  0
   39.9490   26.9070   33.9820 C   0  0  0  0  0  2  0  0  0  0  0  0
   38.8580   27.2160   32.9820 C   0  0  0  0  0  2  0  0  0  0  0  0
  1  2  1  0  0  0  0
  1 13  1  0  0  0  0
  1  6  1  0  0  0  0
  3  1  1  0  0  0  0
  4 10  1  0  0  0  0
  5 11  1  0  0  0  0
  5  4  2  0  0  0  0
  6  5  1  0  0  0  0
  7  6  2  0  0  0  0
  7  8  1  0  0  0  0
  8  9  2  0  0  0  0
  9  4  1  0  0  0  0
 12  8  1  0  0  0  0
 13 16  1  0  0  0  0
 13 15  1  0  0  0  0
 14 13  1  0  0  0  0
 16 17  1  0  0  0  0
 17 18  1  0  0  0  0
 18 19  1  0  0  0  0
 20 19  1  0  0  0  0
 21 20  1  0  0  0  0
 22 17  1  0  0  0  0
 22 21  1  0  0  0  0
M  END
>  <minimizedAffinity>
-4.07712078

$$$$

 OpenBabel03272509263D

 22 23  0  0  0  0  0  0  0  0999 V2000
   35.8410   23.2950   31.5640 C   0  0  0  0  0  0  0  0  0  0  0  0
   35.3740   23.6970   30.6430 H   0  0  0  0  0  0  0  0  0  0  0  0
   35.3750   23.7070   32.4820 H   0  0  0  0  0  0  0  0  0  0  0  0
   34.9010   19.6910   32.1110 C   0  0  0  0  0  0  0  0  0  0  0  0
   34.8660   21.0800   32.2210 C   0  0  0  0  0  0  0  0  0  0  0  0
   35.7870   21.8320   31.5220 C   0  0  0  0  0  0  0  0  0  0  0  0
   36.7000   21.1490   30.7430 N   0  0  0  0  0  0  0  0  0  0  0  0
   36.6990   19.8190   30.6670 C   0  0  0  0  0  0  0  0  0  0  0  0
   35.8160   19.0650   31.3360 N   0  0  0  0  0  0  0  0  0  0  0  0
   34.1530   19.1560   32.6840 H   0  0  0  0  0  0  0  0  0  0  0  0
   34.1380   21.5470   32.8340 H   0  0  0  0  0  0  0  0  0  0  0  0
   37.4190   19.2840   30.0540 H   0  0  0  0  0  0  0  0  0  0  0  0
   37.2920   23.7760   31.5940 C   0  0  0  0  0  0  0  0  0  0  0  0
   37.9060   23.4020   30.7780 H   0  0  0  0  0  0  0  0  0  0  0  0
   37.1850   24.8850   31.3900 H   0  0  0  0  0  0  0  0  0  0  0  0
   37.9730   23.6500   33.2410 S   0  0  0  0  0  0  0  0  0  0  0  0
   38.0410   25.2180   34.1260 C   0  0  0  0  0  3  0  0  0  0  0  0
   39.1930   26.0290   33.5860 C   0  0  0  0  0  2  0  0  0  0  0  0
   39.8090   26.8780   34.6890 C   0  0  0  0  0  2  0  0  0  0  0  0
   38.7260   27.3120   35.6500 C   0  0  0  0  0  2  0  0  0  0  0  0
   38.1800   26.1510   36.4410 C   0  0  0  0  0  2  0  0  0  0  0  0
   38.2890   24.9080   35.5870 C   0  0  0  0  0  2  0  0  0  0  0  0
  1 13  1  0  0  0  0
  1  3  1  0  0  0  0
  2  1  1  0  0  0  0
  4  5  1  0  0  0  0
  4 10  1  0  0  0  0
  5 11  1  0  0  0  0
  6  1  1  0  0  0  0
  6  5  2  0  0  0  0
  7  6  1  0  0  0  0
  8  7  2  0  0  0  0
  8  9  1  0  0  0  0
  9  4  2  0  0  0  0
 12  8  1  0  0  0  0
 13 16  1  0  0  0  0
 14 13  1  0  0  0  0
 15 13  1  0  0  0  0
 16 17  1  0  0  0  0
 17 22  1  0  0  0  0
 18 17  1  0  0  0  0
 18 19  1  0  0  0  0
 19 20  1  0  0  0  0
 20 21  1  0  0  0  0
 22 21  1  0  0  0  0
M  END
>  <minimizedAffinity>
-4.07454157

$$$$

 OpenBabel03272509263D

 22 23  0  0  0  0  0  0  0  0999 V2000
   37.4720   27.3110   33.1180 C   0  0  0  0  0  0  0  0  0  0  0  0
   38.5430   27.0320   33.1670 H   0  0  0  0  0  0  0  0  0  0  0  0
   37.3240   28.3200   32.6830 H   0  0  0  0  0  0  0  0  0  0  0  0
   35.0850   25.4780   30.8560 C   0  0  0  0  0  0  0  0  0  0  0  0
   35.7080   26.5400   31.5100 C   0  0  0  0  0  0  0  0  0  0  0  0
   36.7470   26.2750   32.3780 C   0  0  0  0  0  0  0  0  0  0  0  0
   37.1110   24.9530   32.5450 N   0  0  0  0  0  0  0  0  0  0  0  0
   36.4880   23.9690   31.8990 C   0  0  0  0  0  0  0  0  0  0  0  0
   35.4750   24.1980   31.0510 N   0  0  0  0  0  0  0  0  0  0  0  0
   34.2760   25.7500   30.1880 H   0  0  0  0  0  0  0  0  0  0  0  0
   35.3840   27.5340   31.3390 H   0  0  0  0  0  0  0  0  0  0  0  0
   36.7750   22.9300   32.0320 H   0  0  0  0  0  0  0  0  0  0  0  0
   36.9530   27.4060   34.5520 C   0  0  0  0  0  0  0  0  0  0  0  0
   36.4620   28.3460   34.7910 H   0  0  0  0  0  0  0  0  0  0  0  0
   36.1230   26.6360   34.5620 H   0  0  0  0  0  0  0  0  0  0  0  0
   38.1750   26.8160   35.7150 S   0  0  0  0  0  0  0  0  0  0  0  0
   38.3070   25.0210   35.7900 C   0  0  0  0  0  3  0  0  0  0  0  0
   38.0790   24.5770   37.2140 C   0  0  0  0  0  2  0  0  0  0  0  0
   38.9120   23.3430   37.5270 C   0  0  0  0  0  2  0  0  0  0  0  0
   39.0260   22.4890   36.2860 C   0  0  0  0  0  2  0  0  0  0  0  0
   39.8650   23.1510   35.2230 C   0  0  0  0  0  2  0  0  0  0  0  0
   39.7120   24.6470   35.3700 C   0  0  0  0  0  2  0  0  0  0  0  0
  1  2  1  0  0  0  0
  1 13  1  0  0  0  0
  3  1  1  0  0  0  0
  4  9  2  0  0  0  0
  4  5  1  0  0  0  0
  5  6  2  0  0  0  0
  6  7  1  0  0  0  0
  6  1  1  0  0  0  0
  8 12  1  0  0  0  0
  8  7  2  0  0  0  0
  9  8  1  0  0  0  0
 10  4  1  0  0  0  0
 11  5  1  0  0  0  0
 13 15  1  0  0  0  0
 13 14  1  0  0  0  0
 13 16  1  0  0  0  0
 16 17  1  0  0  0  0
 17 18  1  0  0  0  0
 18 19  1  0  0  0  0
 20 19  1  0  0  0  0
 21 22  1  0  0  0  0
 21 20  1  0  0  0  0
 22 17  1  0  0  0  0
M  END
>  <minimizedAffinity>
-4.0702219

$$$$

 OpenBabel03272509263D

 22 23  0  0  0  0  0  0  0  0999 V2000
   37.3820   23.7390   30.9700 C   0  0  0  0  0  0  0  0  0  0  0  0
   38.4480   23.8230   31.2620 H   0  0  0  0  0  0  0  0  0  0  0  0
   37.2620   23.5470   29.8840 H   0  0  0  0  0  0  0  0  0  0  0  0
   35.0430   21.1100   32.3080 C   0  0  0  0  0  0  0  0  0  0  0  0
   35.5630   22.0820   31.4550 C   0  0  0  0  0  0  0  0  0  0  0  0
   36.7460   22.7060   31.7910 C   0  0  0  0  0  0  0  0  0  0  0  0
   37.3510   22.3210   32.9710 N   0  0  0  0  0  0  0  0  0  0  0  0
   36.8200   21.3870   33.7580 C   0  0  0  0  0  0  0  0  0  0  0  0
   35.6710   20.7660   33.4560 N   0  0  0  0  0  0  0  0  0  0  0  0
   34.1120   20.6570   31.9900 H   0  0  0  0  0  0  0  0  0  0  0  0
   35.0530   22.3330   30.5610 H   0  0  0  0  0  0  0  0  0  0  0  0
   37.2960   21.0860   34.6870 H   0  0  0  0  0  0  0  0  0  0  0  0
   36.7280   25.0970   31.2180 C   0  0  0  0  0  0  0  0  0  0  0  0
   35.8720   25.3070   30.5810 H   0  0  0  0  0  0  0  0  0  0  0  0
   36.2910   24.9720   32.2550 H   0  0  0  0  0  0  0  0  0  0  0  0
   37.9600   26.3850   31.3630 S   0  0  0  0  0  0  0  0  0  0  0  0
   38.1760   27.0030   33.0410 C   0  0  0  0  0  3  0  0  0  0  0  0
   39.6530   27.0720   33.3450 C   0  0  0  0  0  2  0  0  0  0  0  0
   39.9080   26.7840   34.8170 C   0  0  0  0  0  2  0  0  0  0  0  0
   38.7570   27.3170   35.6380 C   0  0  0  0  0  2  0  0  0  0  0  0
   37.4890   26.5370   35.3990 C   0  0  0  0  0  2  0  0  0  0  0  0
   37.5200   26.0150   33.9810 C   0  0  0  0  0  2  0  0  0  0  0  0
  1 13  1  0  0  0  0
  1  2  1  0  0  0  0
  1  6  1  0  0  0  0
  3  1  1  0  0  0  0
  4  9  1  0  0  0  0
  5  6  1  0  0  0  0
  5  4  2  0  0  0  0
  6  7  2  0  0  0  0
  7  8  1  0  0  0  0
  8 12  1  0  0  0  0
  9  8  2  0  0  0  0
 10  4  1  0  0  0  0
 11  5  1  0  0  0  0
 13 16  1  0  0  0  0
 13 15  1  0  0  0  0
 14 13  1  0  0  0  0
 16 17  1  0  0  0  0
 17 18  1  0  0  0  0
 17 22  1  0  0  0  0
 18 19  1  0  0  0  0
 19 20  1  0  0  0  0
 21 20  1  0  0  0  0
 22 21  1  0  0  0  0
M  END
>  <minimizedAffinity>
-4.02295542

$$$$

 OpenBabel03272509263D

 22 23  0  0  0  0  0  0  0  0999 V2000
   38.9780   21.8850   34.3820 C   0  0  0  0  0  0  0  0  0  0  0  0
   39.9200   22.2190   33.9040 H   0  0  0  0  0  0  0  0  0  0  0  0
   38.8400   20.7870   34.3090 H   0  0  0  0  0  0  0  0  0  0  0  0
   39.9460   22.8640   37.8860 C   0  0  0  0  0  0  0  0  0  0  0  0
   40.0750   22.3980   36.5790 C   0  0  0  0  0  0  0  0  0  0  0  0
   38.9590   22.3560   35.7690 C   0  0  0  0  0  0  0  0  0  0  0  0
   37.7650   22.7860   36.3140 N   0  0  0  0  0  0  0  0  0  0  0  0
   37.6870   23.2250   37.5700 C   0  0  0  0  0  0  0  0  0  0  0  0
   38.7550   23.2750   38.3780 N   0  0  0  0  0  0  0  0  0  0  0  0
   40.8570   22.8730   38.4720 H   0  0  0  0  0  0  0  0  0  0  0  0
   41.0190   22.0830   36.2170 H   0  0  0  0  0  0  0  0  0  0  0  0
   36.7470   23.5620   37.9970 H   0  0  0  0  0  0  0  0  0  0  0  0
   37.8190   22.4940   33.5940 C   0  0  0  0  0  0  0  0  0  0  0  0
   37.3380   21.8100   32.9000 H   0  0  0  0  0  0  0  0  0  0  0  0
   37.0450   22.6770   34.4010 H   0  0  0  0  0  0  0  0  0  0  0  0
   38.2520   24.1100   32.9650 S   0  0  0  0  0  0  0  0  0  0  0  0
   37.7750   25.4690   34.0470 C   0  0  0  0  0  3  0  0  0  0  0  0
   36.9500   26.4530   33.2540 C   0  0  0  0  0  2  0  0  0  0  0  0
   37.1920   27.8710   33.7510 C   0  0  0  0  0  2  0  0  0  0  0  0
   37.4420   27.8440   35.2400 C   0  0  0  0  0  2  0  0  0  0  0  0
   38.7560   27.1850   35.5770 C   0  0  0  0  0  2  0  0  0  0  0  0
   39.0440   26.1460   34.5180 C   0  0  0  0  0  2  0  0  0  0  0  0
  1  6  1  0  0  0  0
  2  1  1  0  0  0  0
  3  1  1  0  0  0  0
  4  9  1  0  0  0  0
  4 10  1  0  0  0  0
  5  4  2  0  0  0  0
  6  7  2  0  0  0  0
  6  5  1  0  0  0  0
  7  8  1  0  0  0  0
  8 12  1  0  0  0  0
  8  9  2  0  0  0  0
 11  5  1  0  0  0  0
 13  1  1  0  0  0  0
 13 15  1  0  0  0  0
 14 13  1  0  0  0  0
 16 13  1  0  0  0  0
 16 17  1  0  0  0  0
 17 22  1  0  0  0  0
 18 19  1  0  0  0  0
 18 17  1  0  0  0  0
 19 20  1  0  0  0  0
 20 21  1  0  0  0  0
 22 21  1  0  0  0  0
M  END
>  <minimizedAffinity>
-4.01663017

$$$$

 OpenBabel03272509263D

 22 23  0  0  0  0  0  0  0  0999 V2000
   38.9040   24.5450   32.7710 C   0  0  0  0  0  0  0  0  0  0  0  0
   37.9450   24.1190   32.4160 H   0  0  0  0  0  0  0  0  0  0  0  0
   39.5310   24.9140   31.9340 H   0  0  0  0  0  0  0  0  0  0  0  0
   39.1960   27.1120   35.5090 C   0  0  0  0  0  0  0  0  0  0  0  0
   39.5710   26.1180   34.6080 C   0  0  0  0  0  0  0  0  0  0  0  0
   38.6220   25.5910   33.7570 C   0  0  0  0  0  0  0  0  0  0  0  0
   37.3380   26.0930   33.8530 N   0  0  0  0  0  0  0  0  0  0  0  0
   37.0230   27.0440   34.7300 C   0  0  0  0  0  0  0  0  0  0  0  0
   37.9250   27.5720   35.5690 N   0  0  0  0  0  0  0  0  0  0  0  0
   39.9850   27.4850   36.1510 H   0  0  0  0  0  0  0  0  0  0  0  0
   40.5730   25.7760   34.5800 H   0  0  0  0  0  0  0  0  0  0  0  0
   36.0120   27.4360   34.8050 H   0  0  0  0  0  0  0  0  0  0  0  0
   39.7050   23.4110   33.4100 C   0  0  0  0  0  0  0  0  0  0  0  0
   40.4800   22.9930   32.7720 H   0  0  0  0  0  0  0  0  0  0  0  0
   40.2670   23.9440   34.2350 H   0  0  0  0  0  0  0  0  0  0  0  0
   38.6230   22.2490   34.2330 S   0  0  0  0  0  0  0  0  0  0  0  0
   38.5970   22.4200   36.0260 C   0  0  0  0  0  3  0  0  0  0  0  0
   37.5970   23.4880   36.3960 C   0  0  0  0  0  2  0  0  0  0  0  0
   38.0530   24.2350   37.6410 C   0  0  0  0  0  2  0  0  0  0  0  0
   38.7870   23.2820   38.5550 C   0  0  0  0  0  2  0  0  0  0  0  0
   40.1070   22.8480   37.9710 C   0  0  0  0  0  2  0  0  0  0  0  0
   39.9780   22.8550   36.4650 C   0  0  0  0  0  2  0  0  0  0  0  0
  1 13  1  0  0  0  0
  1  6  1  0  0  0  0
  2  1  1  0  0  0  0
  3  1  1  0  0  0  0
  4  9  1  0  0  0  0
  4 10  1  0  0  0  0
  5  4  2  0  0  0  0
  6  7  2  0  0  0  0
  6  5  1  0  0  0  0
  7  8  1  0  0  0  0
  8 12  1  0  0  0  0
  8  9  2  0  0  0  0
 11  5  1  0  0  0  0
 13 16  1  0  0  0  0
 13 15  1  0  0  0  0
 14 13  1  0  0  0  0
 16 17  1  0  0  0  0
 17 18  1  0  0  0  0
 17 22  1  0  0  0  0
 18 19  1  0  0  0  0
 19 20  1  0  0  0  0
 21 20  1  0  0  0  0
 22 21  1  0  0  0  0
M  END
>  <minimizedAffinity>
-3.98758507

$$$$

 OpenBabel03272509263D

 22 23  0  0  0  0  0  0  0  0999 V2000
   38.7880   21.9560   34.2200 C   0  0  0  0  0  0  0  0  0  0  0  0
   39.8110   21.6790   33.8960 H   0  0  0  0  0  0  0  0  0  0  0  0
   38.0650   21.1290   34.0710 H   0  0  0  0  0  0  0  0  0  0  0  0
   37.9150   23.3310   37.6140 C   0  0  0  0  0  0  0  0  0  0  0  0
   37.7580   22.9350   36.2870 C   0  0  0  0  0  0  0  0  0  0  0  0
   38.8390   22.4050   35.6140 C   0  0  0  0  0  0  0  0  0  0  0  0
   40.0270   22.2970   36.3100 N   0  0  0  0  0  0  0  0  0  0  0  0
   40.1330   22.6890   37.5780 C   0  0  0  0  0  0  0  0  0  0  0  0
   39.1000   23.2080   38.2560 N   0  0  0  0  0  0  0  0  0  0  0  0
   37.0310   23.7400   38.0890 H   0  0  0  0  0  0  0  0  0  0  0  0
   36.8200   23.0410   35.8080 H   0  0  0  0  0  0  0  0  0  0  0  0
   41.0680   22.6040   38.1240 H   0  0  0  0  0  0  0  0  0  0  0  0
   38.3060   23.0860   33.3120 C   0  0  0  0  0  0  0  0  0  0  0  0
   37.8700   22.7540   32.3730 H   0  0  0  0  0  0  0  0  0  0  0  0
   37.4360   23.5150   33.8970 H   0  0  0  0  0  0  0  0  0  0  0  0
   39.5200   24.3960   33.2200 S   0  0  0  0  0  0  0  0  0  0  0  0
   38.9580   25.9630   33.9090 C   0  0  0  0  0  3  0  0  0  0  0  0
   39.4810   26.0860   35.3190 C   0  0  0  0  0  2  0  0  0  0  0  0
   38.4910   26.8480   36.1890 C   0  0  0  0  0  2  0  0  0  0  0  0
   37.7940   27.8950   35.3530 C   0  0  0  0  0  2  0  0  0  0  0  0
   36.8750   27.2770   34.3300 C   0  0  0  0  0  2  0  0  0  0  0  0
   37.4460   25.9340   33.9380 C   0  0  0  0  0  2  0  0  0  0  0  0
  1  6  1  0  0  0  0
  2  1  1  0  0  0  0
  3  1  1  0  0  0  0
  4 10  1  0  0  0  0
  4  9  1  0  0  0  0
  5  4  2  0  0  0  0
  6  5  1  0  0  0  0
  6  7  2  0  0  0  0
  7  8  1  0  0  0  0
  8 12  1  0  0  0  0
  8  9  2  0  0  0  0
 11  5  1  0  0  0  0
 13 15  1  0  0  0  0
 13  1  1  0  0  0  0
 14 13  1  0  0  0  0
 16 13  1  0  0  0  0
 16 17  1  0  0  0  0
 17 22  1  0  0  0  0
 17 18  1  0  0  0  0
 18 19  1  0  0  0  0
 20 19  1  0  0  0  0
 21 20  1  0  0  0  0
 22 21  1  0  0  0  0
M  END
>  <minimizedAffinity>
-3.97951007

$$$$
