
 OpenBabel03272500223D

 34 36  0  0  0  0  0  0  0  0999 V2000
   35.5800   29.1390   50.3540 C   0  0  0  0  0  0  0  0  0  0  0  0
   36.3730   30.1480   49.7390 C   0  0  0  0  0  0  0  0  0  0  0  0
   36.2370   30.3550   48.3770 C   0  0  0  0  0  0  0  0  0  0  0  0
   35.3410   29.5710   47.6970 N   0  0  0  0  0  0  0  0  0  0  0  0
   34.6140   28.6450   48.2660 C   0  0  0  0  0  0  0  0  0  0  0  0
   34.7170   28.4110   49.5980 N   0  0  0  0  0  0  0  0  0  0  0  0
   35.6740   28.9670   51.4140 H   0  0  0  0  0  0  0  0  0  0  0  0
   32.7340   30.2410   46.5200 Cl  0  0  0  0  0  0  0  0  0  0  0  0
   32.7640   28.4860   46.6160 C   0  0  0  0  0  0  0  0  0  0  0  0
   33.6720   27.8470   47.4540 C   0  0  0  0  0  0  0  0  0  0  0  0
   33.7390   26.4650   47.5690 C   0  0  0  0  0  0  0  0  0  0  0  0
   32.8320   25.7440   46.7850 C   0  0  0  0  0  0  0  0  0  0  0  0
   31.9290   26.3390   45.9530 C   0  0  0  0  0  0  0  0  0  0  0  0
   30.8490   25.3310   45.0250 Cl  0  0  0  0  0  0  0  0  0  0  0  0
   31.8970   27.7240   45.8690 C   0  0  0  0  0  0  0  0  0  0  0  0
   34.4440   25.9780   48.2180 H   0  0  0  0  0  0  0  0  0  0  0  0
   32.8810   24.6510   46.8720 H   0  0  0  0  0  0  0  0  0  0  0  0
   30.9330   28.3900   44.9800 C   0  0  0  0  0  0  0  0  0  0  0  0
   29.9730   27.4680   44.5310 F   0  0  0  0  0  0  0  0  0  0  0  0
   31.5180   29.0330   43.9390 F   0  0  0  0  0  0  0  0  0  0  0  0
   30.2100   29.3340   45.6880 F   0  0  0  0  0  0  0  0  0  0  0  0
   37.3100   30.9290   50.5990 C   0  0  0  0  0  0  0  0  0  0  0  0
   38.6210   30.8040   50.1270 F   0  0  0  0  0  0  0  0  0  0  0  0
   36.9600   32.2480   50.5230 F   0  0  0  0  0  0  0  0  0  0  0  0
   37.2750   30.5440   51.9160 F   0  0  0  0  0  0  0  0  0  0  0  0
   37.0510   31.3960   47.7230 C   0  0  0  0  0  0  0  0  0  0  0  0
   37.6330   32.0270   48.4030 H   0  0  0  0  0  0  0  0  0  0  0  0
   36.3910   31.9720   47.0460 H   0  0  0  0  0  0  0  0  0  0  0  0
   38.0760   30.6830   46.8410 C   0  0  0  0  0  0  0  0  0  0  0  0
   39.4370   31.3280   46.9920 C   0  0  0  0  0  0  0  0  0  0  0  0
   39.8910   31.9990   45.7170 C   0  0  0  0  0  0  0  0  0  0  0  0
   39.9020   31.0540   44.5450 C   0  0  0  0  0  0  0  0  0  0  0  0
   38.8070   30.0190   44.6350 C   0  0  0  0  0  0  0  0  0  0  0  0
   37.6240   30.6020   45.3990 C   0  0  0  0  0  0  0  0  0  0  0  0
  1  7  1  0  0  0  0
  2  1  1  0  0  0  0
  2 22  1  0  0  0  0
  3  2  2  0  0  0  0
  4  5  2  0  0  0  0
  4  3  1  0  0  0  0
  5  6  1  0  0  0  0
  6  1  2  0  0  0  0
  8  9  1  0  0  0  0
  9 10  1  0  0  0  0
 10 11  2  0  0  0  0
 10  5  1  0  0  0  0
 11 16  1  0  0  0  0
 12 17  1  0  0  0  0
 12 11  1  0  0  0  0
 13 12  2  0  0  0  0
 14 13  1  0  0  0  0
 15 13  1  0  0  0  0
 15  9  2  0  0  0  0
 18 21  1  0  0  0  0
 18 15  1  0  0  0  0
 19 18  1  0  0  0  0
 20 18  1  0  0  0  0
 22 25  1  0  0  0  0
 23 22  1  0  0  0  0
 24 22  1  0  0  0  0
 26  3  1  0  0  0  0
 26 27  1  0  0  0  0
 28 26  1  0  0  0  0
 29 30  1  0  0  0  0
 29 26  1  0  0  0  0
 31 30  1  0  0  0  0
 32 33  1  0  0  0  0
 32 31  1  0  0  0  0
 33 34  1  0  0  0  0
 34 29  1  0  0  0  0
M  END
>  <minimizedAffinity>
-6.51357889

>  <minimizedRMSD>
1.24068773

$$$$
