
 OpenBabel03272505033D

 26 28  0  0  0  0  0  0  0  0999 V2000
   37.8080   30.2340   47.0320 Cl  0  0  0  0  0  0  0  0  0  0  0  0
   38.3300   31.6780   47.8580 C   0  0  0  0  0  0  0  0  0  0  0  0
   37.8930   31.9060   49.1340 C   0  0  0  0  0  0  0  0  0  0  0  0
   38.3410   33.0720   49.7400 C   0  0  0  0  0  0  0  0  0  0  0  0
   39.1850   33.9310   49.0510 C   0  0  0  0  0  0  0  0  0  0  0  0
   39.5950   33.6560   47.7690 C   0  0  0  0  0  0  0  0  0  0  0  0
   39.1550   32.5010   47.1620 C   0  0  0  0  0  0  0  0  0  0  0  0
   37.9930   33.2520   50.7510 H   0  0  0  0  0  0  0  0  0  0  0  0
   39.4620   34.8000   49.6310 H   0  0  0  0  0  0  0  0  0  0  0  0
   40.2390   34.4050   47.3740 H   0  0  0  0  0  0  0  0  0  0  0  0
   37.4430   30.3040   51.0070 C   0  0  0  0  0  0  0  0  0  0  0  0
   37.0020   31.0030   49.8720 C   0  0  0  0  0  0  0  0  0  0  0  0
   35.6930   30.8080   49.4730 C   0  0  0  0  0  0  0  0  0  0  0  0
   34.9180   29.9610   50.1960 N   0  0  0  0  0  0  0  0  0  0  0  0
   35.3620   29.3120   51.2660 C   0  0  0  0  0  0  0  0  0  0  0  0
   36.6230   29.4760   51.6820 N   0  0  0  0  0  0  0  0  0  0  0  0
   38.4540   30.4380   51.3370 H   0  0  0  0  0  0  0  0  0  0  0  0
   35.3690   31.3540   48.5970 H   0  0  0  0  0  0  0  0  0  0  0  0
   34.6050   28.6800   51.7150 H   0  0  0  0  0  0  0  0  0  0  0  0
   39.5820   32.2470   45.8780 O   0  0  0  0  0  0  0  0  0  0  0  0
   39.3150   32.9540   44.7210 C   0  0  0  0  0  3  0  0  0  0  0  0
   37.9210   32.5320   44.2540 C   0  0  0  0  0  2  0  0  0  0  0  0
   37.9720   31.0880   43.7920 C   0  0  0  0  0  2  0  0  0  0  0  0
   38.7330   30.9490   42.4930 C   0  0  0  0  0  2  0  0  0  0  0  0
   39.5910   32.1910   42.3400 C   0  0  0  0  0  2  0  0  0  0  0  0
   40.2910   32.4440   43.6560 C   0  0  0  0  0  2  0  0  0  0  0  0
  1  2  1  0  0  0  0
  2  3  1  0  0  0  0
  3  4  2  0  0  0  0
  3 12  1  0  0  0  0
  4  8  1  0  0  0  0
  5  9  1  0  0  0  0
  5  4  1  0  0  0  0
  6  5  2  0  0  0  0
  7  6  1  0  0  0  0
  7  2  2  0  0  0  0
 10  6  1  0  0  0  0
 11 17  1  0  0  0  0
 11 16  1  0  0  0  0
 12 11  2  0  0  0  0
 13 12  1  0  0  0  0
 13 14  2  0  0  0  0
 14 15  1  0  0  0  0
 15 16  2  0  0  0  0
 15 19  1  0  0  0  0
 18 13  1  0  0  0  0
 20  7  1  0  0  0  0
 21 20  1  0  0  0  0
 22 21  1  0  0  0  0
 23 22  1  0  0  0  0
 24 23  1  0  0  0  0
 25 24  1  0  0  0  0
 25 26  1  0  0  0  0
 26 21  1  0  0  0  0
M  END
>  <minimizedAffinity>
-5.99493456

>  <minimizedRMSD>
1.91241789

$$$$
