
 OpenBabel03272509403D

 32 34  0  0  1  0  0  0  0  0999 V2000
   37.0720   30.9760   49.0450 C   0  0  0  0  0  0  0  0  0  0  0  0
   36.7950   31.8860   50.0670 C   0  0  0  0  0  0  0  0  0  0  0  0
   37.3950   33.1400   50.1040 C   0  0  0  0  0  0  0  0  0  0  0  0
   38.2970   33.5120   49.1080 C   0  0  0  0  0  0  0  0  0  0  0  0
   38.5530   32.6000   48.1180 C   0  0  0  0  0  0  0  0  0  0  0  0
   37.9480   31.3600   48.0960 C   0  0  0  0  0  0  0  0  0  0  0  0
   36.1030   31.6220   50.8450 H   0  0  0  0  0  0  0  0  0  0  0  0
   37.1350   33.7990   50.9240 H   0  0  0  0  0  0  0  0  0  0  0  0
   38.7350   34.4900   49.1800 H   0  0  0  0  0  0  0  0  0  0  0  0
   39.2650   32.9680   47.3840 H   0  0  0  0  0  0  0  0  0  0  0  0
   36.4020   29.6880   49.0810 C   0  0  2  0  0  3  0  0  0  0  0  0
   36.9550   28.8110   49.8440 O   0  0  0  0  0  1  0  0  0  0  0  0
   33.6190   30.1700   46.8050 C   0  0  0  0  0  0  0  0  0  0  0  0
   32.9430   28.9500   46.8350 C   0  0  0  0  0  0  0  0  0  0  0  0
   33.4440   27.9460   47.6450 C   0  0  0  0  0  0  0  0  0  0  0  0
   34.5680   28.1830   48.3780 N   0  0  0  0  0  0  0  0  0  0  0  0
   35.1930   29.3520   48.3320 C   0  0  0  0  0  0  0  0  0  0  0  0
   34.7030   30.3260   47.5440 N   0  0  0  0  0  0  0  0  0  0  0  0
   33.2270   30.9490   46.1740 H   0  0  0  0  0  0  0  0  0  0  0  0
   32.0430   28.7570   46.2500 H   0  0  0  0  0  0  0  0  0  0  0  0
   32.9570   26.9830   47.7030 H   0  0  0  0  0  0  0  0  0  0  0  0
   38.3340   30.5270   46.9810 C   0  0  0  0  0  3  0  0  0  0  0  0
   39.0630   30.8570   45.9380 C   0  0  0  0  0  3  0  0  0  0  0  0
   39.5370   30.1310   44.7670 C   0  0  0  0  0  0  0  0  0  0  0  0
   40.2470   30.7270   44.1570 H   0  0  0  0  0  0  0  0  0  0  0  0
   40.1460   29.2510   45.1250 H   0  0  0  0  0  0  0  0  0  0  0  0
   38.4540   29.5000   43.9160 C   0  0  0  0  0  3  0  0  0  0  0  0
   38.0920   30.5220   42.8600 C   0  0  0  0  0  2  0  0  0  0  0  0
   37.1910   29.9440   41.7920 C   0  0  0  0  0  2  0  0  0  0  0  0
   37.6940   28.5990   41.3080 C   0  0  0  0  0  2  0  0  0  0  0  0
   39.1430   28.4460   41.7880 C   0  0  0  0  0  2  0  0  0  0  0  0
   39.0470   28.2500   43.3040 C   0  0  0  0  0  2  0  0  0  0  0  0
  1 11  1  0  0  0  0
  1  2  1  0  0  0  0
  2  3  2  0  0  0  0
  2  7  1  0  0  0  0
  3  8  1  0  0  0  0
  4  9  1  0  0  0  0
  4  3  1  0  0  0  0
  5  4  2  0  0  0  0
  6  5  1  0  0  0  0
  6  1  2  0  0  0  0
 10  5  1  0  0  0  0
 11 12  1  6  0  0  0
 13 14  2  0  0  0  0
 13 18  1  0  0  0  0
 14 15  1  0  0  0  0
 15 21  1  0  0  0  0
 15 16  2  0  0  0  0
 17 16  1  0  0  0  0
 17 11  1  0  0  0  0
 18 17  2  0  0  0  0
 19 13  1  0  0  0  0
 20 14  1  0  0  0  0
 22  6  1  0  0  0  0
 23 22  2  0  0  0  0
 24 26  1  0  0  0  0
 24 23  1  0  0  0  0
 25 24  1  0  0  0  0
 27 24  1  0  0  0  0
 28 27  1  0  0  0  0
 29 28  1  0  0  0  0
 30 31  1  0  0  0  0
 30 29  1  0  0  0  0
 31 32  1  0  0  0  0
 32 27  1  0  0  0  0
M  END
>  <minimizedAffinity>
-5.75118017

>  <minimizedRMSD>
1.41440213

$$$$
