
 OpenBabel03272508573D

 37 40  0  0  1  0  0  0  0  0999 V2000
   38.3510   31.9020   44.5000 C   0  0  0  0  0  0  0  0  0  0  0  0
   37.2510   32.4520   44.4080 O   0  0  0  0  0  0  0  0  0  0  0  0
   38.9220   31.6250   45.8050 N   0  0  0  0  0  0  0  0  0  0  0  0
   39.8960   31.3600   45.9670 H   0  0  0  0  0  0  0  0  0  0  0  0
   39.1280   31.5050   43.3120 C   0  0  0  0  0  0  0  0  0  0  0  0
   40.1150   30.5580   43.4600 C   0  0  0  0  0  0  0  0  0  0  0  0
   40.8350   30.2020   42.3260 C   0  0  0  0  0  0  0  0  0  0  0  0
   40.5240   30.8060   41.1430 C   0  0  0  0  0  0  0  0  0  0  0  0
   39.5370   31.7540   40.9850 C   0  0  0  0  0  0  0  0  0  0  0  0
   38.8550   32.0780   42.1150 N   0  0  0  0  0  0  0  0  0  0  0  0
   40.3440   30.0880   44.4150 H   0  0  0  0  0  0  0  0  0  0  0  0
   41.6000   29.4610   42.4690 H   0  0  0  0  0  0  0  0  0  0  0  0
   41.1440   30.4470   40.3440 H   0  0  0  0  0  0  0  0  0  0  0  0
   39.1960   32.3820   39.6970 C   0  0  2  0  0  3  0  0  0  0  0  0
   38.7030   33.5690   39.7590 O   0  0  0  0  0  1  0  0  0  0  0  0
   39.3090   31.8930   38.2980 C   0  0  0  0  0  3  0  0  0  0  0  0
   38.1960   32.4150   37.4870 C   0  0  0  0  0  2  0  0  0  0  0  0
   38.6700   32.5640   36.0350 C   0  0  0  0  0  2  0  0  0  0  0  0
   39.6430   33.7420   36.0900 C   0  0  0  0  0  2  0  0  0  0  0  0
   40.8400   33.4070   36.9360 C   0  0  0  0  0  2  0  0  0  0  0  0
   40.6860   32.1570   37.7370 C   0  0  0  0  0  2  0  0  0  0  0  0
   38.4330   31.0980   48.1870 C   0  0  2  0  0  0  0  0  0  0  0  0
   38.6790   32.5620   48.1090 C   0  0  0  0  0  0  0  0  0  0  0  0
   38.0680   31.7290   46.9610 C   0  0  1  0  0  0  0  0  0  0  0  0
   39.3600   30.4980   48.2790 H   0  0  0  0  0  0  0  0  0  0  0  0
   39.6950   32.9280   47.9840 H   0  0  0  0  0  0  0  0  0  0  0  0
   38.0180   33.1970   48.7140 H   0  0  0  0  0  0  0  0  0  0  0  0
   36.9980   31.9990   46.7890 H   0  0  0  0  0  0  0  0  0  0  0  0
   35.0660   30.2390   49.5130 C   0  0  0  0  0  0  0  0  0  0  0  0
   35.3990   29.5460   50.7290 C   0  0  0  0  0  0  0  0  0  0  0  0
   36.7980   29.4030   51.0640 C   0  0  0  0  0  0  0  0  0  0  0  0
   37.7570   29.9220   50.2280 N   0  0  0  0  0  0  0  0  0  0  0  0
   37.3470   30.5640   49.0920 C   0  0  0  0  0  0  0  0  0  0  0  0
   36.0240   30.7400   48.7050 N   0  0  0  0  0  0  0  0  0  0  0  0
   34.0280   30.3300   49.2880 H   0  0  0  0  0  0  0  0  0  0  0  0
   34.6570   29.1450   51.3760 H   0  0  0  0  0  0  0  0  0  0  0  0
   37.0460   28.8910   51.9650 H   0  0  0  0  0  0  0  0  0  0  0  0
  1  3  1  0  0  0  0
  2  1  2  0  0  0  0
  3  4  1  0  0  0  0
  3 24  1  0  0  0  0
  5  6  1  0  0  0  0
  5  1  1  0  0  0  0
  6 11  1  0  0  0  0
  7 12  1  0  0  0  0
  7  6  2  0  0  0  0
  8  7  1  0  0  0  0
  9  8  2  0  0  0  0
  9 10  1  0  0  0  0
 10  5  2  0  0  0  0
 13  8  1  0  0  0  0
 14 15  1  1  0  0  0
 14  9  1  0  0  0  0
 16 14  1  0  0  0  0
 17 16  1  0  0  0  0
 18 19  1  0  0  0  0
 18 17  1  0  0  0  0
 19 20  1  0  0  0  0
 20 21  1  0  0  0  0
 21 16  1  0  0  0  0
 22 25  1  6  0  0  0
 22 33  1  0  0  0  0
 23 22  1  0  0  0  0
 23 27  1  0  0  0  0
 24 28  1  6  0  0  0
 24 23  1  0  0  0  0
 24 22  1  0  0  0  0
 26 23  1  0  0  0  0
 29 30  1  0  0  0  0
 30 31  2  0  0  0  0
 30 36  1  0  0  0  0
 31 37  1  0  0  0  0
 32 31  1  0  0  0  0
 33 32  2  0  0  0  0
 34 33  1  0  0  0  0
 34 29  2  0  0  0  0
 35 29  1  0  0  0  0
M  END
>  <minimizedAffinity>
-4.98543358

>  <minimizedRMSD>
0.294236183

$$$$
