
 OpenBabel03272509313D

 35 37  0  0  1  0  0  0  0  0999 V2000
   36.3110   30.6940   48.9790 C   0  0  2  0  0  0  0  0  0  0  0  0
   37.2430   31.5950   49.7310 C   0  0  0  0  0  0  0  0  0  0  0  0
   38.1370   30.8470   50.6930 C   0  0  0  0  0  0  0  0  0  0  0  0
   37.3110   30.0210   51.6710 C   0  0  0  0  0  0  0  0  0  0  0  0
   36.0820   29.4000   51.0630 C   0  0  0  0  0  0  0  0  0  0  0  0
   36.2750   29.3140   49.5410 C   0  0  1  0  0  0  0  0  0  0  0  0
   35.2400   31.0820   48.9590 H   0  0  0  0  0  0  0  0  0  0  0  0
   36.5610   32.1950   50.4230 H   0  0  0  0  0  0  0  0  0  0  0  0
   37.7790   32.3370   49.1700 H   0  0  0  0  0  0  0  0  0  0  0  0
   38.6430   31.6160   51.3210 H   0  0  0  0  0  0  0  0  0  0  0  0
   38.8960   30.2280   50.2200 H   0  0  0  0  0  0  0  0  0  0  0  0
   36.9790   30.6390   52.5430 H   0  0  0  0  0  0  0  0  0  0  0  0
   37.9800   29.2430   52.0960 H   0  0  0  0  0  0  0  0  0  0  0  0
   35.1540   29.9570   51.2140 H   0  0  0  0  0  0  0  0  0  0  0  0
   35.9880   28.3570   51.4190 H   0  0  0  0  0  0  0  0  0  0  0  0
   37.2310   28.8520   49.4810 H   0  0  0  0  0  0  0  0  0  0  0  0
   36.6890   30.6150   47.5410 C   0  0  0  0  0  0  0  0  0  0  0  0
   38.0470   30.7960   47.2580 C   0  0  0  0  0  0  0  0  0  0  0  0
   38.4200   30.7190   45.9100 C   0  0  0  0  0  0  0  0  0  0  0  0
   37.4530   30.4740   44.9630 N   0  0  0  0  0  0  0  0  0  0  0  0
   36.1350   30.3020   45.2980 C   0  0  0  0  0  0  0  0  0  0  0  0
   35.7720   30.3770   46.5890 N   0  0  0  0  0  0  0  0  0  0  0  0
   38.8900   30.9820   47.8930 H   0  0  0  0  0  0  0  0  0  0  0  0
   39.4230   30.8400   45.5560 H   0  0  0  0  0  0  0  0  0  0  0  0
   35.4440   30.1150   44.4990 H   0  0  0  0  0  0  0  0  0  0  0  0
   34.0060   28.3010   49.0540 C   0  0  0  0  0  0  0  0  0  0  0  0
   33.1850   28.9720   49.7450 O   0  0  0  0  0  0  0  0  0  0  0  0
   35.4110   28.4060   48.8830 N   0  0  0  0  0  0  0  0  0  0  0  0
   35.6890   27.6690   48.1630 H   0  0  0  0  0  0  0  0  0  0  0  0
   33.0810   27.3170   48.4300 C   0  0  0  0  0  3  0  0  0  0  0  0
   32.1170   28.1350   47.5930 C   0  0  0  0  0  2  0  0  0  0  0  0
   31.1800   27.1720   46.9020 C   0  0  0  0  0  2  0  0  0  0  0  0
   31.3090   25.7800   47.4730 C   0  0  0  0  0  2  0  0  0  0  0  0
   32.7120   25.2290   47.2930 C   0  0  0  0  0  2  0  0  0  0  0  0
   33.7550   26.3230   47.5430 C   0  0  0  0  0  2  0  0  0  0  0  0
  1  7  1  1  0  0  0
  1  6  1  0  0  0  0
  1  2  1  0  0  0  0
  2  8  1  0  0  0  0
  2  3  1  0  0  0  0
  3 10  1  0  0  0  0
  3  4  1  0  0  0  0
  4 13  1  0  0  0  0
  4 12  1  0  0  0  0
  5 14  1  0  0  0  0
  5 15  1  0  0  0  0
  5  4  1  0  0  0  0
  6 16  1  6  0  0  0
  6  5  1  0  0  0  0
  9  2  1  0  0  0  0
 11  3  1  0  0  0  0
 17  1  1  0  0  0  0
 18 17  1  0  0  0  0
 18 23  1  0  0  0  0
 19 18  2  0  0  0  0
 20 21  2  0  0  0  0
 20 19  1  0  0  0  0
 21 22  1  0  0  0  0
 22 17  2  0  0  0  0
 24 19  1  0  0  0  0
 25 21  1  0  0  0  0
 26 27  2  0  0  0  0
 28 26  1  0  0  0  0
 28  6  1  0  0  0  0
 29 28  1  0  0  0  0
 30 26  1  0  0  0  0
 31 30  1  0  0  0  0
 32 33  1  0  0  0  0
 32 31  1  0  0  0  0
 34 33  1  0  0  0  0
 34 35  1  0  0  0  0
 35 30  1  0  0  0  0
M  END
>  <minimizedAffinity>
-6.08867502

>  <minimizedRMSD>
0.967436671

$$$$
