
 OpenBabel03272503213D

 34 37  0  0  0  0  0  0  0  0999 V2000
   36.8740   30.7710   47.2230 C   0  0  0  0  0  0  0  0  0  0  0  0
   37.8110   31.7120   47.3380 C   0  0  0  0  0  0  0  0  0  0  0  0
   38.3390   32.2550   46.2320 C   0  0  0  0  0  0  0  0  0  0  0  0
   37.8820   31.8060   45.0160 C   0  0  0  0  0  0  0  0  0  0  0  0
   36.6410   30.5530   45.5150 S   0  0  0  0  0  0  0  0  0  0  0  0
   38.1130   32.0060   48.3400 H   0  0  0  0  0  0  0  0  0  0  0  0
   39.1020   33.0220   46.1710 H   0  0  0  0  0  0  0  0  0  0  0  0
   40.6780   31.0110   44.0940 Cl  0  0  0  0  0  0  0  0  0  0  0  0
   39.4300   31.8030   43.1630 C   0  0  0  0  0  0  0  0  0  0  0  0
   38.1930   32.1320   43.6440 C   0  0  0  0  0  0  0  0  0  0  0  0
   37.2100   32.7380   42.9670 C   0  0  0  0  0  0  0  0  0  0  0  0
   37.4480   33.0810   41.6260 C   0  0  0  0  0  0  0  0  0  0  0  0
   38.6540   32.7880   41.0760 C   0  0  0  0  0  0  0  0  0  0  0  0
   39.0020   33.1930   39.4100 Cl  0  0  0  0  0  0  0  0  0  0  0  0
   39.6440   32.1550   41.8250 C   0  0  0  0  0  0  0  0  0  0  0  0
   36.2290   33.0010   43.3390 H   0  0  0  0  0  0  0  0  0  0  0  0
   36.7260   33.5650   41.0090 H   0  0  0  0  0  0  0  0  0  0  0  0
   40.5920   31.9410   41.3440 H   0  0  0  0  0  0  0  0  0  0  0  0
   35.6380   29.4040   50.5140 C   0  0  0  0  0  0  0  0  0  0  0  0
   36.3900   30.1660   49.6070 C   0  0  0  0  0  0  0  0  0  0  0  0
   36.1190   30.0020   48.2340 C   0  0  0  0  0  0  0  0  0  0  0  0
   35.1780   29.1460   47.8710 N   0  0  0  0  0  0  0  0  0  0  0  0
   34.4700   28.4280   48.7500 C   0  0  0  0  0  0  0  0  0  0  0  0
   34.7010   28.5600   50.0560 N   0  0  0  0  0  0  0  0  0  0  0  0
   35.8830   29.5660   51.5530 H   0  0  0  0  0  0  0  0  0  0  0  0
   37.1690   30.8740   49.8900 H   0  0  0  0  0  0  0  0  0  0  0  0
   33.4590   27.5170   48.2430 C   0  0  0  0  0  0  0  0  0  0  0  0
   33.7840   26.3670   47.8730 O   0  0  0  0  0  0  0  0  0  0  0  0
   32.0430   27.9650   48.1700 C   0  0  0  0  0  0  0  0  0  0  0  0
   31.6540   28.2740   46.7280 C   0  0  0  0  0  0  0  0  0  0  0  0
   30.2650   28.9160   46.8290 C   0  0  0  0  0  0  0  0  0  0  0  0
   29.3370   27.8190   47.2610 C   0  0  0  0  0  0  0  0  0  0  0  0
   29.7030   27.1560   48.5480 C   0  0  0  0  0  0  0  0  0  0  0  0
   31.1620   26.8740   48.7240 C   0  0  0  0  0  0  0  0  0  0  0  0
  1  2  2  0  0  0  0
  1 21  1  0  0  0  0
  2  6  1  0  0  0  0
  3  2  1  0  0  0  0
  4  5  1  0  0  0  0
  4  3  2  0  0  0  0
  5  1  1  0  0  0  0
  7  3  1  0  0  0  0
  9 10  1  0  0  0  0
  9  8  1  0  0  0  0
 10  4  1  0  0  0  0
 11 16  1  0  0  0  0
 11 10  2  0  0  0  0
 12 11  1  0  0  0  0
 13 12  2  0  0  0  0
 13 15  1  0  0  0  0
 14 13  1  0  0  0  0
 15  9  2  0  0  0  0
 17 12  1  0  0  0  0
 18 15  1  0  0  0  0
 19 25  1  0  0  0  0
 20 26  1  0  0  0  0
 20 19  2  0  0  0  0
 21 20  1  0  0  0  0
 22 21  2  0  0  0  0
 22 23  1  0  0  0  0
 23 24  2  0  0  0  0
 24 19  1  0  0  0  0
 27 23  1  0  0  0  0
 28 27  2  0  0  0  0
 29 27  1  0  0  0  0
 29 34  1  0  0  0  0
 30 31  1  0  0  0  0
 30 29  1  0  0  0  0
 31 32  1  0  0  0  0
 32 33  1  0  0  0  0
 33 34  1  0  0  0  0
M  END
>  <minimizedAffinity>
-5.86667252

>  <minimizedRMSD>
2.72288656

$$$$
