
 OpenBabel03272507303D

 26 28  0  0  0  0  0  0  0  0999 V2000
   35.8810   29.2220   49.7780 C   0  0  0  0  0  0  0  0  0  0  0  0
   34.8290   29.7440   50.4660 C   0  0  0  0  0  0  0  0  0  0  0  0
   33.6670   29.1320   49.9710 C   0  0  0  0  0  0  0  0  0  0  0  0
   34.1110   28.2480   48.9790 C   0  0  0  0  0  0  0  0  0  0  0  0
   35.3970   28.3540   48.9240 O   0  0  0  0  0  0  0  0  0  0  0  0
   34.7550   30.4840   51.2580 H   0  0  0  0  0  0  0  0  0  0  0  0
   32.6380   29.2910   50.2720 H   0  0  0  0  0  0  0  0  0  0  0  0
   37.2480   29.6200   50.0220 C   0  0  0  0  0  0  0  0  0  0  0  0
   37.8710   29.0560   50.9490 O   0  0  0  0  0  0  0  0  0  0  0  0
   37.8170   30.6460   49.1790 C   0  0  0  0  0  0  0  0  0  0  0  0
   38.1390   31.8560   49.7780 C   0  0  0  0  0  0  0  0  0  0  0  0
   38.6860   32.8560   48.9880 C   0  0  0  0  0  0  0  0  0  0  0  0
   38.8800   32.6060   47.6680 N   0  0  0  0  0  0  0  0  0  0  0  0
   38.5600   31.4260   47.1080 C   0  0  0  0  0  0  0  0  0  0  0  0
   38.0310   30.4550   47.8620 N   0  0  0  0  0  0  0  0  0  0  0  0
   38.0060   32.1070   50.8250 H   0  0  0  0  0  0  0  0  0  0  0  0
   38.9500   33.8170   49.4290 H   0  0  0  0  0  0  0  0  0  0  0  0
   38.7040   31.2000   46.0580 H   0  0  0  0  0  0  0  0  0  0  0  0
   33.2320   27.3860   48.1820 C   0  0  0  0  0  0  0  0  0  0  0  0
   32.0050   27.2810   48.4900 O   0  0  0  0  0  0  0  0  0  0  0  0
   33.8220   26.6580   47.0270 C   0  0  0  0  0  3  0  0  0  0  0  0
   33.1330   27.0560   45.7550 C   0  0  0  0  0  2  0  0  0  0  0  0
   33.3330   26.0760   44.6310 C   0  0  0  0  0  2  0  0  0  0  0  0
   33.1190   24.6480   45.0530 C   0  0  0  0  0  2  0  0  0  0  0  0
   34.1820   24.3820   46.1180 C   0  0  0  0  0  2  0  0  0  0  0  0
   33.7620   25.2030   47.3280 C   0  0  0  0  0  2  0  0  0  0  0  0
  1  8  1  0  0  0  0
  1  2  2  0  0  0  0
  2  6  1  0  0  0  0
  3  7  1  0  0  0  0
  3  2  1  0  0  0  0
  4  3  2  0  0  0  0
  5  4  1  0  0  0  0
  5  1  1  0  0  0  0
  8  9  2  0  0  0  0
 10 11  1  0  0  0  0
 10  8  1  0  0  0  0
 11 16  1  0  0  0  0
 12 17  1  0  0  0  0
 12 11  2  0  0  0  0
 13 12  1  0  0  0  0
 14 13  2  0  0  0  0
 14 15  1  0  0  0  0
 15 10  2  0  0  0  0
 18 14  1  0  0  0  0
 19 20  2  0  0  0  0
 19  4  1  0  0  0  0
 21 26  1  0  0  0  0
 21 19  1  0  0  0  0
 22 21  1  0  0  0  0
 23 24  1  0  0  0  0
 23 22  1  0  0  0  0
 24 25  1  0  0  0  0
 25 26  1  0  0  0  0
M  END
>  <minimizedAffinity>
-5.21780348

>  <minimizedRMSD>
1.0803467

$$$$
