
 OpenBabel03262520423D

 18 19  0  0  0  0  0  0  0  0999 V2000
   37.6630   30.4790   50.9450 C   0  0  0  0  0  0  0  0  0  0  0  0
   38.0390   31.2850   49.8440 C   0  0  0  0  0  0  0  0  0  0  0  0
   37.4950   30.9430   48.5940 C   0  0  0  0  0  0  0  0  0  0  0  0
   36.6560   29.8850   48.4960 N   0  0  0  0  0  0  0  0  0  0  0  0
   36.3280   29.1470   49.5790 C   0  0  0  0  0  0  0  0  0  0  0  0
   36.8350   29.4510   50.7940 N   0  0  0  0  0  0  0  0  0  0  0  0
   38.0630   30.7120   51.9300 H   0  0  0  0  0  0  0  0  0  0  0  0
   38.7060   32.0990   50.0120 H   0  0  0  0  0  0  0  0  0  0  0  0
   35.6460   28.3150   49.4000 H   0  0  0  0  0  0  0  0  0  0  0  0
   37.8940   31.7920   47.4450 C   0  0  0  0  0  0  0  0  0  0  0  0
   37.0920   31.6500   46.6890 H   0  0  0  0  0  0  0  0  0  0  0  0
   37.8850   32.8580   47.6960 H   0  0  0  0  0  0  0  0  0  0  0  0
   39.2380   31.4660   46.8750 C   0  0  0  0  0  3  0  0  0  0  0  0
   39.8180   32.7830   46.3710 C   0  0  0  0  0  2  0  0  0  0  0  0
   40.7690   32.5580   45.2260 C   0  0  0  0  0  2  0  0  0  0  0  0
   39.9590   32.0950   44.0330 C   0  0  0  0  0  2  0  0  0  0  0  0
   38.9230   31.0730   44.4190 C   0  0  0  0  0  2  0  0  0  0  0  0
   39.2080   30.4490   45.7670 C   0  0  0  0  0  2  0  0  0  0  0  0
  1  7  1  0  0  0  0
  2  8  1  0  0  0  0
  2  1  2  0  0  0  0
  3  2  1  0  0  0  0
  4  3  2  0  0  0  0
  4  5  1  0  0  0  0
  5  6  2  0  0  0  0
  6  1  1  0  0  0  0
  9  5  1  0  0  0  0
 10 12  1  0  0  0  0
 10  3  1  0  0  0  0
 11 10  1  0  0  0  0
 13 10  1  0  0  0  0
 14 13  1  0  0  0  0
 15 14  1  0  0  0  0
 16 17  1  0  0  0  0
 16 15  1  0  0  0  0
 17 18  1  0  0  0  0
 18 13  1  0  0  0  0
M  END
>  <minimizedAffinity>
-4.84845352

>  <minimizedRMSD>
1.38266921

$$$$
