
 OpenBabel03272500573D

 32 34  0  0  0  0  0  0  0  0999 V2000
   38.1600   31.7990   47.3300 C   0  0  0  0  0  0  0  0  0  0  0  0
   38.7550   32.4450   48.3710 C   0  0  0  0  0  0  0  0  0  0  0  0
   38.2490   32.4070   49.6690 C   0  0  0  0  0  0  0  0  0  0  0  0
   37.0390   31.6420   49.8920 C   0  0  0  0  0  0  0  0  0  0  0  0
   36.4930   31.0200   48.8140 C   0  0  0  0  0  0  0  0  0  0  0  0
   36.9840   31.0640   47.5740 C   0  0  0  0  0  0  0  0  0  0  0  0
   39.6670   33.0320   48.2430 H   0  0  0  0  0  0  0  0  0  0  0  0
   38.7750   32.9510   50.4670 H   0  0  0  0  0  0  0  0  0  0  0  0
   36.7620   31.6970   50.9290 H   0  0  0  0  0  0  0  0  0  0  0  0
   35.6360   30.5000   49.2120 H   0  0  0  0  0  0  0  0  0  0  0  0
   40.0460   31.2150   45.8890 C   0  0  0  0  0  0  0  0  0  0  0  0
   38.8220   31.9130   46.0510 C   0  0  0  0  0  0  0  0  0  0  0  0
   38.4170   32.6080   44.9420 C   0  0  0  0  0  0  0  0  0  0  0  0
   39.1440   32.6060   43.8170 N   0  0  0  0  0  0  0  0  0  0  0  0
   40.2800   31.9510   43.6820 C   0  0  0  0  0  0  0  0  0  0  0  0
   40.7200   31.2610   44.7220 N   0  0  0  0  0  0  0  0  0  0  0  0
   40.4260   30.6400   46.7340 H   0  0  0  0  0  0  0  0  0  0  0  0
   37.4890   33.1430   45.0520 H   0  0  0  0  0  0  0  0  0  0  0  0
   40.9290   31.8880   42.8320 H   0  0  0  0  0  0  0  0  0  0  0  0
   34.9650   30.1770   46.7600 C   0  0  0  0  0  0  0  0  0  0  0  0
   34.4700   30.5220   47.9060 O   0  0  0  0  0  0  0  0  0  0  0  0
   36.3670   30.4320   46.5260 N   0  0  0  0  0  0  0  0  0  0  0  0
   36.8340   30.1590   45.6630 H   0  0  0  0  0  0  0  0  0  0  0  0
   34.1400   29.5940   45.8410 O   0  0  0  0  0  0  0  0  0  0  0  0
   32.7690   29.4190   45.9950 C   0  0  0  0  0  0  0  0  0  0  0  0
   31.9350   30.4360   46.0250 O   0  0  0  0  0  0  0  0  0  0  0  0
   32.0260   28.1380   46.1220 C   0  0  0  0  0  0  0  0  0  0  0  0
   32.9310   27.0760   46.6330 C   0  0  0  0  0  0  0  0  0  0  0  0
   33.2690   27.1890   48.0860 C   0  0  0  0  0  0  0  0  0  0  0  0
   32.1630   27.7990   48.9090 C   0  0  0  0  0  0  0  0  0  0  0  0
   30.8570   27.4770   48.1880 C   0  0  0  0  0  0  0  0  0  0  0  0
   30.7960   28.3540   46.9670 C   0  0  0  0  0  0  0  0  0  0  0  0
  1  6  2  0  0  0  0
  1  2  1  0  0  0  0
  2  3  2  0  0  0  0
  3  4  1  0  0  0  0
  3  8  1  0  0  0  0
  4  9  1  0  0  0  0
  5 10  1  0  0  0  0
  5  4  2  0  0  0  0
  6  5  1  0  0  0  0
  7  2  1  0  0  0  0
 11 12  1  0  0  0  0
 11 17  1  0  0  0  0
 12  1  1  0  0  0  0
 13 18  1  0  0  0  0
 13 12  2  0  0  0  0
 14 13  1  0  0  0  0
 15 14  2  0  0  0  0
 15 16  1  0  0  0  0
 16 11  2  0  0  0  0
 19 15  1  0  0  0  0
 20 21  2  0  0  0  0
 22 20  1  0  0  0  0
 22  6  1  0  0  0  0
 23 22  1  0  0  0  0
 24 25  1  0  0  0  0
 24 20  1  0  0  0  0
 25 26  2  0  0  0  0
 25 27  1  0  0  0  0
 27 28  1  0  0  0  0
 27 32  1  0  0  0  0
 28 29  1  0  0  0  0
 29 30  1  0  0  0  0
 31 30  1  0  0  0  0
 32 31  1  0  0  0  0
M  END
>  <minimizedAffinity>
-6.08504868

>  <minimizedRMSD>
1.21854305

$$$$
