
 OpenBabel03272504223D

 36 38  0  0  1  0  0  0  0  0999 V2000
   36.7990   31.5730   48.7160 O   0  0  0  0  0  0  0  0  0  0  0  0
   38.7800   32.3510   47.7780 C   0  0  2  0  0  0  0  0  0  0  0  0
   38.1590   31.3550   48.7360 C   0  0  1  0  0  0  0  0  0  0  0  0
   38.7510   31.9050   50.0420 C   0  0  0  0  0  0  0  0  0  0  0  0
   38.4320   33.2460   49.9270 O   0  0  0  0  0  0  0  0  0  0  0  0
   38.6440   33.6170   48.6160 C   0  0  0  0  0  0  0  0  0  0  0  0
   39.8510   32.1560   47.6050 H   0  0  0  0  0  0  0  0  0  0  0  0
   38.4660   30.3190   48.5630 H   0  0  0  0  0  0  0  0  0  0  0  0
   39.8280   31.7150   50.0210 H   0  0  0  0  0  0  0  0  0  0  0  0
   38.2070   31.4090   50.8720 H   0  0  0  0  0  0  0  0  0  0  0  0
   39.5120   34.2800   48.4710 H   0  0  0  0  0  0  0  0  0  0  0  0
   37.7540   34.2250   48.3100 H   0  0  0  0  0  0  0  0  0  0  0  0
   38.0060   32.3920   46.6300 O   0  0  0  0  0  0  0  0  0  0  0  0
   38.8020   31.9980   45.5610 C   0  0  0  0  0  3  0  0  0  0  0  0
   39.2170   33.1250   44.6790 C   0  0  0  0  0  2  0  0  0  0  0  0
   39.6510   32.5580   43.3410 C   0  0  0  0  0  2  0  0  0  0  0  0
   40.3480   31.2540   43.5420 C   0  0  0  0  0  2  0  0  0  0  0  0
   41.0180   31.1420   44.8940 C   0  0  0  0  0  2  0  0  0  0  0  0
   40.0770   31.3050   46.0480 C   0  0  0  0  0  2  0  0  0  0  0  0
   35.8310   29.8540   47.0220 O   0  0  0  0  0  0  0  0  0  0  0  0
   35.9090   30.1620   48.4860 P   0  0  1  0  0  0  0  0  0  0  0  0
   36.7120   28.8470   49.2570 O   0  0  0  0  0  0  0  0  0  0  0  0
   37.4380   29.2030   49.8450 H   0  0  0  0  0  0  0  0  0  0  0  0
   34.3590   30.3320   49.1510 O   0  0  0  0  0  0  0  0  0  0  0  0
   34.0920   29.1720   49.8600 C   0  0  0  0  0  0  0  0  0  0  0  0
   33.5810   29.4020   50.8400 H   0  0  0  0  0  0  0  0  0  0  0  0
   35.0000   28.6050   50.1620 H   0  0  0  0  0  0  0  0  0  0  0  0
   33.2300   28.2230   49.1230 C   0  0  0  0  0  0  0  0  0  0  0  0
   33.8620   27.3350   48.2830 C   0  0  0  0  0  0  0  0  0  0  0  0
   33.1050   26.4110   47.5570 C   0  0  0  0  0  0  0  0  0  0  0  0
   31.7540   26.4520   47.7340 N   0  0  0  0  0  0  0  0  0  0  0  0
   31.1560   27.3300   48.5620 C   0  0  0  0  0  0  0  0  0  0  0  0
   31.8930   28.2200   49.2600 N   0  0  0  0  0  0  0  0  0  0  0  0
   34.9150   27.2300   48.0810 H   0  0  0  0  0  0  0  0  0  0  0  0
   33.5230   25.6790   46.8740 H   0  0  0  0  0  0  0  0  0  0  0  0
   30.0710   27.3020   48.6520 H   0  0  0  0  0  0  0  0  0  0  0  0
  1  3  1  0  0  0  0
  2  7  1  6  0  0  0
  2  6  1  0  0  0  0
  2  3  1  0  0  0  0
  3  8  1  6  0  0  0
  3  4  1  0  0  0  0
  4 10  1  0  0  0  0
  5  4  1  0  0  0  0
  6  5  1  0  0  0  0
  9  4  1  0  0  0  0
 11  6  1  0  0  0  0
 12  6  1  0  0  0  0
 13  2  1  0  0  0  0
 14 19  1  0  0  0  0
 14 13  1  0  0  0  0
 15 14  1  0  0  0  0
 16 17  1  0  0  0  0
 16 15  1  0  0  0  0
 17 18  1  0  0  0  0
 18 19  1  0  0  0  0
 21 20  2  6  0  0  0
 21  1  1  0  0  0  0
 21 24  1  0  0  0  0
 21 22  1  0  0  0  0
 22 23  1  0  0  0  0
 24 25  1  0  0  0  0
 25 27  1  0  0  0  0
 25 26  1  0  0  0  0
 28 33  1  0  0  0  0
 28 25  1  0  0  0  0
 29 28  2  0  0  0  0
 30 31  2  0  0  0  0
 30 29  1  0  0  0  0
 31 32  1  0  0  0  0
 32 36  1  0  0  0  0
 32 33  2  0  0  0  0
 34 29  1  0  0  0  0
 35 30  1  0  0  0  0
M  END
>  <minimizedAffinity>
-5.04111624

>  <minimizedRMSD>
0.294473529

$$$$
