
 OpenBabel03272509183D

 30 32  0  0  0  0  0  0  0  0999 V2000
   38.1320   31.3420   47.8640 C   0  0  0  0  0  0  0  0  0  0  0  0
   37.2430   31.5470   48.9150 C   0  0  0  0  0  0  0  0  0  0  0  0
   37.4210   32.7550   49.6200 C   0  0  0  0  0  0  0  0  0  0  0  0
   38.4370   33.6500   49.2440 C   0  0  0  0  0  0  0  0  0  0  0  0
   39.2730   33.3500   48.1780 C   0  0  0  0  0  0  0  0  0  0  0  0
   39.1220   32.1810   47.4740 C   0  0  0  0  0  0  0  0  0  0  0  0
   36.7270   32.9060   50.4320 H   0  0  0  0  0  0  0  0  0  0  0  0
   38.4320   34.5050   49.8760 H   0  0  0  0  0  0  0  0  0  0  0  0
   39.9620   34.1630   48.0750 H   0  0  0  0  0  0  0  0  0  0  0  0
   35.1070   30.4330   48.4370 C   0  0  0  0  0  0  0  0  0  0  0  0
   36.2130   30.6220   49.2810 C   0  0  0  0  0  0  0  0  0  0  0  0
   36.2610   29.8870   50.4630 C   0  0  0  0  0  0  0  0  0  0  0  0
   35.2410   29.0290   50.7400 N   0  0  0  0  0  0  0  0  0  0  0  0
   34.1840   28.8750   49.8940 C   0  0  0  0  0  0  0  0  0  0  0  0
   34.1210   29.5750   48.7480 N   0  0  0  0  0  0  0  0  0  0  0  0
   35.0710   31.0040   47.5200 H   0  0  0  0  0  0  0  0  0  0  0  0
   33.3840   28.1840   50.1390 H   0  0  0  0  0  0  0  0  0  0  0  0
   37.3940   30.0400   51.3870 C   0  0  0  0  0  0  0  0  0  0  0  0
   37.5650   31.1230   51.5880 H   0  0  0  0  0  0  0  0  0  0  0  0
   37.1340   29.5390   52.3450 H   0  0  0  0  0  0  0  0  0  0  0  0
   38.3200   29.5370   51.0360 H   0  0  0  0  0  0  0  0  0  0  0  0
   38.0150   30.1630   47.1190 O   0  0  0  0  0  0  0  0  0  0  0  0
   37.5770   30.1250   46.2130 H   0  0  0  0  0  0  0  0  0  0  0  0
   39.9640   31.9220   46.4260 O   0  0  0  0  0  0  0  0  0  0  0  0
   39.8100   32.3840   45.1290 C   0  0  0  0  0  3  0  0  0  0  0  0
   38.3730   32.6420   44.7500 C   0  0  0  0  0  2  0  0  0  0  0  0
   37.7900   31.6060   43.8460 C   0  0  0  0  0  2  0  0  0  0  0  0
   38.6220   31.2960   42.6400 C   0  0  0  0  0  2  0  0  0  0  0  0
   40.0680   31.6100   42.7670 C   0  0  0  0  0  2  0  0  0  0  0  0
   40.4730   31.3960   44.1910 C   0  0  0  0  0  2  0  0  0  0  0  0
  1  2  1  0  0  0  0
  2 11  1  0  0  0  0
  2  3  2  0  0  0  0
  3  7  1  0  0  0  0
  4  3  1  0  0  0  0
  4  8  1  0  0  0  0
  5  4  2  0  0  0  0
  6  1  2  0  0  0  0
  6  5  1  0  0  0  0
  9  5  1  0  0  0  0
 10 15  2  0  0  0  0
 10 11  1  0  0  0  0
 11 12  2  0  0  0  0
 12 13  1  0  0  0  0
 12 18  1  0  0  0  0
 14 17  1  0  0  0  0
 14 13  2  0  0  0  0
 15 14  1  0  0  0  0
 16 10  1  0  0  0  0
 18 19  1  0  0  0  0
 18 20  1  0  0  0  0
 21 18  1  0  0  0  0
 22  1  1  0  0  0  0
 23 22  1  0  0  0  0
 24  6  1  0  0  0  0
 25 24  1  0  0  0  0
 26 25  1  0  0  0  0
 27 26  1  0  0  0  0
 28 29  1  0  0  0  0
 28 27  1  0  0  0  0
 29 30  1  0  0  0  0
 30 25  1  0  0  0  0
M  END
>  <minimizedAffinity>
-6.61023474

>  <minimizedRMSD>
2.74235344

$$$$
