
 OpenBabel03262522003D

 17 18  0  0  0  0  0  0  0  0999 V2000
   35.1570   30.2290   46.6750 C   0  0  0  0  0  0  0  0  0  0  0  0
   35.4270   29.9880   45.3290 C   0  0  0  0  0  0  0  0  0  0  0  0
   34.3520   29.8530   44.4480 C   0  0  0  0  0  0  0  0  0  0  0  0
   33.0910   29.9670   44.9600 N   0  0  0  0  0  0  0  0  0  0  0  0
   32.8560   30.1980   46.2540 C   0  0  0  0  0  0  0  0  0  0  0  0
   33.8990   30.3240   47.0840 N   0  0  0  0  0  0  0  0  0  0  0  0
   36.4440   29.9000   44.9340 H   0  0  0  0  0  0  0  0  0  0  0  0
   34.4890   29.6690   43.4130 H   0  0  0  0  0  0  0  0  0  0  0  0
   31.8270   30.2790   46.6060 H   0  0  0  0  0  0  0  0  0  0  0  0
   36.2830   30.3680   47.5840 C   0  0  0  0  0  0  0  0  0  0  0  0
   37.4800   30.4520   47.1620 O   0  0  0  0  0  0  0  0  0  0  0  0
   35.9420   30.4060   49.0520 C   0  0  0  0  0  0  0  0  0  0  0  0
   36.6900   31.5110   49.6750 C   0  0  0  0  0  0  0  0  0  0  0  0
   37.4080   31.2290   50.9430 C   0  0  0  0  0  0  0  0  0  0  0  0
   37.0740   29.8990   51.5750 C   0  0  0  0  0  0  0  0  0  0  0  0
   37.3510   28.8710   50.4740 C   0  0  0  0  0  0  0  0  0  0  0  0
   36.1240   29.0330   49.5670 C   0  0  0  0  0  0  0  0  0  0  0  0
  1  6  1  0  0  0  0
  1 10  1  0  0  0  0
  2  1  2  0  0  0  0
  3  4  2  0  0  0  0
  3  2  1  0  0  0  0
  4  5  1  0  0  0  0
  5  9  1  0  0  0  0
  5  6  2  0  0  0  0
  7  2  1  0  0  0  0
  8  3  1  0  0  0  0
 10 12  1  0  0  0  0
 11 10  2  0  0  0  0
 12 17  1  0  0  0  0
 12 13  1  0  0  0  0
 13 14  1  0  0  0  0
 14 15  1  0  0  0  0
 16 15  1  0  0  0  0
 17 16  1  0  0  0  0
M  END
>  <minimizedAffinity>
-4.38931036

>  <minimizedRMSD>
4.5744586

$$$$
