
 OpenBabel03272508573D

 37 40  0  0  1  0  0  0  0  0999 V2000
   38.3350   31.9150   44.4860 C   0  0  0  0  0  0  0  0  0  0  0  0
   37.2270   32.4520   44.3990 O   0  0  0  0  0  0  0  0  0  0  0  0
   38.9170   31.6480   45.7870 N   0  0  0  0  0  0  0  0  0  0  0  0
   39.8950   31.3940   45.9450 H   0  0  0  0  0  0  0  0  0  0  0  0
   39.1090   31.5240   43.2930 C   0  0  0  0  0  0  0  0  0  0  0  0
   40.1410   30.6280   43.4470 C   0  0  0  0  0  0  0  0  0  0  0  0
   40.8570   30.2770   42.3090 C   0  0  0  0  0  0  0  0  0  0  0  0
   40.4990   30.8360   41.1180 C   0  0  0  0  0  0  0  0  0  0  0  0
   39.4660   31.7340   40.9540 C   0  0  0  0  0  0  0  0  0  0  0  0
   38.7890   32.0540   42.0880 N   0  0  0  0  0  0  0  0  0  0  0  0
   40.4080   30.1940   44.4080 H   0  0  0  0  0  0  0  0  0  0  0  0
   41.6580   29.5760   42.4560 H   0  0  0  0  0  0  0  0  0  0  0  0
   41.1210   30.4850   40.3160 H   0  0  0  0  0  0  0  0  0  0  0  0
   39.0740   32.3120   39.6580 C   0  0  2  0  0  3  0  0  0  0  0  0
   38.9960   33.5960   39.6110 O   0  0  0  0  0  1  0  0  0  0  0  0
   38.7350   31.6820   38.3560 C   0  0  0  0  0  3  0  0  0  0  0  0
   38.0190   30.4130   38.5780 C   0  0  0  0  0  2  0  0  0  0  0  0
   37.0670   30.1720   37.3980 C   0  0  0  0  0  2  0  0  0  0  0  0
   35.9770   31.2240   37.5900 C   0  0  0  0  0  2  0  0  0  0  0  0
   36.5420   32.6120   37.4490 C   0  0  0  0  0  2  0  0  0  0  0  0
   38.0340   32.6580   37.4410 C   0  0  0  0  0  2  0  0  0  0  0  0
   38.4370   31.1010   48.1670 C   0  0  2  0  0  0  0  0  0  0  0  0
   38.6890   32.5640   48.1010 C   0  0  0  0  0  0  0  0  0  0  0  0
   38.0690   31.7450   46.9490 C   0  0  1  0  0  0  0  0  0  0  0  0
   39.3620   30.4950   48.2480 H   0  0  0  0  0  0  0  0  0  0  0  0
   39.7060   32.9270   47.9750 H   0  0  0  0  0  0  0  0  0  0  0  0
   38.0340   33.1960   48.7160 H   0  0  0  0  0  0  0  0  0  0  0  0
   36.9990   32.0220   46.7850 H   0  0  0  0  0  0  0  0  0  0  0  0
   35.0730   30.2300   49.4930 C   0  0  0  0  0  0  0  0  0  0  0  0
   35.4090   29.5390   50.7090 C   0  0  0  0  0  0  0  0  0  0  0  0
   36.8080   29.4010   51.0440 C   0  0  0  0  0  0  0  0  0  0  0  0
   37.7660   29.9230   50.2080 N   0  0  0  0  0  0  0  0  0  0  0  0
   37.3530   30.5630   49.0720 C   0  0  0  0  0  0  0  0  0  0  0  0
   36.0290   30.7350   48.6850 N   0  0  0  0  0  0  0  0  0  0  0  0
   34.0350   30.3170   49.2690 H   0  0  0  0  0  0  0  0  0  0  0  0
   34.6680   29.1350   51.3570 H   0  0  0  0  0  0  0  0  0  0  0  0
   37.0590   28.8900   51.9450 H   0  0  0  0  0  0  0  0  0  0  0  0
  1  3  1  0  0  0  0
  2  1  2  0  0  0  0
  3  4  1  0  0  0  0
  3 24  1  0  0  0  0
  5  6  1  0  0  0  0
  5  1  1  0  0  0  0
  6 11  1  0  0  0  0
  7 12  1  0  0  0  0
  7  6  2  0  0  0  0
  8  7  1  0  0  0  0
  9  8  2  0  0  0  0
  9 10  1  0  0  0  0
 10  5  2  0  0  0  0
 13  8  1  0  0  0  0
 14 15  1  1  0  0  0
 14  9  1  0  0  0  0
 16 17  1  0  0  0  0
 16 14  1  0  0  0  0
 18 19  1  0  0  0  0
 18 17  1  0  0  0  0
 20 19  1  0  0  0  0
 21 20  1  0  0  0  0
 21 16  1  0  0  0  0
 22 25  1  6  0  0  0
 22 33  1  0  0  0  0
 23 22  1  0  0  0  0
 23 27  1  0  0  0  0
 24 28  1  6  0  0  0
 24 23  1  0  0  0  0
 24 22  1  0  0  0  0
 26 23  1  0  0  0  0
 29 30  1  0  0  0  0
 30 31  2  0  0  0  0
 30 36  1  0  0  0  0
 31 37  1  0  0  0  0
 32 31  1  0  0  0  0
 33 32  2  0  0  0  0
 34 33  1  0  0  0  0
 34 29  2  0  0  0  0
 35 29  1  0  0  0  0
M  END
>  <minimizedAffinity>
-4.87928677

>  <minimizedRMSD>
0.299348384

$$$$
