
 OpenBabel03272508573D

 37 40  0  0  1  0  0  0  0  0999 V2000
   38.3540   31.9010   44.4990 C   0  0  0  0  0  0  0  0  0  0  0  0
   37.2560   32.4570   44.4070 O   0  0  0  0  0  0  0  0  0  0  0  0
   38.9220   31.6180   45.8040 N   0  0  0  0  0  0  0  0  0  0  0  0
   39.8940   31.3480   45.9670 H   0  0  0  0  0  0  0  0  0  0  0  0
   39.1300   31.5040   43.3110 C   0  0  0  0  0  0  0  0  0  0  0  0
   40.1170   30.5570   43.4590 C   0  0  0  0  0  0  0  0  0  0  0  0
   40.8350   30.2000   42.3250 C   0  0  0  0  0  0  0  0  0  0  0  0
   40.5250   30.8040   41.1420 C   0  0  0  0  0  0  0  0  0  0  0  0
   39.5390   31.7530   40.9840 C   0  0  0  0  0  0  0  0  0  0  0  0
   38.8570   32.0770   42.1140 N   0  0  0  0  0  0  0  0  0  0  0  0
   40.3460   30.0870   44.4140 H   0  0  0  0  0  0  0  0  0  0  0  0
   41.6010   29.4590   42.4680 H   0  0  0  0  0  0  0  0  0  0  0  0
   41.1450   30.4440   40.3430 H   0  0  0  0  0  0  0  0  0  0  0  0
   39.1970   32.3800   39.6970 C   0  0  2  0  0  3  0  0  0  0  0  0
   38.7030   33.5680   39.7580 O   0  0  0  0  0  1  0  0  0  0  0  0
   39.3100   31.8930   38.2970 C   0  0  0  0  0  3  0  0  0  0  0  0
   38.1970   32.4140   37.4860 C   0  0  0  0  0  2  0  0  0  0  0  0
   38.6710   32.5640   36.0350 C   0  0  0  0  0  2  0  0  0  0  0  0
   39.6430   33.7420   36.0900 C   0  0  0  0  0  2  0  0  0  0  0  0
   40.8410   33.4080   36.9360 C   0  0  0  0  0  2  0  0  0  0  0  0
   40.6870   32.1580   37.7350 C   0  0  0  0  0  2  0  0  0  0  0  0
   38.4320   31.0950   48.1870 C   0  0  2  0  0  0  0  0  0  0  0  0
   38.6760   32.5590   48.1060 C   0  0  0  0  0  0  0  0  0  0  0  0
   38.0670   31.7230   46.9600 C   0  0  1  0  0  0  0  0  0  0  0  0
   39.3600   30.4950   48.2800 H   0  0  0  0  0  0  0  0  0  0  0  0
   39.6920   32.9250   47.9810 H   0  0  0  0  0  0  0  0  0  0  0  0
   38.0150   33.1940   48.7100 H   0  0  0  0  0  0  0  0  0  0  0  0
   36.9970   31.9920   46.7870 H   0  0  0  0  0  0  0  0  0  0  0  0
   35.0650   30.2350   49.5130 C   0  0  0  0  0  0  0  0  0  0  0  0
   35.3980   29.5440   50.7300 C   0  0  0  0  0  0  0  0  0  0  0  0
   36.7960   29.4030   51.0650 C   0  0  0  0  0  0  0  0  0  0  0  0
   37.7560   29.9200   50.2290 N   0  0  0  0  0  0  0  0  0  0  0  0
   37.3460   30.5620   49.0920 C   0  0  0  0  0  0  0  0  0  0  0  0
   36.0230   30.7360   48.7040 N   0  0  0  0  0  0  0  0  0  0  0  0
   34.0270   30.3250   49.2880 H   0  0  0  0  0  0  0  0  0  0  0  0
   34.6560   29.1430   51.3770 H   0  0  0  0  0  0  0  0  0  0  0  0
   37.0450   28.8910   51.9670 H   0  0  0  0  0  0  0  0  0  0  0  0
  1  3  1  0  0  0  0
  2  1  2  0  0  0  0
  3  4  1  0  0  0  0
  3 24  1  0  0  0  0
  5  6  1  0  0  0  0
  5  1  1  0  0  0  0
  6 11  1  0  0  0  0
  7 12  1  0  0  0  0
  7  6  2  0  0  0  0
  8  7  1  0  0  0  0
  9  8  2  0  0  0  0
  9 10  1  0  0  0  0
 10  5  2  0  0  0  0
 13  8  1  0  0  0  0
 14 15  1  1  0  0  0
 14  9  1  0  0  0  0
 16 14  1  0  0  0  0
 17 16  1  0  0  0  0
 18 19  1  0  0  0  0
 18 17  1  0  0  0  0
 19 20  1  0  0  0  0
 20 21  1  0  0  0  0
 21 16  1  0  0  0  0
 22 25  1  6  0  0  0
 22 33  1  0  0  0  0
 23 22  1  0  0  0  0
 23 27  1  0  0  0  0
 24 28  1  6  0  0  0
 24 23  1  0  0  0  0
 24 22  1  0  0  0  0
 26 23  1  0  0  0  0
 29 30  1  0  0  0  0
 30 31  2  0  0  0  0
 30 36  1  0  0  0  0
 31 37  1  0  0  0  0
 32 31  1  0  0  0  0
 33 32  2  0  0  0  0
 34 33  1  0  0  0  0
 34 29  2  0  0  0  0
 35 29  1  0  0  0  0
M  END
>  <minimizedAffinity>
-4.98590565

>  <minimizedRMSD>
0.777842999

$$$$
