
 OpenBabel03262521223D

 30 31  0  0  0  0  0  0  0  0999 V2000
   37.4470   25.9690   31.6670 C   0  0  0  0  0  0  0  0  0  0  0  0
   36.9440   26.9020   31.2790 H   0  0  0  0  0  0  0  0  0  0  0  0
   36.6540   25.4980   32.2890 H   0  0  0  0  0  0  0  0  0  0  0  0
   37.9950   25.1680   30.7290 C   0  0  0  0  0  0  0  0  0  0  0  0
   37.8320   25.5560   29.6790 H   0  0  0  0  0  0  0  0  0  0  0  0
   39.1330   25.0990   30.7100 H   0  0  0  0  0  0  0  0  0  0  0  0
   37.5480   23.7500   30.7240 C   0  0  0  0  0  0  0  0  0  0  0  0
   37.6140   23.2590   29.7090 H   0  0  0  0  0  0  0  0  0  0  0  0
   38.2900   23.1530   31.3340 H   0  0  0  0  0  0  0  0  0  0  0  0
   35.9430   23.4450   31.3800 S   0  0  0  0  0  0  0  0  0  0  0  0
   35.5780   21.7840   31.9020 C   0  0  0  0  0  3  0  0  0  0  0  0
   35.8930   20.7110   30.8840 C   0  0  0  0  0  2  0  0  0  0  0  0
   36.3860   19.4970   31.6410 C   0  0  0  0  0  2  0  0  0  0  0  0
   35.3440   19.1940   32.7060 C   0  0  0  0  0  2  0  0  0  0  0  0
   35.6000   20.1930   33.8220 C   0  0  0  0  0  2  0  0  0  0  0  0
   36.1770   21.4850   33.2440 C   0  0  0  0  0  2  0  0  0  0  0  0
   38.5260   26.2170   32.4550 O   0  0  0  0  0  0  0  0  0  0  0  0
   38.4140   25.9920   33.8100 C   0  0  0  0  0  0  0  0  0  0  0  0
   38.5870   27.1240   34.5590 C   0  0  0  0  0  0  0  0  0  0  0  0
   38.4990   27.0460   35.9680 C   0  0  0  0  0  0  0  0  0  0  0  0
   38.2390   25.8030   36.5010 N   0  0  0  0  0  0  0  0  0  0  0  0
   38.0730   24.6980   35.7220 C   0  0  0  0  0  0  0  0  0  0  0  0
   38.1650   24.8210   34.4030 N   0  0  0  0  0  0  0  0  0  0  0  0
   37.7970   23.5370   37.7990 C   0  0  0  0  0  0  0  0  0  0  0  0
   37.9970   24.5760   38.4940 O   0  0  0  0  0  0  0  0  0  0  0  0
   37.8070   23.4520   36.3700 N   0  0  0  0  0  0  0  0  0  0  0  0
   38.7930   28.1290   34.1940 H   0  0  0  0  0  0  0  0  0  0  0  0
   38.6300   27.9130   36.5790 H   0  0  0  0  0  0  0  0  0  0  0  0
   37.5940   22.5940   38.3240 H   0  0  0  0  0  0  0  0  0  0  0  0
   37.6460   22.6080   35.7790 H   0  0  0  0  0  0  0  0  0  0  0  0
  1  3  1  0  0  0  0
  1 17  1  0  0  0  0
  2  1  1  0  0  0  0
  4  1  1  0  0  0  0
  5  4  1  0  0  0  0
  6  4  1  0  0  0  0
  7  4  1  0  0  0  0
  7  9  1  0  0  0  0
  7 10  1  0  0  0  0
  8  7  1  0  0  0  0
 10 11  1  0  0  0  0
 11 16  1  0  0  0  0
 12 13  1  0  0  0  0
 12 11  1  0  0  0  0
 13 14  1  0  0  0  0
 14 15  1  0  0  0  0
 16 15  1  0  0  0  0
 17 18  1  0  0  0  0
 18 23  2  0  0  0  0
 18 19  1  0  0  0  0
 19 20  2  0  0  0  0
 20 21  1  0  0  0  0
 20 28  1  0  0  0  0
 22 26  1  0  0  0  0
 22 21  2  0  0  0  0
 23 22  1  0  0  0  0
 24 29  1  0  0  0  0
 24 25  2  0  0  0  0
 26 24  1  0  0  0  0
 27 19  1  0  0  0  0
 30 26  1  0  0  0  0
M  END
>  <minimizedAffinity>
-4.80911398

$$$$

 OpenBabel03262521223D

 30 31  0  0  0  0  0  0  0  0999 V2000
   35.7990   21.9950   32.3230 C   0  0  0  0  0  0  0  0  0  0  0  0
   35.4700   22.4820   33.2870 H   0  0  0  0  0  0  0  0  0  0  0  0
   34.9970   21.2460   32.1340 H   0  0  0  0  0  0  0  0  0  0  0  0
   36.0530   22.8370   31.3000 C   0  0  0  0  0  0  0  0  0  0  0  0
   37.0810   22.6810   30.8550 H   0  0  0  0  0  0  0  0  0  0  0  0
   35.4340   22.7010   30.3530 H   0  0  0  0  0  0  0  0  0  0  0  0
   35.9440   24.2900   31.5960 C   0  0  0  0  0  0  0  0  0  0  0  0
   35.3430   24.8630   30.8300 H   0  0  0  0  0  0  0  0  0  0  0  0
   35.3210   24.4060   32.5320 H   0  0  0  0  0  0  0  0  0  0  0  0
   37.4630   25.1420   31.8520 S   0  0  0  0  0  0  0  0  0  0  0  0
   37.7460   25.8370   33.4650 C   0  0  0  0  0  3  0  0  0  0  0  0
   39.1470   25.6530   34.0020 C   0  0  0  0  0  2  0  0  0  0  0  0
   39.5010   26.8970   34.7870 C   0  0  0  0  0  2  0  0  0  0  0  0
   38.3740   27.1200   35.7830 C   0  0  0  0  0  2  0  0  0  0  0  0
   37.2440   27.7500   34.9840 C   0  0  0  0  0  2  0  0  0  0  0  0
   37.2960   27.2670   33.5350 C   0  0  0  0  0  2  0  0  0  0  0  0
   36.9870   21.3410   32.4200 O   0  0  0  0  0  0  0  0  0  0  0  0
   37.8390   21.6770   33.4490 C   0  0  0  0  0  0  0  0  0  0  0  0
   39.1580   21.6370   33.0900 C   0  0  0  0  0  0  0  0  0  0  0  0
   40.1500   21.9580   34.0450 C   0  0  0  0  0  0  0  0  0  0  0  0
   39.7050   22.2990   35.3030 N   0  0  0  0  0  0  0  0  0  0  0  0
   38.3820   22.3280   35.6240 C   0  0  0  0  0  0  0  0  0  0  0  0
   37.4870   22.0180   34.6920 N   0  0  0  0  0  0  0  0  0  0  0  0
   39.1430   22.9440   37.8100 C   0  0  0  0  0  0  0  0  0  0  0  0
   40.3650   22.8670   37.4890 O   0  0  0  0  0  0  0  0  0  0  0  0
   38.0200   22.6940   36.9570 N   0  0  0  0  0  0  0  0  0  0  0  0
   39.5670   21.3760   32.1150 H   0  0  0  0  0  0  0  0  0  0  0  0
   41.1880   21.9350   33.7940 H   0  0  0  0  0  0  0  0  0  0  0  0
   38.8950   23.2280   38.8420 H   0  0  0  0  0  0  0  0  0  0  0  0
   37.0080   22.7510   37.2000 H   0  0  0  0  0  0  0  0  0  0  0  0
  1 17  1  0  0  0  0
  1  2  1  0  0  0  0
  3  1  1  0  0  0  0
  4  7  1  0  0  0  0
  4  1  1  0  0  0  0
  5  4  1  0  0  0  0
  6  4  1  0  0  0  0
  7 10  1  0  0  0  0
  7  9  1  0  0  0  0
  8  7  1  0  0  0  0
 10 11  1  0  0  0  0
 11 16  1  0  0  0  0
 11 12  1  0  0  0  0
 12 13  1  0  0  0  0
 13 14  1  0  0  0  0
 15 14  1  0  0  0  0
 16 15  1  0  0  0  0
 17 18  1  0  0  0  0
 18 23  1  0  0  0  0
 19 18  2  0  0  0  0
 19 20  1  0  0  0  0
 20 21  2  0  0  0  0
 21 22  1  0  0  0  0
 22 26  1  0  0  0  0
 23 22  2  0  0  0  0
 24 29  1  0  0  0  0
 25 24  2  0  0  0  0
 26 30  1  0  0  0  0
 26 24  1  0  0  0  0
 27 19  1  0  0  0  0
 28 20  1  0  0  0  0
M  END
>  <minimizedAffinity>
-4.71000576

$$$$

 OpenBabel03262521223D

 30 31  0  0  0  0  0  0  0  0999 V2000
   36.6840   27.8670   34.5010 C   0  0  0  0  0  0  0  0  0  0  0  0
   35.9730   27.1500   35.0060 H   0  0  0  0  0  0  0  0  0  0  0  0
   37.2000   28.3530   35.3600 H   0  0  0  0  0  0  0  0  0  0  0  0
   37.4980   27.3260   33.5710 C   0  0  0  0  0  0  0  0  0  0  0  0
   36.9960   26.5000   32.9840 H   0  0  0  0  0  0  0  0  0  0  0  0
   37.8030   27.9940   32.7000 H   0  0  0  0  0  0  0  0  0  0  0  0
   38.7850   26.7660   34.0620 C   0  0  0  0  0  0  0  0  0  0  0  0
   39.6740   27.0560   33.4300 H   0  0  0  0  0  0  0  0  0  0  0  0
   39.0190   27.2570   35.0530 H   0  0  0  0  0  0  0  0  0  0  0  0
   38.8270   25.0230   34.3020 S   0  0  0  0  0  0  0  0  0  0  0  0
   39.0450   24.4340   35.9660 C   0  0  0  0  0  3  0  0  0  0  0  0
   37.8640   24.6590   36.8830 C   0  0  0  0  0  2  0  0  0  0  0  0
   37.7770   23.4700   37.8140 C   0  0  0  0  0  2  0  0  0  0  0  0
   39.1520   23.3040   38.4410 C   0  0  0  0  0  2  0  0  0  0  0  0
   40.0020   22.6180   37.3830 C   0  0  0  0  0  2  0  0  0  0  0  0
   39.5150   23.0090   35.9880 C   0  0  0  0  0  2  0  0  0  0  0  0
   36.0610   28.8290   33.7700 O   0  0  0  0  0  0  0  0  0  0  0  0
   35.2510   29.7300   34.4250 C   0  0  0  0  0  0  0  0  0  0  0  0
   33.9690   29.7470   33.9480 C   0  0  0  0  0  0  0  0  0  0  0  0
   33.0220   30.6240   34.5250 C   0  0  0  0  0  0  0  0  0  0  0  0
   33.4710   31.4220   35.5550 N   0  0  0  0  0  0  0  0  0  0  0  0
   34.7570   31.3770   36.0040 C   0  0  0  0  0  0  0  0  0  0  0  0
   35.6090   30.5360   35.4290 N   0  0  0  0  0  0  0  0  0  0  0  0
   34.0640   33.1010   37.5160 C   0  0  0  0  0  0  0  0  0  0  0  0
   32.8890   33.1450   37.0480 O   0  0  0  0  0  0  0  0  0  0  0  0
   35.1260   32.2450   37.0770 N   0  0  0  0  0  0  0  0  0  0  0  0
   33.5600   29.1420   33.1400 H   0  0  0  0  0  0  0  0  0  0  0  0
   32.0140   30.6600   34.1740 H   0  0  0  0  0  0  0  0  0  0  0  0
   34.3190   33.7790   38.3420 H   0  0  0  0  0  0  0  0  0  0  0  0
   36.0990   32.1920   37.4470 H   0  0  0  0  0  0  0  0  0  0  0  0
  1  2  1  0  0  0  0
  1  3  1  0  0  0  0
  4  7  1  0  0  0  0
  4  1  1  0  0  0  0
  5  4  1  0  0  0  0
  6  4  1  0  0  0  0
  7 10  1  0  0  0  0
  7  9  1  0  0  0  0
  8  7  1  0  0  0  0
 10 11  1  0  0  0  0
 11 16  1  0  0  0  0
 11 12  1  0  0  0  0
 12 13  1  0  0  0  0
 13 14  1  0  0  0  0
 15 14  1  0  0  0  0
 16 15  1  0  0  0  0
 17 18  1  0  0  0  0
 17  1  1  0  0  0  0
 18 23  1  0  0  0  0
 19 18  2  0  0  0  0
 19 20  1  0  0  0  0
 20 21  2  0  0  0  0
 21 22  1  0  0  0  0
 22 26  1  0  0  0  0
 23 22  2  0  0  0  0
 24 29  1  0  0  0  0
 25 24  2  0  0  0  0
 26 30  1  0  0  0  0
 26 24  1  0  0  0  0
 27 19  1  0  0  0  0
 28 20  1  0  0  0  0
M  END
>  <minimizedAffinity>
-4.70465469

$$$$

 OpenBabel03262521223D

 30 31  0  0  0  0  0  0  0  0999 V2000
   36.6810   26.0980   32.6260 C   0  0  0  0  0  0  0  0  0  0  0  0
   36.2140   27.1200   32.7420 H   0  0  0  0  0  0  0  0  0  0  0  0
   36.1030   25.4770   33.3470 H   0  0  0  0  0  0  0  0  0  0  0  0
   36.7350   25.6210   31.3660 C   0  0  0  0  0  0  0  0  0  0  0  0
   36.2610   26.3220   30.6160 H   0  0  0  0  0  0  0  0  0  0  0  0
   37.7670   25.5340   30.8900 H   0  0  0  0  0  0  0  0  0  0  0  0
   36.1200   24.2860   31.1360 C   0  0  0  0  0  0  0  0  0  0  0  0
   35.2520   24.0650   31.8230 H   0  0  0  0  0  0  0  0  0  0  0  0
   35.6280   24.3040   30.1180 H   0  0  0  0  0  0  0  0  0  0  0  0
   37.2200   22.9130   31.1780 S   0  0  0  0  0  0  0  0  0  0  0  0
   36.6260   21.4160   31.9350 C   0  0  0  0  0  3  0  0  0  0  0  0
   36.8370   21.3300   33.4290 C   0  0  0  0  0  2  0  0  0  0  0  0
   35.6430   20.6090   34.0160 C   0  0  0  0  0  2  0  0  0  0  0  0
   35.4880   19.3130   33.2360 C   0  0  0  0  0  2  0  0  0  0  0  0
   34.8150   19.7020   31.9300 C   0  0  0  0  0  2  0  0  0  0  0  0
   35.2060   21.1290   31.5450 C   0  0  0  0  0  2  0  0  0  0  0  0
   37.9940   26.0560   32.9750 O   0  0  0  0  0  0  0  0  0  0  0  0
   38.3510   25.3510   34.1040 C   0  0  0  0  0  0  0  0  0  0  0  0
   37.8360   25.8840   35.2540 C   0  0  0  0  0  0  0  0  0  0  0  0
   38.1190   25.2660   36.4950 C   0  0  0  0  0  0  0  0  0  0  0  0
   38.9130   24.1410   36.4550 N   0  0  0  0  0  0  0  0  0  0  0  0
   39.4070   23.6400   35.2880 C   0  0  0  0  0  0  0  0  0  0  0  0
   39.1140   24.2560   34.1480 N   0  0  0  0  0  0  0  0  0  0  0  0
   40.4490   21.9960   36.6840 C   0  0  0  0  0  0  0  0  0  0  0  0
   40.0070   22.5110   37.7520 O   0  0  0  0  0  0  0  0  0  0  0  0
   40.2220   22.4680   35.3510 N   0  0  0  0  0  0  0  0  0  0  0  0
   37.2060   26.7670   35.3460 H   0  0  0  0  0  0  0  0  0  0  0  0
   37.7320   25.6590   37.4090 H   0  0  0  0  0  0  0  0  0  0  0  0
   41.0720   21.0940   36.7630 H   0  0  0  0  0  0  0  0  0  0  0  0
   40.5770   22.0600   34.4590 H   0  0  0  0  0  0  0  0  0  0  0  0
  1  2  1  0  0  0  0
  1 17  1  0  0  0  0
  1  3  1  0  0  0  0
  4  1  1  0  0  0  0
  5  4  1  0  0  0  0
  6  4  1  0  0  0  0
  7 10  1  0  0  0  0
  7  4  1  0  0  0  0
  7  8  1  0  0  0  0
  9  7  1  0  0  0  0
 10 11  1  0  0  0  0
 11 12  1  0  0  0  0
 12 13  1  0  0  0  0
 14 13  1  0  0  0  0
 15 14  1  0  0  0  0
 16 15  1  0  0  0  0
 16 11  1  0  0  0  0
 17 18  1  0  0  0  0
 18 23  2  0  0  0  0
 18 19  1  0  0  0  0
 19 27  1  0  0  0  0
 19 20  2  0  0  0  0
 20 28  1  0  0  0  0
 21 20  1  0  0  0  0
 22 26  1  0  0  0  0
 22 21  2  0  0  0  0
 23 22  1  0  0  0  0
 24 29  1  0  0  0  0
 24 25  2  0  0  0  0
 26 24  1  0  0  0  0
 30 26  1  0  0  0  0
M  END
>  <minimizedAffinity>
-4.65712023

$$$$

 OpenBabel03262521223D

 30 31  0  0  0  0  0  0  0  0999 V2000
   37.9880   26.6730   35.2390 C   0  0  0  0  0  0  0  0  0  0  0  0
   39.0700   26.5450   34.9430 H   0  0  0  0  0  0  0  0  0  0  0  0
   38.0350   27.4640   36.0210 H   0  0  0  0  0  0  0  0  0  0  0  0
   37.1300   26.9120   34.2260 C   0  0  0  0  0  0  0  0  0  0  0  0
   36.3240   26.1240   34.1460 H   0  0  0  0  0  0  0  0  0  0  0  0
   36.4620   27.8310   34.3220 H   0  0  0  0  0  0  0  0  0  0  0  0
   37.7250   27.0410   32.8700 C   0  0  0  0  0  0  0  0  0  0  0  0
   37.1090   27.6710   32.1640 H   0  0  0  0  0  0  0  0  0  0  0  0
   38.6770   27.6420   32.9660 H   0  0  0  0  0  0  0  0  0  0  0  0
   38.1220   25.5320   32.0550 S   0  0  0  0  0  0  0  0  0  0  0  0
   37.0600   24.1380   32.3580 C   0  0  0  0  0  3  0  0  0  0  0  0
   35.9760   23.9250   31.3260 C   0  0  0  0  0  2  0  0  0  0  0  0
   35.7880   22.4320   31.1630 C   0  0  0  0  0  2  0  0  0  0  0  0
   35.5740   21.8650   32.5570 C   0  0  0  0  0  2  0  0  0  0  0  0
   36.9580   21.7860   33.1820 C   0  0  0  0  0  2  0  0  0  0  0  0
   37.8510   22.8890   32.6140 C   0  0  0  0  0  2  0  0  0  0  0  0
   37.4370   25.5580   35.7860 O   0  0  0  0  0  0  0  0  0  0  0  0
   38.2750   24.6080   36.3280 C   0  0  0  0  0  0  0  0  0  0  0  0
   38.0020   24.3350   37.6400 C   0  0  0  0  0  0  0  0  0  0  0  0
   38.7820   23.3780   38.3300 C   0  0  0  0  0  0  0  0  0  0  0  0
   39.7890   22.7720   37.6110 N   0  0  0  0  0  0  0  0  0  0  0  0
   40.0320   23.0710   36.3040 C   0  0  0  0  0  0  0  0  0  0  0  0
   39.2720   23.9770   35.6990 N   0  0  0  0  0  0  0  0  0  0  0  0
   41.8200   21.4880   36.4950 C   0  0  0  0  0  0  0  0  0  0  0  0
   41.5930   21.2650   37.7200 O   0  0  0  0  0  0  0  0  0  0  0  0
   41.1000   22.3880   35.6440 N   0  0  0  0  0  0  0  0  0  0  0  0
   37.2220   24.7800   38.2560 H   0  0  0  0  0  0  0  0  0  0  0  0
   38.5930   23.1450   39.3540 H   0  0  0  0  0  0  0  0  0  0  0  0
   42.6470   20.9480   36.0140 H   0  0  0  0  0  0  0  0  0  0  0  0
   41.2700   22.5870   34.6350 H   0  0  0  0  0  0  0  0  0  0  0  0
  1 17  1  0  0  0  0
  1  3  1  0  0  0  0
  2  1  1  0  0  0  0
  4  6  1  0  0  0  0
  4  1  1  0  0  0  0
  5  4  1  0  0  0  0
  7  9  1  0  0  0  0
  7  4  1  0  0  0  0
  8  7  1  0  0  0  0
 10 11  1  0  0  0  0
 10  7  1  0  0  0  0
 11 16  1  0  0  0  0
 12 11  1  0  0  0  0
 13 12  1  0  0  0  0
 13 14  1  0  0  0  0
 14 15  1  0  0  0  0
 16 15  1  0  0  0  0
 17 18  1  0  0  0  0
 18 19  1  0  0  0  0
 19 27  1  0  0  0  0
 19 20  2  0  0  0  0
 20 28  1  0  0  0  0
 21 20  1  0  0  0  0
 22 21  2  0  0  0  0
 23 22  1  0  0  0  0
 23 18  2  0  0  0  0
 24 25  2  0  0  0  0
 26 22  1  0  0  0  0
 26 24  1  0  0  0  0
 29 24  1  0  0  0  0
 30 26  1  0  0  0  0
M  END
>  <minimizedAffinity>
-4.59327173

$$$$

 OpenBabel03262521223D

 30 31  0  0  0  0  0  0  0  0999 V2000
   37.5370   25.7910   32.7490 C   0  0  0  0  0  0  0  0  0  0  0  0
   38.5550   25.6200   32.2920 H   0  0  0  0  0  0  0  0  0  0  0  0
   37.4560   26.9010   32.7710 H   0  0  0  0  0  0  0  0  0  0  0  0
   36.5130   25.1500   32.1490 C   0  0  0  0  0  0  0  0  0  0  0  0
   35.9900   24.4250   32.8420 H   0  0  0  0  0  0  0  0  0  0  0  0
   35.6120   25.7820   31.8510 H   0  0  0  0  0  0  0  0  0  0  0  0
   36.8400   24.3870   30.9160 C   0  0  0  0  0  0  0  0  0  0  0  0
   35.9380   24.1460   30.2800 H   0  0  0  0  0  0  0  0  0  0  0  0
   37.4420   25.0640   30.2400 H   0  0  0  0  0  0  0  0  0  0  0  0
   37.7600   22.9040   31.1480 S   0  0  0  0  0  0  0  0  0  0  0  0
   36.9120   21.5250   31.8860 C   0  0  0  0  0  3  0  0  0  0  0  0
   37.1730   21.3310   33.3620 C   0  0  0  0  0  2  0  0  0  0  0  0
   35.8880   20.8410   33.9920 C   0  0  0  0  0  2  0  0  0  0  0  0
   35.4350   19.6390   33.1780 C   0  0  0  0  0  2  0  0  0  0  0  0
   34.7920   20.2130   31.9260 C   0  0  0  0  0  2  0  0  0  0  0  0
   35.4460   21.5480   31.5680 C   0  0  0  0  0  2  0  0  0  0  0  0
   37.4240   25.3250   34.0200 O   0  0  0  0  0  0  0  0  0  0  0  0
   38.5200   24.7240   34.5990 C   0  0  0  0  0  0  0  0  0  0  0  0
   39.7070   25.1380   34.0600 C   0  0  0  0  0  0  0  0  0  0  0  0
   40.9200   24.6060   34.5550 C   0  0  0  0  0  0  0  0  0  0  0  0
   40.8170   23.6850   35.5740 N   0  0  0  0  0  0  0  0  0  0  0  0
   39.6160   23.2960   36.0860 C   0  0  0  0  0  0  0  0  0  0  0  0
   38.5040   23.8240   35.5870 N   0  0  0  0  0  0  0  0  0  0  0  0
   40.9200   21.8620   37.4940 C   0  0  0  0  0  0  0  0  0  0  0  0
   42.0150   22.2150   36.9680 O   0  0  0  0  0  0  0  0  0  0  0  0
   39.6140   22.3330   37.1410 N   0  0  0  0  0  0  0  0  0  0  0  0
   39.8490   25.8600   33.2580 H   0  0  0  0  0  0  0  0  0  0  0  0
   41.8620   24.9100   34.1540 H   0  0  0  0  0  0  0  0  0  0  0  0
   40.9490   21.1210   38.3040 H   0  0  0  0  0  0  0  0  0  0  0  0
   38.7000   22.0560   37.5600 H   0  0  0  0  0  0  0  0  0  0  0  0
  1  3  1  0  0  0  0
  1 17  1  0  0  0  0
  2  1  1  0  0  0  0
  4  1  1  0  0  0  0
  4  5  1  0  0  0  0
  6  4  1  0  0  0  0
  7 10  1  0  0  0  0
  7  4  1  0  0  0  0
  8  7  1  0  0  0  0
  9  7  1  0  0  0  0
 10 11  1  0  0  0  0
 11 12  1  0  0  0  0
 12 13  1  0  0  0  0
 14 13  1  0  0  0  0
 15 14  1  0  0  0  0
 16 11  1  0  0  0  0
 16 15  1  0  0  0  0
 17 18  1  0  0  0  0
 18 23  1  0  0  0  0
 19 20  1  0  0  0  0
 19 18  2  0  0  0  0
 20 21  2  0  0  0  0
 21 22  1  0  0  0  0
 22 26  1  0  0  0  0
 23 22  2  0  0  0  0
 24 29  1  0  0  0  0
 25 24  2  0  0  0  0
 26 24  1  0  0  0  0
 26 30  1  0  0  0  0
 27 19  1  0  0  0  0
 28 20  1  0  0  0  0
M  END
>  <minimizedAffinity>
-4.57034683

$$$$

 OpenBabel03262521223D

 30 31  0  0  0  0  0  0  0  0999 V2000
   36.8690   28.0950   32.7270 C   0  0  0  0  0  0  0  0  0  0  0  0
   37.8480   28.5570   32.4070 H   0  0  0  0  0  0  0  0  0  0  0  0
   36.7670   28.4320   33.7830 H   0  0  0  0  0  0  0  0  0  0  0  0
   35.8110   28.3590   31.9330 C   0  0  0  0  0  0  0  0  0  0  0  0
   36.1160   28.7880   30.9320 H   0  0  0  0  0  0  0  0  0  0  0  0
   35.2090   27.4660   31.5590 H   0  0  0  0  0  0  0  0  0  0  0  0
   34.7820   29.2800   32.4840 C   0  0  0  0  0  0  0  0  0  0  0  0
   34.8780   30.3410   32.1110 H   0  0  0  0  0  0  0  0  0  0  0  0
   33.7780   28.9650   32.0690 H   0  0  0  0  0  0  0  0  0  0  0  0
   34.6480   29.3250   34.2390 S   0  0  0  0  0  0  0  0  0  0  0  0
   34.6140   30.9260   35.0140 C   0  0  0  0  0  3  0  0  0  0  0  0
   33.4950   31.1300   36.0090 C   0  0  0  0  0  2  0  0  0  0  0  0
   34.0330   31.9930   37.1290 C   0  0  0  0  0  2  0  0  0  0  0  0
   34.6480   33.2210   36.4770 C   0  0  0  0  0  2  0  0  0  0  0  0
   36.0030   32.7710   35.9560 C   0  0  0  0  0  2  0  0  0  0  0  0
   35.9530   31.2880   35.5850 C   0  0  0  0  0  2  0  0  0  0  0  0
   36.8740   26.7360   32.7050 O   0  0  0  0  0  0  0  0  0  0  0  0
   37.4250   26.0640   33.7740 C   0  0  0  0  0  0  0  0  0  0  0  0
   37.6390   26.8680   34.8610 C   0  0  0  0  0  0  0  0  0  0  0  0
   38.2010   26.3150   36.0350 C   0  0  0  0  0  0  0  0  0  0  0  0
   38.5010   24.9710   36.0000 N   0  0  0  0  0  0  0  0  0  0  0  0
   38.2730   24.2030   34.8990 C   0  0  0  0  0  0  0  0  0  0  0  0
   37.7440   24.7670   33.8190 N   0  0  0  0  0  0  0  0  0  0  0  0
   39.2190   22.4290   36.2020 C   0  0  0  0  0  0  0  0  0  0  0  0
   39.4540   23.1800   37.1930 O   0  0  0  0  0  0  0  0  0  0  0  0
   38.6190   22.8180   34.9600 N   0  0  0  0  0  0  0  0  0  0  0  0
   37.4230   27.9310   34.9460 H   0  0  0  0  0  0  0  0  0  0  0  0
   38.3800   26.9170   36.8990 H   0  0  0  0  0  0  0  0  0  0  0  0
   39.4940   21.3680   36.2790 H   0  0  0  0  0  0  0  0  0  0  0  0
   38.4170   22.2170   34.1330 H   0  0  0  0  0  0  0  0  0  0  0  0
  1  3  1  0  0  0  0
  2  1  1  0  0  0  0
  4  7  1  0  0  0  0
  4  1  1  0  0  0  0
  5  4  1  0  0  0  0
  6  4  1  0  0  0  0
  7 10  1  0  0  0  0
  8  7  1  0  0  0  0
  9  7  1  0  0  0  0
 10 11  1  0  0  0  0
 11 16  1  0  0  0  0
 11 12  1  0  0  0  0
 12 13  1  0  0  0  0
 14 13  1  0  0  0  0
 15 14  1  0  0  0  0
 16 15  1  0  0  0  0
 17  1  1  0  0  0  0
 17 18  1  0  0  0  0
 18 23  2  0  0  0  0
 18 19  1  0  0  0  0
 19 27  1  0  0  0  0
 19 20  2  0  0  0  0
 20 28  1  0  0  0  0
 21 20  1  0  0  0  0
 22 26  1  0  0  0  0
 22 21  2  0  0  0  0
 23 22  1  0  0  0  0
 24 29  1  0  0  0  0
 24 25  2  0  0  0  0
 26 24  1  0  0  0  0
 30 26  1  0  0  0  0
M  END
>  <minimizedAffinity>
-4.5670805

$$$$

 OpenBabel03262521223D

 30 31  0  0  0  0  0  0  0  0999 V2000
   39.8740   24.3090   35.6530 C   0  0  0  0  0  0  0  0  0  0  0  0
   40.9060   24.7230   35.8500 H   0  0  0  0  0  0  0  0  0  0  0  0
   39.8190   24.2950   34.5410 H   0  0  0  0  0  0  0  0  0  0  0  0
   39.5900   23.1370   36.2590 C   0  0  0  0  0  0  0  0  0  0  0  0
   40.4620   22.7350   36.8560 H   0  0  0  0  0  0  0  0  0  0  0  0
   38.8100   23.1630   37.0910 H   0  0  0  0  0  0  0  0  0  0  0  0
   39.1400   22.0270   35.3780 C   0  0  0  0  0  0  0  0  0  0  0  0
   39.6610   22.0060   34.3760 H   0  0  0  0  0  0  0  0  0  0  0  0
   39.4750   21.0560   35.8490 H   0  0  0  0  0  0  0  0  0  0  0  0
   37.4050   21.9190   35.0980 S   0  0  0  0  0  0  0  0  0  0  0  0
   36.8720   21.2540   33.5370 C   0  0  0  0  0  3  0  0  0  0  0  0
   35.6390   20.3820   33.6030 C   0  0  0  0  0  2  0  0  0  0  0  0
   34.8380   20.6270   32.3430 C   0  0  0  0  0  2  0  0  0  0  0  0
   35.7930   20.4340   31.1750 C   0  0  0  0  0  2  0  0  0  0  0  0
   36.6090   21.7150   31.1000 C   0  0  0  0  0  2  0  0  0  0  0  0
   36.7520   22.3260   32.4940 C   0  0  0  0  0  2  0  0  0  0  0  0
   38.8710   25.0940   36.1260 O   0  0  0  0  0  0  0  0  0  0  0  0
   38.1640   25.8660   35.2300 C   0  0  0  0  0  0  0  0  0  0  0  0
   37.9210   27.1330   35.6870 C   0  0  0  0  0  0  0  0  0  0  0  0
   37.2040   28.0410   34.8730 C   0  0  0  0  0  0  0  0  0  0  0  0
   36.7900   27.5720   33.6460 N   0  0  0  0  0  0  0  0  0  0  0  0
   37.0500   26.3020   33.2260 C   0  0  0  0  0  0  0  0  0  0  0  0
   37.7270   25.4860   34.0260 N   0  0  0  0  0  0  0  0  0  0  0  0
   35.8300   26.9300   31.2620 C   0  0  0  0  0  0  0  0  0  0  0  0
   35.5720   28.0880   31.7000 O   0  0  0  0  0  0  0  0  0  0  0  0
   36.5770   25.9100   31.9360 N   0  0  0  0  0  0  0  0  0  0  0  0
   38.2240   27.5570   36.6430 H   0  0  0  0  0  0  0  0  0  0  0  0
   37.0000   29.0360   35.2030 H   0  0  0  0  0  0  0  0  0  0  0  0
   35.4550   26.6560   30.2670 H   0  0  0  0  0  0  0  0  0  0  0  0
   36.8010   24.9510   31.5950 H   0  0  0  0  0  0  0  0  0  0  0  0
  1  2  1  0  0  0  0
  1 17  1  0  0  0  0
  1  4  1  0  0  0  0
  3  1  1  0  0  0  0
  4  5  1  0  0  0  0
  4  6  1  0  0  0  0
  7  9  1  0  0  0  0
  7  4  1  0  0  0  0
  8  7  1  0  0  0  0
 10  7  1  0  0  0  0
 11 12  1  0  0  0  0
 11 10  1  0  0  0  0
 13 12  1  0  0  0  0
 14 13  1  0  0  0  0
 15 14  1  0  0  0  0
 15 16  1  0  0  0  0
 16 11  1  0  0  0  0
 18 19  1  0  0  0  0
 18 17  1  0  0  0  0
 19 27  1  0  0  0  0
 20 28  1  0  0  0  0
 20 19  2  0  0  0  0
 21 20  1  0  0  0  0
 22 21  2  0  0  0  0
 22 23  1  0  0  0  0
 23 18  2  0  0  0  0
 24 25  2  0  0  0  0
 24 26  1  0  0  0  0
 26 22  1  0  0  0  0
 29 24  1  0  0  0  0
 30 26  1  0  0  0  0
M  END
>  <minimizedAffinity>
-4.45310211

$$$$

 OpenBabel03262521223D

 30 31  0  0  0  0  0  0  0  0999 V2000
   37.9880   27.5100   35.5400 C   0  0  0  0  0  0  0  0  0  0  0  0
   37.5080   27.9940   36.4400 H   0  0  0  0  0  0  0  0  0  0  0  0
   38.5770   28.3420   35.0930 H   0  0  0  0  0  0  0  0  0  0  0  0
   38.6830   26.3800   35.7860 C   0  0  0  0  0  0  0  0  0  0  0  0
   39.3400   26.0770   34.9170 H   0  0  0  0  0  0  0  0  0  0  0  0
   39.4840   26.4320   36.5960 H   0  0  0  0  0  0  0  0  0  0  0  0
   37.8860   25.1770   36.1450 C   0  0  0  0  0  0  0  0  0  0  0  0
   37.8740   24.9570   37.2530 H   0  0  0  0  0  0  0  0  0  0  0  0
   36.8000   25.4050   35.9290 H   0  0  0  0  0  0  0  0  0  0  0  0
   38.3030   23.6930   35.2950 S   0  0  0  0  0  0  0  0  0  0  0  0
   39.8410   22.9110   35.7250 C   0  0  0  0  0  3  0  0  0  0  0  0
   41.0720   23.5470   35.1200 C   0  0  0  0  0  2  0  0  0  0  0  0
   42.1860   23.4460   36.1390 C   0  0  0  0  0  2  0  0  0  0  0  0
   42.2630   21.9860   36.5580 C   0  0  0  0  0  2  0  0  0  0  0  0
   41.1230   21.7840   37.5440 C   0  0  0  0  0  2  0  0  0  0  0  0
   39.9690   22.7300   37.2090 C   0  0  0  0  0  2  0  0  0  0  0  0
   37.0940   27.0670   34.6170 O   0  0  0  0  0  0  0  0  0  0  0  0
   37.0440   27.7020   33.3950 C   0  0  0  0  0  0  0  0  0  0  0  0
   36.1010   28.6920   33.3420 C   0  0  0  0  0  0  0  0  0  0  0  0
   35.9350   29.4320   32.1480 C   0  0  0  0  0  0  0  0  0  0  0  0
   36.7570   29.0940   31.0950 N   0  0  0  0  0  0  0  0  0  0  0  0
   37.6850   28.1010   31.1860 C   0  0  0  0  0  0  0  0  0  0  0  0
   37.8030   27.4340   32.3290 N   0  0  0  0  0  0  0  0  0  0  0  0
   38.1650   28.6300   28.9000 C   0  0  0  0  0  0  0  0  0  0  0  0
   37.2660   29.5190   28.8380 O   0  0  0  0  0  0  0  0  0  0  0  0
   38.4910   27.8250   30.0390 N   0  0  0  0  0  0  0  0  0  0  0  0
   35.4260   29.0010   34.1380 H   0  0  0  0  0  0  0  0  0  0  0  0
   35.2070   30.2100   32.0760 H   0  0  0  0  0  0  0  0  0  0  0  0
   38.7690   28.4410   28.0020 H   0  0  0  0  0  0  0  0  0  0  0  0
   39.2250   27.0890   30.1120 H   0  0  0  0  0  0  0  0  0  0  0  0
  1  4  1  0  0  0  0
  1  2  1  0  0  0  0
  3  1  1  0  0  0  0
  4  7  1  0  0  0  0
  4  6  1  0  0  0  0
  5  4  1  0  0  0  0
  7  8  1  0  0  0  0
  9  7  1  0  0  0  0
 10 11  1  0  0  0  0
 10  7  1  0  0  0  0
 11 16  1  0  0  0  0
 12 11  1  0  0  0  0
 12 13  1  0  0  0  0
 13 14  1  0  0  0  0
 14 15  1  0  0  0  0
 16 15  1  0  0  0  0
 17  1  1  0  0  0  0
 18 17  1  0  0  0  0
 19 18  1  0  0  0  0
 19 27  1  0  0  0  0
 20 19  2  0  0  0  0
 21 22  2  0  0  0  0
 21 20  1  0  0  0  0
 22 23  1  0  0  0  0
 23 18  2  0  0  0  0
 24 26  1  0  0  0  0
 25 24  2  0  0  0  0
 26 30  1  0  0  0  0
 26 22  1  0  0  0  0
 28 20  1  0  0  0  0
 29 24  1  0  0  0  0
M  END
>  <minimizedAffinity>
-4.41646576

$$$$
