
 OpenBabel03262522183D

 21 22  0  0  0  0  0  0  0  0999 V2000
   37.1410   33.6200   49.6850 O   0  0  0  0  0  0  0  0  0  0  0  0
   38.4010   32.9250   49.1480 P   0  0  1  0  0  0  0  0  0  0  0  0
   39.7490   33.8250   49.7010 O   0  0  0  0  0  0  0  0  0  0  0  0
   39.4530   34.5700   50.3010 H   0  0  0  0  0  0  0  0  0  0  0  0
   38.4990   31.4140   49.9090 O   0  0  0  0  0  0  0  0  0  0  0  0
   37.0480   30.2090   51.3630 C   0  0  0  0  0  0  0  0  0  0  0  0
   37.5040   30.4910   50.0640 C   0  0  0  0  0  0  0  0  0  0  0  0
   36.8950   29.7970   49.0210 C   0  0  0  0  0  0  0  0  0  0  0  0
   35.9100   28.8990   49.3100 N   0  0  0  0  0  0  0  0  0  0  0  0
   35.5090   28.6640   50.5660 C   0  0  0  0  0  0  0  0  0  0  0  0
   36.0800   29.3240   51.6130 N   0  0  0  0  0  0  0  0  0  0  0  0
   37.4330   30.6750   52.2580 H   0  0  0  0  0  0  0  0  0  0  0  0
   37.2410   30.0080   48.0080 H   0  0  0  0  0  0  0  0  0  0  0  0
   34.7140   27.9130   50.5720 H   0  0  0  0  0  0  0  0  0  0  0  0
   38.2890   32.8890   47.4970 O   0  0  0  0  0  0  0  0  0  0  0  0
   39.4430   32.2910   46.9820 C   0  0  0  0  0  0  0  0  0  0  0  0
   39.0160   30.9670   46.3940 C   0  0  0  0  0  0  0  0  0  0  0  0
   38.8710   31.1640   44.8990 C   0  0  0  0  0  0  0  0  0  0  0  0
   40.2570   31.2980   44.3450 C   0  0  0  0  0  0  0  0  0  0  0  0
   40.9830   32.4070   45.0330 C   0  0  0  0  0  0  0  0  0  0  0  0
   40.1680   33.1810   46.0200 C   0  0  0  0  0  0  0  0  0  0  0  0
  2  1  2  1  0  0  0
  2  3  1  0  0  0  0
  2  5  1  0  0  0  0
  3  4  1  0  0  0  0
  5  7  1  0  0  0  0
  6 11  1  0  0  0  0
  6 12  1  0  0  0  0
  7  6  2  0  0  0  0
  8  9  2  0  0  0  0
  8  7  1  0  0  0  0
  9 10  1  0  0  0  0
 10 14  1  0  0  0  0
 10 11  2  0  0  0  0
 13  8  1  0  0  0  0
 15  2  1  0  0  0  0
 16 15  1  0  0  0  0
 17 16  1  0  0  0  0
 18 17  1  0  0  0  0
 19 18  1  0  0  0  0
 19 20  1  0  0  0  0
 20 21  1  0  0  0  0
 21 16  1  0  0  0  0
M  END
>  <minimizedAffinity>
-4.89931393

>  <minimizedRMSD>
1.20300663

$$$$
