
 OpenBabel03262521443D

 43 46  0  0  1  0  0  0  0  0999 V2000
   37.6220   24.5070   31.6940 C   0  0  2  0  0  0  0  0  0  0  0  0
   36.9230   25.4940   32.6090 C   0  0  2  0  0  0  0  0  0  0  0  0
   36.0610   26.3740   31.7650 C   0  0  0  0  0  0  0  0  0  0  0  0
   35.5770   25.7040   30.6820 O   0  0  0  0  0  0  0  0  0  0  0  0
   35.2210   24.4160   31.0520 C   0  0  0  0  0  0  0  0  0  0  0  0
   36.4830   23.5940   31.1640 C   0  0  2  0  0  0  0  0  0  0  0  0
   38.0070   25.0660   30.8200 H   0  0  0  0  0  0  0  0  0  0  0  0
   36.2370   24.7700   33.0800 H   0  0  0  0  0  0  0  0  0  0  0  0
   35.1960   26.8080   32.3520 H   0  0  0  0  0  0  0  0  0  0  0  0
   36.6060   27.3020   31.4240 H   0  0  0  0  0  0  0  0  0  0  0  0
   34.6260   24.0510   30.1840 H   0  0  0  0  0  0  0  0  0  0  0  0
   34.5670   24.3430   31.9160 H   0  0  0  0  0  0  0  0  0  0  0  0
   36.7790   23.2330   30.1830 H   0  0  0  0  0  0  0  0  0  0  0  0
   38.5140   23.6660   32.2700 O   0  0  0  0  0  0  0  0  0  0  0  0
   39.2050   23.4130   31.6100 H   0  0  0  0  0  0  0  0  0  0  0  0
   37.7120   26.1840   33.4790 O   0  0  0  0  0  0  0  0  0  0  0  0
   37.2290   26.1510   34.7240 C   0  0  1  0  0  0  0  0  0  0  0  0
   38.2280   25.7430   35.7790 C   0  0  2  0  0  0  0  0  0  0  0  0
   39.2170   26.8990   35.5780 C   0  0  0  0  0  0  0  0  0  0  0  0
   38.4670   28.0380   35.4150 O   0  0  0  0  0  0  0  0  0  0  0  0
   37.2100   27.6530   35.1560 C   0  0  0  0  0  0  0  0  0  0  0  0
   36.1340   25.9950   34.8630 H   0  0  0  0  0  0  0  0  0  0  0  0
   37.7120   25.7870   36.7440 H   0  0  0  0  0  0  0  0  0  0  0  0
   39.7750   26.6710   34.6550 H   0  0  0  0  0  0  0  0  0  0  0  0
   39.8540   26.9120   36.4900 H   0  0  0  0  0  0  0  0  0  0  0  0
   36.4080   28.2590   34.9280 H   0  0  0  0  0  0  0  0  0  0  0  0
   36.8830   27.4350   36.2540 H   0  0  0  0  0  0  0  0  0  0  0  0
   38.8400   24.4410   35.4890 C   0  0  0  0  0  0  0  0  0  0  0  0
   40.2170   24.4010   35.2700 C   0  0  0  0  0  0  0  0  0  0  0  0
   40.7750   23.1280   34.9750 C   0  0  0  0  0  0  0  0  0  0  0  0
   39.9460   22.0370   34.9230 N   0  0  0  0  0  0  0  0  0  0  0  0
   38.6140   22.1270   35.1440 C   0  0  0  0  0  0  0  0  0  0  0  0
   38.0720   23.3290   35.4250 N   0  0  0  0  0  0  0  0  0  0  0  0
   40.8610   25.2570   35.3110 H   0  0  0  0  0  0  0  0  0  0  0  0
   41.8330   22.9930   34.7900 H   0  0  0  0  0  0  0  0  0  0  0  0
   37.9810   21.2580   35.0980 H   0  0  0  0  0  0  0  0  0  0  0  0
   36.2130   22.6010   32.1030 O   0  0  0  0  0  0  0  0  0  0  0  0
   35.9030   21.3560   31.5850 C   0  0  2  0  0  3  0  0  0  0  0  0
   34.9270   20.5700   32.3800 C   0  0  0  0  0  2  0  0  0  0  0  0
   35.4540   19.2550   32.9060 C   0  0  0  0  0  2  0  0  0  0  0  0
   35.9080   18.5080   31.6440 C   0  0  0  0  0  2  0  0  0  0  0  0
   37.2260   19.1890   31.3490 C   0  0  0  0  0  3  0  0  0  0  0  0
   37.1560   20.6540   31.1730 C   0  0  0  0  0  3  0  0  0  0  0  0
  1  7  1  6  0  0  0
  1 14  1  0  0  0  0
  1  2  1  0  0  0  0
  2  8  1  1  0  0  0
  2 16  1  0  0  0  0
  3  9  1  0  0  0  0
  3  2  1  0  0  0  0
  4  5  1  0  0  0  0
  4  3  1  0  0  0  0
  5  6  1  0  0  0  0
  5 12  1  0  0  0  0
  6 13  1  6  0  0  0
  6  1  1  0  0  0  0
  6 37  1  0  0  0  0
 10  3  1  0  0  0  0
 11  5  1  0  0  0  0
 15 14  1  0  0  0  0
 16 17  1  0  0  0  0
 17 22  1  1  0  0  0
 17 21  1  0  0  0  0
 17 18  1  0  0  0  0
 18 23  1  1  0  0  0
 19 18  1  0  0  0  0
 19 25  1  0  0  0  0
 20 19  1  0  0  0  0
 21 20  1  0  0  0  0
 21 27  1  0  0  0  0
 24 19  1  0  0  0  0
 26 21  1  0  0  0  0
 28 18  1  0  0  0  0
 29 34  1  0  0  0  0
 29 28  2  0  0  0  0
 30 29  1  0  0  0  0
 31 30  2  0  0  0  0
 31 32  1  0  0  0  0
 32 33  2  0  0  0  0
 33 28  1  0  0  0  0
 35 30  1  0  0  0  0
 36 32  1  0  0  0  0
 38 37  1  1  0  0  0
 38 39  1  0  0  0  0
 39 40  1  0  0  0  0
 41 40  1  0  0  0  0
 42 41  1  0  0  0  0
 43 42  2  0  0  0  0
 43 38  1  0  0  0  0
M  END
>  <minimizedAffinity>
-5.4285779

$$$$

 OpenBabel03262521443D

 43 46  0  0  1  0  0  0  0  0999 V2000
   38.1450   24.7700   35.0110 C   0  0  2  0  0  0  0  0  0  0  0  0
   38.0570   25.6300   33.7650 C   0  0  2  0  0  0  0  0  0  0  0  0
   38.2060   27.0570   34.1790 C   0  0  0  0  0  0  0  0  0  0  0  0
   39.0280   27.1780   35.2580 O   0  0  0  0  0  0  0  0  0  0  0  0
   40.0980   26.3050   35.1290 C   0  0  0  0  0  0  0  0  0  0  0  0
   39.6180   24.9180   35.4810 C   0  0  2  0  0  0  0  0  0  0  0  0
   37.5190   25.2380   35.7940 H   0  0  0  0  0  0  0  0  0  0  0  0
   39.0320   25.3410   33.3380 H   0  0  0  0  0  0  0  0  0  0  0  0
   38.5990   27.7030   33.3370 H   0  0  0  0  0  0  0  0  0  0  0  0
   37.2110   27.5410   34.4050 H   0  0  0  0  0  0  0  0  0  0  0  0
   40.8120   26.6520   35.9100 H   0  0  0  0  0  0  0  0  0  0  0  0
   40.6340   26.3620   34.1860 H   0  0  0  0  0  0  0  0  0  0  0  0
   39.6350   24.7820   36.5600 H   0  0  0  0  0  0  0  0  0  0  0  0
   37.9550   23.4390   34.8490 O   0  0  0  0  0  0  0  0  0  0  0  0
   37.5870   23.0520   35.6810 H   0  0  0  0  0  0  0  0  0  0  0  0
   36.9880   25.4130   32.9490 O   0  0  0  0  0  0  0  0  0  0  0  0
   37.3580   25.2640   31.6740 C   0  0  1  0  0  0  0  0  0  0  0  0
   36.5940   24.2070   30.9130 C   0  0  2  0  0  0  0  0  0  0  0  0
   35.2000   24.8370   31.0380 C   0  0  0  0  0  0  0  0  0  0  0  0
   35.3560   26.1860   30.8290 O   0  0  0  0  0  0  0  0  0  0  0  0
   36.6620   26.4580   30.9420 C   0  0  0  0  0  0  0  0  0  0  0  0
   38.3920   25.5610   31.3840 H   0  0  0  0  0  0  0  0  0  0  0  0
   36.9740   24.2130   29.8860 H   0  0  0  0  0  0  0  0  0  0  0  0
   34.8650   24.6430   32.0690 H   0  0  0  0  0  0  0  0  0  0  0  0
   34.5740   24.3370   30.2660 H   0  0  0  0  0  0  0  0  0  0  0  0
   37.1110   27.3850   30.8990 H   0  0  0  0  0  0  0  0  0  0  0  0
   36.9870   26.1220   29.8740 H   0  0  0  0  0  0  0  0  0  0  0  0
   36.6630   22.8950   31.5680 C   0  0  0  0  0  0  0  0  0  0  0  0
   35.4650   22.2900   31.9450 C   0  0  0  0  0  0  0  0  0  0  0  0
   35.5680   21.0290   32.5910 C   0  0  0  0  0  0  0  0  0  0  0  0
   36.8120   20.4920   32.8020 N   0  0  0  0  0  0  0  0  0  0  0  0
   37.9480   21.1190   32.4170 C   0  0  0  0  0  0  0  0  0  0  0  0
   37.8640   22.3160   31.8030 N   0  0  0  0  0  0  0  0  0  0  0  0
   34.4940   22.7130   31.7780 H   0  0  0  0  0  0  0  0  0  0  0  0
   34.6960   20.4790   32.9210 H   0  0  0  0  0  0  0  0  0  0  0  0
   38.9140   20.6810   32.5930 H   0  0  0  0  0  0  0  0  0  0  0  0
   40.4230   24.0380   34.7630 O   0  0  0  0  0  0  0  0  0  0  0  0
   41.4430   23.4380   35.4790 C   0  0  2  0  0  3  0  0  0  0  0  0
   42.3480   22.5730   34.6810 C   0  0  0  0  0  2  0  0  0  0  0  0
   42.3740   21.1230   35.1080 C   0  0  0  0  0  2  0  0  0  0  0  0
   42.7830   21.1810   36.5860 C   0  0  0  0  0  2  0  0  0  0  0  0
   41.4860   21.5970   37.2420 C   0  0  0  0  0  3  0  0  0  0  0  0
   40.8990   22.8570   36.7440 C   0  0  0  0  0  3  0  0  0  0  0  0
  1  6  1  0  0  0  0
  1  7  1  1  0  0  0
  2  8  1  6  0  0  0
  2  3  1  0  0  0  0
  2  1  1  0  0  0  0
  3 10  1  0  0  0  0
  3  4  1  0  0  0  0
  5  4  1  0  0  0  0
  5  6  1  0  0  0  0
  5 11  1  0  0  0  0
  6 13  1  1  0  0  0
  9  3  1  0  0  0  0
 12  5  1  0  0  0  0
 14  1  1  0  0  0  0
 14 15  1  0  0  0  0
 16  2  1  0  0  0  0
 17 22  1  6  0  0  0
 17 16  1  0  0  0  0
 18 23  1  6  0  0  0
 18 19  1  0  0  0  0
 18 28  1  0  0  0  0
 18 17  1  0  0  0  0
 19 24  1  0  0  0  0
 20 21  1  0  0  0  0
 20 19  1  0  0  0  0
 21 17  1  0  0  0  0
 25 19  1  0  0  0  0
 26 21  1  0  0  0  0
 27 21  1  0  0  0  0
 28 33  2  0  0  0  0
 28 29  1  0  0  0  0
 29 30  2  0  0  0  0
 30 31  1  0  0  0  0
 30 35  1  0  0  0  0
 32 36  1  0  0  0  0
 32 31  2  0  0  0  0
 33 32  1  0  0  0  0
 34 29  1  0  0  0  0
 37  6  1  0  0  0  0
 38 37  1  6  0  0  0
 38 43  1  0  0  0  0
 39 40  1  0  0  0  0
 39 38  1  0  0  0  0
 40 41  1  0  0  0  0
 41 42  1  0  0  0  0
 43 42  2  0  0  0  0
M  END
>  <minimizedAffinity>
-5.26679182

$$$$

 OpenBabel03262521443D

 43 46  0  0  1  0  0  0  0  0999 V2000
   37.6980   24.4660   31.4480 C   0  0  2  0  0  0  0  0  0  0  0  0
   37.2380   25.4550   32.5020 C   0  0  2  0  0  0  0  0  0  0  0  0
   36.3030   26.4200   31.8510 C   0  0  0  0  0  0  0  0  0  0  0  0
   35.5930   25.8270   30.8500 O   0  0  0  0  0  0  0  0  0  0  0  0
   35.2220   24.5490   31.2380 C   0  0  0  0  0  0  0  0  0  0  0  0
   36.4250   23.6470   31.1010 C   0  0  2  0  0  0  0  0  0  0  0  0
   37.9610   25.0360   30.5370 H   0  0  0  0  0  0  0  0  0  0  0  0
   36.5970   24.7550   33.0650 H   0  0  0  0  0  0  0  0  0  0  0  0
   35.5850   26.8810   32.5940 H   0  0  0  0  0  0  0  0  0  0  0  0
   36.8410   27.3270   31.4470 H   0  0  0  0  0  0  0  0  0  0  0  0
   34.4610   24.2570   30.4790 H   0  0  0  0  0  0  0  0  0  0  0  0
   34.7250   24.4790   32.2010 H   0  0  0  0  0  0  0  0  0  0  0  0
   36.5200   23.3100   30.0710 H   0  0  0  0  0  0  0  0  0  0  0  0
   38.6180   23.5490   31.8320 O   0  0  0  0  0  0  0  0  0  0  0  0
   39.1650   23.2820   31.0520 H   0  0  0  0  0  0  0  0  0  0  0  0
   38.2110   26.0580   33.2390 O   0  0  0  0  0  0  0  0  0  0  0  0
   38.4580   25.3970   34.3730 C   0  0  1  0  0  0  0  0  0  0  0  0
   39.6410   25.9090   35.1580 C   0  0  2  0  0  0  0  0  0  0  0  0
   39.1110   27.3250   35.4220 C   0  0  0  0  0  0  0  0  0  0  0  0
   37.7810   27.1950   35.7450 O   0  0  0  0  0  0  0  0  0  0  0  0
   37.4010   25.9660   35.3740 C   0  0  0  0  0  0  0  0  0  0  0  0
   38.1140   24.3410   34.4570 H   0  0  0  0  0  0  0  0  0  0  0  0
   39.7100   25.3040   36.0680 H   0  0  0  0  0  0  0  0  0  0  0  0
   39.2250   27.8790   34.4770 H   0  0  0  0  0  0  0  0  0  0  0  0
   39.7320   27.7300   36.2510 H   0  0  0  0  0  0  0  0  0  0  0  0
   36.4510   25.5670   35.4230 H   0  0  0  0  0  0  0  0  0  0  0  0
   37.8170   25.3870   36.2960 H   0  0  0  0  0  0  0  0  0  0  0  0
   40.8720   25.9260   34.3580 C   0  0  0  0  0  0  0  0  0  0  0  0
   41.4090   24.7030   33.9600 C   0  0  0  0  0  0  0  0  0  0  0  0
   42.6090   24.7540   33.2010 C   0  0  0  0  0  0  0  0  0  0  0  0
   43.1590   25.9780   32.9110 N   0  0  0  0  0  0  0  0  0  0  0  0
   42.5980   27.1390   33.3220 C   0  0  0  0  0  0  0  0  0  0  0  0
   41.4600   27.1040   34.0420 N   0  0  0  0  0  0  0  0  0  0  0  0
   40.9760   23.7490   34.1880 H   0  0  0  0  0  0  0  0  0  0  0  0
   43.1030   23.8600   32.8440 H   0  0  0  0  0  0  0  0  0  0  0  0
   43.0460   28.0880   33.0840 H   0  0  0  0  0  0  0  0  0  0  0  0
   36.2570   22.6340   32.0410 O   0  0  0  0  0  0  0  0  0  0  0  0
   35.8020   21.4250   31.5450 C   0  0  2  0  0  3  0  0  0  0  0  0
   34.9640   20.6360   32.4810 C   0  0  0  0  0  2  0  0  0  0  0  0
   35.5270   19.2810   32.8450 C   0  0  0  0  0  2  0  0  0  0  0  0
   35.7010   18.5790   31.4910 C   0  0  0  0  0  2  0  0  0  0  0  0
   36.9650   19.2290   30.9750 C   0  0  0  0  0  3  0  0  0  0  0  0
   36.9240   20.7010   30.8720 C   0  0  0  0  0  3  0  0  0  0  0  0
  1  7  1  6  0  0  0
  1 14  1  0  0  0  0
  1  2  1  0  0  0  0
  2  8  1  1  0  0  0
  2 16  1  0  0  0  0
  3  2  1  0  0  0  0
  3  9  1  0  0  0  0
  4  5  1  0  0  0  0
  4  3  1  0  0  0  0
  5 12  1  0  0  0  0
  6 13  1  6  0  0  0
  6  5  1  0  0  0  0
  6  1  1  0  0  0  0
  6 37  1  0  0  0  0
 10  3  1  0  0  0  0
 11  5  1  0  0  0  0
 15 14  1  0  0  0  0
 16 17  1  0  0  0  0
 17 22  1  6  0  0  0
 17 18  1  0  0  0  0
 17 21  1  0  0  0  0
 18 19  1  0  0  0  0
 18 23  1  1  0  0  0
 19 20  1  0  0  0  0
 19 25  1  0  0  0  0
 21 26  1  0  0  0  0
 21 20  1  0  0  0  0
 21 27  1  0  0  0  0
 24 19  1  0  0  0  0
 28 18  1  0  0  0  0
 29 34  1  0  0  0  0
 29 28  2  0  0  0  0
 30 29  1  0  0  0  0
 31 30  2  0  0  0  0
 31 32  1  0  0  0  0
 32 33  2  0  0  0  0
 33 28  1  0  0  0  0
 35 30  1  0  0  0  0
 36 32  1  0  0  0  0
 38 37  1  1  0  0  0
 38 39  1  0  0  0  0
 39 40  1  0  0  0  0
 41 40  1  0  0  0  0
 42 41  1  0  0  0  0
 43 42  2  0  0  0  0
 43 38  1  0  0  0  0
M  END
>  <minimizedAffinity>
-5.19746971

$$$$

 OpenBabel03262521443D

 43 46  0  0  1  0  0  0  0  0999 V2000
   36.1160   25.4470   30.9590 C   0  0  2  0  0  0  0  0  0  0  0  0
   36.9910   24.9240   32.0830 C   0  0  2  0  0  0  0  0  0  0  0  0
   38.4170   25.1310   31.6920 C   0  0  0  0  0  0  0  0  0  0  0  0
   38.5650   26.2500   30.9270 O   0  0  0  0  0  0  0  0  0  0  0  0
   37.7540   27.2610   31.4190 C   0  0  0  0  0  0  0  0  0  0  0  0
   36.3370   26.9840   30.9780 C   0  0  2  0  0  0  0  0  0  0  0  0
   36.5370   25.0820   30.0030 H   0  0  0  0  0  0  0  0  0  0  0  0
   36.7620   25.7240   32.8080 H   0  0  0  0  0  0  0  0  0  0  0  0
   39.0960   25.2050   32.5940 H   0  0  0  0  0  0  0  0  0  0  0  0
   38.8410   24.2400   31.1450 H   0  0  0  0  0  0  0  0  0  0  0  0
   38.1260   28.1700   30.8960 H   0  0  0  0  0  0  0  0  0  0  0  0
   37.8550   27.4640   32.4810 H   0  0  0  0  0  0  0  0  0  0  0  0
   36.1850   27.3510   29.9660 H   0  0  0  0  0  0  0  0  0  0  0  0
   34.7790   25.2770   31.0960 O   0  0  0  0  0  0  0  0  0  0  0  0
   34.3600   25.2130   30.2030 H   0  0  0  0  0  0  0  0  0  0  0  0
   36.7280   23.6630   32.5230 O   0  0  0  0  0  0  0  0  0  0  0  0
   37.6900   22.8030   32.1740 C   0  0  1  0  0  0  0  0  0  0  0  0
   38.0420   21.7840   33.2290 C   0  0  2  0  0  0  0  0  0  0  0  0
   36.6680   21.1040   33.3200 C   0  0  0  0  0  0  0  0  0  0  0  0
   36.2080   20.9710   32.0320 O   0  0  0  0  0  0  0  0  0  0  0  0
   36.9530   21.7720   31.2590 C   0  0  0  0  0  0  0  0  0  0  0  0
   38.4240   23.1170   31.3960 H   0  0  0  0  0  0  0  0  0  0  0  0
   38.8120   21.1330   32.8040 H   0  0  0  0  0  0  0  0  0  0  0  0
   36.0220   21.7900   33.8900 H   0  0  0  0  0  0  0  0  0  0  0  0
   36.8470   20.1330   33.8310 H   0  0  0  0  0  0  0  0  0  0  0  0
   36.8320   21.9510   30.2510 H   0  0  0  0  0  0  0  0  0  0  0  0
   37.8740   21.0670   31.1420 H   0  0  0  0  0  0  0  0  0  0  0  0
   38.4260   22.4120   34.5000 C   0  0  0  0  0  0  0  0  0  0  0  0
   39.6480   23.0820   34.5540 C   0  0  0  0  0  0  0  0  0  0  0  0
   39.9970   23.6630   35.8020 C   0  0  0  0  0  0  0  0  0  0  0  0
   39.1310   23.5350   36.8580 N   0  0  0  0  0  0  0  0  0  0  0  0
   37.9550   22.8740   36.7560 C   0  0  0  0  0  0  0  0  0  0  0  0
   37.6120   22.3180   35.5770 N   0  0  0  0  0  0  0  0  0  0  0  0
   40.3220   23.1790   33.7250 H   0  0  0  0  0  0  0  0  0  0  0  0
   40.9230   24.2040   35.9460 H   0  0  0  0  0  0  0  0  0  0  0  0
   37.2910   22.7850   37.5970 H   0  0  0  0  0  0  0  0  0  0  0  0
   35.5130   27.5570   31.9440 O   0  0  0  0  0  0  0  0  0  0  0  0
   35.9470   28.7630   32.4620 C   0  0  2  0  0  3  0  0  0  0  0  0
   35.9120   28.8620   33.9420 C   0  0  0  0  0  2  0  0  0  0  0  0
   35.0120   29.9490   34.4830 C   0  0  0  0  0  2  0  0  0  0  0  0
   35.5500   31.2310   33.8300 C   0  0  0  0  0  2  0  0  0  0  0  0
   34.9770   31.1210   32.4350 C   0  0  0  0  0  3  0  0  0  0  0  0
   35.3340   29.8920   31.6980 C   0  0  0  0  0  3  0  0  0  0  0  0
  1  7  1  6  0  0  0
  1  6  1  0  0  0  0
  1 14  1  0  0  0  0
  1  2  1  0  0  0  0
  2 16  1  0  0  0  0
  2  8  1  1  0  0  0
  3  2  1  0  0  0  0
  3  9  1  0  0  0  0
  4  5  1  0  0  0  0
  4  3  1  0  0  0  0
  5 12  1  0  0  0  0
  6 13  1  6  0  0  0
  6  5  1  0  0  0  0
  6 37  1  0  0  0  0
 10  3  1  0  0  0  0
 11  5  1  0  0  0  0
 15 14  1  0  0  0  0
 17 22  1  6  0  0  0
 17 16  1  0  0  0  0
 17 18  1  0  0  0  0
 18 23  1  6  0  0  0
 18 19  1  0  0  0  0
 18 28  1  0  0  0  0
 19 25  1  0  0  0  0
 19 24  1  0  0  0  0
 20 19  1  0  0  0  0
 21 20  1  0  0  0  0
 21 17  1  0  0  0  0
 26 21  1  0  0  0  0
 27 21  1  0  0  0  0
 28 29  2  0  0  0  0
 28 33  1  0  0  0  0
 29 30  1  0  0  0  0
 30 35  1  0  0  0  0
 30 31  2  0  0  0  0
 32 31  1  0  0  0  0
 32 36  1  0  0  0  0
 33 32  2  0  0  0  0
 34 29  1  0  0  0  0
 38 37  1  1  0  0  0
 38 39  1  0  0  0  0
 39 40  1  0  0  0  0
 41 40  1  0  0  0  0
 42 41  1  0  0  0  0
 43 42  2  0  0  0  0
 43 38  1  0  0  0  0
M  END
>  <minimizedAffinity>
-5.15599966

$$$$

 OpenBabel03262521443D

 43 46  0  0  1  0  0  0  0  0999 V2000
   39.5630   23.2240   32.6970 C   0  0  2  0  0  0  0  0  0  0  0  0
   38.7770   24.1210   31.7600 C   0  0  2  0  0  0  0  0  0  0  0  0
   37.8580   23.2600   30.9590 C   0  0  0  0  0  0  0  0  0  0  0  0
   37.4420   22.1770   31.6750 O   0  0  0  0  0  0  0  0  0  0  0  0
   37.1860   22.5560   32.9840 C   0  0  0  0  0  0  0  0  0  0  0  0
   38.5070   22.6900   33.7020 C   0  0  2  0  0  0  0  0  0  0  0  0
   39.9130   22.3480   32.1160 H   0  0  0  0  0  0  0  0  0  0  0  0
   38.1460   24.5920   32.5320 H   0  0  0  0  0  0  0  0  0  0  0  0
   36.9550   23.8330   30.5910 H   0  0  0  0  0  0  0  0  0  0  0  0
   38.3320   22.9150   29.9940 H   0  0  0  0  0  0  0  0  0  0  0  0
   36.6320   21.6850   33.4030 H   0  0  0  0  0  0  0  0  0  0  0  0
   36.5290   23.4130   33.1020 H   0  0  0  0  0  0  0  0  0  0  0  0
   38.8420   21.7150   34.0470 H   0  0  0  0  0  0  0  0  0  0  0  0
   40.5130   23.8170   33.4590 O   0  0  0  0  0  0  0  0  0  0  0  0
   41.2300   23.1680   33.6620 H   0  0  0  0  0  0  0  0  0  0  0  0
   39.4990   24.9930   31.0030 O   0  0  0  0  0  0  0  0  0  0  0  0
   38.7830   26.0680   30.6620 C   0  0  1  0  0  0  0  0  0  0  0  0
   39.1600   27.3360   31.3890 C   0  0  2  0  0  0  0  0  0  0  0  0
   40.6090   27.4300   30.8920 C   0  0  0  0  0  0  0  0  0  0  0  0
   40.5900   27.1080   29.5560 O   0  0  0  0  0  0  0  0  0  0  0  0
   39.4130   26.5210   29.3050 C   0  0  0  0  0  0  0  0  0  0  0  0
   37.7600   25.9140   30.2480 H   0  0  0  0  0  0  0  0  0  0  0  0
   38.5220   28.1340   30.9950 H   0  0  0  0  0  0  0  0  0  0  0  0
   41.1800   26.6790   31.4600 H   0  0  0  0  0  0  0  0  0  0  0  0
   40.9290   28.4760   31.0930 H   0  0  0  0  0  0  0  0  0  0  0  0
   39.1010   26.1080   28.4130 H   0  0  0  0  0  0  0  0  0  0  0  0
   38.7700   27.4890   29.2160 H   0  0  0  0  0  0  0  0  0  0  0  0
   39.0910   27.1800   32.8470 C   0  0  0  0  0  0  0  0  0  0  0  0
   37.8390   27.2720   33.4540 C   0  0  0  0  0  0  0  0  0  0  0  0
   37.8090   27.1330   34.8680 C   0  0  0  0  0  0  0  0  0  0  0  0
   38.9870   26.9230   35.5390 N   0  0  0  0  0  0  0  0  0  0  0  0
   40.1790   26.8420   34.9030 C   0  0  0  0  0  0  0  0  0  0  0  0
   40.2210   26.9710   33.5620 N   0  0  0  0  0  0  0  0  0  0  0  0
   36.9200   27.4370   32.9270 H   0  0  0  0  0  0  0  0  0  0  0  0
   36.8870   27.1890   35.4320 H   0  0  0  0  0  0  0  0  0  0  0  0
   41.0920   26.6770   35.4480 H   0  0  0  0  0  0  0  0  0  0  0  0
   38.3060   23.6350   34.7050 O   0  0  0  0  0  0  0  0  0  0  0  0
   38.2010   23.1320   35.9900 C   0  0  2  0  0  3  0  0  0  0  0  0
   37.3710   23.9400   36.9160 C   0  0  0  0  0  2  0  0  0  0  0  0
   38.1090   24.4760   38.1220 C   0  0  0  0  0  2  0  0  0  0  0  0
   38.6740   23.2190   38.7980 C   0  0  0  0  0  2  0  0  0  0  0  0
   39.8600   22.9080   37.9130 C   0  0  0  0  0  3  0  0  0  0  0  0
   39.5510   22.7180   36.4820 C   0  0  0  0  0  3  0  0  0  0  0  0
  1  7  1  6  0  0  0
  1 14  1  0  0  0  0
  1  6  1  0  0  0  0
  2  8  1  1  0  0  0
  2  1  1  0  0  0  0
  3  4  1  0  0  0  0
  3  2  1  0  0  0  0
  4  5  1  0  0  0  0
  5 12  1  0  0  0  0
  5 11  1  0  0  0  0
  5  6  1  0  0  0  0
  6 13  1  1  0  0  0
  6 37  1  0  0  0  0
  9  3  1  0  0  0  0
 10  3  1  0  0  0  0
 14 15  1  0  0  0  0
 16  2  1  0  0  0  0
 17 22  1  6  0  0  0
 17 16  1  0  0  0  0
 17 18  1  0  0  0  0
 18 23  1  6  0  0  0
 18 28  1  0  0  0  0
 19 25  1  0  0  0  0
 19 18  1  0  0  0  0
 19 24  1  0  0  0  0
 20 19  1  0  0  0  0
 21 20  1  0  0  0  0
 21 17  1  0  0  0  0
 26 21  1  0  0  0  0
 27 21  1  0  0  0  0
 28 29  2  0  0  0  0
 28 33  1  0  0  0  0
 29 30  1  0  0  0  0
 30 35  1  0  0  0  0
 30 31  2  0  0  0  0
 32 36  1  0  0  0  0
 32 31  1  0  0  0  0
 33 32  2  0  0  0  0
 34 29  1  0  0  0  0
 38 37  1  6  0  0  0
 38 43  1  0  0  0  0
 38 39  1  0  0  0  0
 39 40  1  0  0  0  0
 40 41  1  0  0  0  0
 42 41  1  0  0  0  0
 43 42  2  0  0  0  0
M  END
>  <minimizedAffinity>
-5.12516451

$$$$

 OpenBabel03262521443D

 43 46  0  0  1  0  0  0  0  0999 V2000
   38.9130   22.2000   34.2800 C   0  0  2  0  0  0  0  0  0  0  0  0
   37.4210   21.9450   34.1970 C   0  0  2  0  0  0  0  0  0  0  0  0
   36.9240   21.6650   35.5770 C   0  0  0  0  0  0  0  0  0  0  0  0
   37.6340   22.3590   36.5110 O   0  0  0  0  0  0  0  0  0  0  0  0
   37.9000   23.6360   36.0390 C   0  0  0  0  0  0  0  0  0  0  0  0
   39.0360   23.5440   35.0490 C   0  0  2  0  0  0  0  0  0  0  0  0
   39.3560   21.4250   34.9330 H   0  0  0  0  0  0  0  0  0  0  0  0
   37.1230   22.9840   33.9790 H   0  0  0  0  0  0  0  0  0  0  0  0
   35.8250   21.9100   35.6890 H   0  0  0  0  0  0  0  0  0  0  0  0
   36.9500   20.5640   35.8230 H   0  0  0  0  0  0  0  0  0  0  0  0
   38.2510   24.1800   36.9450 H   0  0  0  0  0  0  0  0  0  0  0  0
   37.0380   24.1870   35.6750 H   0  0  0  0  0  0  0  0  0  0  0  0
   39.9870   23.5370   35.5750 H   0  0  0  0  0  0  0  0  0  0  0  0
   39.5650   22.3990   33.1090 O   0  0  0  0  0  0  0  0  0  0  0  0
   40.5050   22.1080   33.1990 H   0  0  0  0  0  0  0  0  0  0  0  0
   37.0090   21.0280   33.2780 O   0  0  0  0  0  0  0  0  0  0  0  0
   35.7440   21.2340   32.9010 C   0  0  1  0  0  0  0  0  0  0  0  0
   35.5790   21.7250   31.4830 C   0  0  2  0  0  0  0  0  0  0  0  0
   36.2000   20.5130   30.7760 C   0  0  0  0  0  0  0  0  0  0  0  0
   35.7280   19.3950   31.4210 O   0  0  0  0  0  0  0  0  0  0  0  0
   35.2100   19.7980   32.5880 C   0  0  0  0  0  0  0  0  0  0  0  0
   34.9850   21.4510   33.6870 H   0  0  0  0  0  0  0  0  0  0  0  0
   34.5040   21.8220   31.2990 H   0  0  0  0  0  0  0  0  0  0  0  0
   37.2900   20.6020   30.9080 H   0  0  0  0  0  0  0  0  0  0  0  0
   35.8740   20.5840   29.7150 H   0  0  0  0  0  0  0  0  0  0  0  0
   34.8240   19.2030   33.3360 H   0  0  0  0  0  0  0  0  0  0  0  0
   34.1780   20.1630   32.1860 H   0  0  0  0  0  0  0  0  0  0  0  0
   36.3400   22.9550   31.2310 C   0  0  0  0  0  0  0  0  0  0  0  0
   35.7470   24.1710   31.5680 C   0  0  0  0  0  0  0  0  0  0  0  0
   36.5040   25.3420   31.2960 C   0  0  0  0  0  0  0  0  0  0  0  0
   37.7460   25.2120   30.7280 N   0  0  0  0  0  0  0  0  0  0  0  0
   38.2790   24.0070   30.4190 C   0  0  0  0  0  0  0  0  0  0  0  0
   37.5720   22.8880   30.6730 N   0  0  0  0  0  0  0  0  0  0  0  0
   34.7760   24.2680   32.0110 H   0  0  0  0  0  0  0  0  0  0  0  0
   36.1320   26.3330   31.5210 H   0  0  0  0  0  0  0  0  0  0  0  0
   39.2550   23.9270   29.9740 H   0  0  0  0  0  0  0  0  0  0  0  0
   38.8590   24.6020   34.1610 O   0  0  0  0  0  0  0  0  0  0  0  0
   39.6870   25.6930   34.3550 C   0  0  2  0  0  3  0  0  0  0  0  0
   39.5890   26.7500   33.3200 C   0  0  0  0  0  2  0  0  0  0  0  0
   40.8710   27.0140   32.5620 C   0  0  0  0  0  2  0  0  0  0  0  0
   41.8810   27.3720   33.6610 C   0  0  0  0  0  2  0  0  0  0  0  0
   42.2140   26.0070   34.2210 C   0  0  0  0  0  3  0  0  0  0  0  0
   41.0620   25.2260   34.7130 C   0  0  0  0  0  3  0  0  0  0  0  0
  1  7  1  1  0  0  0
  1  6  1  0  0  0  0
  2  8  1  6  0  0  0
  2  1  1  0  0  0  0
  2  3  1  0  0  0  0
  3  9  1  0  0  0  0
  3 10  1  0  0  0  0
  3  4  1  0  0  0  0
  5  4  1  0  0  0  0
  5 11  1  0  0  0  0
  6 13  1  1  0  0  0
  6  5  1  0  0  0  0
 12  5  1  0  0  0  0
 14 15  1  0  0  0  0
 14  1  1  0  0  0  0
 16  2  1  0  0  0  0
 17 16  1  0  0  0  0
 17 22  1  1  0  0  0
 18 23  1  6  0  0  0
 18 17  1  0  0  0  0
 19 24  1  0  0  0  0
 19 20  1  0  0  0  0
 19 18  1  0  0  0  0
 20 21  1  0  0  0  0
 21 17  1  0  0  0  0
 21 26  1  0  0  0  0
 25 19  1  0  0  0  0
 27 21  1  0  0  0  0
 28 18  1  0  0  0  0
 28 29  1  0  0  0  0
 29 34  1  0  0  0  0
 30 35  1  0  0  0  0
 30 29  2  0  0  0  0
 31 30  1  0  0  0  0
 32 33  1  0  0  0  0
 32 31  2  0  0  0  0
 33 28  2  0  0  0  0
 36 32  1  0  0  0  0
 37  6  1  0  0  0  0
 38 37  1  6  0  0  0
 38 43  1  0  0  0  0
 39 38  1  0  0  0  0
 40 39  1  0  0  0  0
 40 41  1  0  0  0  0
 41 42  1  0  0  0  0
 42 43  2  0  0  0  0
M  END
>  <minimizedAffinity>
-5.11627722

$$$$

 OpenBabel03262521443D

 43 46  0  0  1  0  0  0  0  0999 V2000
   39.3350   26.2710   34.2340 C   0  0  2  0  0  0  0  0  0  0  0  0
   38.6330   25.6270   35.4150 C   0  0  2  0  0  0  0  0  0  0  0  0
   38.2320   26.7120   36.3600 C   0  0  0  0  0  0  0  0  0  0  0  0
   37.9330   27.8640   35.6960 O   0  0  0  0  0  0  0  0  0  0  0  0
   37.2340   27.5650   34.5370 C   0  0  0  0  0  0  0  0  0  0  0  0
   38.2200   27.0700   33.5070 C   0  0  2  0  0  0  0  0  0  0  0  0
   40.0490   27.0190   34.6290 H   0  0  0  0  0  0  0  0  0  0  0  0
   37.7110   25.3450   34.8780 H   0  0  0  0  0  0  0  0  0  0  0  0
   37.3490   26.4110   36.9990 H   0  0  0  0  0  0  0  0  0  0  0  0
   39.0280   26.9170   37.1340 H   0  0  0  0  0  0  0  0  0  0  0  0
   36.8340   28.5520   34.2120 H   0  0  0  0  0  0  0  0  0  0  0  0
   36.3690   26.9210   34.6670 H   0  0  0  0  0  0  0  0  0  0  0  0
   38.6910   27.9130   33.0080 H   0  0  0  0  0  0  0  0  0  0  0  0
   39.8450   25.4360   33.2970 O   0  0  0  0  0  0  0  0  0  0  0  0
   40.6220   25.8620   32.8600 H   0  0  0  0  0  0  0  0  0  0  0  0
   39.2810   24.5940   36.0210 O   0  0  0  0  0  0  0  0  0  0  0  0
   38.4350   23.6370   36.4110 C   0  0  1  0  0  0  0  0  0  0  0  0
   38.7440   22.2610   35.8720 C   0  0  2  0  0  0  0  0  0  0  0  0
   40.1300   22.1000   36.5120 C   0  0  0  0  0  0  0  0  0  0  0  0
   40.0310   22.5830   37.7940 O   0  0  0  0  0  0  0  0  0  0  0  0
   38.9010   23.2980   37.8640 C   0  0  0  0  0  0  0  0  0  0  0  0
   37.4010   23.9300   36.7060 H   0  0  0  0  0  0  0  0  0  0  0  0
   38.0000   21.5760   36.2910 H   0  0  0  0  0  0  0  0  0  0  0  0
   40.8180   22.7230   35.9180 H   0  0  0  0  0  0  0  0  0  0  0  0
   40.3600   21.0130   36.4620 H   0  0  0  0  0  0  0  0  0  0  0  0
   38.5580   23.8420   38.6700 H   0  0  0  0  0  0  0  0  0  0  0  0
   38.1600   22.4090   38.0010 H   0  0  0  0  0  0  0  0  0  0  0  0
   38.8130   22.2440   34.4050 C   0  0  0  0  0  0  0  0  0  0  0  0
   37.6160   22.3120   33.6950 C   0  0  0  0  0  0  0  0  0  0  0  0
   37.7170   22.2760   32.2780 C   0  0  0  0  0  0  0  0  0  0  0  0
   38.9590   22.1780   31.7040 N   0  0  0  0  0  0  0  0  0  0  0  0
   40.0940   22.1140   32.4390 C   0  0  0  0  0  0  0  0  0  0  0  0
   40.0120   22.1480   33.7840 N   0  0  0  0  0  0  0  0  0  0  0  0
   36.6470   22.3890   34.1470 H   0  0  0  0  0  0  0  0  0  0  0  0
   36.8460   22.3240   31.6370 H   0  0  0  0  0  0  0  0  0  0  0  0
   41.0580   22.0370   31.9690 H   0  0  0  0  0  0  0  0  0  0  0  0
   37.5080   26.2120   32.6710 O   0  0  0  0  0  0  0  0  0  0  0  0
   37.2520   26.6900   31.3990 C   0  0  2  0  0  3  0  0  0  0  0  0
   38.4540   26.9160   30.5590 C   0  0  0  0  0  2  0  0  0  0  0  0
   38.6530   28.3470   30.1120 C   0  0  0  0  0  2  0  0  0  0  0  0
   37.3540   28.6840   29.3670 C   0  0  0  0  0  2  0  0  0  0  0  0
   36.4010   28.9260   30.5160 C   0  0  0  0  0  3  0  0  0  0  0  0
   36.2600   27.8060   31.4680 C   0  0  0  0  0  3  0  0  0  0  0  0
  1  7  1  1  0  0  0
  1  2  1  0  0  0  0
  2  8  1  6  0  0  0
  2 16  1  0  0  0  0
  2  3  1  0  0  0  0
  3  9  1  0  0  0  0
  3 10  1  0  0  0  0
  4  3  1  0  0  0  0
  5 12  1  0  0  0  0
  5  4  1  0  0  0  0
  6 13  1  6  0  0  0
  6  1  1  0  0  0  0
  6  5  1  0  0  0  0
 11  5  1  0  0  0  0
 14  1  1  0  0  0  0
 15 14  1  0  0  0  0
 16 17  1  0  0  0  0
 17 22  1  6  0  0  0
 17 21  1  0  0  0  0
 18 23  1  1  0  0  0
 18 17  1  0  0  0  0
 18 19  1  0  0  0  0
 19 20  1  0  0  0  0
 20 21  1  0  0  0  0
 21 27  1  0  0  0  0
 21 26  1  0  0  0  0
 24 19  1  0  0  0  0
 25 19  1  0  0  0  0
 28 18  1  0  0  0  0
 29 34  1  0  0  0  0
 29 28  2  0  0  0  0
 30 29  1  0  0  0  0
 31 30  2  0  0  0  0
 31 32  1  0  0  0  0
 32 33  2  0  0  0  0
 33 28  1  0  0  0  0
 35 30  1  0  0  0  0
 36 32  1  0  0  0  0
 37  6  1  0  0  0  0
 38 43  1  0  0  0  0
 38 37  1  1  0  0  0
 39 38  1  0  0  0  0
 40 39  1  0  0  0  0
 41 40  1  0  0  0  0
 41 42  1  0  0  0  0
 42 43  2  0  0  0  0
M  END
>  <minimizedAffinity>
-5.09552193

$$$$

 OpenBabel03262521443D

 43 46  0  0  1  0  0  0  0  0999 V2000
   36.0070   29.6580   33.8460 C   0  0  2  0  0  0  0  0  0  0  0  0
   34.6020   30.2200   33.9470 C   0  0  2  0  0  0  0  0  0  0  0  0
   34.4870   31.3510   32.9790 C   0  0  0  0  0  0  0  0  0  0  0  0
   35.2590   31.1400   31.8750 O   0  0  0  0  0  0  0  0  0  0  0  0
   35.1860   29.8060   31.5040 C   0  0  0  0  0  0  0  0  0  0  0  0
   36.0660   29.0100   32.4360 C   0  0  2  0  0  0  0  0  0  0  0  0
   36.7150   30.5090   33.8280 H   0  0  0  0  0  0  0  0  0  0  0  0
   34.0880   29.3680   33.4720 H   0  0  0  0  0  0  0  0  0  0  0  0
   33.4170   31.5240   32.6560 H   0  0  0  0  0  0  0  0  0  0  0  0
   34.7590   32.3410   33.4470 H   0  0  0  0  0  0  0  0  0  0  0  0
   35.6330   29.7950   30.4840 H   0  0  0  0  0  0  0  0  0  0  0  0
   34.1810   29.4070   31.3940 H   0  0  0  0  0  0  0  0  0  0  0  0
   37.0980   29.0500   32.0970 H   0  0  0  0  0  0  0  0  0  0  0  0
   36.3320   28.6660   34.7090 O   0  0  0  0  0  0  0  0  0  0  0  0
   37.3050   28.6860   34.8870 H   0  0  0  0  0  0  0  0  0  0  0  0
   34.1590   30.5320   35.1970 O   0  0  0  0  0  0  0  0  0  0  0  0
   33.1120   31.3600   35.1610 C   0  0  1  0  0  0  0  0  0  0  0  0
   32.0220   31.0450   36.1570 C   0  0  2  0  0  0  0  0  0  0  0  0
   32.8560   31.2270   37.4330 C   0  0  0  0  0  0  0  0  0  0  0  0
   33.6300   32.3460   37.2430 O   0  0  0  0  0  0  0  0  0  0  0  0
   33.6100   32.6250   35.9330 C   0  0  0  0  0  0  0  0  0  0  0  0
   32.8970   31.9030   34.2120 H   0  0  0  0  0  0  0  0  0  0  0  0
   31.2480   31.8110   36.0410 H   0  0  0  0  0  0  0  0  0  0  0  0
   33.4900   30.3300   37.5180 H   0  0  0  0  0  0  0  0  0  0  0  0
   32.1200   31.3300   38.2610 H   0  0  0  0  0  0  0  0  0  0  0  0
   34.1350   33.3680   35.4470 H   0  0  0  0  0  0  0  0  0  0  0  0
   32.5810   33.1710   35.9030 H   0  0  0  0  0  0  0  0  0  0  0  0
   31.5260   29.6700   36.0190 C   0  0  0  0  0  0  0  0  0  0  0  0
   31.5420   28.8530   37.1490 C   0  0  0  0  0  0  0  0  0  0  0  0
   31.0710   27.5240   36.9760 C   0  0  0  0  0  0  0  0  0  0  0  0
   30.6380   27.1300   35.7360 N   0  0  0  0  0  0  0  0  0  0  0  0
   30.6420   27.9610   34.6680 C   0  0  0  0  0  0  0  0  0  0  0  0
   31.0860   29.2250   34.8180 N   0  0  0  0  0  0  0  0  0  0  0  0
   31.8810   29.1660   38.1170 H   0  0  0  0  0  0  0  0  0  0  0  0
   31.0430   26.8130   37.7920 H   0  0  0  0  0  0  0  0  0  0  0  0
   30.2990   27.6320   33.7040 H   0  0  0  0  0  0  0  0  0  0  0  0
   35.5120   27.7330   32.4920 O   0  0  0  0  0  0  0  0  0  0  0  0
   36.1590   26.7650   31.7460 C   0  0  2  0  0  3  0  0  0  0  0  0
   35.2740   25.9210   30.9060 C   0  0  0  0  0  2  0  0  0  0  0  0
   35.3070   24.4460   31.2370 C   0  0  0  0  0  2  0  0  0  0  0  0
   36.7870   24.0670   31.0810 C   0  0  0  0  0  2  0  0  0  0  0  0
   37.3740   24.6110   32.3640 C   0  0  0  0  0  3  0  0  0  0  0  0
   37.1580   26.0520   32.5990 C   0  0  0  0  0  3  0  0  0  0  0  0
  1  7  1  1  0  0  0
  1  2  1  0  0  0  0
  1 14  1  0  0  0  0
  2  8  1  6  0  0  0
  2 16  1  0  0  0  0
  3 10  1  0  0  0  0
  3  2  1  0  0  0  0
  4  3  1  0  0  0  0
  5  4  1  0  0  0  0
  5  6  1  0  0  0  0
  6 13  1  6  0  0  0
  6 37  1  0  0  0  0
  6  1  1  0  0  0  0
  9  3  1  0  0  0  0
 11  5  1  0  0  0  0
 12  5  1  0  0  0  0
 14 15  1  0  0  0  0
 17 22  1  6  0  0  0
 17 16  1  0  0  0  0
 17 21  1  0  0  0  0
 17 18  1  0  0  0  0
 18 23  1  6  0  0  0
 18 19  1  0  0  0  0
 19 24  1  0  0  0  0
 19 25  1  0  0  0  0
 20 19  1  0  0  0  0
 21 20  1  0  0  0  0
 26 21  1  0  0  0  0
 27 21  1  0  0  0  0
 28 18  1  0  0  0  0
 28 29  1  0  0  0  0
 29 34  1  0  0  0  0
 30 29  2  0  0  0  0
 30 35  1  0  0  0  0
 31 30  1  0  0  0  0
 32 33  1  0  0  0  0
 32 31  2  0  0  0  0
 33 28  2  0  0  0  0
 36 32  1  0  0  0  0
 38 37  1  1  0  0  0
 38 43  1  0  0  0  0
 39 40  1  0  0  0  0
 39 38  1  0  0  0  0
 41 40  1  0  0  0  0
 41 42  1  0  0  0  0
 42 43  2  0  0  0  0
M  END
>  <minimizedAffinity>
-5.07864332

$$$$

 OpenBabel03262521443D

 43 46  0  0  1  0  0  0  0  0999 V2000
   38.2700   26.6970   31.1940 C   0  0  2  0  0  0  0  0  0  0  0  0
   37.1040   27.4810   31.7660 C   0  0  2  0  0  0  0  0  0  0  0  0
   35.8420   26.8590   31.2680 C   0  0  0  0  0  0  0  0  0  0  0  0
   35.9820   25.5140   31.1020 O   0  0  0  0  0  0  0  0  0  0  0  0
   36.7300   24.9910   32.1460 C   0  0  0  0  0  0  0  0  0  0  0  0
   38.1830   25.3110   31.8890 C   0  0  2  0  0  0  0  0  0  0  0  0
   38.0690   26.5210   30.1210 H   0  0  0  0  0  0  0  0  0  0  0  0
   37.2140   27.1360   32.8080 H   0  0  0  0  0  0  0  0  0  0  0  0
   34.9690   27.0590   31.9610 H   0  0  0  0  0  0  0  0  0  0  0  0
   35.4900   27.3250   30.3020 H   0  0  0  0  0  0  0  0  0  0  0  0
   36.5780   23.8920   32.0510 H   0  0  0  0  0  0  0  0  0  0  0  0
   36.3880   25.2560   33.1420 H   0  0  0  0  0  0  0  0  0  0  0  0
   38.6110   24.5750   31.2120 H   0  0  0  0  0  0  0  0  0  0  0  0
   39.5120   27.1580   31.4730 O   0  0  0  0  0  0  0  0  0  0  0  0
   40.1320   26.9050   30.7460 H   0  0  0  0  0  0  0  0  0  0  0  0
   37.1410   28.8330   31.6050 O   0  0  0  0  0  0  0  0  0  0  0  0
   36.2230   29.2550   30.7310 C   0  0  1  0  0  0  0  0  0  0  0  0
   35.5110   30.5260   31.1270 C   0  0  2  0  0  0  0  0  0  0  0  0
   36.7390   31.4450   31.1590 C   0  0  0  0  0  0  0  0  0  0  0  0
   37.5010   31.1230   30.0620 O   0  0  0  0  0  0  0  0  0  0  0  0
   37.0650   29.9410   29.6070 C   0  0  0  0  0  0  0  0  0  0  0  0
   35.7500   28.5060   30.0550 H   0  0  0  0  0  0  0  0  0  0  0  0
   34.8160   30.7710   30.3170 H   0  0  0  0  0  0  0  0  0  0  0  0
   37.2810   31.2040   32.0870 H   0  0  0  0  0  0  0  0  0  0  0  0
   36.3390   32.4820   31.1340 H   0  0  0  0  0  0  0  0  0  0  0  0
   37.4600   29.3900   28.8310 H   0  0  0  0  0  0  0  0  0  0  0  0
   36.1400   30.3310   29.0150 H   0  0  0  0  0  0  0  0  0  0  0  0
   34.8750   30.4160   32.4460 C   0  0  0  0  0  0  0  0  0  0  0  0
   35.4280   31.1420   33.5000 C   0  0  0  0  0  0  0  0  0  0  0  0
   34.7990   31.0000   34.7660 C   0  0  0  0  0  0  0  0  0  0  0  0
   33.7080   30.1750   34.8760 N   0  0  0  0  0  0  0  0  0  0  0  0
   33.2080   29.4910   33.8210 C   0  0  0  0  0  0  0  0  0  0  0  0
   33.7950   29.6170   32.6140 N   0  0  0  0  0  0  0  0  0  0  0  0
   36.2810   31.7860   33.4100 H   0  0  0  0  0  0  0  0  0  0  0  0
   35.1520   31.5220   35.6460 H   0  0  0  0  0  0  0  0  0  0  0  0
   32.3520   28.8490   33.9290 H   0  0  0  0  0  0  0  0  0  0  0  0
   38.7890   25.3830   33.1410 O   0  0  0  0  0  0  0  0  0  0  0  0
   38.0400   24.8980   34.1980 C   0  0  2  0  0  3  0  0  0  0  0  0
   37.6920   25.9010   35.2340 C   0  0  0  0  0  2  0  0  0  0  0  0
   38.2310   25.5990   36.6140 C   0  0  0  0  0  2  0  0  0  0  0  0
   37.6590   24.2110   36.9360 C   0  0  0  0  0  2  0  0  0  0  0  0
   38.5680   23.3150   36.1250 C   0  0  0  0  0  3  0  0  0  0  0  0
   38.6210   23.6070   34.6790 C   0  0  0  0  0  3  0  0  0  0  0  0
  1  7  1  6  0  0  0
  1 14  1  0  0  0  0
  1  2  1  0  0  0  0
  1  6  1  0  0  0  0
  2  8  1  1  0  0  0
  3  2  1  0  0  0  0
  3  9  1  0  0  0  0
  4  3  1  0  0  0  0
  4  5  1  0  0  0  0
  5 12  1  0  0  0  0
  6 13  1  6  0  0  0
  6  5  1  0  0  0  0
  6 37  1  0  0  0  0
 10  3  1  0  0  0  0
 11  5  1  0  0  0  0
 15 14  1  0  0  0  0
 16  2  1  0  0  0  0
 17 22  1  6  0  0  0
 17 18  1  0  0  0  0
 17 16  1  0  0  0  0
 18 23  1  6  0  0  0
 18 19  1  0  0  0  0
 18 28  1  0  0  0  0
 19 24  1  0  0  0  0
 20 19  1  0  0  0  0
 21 20  1  0  0  0  0
 21 17  1  0  0  0  0
 25 19  1  0  0  0  0
 26 21  1  0  0  0  0
 27 21  1  0  0  0  0
 28 33  2  0  0  0  0
 28 29  1  0  0  0  0
 29 30  2  0  0  0  0
 30 31  1  0  0  0  0
 30 35  1  0  0  0  0
 32 36  1  0  0  0  0
 32 31  2  0  0  0  0
 33 32  1  0  0  0  0
 34 29  1  0  0  0  0
 38 37  1  6  0  0  0
 38 43  1  0  0  0  0
 38 39  1  0  0  0  0
 39 40  1  0  0  0  0
 40 41  1  0  0  0  0
 42 41  1  0  0  0  0
 43 42  2  0  0  0  0
M  END
>  <minimizedAffinity>
-5.06317139

$$$$
