
 OpenBabel03272501063D

 27 29  0  0  1  0  0  0  0  0999 V2000
   37.9000   26.3680   34.8410 C   0  0  2  0  0  0  0  0  0  0  0  0
   38.3560   25.7940   33.4990 C   0  0  2  0  0  0  0  0  0  0  0  0
   39.2760   26.8520   33.0430 C   0  0  0  0  0  0  0  0  0  0  0  0
   39.9620   27.2810   34.1750 O   0  0  0  0  0  0  0  0  0  0  0  0
   39.2780   26.8910   35.2920 C   0  0  0  0  0  0  0  0  0  0  0  0
   37.2200   27.1950   34.6540 H   0  0  0  0  0  0  0  0  0  0  0  0
   38.9520   24.8850   33.8080 H   0  0  0  0  0  0  0  0  0  0  0  0
   38.6870   27.7150   32.6330 H   0  0  0  0  0  0  0  0  0  0  0  0
   39.9700   26.4440   32.2750 H   0  0  0  0  0  0  0  0  0  0  0  0
   39.7930   26.0950   35.8430 H   0  0  0  0  0  0  0  0  0  0  0  0
   39.0720   27.7210   35.9980 H   0  0  0  0  0  0  0  0  0  0  0  0
   35.8220   23.9390   31.3940 C   0  0  0  0  0  0  0  0  0  0  0  0
   36.9090   24.1390   32.2830 C   0  0  0  0  0  0  0  0  0  0  0  0
   37.2490   25.4770   32.6150 C   0  0  0  0  0  0  0  0  0  0  0  0
   36.5050   26.4940   32.0550 N   0  0  0  0  0  0  0  0  0  0  0  0
   35.4920   26.2600   31.2240 C   0  0  0  0  0  0  0  0  0  0  0  0
   35.1400   24.9880   30.8850 N   0  0  0  0  0  0  0  0  0  0  0  0
   35.5260   22.9370   31.1130 H   0  0  0  0  0  0  0  0  0  0  0  0
   37.4550   23.3150   32.6920 H   0  0  0  0  0  0  0  0  0  0  0  0
   35.0010   27.1580   30.8630 H   0  0  0  0  0  0  0  0  0  0  0  0
   37.4520   25.4020   35.7070 O   0  0  0  0  0  0  0  0  0  0  0  0
   38.4140   24.6930   36.3800 C   0  0  0  0  0  3  0  0  0  0  0  0
   38.0810   24.6440   37.8440 C   0  0  0  0  0  2  0  0  0  0  0  0
   38.4590   23.2980   38.4730 C   0  0  0  0  0  2  0  0  0  0  0  0
   39.7790   22.8560   37.9000 C   0  0  0  0  0  2  0  0  0  0  0  0
   39.5750   22.5160   36.4430 C   0  0  0  0  0  2  0  0  0  0  0  0
   38.3600   23.2220   35.9070 C   0  0  0  0  0  2  0  0  0  0  0  0
  1  6  1  6  0  0  0
  1  5  1  0  0  0  0
  1 21  1  0  0  0  0
  2  7  1  1  0  0  0
  2  1  1  0  0  0  0
  3  2  1  0  0  0  0
  3  4  1  0  0  0  0
  4  5  1  0  0  0  0
  5 10  1  0  0  0  0
  5 11  1  0  0  0  0
  8  3  1  0  0  0  0
  9  3  1  0  0  0  0
 12 13  1  0  0  0  0
 13 14  2  0  0  0  0
 13 19  1  0  0  0  0
 14  2  1  0  0  0  0
 15 14  1  0  0  0  0
 16 15  2  0  0  0  0
 17 16  1  0  0  0  0
 17 12  2  0  0  0  0
 18 12  1  0  0  0  0
 20 16  1  0  0  0  0
 21 22  1  0  0  0  0
 22 23  1  0  0  0  0
 23 24  1  0  0  0  0
 25 24  1  0  0  0  0
 26 25  1  0  0  0  0
 27 22  1  0  0  0  0
 27 26  1  0  0  0  0
M  END
>  <minimizedAffinity>
-5.08990765

$$$$

 OpenBabel03272501063D

 27 29  0  0  1  0  0  0  0  0999 V2000
   38.8760   23.5810   33.3750 C   0  0  2  0  0  0  0  0  0  0  0  0
   39.1860   24.6600   34.4140 C   0  0  2  0  0  0  0  0  0  0  0  0
   40.5500   25.0470   34.0120 C   0  0  0  0  0  0  0  0  0  0  0  0
   40.5600   25.0380   32.6210 O   0  0  0  0  0  0  0  0  0  0  0  0
   39.4970   24.3090   32.1680 C   0  0  0  0  0  0  0  0  0  0  0  0
   39.4460   22.6880   33.6180 H   0  0  0  0  0  0  0  0  0  0  0  0
   38.4640   25.4840   34.1380 H   0  0  0  0  0  0  0  0  0  0  0  0
   41.2850   24.2830   34.3820 H   0  0  0  0  0  0  0  0  0  0  0  0
   40.7910   26.0560   34.4150 H   0  0  0  0  0  0  0  0  0  0  0  0
   38.7280   24.9360   31.7000 H   0  0  0  0  0  0  0  0  0  0  0  0
   39.7790   23.5150   31.4450 H   0  0  0  0  0  0  0  0  0  0  0  0
   37.9340   24.1740   37.9490 C   0  0  0  0  0  0  0  0  0  0  0  0
   37.9930   24.6810   36.6250 C   0  0  0  0  0  0  0  0  0  0  0  0
   39.0230   24.1930   35.7790 C   0  0  0  0  0  0  0  0  0  0  0  0
   39.9000   23.2600   36.2940 N   0  0  0  0  0  0  0  0  0  0  0  0
   39.8080   22.8120   37.5430 C   0  0  0  0  0  0  0  0  0  0  0  0
   38.8310   23.2610   38.3810 N   0  0  0  0  0  0  0  0  0  0  0  0
   37.1670   24.5160   38.6290 H   0  0  0  0  0  0  0  0  0  0  0  0
   37.2880   25.4040   36.2720 H   0  0  0  0  0  0  0  0  0  0  0  0
   40.5660   22.0830   37.8080 H   0  0  0  0  0  0  0  0  0  0  0  0
   37.5290   23.4040   33.1810 O   0  0  0  0  0  0  0  0  0  0  0  0
   37.1040   22.1140   32.9920 C   0  0  0  0  0  3  0  0  0  0  0  0
   36.8080   21.4750   34.3190 C   0  0  0  0  0  2  0  0  0  0  0  0
   35.6000   20.5340   34.2450 C   0  0  0  0  0  2  0  0  0  0  0  0
   35.6630   19.7750   32.9460 C   0  0  0  0  0  2  0  0  0  0  0  0
   35.4200   20.7460   31.8160 C   0  0  0  0  0  2  0  0  0  0  0  0
   35.7470   22.1480   32.2520 C   0  0  0  0  0  2  0  0  0  0  0  0
  1  6  1  1  0  0  0
  1  2  1  0  0  0  0
  2  7  1  6  0  0  0
  2 14  1  0  0  0  0
  3  8  1  0  0  0  0
  3  2  1  0  0  0  0
  3  9  1  0  0  0  0
  4  3  1  0  0  0  0
  5  4  1  0  0  0  0
  5  1  1  0  0  0  0
 10  5  1  0  0  0  0
 11  5  1  0  0  0  0
 12 17  1  0  0  0  0
 12 18  1  0  0  0  0
 13 12  2  0  0  0  0
 14 15  2  0  0  0  0
 14 13  1  0  0  0  0
 15 16  1  0  0  0  0
 16 20  1  0  0  0  0
 16 17  2  0  0  0  0
 19 13  1  0  0  0  0
 21  1  1  0  0  0  0
 22 21  1  0  0  0  0
 22 23  1  0  0  0  0
 24 23  1  0  0  0  0
 25 24  1  0  0  0  0
 26 27  1  0  0  0  0
 26 25  1  0  0  0  0
 27 22  1  0  0  0  0
M  END
>  <minimizedAffinity>
-4.68661165

$$$$

 OpenBabel03272501063D

 27 29  0  0  1  0  0  0  0  0999 V2000
   34.4530   29.6040   32.8680 C   0  0  2  0  0  0  0  0  0  0  0  0
   35.8430   29.2990   32.3060 C   0  0  2  0  0  0  0  0  0  0  0  0
   35.7200   29.8560   30.9470 C   0  0  0  0  0  0  0  0  0  0  0  0
   34.9850   31.0310   31.0760 O   0  0  0  0  0  0  0  0  0  0  0  0
   34.3240   31.0190   32.2720 C   0  0  0  0  0  0  0  0  0  0  0  0
   33.7350   28.9290   32.4100 H   0  0  0  0  0  0  0  0  0  0  0  0
   36.5120   29.9650   32.9270 H   0  0  0  0  0  0  0  0  0  0  0  0
   35.1470   29.1440   30.2960 H   0  0  0  0  0  0  0  0  0  0  0  0
   36.7310   30.0520   30.5270 H   0  0  0  0  0  0  0  0  0  0  0  0
   34.7370   31.7420   32.9870 H   0  0  0  0  0  0  0  0  0  0  0  0
   33.2350   31.2120   32.1790 H   0  0  0  0  0  0  0  0  0  0  0  0
   37.2770   25.9930   33.4500 C   0  0  0  0  0  0  0  0  0  0  0  0
   36.9740   27.3780   33.4660 C   0  0  0  0  0  0  0  0  0  0  0  0
   36.1920   27.8930   32.3980 C   0  0  0  0  0  0  0  0  0  0  0  0
   35.7780   27.0180   31.4160 N   0  0  0  0  0  0  0  0  0  0  0  0
   36.0870   25.7230   31.4410 C   0  0  0  0  0  0  0  0  0  0  0  0
   36.8350   25.1980   32.4510 N   0  0  0  0  0  0  0  0  0  0  0  0
   37.8690   25.5570   34.2430 H   0  0  0  0  0  0  0  0  0  0  0  0
   37.3180   28.0170   34.2520 H   0  0  0  0  0  0  0  0  0  0  0  0
   35.6930   25.1590   30.6020 H   0  0  0  0  0  0  0  0  0  0  0  0
   34.4370   29.6630   34.2390 O   0  0  0  0  0  0  0  0  0  0  0  0
   34.5520   30.9100   34.7980 C   0  0  0  0  0  3  0  0  0  0  0  0
   33.5110   31.0900   35.8650 C   0  0  0  0  0  2  0  0  0  0  0  0
   34.0390   31.9070   37.0500 C   0  0  0  0  0  2  0  0  0  0  0  0
   34.8920   33.0270   36.5160 C   0  0  0  0  0  2  0  0  0  0  0  0
   36.1420   32.4280   35.9190 C   0  0  0  0  0  2  0  0  0  0  0  0
   35.9060   30.9920   35.5410 C   0  0  0  0  0  2  0  0  0  0  0  0
  1  6  1  6  0  0  0
  1 21  1  0  0  0  0
  2 14  1  0  0  0  0
  2  1  1  0  0  0  0
  2  7  1  1  0  0  0
  3  4  1  0  0  0  0
  3  2  1  0  0  0  0
  4  5  1  0  0  0  0
  5  1  1  0  0  0  0
  5 10  1  0  0  0  0
  8  3  1  0  0  0  0
  9  3  1  0  0  0  0
 11  5  1  0  0  0  0
 12 13  1  0  0  0  0
 12 18  1  0  0  0  0
 13 19  1  0  0  0  0
 14 13  2  0  0  0  0
 15 16  2  0  0  0  0
 15 14  1  0  0  0  0
 16 17  1  0  0  0  0
 17 12  2  0  0  0  0
 20 16  1  0  0  0  0
 21 22  1  0  0  0  0
 22 27  1  0  0  0  0
 22 23  1  0  0  0  0
 23 24  1  0  0  0  0
 25 24  1  0  0  0  0
 26 25  1  0  0  0  0
 27 26  1  0  0  0  0
M  END
>  <minimizedAffinity>
-4.62991762

$$$$

 OpenBabel03272501063D

 27 29  0  0  1  0  0  0  0  0999 V2000
   38.9260   24.1400   36.3150 C   0  0  2  0  0  0  0  0  0  0  0  0
   39.3620   22.8960   37.0920 C   0  0  2  0  0  0  0  0  0  0  0  0
   38.9790   23.2770   38.4640 C   0  0  0  0  0  0  0  0  0  0  0  0
   37.7660   23.9510   38.3530 O   0  0  0  0  0  0  0  0  0  0  0  0
   37.5950   24.3600   37.0600 C   0  0  0  0  0  0  0  0  0  0  0  0
   39.6220   24.9470   36.5300 H   0  0  0  0  0  0  0  0  0  0  0  0
   38.6520   22.1040   36.7100 H   0  0  0  0  0  0  0  0  0  0  0  0
   39.7430   23.9820   38.8880 H   0  0  0  0  0  0  0  0  0  0  0  0
   38.8830   22.3670   39.0960 H   0  0  0  0  0  0  0  0  0  0  0  0
   36.8050   23.8000   36.5440 H   0  0  0  0  0  0  0  0  0  0  0  0
   37.3680   25.4420   36.9640 H   0  0  0  0  0  0  0  0  0  0  0  0
   43.0080   23.0340   36.1030 C   0  0  0  0  0  0  0  0  0  0  0  0
   41.6700   23.4680   36.2820 C   0  0  0  0  0  0  0  0  0  0  0  0
   40.7580   22.5600   36.8820 C   0  0  0  0  0  0  0  0  0  0  0  0
   41.2280   21.3170   37.2510 N   0  0  0  0  0  0  0  0  0  0  0  0
   42.4930   20.9500   37.0630 C   0  0  0  0  0  0  0  0  0  0  0  0
   43.3930   21.7980   36.4910 N   0  0  0  0  0  0  0  0  0  0  0  0
   43.7380   23.6920   35.6510 H   0  0  0  0  0  0  0  0  0  0  0  0
   41.3550   24.4450   35.9800 H   0  0  0  0  0  0  0  0  0  0  0  0
   42.7160   19.9440   37.4020 H   0  0  0  0  0  0  0  0  0  0  0  0
   38.6900   23.8810   34.9890 O   0  0  0  0  0  0  0  0  0  0  0  0
   39.1090   24.8350   34.0970 C   0  0  0  0  0  3  0  0  0  0  0  0
   37.9340   25.3600   33.3230 C   0  0  0  0  0  2  0  0  0  0  0  0
   38.0620   26.8600   33.0350 C   0  0  0  0  0  2  0  0  0  0  0  0
   39.4950   27.1600   32.6850 C   0  0  0  0  0  2  0  0  0  0  0  0
   40.3360   26.9690   33.9250 C   0  0  0  0  0  2  0  0  0  0  0  0
   39.6410   26.0500   34.8910 C   0  0  0  0  0  2  0  0  0  0  0  0
  1  6  1  1  0  0  0
  1  5  1  0  0  0  0
  1  2  1  0  0  0  0
  2  7  1  6  0  0  0
  2  3  1  0  0  0  0
  3  8  1  0  0  0  0
  3  9  1  0  0  0  0
  4  3  1  0  0  0  0
  5  4  1  0  0  0  0
 10  5  1  0  0  0  0
 11  5  1  0  0  0  0
 12 13  2  0  0  0  0
 12 17  1  0  0  0  0
 13 14  1  0  0  0  0
 14  2  1  0  0  0  0
 14 15  2  0  0  0  0
 16 15  1  0  0  0  0
 16 20  1  0  0  0  0
 17 16  2  0  0  0  0
 18 12  1  0  0  0  0
 19 13  1  0  0  0  0
 21  1  1  0  0  0  0
 22 27  1  0  0  0  0
 22 21  1  0  0  0  0
 23 22  1  0  0  0  0
 24 23  1  0  0  0  0
 25 24  1  0  0  0  0
 25 26  1  0  0  0  0
 26 27  1  0  0  0  0
M  END
>  <minimizedAffinity>
-4.57060719

$$$$

 OpenBabel03272501063D

 27 29  0  0  1  0  0  0  0  0999 V2000
   38.5020   24.6160   33.5240 C   0  0  2  0  0  0  0  0  0  0  0  0
   38.2320   24.3850   35.0120 C   0  0  2  0  0  0  0  0  0  0  0  0
   37.8490   25.7430   35.4380 C   0  0  0  0  0  0  0  0  0  0  0  0
   37.0820   26.2710   34.4040 O   0  0  0  0  0  0  0  0  0  0  0  0
   37.3030   25.5490   33.2650 C   0  0  0  0  0  0  0  0  0  0  0  0
   39.4380   25.1590   33.4190 H   0  0  0  0  0  0  0  0  0  0  0  0
   37.3150   23.7230   34.9960 H   0  0  0  0  0  0  0  0  0  0  0  0
   38.7690   26.3740   35.5600 H   0  0  0  0  0  0  0  0  0  0  0  0
   37.2740   25.6920   36.3880 H   0  0  0  0  0  0  0  0  0  0  0  0
   36.4370   24.9390   32.9800 H   0  0  0  0  0  0  0  0  0  0  0  0
   37.5850   26.1730   32.3920 H   0  0  0  0  0  0  0  0  0  0  0  0
   40.3570   22.4480   37.4670 C   0  0  0  0  0  0  0  0  0  0  0  0
   39.1890   22.9700   36.8540 C   0  0  0  0  0  0  0  0  0  0  0  0
   39.3570   23.7840   35.7030 C   0  0  0  0  0  0  0  0  0  0  0  0
   40.6410   24.0170   35.2540 N   0  0  0  0  0  0  0  0  0  0  0  0
   41.7100   23.5070   35.8620 C   0  0  0  0  0  0  0  0  0  0  0  0
   41.5820   22.7220   36.9680 N   0  0  0  0  0  0  0  0  0  0  0  0
   40.2770   21.8230   38.3450 H   0  0  0  0  0  0  0  0  0  0  0  0
   38.2140   22.7590   37.2400 H   0  0  0  0  0  0  0  0  0  0  0  0
   42.6520   23.7770   35.3970 H   0  0  0  0  0  0  0  0  0  0  0  0
   38.3810   23.4700   32.7780 O   0  0  0  0  0  0  0  0  0  0  0  0
   37.1460   22.8740   32.7700 C   0  0  0  0  0  3  0  0  0  0  0  0
   36.6830   22.6790   31.3550 C   0  0  0  0  0  2  0  0  0  0  0  0
   35.9060   21.3690   31.1810 C   0  0  0  0  0  2  0  0  0  0  0  0
   35.0240   21.1730   32.3850 C   0  0  0  0  0  2  0  0  0  0  0  0
   35.9050   20.9020   33.5810 C   0  0  0  0  0  2  0  0  0  0  0  0
   37.2870   21.4460   33.3460 C   0  0  0  0  0  2  0  0  0  0  0  0
  1  6  1  6  0  0  0
  1  2  1  0  0  0  0
  2  7  1  1  0  0  0
  2  3  1  0  0  0  0
  2 14  1  0  0  0  0
  3  8  1  0  0  0  0
  3  9  1  0  0  0  0
  4  3  1  0  0  0  0
  5  1  1  0  0  0  0
  5  4  1  0  0  0  0
 10  5  1  0  0  0  0
 11  5  1  0  0  0  0
 12 18  1  0  0  0  0
 13 19  1  0  0  0  0
 13 12  2  0  0  0  0
 14 13  1  0  0  0  0
 15 14  2  0  0  0  0
 15 16  1  0  0  0  0
 16 17  2  0  0  0  0
 17 12  1  0  0  0  0
 20 16  1  0  0  0  0
 21  1  1  0  0  0  0
 22 21  1  0  0  0  0
 22 27  1  0  0  0  0
 23 22  1  0  0  0  0
 24 23  1  0  0  0  0
 24 25  1  0  0  0  0
 25 26  1  0  0  0  0
 27 26  1  0  0  0  0
M  END
>  <minimizedAffinity>
-4.56739616

$$$$

 OpenBabel03272501063D

 27 29  0  0  1  0  0  0  0  0999 V2000
   37.3120   25.4390   31.1420 C   0  0  2  0  0  0  0  0  0  0  0  0
   36.0390   26.1520   31.6010 C   0  0  2  0  0  0  0  0  0  0  0  0
   35.0100   25.3570   30.9070 C   0  0  0  0  0  0  0  0  0  0  0  0
   35.4340   24.0330   30.9740 O   0  0  0  0  0  0  0  0  0  0  0  0
   36.7680   24.0020   31.2660 C   0  0  0  0  0  0  0  0  0  0  0  0
   37.4960   25.6890   30.1010 H   0  0  0  0  0  0  0  0  0  0  0  0
   36.0100   25.9200   32.7070 H   0  0  0  0  0  0  0  0  0  0  0  0
   34.9600   25.6620   29.8270 H   0  0  0  0  0  0  0  0  0  0  0  0
   34.0250   25.4960   31.4050 H   0  0  0  0  0  0  0  0  0  0  0  0
   36.9670   23.6360   32.2820 H   0  0  0  0  0  0  0  0  0  0  0  0
   37.3630   23.3890   30.5580 H   0  0  0  0  0  0  0  0  0  0  0  0
   36.7670   29.5260   30.0580 C   0  0  0  0  0  0  0  0  0  0  0  0
   36.8010   28.1200   30.2370 C   0  0  0  0  0  0  0  0  0  0  0  0
   36.0560   27.5750   31.3160 C   0  0  0  0  0  0  0  0  0  0  0  0
   35.3480   28.4440   32.1210 N   0  0  0  0  0  0  0  0  0  0  0  0
   35.3450   29.7590   31.9160 C   0  0  0  0  0  0  0  0  0  0  0  0
   36.0500   30.3130   30.8900 N   0  0  0  0  0  0  0  0  0  0  0  0
   37.3190   29.9850   29.2500 H   0  0  0  0  0  0  0  0  0  0  0  0
   37.3650   27.4870   29.5850 H   0  0  0  0  0  0  0  0  0  0  0  0
   34.7450   30.3150   32.6290 H   0  0  0  0  0  0  0  0  0  0  0  0
   38.3640   25.6240   32.0040 O   0  0  0  0  0  0  0  0  0  0  0  0
   38.0510   25.7350   33.3350 C   0  0  0  0  0  3  0  0  0  0  0  0
   38.6960   24.6190   34.1050 C   0  0  0  0  0  2  0  0  0  0  0  0
   39.1730   25.0780   35.4880 C   0  0  0  0  0  2  0  0  0  0  0  0
   38.1390   26.0050   36.0670 C   0  0  0  0  0  2  0  0  0  0  0  0
   38.1370   27.2790   35.2570 C   0  0  0  0  0  2  0  0  0  0  0  0
   38.6970   27.0280   33.8850 C   0  0  0  0  0  2  0  0  0  0  0  0
  1  6  1  6  0  0  0
  1  5  1  0  0  0  0
  1  2  1  0  0  0  0
  1 21  1  0  0  0  0
  2  7  1  1  0  0  0
  3  4  1  0  0  0  0
  3  9  1  0  0  0  0
  3  2  1  0  0  0  0
  4  5  1  0  0  0  0
  5 10  1  0  0  0  0
  8  3  1  0  0  0  0
 11  5  1  0  0  0  0
 12 13  2  0  0  0  0
 12 17  1  0  0  0  0
 13 14  1  0  0  0  0
 14  2  1  0  0  0  0
 14 15  2  0  0  0  0
 16 15  1  0  0  0  0
 16 20  1  0  0  0  0
 17 16  2  0  0  0  0
 18 12  1  0  0  0  0
 19 13  1  0  0  0  0
 21 22  1  0  0  0  0
 22 27  1  0  0  0  0
 22 23  1  0  0  0  0
 23 24  1  0  0  0  0
 24 25  1  0  0  0  0
 26 25  1  0  0  0  0
 27 26  1  0  0  0  0
M  END
>  <minimizedAffinity>
-4.53056145

$$$$

 OpenBabel03272501063D

 27 29  0  0  1  0  0  0  0  0999 V2000
   37.8530   23.7720   33.4700 C   0  0  2  0  0  0  0  0  0  0  0  0
   38.8550   22.8060   34.1050 C   0  0  2  0  0  0  0  0  0  0  0  0
   38.3760   21.5190   33.5690 C   0  0  0  0  0  0  0  0  0  0  0  0
   37.9970   21.7650   32.2530 O   0  0  0  0  0  0  0  0  0  0  0  0
   37.8180   23.1090   32.0790 C   0  0  0  0  0  0  0  0  0  0  0  0
   36.8940   23.6600   33.9710 H   0  0  0  0  0  0  0  0  0  0  0  0
   39.8240   23.0870   33.5980 H   0  0  0  0  0  0  0  0  0  0  0  0
   37.4720   21.1810   34.1440 H   0  0  0  0  0  0  0  0  0  0  0  0
   39.1880   20.7610   33.6250 H   0  0  0  0  0  0  0  0  0  0  0  0
   38.6000   23.5590   31.4550 H   0  0  0  0  0  0  0  0  0  0  0  0
   36.8340   23.3720   31.6400 H   0  0  0  0  0  0  0  0  0  0  0  0
   40.0350   22.7530   37.6960 C   0  0  0  0  0  0  0  0  0  0  0  0
   40.0910   22.6280   36.2850 C   0  0  0  0  0  0  0  0  0  0  0  0
   38.9120   22.9220   35.5500 C   0  0  0  0  0  0  0  0  0  0  0  0
   37.7890   23.3090   36.2520 N   0  0  0  0  0  0  0  0  0  0  0  0
   37.7810   23.4120   37.5790 C   0  0  0  0  0  0  0  0  0  0  0  0
   38.8960   23.1370   38.3130 N   0  0  0  0  0  0  0  0  0  0  0  0
   40.9090   22.5400   38.2970 H   0  0  0  0  0  0  0  0  0  0  0  0
   40.9880   22.3250   35.7860 H   0  0  0  0  0  0  0  0  0  0  0  0
   36.8280   23.7250   37.9920 H   0  0  0  0  0  0  0  0  0  0  0  0
   38.3390   25.0520   33.3740 O   0  0  0  0  0  0  0  0  0  0  0  0
   37.4100   26.0610   33.3940 C   0  0  0  0  0  3  0  0  0  0  0  0
   37.2430   26.5720   34.7960 C   0  0  0  0  0  2  0  0  0  0  0  0
   37.0150   28.0880   34.8290 C   0  0  0  0  0  2  0  0  0  0  0  0
   36.1050   28.4600   33.6890 C   0  0  0  0  0  2  0  0  0  0  0  0
   36.8540   28.2480   32.3960 C   0  0  0  0  0  2  0  0  0  0  0  0
   37.9700   27.2590   32.5930 C   0  0  0  0  0  2  0  0  0  0  0  0
  1  6  1  1  0  0  0
  1  2  1  0  0  0  0
  2  7  1  6  0  0  0
  2 14  1  0  0  0  0
  3  9  1  0  0  0  0
  3  2  1  0  0  0  0
  3  8  1  0  0  0  0
  4  3  1  0  0  0  0
  5  4  1  0  0  0  0
  5  1  1  0  0  0  0
 10  5  1  0  0  0  0
 11  5  1  0  0  0  0
 12 18  1  0  0  0  0
 12 17  1  0  0  0  0
 13 12  2  0  0  0  0
 14 15  2  0  0  0  0
 14 13  1  0  0  0  0
 15 16  1  0  0  0  0
 16 20  1  0  0  0  0
 16 17  2  0  0  0  0
 19 13  1  0  0  0  0
 21 22  1  0  0  0  0
 21  1  1  0  0  0  0
 22 23  1  0  0  0  0
 23 24  1  0  0  0  0
 25 24  1  0  0  0  0
 26 27  1  0  0  0  0
 26 25  1  0  0  0  0
 27 22  1  0  0  0  0
M  END
>  <minimizedAffinity>
-4.50509501

$$$$

 OpenBabel03272501063D

 27 29  0  0  1  0  0  0  0  0999 V2000
   37.7140   23.8030   32.9420 C   0  0  2  0  0  0  0  0  0  0  0  0
   37.6040   23.0740   31.6010 C   0  0  2  0  0  0  0  0  0  0  0  0
   37.0320   24.1350   30.7540 C   0  0  0  0  0  0  0  0  0  0  0  0
   37.6540   25.3180   31.1440 O   0  0  0  0  0  0  0  0  0  0  0  0
   38.2190   25.1450   32.3760 C   0  0  0  0  0  0  0  0  0  0  0  0
   36.7170   23.9160   33.3600 H   0  0  0  0  0  0  0  0  0  0  0  0
   38.6860   22.9100   31.3200 H   0  0  0  0  0  0  0  0  0  0  0  0
   35.9310   24.2270   30.9530 H   0  0  0  0  0  0  0  0  0  0  0  0
   37.2240   23.9080   29.6820 H   0  0  0  0  0  0  0  0  0  0  0  0
   39.3150   25.1210   32.3360 H   0  0  0  0  0  0  0  0  0  0  0  0
   37.9190   25.9180   33.1130 H   0  0  0  0  0  0  0  0  0  0  0  0
   36.2500   19.6030   30.9600 C   0  0  0  0  0  0  0  0  0  0  0  0
   37.0600   20.7560   30.8000 C   0  0  0  0  0  0  0  0  0  0  0  0
   36.8450   21.8400   31.6910 C   0  0  0  0  0  0  0  0  0  0  0  0
   35.8660   21.7060   32.6530 N   0  0  0  0  0  0  0  0  0  0  0  0
   35.1280   20.6050   32.7670 C   0  0  0  0  0  0  0  0  0  0  0  0
   35.3090   19.5460   31.9280 N   0  0  0  0  0  0  0  0  0  0  0  0
   36.3780   18.7520   30.3050 H   0  0  0  0  0  0  0  0  0  0  0  0
   37.8080   20.8110   30.0370 H   0  0  0  0  0  0  0  0  0  0  0  0
   34.3970   20.6440   33.5680 H   0  0  0  0  0  0  0  0  0  0  0  0
   38.6590   23.2520   33.7700 O   0  0  0  0  0  0  0  0  0  0  0  0
   38.3490   23.2050   35.1050 C   0  0  0  0  0  3  0  0  0  0  0  0
   39.3050   22.2940   35.8190 C   0  0  0  0  0  2  0  0  0  0  0  0
   39.6480   22.8100   37.2220 C   0  0  0  0  0  2  0  0  0  0  0  0
   38.3960   23.3650   37.8470 C   0  0  0  0  0  2  0  0  0  0  0  0
   38.0070   24.6180   37.0990 C   0  0  0  0  0  2  0  0  0  0  0  0
   38.5950   24.6040   35.7150 C   0  0  0  0  0  2  0  0  0  0  0  0
  1  6  1  1  0  0  0
  1 21  1  0  0  0  0
  2  7  1  6  0  0  0
  2 14  1  0  0  0  0
  2  1  1  0  0  0  0
  3  8  1  0  0  0  0
  3  4  1  0  0  0  0
  3  2  1  0  0  0  0
  4  5  1  0  0  0  0
  5  1  1  0  0  0  0
  5 11  1  0  0  0  0
  9  3  1  0  0  0  0
 10  5  1  0  0  0  0
 12 17  1  0  0  0  0
 13 12  2  0  0  0  0
 13 14  1  0  0  0  0
 14 15  2  0  0  0  0
 15 16  1  0  0  0  0
 16 20  1  0  0  0  0
 17 16  2  0  0  0  0
 18 12  1  0  0  0  0
 19 13  1  0  0  0  0
 21 22  1  0  0  0  0
 22 27  1  0  0  0  0
 22 23  1  0  0  0  0
 23 24  1  0  0  0  0
 24 25  1  0  0  0  0
 26 25  1  0  0  0  0
 27 26  1  0  0  0  0
M  END
>  <minimizedAffinity>
-4.46520853

$$$$

 OpenBabel03272501063D

 27 29  0  0  1  0  0  0  0  0999 V2000
   36.9650   24.6150   31.8580 C   0  0  2  0  0  0  0  0  0  0  0  0
   36.5800   25.8130   32.7280 C   0  0  2  0  0  0  0  0  0  0  0  0
   36.1270   26.7680   31.7010 C   0  0  0  0  0  0  0  0  0  0  0  0
   35.4340   26.0180   30.7550 O   0  0  0  0  0  0  0  0  0  0  0  0
   35.7670   24.7000   30.8930 C   0  0  0  0  0  0  0  0  0  0  0  0
   37.8920   24.8450   31.3380 H   0  0  0  0  0  0  0  0  0  0  0  0
   35.6860   25.4250   33.3010 H   0  0  0  0  0  0  0  0  0  0  0  0
   37.0170   27.2380   31.2030 H   0  0  0  0  0  0  0  0  0  0  0  0
   35.4770   27.5420   32.1650 H   0  0  0  0  0  0  0  0  0  0  0  0
   34.9430   24.1000   31.2990 H   0  0  0  0  0  0  0  0  0  0  0  0
   36.1030   24.2270   29.9470 H   0  0  0  0  0  0  0  0  0  0  0  0
   39.9390   26.9810   34.0100 C   0  0  0  0  0  0  0  0  0  0  0  0
   38.9460   26.5780   33.0810 C   0  0  0  0  0  0  0  0  0  0  0  0
   37.6610   26.2550   33.5900 C   0  0  0  0  0  0  0  0  0  0  0  0
   37.4580   26.3510   34.9510 N   0  0  0  0  0  0  0  0  0  0  0  0
   38.4200   26.7330   35.7870 C   0  0  0  0  0  0  0  0  0  0  0  0
   39.6640   27.0500   35.3310 N   0  0  0  0  0  0  0  0  0  0  0  0
   40.9330   27.2370   33.6680 H   0  0  0  0  0  0  0  0  0  0  0  0
   39.1530   26.5210   32.0330 H   0  0  0  0  0  0  0  0  0  0  0  0
   38.1150   26.7600   36.8280 H   0  0  0  0  0  0  0  0  0  0  0  0
   36.9360   23.4280   32.5460 O   0  0  0  0  0  0  0  0  0  0  0  0
   36.5100   22.3270   31.8480 C   0  0  0  0  0  3  0  0  0  0  0  0
   37.6840   21.4600   31.4960 C   0  0  0  0  0  2  0  0  0  0  0  0
   37.3370   19.9690   31.5650 C   0  0  0  0  0  2  0  0  0  0  0  0
   35.9530   19.7730   31.0030 C   0  0  0  0  0  2  0  0  0  0  0  0
   34.9630   20.4070   31.9490 C   0  0  0  0  0  2  0  0  0  0  0  0
   35.6380   21.4600   32.7850 C   0  0  0  0  0  2  0  0  0  0  0  0
  1  6  1  6  0  0  0
  1 21  1  0  0  0  0
  1  2  1  0  0  0  0
  2  7  1  1  0  0  0
  2 14  1  0  0  0  0
  3  9  1  0  0  0  0
  3  2  1  0  0  0  0
  4  5  1  0  0  0  0
  4  3  1  0  0  0  0
  5 10  1  0  0  0  0
  5  1  1  0  0  0  0
  8  3  1  0  0  0  0
 11  5  1  0  0  0  0
 12 17  1  0  0  0  0
 13 14  1  0  0  0  0
 13 12  2  0  0  0  0
 14 15  2  0  0  0  0
 15 16  1  0  0  0  0
 16 20  1  0  0  0  0
 17 16  2  0  0  0  0
 18 12  1  0  0  0  0
 19 13  1  0  0  0  0
 22 21  1  0  0  0  0
 22 27  1  0  0  0  0
 23 24  1  0  0  0  0
 23 22  1  0  0  0  0
 25 24  1  0  0  0  0
 25 26  1  0  0  0  0
 26 27  1  0  0  0  0
M  END
>  <minimizedAffinity>
-4.4031353

$$$$
