
 OpenBabel03272509183D

 30 32  0  0  0  0  0  0  0  0999 V2000
   35.6920   30.2320   47.0130 C   0  0  0  0  0  0  0  0  0  0  0  0
   34.5390   29.9640   47.7450 C   0  0  0  0  0  0  0  0  0  0  0  0
   34.6170   30.2780   49.1180 C   0  0  0  0  0  0  0  0  0  0  0  0
   35.7990   30.8190   49.6540 C   0  0  0  0  0  0  0  0  0  0  0  0
   36.8950   31.0480   48.8360 C   0  0  0  0  0  0  0  0  0  0  0  0
   36.8470   30.7520   47.4960 C   0  0  0  0  0  0  0  0  0  0  0  0
   33.7180   30.0680   49.6770 H   0  0  0  0  0  0  0  0  0  0  0  0
   35.6880   30.9940   50.6960 H   0  0  0  0  0  0  0  0  0  0  0  0
   37.6710   31.4560   49.4510 H   0  0  0  0  0  0  0  0  0  0  0  0
   32.4490   30.2430   46.4860 C   0  0  0  0  0  0  0  0  0  0  0  0
   33.3440   29.4140   47.1800 C   0  0  0  0  0  0  0  0  0  0  0  0
   33.0240   28.0630   47.2910 C   0  0  0  0  0  0  0  0  0  0  0  0
   31.8690   27.6170   46.7270 N   0  0  0  0  0  0  0  0  0  0  0  0
   31.0250   28.4560   46.0610 C   0  0  0  0  0  0  0  0  0  0  0  0
   31.3180   29.7620   45.9430 N   0  0  0  0  0  0  0  0  0  0  0  0
   32.6980   31.2920   46.4000 H   0  0  0  0  0  0  0  0  0  0  0  0
   30.1100   28.0740   45.6210 H   0  0  0  0  0  0  0  0  0  0  0  0
   33.9230   27.1440   48.0040 C   0  0  0  0  0  0  0  0  0  0  0  0
   34.1770   27.5730   49.0010 H   0  0  0  0  0  0  0  0  0  0  0  0
   33.3880   26.1810   48.1590 H   0  0  0  0  0  0  0  0  0  0  0  0
   34.8340   26.8800   47.4260 H   0  0  0  0  0  0  0  0  0  0  0  0
   35.6870   29.9460   45.6440 O   0  0  0  0  0  0  0  0  0  0  0  0
   35.5690   30.6510   44.9350 H   0  0  0  0  0  0  0  0  0  0  0  0
   37.9480   30.9950   46.7200 O   0  0  0  0  0  0  0  0  0  0  0  0
   38.2950   32.2150   46.1640 C   0  0  0  0  0  3  0  0  0  0  0  0
   37.8430   32.3730   44.7320 C   0  0  0  0  0  2  0  0  0  0  0  0
   38.9460   32.2440   43.7320 C   0  0  0  0  0  2  0  0  0  0  0  0
   40.1450   33.0940   44.0200 C   0  0  0  0  0  2  0  0  0  0  0  0
   40.3150   33.4950   45.4400 C   0  0  0  0  0  2  0  0  0  0  0  0
   39.7930   32.3940   46.3060 C   0  0  0  0  0  2  0  0  0  0  0  0
  1  6  2  0  0  0  0
  1  2  1  0  0  0  0
  2  3  2  0  0  0  0
  3  4  1  0  0  0  0
  3  7  1  0  0  0  0
  4  8  1  0  0  0  0
  5  9  1  0  0  0  0
  5  4  2  0  0  0  0
  6  5  1  0  0  0  0
 10 11  1  0  0  0  0
 11 12  2  0  0  0  0
 11  2  1  0  0  0  0
 12 18  1  0  0  0  0
 13 12  1  0  0  0  0
 14 13  2  0  0  0  0
 15 14  1  0  0  0  0
 15 10  2  0  0  0  0
 16 10  1  0  0  0  0
 17 14  1  0  0  0  0
 18 20  1  0  0  0  0
 18 19  1  0  0  0  0
 21 18  1  0  0  0  0
 22  1  1  0  0  0  0
 23 22  1  0  0  0  0
 24  6  1  0  0  0  0
 25 30  1  0  0  0  0
 25 24  1  0  0  0  0
 26 25  1  0  0  0  0
 27 28  1  0  0  0  0
 27 26  1  0  0  0  0
 28 29  1  0  0  0  0
 29 30  1  0  0  0  0
M  END
>  <minimizedAffinity>
-5.49600744

>  <minimizedRMSD>
3.64665389

$$$$
