
 OpenBabel03272508093D

 21 22  0  0  0  0  0  0  0  0999 V2000
   39.3820   27.2840   33.5680 O   0  0  0  0  0  0  0  0  0  0  0  0
   38.6000   26.6910   34.6860 P   0  0  2  0  0  0  0  0  0  0  0  0
   38.8480   27.5660   36.1070 O   0  0  0  0  0  0  0  0  0  0  0  0
   38.9800   28.5090   35.8770 H   0  0  0  0  0  0  0  0  0  0  0  0
   38.8980   25.0450   34.9440 O   0  0  0  0  0  0  0  0  0  0  0  0
   39.7190   22.8170   37.7800 C   0  0  0  0  0  0  0  0  0  0  0  0
   39.8440   23.3490   36.4960 C   0  0  0  0  0  0  0  0  0  0  0  0
   38.9760   24.3760   36.1140 C   0  0  0  0  0  0  0  0  0  0  0  0
   38.0490   24.7980   37.0300 N   0  0  0  0  0  0  0  0  0  0  0  0
   37.9640   24.2550   38.2580 C   0  0  0  0  0  0  0  0  0  0  0  0
   38.7880   23.2770   38.6290 N   0  0  0  0  0  0  0  0  0  0  0  0
   40.4330   22.0350   37.9700 H   0  0  0  0  0  0  0  0  0  0  0  0
   40.5430   23.0700   35.7290 H   0  0  0  0  0  0  0  0  0  0  0  0
   37.2160   24.6050   38.9790 H   0  0  0  0  0  0  0  0  0  0  0  0
   36.9390   26.8740   34.2970 O   0  0  0  0  0  0  0  0  0  0  0  0
   36.7470   28.0300   33.5790 C   0  0  0  0  0  3  0  0  0  0  0  0
   36.1110   27.7030   32.2490 C   0  0  0  0  0  2  0  0  0  0  0  0
   36.1950   28.9830   31.4220 C   0  0  0  0  0  2  0  0  0  0  0  0
   35.2710   29.9820   32.0460 C   0  0  0  0  0  2  0  0  0  0  0  0
   34.8150   29.6490   33.4280 C   0  0  0  0  0  2  0  0  0  0  0  0
   35.8600   29.0250   34.2870 C   0  0  0  0  0  2  0  0  0  0  0  0
  2  1  2  6  0  0  0
  2  5  1  0  0  0  0
  2  3  1  0  0  0  0
  4  3  1  0  0  0  0
  5  8  1  0  0  0  0
  6 12  1  0  0  0  0
  6 11  1  0  0  0  0
  7  6  2  0  0  0  0
  8  7  1  0  0  0  0
  8  9  2  0  0  0  0
  9 10  1  0  0  0  0
 10 11  2  0  0  0  0
 10 14  1  0  0  0  0
 13  7  1  0  0  0  0
 15  2  1  0  0  0  0
 16 21  1  0  0  0  0
 16 15  1  0  0  0  0
 17 16  1  0  0  0  0
 18 19  1  0  0  0  0
 18 17  1  0  0  0  0
 19 20  1  0  0  0  0
 20 21  1  0  0  0  0
M  END
>  <minimizedAffinity>
-4.75819206

$$$$

 OpenBabel03272508093D

 21 22  0  0  0  0  0  0  0  0999 V2000
   34.9130   25.2730   30.6560 O   0  0  0  0  0  0  0  0  0  0  0  0
   36.2190   25.0980   31.3470 P   0  0  2  0  0  0  0  0  0  0  0  0
   37.4830   25.1130   30.2310 O   0  0  0  0  0  0  0  0  0  0  0  0
   37.2490   25.7190   29.4970 H   0  0  0  0  0  0  0  0  0  0  0  0
   36.3060   23.7180   32.3240 O   0  0  0  0  0  0  0  0  0  0  0  0
   35.1360   20.2380   31.8740 C   0  0  0  0  0  0  0  0  0  0  0  0
   35.1140   21.5380   32.3830 C   0  0  0  0  0  0  0  0  0  0  0  0
   36.1130   22.4270   31.9780 C   0  0  0  0  0  0  0  0  0  0  0  0
   37.0590   21.9650   31.1010 N   0  0  0  0  0  0  0  0  0  0  0  0
   37.0410   20.7020   30.6370 C   0  0  0  0  0  0  0  0  0  0  0  0
   36.0920   19.8490   31.0170 N   0  0  0  0  0  0  0  0  0  0  0  0
   34.3250   19.6390   32.2480 H   0  0  0  0  0  0  0  0  0  0  0  0
   34.4080   21.9680   33.0690 H   0  0  0  0  0  0  0  0  0  0  0  0
   37.8060   20.3490   29.9360 H   0  0  0  0  0  0  0  0  0  0  0  0
   36.4500   26.4720   32.3490 O   0  0  0  0  0  0  0  0  0  0  0  0
   37.4910   26.2520   33.2190 C   0  0  0  0  0  3  0  0  0  0  0  0
   38.6610   27.1280   32.8440 C   0  0  0  0  0  2  0  0  0  0  0  0
   39.8410   26.6210   33.6700 C   0  0  0  0  0  2  0  0  0  0  0  0
   39.5630   26.9560   35.1030 C   0  0  0  0  0  2  0  0  0  0  0  0
   38.1500   27.3310   35.4050 C   0  0  0  0  0  2  0  0  0  0  0  0
   37.1310   26.5430   34.6560 C   0  0  0  0  0  2  0  0  0  0  0  0
  2  1  2  6  0  0  0
  2  5  1  0  0  0  0
  2 15  1  0  0  0  0
  3  2  1  0  0  0  0
  4  3  1  0  0  0  0
  6 12  1  0  0  0  0
  6  7  1  0  0  0  0
  7 13  1  0  0  0  0
  8  5  1  0  0  0  0
  8  7  2  0  0  0  0
  9  8  1  0  0  0  0
 10 11  1  0  0  0  0
 10  9  2  0  0  0  0
 11  6  2  0  0  0  0
 14 10  1  0  0  0  0
 15 16  1  0  0  0  0
 16 21  1  0  0  0  0
 17 16  1  0  0  0  0
 17 18  1  0  0  0  0
 18 19  1  0  0  0  0
 19 20  1  0  0  0  0
 21 20  1  0  0  0  0
M  END
>  <minimizedAffinity>
-4.68436241

$$$$

 OpenBabel03272508093D

 21 22  0  0  0  0  0  0  0  0999 V2000
   39.9170   26.9750   34.9920 O   0  0  0  0  0  0  0  0  0  0  0  0
   38.4310   26.9270   35.0240 P   0  0  2  0  0  0  0  0  0  0  0  0
   37.8170   28.2310   35.9010 O   0  0  0  0  0  0  0  0  0  0  0  0
   38.4080   29.0020   35.7740 H   0  0  0  0  0  0  0  0  0  0  0  0
   37.7970   25.4700   35.6060 O   0  0  0  0  0  0  0  0  0  0  0  0
   38.7450   23.3910   38.5150 C   0  0  0  0  0  0  0  0  0  0  0  0
   38.0120   24.3520   37.8160 C   0  0  0  0  0  0  0  0  0  0  0  0
   38.3470   24.6020   36.4820 C   0  0  0  0  0  0  0  0  0  0  0  0
   39.3810   23.8840   35.9400 N   0  0  0  0  0  0  0  0  0  0  0  0
   40.0590   22.9660   36.6530 C   0  0  0  0  0  0  0  0  0  0  0  0
   39.7460   22.7220   37.9240 N   0  0  0  0  0  0  0  0  0  0  0  0
   38.4060   23.2780   39.5300 H   0  0  0  0  0  0  0  0  0  0  0  0
   37.1950   24.9510   38.1730 H   0  0  0  0  0  0  0  0  0  0  0  0
   40.8830   22.4000   36.2040 H   0  0  0  0  0  0  0  0  0  0  0  0
   37.8820   27.1360   33.4110 O   0  0  0  0  0  0  0  0  0  0  0  0
   37.4880   25.9290   32.8860 C   0  0  0  0  0  3  0  0  0  0  0  0
   36.3730   26.1470   31.8920 C   0  0  0  0  0  2  0  0  0  0  0  0
   35.8190   24.7600   31.5790 C   0  0  0  0  0  2  0  0  0  0  0  0
   36.8680   24.0180   30.8110 C   0  0  0  0  0  2  0  0  0  0  0  0
   38.2340   24.6200   30.8590 C   0  0  0  0  0  2  0  0  0  0  0  0
   38.6060   25.1980   32.1810 C   0  0  0  0  0  2  0  0  0  0  0  0
  2  1  2  1  0  0  0
  2  5  1  0  0  0  0
  2  3  1  0  0  0  0
  4  3  1  0  0  0  0
  5  8  1  0  0  0  0
  6 12  1  0  0  0  0
  7 13  1  0  0  0  0
  7  6  2  0  0  0  0
  8  7  1  0  0  0  0
  9  8  2  0  0  0  0
  9 10  1  0  0  0  0
 10 11  2  0  0  0  0
 11  6  1  0  0  0  0
 14 10  1  0  0  0  0
 15  2  1  0  0  0  0
 16 15  1  0  0  0  0
 17 16  1  0  0  0  0
 18 17  1  0  0  0  0
 19 20  1  0  0  0  0
 19 18  1  0  0  0  0
 20 21  1  0  0  0  0
 21 16  1  0  0  0  0
M  END
>  <minimizedAffinity>
-4.64787912

$$$$

 OpenBabel03272508093D

 21 22  0  0  0  0  0  0  0  0999 V2000
   36.6560   27.8330   34.9410 O   0  0  0  0  0  0  0  0  0  0  0  0
   37.8670   26.9780   35.0670 P   0  0  2  0  0  0  0  0  0  0  0  0
   38.9050   27.5970   36.2450 O   0  0  0  0  0  0  0  0  0  0  0  0
   38.3680   28.0160   36.9490 H   0  0  0  0  0  0  0  0  0  0  0  0
   38.6980   26.7340   33.6140 O   0  0  0  0  0  0  0  0  0  0  0  0
   37.0180   27.7000   30.4630 C   0  0  0  0  0  0  0  0  0  0  0  0
   37.0990   27.2430   31.7800 C   0  0  0  0  0  0  0  0  0  0  0  0
   38.3620   27.1420   32.3710 C   0  0  0  0  0  0  0  0  0  0  0  0
   39.4480   27.5000   31.6170 N   0  0  0  0  0  0  0  0  0  0  0  0
   39.3210   27.9340   30.3500 C   0  0  0  0  0  0  0  0  0  0  0  0
   38.1230   28.0340   29.7800 N   0  0  0  0  0  0  0  0  0  0  0  0
   36.0040   27.7390   30.1060 H   0  0  0  0  0  0  0  0  0  0  0  0
   36.2960   26.9460   32.4280 H   0  0  0  0  0  0  0  0  0  0  0  0
   40.2020   28.2160   29.7600 H   0  0  0  0  0  0  0  0  0  0  0  0
   37.3490   25.4470   35.6450 O   0  0  0  0  0  0  0  0  0  0  0  0
   38.2940   24.9160   36.4890 C   0  0  0  0  0  3  0  0  0  0  0  0
   37.6330   23.9680   37.4590 C   0  0  0  0  0  2  0  0  0  0  0  0
   38.6880   23.6520   38.5160 C   0  0  0  0  0  2  0  0  0  0  0  0
   39.7550   22.8340   37.8570 C   0  0  0  0  0  2  0  0  0  0  0  0
   39.7280   22.8430   36.3640 C   0  0  0  0  0  2  0  0  0  0  0  0
   39.3780   24.1600   35.7620 C   0  0  0  0  0  2  0  0  0  0  0  0
  2  1  2  6  0  0  0
  2 15  1  0  0  0  0
  2  3  1  0  0  0  0
  3  4  1  0  0  0  0
  5  2  1  0  0  0  0
  6  7  1  0  0  0  0
  7  8  2  0  0  0  0
  7 13  1  0  0  0  0
  8  5  1  0  0  0  0
  9  8  1  0  0  0  0
 10  9  2  0  0  0  0
 11 10  1  0  0  0  0
 11  6  2  0  0  0  0
 12  6  1  0  0  0  0
 14 10  1  0  0  0  0
 15 16  1  0  0  0  0
 16 17  1  0  0  0  0
 17 18  1  0  0  0  0
 19 18  1  0  0  0  0
 20 19  1  0  0  0  0
 21 20  1  0  0  0  0
 21 16  1  0  0  0  0
M  END
>  <minimizedAffinity>
-4.64665174

$$$$

 OpenBabel03272508093D

 21 22  0  0  0  0  0  0  0  0999 V2000
   38.5610   27.5490   36.0650 O   0  0  0  0  0  0  0  0  0  0  0  0
   38.0520   26.9830   34.7860 P   0  0  2  0  0  0  0  0  0  0  0  0
   39.2350   27.0810   33.5870 O   0  0  0  0  0  0  0  0  0  0  0  0
   40.1160   26.9750   34.0040 H   0  0  0  0  0  0  0  0  0  0  0  0
   36.6040   27.6740   34.2490 O   0  0  0  0  0  0  0  0  0  0  0  0
   35.6590   30.1250   31.6440 C   0  0  0  0  0  0  0  0  0  0  0  0
   35.7880   29.6240   32.9410 C   0  0  0  0  0  0  0  0  0  0  0  0
   36.3710   28.3660   33.1130 C   0  0  0  0  0  0  0  0  0  0  0  0
   36.7810   27.6960   31.9900 N   0  0  0  0  0  0  0  0  0  0  0  0
   36.6360   28.2180   30.7590 C   0  0  0  0  0  0  0  0  0  0  0  0
   36.0830   29.4160   30.5860 N   0  0  0  0  0  0  0  0  0  0  0  0
   35.2000   31.0970   31.6250 H   0  0  0  0  0  0  0  0  0  0  0  0
   35.4910   30.0900   33.8620 H   0  0  0  0  0  0  0  0  0  0  0  0
   36.9700   27.6680   29.8710 H   0  0  0  0  0  0  0  0  0  0  0  0
   37.7750   25.3090   35.0480 O   0  0  0  0  0  0  0  0  0  0  0  0
   38.4590   24.8850   36.1610 C   0  0  0  0  0  3  0  0  0  0  0  0
   37.5300   24.1110   37.0640 C   0  0  0  0  0  2  0  0  0  0  0  0
   38.2860   23.9290   38.3790 C   0  0  0  0  0  2  0  0  0  0  0  0
   39.4240   22.9920   38.1170 C   0  0  0  0  0  2  0  0  0  0  0  0
   39.7500   22.7770   36.6760 C   0  0  0  0  0  2  0  0  0  0  0  0
   39.6350   23.9980   35.8300 C   0  0  0  0  0  2  0  0  0  0  0  0
  2 15  1  0  0  0  0
  2  1  2  1  0  0  0
  3  4  1  0  0  0  0
  3  2  1  0  0  0  0
  5  2  1  0  0  0  0
  6  7  1  0  0  0  0
  7  8  2  0  0  0  0
  7 13  1  0  0  0  0
  8  5  1  0  0  0  0
  9  8  1  0  0  0  0
 10  9  2  0  0  0  0
 11 10  1  0  0  0  0
 11  6  2  0  0  0  0
 12  6  1  0  0  0  0
 14 10  1  0  0  0  0
 15 16  1  0  0  0  0
 16 17  1  0  0  0  0
 17 18  1  0  0  0  0
 19 18  1  0  0  0  0
 20 19  1  0  0  0  0
 21 16  1  0  0  0  0
 21 20  1  0  0  0  0
M  END
>  <minimizedAffinity>
-4.49788523

$$$$

 OpenBabel03272508093D

 21 22  0  0  0  0  0  0  0  0999 V2000
   40.3480   23.8870   33.1380 O   0  0  0  0  0  0  0  0  0  0  0  0
   38.8700   23.7600   33.2480 P   0  0  2  0  0  0  0  0  0  0  0  0
   38.1130   24.5480   31.9630 O   0  0  0  0  0  0  0  0  0  0  0  0
   38.6830   24.4750   31.1690 H   0  0  0  0  0  0  0  0  0  0  0  0
   38.2370   24.2910   34.7250 O   0  0  0  0  0  0  0  0  0  0  0  0
   39.7470   22.8200   37.7650 C   0  0  0  0  0  0  0  0  0  0  0  0
   39.6130   23.0720   36.3980 C   0  0  0  0  0  0  0  0  0  0  0  0
   38.5710   23.9010   35.9740 C   0  0  0  0  0  0  0  0  0  0  0  0
   37.7380   24.4170   36.9320 N   0  0  0  0  0  0  0  0  0  0  0  0
   37.9050   24.1470   38.2390 C   0  0  0  0  0  0  0  0  0  0  0  0
   38.8960   23.3590   38.6510 N   0  0  0  0  0  0  0  0  0  0  0  0
   40.5780   22.1730   37.9820 H   0  0  0  0  0  0  0  0  0  0  0  0
   40.2240   22.7040   35.5950 H   0  0  0  0  0  0  0  0  0  0  0  0
   37.2290   24.5680   38.9930 H   0  0  0  0  0  0  0  0  0  0  0  0
   38.4900   22.0950   33.0770 O   0  0  0  0  0  0  0  0  0  0  0  0
   37.1500   21.9410   32.8160 C   0  0  0  0  0  3  0  0  0  0  0  0
   36.9670   21.2440   31.4890 C   0  0  0  0  0  2  0  0  0  0  0  0
   35.4820   21.3690   31.1560 C   0  0  0  0  0  2  0  0  0  0  0  0
   34.7300   20.5200   32.1330 C   0  0  0  0  0  2  0  0  0  0  0  0
   35.5080   20.0940   33.3340 C   0  0  0  0  0  2  0  0  0  0  0  0
   36.4320   21.1330   33.8700 C   0  0  0  0  0  2  0  0  0  0  0  0
  2  1  2  6  0  0  0
  2  5  1  0  0  0  0
  3  2  1  0  0  0  0
  4  3  1  0  0  0  0
  5  8  1  0  0  0  0
  6 12  1  0  0  0  0
  6 11  1  0  0  0  0
  7  6  2  0  0  0  0
  8  7  1  0  0  0  0
  8  9  2  0  0  0  0
  9 10  1  0  0  0  0
 10 11  2  0  0  0  0
 10 14  1  0  0  0  0
 13  7  1  0  0  0  0
 15  2  1  0  0  0  0
 16 15  1  0  0  0  0
 16 21  1  0  0  0  0
 17 16  1  0  0  0  0
 18 17  1  0  0  0  0
 18 19  1  0  0  0  0
 19 20  1  0  0  0  0
 20 21  1  0  0  0  0
M  END
>  <minimizedAffinity>
-4.40646744

$$$$

 OpenBabel03272508093D

 21 22  0  0  0  0  0  0  0  0999 V2000
   36.6430   27.7820   34.8300 O   0  0  0  0  0  0  0  0  0  0  0  0
   37.9520   27.0750   34.8400 P   0  0  2  0  0  0  0  0  0  0  0  0
   38.8910   27.5940   36.1410 O   0  0  0  0  0  0  0  0  0  0  0  0
   38.2990   27.8090   36.8920 H   0  0  0  0  0  0  0  0  0  0  0  0
   38.8200   27.2020   33.3930 O   0  0  0  0  0  0  0  0  0  0  0  0
   41.9480   25.8340   31.9700 C   0  0  0  0  0  0  0  0  0  0  0  0
   40.5880   26.1480   32.0000 C   0  0  0  0  0  0  0  0  0  0  0  0
   40.0810   26.7980   33.1290 C   0  0  0  0  0  0  0  0  0  0  0  0
   40.9550   27.0870   34.1430 N   0  0  0  0  0  0  0  0  0  0  0  0
   42.2590   26.7640   34.0710 C   0  0  0  0  0  0  0  0  0  0  0  0
   42.7500   26.1460   32.9990 N   0  0  0  0  0  0  0  0  0  0  0  0
   42.2330   25.3370   31.0590 H   0  0  0  0  0  0  0  0  0  0  0  0
   39.8470   25.9530   31.2470 H   0  0  0  0  0  0  0  0  0  0  0  0
   42.9450   27.0030   34.8920 H   0  0  0  0  0  0  0  0  0  0  0  0
   37.6280   25.4120   35.1190 O   0  0  0  0  0  0  0  0  0  0  0  0
   38.3930   24.9510   36.1630 C   0  0  0  0  0  3  0  0  0  0  0  0
   37.5460   24.0960   37.0740 C   0  0  0  0  0  2  0  0  0  0  0  0
   38.3870   23.8670   38.3280 C   0  0  0  0  0  2  0  0  0  0  0  0
   39.5350   22.9850   37.9440 C   0  0  0  0  0  2  0  0  0  0  0  0
   39.7770   22.8630   36.4760 C   0  0  0  0  0  2  0  0  0  0  0  0
   39.5720   24.1240   35.7110 C   0  0  0  0  0  2  0  0  0  0  0  0
  2  1  2  6  0  0  0
  2 15  1  0  0  0  0
  2  3  1  0  0  0  0
  3  4  1  0  0  0  0
  5  2  1  0  0  0  0
  6  7  2  0  0  0  0
  6 11  1  0  0  0  0
  7  8  1  0  0  0  0
  8  5  1  0  0  0  0
  8  9  2  0  0  0  0
 10  9  1  0  0  0  0
 10 14  1  0  0  0  0
 11 10  2  0  0  0  0
 12  6  1  0  0  0  0
 13  7  1  0  0  0  0
 15 16  1  0  0  0  0
 16 17  1  0  0  0  0
 17 18  1  0  0  0  0
 19 18  1  0  0  0  0
 20 19  1  0  0  0  0
 21 16  1  0  0  0  0
 21 20  1  0  0  0  0
M  END
>  <minimizedAffinity>
-4.40181494

$$$$

 OpenBabel03272508093D

 21 22  0  0  0  0  0  0  0  0999 V2000
   36.1840   24.8300   31.9810 O   0  0  0  0  0  0  0  0  0  0  0  0
   37.4060   24.2200   31.3900 P   0  0  2  0  0  0  0  0  0  0  0  0
   37.9060   25.0960   30.0380 O   0  0  0  0  0  0  0  0  0  0  0  0
   37.6930   26.0420   30.1780 H   0  0  0  0  0  0  0  0  0  0  0  0
   37.2470   22.5790   31.0090 O   0  0  0  0  0  0  0  0  0  0  0  0
   35.1100   19.7420   32.0420 C   0  0  0  0  0  0  0  0  0  0  0  0
   35.7340   20.6110   31.1450 C   0  0  0  0  0  0  0  0  0  0  0  0
   36.5450   21.6270   31.6600 C   0  0  0  0  0  0  0  0  0  0  0  0
   36.6770   21.7080   33.0210 N   0  0  0  0  0  0  0  0  0  0  0  0
   36.0550   20.8470   33.8480 C   0  0  0  0  0  0  0  0  0  0  0  0
   35.2820   19.8770   33.3660 N   0  0  0  0  0  0  0  0  0  0  0  0
   34.5120   19.0000   31.5420 H   0  0  0  0  0  0  0  0  0  0  0  0
   35.6780   20.6090   30.0730 H   0  0  0  0  0  0  0  0  0  0  0  0
   36.1710   20.9260   34.9350 H   0  0  0  0  0  0  0  0  0  0  0  0
   38.6620   24.3750   32.5500 O   0  0  0  0  0  0  0  0  0  0  0  0
   38.3350   25.3390   33.4740 C   0  0  0  0  0  3  0  0  0  0  0  0
   38.4460   24.7660   34.8660 C   0  0  0  0  0  2  0  0  0  0  0  0
   37.8050   25.7980   35.7910 C   0  0  0  0  0  2  0  0  0  0  0  0
   38.6940   27.0020   35.8070 C   0  0  0  0  0  2  0  0  0  0  0  0
   39.7100   27.0550   34.7140 C   0  0  0  0  0  2  0  0  0  0  0  0
   39.2240   26.5560   33.3970 C   0  0  0  0  0  2  0  0  0  0  0  0
  2  1  2  1  0  0  0
  2 15  1  0  0  0  0
  3  4  1  0  0  0  0
  3  2  1  0  0  0  0
  5  2  1  0  0  0  0
  5  8  1  0  0  0  0
  6 11  1  0  0  0  0
  7  8  1  0  0  0  0
  7  6  2  0  0  0  0
  8  9  2  0  0  0  0
  9 10  1  0  0  0  0
 10 14  1  0  0  0  0
 11 10  2  0  0  0  0
 12  6  1  0  0  0  0
 13  7  1  0  0  0  0
 15 16  1  0  0  0  0
 16 17  1  0  0  0  0
 17 18  1  0  0  0  0
 18 19  1  0  0  0  0
 20 19  1  0  0  0  0
 21 16  1  0  0  0  0
 21 20  1  0  0  0  0
M  END
>  <minimizedAffinity>
-4.29216242

$$$$

 OpenBabel03272508093D

 21 22  0  0  0  0  0  0  0  0999 V2000
   35.4530   29.7530   31.1660 O   0  0  0  0  0  0  0  0  0  0  0  0
   35.2680   29.3040   32.5720 P   0  0  2  0  0  0  0  0  0  0  0  0
   33.6310   29.0670   32.9040 O   0  0  0  0  0  0  0  0  0  0  0  0
   33.1870   28.7510   32.0890 H   0  0  0  0  0  0  0  0  0  0  0  0
   35.9640   30.3280   33.7250 O   0  0  0  0  0  0  0  0  0  0  0  0
   34.9840   32.2380   36.7370 C   0  0  0  0  0  0  0  0  0  0  0  0
   35.8230   31.4690   35.9290 C   0  0  0  0  0  0  0  0  0  0  0  0
   35.3530   31.0660   34.6760 C   0  0  0  0  0  0  0  0  0  0  0  0
   34.0880   31.4520   34.3170 N   0  0  0  0  0  0  0  0  0  0  0  0
   33.3140   32.1940   35.1300 C   0  0  0  0  0  0  0  0  0  0  0  0
   33.7550   32.5820   36.3240 N   0  0  0  0  0  0  0  0  0  0  0  0
   35.4430   32.4940   37.6760 H   0  0  0  0  0  0  0  0  0  0  0  0
   36.8200   31.1300   36.1430 H   0  0  0  0  0  0  0  0  0  0  0  0
   32.3040   32.4940   34.8270 H   0  0  0  0  0  0  0  0  0  0  0  0
   36.0110   27.7630   32.7140 O   0  0  0  0  0  0  0  0  0  0  0  0
   37.1620   27.8610   33.4580 C   0  0  0  0  0  3  0  0  0  0  0  0
   36.9970   27.0990   34.7510 C   0  0  0  0  0  2  0  0  0  0  0  0
   38.1900   27.4900   35.6190 C   0  0  0  0  0  2  0  0  0  0  0  0
   39.4160   26.9040   34.9890 C   0  0  0  0  0  2  0  0  0  0  0  0
   39.2450   26.4400   33.5810 C   0  0  0  0  0  2  0  0  0  0  0  0
   38.3750   27.3140   32.7450 C   0  0  0  0  0  2  0  0  0  0  0  0
  2  1  2  6  0  0  0
  2 15  1  0  0  0  0
  2  3  1  0  0  0  0
  2  5  1  0  0  0  0
  4  3  1  0  0  0  0
  5  8  1  0  0  0  0
  6 12  1  0  0  0  0
  7 13  1  0  0  0  0
  7  6  2  0  0  0  0
  8  7  1  0  0  0  0
  9  8  2  0  0  0  0
  9 10  1  0  0  0  0
 10 11  2  0  0  0  0
 11  6  1  0  0  0  0
 14 10  1  0  0  0  0
 15 16  1  0  0  0  0
 16 17  1  0  0  0  0
 17 18  1  0  0  0  0
 19 18  1  0  0  0  0
 20 19  1  0  0  0  0
 21 16  1  0  0  0  0
 21 20  1  0  0  0  0
M  END
>  <minimizedAffinity>
-4.23716831

$$$$
