
 OpenBabel03262521553D

 36 38  0  0  1  0  0  0  0  0999 V2000
   31.9870   26.6960   48.1840 C   0  0  1  0  0  0  0  0  0  0  0  0
   32.5860   28.0800   48.2980 C   0  0  2  0  0  0  0  0  0  0  0  0
   32.4500   28.7510   46.9710 C   0  0  0  0  0  0  0  0  0  0  0  0
   31.8510   27.9570   46.0170 O   0  0  0  0  0  0  0  0  0  0  0  0
   30.5760   27.5600   46.3920 C   0  0  0  0  0  0  0  0  0  0  0  0
   30.5630   26.8750   47.7320 C   0  0  2  0  0  0  0  0  0  0  0  0
   32.0200   26.1850   49.1510 H   0  0  0  0  0  0  0  0  0  0  0  0
   31.9520   28.6410   49.0280 H   0  0  0  0  0  0  0  0  0  0  0  0
   31.9100   29.7270   47.0090 H   0  0  0  0  0  0  0  0  0  0  0  0
   33.4770   29.0010   46.5960 H   0  0  0  0  0  0  0  0  0  0  0  0
   29.8660   28.4080   46.3200 H   0  0  0  0  0  0  0  0  0  0  0  0
   30.2460   26.8130   45.6390 H   0  0  0  0  0  0  0  0  0  0  0  0
   29.9690   25.9510   47.7040 H   0  0  0  0  0  0  0  0  0  0  0  0
   32.6350   25.9690   47.1800 O   0  0  0  0  0  0  0  0  0  0  0  0
   33.0730   25.2000   47.6210 H   0  0  0  0  0  0  0  0  0  0  0  0
   34.3010   28.0430   48.8630 S   0  0  0  0  0  0  0  0  0  0  0  0
   34.5860   29.3680   50.0720 C   0  0  0  0  0  0  0  0  0  0  0  0
   34.2930   30.3590   49.6410 H   0  0  0  0  0  0  0  0  0  0  0  0
   33.8870   29.1850   50.9190 H   0  0  0  0  0  0  0  0  0  0  0  0
   36.2900   29.4790   50.6150 S   0  0  0  0  0  0  0  0  0  0  0  0
   37.1510   30.6250   49.5530 C   0  0  0  0  0  0  0  0  0  0  0  0
   37.2130   31.9220   50.0180 C   0  0  0  0  0  0  0  0  0  0  0  0
   37.8710   32.8850   49.2470 C   0  0  0  0  0  0  0  0  0  0  0  0
   38.4190   32.4860   48.0680 N   0  0  0  0  0  0  0  0  0  0  0  0
   38.3310   31.2050   47.6580 C   0  0  0  0  0  0  0  0  0  0  0  0
   37.7150   30.3030   48.3800 N   0  0  0  0  0  0  0  0  0  0  0  0
   36.7840   32.2340   50.9400 H   0  0  0  0  0  0  0  0  0  0  0  0
   37.9420   33.9150   49.5760 H   0  0  0  0  0  0  0  0  0  0  0  0
   38.7860   30.9170   46.6980 H   0  0  0  0  0  0  0  0  0  0  0  0
   29.9620   27.7130   48.6890 O   0  0  0  0  0  0  0  0  0  0  0  0
   28.8310   27.1310   49.2430 C   0  0  0  0  0  0  0  0  0  0  0  0
   29.0140   27.1280   50.7420 C   0  0  0  0  0  0  0  0  0  0  0  0
   27.7060   26.9910   51.4820 C   0  0  0  0  0  0  0  0  0  0  0  0
   26.6880   28.0280   51.1090 C   0  0  0  0  0  0  0  0  0  0  0  0
   27.2390   28.9030   50.0110 C   0  0  0  0  0  0  0  0  0  0  0  0
   27.6410   27.9750   48.8580 C   0  0  0  0  0  0  0  0  0  0  0  0
  1  2  1  0  0  0  0
  1  7  1  1  0  0  0
  2 16  1  0  0  0  0
  2  8  1  1  0  0  0
  3  9  1  0  0  0  0
  3  2  1  0  0  0  0
  4  5  1  0  0  0  0
  4  3  1  0  0  0  0
  5  6  1  0  0  0  0
  6 13  1  6  0  0  0
  6  1  1  0  0  0  0
  6 30  1  0  0  0  0
 10  3  1  0  0  0  0
 11  5  1  0  0  0  0
 12  5  1  0  0  0  0
 14 15  1  0  0  0  0
 14  1  1  0  0  0  0
 16 17  1  0  0  0  0
 17 20  1  0  0  0  0
 17 19  1  0  0  0  0
 18 17  1  0  0  0  0
 21 22  1  0  0  0  0
 21 20  1  0  0  0  0
 22 27  1  0  0  0  0
 23 28  1  0  0  0  0
 23 22  2  0  0  0  0
 24 23  1  0  0  0  0
 25 24  2  0  0  0  0
 25 26  1  0  0  0  0
 26 21  2  0  0  0  0
 29 25  1  0  0  0  0
 30 31  1  0  0  0  0
 31 32  1  0  0  0  0
 32 33  1  0  0  0  0
 34 33  1  0  0  0  0
 35 34  1  0  0  0  0
 36 31  1  0  0  0  0
 36 35  1  0  0  0  0
M  END
>  <minimizedAffinity>
-5.76039267

>  <minimizedRMSD>
1.49638116

$$$$
