
 OpenBabel03272505433D

 21 22  0  0  0  0  0  0  0  0999 V2000
   34.2390   30.0110   50.2200 O   0  0  0  0  0  0  0  0  0  0  0  0
   34.9420   29.3220   49.0450 P   0  0  2  0  0  0  0  0  0  0  0  0
   34.4490   27.7160   49.1000 O   0  0  0  0  0  0  0  0  0  0  0  0
   34.3410   27.4390   50.0280 H   0  0  0  0  0  0  0  0  0  0  0  0
   36.6140   29.4990   49.2370 O   0  0  0  0  0  0  0  0  0  0  0  0
   37.9430   32.8870   49.4150 C   0  0  0  0  0  0  0  0  0  0  0  0
   38.8010   32.8910   48.2750 C   0  0  0  0  0  0  0  0  0  0  0  0
   38.8460   31.7050   47.5340 C   0  0  0  0  0  0  0  0  0  0  0  0
   38.0930   30.6480   47.9290 N   0  0  0  0  0  0  0  0  0  0  0  0
   37.2960   30.6850   49.0110 C   0  0  0  0  0  0  0  0  0  0  0  0
   37.2240   31.8080   49.7520 N   0  0  0  0  0  0  0  0  0  0  0  0
   37.8510   33.7800   50.0510 H   0  0  0  0  0  0  0  0  0  0  0  0
   39.3600   33.7630   48.0320 H   0  0  0  0  0  0  0  0  0  0  0  0
   39.4830   31.6610   46.6590 H   0  0  0  0  0  0  0  0  0  0  0  0
   34.3180   30.0350   47.6580 O   0  0  0  0  0  0  0  0  0  0  0  0
   34.2380   29.1710   46.5860 C   0  0  0  0  0  0  0  0  0  0  0  0
   32.8230   28.9090   46.1380 C   0  0  0  0  0  0  0  0  0  0  0  0
   32.2010   30.2700   45.9950 C   0  0  0  0  0  0  0  0  0  0  0  0
   32.7900   30.8890   44.7810 C   0  0  0  0  0  0  0  0  0  0  0  0
   34.1460   30.4200   44.3940 C   0  0  0  0  0  0  0  0  0  0  0  0
   34.9690   29.7260   45.4180 C   0  0  0  0  0  0  0  0  0  0  0  0
  2  3  1  0  0  0  0
  2  5  1  0  0  0  0
  2  1  2  1  0  0  0
  3  4  1  0  0  0  0
  6 11  1  0  0  0  0
  6 12  1  0  0  0  0
  7  6  2  0  0  0  0
  8  9  2  0  0  0  0
  8  7  1  0  0  0  0
  9 10  1  0  0  0  0
 10  5  1  0  0  0  0
 10 11  2  0  0  0  0
 13  7  1  0  0  0  0
 14  8  1  0  0  0  0
 15  2  1  0  0  0  0
 16 15  1  0  0  0  0
 17 16  1  0  0  0  0
 18 17  1  0  0  0  0
 19 18  1  0  0  0  0
 20 19  1  0  0  0  0
 20 21  1  0  0  0  0
 21 16  1  0  0  0  0
M  END
>  <minimizedAffinity>
-4.30902815

>  <minimizedRMSD>
2.36647224

$$$$
