
 OpenBabel03262520423D

 18 19  0  0  0  0  0  0  0  0999 V2000
   37.3640   29.8890   51.2770 C   0  0  0  0  0  0  0  0  0  0  0  0
   38.0190   30.8870   50.5150 C   0  0  0  0  0  0  0  0  0  0  0  0
   37.2950   31.4460   49.4480 C   0  0  0  0  0  0  0  0  0  0  0  0
   36.0350   31.0190   49.1980 N   0  0  0  0  0  0  0  0  0  0  0  0
   35.4540   30.0620   49.9550 C   0  0  0  0  0  0  0  0  0  0  0  0
   36.1250   29.5060   50.9880 N   0  0  0  0  0  0  0  0  0  0  0  0
   37.8910   29.4330   52.1120 H   0  0  0  0  0  0  0  0  0  0  0  0
   39.0130   31.1620   50.7830 H   0  0  0  0  0  0  0  0  0  0  0  0
   34.4380   29.7860   49.6750 H   0  0  0  0  0  0  0  0  0  0  0  0
   37.9890   32.4900   48.6550 C   0  0  0  0  0  0  0  0  0  0  0  0
   37.1780   33.0370   48.1280 H   0  0  0  0  0  0  0  0  0  0  0  0
   38.4870   33.2300   49.2910 H   0  0  0  0  0  0  0  0  0  0  0  0
   39.0000   31.9600   47.6880 C   0  0  0  0  0  0  0  0  0  0  0  0
   39.7140   33.1760   47.1100 C   0  0  0  0  0  0  0  0  0  0  0  0
   40.2240   32.9010   45.7200 C   0  0  0  0  0  0  0  0  0  0  0  0
   39.0260   32.7750   44.8030 C   0  0  0  0  0  0  0  0  0  0  0  0
   37.9240   31.9560   45.4230 C   0  0  0  0  0  0  0  0  0  0  0  0
   38.4180   31.1200   46.5850 C   0  0  0  0  0  0  0  0  0  0  0  0
  1  7  1  0  0  0  0
  2  8  1  0  0  0  0
  2  1  2  0  0  0  0
  3  2  1  0  0  0  0
  4  3  2  0  0  0  0
  4  5  1  0  0  0  0
  5  6  2  0  0  0  0
  6  1  1  0  0  0  0
  9  5  1  0  0  0  0
 10 12  1  0  0  0  0
 10  3  1  0  0  0  0
 11 10  1  0  0  0  0
 13 10  1  0  0  0  0
 14 13  1  0  0  0  0
 15 14  1  0  0  0  0
 16 17  1  0  0  0  0
 16 15  1  0  0  0  0
 17 18  1  0  0  0  0
 18 13  1  0  0  0  0
M  END
>  <minimizedAffinity>
-4.96208096

>  <minimizedRMSD>
1.91773689

$$$$
