
 OpenBabel03272506393D

 34 36  0  0  1  0  0  0  0  0999 V2000
   34.1410   29.3500   49.8330 O   0  0  0  0  0  0  0  0  0  0  0  0
   34.1270   29.4230   48.5970 C   0  0  0  0  0  0  0  0  0  0  0  0
   35.0500   30.2730   47.8750 C   0  0  2  0  0  0  0  0  0  0  0  0
   34.7610   29.8410   46.3970 C   0  0  0  0  0  0  0  0  0  0  0  0
   33.3230   29.3980   46.4680 C   0  0  0  0  0  0  0  0  0  0  0  0
   33.2270   28.6990   47.7430 N   0  0  0  0  0  0  0  0  0  0  0  0
   34.8230   31.3520   47.9310 H   0  0  0  0  0  0  0  0  0  0  0  0
   34.9480   30.6700   45.7100 H   0  0  0  0  0  0  0  0  0  0  0  0
   35.3720   28.9490   46.2130 H   0  0  0  0  0  0  0  0  0  0  0  0
   33.0450   28.7480   45.6220 H   0  0  0  0  0  0  0  0  0  0  0  0
   32.6630   30.2840   46.5580 H   0  0  0  0  0  0  0  0  0  0  0  0
   32.4020   27.5370   48.0450 C   0  0  0  0  0  0  0  0  0  0  0  0
   32.9260   26.8320   48.7240 H   0  0  0  0  0  0  0  0  0  0  0  0
   32.1960   27.0370   47.0880 H   0  0  0  0  0  0  0  0  0  0  0  0
   31.0850   27.9510   48.6250 C   0  0  0  0  0  3  0  0  0  0  0  0
   30.1400   28.2200   47.4460 C   0  0  0  0  0  2  0  0  0  0  0  0
   28.8620   28.8630   47.8740 C   0  0  0  0  0  2  0  0  0  0  0  0
   28.6460   28.6200   49.3450 C   0  0  0  0  0  2  0  0  0  0  0  0
   28.9620   27.1670   49.6650 C   0  0  0  0  0  2  0  0  0  0  0  0
   30.4230   26.8620   49.4450 C   0  0  0  0  0  2  0  0  0  0  0  0
   36.4260   29.9700   48.0920 O   0  0  0  0  0  0  0  0  0  0  0  0
   37.3100   31.0400   48.2210 C   0  0  0  0  0  0  0  0  0  0  0  0
   37.4820   31.5550   49.4940 C   0  0  0  0  0  0  0  0  0  0  0  0
   38.3540   32.6210   49.6560 C   0  0  0  0  0  0  0  0  0  0  0  0
   38.9990   33.1120   48.5640 N   0  0  0  0  0  0  0  0  0  0  0  0
   38.8210   32.6030   47.3360 C   0  0  0  0  0  0  0  0  0  0  0  0
   37.9840   31.5800   47.1830 N   0  0  0  0  0  0  0  0  0  0  0  0
   40.3390   32.1790   45.5610 C   0  0  0  0  0  0  0  0  0  0  0  0
   40.5170   30.9720   45.8660 O   0  0  0  0  0  0  0  0  0  0  0  0
   39.5100   33.1420   46.2080 N   0  0  0  0  0  0  0  0  0  0  0  0
   37.0030   31.2100   50.3880 H   0  0  0  0  0  0  0  0  0  0  0  0
   38.5240   33.0560   50.6180 H   0  0  0  0  0  0  0  0  0  0  0  0
   40.9580   32.3400   44.6880 H   0  0  0  0  0  0  0  0  0  0  0  0
   39.4990   34.1010   45.7970 H   0  0  0  0  0  0  0  0  0  0  0  0
  2  1  2  0  0  0  0
  3  7  1  1  0  0  0
  3 21  1  0  0  0  0
  3  2  1  0  0  0  0
  4  5  1  0  0  0  0
  4  3  1  0  0  0  0
  5 11  1  0  0  0  0
  5  6  1  0  0  0  0
  6 12  1  0  0  0  0
  6  2  1  0  0  0  0
  8  4  1  0  0  0  0
  9  4  1  0  0  0  0
 10  5  1  0  0  0  0
 12 15  1  0  0  0  0
 12 13  1  0  0  0  0
 14 12  1  0  0  0  0
 15 20  1  0  0  0  0
 16 17  1  0  0  0  0
 16 15  1  0  0  0  0
 17 18  1  0  0  0  0
 18 19  1  0  0  0  0
 20 19  1  0  0  0  0
 21 22  1  0  0  0  0
 22 23  1  0  0  0  0
 23 24  2  0  0  0  0
 23 31  1  0  0  0  0
 24 32  1  0  0  0  0
 25 24  1  0  0  0  0
 26 25  2  0  0  0  0
 27 26  1  0  0  0  0
 27 22  2  0  0  0  0
 28 29  2  0  0  0  0
 28 30  1  0  0  0  0
 30 26  1  0  0  0  0
 33 28  1  0  0  0  0
 34 30  1  0  0  0  0
M  END
>  <minimizedAffinity>
-6.06544065

>  <minimizedRMSD>
1.24141967

$$$$
