
 OpenBabel03272503413D

 38 41  0  0  1  0  0  0  0  0999 V2000
   38.4950   31.1030   45.9080 C   0  0  0  0  0  0  0  0  0  0  0  0
   39.8270   31.0300   46.2090 C   0  0  0  0  0  0  0  0  0  0  0  0
   40.4770   31.3720   45.0150 C   0  0  0  0  0  0  0  0  0  0  0  0
   39.5460   31.6280   44.0720 N   0  0  0  0  0  0  0  0  0  0  0  0
   38.3400   31.4650   44.6130 N   0  0  0  0  0  0  0  0  0  0  0  0
   40.2360   30.7620   47.1790 H   0  0  0  0  0  0  0  0  0  0  0  0
   41.5760   31.3990   44.9550 H   0  0  0  0  0  0  0  0  0  0  0  0
   40.2430   30.7790   41.8980 C   0  0  2  0  0  0  0  0  0  0  0  0
   39.9050   32.0000   42.7270 C   0  0  1  0  0  0  0  0  0  0  0  0
   38.7010   32.4800   41.9400 C   0  0  0  0  0  0  0  0  0  0  0  0
   38.9400   32.2170   40.6120 O   0  0  0  0  0  0  0  0  0  0  0  0
   40.0110   31.3850   40.4940 C   0  0  0  0  0  0  0  0  0  0  0  0
   41.2550   30.4060   41.9920 H   0  0  0  0  0  0  0  0  0  0  0  0
   40.6780   32.7650   42.7110 H   0  0  0  0  0  0  0  0  0  0  0  0
   38.6480   33.5870   42.1200 H   0  0  0  0  0  0  0  0  0  0  0  0
   37.7670   31.9750   42.2580 H   0  0  0  0  0  0  0  0  0  0  0  0
   40.8970   31.9770   40.1960 H   0  0  0  0  0  0  0  0  0  0  0  0
   39.7980   30.5640   39.7660 H   0  0  0  0  0  0  0  0  0  0  0  0
   39.2550   29.8230   42.1170 O   0  0  0  0  0  0  0  0  0  0  0  0
   39.7880   28.5520   42.3050 C   0  0  0  0  0  0  0  0  0  0  0  0
   38.8200   27.7690   43.1530 C   0  0  0  0  0  0  0  0  0  0  0  0
   39.1560   26.3080   43.2320 C   0  0  0  0  0  0  0  0  0  0  0  0
   39.0600   25.6960   41.8700 C   0  0  0  0  0  0  0  0  0  0  0  0
   38.9200   26.7630   40.7860 C   0  0  0  0  0  0  0  0  0  0  0  0
   39.9980   27.8290   40.9910 C   0  0  0  0  0  0  0  0  0  0  0  0
   36.4750   30.6300   49.0330 C   0  0  0  0  0  0  0  0  0  0  0  0
   37.5340   30.9150   48.1980 C   0  0  0  0  0  0  0  0  0  0  0  0
   37.4280   30.8230   46.8370 C   0  0  0  0  0  0  0  0  0  0  0  0
   36.2130   30.4330   46.3570 N   0  0  0  0  0  0  0  0  0  0  0  0
   35.1730   30.1530   47.1940 C   0  0  0  0  0  0  0  0  0  0  0  0
   35.2840   30.2440   48.4990 N   0  0  0  0  0  0  0  0  0  0  0  0
   38.5340   31.2330   48.5320 H   0  0  0  0  0  0  0  0  0  0  0  0
   34.2070   29.8410   46.7680 H   0  0  0  0  0  0  0  0  0  0  0  0
   36.7820   30.7820   50.3830 O   0  0  0  0  0  0  0  0  0  0  0  0
   36.8330   29.7050   51.2900 C   0  0  0  0  0  0  0  0  0  0  0  0
   35.5730   29.2290   51.6080 F   0  0  0  0  0  0  0  0  0  0  0  0
   37.5150   30.0920   52.4120 F   0  0  0  0  0  0  0  0  0  0  0  0
   37.5720   28.6810   50.7080 F   0  0  0  0  0  0  0  0  0  0  0  0
  1  2  1  0  0  0  0
  1 28  1  0  0  0  0
  2  6  1  0  0  0  0
  3  2  2  0  0  0  0
  4  5  1  0  0  0  0
  4  3  1  0  0  0  0
  5  1  2  0  0  0  0
  7  3  1  0  0  0  0
  8 13  1  1  0  0  0
  8 19  1  0  0  0  0
  8  9  1  0  0  0  0
  9 14  1  6  0  0  0
  9  4  1  0  0  0  0
 10 15  1  0  0  0  0
 10 16  1  0  0  0  0
 10  9  1  0  0  0  0
 11 10  1  0  0  0  0
 12 11  1  0  0  0  0
 12  8  1  0  0  0  0
 17 12  1  0  0  0  0
 18 12  1  0  0  0  0
 19 20  1  0  0  0  0
 20 21  1  0  0  0  0
 21 22  1  0  0  0  0
 23 22  1  0  0  0  0
 24 25  1  0  0  0  0
 24 23  1  0  0  0  0
 25 20  1  0  0  0  0
 26 34  1  0  0  0  0
 27 32  1  0  0  0  0
 27 26  2  0  0  0  0
 28 27  1  0  0  0  0
 29 28  2  0  0  0  0
 29 30  1  0  0  0  0
 30 31  2  0  0  0  0
 31 26  1  0  0  0  0
 33 30  1  0  0  0  0
 34 35  1  0  0  0  0
 35 36  1  0  0  0  0
 35 37  1  0  0  0  0
 38 35  1  0  0  0  0
M  END
>  <minimizedAffinity>
-6.34627199

>  <minimizedRMSD>
0.719850659

$$$$
