
 OpenBabel03272508573D

 37 40  0  0  1  0  0  0  0  0999 V2000
   38.3320   31.8440   44.4990 C   0  0  0  0  0  0  0  0  0  0  0  0
   37.2150   32.3600   44.3970 O   0  0  0  0  0  0  0  0  0  0  0  0
   38.9130   31.6150   45.8090 N   0  0  0  0  0  0  0  0  0  0  0  0
   39.8940   31.3830   45.9750 H   0  0  0  0  0  0  0  0  0  0  0  0
   39.1180   31.4430   43.3190 C   0  0  0  0  0  0  0  0  0  0  0  0
   40.2090   30.6250   43.5050 C   0  0  0  0  0  0  0  0  0  0  0  0
   40.9350   30.2620   42.3780 C   0  0  0  0  0  0  0  0  0  0  0  0
   40.5290   30.7320   41.1640 C   0  0  0  0  0  0  0  0  0  0  0  0
   39.4380   31.5510   40.9670 C   0  0  0  0  0  0  0  0  0  0  0  0
   38.7520   31.8860   42.0920 N   0  0  0  0  0  0  0  0  0  0  0  0
   40.5140   30.2610   44.4840 H   0  0  0  0  0  0  0  0  0  0  0  0
   41.7820   29.6240   42.5500 H   0  0  0  0  0  0  0  0  0  0  0  0
   41.1650   30.3810   40.3730 H   0  0  0  0  0  0  0  0  0  0  0  0
   38.9960   32.0320   39.6480 C   0  0  2  0  0  3  0  0  0  0  0  0
   39.1450   33.2920   39.4260 O   0  0  0  0  0  1  0  0  0  0  0  0
   38.3860   31.3270   38.4910 C   0  0  0  0  0  3  0  0  0  0  0  0
   38.2630   32.2430   37.3440 C   0  0  0  0  0  2  0  0  0  0  0  0
   38.3680   31.4290   36.0470 C   0  0  0  0  0  2  0  0  0  0  0  0
   39.8360   31.0100   36.0010 C   0  0  0  0  0  2  0  0  0  0  0  0
   40.1690   30.0960   37.1480 C   0  0  0  0  0  2  0  0  0  0  0  0
   39.1100   30.0330   38.1980 C   0  0  0  0  0  2  0  0  0  0  0  0
   38.4250   31.0970   48.1930 C   0  0  2  0  0  0  0  0  0  0  0  0
   38.6650   32.5620   48.1080 C   0  0  0  0  0  0  0  0  0  0  0  0
   38.0580   31.7220   46.9650 C   0  0  1  0  0  0  0  0  0  0  0  0
   39.3540   30.5000   48.2880 H   0  0  0  0  0  0  0  0  0  0  0  0
   39.6800   32.9300   47.9820 H   0  0  0  0  0  0  0  0  0  0  0  0
   38.0020   33.1970   48.7110 H   0  0  0  0  0  0  0  0  0  0  0  0
   36.9870   31.9870   46.7910 H   0  0  0  0  0  0  0  0  0  0  0  0
   35.0600   30.2290   49.5200 C   0  0  0  0  0  0  0  0  0  0  0  0
   35.3950   29.5460   50.7410 C   0  0  0  0  0  0  0  0  0  0  0  0
   36.7940   29.4130   51.0790 C   0  0  0  0  0  0  0  0  0  0  0  0
   37.7520   29.9310   50.2410 N   0  0  0  0  0  0  0  0  0  0  0  0
   37.3400   30.5640   49.1000 C   0  0  0  0  0  0  0  0  0  0  0  0
   36.0160   30.7300   48.7100 N   0  0  0  0  0  0  0  0  0  0  0  0
   34.0220   30.3130   49.2930 H   0  0  0  0  0  0  0  0  0  0  0  0
   34.6540   29.1460   51.3900 H   0  0  0  0  0  0  0  0  0  0  0  0
   37.0440   28.9080   51.9830 H   0  0  0  0  0  0  0  0  0  0  0  0
  1  3  1  0  0  0  0
  2  1  2  0  0  0  0
  3  4  1  0  0  0  0
  3 24  1  0  0  0  0
  5  6  1  0  0  0  0
  5  1  1  0  0  0  0
  6 11  1  0  0  0  0
  7 12  1  0  0  0  0
  7  6  2  0  0  0  0
  8  7  1  0  0  0  0
  9  8  2  0  0  0  0
  9 10  1  0  0  0  0
 10  5  2  0  0  0  0
 13  8  1  0  0  0  0
 14 15  1  1  0  0  0
 14  9  1  0  0  0  0
 16 14  1  0  0  0  0
 17 16  1  0  0  0  0
 18 17  1  0  0  0  0
 19 18  1  0  0  0  0
 19 20  1  0  0  0  0
 20 21  1  0  0  0  0
 21 16  1  0  0  0  0
 22 25  1  6  0  0  0
 22 33  1  0  0  0  0
 23 22  1  0  0  0  0
 23 27  1  0  0  0  0
 24 28  1  6  0  0  0
 24 23  1  0  0  0  0
 24 22  1  0  0  0  0
 26 23  1  0  0  0  0
 29 30  1  0  0  0  0
 30 31  2  0  0  0  0
 30 36  1  0  0  0  0
 31 37  1  0  0  0  0
 32 31  1  0  0  0  0
 33 32  2  0  0  0  0
 34 33  1  0  0  0  0
 34 29  2  0  0  0  0
 35 29  1  0  0  0  0
M  END
>  <minimizedAffinity>
-4.86074114

>  <minimizedRMSD>
0.556393743

$$$$
