
 OpenBabel03272506433D

 29 31  0  0  1  0  0  0  0  0999 V2000
   32.4610   28.4270   47.5040 C   0  0  2  0  0  0  0  0  0  0  0  0
   33.6670   28.5310   48.4130 C   0  0  1  0  0  0  0  0  0  0  0  0
   34.2380   27.2850   48.4890 O   0  0  0  0  0  0  0  0  0  0  0  0
   33.6550   26.4590   47.5540 C   0  0  0  0  0  0  0  0  0  0  0  0
   32.9460   27.3700   46.5530 C   0  0  1  0  0  0  0  0  0  0  0  0
   31.5590   28.0930   48.0560 H   0  0  0  0  0  0  0  0  0  0  0  0
   33.3530   28.9310   49.3950 H   0  0  0  0  0  0  0  0  0  0  0  0
   32.9280   25.7470   47.9820 H   0  0  0  0  0  0  0  0  0  0  0  0
   34.4840   25.9780   46.9920 H   0  0  0  0  0  0  0  0  0  0  0  0
   33.6340   27.8140   45.8190 H   0  0  0  0  0  0  0  0  0  0  0  0
   32.2220   29.6410   46.8420 O   0  0  0  0  0  0  0  0  0  0  0  0
   32.1480   30.3690   47.5070 H   0  0  0  0  0  0  0  0  0  0  0  0
   34.8470   29.6370   47.5790 S   0  0  0  0  0  0  0  0  0  0  0  0
   37.5140   29.5270   50.4970 C   0  0  0  0  0  0  0  0  0  0  0  0
   38.1010   30.7840   50.5160 C   0  0  0  0  0  0  0  0  0  0  0  0
   37.6500   31.7180   49.5750 C   0  0  0  0  0  0  0  0  0  0  0  0
   36.6670   31.3510   48.6990 N   0  0  0  0  0  0  0  0  0  0  0  0
   36.1250   30.1170   48.7190 C   0  0  0  0  0  0  0  0  0  0  0  0
   36.5450   29.1920   49.6200 N   0  0  0  0  0  0  0  0  0  0  0  0
   37.8720   28.8200   51.2270 H   0  0  0  0  0  0  0  0  0  0  0  0
   38.8730   31.0930   51.1960 H   0  0  0  0  0  0  0  0  0  0  0  0
   38.0220   32.7320   49.4820 H   0  0  0  0  0  0  0  0  0  0  0  0
   31.9160   26.6940   45.9150 O   0  0  0  0  0  0  0  0  0  0  0  0
   32.1290   26.5230   44.5590 C   0  0  0  0  0  3  0  0  0  0  0  0
   33.2800   27.3880   44.0660 C   0  0  0  0  0  2  0  0  0  0  0  0
   34.2000   26.6460   43.1380 C   0  0  0  0  0  2  0  0  0  0  0  0
   33.4550   25.8120   42.1240 C   0  0  0  0  0  2  0  0  0  0  0  0
   32.3570   24.9720   42.7130 C   0  0  0  0  0  2  0  0  0  0  0  0
   32.4860   25.0860   44.2350 C   0  0  0  0  0  2  0  0  0  0  0  0
  1  6  1  1  0  0  0
  1  2  1  0  0  0  0
  2  3  1  0  0  0  0
  2  7  1  1  0  0  0
  4  8  1  0  0  0  0
  4  3  1  0  0  0  0
  5 10  1  6  0  0  0
  5  1  1  0  0  0  0
  5  4  1  0  0  0  0
  9  4  1  0  0  0  0
 11  1  1  0  0  0  0
 11 12  1  0  0  0  0
 13  2  1  0  0  0  0
 13 18  1  0  0  0  0
 14 15  1  0  0  0  0
 14 20  1  0  0  0  0
 15 21  1  0  0  0  0
 16 15  2  0  0  0  0
 17 18  2  0  0  0  0
 17 16  1  0  0  0  0
 18 19  1  0  0  0  0
 19 14  2  0  0  0  0
 22 16  1  0  0  0  0
 23  5  1  0  0  0  0
 24 23  1  0  0  0  0
 25 24  1  0  0  0  0
 26 25  1  0  0  0  0
 27 28  1  0  0  0  0
 27 26  1  0  0  0  0
 28 29  1  0  0  0  0
 29 24  1  0  0  0  0
M  END
>  <minimizedAffinity>
-3.77577233

>  <minimizedRMSD>
0.582116306

$$$$
