
 OpenBabel03262522193D

 21 22  0  0  0  0  0  0  0  0999 V2000
   37.3460   22.6590   36.4770 O   0  0  0  0  0  0  0  0  0  0  0  0
   38.6930   22.5970   35.7420 P   0  0  1  0  0  0  0  0  0  0  0  0
   39.7830   21.7510   36.7560 O   0  0  0  0  0  0  0  0  0  0  0  0
   39.3160   21.4210   37.5780 H   0  0  0  0  0  0  0  0  0  0  0  0
   38.4680   21.6230   34.3730 O   0  0  0  0  0  0  0  0  0  0  0  0
   37.6770   22.4330   32.2790 C   0  0  0  0  0  0  0  0  0  0  0  0
   37.4610   21.6930   33.4540 C   0  0  0  0  0  0  0  0  0  0  0  0
   36.2180   21.0800   33.5880 C   0  0  0  0  0  0  0  0  0  0  0  0
   35.2950   21.2280   32.5950 N   0  0  0  0  0  0  0  0  0  0  0  0
   35.5480   21.9440   31.4920 C   0  0  0  0  0  0  0  0  0  0  0  0
   36.7530   22.5590   31.3230 N   0  0  0  0  0  0  0  0  0  0  0  0
   38.5940   22.9570   32.0490 H   0  0  0  0  0  0  0  0  0  0  0  0
   36.0390   20.5030   34.4970 H   0  0  0  0  0  0  0  0  0  0  0  0
   34.6790   21.9330   30.8300 H   0  0  0  0  0  0  0  0  0  0  0  0
   39.1730   24.1520   35.4420 O   0  0  0  0  0  0  0  0  0  0  0  0
   38.0430   24.9750   35.4270 C   0  0  0  0  0  3  0  0  0  0  0  0
   38.2410   26.0000   36.5190 C   0  0  0  0  0  2  0  0  0  0  0  0
   38.7450   27.2670   35.8630 C   0  0  0  0  0  2  0  0  0  0  0  0
   37.5870   27.8560   35.1140 C   0  0  0  0  0  2  0  0  0  0  0  0
   37.0320   26.8560   34.1530 C   0  0  0  0  0  2  0  0  0  0  0  0
   37.7850   25.5660   34.0750 C   0  0  0  0  0  2  0  0  0  0  0  0
  2  1  2  1  0  0  0
  2  3  1  0  0  0  0
  3  4  1  0  0  0  0
  5  2  1  0  0  0  0
  6  7  1  0  0  0  0
  7  8  2  0  0  0  0
  7  5  1  0  0  0  0
  8 13  1  0  0  0  0
  9  8  1  0  0  0  0
 10  9  2  0  0  0  0
 11 10  1  0  0  0  0
 11  6  2  0  0  0  0
 12  6  1  0  0  0  0
 14 10  1  0  0  0  0
 15  2  1  0  0  0  0
 16 15  1  0  0  0  0
 16 17  1  0  0  0  0
 18 17  1  0  0  0  0
 19 18  1  0  0  0  0
 20 19  1  0  0  0  0
 21 20  1  0  0  0  0
 21 16  1  0  0  0  0
M  END
>  <minimizedAffinity>
-4.47371626

$$$$

 OpenBabel03262522193D

 21 22  0  0  0  0  0  0  0  0999 V2000
   35.0570   24.5840   30.8450 O   0  0  0  0  0  0  0  0  0  0  0  0
   36.4410   24.6190   31.5090 P   0  0  1  0  0  0  0  0  0  0  0  0
   37.5930   24.8510   30.2640 O   0  0  0  0  0  0  0  0  0  0  0  0
   37.1380   24.9780   29.3820 H   0  0  0  0  0  0  0  0  0  0  0  0
   36.4960   26.0140   32.4710 O   0  0  0  0  0  0  0  0  0  0  0  0
   37.0230   27.2150   34.4580 C   0  0  0  0  0  0  0  0  0  0  0  0
   37.4050   26.3240   33.4410 C   0  0  0  0  0  0  0  0  0  0  0  0
   38.7020   25.8190   33.5050 C   0  0  0  0  0  0  0  0  0  0  0  0
   39.5140   26.2080   34.5300 N   0  0  0  0  0  0  0  0  0  0  0  0
   39.1030   27.0610   35.4770 C   0  0  0  0  0  0  0  0  0  0  0  0
   37.8410   27.5770   35.4490 N   0  0  0  0  0  0  0  0  0  0  0  0
   36.0490   27.6780   34.5270 H   0  0  0  0  0  0  0  0  0  0  0  0
   39.0100   25.1260   32.7210 H   0  0  0  0  0  0  0  0  0  0  0  0
   39.9060   27.2370   36.1970 H   0  0  0  0  0  0  0  0  0  0  0  0
   36.6470   23.1870   32.3130 O   0  0  0  0  0  0  0  0  0  0  0  0
   35.9720   22.1810   31.6170 C   0  0  0  0  0  3  0  0  0  0  0  0
   37.0290   21.3390   30.9410 C   0  0  0  0  0  2  0  0  0  0  0  0
   37.2500   20.1140   31.8030 C   0  0  0  0  0  2  0  0  0  0  0  0
   36.0370   19.2480   31.6410 C   0  0  0  0  0  2  0  0  0  0  0  0
   34.8040   20.0160   31.9860 C   0  0  0  0  0  2  0  0  0  0  0  0
   35.0430   21.4020   32.4970 C   0  0  0  0  0  2  0  0  0  0  0  0
  2  1  2  6  0  0  0
  2 15  1  0  0  0  0
  2  5  1  0  0  0  0
  3  2  1  0  0  0  0
  4  3  1  0  0  0  0
  5  7  1  0  0  0  0
  6 12  1  0  0  0  0
  6 11  1  0  0  0  0
  7  8  1  0  0  0  0
  7  6  2  0  0  0  0
  8  9  2  0  0  0  0
  9 10  1  0  0  0  0
 10 14  1  0  0  0  0
 11 10  2  0  0  0  0
 13  8  1  0  0  0  0
 16 15  1  0  0  0  0
 16 21  1  0  0  0  0
 17 16  1  0  0  0  0
 17 18  1  0  0  0  0
 19 18  1  0  0  0  0
 19 20  1  0  0  0  0
 20 21  1  0  0  0  0
M  END
>  <minimizedAffinity>
-4.46964216

$$$$

 OpenBabel03262522193D

 21 22  0  0  0  0  0  0  0  0999 V2000
   36.7910   27.6240   34.6300 O   0  0  0  0  0  0  0  0  0  0  0  0
   38.0780   26.9090   35.0680 P   0  0  1  0  0  0  0  0  0  0  0  0
   38.6930   27.7580   36.4220 O   0  0  0  0  0  0  0  0  0  0  0  0
   38.0700   28.4950   36.6870 H   0  0  0  0  0  0  0  0  0  0  0  0
   37.6260   25.3770   35.6360 O   0  0  0  0  0  0  0  0  0  0  0  0
   39.5330   23.9620   35.8100 C   0  0  0  0  0  0  0  0  0  0  0  0
   38.3720   24.5100   36.3810 C   0  0  0  0  0  0  0  0  0  0  0  0
   38.0710   24.1190   37.6840 C   0  0  0  0  0  0  0  0  0  0  0  0
   38.9000   23.2430   38.3220 N   0  0  0  0  0  0  0  0  0  0  0  0
   39.9970   22.7480   37.7340 C   0  0  0  0  0  0  0  0  0  0  0  0
   40.3260   23.1060   36.4610 N   0  0  0  0  0  0  0  0  0  0  0  0
   39.8820   24.1800   34.8100 H   0  0  0  0  0  0  0  0  0  0  0  0
   37.1720   24.5380   38.1380 H   0  0  0  0  0  0  0  0  0  0  0  0
   40.5140   22.0690   38.4170 H   0  0  0  0  0  0  0  0  0  0  0  0
   39.1180   26.9170   33.7810 O   0  0  0  0  0  0  0  0  0  0  0  0
   38.4190   26.5230   32.6370 C   0  0  0  0  0  3  0  0  0  0  0  0
   38.7760   27.5110   31.5510 C   0  0  0  0  0  2  0  0  0  0  0  0
   39.8480   26.8710   30.6940 C   0  0  0  0  0  2  0  0  0  0  0  0
   39.1770   25.7920   29.8980 C   0  0  0  0  0  2  0  0  0  0  0  0
   38.4820   24.8350   30.8110 C   0  0  0  0  0  2  0  0  0  0  0  0
   38.6800   25.0940   32.2710 C   0  0  0  0  0  2  0  0  0  0  0  0
  2  1  2  6  0  0  0
  2  5  1  0  0  0  0
  2  3  1  0  0  0  0
  3  4  1  0  0  0  0
  5  7  1  0  0  0  0
  6  7  2  0  0  0  0
  6 11  1  0  0  0  0
  7  8  1  0  0  0  0
  8 13  1  0  0  0  0
  8  9  2  0  0  0  0
 10  9  1  0  0  0  0
 10 14  1  0  0  0  0
 11 10  2  0  0  0  0
 12  6  1  0  0  0  0
 15  2  1  0  0  0  0
 16 15  1  0  0  0  0
 17 16  1  0  0  0  0
 18 17  1  0  0  0  0
 19 18  1  0  0  0  0
 19 20  1  0  0  0  0
 20 21  1  0  0  0  0
 21 16  1  0  0  0  0
M  END
>  <minimizedAffinity>
-4.3765645

$$$$

 OpenBabel03262522193D

 21 22  0  0  0  0  0  0  0  0999 V2000
   38.0040   25.7670   30.6370 O   0  0  0  0  0  0  0  0  0  0  0  0
   36.7750   25.0700   31.2370 P   0  0  1  0  0  0  0  0  0  0  0  0
   35.4140   25.5720   30.3280 O   0  0  0  0  0  0  0  0  0  0  0  0
   35.6960   26.1560   29.5650 H   0  0  0  0  0  0  0  0  0  0  0  0
   36.9530   23.4100   30.9450 O   0  0  0  0  0  0  0  0  0  0  0  0
   36.9710   22.1050   32.9370 C   0  0  0  0  0  0  0  0  0  0  0  0
   36.4330   22.3740   31.6670 C   0  0  0  0  0  0  0  0  0  0  0  0
   35.3940   21.5500   31.2400 C   0  0  0  0  0  0  0  0  0  0  0  0
   34.9640   20.5480   32.0580 N   0  0  0  0  0  0  0  0  0  0  0  0
   35.5100   20.3310   33.2620 C   0  0  0  0  0  0  0  0  0  0  0  0
   36.5280   21.1150   33.7160 N   0  0  0  0  0  0  0  0  0  0  0  0
   37.7780   22.6660   33.3880 H   0  0  0  0  0  0  0  0  0  0  0  0
   34.9680   21.7500   30.2550 H   0  0  0  0  0  0  0  0  0  0  0  0
   35.0200   19.4830   33.7490 H   0  0  0  0  0  0  0  0  0  0  0  0
   36.6770   25.5090   32.8300 O   0  0  0  0  0  0  0  0  0  0  0  0
   37.8780   26.1210   33.2000 C   0  0  0  0  0  3  0  0  0  0  0  0
   37.5190   27.4880   33.7350 C   0  0  0  0  0  2  0  0  0  0  0  0
   37.5050   27.3910   35.2460 C   0  0  0  0  0  2  0  0  0  0  0  0
   38.9340   27.2700   35.6850 C   0  0  0  0  0  2  0  0  0  0  0  0
   39.5840   26.1070   35.0100 C   0  0  0  0  0  2  0  0  0  0  0  0
   38.6760   25.2840   34.1520 C   0  0  0  0  0  2  0  0  0  0  0  0
  2  1  2  6  0  0  0
  2 15  1  0  0  0  0
  3  2  1  0  0  0  0
  4  3  1  0  0  0  0
  5  2  1  0  0  0  0
  5  7  1  0  0  0  0
  6 12  1  0  0  0  0
  6 11  1  0  0  0  0
  7  6  2  0  0  0  0
  8  7  1  0  0  0  0
  8  9  2  0  0  0  0
  9 10  1  0  0  0  0
 10 11  2  0  0  0  0
 10 14  1  0  0  0  0
 13  8  1  0  0  0  0
 15 16  1  0  0  0  0
 16 17  1  0  0  0  0
 16 21  1  0  0  0  0
 17 18  1  0  0  0  0
 18 19  1  0  0  0  0
 20 19  1  0  0  0  0
 21 20  1  0  0  0  0
M  END
>  <minimizedAffinity>
-4.37439489

$$$$

 OpenBabel03262522193D

 21 22  0  0  0  0  0  0  0  0999 V2000
   37.4940   23.1270   38.5560 O   0  0  0  0  0  0  0  0  0  0  0  0
   38.2880   23.2350   37.2460 P   0  0  1  0  0  0  0  0  0  0  0  0
   37.9130   21.8510   36.3110 O   0  0  0  0  0  0  0  0  0  0  0  0
   37.2180   21.2940   36.7690 H   0  0  0  0  0  0  0  0  0  0  0  0
   37.6680   24.5630   36.3960 O   0  0  0  0  0  0  0  0  0  0  0  0
   38.3120   24.7880   34.1150 C   0  0  0  0  0  0  0  0  0  0  0  0
   38.2860   25.2970   35.4250 C   0  0  0  0  0  0  0  0  0  0  0  0
   38.9030   26.5280   35.6310 C   0  0  0  0  0  0  0  0  0  0  0  0
   39.4870   27.1630   34.5740 N   0  0  0  0  0  0  0  0  0  0  0  0
   39.4860   26.6370   33.3420 C   0  0  0  0  0  0  0  0  0  0  0  0
   38.8920   25.4340   33.1000 N   0  0  0  0  0  0  0  0  0  0  0  0
   37.8730   23.8470   33.8180 H   0  0  0  0  0  0  0  0  0  0  0  0
   38.8880   26.9330   36.6440 H   0  0  0  0  0  0  0  0  0  0  0  0
   40.0050   27.3040   32.6490 H   0  0  0  0  0  0  0  0  0  0  0  0
   39.8940   23.3240   37.6400 O   0  0  0  0  0  0  0  0  0  0  0  0
   40.6140   22.4970   36.7740 C   0  0  0  0  0  3  0  0  0  0  0  0
   41.4530   23.4070   35.9070 C   0  0  0  0  0  2  0  0  0  0  0  0
   42.8490   23.4260   36.4920 C   0  0  0  0  0  2  0  0  0  0  0  0
   43.4610   22.0900   36.1940 C   0  0  0  0  0  2  0  0  0  0  0  0
   42.5960   20.9960   36.7280 C   0  0  0  0  0  2  0  0  0  0  0  0
   41.4020   21.4530   37.5040 C   0  0  0  0  0  2  0  0  0  0  0  0
  2 15  1  0  0  0  0
  2  1  2  1  0  0  0
  3  4  1  0  0  0  0
  3  2  1  0  0  0  0
  5  2  1  0  0  0  0
  6  7  1  0  0  0  0
  7  8  2  0  0  0  0
  7  5  1  0  0  0  0
  8 13  1  0  0  0  0
  9  8  1  0  0  0  0
 10  9  2  0  0  0  0
 11 10  1  0  0  0  0
 11  6  2  0  0  0  0
 12  6  1  0  0  0  0
 14 10  1  0  0  0  0
 16 21  1  0  0  0  0
 16 15  1  0  0  0  0
 17 18  1  0  0  0  0
 17 16  1  0  0  0  0
 19 18  1  0  0  0  0
 19 20  1  0  0  0  0
 20 21  1  0  0  0  0
M  END
>  <minimizedAffinity>
-4.31139088

$$$$

 OpenBabel03262522193D

 21 22  0  0  0  0  0  0  0  0999 V2000
   39.1620   23.4160   32.4330 O   0  0  0  0  0  0  0  0  0  0  0  0
   38.6470   24.5570   33.3200 P   0  0  1  0  0  0  0  0  0  0  0  0
   39.9800   25.5760   33.6600 O   0  0  0  0  0  0  0  0  0  0  0  0
   40.7960   25.2630   33.1710 H   0  0  0  0  0  0  0  0  0  0  0  0
   37.5780   25.4760   32.3780 O   0  0  0  0  0  0  0  0  0  0  0  0
   37.0870   27.1060   34.0430 C   0  0  0  0  0  0  0  0  0  0  0  0
   36.9150   26.6140   32.7370 C   0  0  0  0  0  0  0  0  0  0  0  0
   36.0710   27.3400   31.9010 C   0  0  0  0  0  0  0  0  0  0  0  0
   35.4670   28.4640   32.3810 N   0  0  0  0  0  0  0  0  0  0  0  0
   35.6610   28.8930   33.6350 C   0  0  0  0  0  0  0  0  0  0  0  0
   36.4810   28.2120   34.4840 N   0  0  0  0  0  0  0  0  0  0  0  0
   37.7120   26.6420   34.7920 H   0  0  0  0  0  0  0  0  0  0  0  0
   35.9300   26.9670   30.8850 H   0  0  0  0  0  0  0  0  0  0  0  0
   35.0860   29.8060   33.8120 H   0  0  0  0  0  0  0  0  0  0  0  0
   37.9960   23.8780   34.6830 O   0  0  0  0  0  0  0  0  0  0  0  0
   38.8960   24.0440   35.7390 C   0  0  0  0  0  3  0  0  0  0  0  0
   38.1730   24.8360   36.8030 C   0  0  0  0  0  2  0  0  0  0  0  0
   37.6750   23.8510   37.8390 C   0  0  0  0  0  2  0  0  0  0  0  0
   38.8790   23.3750   38.5960 C   0  0  0  0  0  2  0  0  0  0  0  0
   39.8880   22.8040   37.6540 C   0  0  0  0  0  2  0  0  0  0  0  0
   39.4550   22.7410   36.2240 C   0  0  0  0  0  2  0  0  0  0  0  0
  2  1  2  6  0  0  0
  2  3  1  0  0  0  0
  2 15  1  0  0  0  0
  4  3  1  0  0  0  0
  5  7  1  0  0  0  0
  5  2  1  0  0  0  0
  6 11  1  0  0  0  0
  6 12  1  0  0  0  0
  7  6  2  0  0  0  0
  8  9  2  0  0  0  0
  8  7  1  0  0  0  0
  9 10  1  0  0  0  0
 10 14  1  0  0  0  0
 10 11  2  0  0  0  0
 13  8  1  0  0  0  0
 15 16  1  0  0  0  0
 16 21  1  0  0  0  0
 16 17  1  0  0  0  0
 17 18  1  0  0  0  0
 18 19  1  0  0  0  0
 20 19  1  0  0  0  0
 21 20  1  0  0  0  0
M  END
>  <minimizedAffinity>
-4.25913239

$$$$

 OpenBabel03262522193D

 21 22  0  0  0  0  0  0  0  0999 V2000
   35.9400   24.7170   31.8010 O   0  0  0  0  0  0  0  0  0  0  0  0
   37.3910   24.2920   31.5340 P   0  0  1  0  0  0  0  0  0  0  0  0
   37.8570   24.9890   30.0420 O   0  0  0  0  0  0  0  0  0  0  0  0
   37.1270   25.5730   29.6830 H   0  0  0  0  0  0  0  0  0  0  0  0
   38.3520   25.0280   32.7210 O   0  0  0  0  0  0  0  0  0  0  0  0
   39.4670   23.5770   34.2440 C   0  0  0  0  0  0  0  0  0  0  0  0
   38.5520   24.6170   34.0070 C   0  0  0  0  0  0  0  0  0  0  0  0
   37.9130   25.1540   35.1220 C   0  0  0  0  0  0  0  0  0  0  0  0
   38.2020   24.6540   36.3570 N   0  0  0  0  0  0  0  0  0  0  0  0
   39.0830   23.6600   36.5320 C   0  0  0  0  0  0  0  0  0  0  0  0
   39.7300   23.1080   35.4660 N   0  0  0  0  0  0  0  0  0  0  0  0
   40.0300   23.0730   33.4710 H   0  0  0  0  0  0  0  0  0  0  0  0
   37.2010   25.9630   34.9500 H   0  0  0  0  0  0  0  0  0  0  0  0
   39.1640   23.4140   37.5940 H   0  0  0  0  0  0  0  0  0  0  0  0
   37.4310   22.6370   31.5070 O   0  0  0  0  0  0  0  0  0  0  0  0
   36.2880   22.1510   32.1480 C   0  0  0  0  0  3  0  0  0  0  0  0
   35.5100   21.3730   31.1130 C   0  0  0  0  0  2  0  0  0  0  0  0
   35.8260   19.9070   31.3190 C   0  0  0  0  0  2  0  0  0  0  0  0
   35.1340   19.4880   32.5810 C   0  0  0  0  0  2  0  0  0  0  0  0
   35.5570   20.3630   33.7160 C   0  0  0  0  0  2  0  0  0  0  0  0
   36.6160   21.3660   33.3820 C   0  0  0  0  0  2  0  0  0  0  0  0
  2  1  2  1  0  0  0
  2  5  1  0  0  0  0
  3  2  1  0  0  0  0
  4  3  1  0  0  0  0
  5  7  1  0  0  0  0
  6 11  1  0  0  0  0
  7  6  2  0  0  0  0
  7  8  1  0  0  0  0
  8  9  2  0  0  0  0
  9 10  1  0  0  0  0
 10 14  1  0  0  0  0
 11 10  2  0  0  0  0
 12  6  1  0  0  0  0
 13  8  1  0  0  0  0
 15  2  1  0  0  0  0
 15 16  1  0  0  0  0
 16 21  1  0  0  0  0
 17 18  1  0  0  0  0
 17 16  1  0  0  0  0
 18 19  1  0  0  0  0
 19 20  1  0  0  0  0
 21 20  1  0  0  0  0
M  END
>  <minimizedAffinity>
-4.15711689

$$$$

 OpenBabel03262522193D

 21 22  0  0  0  0  0  0  0  0999 V2000
   40.5020   24.7480   34.2040 O   0  0  0  0  0  0  0  0  0  0  0  0
   39.4850   23.8590   33.4740 P   0  0  1  0  0  0  0  0  0  0  0  0
   40.3620   22.5800   32.7480 O   0  0  0  0  0  0  0  0  0  0  0  0
   41.3310   22.6340   32.9930 H   0  0  0  0  0  0  0  0  0  0  0  0
   38.5050   23.1470   34.6590 O   0  0  0  0  0  0  0  0  0  0  0  0
   39.5750   22.6740   36.7320 C   0  0  0  0  0  0  0  0  0  0  0  0
   38.5630   23.3290   36.0110 C   0  0  0  0  0  0  0  0  0  0  0  0
   37.6870   24.1250   36.7440 C   0  0  0  0  0  0  0  0  0  0  0  0
   37.8530   24.2250   38.0940 N   0  0  0  0  0  0  0  0  0  0  0  0
   38.8350   23.5790   38.7370 C   0  0  0  0  0  0  0  0  0  0  0  0
   39.7130   22.7910   38.0550 N   0  0  0  0  0  0  0  0  0  0  0  0
   40.3200   22.0280   36.2880 H   0  0  0  0  0  0  0  0  0  0  0  0
   36.8970   24.6390   36.1940 H   0  0  0  0  0  0  0  0  0  0  0  0
   38.7860   23.7960   39.8080 H   0  0  0  0  0  0  0  0  0  0  0  0
   38.6970   24.8040   32.3660 O   0  0  0  0  0  0  0  0  0  0  0  0
   37.3210   24.6160   32.5160 C   0  0  0  0  0  3  0  0  0  0  0  0
   36.6910   25.9890   32.4820 C   0  0  0  0  0  2  0  0  0  0  0  0
   36.1580   26.2070   31.0820 C   0  0  0  0  0  2  0  0  0  0  0  0
   34.9520   25.3280   30.9370 C   0  0  0  0  0  2  0  0  0  0  0  0
   35.3100   23.9080   31.2340 C   0  0  0  0  0  2  0  0  0  0  0  0
   36.7610   23.6630   31.5040 C   0  0  0  0  0  2  0  0  0  0  0  0
  2  1  2  1  0  0  0
  2  5  1  0  0  0  0
  3  4  1  0  0  0  0
  3  2  1  0  0  0  0
  5  7  1  0  0  0  0
  6 11  1  0  0  0  0
  7  6  2  0  0  0  0
  7  8  1  0  0  0  0
  8  9  2  0  0  0  0
  9 10  1  0  0  0  0
 10 14  1  0  0  0  0
 11 10  2  0  0  0  0
 12  6  1  0  0  0  0
 13  8  1  0  0  0  0
 15 16  1  0  0  0  0
 15  2  1  0  0  0  0
 17 16  1  0  0  0  0
 18 17  1  0  0  0  0
 19 18  1  0  0  0  0
 19 20  1  0  0  0  0
 20 21  1  0  0  0  0
 21 16  1  0  0  0  0
M  END
>  <minimizedAffinity>
-4.14447308

$$$$

 OpenBabel03262522193D

 21 22  0  0  0  0  0  0  0  0999 V2000
   36.7160   25.0230   32.2020 O   0  0  0  0  0  0  0  0  0  0  0  0
   37.8960   24.1690   32.6890 P   0  0  1  0  0  0  0  0  0  0  0  0
   39.3290   24.9240   32.1340 O   0  0  0  0  0  0  0  0  0  0  0  0
   39.1160   25.7850   31.6690 H   0  0  0  0  0  0  0  0  0  0  0  0
   37.9270   24.2810   34.3800 O   0  0  0  0  0  0  0  0  0  0  0  0
   38.5220   23.7610   36.6260 C   0  0  0  0  0  0  0  0  0  0  0  0
   38.7440   23.6130   35.2460 C   0  0  0  0  0  0  0  0  0  0  0  0
   39.7960   22.7840   34.8660 C   0  0  0  0  0  0  0  0  0  0  0  0
   40.5400   22.1720   35.8320 N   0  0  0  0  0  0  0  0  0  0  0  0
   40.2890   22.3440   37.1370 C   0  0  0  0  0  0  0  0  0  0  0  0
   39.2680   23.1480   37.5480 N   0  0  0  0  0  0  0  0  0  0  0  0
   37.7420   24.3730   37.0550 H   0  0  0  0  0  0  0  0  0  0  0  0
   39.9780   22.6610   33.7970 H   0  0  0  0  0  0  0  0  0  0  0  0
   41.0000   21.7670   37.7350 H   0  0  0  0  0  0  0  0  0  0  0  0
   37.6980   22.6440   32.0760 O   0  0  0  0  0  0  0  0  0  0  0  0
   36.4540   22.1560   32.4840 C   0  0  0  0  0  3  0  0  0  0  0  0
   35.7080   21.7710   31.2270 C   0  0  0  0  0  2  0  0  0  0  0  0
   35.8520   20.2730   31.0580 C   0  0  0  0  0  2  0  0  0  0  0  0
   34.9990   19.6350   32.1120 C   0  0  0  0  0  2  0  0  0  0  0  0
   35.3930   20.1310   33.4650 C   0  0  0  0  0  2  0  0  0  0  0  0
   36.5750   21.0470   33.4840 C   0  0  0  0  0  2  0  0  0  0  0  0
  2  1  2  6  0  0  0
  2  5  1  0  0  0  0
  3  2  1  0  0  0  0
  4  3  1  0  0  0  0
  5  7  1  0  0  0  0
  6 12  1  0  0  0  0
  6 11  1  0  0  0  0
  7  6  2  0  0  0  0
  8  7  1  0  0  0  0
  8  9  2  0  0  0  0
  9 10  1  0  0  0  0
 10 11  2  0  0  0  0
 10 14  1  0  0  0  0
 13  8  1  0  0  0  0
 15 16  1  0  0  0  0
 15  2  1  0  0  0  0
 16 21  1  0  0  0  0
 17 16  1  0  0  0  0
 18 17  1  0  0  0  0
 18 19  1  0  0  0  0
 19 20  1  0  0  0  0
 20 21  1  0  0  0  0
M  END
>  <minimizedAffinity>
-4.13700724

$$$$
