
 OpenBabel03262522023D

 36 39  0  0  1  0  0  0  0  0999 V2000
   34.4670   29.1570   48.8730 C   0  0  2  0  0  0  0  0  0  0  0  0
   35.1710   28.4230   49.9840 C   0  0  0  0  0  0  0  0  0  0  0  0
   36.3430   29.1640   50.3720 N   0  0  0  0  0  0  0  0  0  0  0  0
   37.3470   29.8740   51.1100 C   0  0  0  0  0  0  0  0  0  0  0  0
   37.6500   30.0600   52.3090 O   0  0  0  0  0  0  0  0  0  0  0  0
   38.0100   30.3940   49.9160 C   0  0  1  0  0  0  0  0  0  0  0  0
   37.1360   29.4000   49.1910 C   0  0  2  0  0  0  0  0  0  0  0  0
   35.8300   30.1380   48.1590 S   0  0  0  0  0  0  0  0  0  0  0  0
   34.5140   28.2870   50.8700 H   0  0  0  0  0  0  0  0  0  0  0  0
   35.4820   27.4270   49.6530 H   0  0  0  0  0  0  0  0  0  0  0  0
   39.0920   30.1530   49.7990 H   0  0  0  0  0  0  0  0  0  0  0  0
   37.6410   28.5360   48.7370 H   0  0  0  0  0  0  0  0  0  0  0  0
   33.2980   29.9880   49.2950 C   0  0  0  0  0  0  0  0  0  0  0  0
   33.3870   30.1920   50.3850 H   0  0  0  0  0  0  0  0  0  0  0  0
   32.3440   29.4490   49.1190 H   0  0  0  0  0  0  0  0  0  0  0  0
   33.2960   30.9380   48.7140 H   0  0  0  0  0  0  0  0  0  0  0  0
   34.0780   28.1520   47.7980 C   0  0  0  0  0  0  0  0  0  0  0  0
   34.5250   28.5640   46.8540 H   0  0  0  0  0  0  0  0  0  0  0  0
   34.5910   27.1940   47.9750 H   0  0  0  0  0  0  0  0  0  0  0  0
   32.6070   28.0280   47.6190 C   0  0  0  0  0  0  0  0  0  0  0  0
   32.1350   26.6320   48.0710 C   0  0  0  0  0  0  0  0  0  0  0  0
   30.6620   26.7740   48.3860 C   0  0  0  0  0  0  0  0  0  0  0  0
   30.0330   27.6650   47.3590 C   0  0  0  0  0  0  0  0  0  0  0  0
   30.7320   27.6110   46.0350 C   0  0  0  0  0  0  0  0  0  0  0  0
   32.1350   28.2000   46.2010 C   0  0  0  0  0  0  0  0  0  0  0  0
   37.7870   31.8190   49.6180 C   0  0  0  0  0  0  0  0  0  0  0  0
   36.8040   32.3220   50.2360 O   0  0  0  0  0  0  0  0  0  0  0  0
   38.6170   32.5680   48.7090 C   0  0  0  0  0  0  0  0  0  0  0  0
   39.1400   33.7670   49.1670 C   0  0  0  0  0  0  0  0  0  0  0  0
   39.9550   34.5120   48.2850 C   0  0  0  0  0  0  0  0  0  0  0  0
   40.1740   34.0040   47.0440 N   0  0  0  0  0  0  0  0  0  0  0  0
   39.6520   32.8360   46.6260 C   0  0  0  0  0  0  0  0  0  0  0  0
   38.8730   32.1250   47.4710 N   0  0  0  0  0  0  0  0  0  0  0  0
   38.9300   34.1160   50.1630 H   0  0  0  0  0  0  0  0  0  0  0  0
   40.3860   35.4600   48.6060 H   0  0  0  0  0  0  0  0  0  0  0  0
   39.8260   32.4320   45.6370 H   0  0  0  0  0  0  0  0  0  0  0  0
  1 17  1  6  0  0  0
  1 13  1  0  0  0  0
  1  2  1  0  0  0  0
  2  3  1  0  0  0  0
  2  9  1  0  0  0  0
  3  4  1  0  0  0  0
  4  5  2  0  0  0  0
  6 11  1  6  0  0  0
  6  4  1  0  0  0  0
  7 12  1  6  0  0  0
  7  6  1  0  0  0  0
  7  3  1  0  0  0  0
  8  1  1  0  0  0  0
  8  7  1  0  0  0  0
 10  2  1  0  0  0  0
 13 14  1  0  0  0  0
 15 13  1  0  0  0  0
 16 13  1  0  0  0  0
 17 19  1  0  0  0  0
 18 17  1  0  0  0  0
 20 17  1  0  0  0  0
 20 21  1  0  0  0  0
 21 22  1  0  0  0  0
 23 22  1  0  0  0  0
 24 25  1  0  0  0  0
 24 23  1  0  0  0  0
 25 20  1  0  0  0  0
 26  6  1  0  0  0  0
 26 27  2  0  0  0  0
 28 29  1  0  0  0  0
 28 26  1  0  0  0  0
 29 34  1  0  0  0  0
 30 35  1  0  0  0  0
 30 29  2  0  0  0  0
 31 30  1  0  0  0  0
 32 31  2  0  0  0  0
 32 33  1  0  0  0  0
 33 28  2  0  0  0  0
 36 32  1  0  0  0  0
M  END
>  <minimizedAffinity>
-5.22332382

>  <minimizedRMSD>
1.90852499

$$$$
