
 OpenBabel03262521433D

 27 29  0  0  1  0  0  0  0  0999 V2000
   37.7880   24.1850   36.9130 C   0  0  1  0  0  0  0  0  0  0  0  0
   38.2570   22.7310   36.8330 C   0  0  2  0  0  0  0  0  0  0  0  0
   39.4490   22.8860   37.7380 C   0  0  0  0  0  0  0  0  0  0  0  0
   39.0070   23.6460   38.8130 O   0  0  0  0  0  0  0  0  0  0  0  0
   37.9090   24.3670   38.4320 C   0  0  0  0  0  0  0  0  0  0  0  0
   36.7320   24.2980   36.6020 H   0  0  0  0  0  0  0  0  0  0  0  0
   37.4620   22.1460   37.2950 H   0  0  0  0  0  0  0  0  0  0  0  0
   40.3320   23.2930   37.2450 H   0  0  0  0  0  0  0  0  0  0  0  0
   39.6620   21.8750   38.1730 H   0  0  0  0  0  0  0  0  0  0  0  0
   38.0980   25.4390   38.6620 H   0  0  0  0  0  0  0  0  0  0  0  0
   36.9700   24.0810   38.9450 H   0  0  0  0  0  0  0  0  0  0  0  0
   38.5800   22.3180   35.4620 C   0  0  0  0  0  0  0  0  0  0  0  0
   39.9180   22.2510   35.0490 C   0  0  0  0  0  0  0  0  0  0  0  0
   40.1630   21.8730   33.7260 C   0  0  0  0  0  0  0  0  0  0  0  0
   39.0950   21.5920   32.9170 N   0  0  0  0  0  0  0  0  0  0  0  0
   37.8000   21.6670   33.3540 C   0  0  0  0  0  0  0  0  0  0  0  0
   37.5590   22.0330   34.6360 N   0  0  0  0  0  0  0  0  0  0  0  0
   40.7150   22.4800   35.7160 H   0  0  0  0  0  0  0  0  0  0  0  0
   41.1680   21.7980   33.3330 H   0  0  0  0  0  0  0  0  0  0  0  0
   37.0210   21.4270   32.6440 H   0  0  0  0  0  0  0  0  0  0  0  0
   38.6630   25.0540   36.3380 O   0  0  0  0  0  0  0  0  0  0  0  0
   37.9170   26.0600   35.7230 C   0  0  0  0  0  3  0  0  0  0  0  0
   38.7120   27.3500   35.6350 C   0  0  0  0  0  2  0  0  0  0  0  0
   40.0150   27.0100   34.9440 C   0  0  0  0  0  2  0  0  0  0  0  0
   39.6790   26.5980   33.5330 C   0  0  0  0  0  2  0  0  0  0  0  0
   38.7150   25.4610   33.4630 C   0  0  0  0  0  2  0  0  0  0  0  0
   37.4960   25.7190   34.3280 C   0  0  0  0  0  2  0  0  0  0  0  0
  1  6  1  6  0  0  0
  1  5  1  0  0  0  0
  2  1  1  0  0  0  0
  2  7  1  1  0  0  0
  2  3  1  0  0  0  0
  3  9  1  0  0  0  0
  3  4  1  0  0  0  0
  5 10  1  0  0  0  0
  5  4  1  0  0  0  0
  5 11  1  0  0  0  0
  8  3  1  0  0  0  0
 12  2  1  0  0  0  0
 13 12  1  0  0  0  0
 13 18  1  0  0  0  0
 14 13  2  0  0  0  0
 15 16  2  0  0  0  0
 15 14  1  0  0  0  0
 16 17  1  0  0  0  0
 17 12  2  0  0  0  0
 19 14  1  0  0  0  0
 20 16  1  0  0  0  0
 21  1  1  0  0  0  0
 22 21  1  0  0  0  0
 23 22  1  0  0  0  0
 24 23  1  0  0  0  0
 25 24  1  0  0  0  0
 26 25  1  0  0  0  0
 26 27  1  0  0  0  0
 27 22  1  0  0  0  0
M  END
>  <minimizedAffinity>
-4.79266405

$$$$

 OpenBabel03262521433D

 27 29  0  0  1  0  0  0  0  0999 V2000
   39.1190   23.5620   33.5320 C   0  0  1  0  0  0  0  0  0  0  0  0
   38.7630   22.3660   34.4160 C   0  0  2  0  0  0  0  0  0  0  0  0
   37.3710   22.1650   33.8800 C   0  0  0  0  0  0  0  0  0  0  0  0
   37.4800   22.2830   32.5010 O   0  0  0  0  0  0  0  0  0  0  0  0
   38.6000   23.0070   32.1990 C   0  0  0  0  0  0  0  0  0  0  0  0
   40.2120   23.7260   33.4740 H   0  0  0  0  0  0  0  0  0  0  0  0
   39.4410   21.5690   34.1100 H   0  0  0  0  0  0  0  0  0  0  0  0
   36.6260   22.8280   34.3200 H   0  0  0  0  0  0  0  0  0  0  0  0
   37.1060   21.0910   34.0550 H   0  0  0  0  0  0  0  0  0  0  0  0
   38.3020   23.8500   31.5370 H   0  0  0  0  0  0  0  0  0  0  0  0
   39.3880   22.4360   31.6690 H   0  0  0  0  0  0  0  0  0  0  0  0
   38.8270   22.6850   35.8470 C   0  0  0  0  0  0  0  0  0  0  0  0
   40.0440   22.5770   36.5340 C   0  0  0  0  0  0  0  0  0  0  0  0
   40.0390   22.8730   37.9000 C   0  0  0  0  0  0  0  0  0  0  0  0
   38.8590   23.2460   38.4840 N   0  0  0  0  0  0  0  0  0  0  0  0
   37.6870   23.3410   37.7830 C   0  0  0  0  0  0  0  0  0  0  0  0
   37.6880   23.0560   36.4580 N   0  0  0  0  0  0  0  0  0  0  0  0
   40.9370   22.2830   36.0340 H   0  0  0  0  0  0  0  0  0  0  0  0
   40.9390   22.8130   38.4980 H   0  0  0  0  0  0  0  0  0  0  0  0
   36.8040   23.6440   38.3280 H   0  0  0  0  0  0  0  0  0  0  0  0
   38.3770   24.6670   33.8160 O   0  0  0  0  0  0  0  0  0  0  0  0
   39.2160   25.7780   33.7130 C   0  0  0  0  0  3  0  0  0  0  0  0
   38.4850   26.9580   33.1020 C   0  0  0  0  0  2  0  0  0  0  0  0
   37.2400   27.1750   33.9370 C   0  0  0  0  0  2  0  0  0  0  0  0
   37.6920   27.5960   35.3130 C   0  0  0  0  0  2  0  0  0  0  0  0
   38.6130   26.6150   35.9570 C   0  0  0  0  0  2  0  0  0  0  0  0
   39.7540   26.2400   35.0310 C   0  0  0  0  0  2  0  0  0  0  0  0
  1  6  1  6  0  0  0
  1 21  1  0  0  0  0
  1  2  1  0  0  0  0
  2  7  1  6  0  0  0
  2 12  1  0  0  0  0
  3  9  1  0  0  0  0
  3  8  1  0  0  0  0
  3  2  1  0  0  0  0
  4  3  1  0  0  0  0
  5  4  1  0  0  0  0
  5  1  1  0  0  0  0
 10  5  1  0  0  0  0
 11  5  1  0  0  0  0
 12 17  2  0  0  0  0
 12 13  1  0  0  0  0
 13 14  2  0  0  0  0
 14 15  1  0  0  0  0
 14 19  1  0  0  0  0
 16 20  1  0  0  0  0
 16 15  2  0  0  0  0
 17 16  1  0  0  0  0
 18 13  1  0  0  0  0
 22 21  1  0  0  0  0
 22 27  1  0  0  0  0
 23 22  1  0  0  0  0
 23 24  1  0  0  0  0
 24 25  1  0  0  0  0
 25 26  1  0  0  0  0
 27 26  1  0  0  0  0
M  END
>  <minimizedAffinity>
-4.71444559

$$$$

 OpenBabel03262521433D

 27 29  0  0  1  0  0  0  0  0999 V2000
   38.1190   23.7750   36.4930 C   0  0  1  0  0  0  0  0  0  0  0  0
   38.6030   22.3830   36.0820 C   0  0  2  0  0  0  0  0  0  0  0  0
   39.8950   22.4170   36.8520 C   0  0  0  0  0  0  0  0  0  0  0  0
   39.5760   22.9430   38.0960 O   0  0  0  0  0  0  0  0  0  0  0  0
   38.4250   23.6750   37.9930 C   0  0  0  0  0  0  0  0  0  0  0  0
   37.0300   23.8990   36.3370 H   0  0  0  0  0  0  0  0  0  0  0  0
   37.8840   21.6880   36.5150 H   0  0  0  0  0  0  0  0  0  0  0  0
   40.7010   22.9470   36.3430 H   0  0  0  0  0  0  0  0  0  0  0  0
   40.1810   21.3530   37.0560 H   0  0  0  0  0  0  0  0  0  0  0  0
   38.6200   24.6910   38.4000 H   0  0  0  0  0  0  0  0  0  0  0  0
   37.5640   23.2570   38.5510 H   0  0  0  0  0  0  0  0  0  0  0  0
   38.7600   22.2490   34.6280 C   0  0  0  0  0  0  0  0  0  0  0  0
   37.6300   22.0920   33.8150 C   0  0  0  0  0  0  0  0  0  0  0  0
   37.8430   21.9470   32.4400 C   0  0  0  0  0  0  0  0  0  0  0  0
   39.1290   21.9650   31.9730 N   0  0  0  0  0  0  0  0  0  0  0  0
   40.2110   22.1200   32.7970 C   0  0  0  0  0  0  0  0  0  0  0  0
   40.0080   22.2620   34.1290 N   0  0  0  0  0  0  0  0  0  0  0  0
   36.6480   22.0840   34.2260 H   0  0  0  0  0  0  0  0  0  0  0  0
   37.0220   21.8220   31.7480 H   0  0  0  0  0  0  0  0  0  0  0  0
   41.1900   22.1220   32.3380 H   0  0  0  0  0  0  0  0  0  0  0  0
   38.8980   24.7730   35.9950 O   0  0  0  0  0  0  0  0  0  0  0  0
   38.0610   25.8430   35.6740 C   0  0  0  0  0  3  0  0  0  0  0  0
   38.8040   27.1620   35.7670 C   0  0  0  0  0  2  0  0  0  0  0  0
   40.0330   27.0300   34.8920 C   0  0  0  0  0  2  0  0  0  0  0  0
   39.5550   26.8880   33.4690 C   0  0  0  0  0  2  0  0  0  0  0  0
   38.6220   25.7410   33.2710 C   0  0  0  0  0  2  0  0  0  0  0  0
   37.4990   25.7630   34.2890 C   0  0  0  0  0  2  0  0  0  0  0  0
  1  6  1  6  0  0  0
  1  5  1  0  0  0  0
  2  1  1  0  0  0  0
  2  7  1  1  0  0  0
  2  3  1  0  0  0  0
  3  9  1  0  0  0  0
  3  4  1  0  0  0  0
  5  4  1  0  0  0  0
  5 10  1  0  0  0  0
  5 11  1  0  0  0  0
  8  3  1  0  0  0  0
 12  2  1  0  0  0  0
 13 18  1  0  0  0  0
 13 12  2  0  0  0  0
 14 13  1  0  0  0  0
 15 14  2  0  0  0  0
 15 16  1  0  0  0  0
 16 17  2  0  0  0  0
 17 12  1  0  0  0  0
 19 14  1  0  0  0  0
 20 16  1  0  0  0  0
 21  1  1  0  0  0  0
 22 23  1  0  0  0  0
 22 21  1  0  0  0  0
 24 23  1  0  0  0  0
 25 24  1  0  0  0  0
 26 25  1  0  0  0  0
 26 27  1  0  0  0  0
 27 22  1  0  0  0  0
M  END
>  <minimizedAffinity>
-4.51282024

$$$$

 OpenBabel03262521433D

 27 29  0  0  1  0  0  0  0  0999 V2000
   37.8840   26.8030   31.9040 C   0  0  1  0  0  0  0  0  0  0  0  0
   36.8590   26.1850   30.9520 C   0  0  2  0  0  0  0  0  0  0  0  0
   35.6500   26.8620   31.5390 C   0  0  0  0  0  0  0  0  0  0  0  0
   36.0250   28.1830   31.7470 O   0  0  0  0  0  0  0  0  0  0  0  0
   37.3870   28.2530   31.8440 C   0  0  0  0  0  0  0  0  0  0  0  0
   38.9140   26.7390   31.5040 H   0  0  0  0  0  0  0  0  0  0  0  0
   37.1100   26.5740   29.9650 H   0  0  0  0  0  0  0  0  0  0  0  0
   35.2550   26.3720   32.4290 H   0  0  0  0  0  0  0  0  0  0  0  0
   34.8770   26.9090   30.7290 H   0  0  0  0  0  0  0  0  0  0  0  0
   37.6440   28.7720   32.7930 H   0  0  0  0  0  0  0  0  0  0  0  0
   37.8790   28.8110   31.0220 H   0  0  0  0  0  0  0  0  0  0  0  0
   36.8340   24.7190   31.0250 C   0  0  0  0  0  0  0  0  0  0  0  0
   35.6830   24.0610   31.4790 C   0  0  0  0  0  0  0  0  0  0  0  0
   35.7250   22.6650   31.5470 C   0  0  0  0  0  0  0  0  0  0  0  0
   36.8770   22.0270   31.1720 N   0  0  0  0  0  0  0  0  0  0  0  0
   37.9840   22.7010   30.7320 C   0  0  0  0  0  0  0  0  0  0  0  0
   37.9460   24.0540   30.6640 N   0  0  0  0  0  0  0  0  0  0  0  0
   34.8110   24.6030   31.7600 H   0  0  0  0  0  0  0  0  0  0  0  0
   34.8770   22.0870   31.8870 H   0  0  0  0  0  0  0  0  0  0  0  0
   38.8480   22.1130   30.4570 H   0  0  0  0  0  0  0  0  0  0  0  0
   37.7300   26.3830   33.1890 O   0  0  0  0  0  0  0  0  0  0  0  0
   39.0000   26.1110   33.7010 C   0  0  0  0  0  3  0  0  0  0  0  0
   39.3240   27.0250   34.8680 C   0  0  0  0  0  2  0  0  0  0  0  0
   38.1910   26.8750   35.8620 C   0  0  0  0  0  2  0  0  0  0  0  0
   38.2340   25.4590   36.3790 C   0  0  0  0  0  2  0  0  0  0  0  0
   38.1480   24.4330   35.3000 C   0  0  0  0  0  2  0  0  0  0  0  0
   39.1520   24.7080   34.1970 C   0  0  0  0  0  2  0  0  0  0  0  0
  1  6  1  6  0  0  0
  1 21  1  0  0  0  0
  2  7  1  6  0  0  0
  2 12  1  0  0  0  0
  2  3  1  0  0  0  0
  2  1  1  0  0  0  0
  3  4  1  0  0  0  0
  3  8  1  0  0  0  0
  4  5  1  0  0  0  0
  5  1  1  0  0  0  0
  5 10  1  0  0  0  0
  9  3  1  0  0  0  0
 11  5  1  0  0  0  0
 12 13  1  0  0  0  0
 13 14  2  0  0  0  0
 13 18  1  0  0  0  0
 14 19  1  0  0  0  0
 15 14  1  0  0  0  0
 16 15  2  0  0  0  0
 17 16  1  0  0  0  0
 17 12  2  0  0  0  0
 20 16  1  0  0  0  0
 21 22  1  0  0  0  0
 22 27  1  0  0  0  0
 22 23  1  0  0  0  0
 23 24  1  0  0  0  0
 24 25  1  0  0  0  0
 26 25  1  0  0  0  0
 27 26  1  0  0  0  0
M  END
>  <minimizedAffinity>
-4.42245007

$$$$

 OpenBabel03262521433D

 27 29  0  0  1  0  0  0  0  0999 V2000
   38.4330   23.2400   36.2690 C   0  0  1  0  0  0  0  0  0  0  0  0
   39.5870   22.3650   36.7600 C   0  0  2  0  0  0  0  0  0  0  0  0
   39.7220   23.0050   38.1160 C   0  0  0  0  0  0  0  0  0  0  0  0
   38.4260   23.1580   38.5880 O   0  0  0  0  0  0  0  0  0  0  0  0
   37.5610   23.1730   37.5300 C   0  0  0  0  0  0  0  0  0  0  0  0
   37.8990   22.7820   35.4150 H   0  0  0  0  0  0  0  0  0  0  0  0
   39.1800   21.3560   36.8200 H   0  0  0  0  0  0  0  0  0  0  0  0
   40.3020   23.9280   38.1150 H   0  0  0  0  0  0  0  0  0  0  0  0
   40.1840   22.2410   38.7920 H   0  0  0  0  0  0  0  0  0  0  0  0
   36.9390   24.0930   37.6000 H   0  0  0  0  0  0  0  0  0  0  0  0
   36.8660   22.3100   37.4900 H   0  0  0  0  0  0  0  0  0  0  0  0
   40.7790   22.4760   35.9100 C   0  0  0  0  0  0  0  0  0  0  0  0
   41.9410   23.0780   36.4120 C   0  0  0  0  0  0  0  0  0  0  0  0
   43.0380   23.1740   35.5490 C   0  0  0  0  0  0  0  0  0  0  0  0
   42.9150   22.6820   34.2780 N   0  0  0  0  0  0  0  0  0  0  0  0
   41.7640   22.1000   33.8210 C   0  0  0  0  0  0  0  0  0  0  0  0
   40.7000   22.0040   34.6540 N   0  0  0  0  0  0  0  0  0  0  0  0
   41.9880   23.4460   37.4090 H   0  0  0  0  0  0  0  0  0  0  0  0
   43.9700   23.6250   35.8630 H   0  0  0  0  0  0  0  0  0  0  0  0
   41.7590   21.7390   32.8020 H   0  0  0  0  0  0  0  0  0  0  0  0
   38.7910   24.5420   36.1040 O   0  0  0  0  0  0  0  0  0  0  0  0
   38.1260   25.0240   34.9760 C   0  0  0  0  0  3  0  0  0  0  0  0
   37.7880   26.4950   35.1300 C   0  0  0  0  0  2  0  0  0  0  0  0
   39.0840   27.2060   35.4570 C   0  0  0  0  0  2  0  0  0  0  0  0
   39.9800   27.0800   34.2500 C   0  0  0  0  0  2  0  0  0  0  0  0
   40.2240   25.6660   33.8410 C   0  0  0  0  0  2  0  0  0  0  0  0
   38.9230   24.8970   33.7160 C   0  0  0  0  0  2  0  0  0  0  0  0
  1  6  1  6  0  0  0
  1  2  1  0  0  0  0
  1  5  1  0  0  0  0
  2  7  1  1  0  0  0
  2  3  1  0  0  0  0
  3  4  1  0  0  0  0
  3  9  1  0  0  0  0
  5 10  1  0  0  0  0
  5  4  1  0  0  0  0
  8  3  1  0  0  0  0
 11  5  1  0  0  0  0
 12 13  1  0  0  0  0
 12  2  1  0  0  0  0
 13 18  1  0  0  0  0
 14 19  1  0  0  0  0
 14 13  2  0  0  0  0
 15 14  1  0  0  0  0
 16 15  2  0  0  0  0
 16 17  1  0  0  0  0
 17 12  2  0  0  0  0
 20 16  1  0  0  0  0
 21  1  1  0  0  0  0
 22 23  1  0  0  0  0
 22 21  1  0  0  0  0
 23 24  1  0  0  0  0
 25 24  1  0  0  0  0
 26 25  1  0  0  0  0
 27 26  1  0  0  0  0
 27 22  1  0  0  0  0
M  END
>  <minimizedAffinity>
-4.3064599

$$$$

 OpenBabel03262521433D

 27 29  0  0  1  0  0  0  0  0999 V2000
   40.8300   24.1650   34.0640 C   0  0  1  0  0  0  0  0  0  0  0  0
   40.7160   25.6470   33.7040 C   0  0  2  0  0  0  0  0  0  0  0  0
   41.9260   26.1040   34.4720 C   0  0  0  0  0  0  0  0  0  0  0  0
   42.9170   25.1710   34.2000 O   0  0  0  0  0  0  0  0  0  0  0  0
   42.3340   23.9970   33.8100 C   0  0  0  0  0  0  0  0  0  0  0  0
   40.2550   23.5230   33.3700 H   0  0  0  0  0  0  0  0  0  0  0  0
   40.8710   25.6950   32.6260 H   0  0  0  0  0  0  0  0  0  0  0  0
   41.7450   26.2560   35.5370 H   0  0  0  0  0  0  0  0  0  0  0  0
   42.2830   27.0490   33.9870 H   0  0  0  0  0  0  0  0  0  0  0  0
   42.7290   23.1800   34.4530 H   0  0  0  0  0  0  0  0  0  0  0  0
   42.5330   23.7120   32.7580 H   0  0  0  0  0  0  0  0  0  0  0  0
   39.4490   26.2400   34.1500 C   0  0  0  0  0  0  0  0  0  0  0  0
   38.2880   26.0620   33.3860 C   0  0  0  0  0  0  0  0  0  0  0  0
   37.1150   26.6670   33.8490 C   0  0  0  0  0  0  0  0  0  0  0  0
   37.1680   27.3920   35.0090 N   0  0  0  0  0  0  0  0  0  0  0  0
   38.3210   27.5450   35.7310 C   0  0  0  0  0  0  0  0  0  0  0  0
   39.4590   26.9590   35.2850 N   0  0  0  0  0  0  0  0  0  0  0  0
   38.2970   25.4890   32.4890 H   0  0  0  0  0  0  0  0  0  0  0  0
   36.1790   26.5760   33.3150 H   0  0  0  0  0  0  0  0  0  0  0  0
   38.2680   28.1350   36.6350 H   0  0  0  0  0  0  0  0  0  0  0  0
   40.6220   23.9270   35.3880 O   0  0  0  0  0  0  0  0  0  0  0  0
   39.8070   22.7990   35.4910 C   0  0  0  0  0  3  0  0  0  0  0  0
   40.2230   21.9330   36.6660 C   0  0  0  0  0  2  0  0  0  0  0  0
   40.2270   22.8300   37.8850 C   0  0  0  0  0  2  0  0  0  0  0  0
   38.8020   23.2580   38.1310 C   0  0  0  0  0  2  0  0  0  0  0  0
   38.1800   23.9390   36.9590 C   0  0  0  0  0  2  0  0  0  0  0  0
   38.3610   23.1270   35.6900 C   0  0  0  0  0  2  0  0  0  0  0  0
  1  6  1  6  0  0  0
  1 21  1  0  0  0  0
  2  7  1  6  0  0  0
  2  1  1  0  0  0  0
  2 12  1  0  0  0  0
  2  3  1  0  0  0  0
  3  8  1  0  0  0  0
  4  3  1  0  0  0  0
  5  1  1  0  0  0  0
  5  4  1  0  0  0  0
  5 10  1  0  0  0  0
  9  3  1  0  0  0  0
 11  5  1  0  0  0  0
 12 17  1  0  0  0  0
 13 14  1  0  0  0  0
 13 12  2  0  0  0  0
 14 15  2  0  0  0  0
 15 16  1  0  0  0  0
 16 20  1  0  0  0  0
 17 16  2  0  0  0  0
 18 13  1  0  0  0  0
 19 14  1  0  0  0  0
 21 22  1  0  0  0  0
 22 27  1  0  0  0  0
 22 23  1  0  0  0  0
 23 24  1  0  0  0  0
 24 25  1  0  0  0  0
 26 25  1  0  0  0  0
 27 26  1  0  0  0  0
M  END
>  <minimizedAffinity>
-4.30229568

$$$$

 OpenBabel03262521433D

 27 29  0  0  1  0  0  0  0  0999 V2000
   37.3790   25.8430   33.3920 C   0  0  1  0  0  0  0  0  0  0  0  0
   38.3690   26.2200   34.4960 C   0  0  2  0  0  0  0  0  0  0  0  0
   39.5030   26.6030   33.5850 C   0  0  0  0  0  0  0  0  0  0  0  0
   38.9310   27.3610   32.5720 O   0  0  0  0  0  0  0  0  0  0  0  0
   37.6010   27.0570   32.4800 C   0  0  0  0  0  0  0  0  0  0  0  0
   36.3350   25.8300   33.7570 H   0  0  0  0  0  0  0  0  0  0  0  0
   37.9300   27.0850   34.9940 H   0  0  0  0  0  0  0  0  0  0  0  0
   40.0890   25.7570   33.2240 H   0  0  0  0  0  0  0  0  0  0  0  0
   40.1470   27.3240   34.1520 H   0  0  0  0  0  0  0  0  0  0  0  0
   37.3800   26.7750   31.4270 H   0  0  0  0  0  0  0  0  0  0  0  0
   36.9190   27.8880   32.7470 H   0  0  0  0  0  0  0  0  0  0  0  0
   38.6610   25.0990   35.3980 C   0  0  0  0  0  0  0  0  0  0  0  0
   37.7270   24.7260   36.3740 C   0  0  0  0  0  0  0  0  0  0  0  0
   38.0690   23.6650   37.2180 C   0  0  0  0  0  0  0  0  0  0  0  0
   39.2840   23.0580   37.0460 N   0  0  0  0  0  0  0  0  0  0  0  0
   40.1730   23.4490   36.0810 C   0  0  0  0  0  0  0  0  0  0  0  0
   39.8440   24.4760   35.2610 N   0  0  0  0  0  0  0  0  0  0  0  0
   36.7940   25.2290   36.4680 H   0  0  0  0  0  0  0  0  0  0  0  0
   37.4010   23.3180   37.9950 H   0  0  0  0  0  0  0  0  0  0  0  0
   41.1080   22.9100   36.0190 H   0  0  0  0  0  0  0  0  0  0  0  0
   37.7670   24.7430   32.6900 O   0  0  0  0  0  0  0  0  0  0  0  0
   37.0510   24.7330   31.4920 C   0  0  0  0  0  3  0  0  0  0  0  0
   37.8460   24.0600   30.3890 C   0  0  0  0  0  2  0  0  0  0  0  0
   38.2380   22.6930   30.9090 C   0  0  0  0  0  2  0  0  0  0  0  0
   36.9670   21.9010   31.0870 C   0  0  0  0  0  2  0  0  0  0  0  0
   35.9810   22.5630   31.9900 C   0  0  0  0  0  2  0  0  0  0  0  0
   35.7460   24.0060   31.5860 C   0  0  0  0  0  2  0  0  0  0  0  0
  1  6  1  1  0  0  0
  1  2  1  0  0  0  0
  2  7  1  1  0  0  0
  2 12  1  0  0  0  0
  3  9  1  0  0  0  0
  3  2  1  0  0  0  0
  4  3  1  0  0  0  0
  5  4  1  0  0  0  0
  5 11  1  0  0  0  0
  5  1  1  0  0  0  0
  8  3  1  0  0  0  0
 10  5  1  0  0  0  0
 12 13  1  0  0  0  0
 13 18  1  0  0  0  0
 13 14  2  0  0  0  0
 14 19  1  0  0  0  0
 15 14  1  0  0  0  0
 16 15  2  0  0  0  0
 17 12  2  0  0  0  0
 17 16  1  0  0  0  0
 20 16  1  0  0  0  0
 21  1  1  0  0  0  0
 22 27  1  0  0  0  0
 22 21  1  0  0  0  0
 23 24  1  0  0  0  0
 23 22  1  0  0  0  0
 24 25  1  0  0  0  0
 25 26  1  0  0  0  0
 27 26  1  0  0  0  0
M  END
>  <minimizedAffinity>
-4.27869511

$$$$

 OpenBabel03262521433D

 27 29  0  0  1  0  0  0  0  0999 V2000
   38.4820   24.5680   32.2150 C   0  0  1  0  0  0  0  0  0  0  0  0
   38.6330   23.1420   32.7450 C   0  0  2  0  0  0  0  0  0  0  0  0
   37.1780   22.7690   32.6500 C   0  0  0  0  0  0  0  0  0  0  0  0
   36.7490   23.2460   31.4190 O   0  0  0  0  0  0  0  0  0  0  0  0
   37.5760   24.2580   31.0160 C   0  0  0  0  0  0  0  0  0  0  0  0
   39.4450   24.9850   31.8630 H   0  0  0  0  0  0  0  0  0  0  0  0
   39.2400   22.6210   32.0040 H   0  0  0  0  0  0  0  0  0  0  0  0
   36.5760   23.1150   33.4910 H   0  0  0  0  0  0  0  0  0  0  0  0
   37.1330   21.6540   32.5560 H   0  0  0  0  0  0  0  0  0  0  0  0
   36.9510   25.1480   30.7840 H   0  0  0  0  0  0  0  0  0  0  0  0
   38.1730   24.0310   30.1110 H   0  0  0  0  0  0  0  0  0  0  0  0
   39.1880   23.1010   34.1040 C   0  0  0  0  0  0  0  0  0  0  0  0
   38.3570   22.7910   35.1890 C   0  0  0  0  0  0  0  0  0  0  0  0
   38.9360   22.7890   36.4610 C   0  0  0  0  0  0  0  0  0  0  0  0
   40.2670   23.0870   36.5740 N   0  0  0  0  0  0  0  0  0  0  0  0
   41.0500   23.3860   35.4920 C   0  0  0  0  0  0  0  0  0  0  0  0
   40.4920   23.3880   34.2570 N   0  0  0  0  0  0  0  0  0  0  0  0
   37.3260   22.5650   35.0500 H   0  0  0  0  0  0  0  0  0  0  0  0
   38.3600   22.5590   37.3470 H   0  0  0  0  0  0  0  0  0  0  0  0
   42.0920   23.6090   35.6770 H   0  0  0  0  0  0  0  0  0  0  0  0
   37.7710   25.3700   33.0530 O   0  0  0  0  0  0  0  0  0  0  0  0
   38.2280   26.6770   32.8770 C   0  0  0  0  0  3  0  0  0  0  0  0
   37.2210   27.6810   33.4080 C   0  0  0  0  0  2  0  0  0  0  0  0
   36.9380   27.2930   34.8440 C   0  0  0  0  0  2  0  0  0  0  0  0
   38.2150   27.4900   35.6210 C   0  0  0  0  0  2  0  0  0  0  0  0
   39.3670   26.7210   35.0680 C   0  0  0  0  0  2  0  0  0  0  0  0
   39.5210   26.9540   33.5780 C   0  0  0  0  0  2  0  0  0  0  0  0
  1  6  1  6  0  0  0
  1  2  1  0  0  0  0
  1 21  1  0  0  0  0
  2  7  1  6  0  0  0
  2 12  1  0  0  0  0
  3  2  1  0  0  0  0
  3  8  1  0  0  0  0
  4  3  1  0  0  0  0
  5  4  1  0  0  0  0
  5  1  1  0  0  0  0
  9  3  1  0  0  0  0
 10  5  1  0  0  0  0
 11  5  1  0  0  0  0
 12 17  2  0  0  0  0
 12 13  1  0  0  0  0
 13 14  2  0  0  0  0
 14 15  1  0  0  0  0
 14 19  1  0  0  0  0
 16 20  1  0  0  0  0
 16 15  2  0  0  0  0
 17 16  1  0  0  0  0
 18 13  1  0  0  0  0
 22 21  1  0  0  0  0
 22 23  1  0  0  0  0
 22 27  1  0  0  0  0
 23 24  1  0  0  0  0
 24 25  1  0  0  0  0
 26 25  1  0  0  0  0
 27 26  1  0  0  0  0
M  END
>  <minimizedAffinity>
-4.23435354

$$$$

 OpenBabel03262521433D

 27 29  0  0  1  0  0  0  0  0999 V2000
   39.0000   26.1620   34.7080 C   0  0  1  0  0  0  0  0  0  0  0  0
   38.2680   26.8090   33.5310 C   0  0  2  0  0  0  0  0  0  0  0  0
   37.0930   27.3190   34.3210 C   0  0  0  0  0  0  0  0  0  0  0  0
   37.6300   27.8690   35.4770 O   0  0  0  0  0  0  0  0  0  0  0  0
   38.8580   27.3140   35.7100 C   0  0  0  0  0  0  0  0  0  0  0  0
   40.0700   25.9840   34.4850 H   0  0  0  0  0  0  0  0  0  0  0  0
   38.9190   27.6150   33.1940 H   0  0  0  0  0  0  0  0  0  0  0  0
   36.3230   26.5700   34.5060 H   0  0  0  0  0  0  0  0  0  0  0  0
   36.6760   28.1930   33.7570 H   0  0  0  0  0  0  0  0  0  0  0  0
   38.8670   26.9080   36.7460 H   0  0  0  0  0  0  0  0  0  0  0  0
   39.7060   28.0230   35.6280 H   0  0  0  0  0  0  0  0  0  0  0  0
   37.9250   25.8420   32.4810 C   0  0  0  0  0  0  0  0  0  0  0  0
   36.5890   25.4680   32.2840 C   0  0  0  0  0  0  0  0  0  0  0  0
   36.3250   24.5280   31.2840 C   0  0  0  0  0  0  0  0  0  0  0  0
   37.3760   24.0300   30.5610 N   0  0  0  0  0  0  0  0  0  0  0  0
   38.6700   24.4180   30.7790 C   0  0  0  0  0  0  0  0  0  0  0  0
   38.9290   25.3300   31.7480 N   0  0  0  0  0  0  0  0  0  0  0  0
   35.8050   25.8840   32.8730 H   0  0  0  0  0  0  0  0  0  0  0  0
   35.3200   24.1900   31.0720 H   0  0  0  0  0  0  0  0  0  0  0  0
   39.4350   23.9720   30.1590 H   0  0  0  0  0  0  0  0  0  0  0  0
   38.3280   25.0990   35.2270 O   0  0  0  0  0  0  0  0  0  0  0  0
   39.2660   24.1070   35.5210 C   0  0  0  0  0  3  0  0  0  0  0  0
   38.9290   23.4080   36.8240 C   0  0  0  0  0  2  0  0  0  0  0  0
   37.5020   22.9180   36.6960 C   0  0  0  0  0  2  0  0  0  0  0  0
   37.4850   21.8700   35.6120 C   0  0  0  0  0  2  0  0  0  0  0  0
   38.0080   22.3640   34.3050 C   0  0  0  0  0  2  0  0  0  0  0  0
   39.3530   23.0440   34.4720 C   0  0  0  0  0  2  0  0  0  0  0  0
  1  6  1  6  0  0  0
  1 21  1  0  0  0  0
  1  5  1  0  0  0  0
  2  7  1  6  0  0  0
  2  3  1  0  0  0  0
  2  1  1  0  0  0  0
  3  8  1  0  0  0  0
  3  4  1  0  0  0  0
  4  5  1  0  0  0  0
  5 10  1  0  0  0  0
  9  3  1  0  0  0  0
 11  5  1  0  0  0  0
 12  2  1  0  0  0  0
 13 12  1  0  0  0  0
 13 18  1  0  0  0  0
 14 13  2  0  0  0  0
 15 16  2  0  0  0  0
 15 14  1  0  0  0  0
 16 17  1  0  0  0  0
 17 12  2  0  0  0  0
 19 14  1  0  0  0  0
 20 16  1  0  0  0  0
 21 22  1  0  0  0  0
 22 23  1  0  0  0  0
 24 23  1  0  0  0  0
 25 24  1  0  0  0  0
 26 27  1  0  0  0  0
 26 25  1  0  0  0  0
 27 22  1  0  0  0  0
M  END
>  <minimizedAffinity>
-4.22742558

$$$$
