
 OpenBabel03272506393D

 34 36  0  0  1  0  0  0  0  0999 V2000
   35.4660   28.6690   50.0610 O   0  0  0  0  0  0  0  0  0  0  0  0
   35.2370   29.0660   48.9120 C   0  0  0  0  0  0  0  0  0  0  0  0
   35.9030   30.2270   48.3610 C   0  0  2  0  0  0  0  0  0  0  0  0
   35.4320   30.1610   46.8680 C   0  0  0  0  0  0  0  0  0  0  0  0
   34.1000   29.4680   46.9820 C   0  0  0  0  0  0  0  0  0  0  0  0
   34.3140   28.4480   48.0010 N   0  0  0  0  0  0  0  0  0  0  0  0
   35.5440   31.1940   48.7550 H   0  0  0  0  0  0  0  0  0  0  0  0
   35.3880   31.1630   46.4340 H   0  0  0  0  0  0  0  0  0  0  0  0
   36.1190   29.4740   46.3600 H   0  0  0  0  0  0  0  0  0  0  0  0
   33.7750   29.0290   46.0250 H   0  0  0  0  0  0  0  0  0  0  0  0
   33.3500   30.1660   47.4050 H   0  0  0  0  0  0  0  0  0  0  0  0
   33.7160   27.1210   48.0510 C   0  0  0  0  0  0  0  0  0  0  0  0
   33.8730   26.6410   49.0400 H   0  0  0  0  0  0  0  0  0  0  0  0
   34.2090   26.5210   47.2730 H   0  0  0  0  0  0  0  0  0  0  0  0
   32.2570   27.1770   47.7140 C   0  0  0  0  0  3  0  0  0  0  0  0
   31.8220   25.7480   47.3680 C   0  0  0  0  0  2  0  0  0  0  0  0
   30.4450   25.6940   46.7900 C   0  0  0  0  0  2  0  0  0  0  0  0
   29.6980   26.9480   47.1590 C   0  0  0  0  0  2  0  0  0  0  0  0
   29.9420   27.2640   48.6280 C   0  0  0  0  0  2  0  0  0  0  0  0
   31.3900   27.6010   48.8820 C   0  0  0  0  0  2  0  0  0  0  0  0
   37.3240   30.1250   48.3110 O   0  0  0  0  0  0  0  0  0  0  0  0
   38.0530   31.3110   48.2340 C   0  0  0  0  0  0  0  0  0  0  0  0
   38.2110   32.0200   49.4120 C   0  0  0  0  0  0  0  0  0  0  0  0
   38.9310   33.2060   49.3700 C   0  0  0  0  0  0  0  0  0  0  0  0
   39.4470   33.6170   48.1810 N   0  0  0  0  0  0  0  0  0  0  0  0
   39.2840   32.9190   47.0470 C   0  0  0  0  0  0  0  0  0  0  0  0
   38.5930   31.7820   47.0900 N   0  0  0  0  0  0  0  0  0  0  0  0
   40.7600   32.4520   45.2480 C   0  0  0  0  0  0  0  0  0  0  0  0
   41.1210   31.3350   45.7010 O   0  0  0  0  0  0  0  0  0  0  0  0
   39.8350   33.3780   45.8130 N   0  0  0  0  0  0  0  0  0  0  0  0
   37.8290   31.7470   50.3740 H   0  0  0  0  0  0  0  0  0  0  0  0
   39.0840   33.7920   50.2510 H   0  0  0  0  0  0  0  0  0  0  0  0
   41.3070   32.5670   44.3210 H   0  0  0  0  0  0  0  0  0  0  0  0
   39.6690   34.2580   45.2780 H   0  0  0  0  0  0  0  0  0  0  0  0
  2  1  2  0  0  0  0
  3  7  1  1  0  0  0
  3  2  1  0  0  0  0
  4  5  1  0  0  0  0
  4  3  1  0  0  0  0
  5 11  1  0  0  0  0
  5  6  1  0  0  0  0
  6 12  1  0  0  0  0
  6  2  1  0  0  0  0
  8  4  1  0  0  0  0
  9  4  1  0  0  0  0
 10  5  1  0  0  0  0
 12 13  1  0  0  0  0
 14 12  1  0  0  0  0
 15 12  1  0  0  0  0
 15 20  1  0  0  0  0
 16 15  1  0  0  0  0
 17 18  1  0  0  0  0
 17 16  1  0  0  0  0
 18 19  1  0  0  0  0
 19 20  1  0  0  0  0
 21  3  1  0  0  0  0
 22 21  1  0  0  0  0
 22 23  1  0  0  0  0
 23 31  1  0  0  0  0
 24 23  2  0  0  0  0
 24 32  1  0  0  0  0
 25 24  1  0  0  0  0
 26 27  1  0  0  0  0
 26 25  2  0  0  0  0
 27 22  2  0  0  0  0
 28 29  2  0  0  0  0
 28 30  1  0  0  0  0
 30 26  1  0  0  0  0
 33 28  1  0  0  0  0
 34 30  1  0  0  0  0
M  END
>  <minimizedAffinity>
-6.0269165

>  <minimizedRMSD>
1.057464

$$$$
