
 OpenBabel03272509183D

 30 32  0  0  0  0  0  0  0  0999 V2000
   37.1820   31.2620   46.4800 C   0  0  0  0  0  0  0  0  0  0  0  0
   37.3160   31.2360   47.8650 C   0  0  0  0  0  0  0  0  0  0  0  0
   38.4150   31.9600   48.3710 C   0  0  0  0  0  0  0  0  0  0  0  0
   39.2800   32.6390   47.4960 C   0  0  0  0  0  0  0  0  0  0  0  0
   39.0570   32.6010   46.1270 C   0  0  0  0  0  0  0  0  0  0  0  0
   37.9960   31.9040   45.6060 C   0  0  0  0  0  0  0  0  0  0  0  0
   38.5100   31.9360   49.4470 H   0  0  0  0  0  0  0  0  0  0  0  0
   40.0500   33.1300   48.0400 H   0  0  0  0  0  0  0  0  0  0  0  0
   39.8300   33.1800   45.6630 H   0  0  0  0  0  0  0  0  0  0  0  0
   35.1150   30.2490   48.3230 C   0  0  0  0  0  0  0  0  0  0  0  0
   36.4230   30.5390   48.7410 C   0  0  0  0  0  0  0  0  0  0  0  0
   36.8050   30.1270   50.0150 C   0  0  0  0  0  0  0  0  0  0  0  0
   35.8980   29.4700   50.7870 N   0  0  0  0  0  0  0  0  0  0  0  0
   34.6350   29.2080   50.3460 C   0  0  0  0  0  0  0  0  0  0  0  0
   34.2490   29.5970   49.1180 N   0  0  0  0  0  0  0  0  0  0  0  0
   34.8200   30.5690   47.3340 H   0  0  0  0  0  0  0  0  0  0  0  0
   33.9310   28.6830   50.9820 H   0  0  0  0  0  0  0  0  0  0  0  0
   38.1630   30.3990   50.5080 C   0  0  0  0  0  0  0  0  0  0  0  0
   38.4040   31.4760   50.3520 H   0  0  0  0  0  0  0  0  0  0  0  0
   38.1890   30.1850   51.5990 H   0  0  0  0  0  0  0  0  0  0  0  0
   38.9350   29.7370   50.0630 H   0  0  0  0  0  0  0  0  0  0  0  0
   36.1140   30.5650   45.9060 O   0  0  0  0  0  0  0  0  0  0  0  0
   35.2730   31.0150   45.5830 H   0  0  0  0  0  0  0  0  0  0  0  0
   37.8070   31.8930   44.2500 O   0  0  0  0  0  0  0  0  0  0  0  0
   38.2060   30.8900   43.3830 C   0  0  0  0  0  3  0  0  0  0  0  0
   39.4100   30.1210   43.8680 C   0  0  0  0  0  2  0  0  0  0  0  0
   40.6750   30.4620   43.1500 C   0  0  0  0  0  2  0  0  0  0  0  0
   40.5700   30.4220   41.6580 C   0  0  0  0  0  2  0  0  0  0  0  0
   39.1990   30.5910   41.1120 C   0  0  0  0  0  2  0  0  0  0  0  0
   38.4390   31.5040   42.0190 C   0  0  0  0  0  2  0  0  0  0  0  0
  1  2  1  0  0  0  0
  2  3  2  0  0  0  0
  2 11  1  0  0  0  0
  3  7  1  0  0  0  0
  4  8  1  0  0  0  0
  4  3  1  0  0  0  0
  5  4  2  0  0  0  0
  6  5  1  0  0  0  0
  6  1  2  0  0  0  0
  9  5  1  0  0  0  0
 10 11  2  0  0  0  0
 10 15  1  0  0  0  0
 11 12  1  0  0  0  0
 12 18  1  0  0  0  0
 12 13  2  0  0  0  0
 14 13  1  0  0  0  0
 14 17  1  0  0  0  0
 15 14  2  0  0  0  0
 16 10  1  0  0  0  0
 18 20  1  0  0  0  0
 19 18  1  0  0  0  0
 21 18  1  0  0  0  0
 22  1  1  0  0  0  0
 23 22  1  0  0  0  0
 24  6  1  0  0  0  0
 25 26  1  0  0  0  0
 25 24  1  0  0  0  0
 27 26  1  0  0  0  0
 28 27  1  0  0  0  0
 29 28  1  0  0  0  0
 29 30  1  0  0  0  0
 30 25  1  0  0  0  0
M  END
>  <minimizedAffinity>
-5.84845495

>  <minimizedRMSD>
3.28301048

$$$$
