
 OpenBabel03272503513D

 34 36  0  0  1  0  0  0  0  0999 V2000
   37.7400   24.7670   32.3180 C   0  0  1  0  0  0  0  0  0  0  0  0
   37.0790   26.0020   32.9690 C   0  0  2  0  0  0  0  0  0  0  0  0
   36.2990   26.4970   31.9710 O   0  0  0  0  0  0  0  0  0  0  0  0
   35.6570   25.3890   31.4460 C   0  0  0  0  0  0  0  0  0  0  0  0
   36.6070   24.2330   31.4930 C   0  0  2  0  0  0  0  0  0  0  0  0
   37.9680   24.0570   33.1270 H   0  0  0  0  0  0  0  0  0  0  0  0
   36.5420   25.6220   33.8760 H   0  0  0  0  0  0  0  0  0  0  0  0
   35.4450   25.6170   30.3770 H   0  0  0  0  0  0  0  0  0  0  0  0
   34.7450   25.2320   32.0550 H   0  0  0  0  0  0  0  0  0  0  0  0
   36.9230   23.9090   30.4820 H   0  0  0  0  0  0  0  0  0  0  0  0
   38.8540   25.1450   31.5950 O   0  0  0  0  0  0  0  0  0  0  0  0
   39.5670   24.4590   31.7530 H   0  0  0  0  0  0  0  0  0  0  0  0
   38.1230   26.7760   33.3850 O   0  0  0  0  0  0  0  0  0  0  0  0
   39.7490   26.9930   35.4530 O   0  0  0  0  0  0  0  0  0  0  0  0
   38.2850   26.8620   35.0580 P   0  0  1  0  0  0  0  0  0  0  0  0
   37.5460   28.2700   35.6400 O   0  0  0  0  0  0  0  0  0  0  0  0
   36.7260   28.4520   35.0990 H   0  0  0  0  0  0  0  0  0  0  0  0
   37.5270   25.4730   35.6970 O   0  0  0  0  0  0  0  0  0  0  0  0
   38.2100   24.5650   36.4890 C   0  0  0  0  0  0  0  0  0  0  0  0
   37.9910   24.3980   37.8740 C   0  0  0  0  0  0  0  0  0  0  0  0
   38.7500   23.4470   38.5420 C   0  0  0  0  0  0  0  0  0  0  0  0
   39.6660   22.7240   37.8340 N   0  0  0  0  0  0  0  0  0  0  0  0
   39.8580   22.9050   36.5010 C   0  0  0  0  0  0  0  0  0  0  0  0
   39.1220   23.8340   35.8250 N   0  0  0  0  0  0  0  0  0  0  0  0
   37.2390   25.0260   38.3330 H   0  0  0  0  0  0  0  0  0  0  0  0
   38.5880   23.3140   39.6020 H   0  0  0  0  0  0  0  0  0  0  0  0
   40.5990   22.3000   35.9960 H   0  0  0  0  0  0  0  0  0  0  0  0
   36.0210   23.1450   32.1420 O   0  0  0  0  0  0  0  0  0  0  0  0
   36.7090   21.9670   31.9400 C   0  0  0  0  0  3  0  0  0  0  0  0
   36.9530   21.2190   33.2360 C   0  0  0  0  0  2  0  0  0  0  0  0
   35.6530   20.5510   33.6540 C   0  0  0  0  0  2  0  0  0  0  0  0
   35.2580   19.4430   32.7250 C   0  0  0  0  0  2  0  0  0  0  0  0
   36.0930   19.5770   31.4640 C   0  0  0  0  0  2  0  0  0  0  0  0
   35.9350   21.0290   31.0330 C   0  0  0  0  0  2  0  0  0  0  0  0
  1  2  1  0  0  0  0
  1  6  1  1  0  0  0
  2 13  1  0  0  0  0
  2  7  1  1  0  0  0
  3  2  1  0  0  0  0
  4  5  1  0  0  0  0
  4  3  1  0  0  0  0
  4  9  1  0  0  0  0
  5 10  1  6  0  0  0
  5 28  1  0  0  0  0
  5  1  1  0  0  0  0
  8  4  1  0  0  0  0
 11 12  1  0  0  0  0
 11  1  1  0  0  0  0
 13 15  1  0  0  0  0
 15 14  2  1  0  0  0
 15 16  1  0  0  0  0
 15 18  1  0  0  0  0
 17 16  1  0  0  0  0
 18 19  1  0  0  0  0
 19 20  1  0  0  0  0
 20 25  1  0  0  0  0
 20 21  2  0  0  0  0
 21 26  1  0  0  0  0
 22 21  1  0  0  0  0
 23 22  2  0  0  0  0
 24 19  2  0  0  0  0
 24 23  1  0  0  0  0
 27 23  1  0  0  0  0
 29 28  1  0  0  0  0
 29 30  1  0  0  0  0
 30 31  1  0  0  0  0
 32 31  1  0  0  0  0
 33 32  1  0  0  0  0
 34 33  1  0  0  0  0
 34 29  1  0  0  0  0
M  END
>  <minimizedAffinity>
-5.79206753

$$$$

 OpenBabel03272503513D

 34 36  0  0  1  0  0  0  0  0999 V2000
   37.4890   26.3700   34.3310 C   0  0  1  0  0  0  0  0  0  0  0  0
   37.8710   26.0960   32.8600 C   0  0  2  0  0  0  0  0  0  0  0  0
   38.8000   27.0520   32.5980 O   0  0  0  0  0  0  0  0  0  0  0  0
   39.6450   27.0300   33.6940 C   0  0  0  0  0  0  0  0  0  0  0  0
   38.8210   26.7420   34.9120 C   0  0  2  0  0  0  0  0  0  0  0  0
   37.1570   25.4150   34.7640 H   0  0  0  0  0  0  0  0  0  0  0  0
   38.2280   25.0340   32.8270 H   0  0  0  0  0  0  0  0  0  0  0  0
   40.0650   28.0560   33.7970 H   0  0  0  0  0  0  0  0  0  0  0  0
   40.4110   26.2570   33.4900 H   0  0  0  0  0  0  0  0  0  0  0  0
   38.7690   27.6110   35.5960 H   0  0  0  0  0  0  0  0  0  0  0  0
   36.5320   27.3630   34.4000 O   0  0  0  0  0  0  0  0  0  0  0  0
   35.8700   27.0980   35.1050 H   0  0  0  0  0  0  0  0  0  0  0  0
   36.6920   26.1690   32.1770 O   0  0  0  0  0  0  0  0  0  0  0  0
   34.9830   24.9270   30.5940 O   0  0  0  0  0  0  0  0  0  0  0  0
   36.3290   24.7850   31.2900 P   0  0  1  0  0  0  0  0  0  0  0  0
   37.4520   24.5870   30.0380 O   0  0  0  0  0  0  0  0  0  0  0  0
   38.3500   24.8840   30.3600 H   0  0  0  0  0  0  0  0  0  0  0  0
   36.4000   23.4720   32.3780 O   0  0  0  0  0  0  0  0  0  0  0  0
   36.1470   22.1720   31.9740 C   0  0  0  0  0  0  0  0  0  0  0  0
   35.0720   21.3880   32.4490 C   0  0  0  0  0  0  0  0  0  0  0  0
   34.9410   20.0980   31.9550 C   0  0  0  0  0  0  0  0  0  0  0  0
   35.8500   19.6500   31.0410 N   0  0  0  0  0  0  0  0  0  0  0  0
   36.8760   20.4240   30.6000 C   0  0  0  0  0  0  0  0  0  0  0  0
   37.0230   21.6960   31.0730 N   0  0  0  0  0  0  0  0  0  0  0  0
   34.4130   21.8450   33.1740 H   0  0  0  0  0  0  0  0  0  0  0  0
   34.1210   19.4920   32.3140 H   0  0  0  0  0  0  0  0  0  0  0  0
   37.5640   20.0120   29.8740 H   0  0  0  0  0  0  0  0  0  0  0  0
   39.3510   25.6580   35.6130 O   0  0  0  0  0  0  0  0  0  0  0  0
   38.3780   24.8120   36.1040 C   0  0  0  0  0  3  0  0  0  0  0  0
   38.7610   23.3530   35.9510 C   0  0  0  0  0  2  0  0  0  0  0  0
   39.7900   23.0150   37.0180 C   0  0  0  0  0  2  0  0  0  0  0  0
   39.2070   23.0410   38.3990 C   0  0  0  0  0  2  0  0  0  0  0  0
   37.8640   23.7460   38.3210 C   0  0  0  0  0  2  0  0  0  0  0  0
   38.1390   25.0490   37.5830 C   0  0  0  0  0  2  0  0  0  0  0  0
  1 11  1  0  0  0  0
  1  6  1  1  0  0  0
  1  5  1  0  0  0  0
  2  7  1  6  0  0  0
  2  1  1  0  0  0  0
  3  2  1  0  0  0  0
  3  4  1  0  0  0  0
  4  8  1  0  0  0  0
  4  5  1  0  0  0  0
  5 10  1  1  0  0  0
  5 28  1  0  0  0  0
  9  4  1  0  0  0  0
 11 12  1  0  0  0  0
 13  2  1  0  0  0  0
 15 14  2  6  0  0  0
 15 13  1  0  0  0  0
 15 18  1  0  0  0  0
 16 17  1  0  0  0  0
 16 15  1  0  0  0  0
 19 18  1  0  0  0  0
 19 20  1  0  0  0  0
 20 25  1  0  0  0  0
 21 26  1  0  0  0  0
 21 20  2  0  0  0  0
 22 21  1  0  0  0  0
 23 22  2  0  0  0  0
 23 24  1  0  0  0  0
 24 19  2  0  0  0  0
 27 23  1  0  0  0  0
 28 29  1  0  0  0  0
 29 34  1  0  0  0  0
 30 29  1  0  0  0  0
 30 31  1  0  0  0  0
 31 32  1  0  0  0  0
 33 32  1  0  0  0  0
 34 33  1  0  0  0  0
M  END
>  <minimizedAffinity>
-5.50540066

$$$$

 OpenBabel03272503513D

 34 36  0  0  1  0  0  0  0  0999 V2000
   38.6550   23.5470   36.1990 C   0  0  1  0  0  0  0  0  0  0  0  0
   38.1590   24.8720   36.8200 C   0  0  2  0  0  0  0  0  0  0  0  0
   37.6010   24.4740   37.9930 O   0  0  0  0  0  0  0  0  0  0  0  0
   38.5180   23.5920   38.5380 C   0  0  0  0  0  0  0  0  0  0  0  0
   39.1470   22.8230   37.4170 C   0  0  2  0  0  0  0  0  0  0  0  0
   39.5100   23.7920   35.5510 H   0  0  0  0  0  0  0  0  0  0  0  0
   39.0620   25.5320   36.8980 H   0  0  0  0  0  0  0  0  0  0  0  0
   37.9420   22.8760   39.1660 H   0  0  0  0  0  0  0  0  0  0  0  0
   39.2430   24.2020   39.1120 H   0  0  0  0  0  0  0  0  0  0  0  0
   38.8600   21.7540   37.4320 H   0  0  0  0  0  0  0  0  0  0  0  0
   37.6250   22.9170   35.5300 O   0  0  0  0  0  0  0  0  0  0  0  0
   38.0010   22.5360   34.6820 H   0  0  0  0  0  0  0  0  0  0  0  0
   37.3240   25.4030   35.8800 O   0  0  0  0  0  0  0  0  0  0  0  0
   37.0690   27.8750   34.9900 O   0  0  0  0  0  0  0  0  0  0  0  0
   38.0010   26.6720   35.0050 P   0  0  1  0  0  0  0  0  0  0  0  0
   39.4090   27.2190   35.7710 O   0  0  0  0  0  0  0  0  0  0  0  0
   39.8840   26.4350   36.1700 H   0  0  0  0  0  0  0  0  0  0  0  0
   38.3550   26.0640   33.4510 O   0  0  0  0  0  0  0  0  0  0  0  0
   37.4010   25.4180   32.6820 C   0  0  0  0  0  0  0  0  0  0  0  0
   36.3990   26.0810   31.9400 C   0  0  0  0  0  0  0  0  0  0  0  0
   35.5070   25.3040   31.2130 C   0  0  0  0  0  0  0  0  0  0  0  0
   35.6400   23.9460   31.2500 N   0  0  0  0  0  0  0  0  0  0  0  0
   36.6130   23.3330   31.9730 C   0  0  0  0  0  0  0  0  0  0  0  0
   37.5000   24.0780   32.6940 N   0  0  0  0  0  0  0  0  0  0  0  0
   36.3870   27.1620   31.9840 H   0  0  0  0  0  0  0  0  0  0  0  0
   34.7370   25.8040   30.6430 H   0  0  0  0  0  0  0  0  0  0  0  0
   36.6670   22.2530   31.9620 H   0  0  0  0  0  0  0  0  0  0  0  0
   40.5380   22.9080   37.4880 O   0  0  0  0  0  0  0  0  0  0  0  0
   41.1650   22.3400   36.3980 C   0  0  0  0  0  3  0  0  0  0  0  0
   41.8270   23.3790   35.5150 C   0  0  0  0  0  2  0  0  0  0  0  0
   43.1100   23.8350   36.1910 C   0  0  0  0  0  2  0  0  0  0  0  0
   44.1470   22.7530   36.2300 C   0  0  0  0  0  2  0  0  0  0  0  0
   43.4580   21.4390   35.9020 C   0  0  0  0  0  2  0  0  0  0  0  0
   42.2540   21.3770   36.8320 C   0  0  0  0  0  2  0  0  0  0  0  0
  1  6  1  6  0  0  0
  1  2  1  0  0  0  0
  1  5  1  0  0  0  0
  2  7  1  1  0  0  0
  2  3  1  0  0  0  0
  3  4  1  0  0  0  0
  4  9  1  0  0  0  0
  4  8  1  0  0  0  0
  5 10  1  1  0  0  0
  5 28  1  0  0  0  0
  5  4  1  0  0  0  0
 11  1  1  0  0  0  0
 12 11  1  0  0  0  0
 13  2  1  0  0  0  0
 15 14  2  6  0  0  0
 15 16  1  0  0  0  0
 15 13  1  0  0  0  0
 16 17  1  0  0  0  0
 18 15  1  0  0  0  0
 19 24  1  0  0  0  0
 19 18  1  0  0  0  0
 20 25  1  0  0  0  0
 20 19  2  0  0  0  0
 21 22  2  0  0  0  0
 21 20  1  0  0  0  0
 22 23  1  0  0  0  0
 23 24  2  0  0  0  0
 26 21  1  0  0  0  0
 27 23  1  0  0  0  0
 29 34  1  0  0  0  0
 29 28  1  0  0  0  0
 30 31  1  0  0  0  0
 30 29  1  0  0  0  0
 31 32  1  0  0  0  0
 33 32  1  0  0  0  0
 33 34  1  0  0  0  0
M  END
>  <minimizedAffinity>
-5.33211327

$$$$

 OpenBabel03272503513D

 34 36  0  0  1  0  0  0  0  0999 V2000
   37.4830   25.2470   31.2910 C   0  0  1  0  0  0  0  0  0  0  0  0
   36.6990   26.4980   31.7450 C   0  0  2  0  0  0  0  0  0  0  0  0
   35.5900   26.4690   30.9600 O   0  0  0  0  0  0  0  0  0  0  0  0
   35.1600   25.1540   31.0080 C   0  0  0  0  0  0  0  0  0  0  0  0
   36.3670   24.2710   31.0670 C   0  0  2  0  0  0  0  0  0  0  0  0
   38.0900   24.9160   32.1470 H   0  0  0  0  0  0  0  0  0  0  0  0
   36.5310   26.3730   32.8460 H   0  0  0  0  0  0  0  0  0  0  0  0
   34.6320   24.9530   30.0490 H   0  0  0  0  0  0  0  0  0  0  0  0
   34.5070   25.0660   31.8990 H   0  0  0  0  0  0  0  0  0  0  0  0
   36.4930   23.6730   30.1430 H   0  0  0  0  0  0  0  0  0  0  0  0
   38.2340   25.5340   30.1680 O   0  0  0  0  0  0  0  0  0  0  0  0
   39.1220   25.0810   30.2710 H   0  0  0  0  0  0  0  0  0  0  0  0
   37.5650   27.5360   31.5610 O   0  0  0  0  0  0  0  0  0  0  0  0
   38.0850   29.7450   30.2130 O   0  0  0  0  0  0  0  0  0  0  0  0
   37.0010   28.7170   30.5020 P   0  0  1  0  0  0  0  0  0  0  0  0
   36.6430   28.0240   28.9980 O   0  0  0  0  0  0  0  0  0  0  0  0
   36.2660   27.1100   29.1460 H   0  0  0  0  0  0  0  0  0  0  0  0
   35.5990   29.3830   31.2090 O   0  0  0  0  0  0  0  0  0  0  0  0
   35.6580   30.1870   32.3360 C   0  0  0  0  0  0  0  0  0  0  0  0
   35.8590   31.5840   32.3030 C   0  0  0  0  0  0  0  0  0  0  0  0
   35.8960   32.2640   33.5130 C   0  0  0  0  0  0  0  0  0  0  0  0
   35.7380   31.5550   34.6680 N   0  0  0  0  0  0  0  0  0  0  0  0
   35.5460   30.2100   34.6720 C   0  0  0  0  0  0  0  0  0  0  0  0
   35.5060   29.5220   33.4940 N   0  0  0  0  0  0  0  0  0  0  0  0
   35.9730   32.0430   31.3300 H   0  0  0  0  0  0  0  0  0  0  0  0
   36.0500   33.3330   33.4960 H   0  0  0  0  0  0  0  0  0  0  0  0
   35.4270   29.7040   35.6210 H   0  0  0  0  0  0  0  0  0  0  0  0
   36.2800   23.3960   32.1510 O   0  0  0  0  0  0  0  0  0  0  0  0
   36.8160   22.1540   31.8800 C   0  0  0  0  0  3  0  0  0  0  0  0
   36.8900   21.2820   33.1190 C   0  0  0  0  0  2  0  0  0  0  0  0
   35.4930   20.7670   33.4250 C   0  0  0  0  0  2  0  0  0  0  0  0
   35.0050   19.7970   32.3900 C   0  0  0  0  0  2  0  0  0  0  0  0
   35.9170   19.9130   31.1810 C   0  0  0  0  0  2  0  0  0  0  0  0
   35.9750   21.4020   30.8660 C   0  0  0  0  0  2  0  0  0  0  0  0
  1  2  1  0  0  0  0
  1  6  1  1  0  0  0
  2  7  1  1  0  0  0
  3  4  1  0  0  0  0
  3  2  1  0  0  0  0
  4  5  1  0  0  0  0
  4  9  1  0  0  0  0
  5 10  1  6  0  0  0
  5  1  1  0  0  0  0
  5 28  1  0  0  0  0
  8  4  1  0  0  0  0
 11 12  1  0  0  0  0
 11  1  1  0  0  0  0
 13  2  1  0  0  0  0
 15 14  2  6  0  0  0
 15 18  1  0  0  0  0
 15 13  1  0  0  0  0
 16 17  1  0  0  0  0
 16 15  1  0  0  0  0
 18 19  1  0  0  0  0
 19 24  1  0  0  0  0
 20 19  2  0  0  0  0
 20 21  1  0  0  0  0
 21 22  2  0  0  0  0
 22 23  1  0  0  0  0
 23 27  1  0  0  0  0
 24 23  2  0  0  0  0
 25 20  1  0  0  0  0
 26 21  1  0  0  0  0
 29 28  1  0  0  0  0
 29 30  1  0  0  0  0
 30 31  1  0  0  0  0
 32 31  1  0  0  0  0
 33 32  1  0  0  0  0
 34 33  1  0  0  0  0
 34 29  1  0  0  0  0
M  END
>  <minimizedAffinity>
-5.3058095

$$$$

 OpenBabel03272503513D

 34 36  0  0  1  0  0  0  0  0999 V2000
   38.5770   24.3360   32.5530 C   0  0  1  0  0  0  0  0  0  0  0  0
   37.2900   24.5920   31.7380 C   0  0  2  0  0  0  0  0  0  0  0  0
   36.8850   23.3400   31.3970 O   0  0  0  0  0  0  0  0  0  0  0  0
   36.9990   22.6040   32.5630 C   0  0  0  0  0  0  0  0  0  0  0  0
   38.1980   23.0990   33.3120 C   0  0  2  0  0  0  0  0  0  0  0  0
   38.6890   25.1750   33.2560 H   0  0  0  0  0  0  0  0  0  0  0  0
   36.6060   25.1670   32.4150 H   0  0  0  0  0  0  0  0  0  0  0  0
   37.1930   21.5500   32.2610 H   0  0  0  0  0  0  0  0  0  0  0  0
   36.0490   22.7390   33.1180 H   0  0  0  0  0  0  0  0  0  0  0  0
   39.0090   22.3460   33.3470 H   0  0  0  0  0  0  0  0  0  0  0  0
   39.6570   24.1850   31.7060 O   0  0  0  0  0  0  0  0  0  0  0  0
   40.4360   24.6620   32.1190 H   0  0  0  0  0  0  0  0  0  0  0  0
   37.6800   25.4190   30.7250 O   0  0  0  0  0  0  0  0  0  0  0  0
   38.6210   27.8580   31.0910 O   0  0  0  0  0  0  0  0  0  0  0  0
   37.3380   27.0440   31.0000 P   0  0  1  0  0  0  0  0  0  0  0  0
   36.5000   27.6930   29.6790 O   0  0  0  0  0  0  0  0  0  0  0  0
   35.8830   26.9950   29.3140 H   0  0  0  0  0  0  0  0  0  0  0  0
   36.3850   27.1140   32.4140 O   0  0  0  0  0  0  0  0  0  0  0  0
   35.9130   28.3130   32.9210 C   0  0  0  0  0  0  0  0  0  0  0  0
   36.0790   28.7270   34.2610 C   0  0  0  0  0  0  0  0  0  0  0  0
   35.5520   29.9570   34.6310 C   0  0  0  0  0  0  0  0  0  0  0  0
   34.9050   30.7030   33.6890 N   0  0  0  0  0  0  0  0  0  0  0  0
   34.7590   30.2810   32.4050 C   0  0  0  0  0  0  0  0  0  0  0  0
   35.2690   29.0750   32.0210 N   0  0  0  0  0  0  0  0  0  0  0  0
   36.6090   28.0550   34.9220 H   0  0  0  0  0  0  0  0  0  0  0  0
   35.6750   30.2810   35.6540 H   0  0  0  0  0  0  0  0  0  0  0  0
   34.2360   30.9180   31.7050 H   0  0  0  0  0  0  0  0  0  0  0  0
   37.8500   23.4360   34.6210 O   0  0  0  0  0  0  0  0  0  0  0  0
   38.9470   23.7100   35.4120 C   0  0  0  0  0  3  0  0  0  0  0  0
   38.6840   24.8490   36.3780 C   0  0  0  0  0  2  0  0  0  0  0  0
   37.8220   24.3230   37.5140 C   0  0  0  0  0  2  0  0  0  0  0  0
   38.5570   23.3440   38.3800 C   0  0  0  0  0  2  0  0  0  0  0  0
   39.8120   22.9200   37.6360 C   0  0  0  0  0  2  0  0  0  0  0  0
   39.3340   22.5060   36.2510 C   0  0  0  0  0  2  0  0  0  0  0  0
  1  6  1  1  0  0  0
  1  5  1  0  0  0  0
  2  7  1  1  0  0  0
  2  1  1  0  0  0  0
  3  2  1  0  0  0  0
  3  4  1  0  0  0  0
  4  9  1  0  0  0  0
  4  5  1  0  0  0  0
  5 10  1  6  0  0  0
  5 28  1  0  0  0  0
  8  4  1  0  0  0  0
 11 12  1  0  0  0  0
 11  1  1  0  0  0  0
 13 15  1  0  0  0  0
 13  2  1  0  0  0  0
 15 14  2  1  0  0  0
 15 18  1  0  0  0  0
 16 15  1  0  0  0  0
 17 16  1  0  0  0  0
 18 19  1  0  0  0  0
 19 20  1  0  0  0  0
 20 21  2  0  0  0  0
 20 25  1  0  0  0  0
 21 26  1  0  0  0  0
 22 21  1  0  0  0  0
 23 22  2  0  0  0  0
 24 23  1  0  0  0  0
 24 19  2  0  0  0  0
 27 23  1  0  0  0  0
 28 29  1  0  0  0  0
 29 34  1  0  0  0  0
 29 30  1  0  0  0  0
 30 31  1  0  0  0  0
 31 32  1  0  0  0  0
 33 32  1  0  0  0  0
 34 33  1  0  0  0  0
M  END
>  <minimizedAffinity>
-5.12825108

$$$$

 OpenBabel03272503513D

 34 36  0  0  1  0  0  0  0  0999 V2000
   35.9940   27.2320   31.6050 C   0  0  1  0  0  0  0  0  0  0  0  0
   36.5600   25.8650   32.0490 C   0  0  2  0  0  0  0  0  0  0  0  0
   37.8940   26.1010   32.1550 O   0  0  0  0  0  0  0  0  0  0  0  0
   37.9840   27.3010   32.8400 C   0  0  0  0  0  0  0  0  0  0  0  0
   36.8440   28.1720   32.4070 C   0  0  2  0  0  0  0  0  0  0  0  0
   34.9550   27.2860   31.9620 H   0  0  0  0  0  0  0  0  0  0  0  0
   36.0240   25.6040   32.9980 H   0  0  0  0  0  0  0  0  0  0  0  0
   38.9310   27.7870   32.5140 H   0  0  0  0  0  0  0  0  0  0  0  0
   37.9620   27.0530   33.9190 H   0  0  0  0  0  0  0  0  0  0  0  0
   37.1870   29.0500   31.8260 H   0  0  0  0  0  0  0  0  0  0  0  0
   36.1080   27.3760   30.2360 O   0  0  0  0  0  0  0  0  0  0  0  0
   35.2690   27.8110   29.9050 H   0  0  0  0  0  0  0  0  0  0  0  0
   36.1570   24.9920   31.0800 O   0  0  0  0  0  0  0  0  0  0  0  0
   38.1010   23.4640   30.1560 O   0  0  0  0  0  0  0  0  0  0  0  0
   36.9370   23.5020   31.1360 P   0  0  1  0  0  0  0  0  0  0  0  0
   37.6400   23.2720   32.6600 O   0  0  0  0  0  0  0  0  0  0  0  0
   37.0420   23.6710   33.3540 H   0  0  0  0  0  0  0  0  0  0  0  0
   35.7510   22.3140   30.8320 O   0  0  0  0  0  0  0  0  0  0  0  0
   35.6950   21.1330   31.5540 C   0  0  0  0  0  0  0  0  0  0  0  0
   35.8040   19.8470   30.9810 C   0  0  0  0  0  0  0  0  0  0  0  0
   35.7300   18.7500   31.8280 C   0  0  0  0  0  0  0  0  0  0  0  0
   35.5550   18.9640   33.1640 N   0  0  0  0  0  0  0  0  0  0  0  0
   35.4530   20.2120   33.6910 C   0  0  0  0  0  0  0  0  0  0  0  0
   35.5230   21.3050   32.8760 N   0  0  0  0  0  0  0  0  0  0  0  0
   35.9400   19.7960   29.9090 H   0  0  0  0  0  0  0  0  0  0  0  0
   35.8130   17.7620   31.3960 H   0  0  0  0  0  0  0  0  0  0  0  0
   35.3160   20.3170   34.7580 H   0  0  0  0  0  0  0  0  0  0  0  0
   36.1300   28.6260   33.5160 O   0  0  0  0  0  0  0  0  0  0  0  0
   35.2530   29.6460   33.2070 C   0  0  0  0  0  3  0  0  0  0  0  0
   34.6230   30.2520   34.4450 C   0  0  0  0  0  2  0  0  0  0  0  0
   35.6510   31.1500   35.1140 C   0  0  0  0  0  2  0  0  0  0  0  0
   35.9620   32.3680   34.2950 C   0  0  0  0  0  2  0  0  0  0  0  0
   35.4180   32.1350   32.8960 C   0  0  0  0  0  2  0  0  0  0  0  0
   35.9600   30.7740   32.4790 C   0  0  0  0  0  2  0  0  0  0  0  0
  1  6  1  1  0  0  0
  1  2  1  0  0  0  0
  1  5  1  0  0  0  0
  2  3  1  0  0  0  0
  2  7  1  1  0  0  0
  3  4  1  0  0  0  0
  4  9  1  0  0  0  0
  5 10  1  6  0  0  0
  5  4  1  0  0  0  0
  5 28  1  0  0  0  0
  8  4  1  0  0  0  0
 11  1  1  0  0  0  0
 12 11  1  0  0  0  0
 13 15  1  0  0  0  0
 13  2  1  0  0  0  0
 15 14  2  6  0  0  0
 15 16  1  0  0  0  0
 16 17  1  0  0  0  0
 18 15  1  0  0  0  0
 18 19  1  0  0  0  0
 19 24  1  0  0  0  0
 20 19  2  0  0  0  0
 20 21  1  0  0  0  0
 21 22  2  0  0  0  0
 22 23  1  0  0  0  0
 23 27  1  0  0  0  0
 24 23  2  0  0  0  0
 25 20  1  0  0  0  0
 26 21  1  0  0  0  0
 29 28  1  0  0  0  0
 29 30  1  0  0  0  0
 30 31  1  0  0  0  0
 32 31  1  0  0  0  0
 33 32  1  0  0  0  0
 34 33  1  0  0  0  0
 34 29  1  0  0  0  0
M  END
>  <minimizedAffinity>
-5.11025

$$$$

 OpenBabel03272503513D

 34 36  0  0  1  0  0  0  0  0999 V2000
   38.0830   22.5950   34.7920 C   0  0  1  0  0  0  0  0  0  0  0  0
   39.3870   23.1660   34.1900 C   0  0  2  0  0  0  0  0  0  0  0  0
   39.9710   22.0750   33.6280 O   0  0  0  0  0  0  0  0  0  0  0  0
   38.9470   21.4410   32.9460 C   0  0  0  0  0  0  0  0  0  0  0  0
   37.6870   21.6040   33.7390 C   0  0  2  0  0  0  0  0  0  0  0  0
   37.3500   23.4160   34.8140 H   0  0  0  0  0  0  0  0  0  0  0  0
   39.0700   23.9780   33.4850 H   0  0  0  0  0  0  0  0  0  0  0  0
   39.2000   20.3570   32.9210 H   0  0  0  0  0  0  0  0  0  0  0  0
   38.8970   21.9070   31.9420 H   0  0  0  0  0  0  0  0  0  0  0  0
   37.3300   20.6440   34.1590 H   0  0  0  0  0  0  0  0  0  0  0  0
   38.3290   22.0500   36.0360 O   0  0  0  0  0  0  0  0  0  0  0  0
   37.5630   22.2970   36.6340 H   0  0  0  0  0  0  0  0  0  0  0  0
   40.0310   23.7440   35.2440 O   0  0  0  0  0  0  0  0  0  0  0  0
   42.5810   24.3710   35.5190 O   0  0  0  0  0  0  0  0  0  0  0  0
   41.2980   24.7590   34.7970 P   0  0  1  0  0  0  0  0  0  0  0  0
   41.6450   24.5620   33.1510 O   0  0  0  0  0  0  0  0  0  0  0  0
   40.7900   24.4040   32.6580 H   0  0  0  0  0  0  0  0  0  0  0  0
   40.7880   26.3540   35.1210 O   0  0  0  0  0  0  0  0  0  0  0  0
   39.5430   26.8190   34.7300 C   0  0  0  0  0  0  0  0  0  0  0  0
   38.5620   27.3030   35.6220 C   0  0  0  0  0  0  0  0  0  0  0  0
   37.3560   27.7380   35.0890 C   0  0  0  0  0  0  0  0  0  0  0  0
   37.1770   27.6760   33.7370 N   0  0  0  0  0  0  0  0  0  0  0  0
   38.1380   27.2050   32.9000 C   0  0  0  0  0  0  0  0  0  0  0  0
   39.3300   26.7740   33.4040 N   0  0  0  0  0  0  0  0  0  0  0  0
   38.8110   27.3060   36.6750 H   0  0  0  0  0  0  0  0  0  0  0  0
   36.6000   28.1100   35.7650 H   0  0  0  0  0  0  0  0  0  0  0  0
   37.9360   27.1820   31.8370 H   0  0  0  0  0  0  0  0  0  0  0  0
   36.6750   22.1400   32.9410 O   0  0  0  0  0  0  0  0  0  0  0  0
   35.5780   21.3090   32.8390 C   0  0  0  0  0  3  0  0  0  0  0  0
   35.2270   21.0030   31.3960 C   0  0  0  0  0  2  0  0  0  0  0  0
   36.2230   19.9840   30.8670 C   0  0  0  0  0  2  0  0  0  0  0  0
   36.0630   18.6420   31.5180 C   0  0  0  0  0  2  0  0  0  0  0  0
   35.1960   18.8270   32.7510 C   0  0  0  0  0  2  0  0  0  0  0  0
   35.8330   19.9780   33.5190 C   0  0  0  0  0  2  0  0  0  0  0  0
  1  6  1  1  0  0  0
  1 11  1  0  0  0  0
  2  7  1  6  0  0  0
  2  1  1  0  0  0  0
  2 13  1  0  0  0  0
  3  2  1  0  0  0  0
  4  3  1  0  0  0  0
  4  5  1  0  0  0  0
  5 10  1  1  0  0  0
  5  1  1  0  0  0  0
  8  4  1  0  0  0  0
  9  4  1  0  0  0  0
 11 12  1  0  0  0  0
 15 18  1  0  0  0  0
 15 13  1  0  0  0  0
 15 14  2  1  0  0  0
 16 15  1  0  0  0  0
 17 16  1  0  0  0  0
 19 18  1  0  0  0  0
 19 20  1  0  0  0  0
 20 25  1  0  0  0  0
 21 20  2  0  0  0  0
 21 26  1  0  0  0  0
 22 21  1  0  0  0  0
 23 24  1  0  0  0  0
 23 22  2  0  0  0  0
 24 19  2  0  0  0  0
 27 23  1  0  0  0  0
 28  5  1  0  0  0  0
 29 28  1  0  0  0  0
 29 34  1  0  0  0  0
 30 29  1  0  0  0  0
 31 30  1  0  0  0  0
 31 32  1  0  0  0  0
 32 33  1  0  0  0  0
 33 34  1  0  0  0  0
M  END
>  <minimizedAffinity>
-5.07990599

$$$$

 OpenBabel03272503513D

 34 36  0  0  1  0  0  0  0  0999 V2000
   35.4690   28.7700   33.2440 C   0  0  1  0  0  0  0  0  0  0  0  0
   36.3550   28.3190   34.4270 C   0  0  2  0  0  0  0  0  0  0  0  0
   36.6870   29.4920   35.0280 O   0  0  0  0  0  0  0  0  0  0  0  0
   35.4990   30.1980   35.1010 C   0  0  0  0  0  0  0  0  0  0  0  0
   34.7010   29.8960   33.8700 C   0  0  2  0  0  0  0  0  0  0  0  0
   34.7810   27.9400   33.0200 H   0  0  0  0  0  0  0  0  0  0  0  0
   35.7280   27.6120   35.0290 H   0  0  0  0  0  0  0  0  0  0  0  0
   35.7650   31.2790   35.0810 H   0  0  0  0  0  0  0  0  0  0  0  0
   34.9980   29.8820   36.0370 H   0  0  0  0  0  0  0  0  0  0  0  0
   34.6060   30.7770   33.2060 H   0  0  0  0  0  0  0  0  0  0  0  0
   36.2540   29.1330   32.1690 O   0  0  0  0  0  0  0  0  0  0  0  0
   35.8130   28.7860   31.3380 H   0  0  0  0  0  0  0  0  0  0  0  0
   37.3660   27.6060   33.8510 O   0  0  0  0  0  0  0  0  0  0  0  0
   39.8110   26.7680   34.3870 O   0  0  0  0  0  0  0  0  0  0  0  0
   38.4040   26.8770   34.9570 P   0  0  1  0  0  0  0  0  0  0  0  0
   38.5630   27.8510   36.3330 O   0  0  0  0  0  0  0  0  0  0  0  0
   37.6840   28.2890   36.5220 H   0  0  0  0  0  0  0  0  0  0  0  0
   37.7120   25.3700   35.3600 O   0  0  0  0  0  0  0  0  0  0  0  0
   38.3410   24.4810   36.2160 C   0  0  0  0  0  0  0  0  0  0  0  0
   38.0490   24.3660   37.5930 C   0  0  0  0  0  0  0  0  0  0  0  0
   38.7600   23.4290   38.3320 C   0  0  0  0  0  0  0  0  0  0  0  0
   39.7010   22.6710   37.6970 N   0  0  0  0  0  0  0  0  0  0  0  0
   39.9620   22.8020   36.3700 C   0  0  0  0  0  0  0  0  0  0  0  0
   39.2750   23.7160   35.6260 N   0  0  0  0  0  0  0  0  0  0  0  0
   37.2840   25.0180   37.9910 H   0  0  0  0  0  0  0  0  0  0  0  0
   38.5430   23.3350   39.3860 H   0  0  0  0  0  0  0  0  0  0  0  0
   40.7190   22.1710   35.9240 H   0  0  0  0  0  0  0  0  0  0  0  0
   33.4200   29.4610   34.2140 O   0  0  0  0  0  0  0  0  0  0  0  0
   32.5590   29.4290   33.1360 C   0  0  0  0  0  3  0  0  0  0  0  0
   31.2690   28.6990   33.4580 C   0  0  0  0  0  2  0  0  0  0  0  0
   30.4000   29.6160   34.3030 C   0  0  0  0  0  2  0  0  0  0  0  0
   29.9020   30.8010   33.5300 C   0  0  0  0  0  2  0  0  0  0  0  0
   30.7180   30.8940   32.2520 C   0  0  0  0  0  2  0  0  0  0  0  0
   32.1720   30.8300   32.7000 C   0  0  0  0  0  2  0  0  0  0  0  0
  1  6  1  6  0  0  0
  1  5  1  0  0  0  0
  1  2  1  0  0  0  0
  2  3  1  0  0  0  0
  2  7  1  1  0  0  0
  3  4  1  0  0  0  0
  4  9  1  0  0  0  0
  5 10  1  6  0  0  0
  5 28  1  0  0  0  0
  5  4  1  0  0  0  0
  8  4  1  0  0  0  0
 11  1  1  0  0  0  0
 12 11  1  0  0  0  0
 13  2  1  0  0  0  0
 13 15  1  0  0  0  0
 15 14  2  6  0  0  0
 15 18  1  0  0  0  0
 15 16  1  0  0  0  0
 16 17  1  0  0  0  0
 18 19  1  0  0  0  0
 19 20  1  0  0  0  0
 20 25  1  0  0  0  0
 20 21  2  0  0  0  0
 21 26  1  0  0  0  0
 22 21  1  0  0  0  0
 23 22  2  0  0  0  0
 24 19  2  0  0  0  0
 24 23  1  0  0  0  0
 27 23  1  0  0  0  0
 29 30  1  0  0  0  0
 29 28  1  0  0  0  0
 30 31  1  0  0  0  0
 32 31  1  0  0  0  0
 33 34  1  0  0  0  0
 33 32  1  0  0  0  0
 34 29  1  0  0  0  0
M  END
>  <minimizedAffinity>
-5.0537219

$$$$

 OpenBabel03272503513D

 34 36  0  0  1  0  0  0  0  0999 V2000
   37.2940   24.6990   31.2860 C   0  0  1  0  0  0  0  0  0  0  0  0
   36.3800   25.8110   31.8460 C   0  0  2  0  0  0  0  0  0  0  0  0
   35.2340   25.6590   31.1310 O   0  0  0  0  0  0  0  0  0  0  0  0
   34.9910   24.2960   31.1440 C   0  0  0  0  0  0  0  0  0  0  0  0
   36.3080   23.5860   31.0860 C   0  0  2  0  0  0  0  0  0  0  0  0
   37.9970   24.4230   32.0860 H   0  0  0  0  0  0  0  0  0  0  0  0
   36.3070   25.6220   32.9490 H   0  0  0  0  0  0  0  0  0  0  0  0
   34.4310   24.0610   30.2110 H   0  0  0  0  0  0  0  0  0  0  0  0
   34.4190   24.0840   32.0690 H   0  0  0  0  0  0  0  0  0  0  0  0
   36.4510   23.0470   30.1290 H   0  0  0  0  0  0  0  0  0  0  0  0
   37.9210   25.1290   30.1330 O   0  0  0  0  0  0  0  0  0  0  0  0
   38.8670   24.7990   30.1600 H   0  0  0  0  0  0  0  0  0  0  0  0
   37.0830   26.9650   31.6580 O   0  0  0  0  0  0  0  0  0  0  0  0
   36.8380   29.5920   31.7460 O   0  0  0  0  0  0  0  0  0  0  0  0
   36.4230   28.3020   32.4390 P   0  0  1  0  0  0  0  0  0  0  0  0
   34.7340   28.2660   32.3230 O   0  0  0  0  0  0  0  0  0  0  0  0
   34.4270   27.3160   32.3790 H   0  0  0  0  0  0  0  0  0  0  0  0
   36.9190   28.2130   34.0690 O   0  0  0  0  0  0  0  0  0  0  0  0
   37.7830   27.2290   34.5200 C   0  0  0  0  0  0  0  0  0  0  0  0
   37.3860   26.1240   35.3040 C   0  0  0  0  0  0  0  0  0  0  0  0
   38.3630   25.2140   35.6850 C   0  0  0  0  0  0  0  0  0  0  0  0
   39.6500   25.4290   35.2870 N   0  0  0  0  0  0  0  0  0  0  0  0
   40.0060   26.5010   34.5320 C   0  0  0  0  0  0  0  0  0  0  0  0
   39.0620   27.4080   34.1470 N   0  0  0  0  0  0  0  0  0  0  0  0
   36.3380   26.0540   35.5620 H   0  0  0  0  0  0  0  0  0  0  0  0
   38.0670   24.3650   36.2860 H   0  0  0  0  0  0  0  0  0  0  0  0
   41.0430   26.6160   34.2480 H   0  0  0  0  0  0  0  0  0  0  0  0
   36.4140   22.6670   32.1310 O   0  0  0  0  0  0  0  0  0  0  0  0
   35.4890   21.6470   32.0410 C   0  0  0  0  0  3  0  0  0  0  0  0
   35.7060   20.7870   30.8110 C   0  0  0  0  0  2  0  0  0  0  0  0
   36.8950   19.8760   31.0690 C   0  0  0  0  0  2  0  0  0  0  0  0
   36.6050   18.8470   32.1200 C   0  0  0  0  0  2  0  0  0  0  0  0
   35.3400   19.2710   32.8460 C   0  0  0  0  0  2  0  0  0  0  0  0
   35.5740   20.7230   33.2410 C   0  0  0  0  0  2  0  0  0  0  0  0
  1  2  1  0  0  0  0
  1  6  1  1  0  0  0
  2  7  1  1  0  0  0
  3  4  1  0  0  0  0
  3  2  1  0  0  0  0
  4  9  1  0  0  0  0
  5 10  1  6  0  0  0
  5  4  1  0  0  0  0
  5  1  1  0  0  0  0
  5 28  1  0  0  0  0
  8  4  1  0  0  0  0
 11 12  1  0  0  0  0
 11  1  1  0  0  0  0
 13  2  1  0  0  0  0
 13 15  1  0  0  0  0
 15 14  2  6  0  0  0
 15 18  1  0  0  0  0
 16 17  1  0  0  0  0
 16 15  1  0  0  0  0
 18 19  1  0  0  0  0
 19 20  1  0  0  0  0
 20 25  1  0  0  0  0
 20 21  2  0  0  0  0
 21 26  1  0  0  0  0
 22 21  1  0  0  0  0
 23 22  2  0  0  0  0
 24 19  2  0  0  0  0
 24 23  1  0  0  0  0
 27 23  1  0  0  0  0
 29 28  1  0  0  0  0
 29 34  1  0  0  0  0
 30 31  1  0  0  0  0
 30 29  1  0  0  0  0
 31 32  1  0  0  0  0
 32 33  1  0  0  0  0
 33 34  1  0  0  0  0
M  END
>  <minimizedAffinity>
-4.99045753

$$$$
