
 OpenBabel03272503503D

 34 36  0  0  1  0  0  0  0  0999 V2000
   33.2070   27.3070   45.8610 C   0  0  1  0  0  0  0  0  0  0  0  0
   33.9130   27.4620   47.2260 C   0  0  2  0  0  0  0  0  0  0  0  0
   33.7530   26.2390   47.7970 O   0  0  0  0  0  0  0  0  0  0  0  0
   34.0680   25.3390   46.7940 C   0  0  0  0  0  0  0  0  0  0  0  0
   33.5920   25.9050   45.4920 C   0  0  2  0  0  0  0  0  0  0  0  0
   33.6880   28.0120   45.1650 H   0  0  0  0  0  0  0  0  0  0  0  0
   34.9660   27.7680   46.9950 H   0  0  0  0  0  0  0  0  0  0  0  0
   33.4870   24.4120   47.0000 H   0  0  0  0  0  0  0  0  0  0  0  0
   35.1650   25.1910   46.8330 H   0  0  0  0  0  0  0  0  0  0  0  0
   32.7520   25.3230   45.0650 H   0  0  0  0  0  0  0  0  0  0  0  0
   31.8490   27.5170   45.9980 O   0  0  0  0  0  0  0  0  0  0  0  0
   31.5410   28.0480   45.2050 H   0  0  0  0  0  0  0  0  0  0  0  0
   33.2850   28.5160   47.8230 O   0  0  0  0  0  0  0  0  0  0  0  0
   35.3410   29.8100   46.7880 O   0  0  0  0  0  0  0  0  0  0  0  0
   34.0800   29.9860   47.6220 P   0  0  1  0  0  0  0  0  0  0  0  0
   33.1110   31.0520   46.7310 O   0  0  0  0  0  0  0  0  0  0  0  0
   32.1550   30.9070   46.9840 H   0  0  0  0  0  0  0  0  0  0  0  0
   34.3760   30.6030   49.1850 O   0  0  0  0  0  0  0  0  0  0  0  0
   35.6150   30.4930   49.7930 C   0  0  0  0  0  0  0  0  0  0  0  0
   35.9600   29.4770   50.7120 C   0  0  0  0  0  0  0  0  0  0  0  0
   37.2430   29.4910   51.2440 C   0  0  0  0  0  0  0  0  0  0  0  0
   38.1030   30.4780   50.8580 N   0  0  0  0  0  0  0  0  0  0  0  0
   37.7460   31.4440   49.9720 C   0  0  0  0  0  0  0  0  0  0  0  0
   36.4900   31.4490   49.4360 N   0  0  0  0  0  0  0  0  0  0  0  0
   35.1990   28.7460   50.9470 H   0  0  0  0  0  0  0  0  0  0  0  0
   37.5140   28.7170   51.9480 H   0  0  0  0  0  0  0  0  0  0  0  0
   38.4720   32.1990   49.7040 H   0  0  0  0  0  0  0  0  0  0  0  0
   34.6310   25.9290   44.5610 O   0  0  0  0  0  0  0  0  0  0  0  0
   34.2650   25.4080   43.3370 C   0  0  0  0  0  3  0  0  0  0  0  0
   35.1450   25.9200   42.2140 C   0  0  0  0  0  2  0  0  0  0  0  0
   36.4780   25.1940   42.2800 C   0  0  0  0  0  2  0  0  0  0  0  0
   36.3510   23.7390   41.9380 C   0  0  0  0  0  2  0  0  0  0  0  0
   34.8750   23.3810   41.9840 C   0  0  0  0  0  2  0  0  0  0  0  0
   34.3800   23.8950   43.3270 C   0  0  0  0  0  2  0  0  0  0  0  0
  1  6  1  6  0  0  0
  1 11  1  0  0  0  0
  1  2  1  0  0  0  0
  2  7  1  6  0  0  0
  2  3  1  0  0  0  0
  2 13  1  0  0  0  0
  4  9  1  0  0  0  0
  4  8  1  0  0  0  0
  4  3  1  0  0  0  0
  5 10  1  6  0  0  0
  5  1  1  0  0  0  0
  5  4  1  0  0  0  0
 12 11  1  0  0  0  0
 15 14  2  6  0  0  0
 15 13  1  0  0  0  0
 15 18  1  0  0  0  0
 16 17  1  0  0  0  0
 16 15  1  0  0  0  0
 18 19  1  0  0  0  0
 19 20  1  0  0  0  0
 20 25  1  0  0  0  0
 20 21  2  0  0  0  0
 21 26  1  0  0  0  0
 22 21  1  0  0  0  0
 23 22  2  0  0  0  0
 24 19  2  0  0  0  0
 24 23  1  0  0  0  0
 27 23  1  0  0  0  0
 28  5  1  0  0  0  0
 29 28  1  0  0  0  0
 30 31  1  0  0  0  0
 30 29  1  0  0  0  0
 32 33  1  0  0  0  0
 32 31  1  0  0  0  0
 33 34  1  0  0  0  0
 34 29  1  0  0  0  0
M  END
>  <minimizedAffinity>
-4.01229382

>  <minimizedRMSD>
0.212995514

$$$$
