
 OpenBabel03272506433D

 29 31  0  0  1  0  0  0  0  0999 V2000
   32.2400   28.1700   47.5280 C   0  0  2  0  0  0  0  0  0  0  0  0
   33.5000   28.1360   48.3670 C   0  0  1  0  0  0  0  0  0  0  0  0
   34.0820   26.9060   48.1930 O   0  0  0  0  0  0  0  0  0  0  0  0
   33.4480   26.2430   47.1670 C   0  0  0  0  0  0  0  0  0  0  0  0
   32.6720   27.2990   46.3820 C   0  0  1  0  0  0  0  0  0  0  0  0
   31.3770   27.7300   48.0680 H   0  0  0  0  0  0  0  0  0  0  0  0
   33.2450   28.3580   49.4210 H   0  0  0  0  0  0  0  0  0  0  0  0
   32.7530   25.4550   47.5100 H   0  0  0  0  0  0  0  0  0  0  0  0
   34.2420   25.8790   46.4820 H   0  0  0  0  0  0  0  0  0  0  0  0
   33.3100   27.8740   45.6950 H   0  0  0  0  0  0  0  0  0  0  0  0
   31.9530   29.4740   47.1000 O   0  0  0  0  0  0  0  0  0  0  0  0
   31.9160   30.0770   47.8840 H   0  0  0  0  0  0  0  0  0  0  0  0
   34.6180   29.3890   47.6660 S   0  0  0  0  0  0  0  0  0  0  0  0
   37.2210   29.2610   50.6400 C   0  0  0  0  0  0  0  0  0  0  0  0
   37.6550   30.5670   50.8150 C   0  0  0  0  0  0  0  0  0  0  0  0
   37.1150   31.5430   49.9680 C   0  0  0  0  0  0  0  0  0  0  0  0
   36.2000   31.1650   49.0250 N   0  0  0  0  0  0  0  0  0  0  0  0
   35.8080   29.8820   48.8920 C   0  0  0  0  0  0  0  0  0  0  0  0
   36.3160   28.9170   49.7010 N   0  0  0  0  0  0  0  0  0  0  0  0
   37.6470   28.5230   51.3000 H   0  0  0  0  0  0  0  0  0  0  0  0
   38.3720   30.8850   51.5490 H   0  0  0  0  0  0  0  0  0  0  0  0
   37.3670   32.5970   49.9980 H   0  0  0  0  0  0  0  0  0  0  0  0
   31.6080   26.7240   45.7010 O   0  0  0  0  0  0  0  0  0  0  0  0
   31.4910   27.1660   44.3950 C   0  0  0  0  0  3  0  0  0  0  0  0
   30.3390   28.1480   44.2460 C   0  0  0  0  0  2  0  0  0  0  0  0
   30.7050   29.3390   43.4040 C   0  0  0  0  0  2  0  0  0  0  0  0
   31.4800   28.9600   42.1660 C   0  0  0  0  0  2  0  0  0  0  0  0
   32.6130   28.0090   42.4220 C   0  0  0  0  0  2  0  0  0  0  0  0
   32.7460   27.8840   43.9440 C   0  0  0  0  0  2  0  0  0  0  0  0
  1  6  1  1  0  0  0
  1  2  1  0  0  0  0
  2  7  1  1  0  0  0
  3  2  1  0  0  0  0
  4  8  1  0  0  0  0
  4  3  1  0  0  0  0
  5 10  1  6  0  0  0
  5  4  1  0  0  0  0
  5  1  1  0  0  0  0
  9  4  1  0  0  0  0
 11  1  1  0  0  0  0
 11 12  1  0  0  0  0
 13  2  1  0  0  0  0
 13 18  1  0  0  0  0
 14 15  1  0  0  0  0
 14 20  1  0  0  0  0
 15 21  1  0  0  0  0
 16 22  1  0  0  0  0
 16 15  2  0  0  0  0
 17 16  1  0  0  0  0
 18 17  2  0  0  0  0
 18 19  1  0  0  0  0
 19 14  2  0  0  0  0
 23  5  1  0  0  0  0
 24 23  1  0  0  0  0
 25 24  1  0  0  0  0
 26 25  1  0  0  0  0
 27 28  1  0  0  0  0
 27 26  1  0  0  0  0
 28 29  1  0  0  0  0
 29 24  1  0  0  0  0
M  END
>  <minimizedAffinity>
-3.7628715

>  <minimizedRMSD>
0.594159424

$$$$
