
 OpenBabel03262523563D

 35 37  0  0  1  0  0  0  0  0999 V2000
   38.8080   24.6770   36.1420 C   0  0  1  0  0  0  0  0  0  0  0  0
   37.8740   24.5990   37.2540 C   0  0  0  0  0  0  0  0  0  0  0  0
   38.5940   24.0980   38.4660 C   0  0  0  0  0  0  0  0  0  0  0  0
   39.5450   23.0090   38.1190 C   0  0  0  0  0  0  0  0  0  0  0  0
   39.2830   22.3220   36.8390 C   0  0  0  0  0  0  0  0  0  0  0  0
   39.0790   23.2550   35.6460 C   0  0  1  0  0  0  0  0  0  0  0  0
   39.8110   25.0660   36.4630 H   0  0  0  0  0  0  0  0  0  0  0  0
   37.3850   25.5810   37.4270 H   0  0  0  0  0  0  0  0  0  0  0  0
   37.0370   23.8960   37.0530 H   0  0  0  0  0  0  0  0  0  0  0  0
   37.8170   23.7390   39.1710 H   0  0  0  0  0  0  0  0  0  0  0  0
   39.0720   24.9840   38.9550 H   0  0  0  0  0  0  0  0  0  0  0  0
   40.5700   23.4350   38.1510 H   0  0  0  0  0  0  0  0  0  0  0  0
   39.4900   22.2500   38.9220 H   0  0  0  0  0  0  0  0  0  0  0  0
   38.3880   21.6700   36.8940 H   0  0  0  0  0  0  0  0  0  0  0  0
   40.1290   21.6440   36.6080 H   0  0  0  0  0  0  0  0  0  0  0  0
   40.0450   23.2970   35.0910 H   0  0  0  0  0  0  0  0  0  0  0  0
   36.8950   27.0550   34.0280 C   0  0  0  0  0  0  0  0  0  0  0  0
   37.3250   26.3310   35.1760 C   0  0  0  0  0  0  0  0  0  0  0  0
   38.3730   25.4440   34.9640 C   0  0  0  0  0  0  0  0  0  0  0  0
   38.9440   25.2930   33.7080 N   0  0  0  0  0  0  0  0  0  0  0  0
   38.4940   26.0050   32.6620 C   0  0  0  0  0  0  0  0  0  0  0  0
   37.4640   26.8950   32.8080 N   0  0  0  0  0  0  0  0  0  0  0  0
   36.0820   27.7520   34.1600 H   0  0  0  0  0  0  0  0  0  0  0  0
   36.8640   26.4710   36.1310 H   0  0  0  0  0  0  0  0  0  0  0  0
   38.9180   25.9080   31.6720 H   0  0  0  0  0  0  0  0  0  0  0  0
   38.0850   21.8700   33.6520 C   0  0  0  0  0  0  0  0  0  0  0  0
   39.2140   21.4200   33.4270 O   0  0  0  0  0  0  0  0  0  0  0  0
   38.0610   22.7410   34.7750 N   0  0  0  0  0  0  0  0  0  0  0  0
   37.1390   23.1530   35.1240 H   0  0  0  0  0  0  0  0  0  0  0  0
   36.8150   21.6540   32.9650 C   0  0  0  0  0  3  0  0  0  0  0  0
   35.8530   20.8670   33.7870 C   0  0  0  0  0  2  0  0  0  0  0  0
   35.4560   19.5690   33.1150 C   0  0  0  0  0  2  0  0  0  0  0  0
   34.9460   19.7640   31.7230 C   0  0  0  0  0  2  0  0  0  0  0  0
   35.5960   20.9280   31.0010 C   0  0  0  0  0  2  0  0  0  0  0  0
   36.9970   21.0860   31.6020 C   0  0  0  0  0  2  0  0  0  0  0  0
  1  7  1  1  0  0  0
  1  2  1  0  0  0  0
  2  8  1  0  0  0  0
  2  3  1  0  0  0  0
  3 11  1  0  0  0  0
  3 10  1  0  0  0  0
  4 12  1  0  0  0  0
  4  3  1  0  0  0  0
  4 13  1  0  0  0  0
  5 14  1  0  0  0  0
  5  4  1  0  0  0  0
  6 16  1  6  0  0  0
  6  1  1  0  0  0  0
  6  5  1  0  0  0  0
  9  2  1  0  0  0  0
 15  5  1  0  0  0  0
 17 23  1  0  0  0  0
 17 18  1  0  0  0  0
 18 24  1  0  0  0  0
 19 18  2  0  0  0  0
 19  1  1  0  0  0  0
 20 19  1  0  0  0  0
 21 22  1  0  0  0  0
 21 20  2  0  0  0  0
 22 17  2  0  0  0  0
 25 21  1  0  0  0  0
 26 28  1  0  0  0  0
 27 26  2  0  0  0  0
 28 29  1  0  0  0  0
 28  6  1  0  0  0  0
 30 26  1  0  0  0  0
 30 31  1  0  0  0  0
 32 31  1  0  0  0  0
 33 32  1  0  0  0  0
 34 35  1  0  0  0  0
 34 33  1  0  0  0  0
 35 30  1  0  0  0  0
M  END
>  <minimizedAffinity>
-5.48547125

$$$$

 OpenBabel03262523563D

 35 37  0  0  1  0  0  0  0  0999 V2000
   37.1340   21.0740   33.2710 C   0  0  1  0  0  0  0  0  0  0  0  0
   35.8200   20.6860   33.7600 C   0  0  0  0  0  0  0  0  0  0  0  0
   35.3010   19.5550   32.9290 C   0  0  0  0  0  0  0  0  0  0  0  0
   35.6110   19.7550   31.4880 C   0  0  0  0  0  0  0  0  0  0  0  0
   35.9090   21.1460   31.0910 C   0  0  0  0  0  0  0  0  0  0  0  0
   36.9460   21.8500   31.9640 C   0  0  1  0  0  0  0  0  0  0  0  0
   37.7570   20.1840   32.9900 H   0  0  0  0  0  0  0  0  0  0  0  0
   35.8610   20.4330   34.8410 H   0  0  0  0  0  0  0  0  0  0  0  0
   35.0820   21.5130   33.6890 H   0  0  0  0  0  0  0  0  0  0  0  0
   34.2060   19.5120   33.0990 H   0  0  0  0  0  0  0  0  0  0  0  0
   35.7200   18.6110   33.3600 H   0  0  0  0  0  0  0  0  0  0  0  0
   36.4430   19.0690   31.2250 H   0  0  0  0  0  0  0  0  0  0  0  0
   34.7290   19.4240   30.9080 H   0  0  0  0  0  0  0  0  0  0  0  0
   35.0000   21.7810   31.0950 H   0  0  0  0  0  0  0  0  0  0  0  0
   36.2720   21.1570   30.0430 H   0  0  0  0  0  0  0  0  0  0  0  0
   37.9210   21.7950   31.4260 H   0  0  0  0  0  0  0  0  0  0  0  0
   38.3000   22.8530   36.3130 C   0  0  0  0  0  0  0  0  0  0  0  0
   37.5320   21.9980   35.4750 C   0  0  0  0  0  0  0  0  0  0  0  0
   37.9370   21.9410   34.1470 C   0  0  0  0  0  0  0  0  0  0  0  0
   39.0220   22.6790   33.6950 N   0  0  0  0  0  0  0  0  0  0  0  0
   39.7090   23.4700   34.5350 C   0  0  0  0  0  0  0  0  0  0  0  0
   39.3570   23.5680   35.8550 N   0  0  0  0  0  0  0  0  0  0  0  0
   38.0100   22.9190   37.3500 H   0  0  0  0  0  0  0  0  0  0  0  0
   36.7000   21.4410   35.8540 H   0  0  0  0  0  0  0  0  0  0  0  0
   40.5580   24.0570   34.2130 H   0  0  0  0  0  0  0  0  0  0  0  0
   36.8870   24.4190   31.4370 C   0  0  0  0  0  0  0  0  0  0  0  0
   37.5310   24.2020   30.4050 O   0  0  0  0  0  0  0  0  0  0  0  0
   36.5920   23.2260   32.1540 N   0  0  0  0  0  0  0  0  0  0  0  0
   35.9850   23.2570   33.0330 H   0  0  0  0  0  0  0  0  0  0  0  0
   36.4000   25.6670   32.0150 C   0  0  0  0  0  3  0  0  0  0  0  0
   35.8460   26.5900   30.9850 C   0  0  0  0  0  2  0  0  0  0  0  0
   36.5950   27.9050   30.9340 C   0  0  0  0  0  2  0  0  0  0  0  0
   36.6910   28.5760   32.2660 C   0  0  0  0  0  2  0  0  0  0  0  0
   36.7660   27.6020   33.4270 C   0  0  0  0  0  2  0  0  0  0  0  0
   37.4140   26.3240   32.8820 C   0  0  0  0  0  2  0  0  0  0  0  0
  1  7  1  6  0  0  0
  1  2  1  0  0  0  0
  1 19  1  0  0  0  0
  2  8  1  0  0  0  0
  3 10  1  0  0  0  0
  3 11  1  0  0  0  0
  3  2  1  0  0  0  0
  4  3  1  0  0  0  0
  5 14  1  0  0  0  0
  5  4  1  0  0  0  0
  5  6  1  0  0  0  0
  6 16  1  6  0  0  0
  6 28  1  0  0  0  0
  6  1  1  0  0  0  0
  9  2  1  0  0  0  0
 12  4  1  0  0  0  0
 13  4  1  0  0  0  0
 15  5  1  0  0  0  0
 17 23  1  0  0  0  0
 18 24  1  0  0  0  0
 18 17  2  0  0  0  0
 19 18  1  0  0  0  0
 20 19  2  0  0  0  0
 20 21  1  0  0  0  0
 21 22  2  0  0  0  0
 22 17  1  0  0  0  0
 25 21  1  0  0  0  0
 26 30  1  0  0  0  0
 26 28  1  0  0  0  0
 27 26  2  0  0  0  0
 28 29  1  0  0  0  0
 30 35  1  0  0  0  0
 31 30  1  0  0  0  0
 32 31  1  0  0  0  0
 32 33  1  0  0  0  0
 33 34  1  0  0  0  0
 35 34  1  0  0  0  0
M  END
>  <minimizedAffinity>
-5.36471176

$$$$

 OpenBabel03262523563D

 35 37  0  0  1  0  0  0  0  0999 V2000
   40.1730   24.7500   35.3290 C   0  0  1  0  0  0  0  0  0  0  0  0
   40.1510   25.6560   34.1900 C   0  0  0  0  0  0  0  0  0  0  0  0
   39.7560   27.0210   34.6570 C   0  0  0  0  0  0  0  0  0  0  0  0
   38.6680   26.9540   35.6690 C   0  0  0  0  0  0  0  0  0  0  0  0
   37.8860   25.7020   35.6760 C   0  0  0  0  0  0  0  0  0  0  0  0
   38.7250   24.4260   35.7060 C   0  0  1  0  0  0  0  0  0  0  0  0
   40.6070   25.2340   36.2430 H   0  0  0  0  0  0  0  0  0  0  0  0
   41.1310   25.6540   33.6670 H   0  0  0  0  0  0  0  0  0  0  0  0
   39.4160   25.3450   33.4180 H   0  0  0  0  0  0  0  0  0  0  0  0
   39.4300   27.5820   33.7580 H   0  0  0  0  0  0  0  0  0  0  0  0
   40.6860   27.5280   35.0190 H   0  0  0  0  0  0  0  0  0  0  0  0
   39.1200   27.1570   36.6620 H   0  0  0  0  0  0  0  0  0  0  0  0
   37.9670   27.7840   35.4610 H   0  0  0  0  0  0  0  0  0  0  0  0
   37.2180   25.6260   34.7940 H   0  0  0  0  0  0  0  0  0  0  0  0
   37.2130   25.6960   36.5570 H   0  0  0  0  0  0  0  0  0  0  0  0
   38.7510   24.0740   36.7640 H   0  0  0  0  0  0  0  0  0  0  0  0
   42.0850   21.6550   36.0640 C   0  0  0  0  0  0  0  0  0  0  0  0
   41.4220   22.8970   36.2650 C   0  0  0  0  0  0  0  0  0  0  0  0
   40.8420   23.4540   35.1320 C   0  0  0  0  0  0  0  0  0  0  0  0
   40.9190   22.8200   33.9000 N   0  0  0  0  0  0  0  0  0  0  0  0
   41.5590   21.6470   33.7740 C   0  0  0  0  0  0  0  0  0  0  0  0
   42.1500   21.0480   34.8540 N   0  0  0  0  0  0  0  0  0  0  0  0
   42.5460   21.1960   36.9260 H   0  0  0  0  0  0  0  0  0  0  0  0
   41.3810   23.3610   37.2280 H   0  0  0  0  0  0  0  0  0  0  0  0
   41.6350   21.1290   32.8270 H   0  0  0  0  0  0  0  0  0  0  0  0
   37.3840   22.2330   35.1810 C   0  0  0  0  0  0  0  0  0  0  0  0
   37.1630   22.1020   36.3900 O   0  0  0  0  0  0  0  0  0  0  0  0
   38.1270   23.4110   34.8900 N   0  0  0  0  0  0  0  0  0  0  0  0
   38.3350   23.6850   33.8780 H   0  0  0  0  0  0  0  0  0  0  0  0
   37.0150   21.3950   34.0450 C   0  0  0  0  0  3  0  0  0  0  0  0
   37.0290   22.1460   32.7580 C   0  0  0  0  0  2  0  0  0  0  0  0
   35.6700   22.1630   32.0900 C   0  0  0  0  0  2  0  0  0  0  0  0
   35.0890   20.7970   31.9130 C   0  0  0  0  0  2  0  0  0  0  0  0
   35.4830   19.8270   33.0120 C   0  0  0  0  0  2  0  0  0  0  0  0
   35.7350   20.6700   34.2670 C   0  0  0  0  0  2  0  0  0  0  0  0
  1  6  1  0  0  0  0
  1  7  1  1  0  0  0
  2  3  1  0  0  0  0
  2  1  1  0  0  0  0
  3 11  1  0  0  0  0
  3  4  1  0  0  0  0
  4  5  1  0  0  0  0
  4 12  1  0  0  0  0
  5  6  1  0  0  0  0
  5 15  1  0  0  0  0
  6 16  1  1  0  0  0
  8  2  1  0  0  0  0
  9  2  1  0  0  0  0
 10  3  1  0  0  0  0
 13  4  1  0  0  0  0
 14  5  1  0  0  0  0
 17 18  1  0  0  0  0
 17 23  1  0  0  0  0
 18 24  1  0  0  0  0
 19  1  1  0  0  0  0
 19 18  2  0  0  0  0
 20 19  1  0  0  0  0
 21 20  2  0  0  0  0
 21 22  1  0  0  0  0
 22 17  2  0  0  0  0
 25 21  1  0  0  0  0
 26 27  2  0  0  0  0
 28 26  1  0  0  0  0
 28  6  1  0  0  0  0
 29 28  1  0  0  0  0
 30 35  1  0  0  0  0
 30 26  1  0  0  0  0
 31 30  1  0  0  0  0
 32 31  1  0  0  0  0
 33 32  1  0  0  0  0
 33 34  1  0  0  0  0
 34 35  1  0  0  0  0
M  END
>  <minimizedAffinity>
-5.28492212

$$$$

 OpenBabel03262523563D

 35 37  0  0  1  0  0  0  0  0999 V2000
   35.9820   21.6430   31.6310 C   0  0  1  0  0  0  0  0  0  0  0  0
   36.8140   20.6640   30.9490 C   0  0  0  0  0  0  0  0  0  0  0  0
   36.0410   19.3940   30.7830 C   0  0  0  0  0  0  0  0  0  0  0  0
   35.2420   19.0840   31.9980 C   0  0  0  0  0  0  0  0  0  0  0  0
   35.6890   19.7490   33.2380 C   0  0  0  0  0  0  0  0  0  0  0  0
   35.9050   21.2560   33.1100 C   0  0  1  0  0  0  0  0  0  0  0  0
   34.9200   21.6160   31.2710 H   0  0  0  0  0  0  0  0  0  0  0  0
   37.1820   21.0660   29.9810 H   0  0  0  0  0  0  0  0  0  0  0  0
   37.7330   20.4190   31.5230 H   0  0  0  0  0  0  0  0  0  0  0  0
   36.7830   18.5950   30.5790 H   0  0  0  0  0  0  0  0  0  0  0  0
   35.4320   19.4990   29.8500 H   0  0  0  0  0  0  0  0  0  0  0  0
   34.1800   19.3160   31.7710 H   0  0  0  0  0  0  0  0  0  0  0  0
   35.3010   17.9920   32.1660 H   0  0  0  0  0  0  0  0  0  0  0  0
   36.6380   19.3200   33.6200 H   0  0  0  0  0  0  0  0  0  0  0  0
   34.9420   19.5720   34.0380 H   0  0  0  0  0  0  0  0  0  0  0  0
   34.9940   21.7550   33.5160 H   0  0  0  0  0  0  0  0  0  0  0  0
   35.8980   25.3490   31.4270 C   0  0  0  0  0  0  0  0  0  0  0  0
   35.4460   24.0010   31.4770 C   0  0  0  0  0  0  0  0  0  0  0  0
   36.4420   23.0410   31.6000 C   0  0  0  0  0  0  0  0  0  0  0  0
   37.7810   23.3990   31.6680 N   0  0  0  0  0  0  0  0  0  0  0  0
   38.1470   24.6900   31.6170 C   0  0  0  0  0  0  0  0  0  0  0  0
   37.2110   25.6820   31.4950 N   0  0  0  0  0  0  0  0  0  0  0  0
   35.1480   26.1190   31.3310 H   0  0  0  0  0  0  0  0  0  0  0  0
   34.4050   23.7580   31.4220 H   0  0  0  0  0  0  0  0  0  0  0  0
   39.1820   25.0000   31.6670 H   0  0  0  0  0  0  0  0  0  0  0  0
   37.2930   21.7850   35.2720 C   0  0  0  0  0  0  0  0  0  0  0  0
   36.3430   21.3900   35.9560 O   0  0  0  0  0  0  0  0  0  0  0  0
   37.0450   21.6670   33.8770 N   0  0  0  0  0  0  0  0  0  0  0  0
   37.8060   21.9110   33.1670 H   0  0  0  0  0  0  0  0  0  0  0  0
   38.5870   22.3370   35.6620 C   0  0  0  0  0  3  0  0  0  0  0  0
   38.4780   23.7330   36.1700 C   0  0  0  0  0  2  0  0  0  0  0  0
   39.2770   24.7100   35.3320 C   0  0  0  0  0  2  0  0  0  0  0  0
   40.7060   24.3050   35.1660 C   0  0  0  0  0  2  0  0  0  0  0  0
   40.9070   22.8020   35.1380 C   0  0  0  0  0  2  0  0  0  0  0  0
   39.6090   22.2000   34.5890 C   0  0  0  0  0  2  0  0  0  0  0  0
  1  7  1  6  0  0  0
  1  6  1  0  0  0  0
  2  9  1  0  0  0  0
  2  1  1  0  0  0  0
  3  2  1  0  0  0  0
  3  4  1  0  0  0  0
  4 13  1  0  0  0  0
  4  5  1  0  0  0  0
  5 14  1  0  0  0  0
  5 15  1  0  0  0  0
  6  5  1  0  0  0  0
  6 16  1  1  0  0  0
  6 28  1  0  0  0  0
  8  2  1  0  0  0  0
 10  3  1  0  0  0  0
 11  3  1  0  0  0  0
 12  4  1  0  0  0  0
 17 18  2  0  0  0  0
 17 22  1  0  0  0  0
 18 19  1  0  0  0  0
 19  1  1  0  0  0  0
 19 20  2  0  0  0  0
 21 25  1  0  0  0  0
 21 20  1  0  0  0  0
 22 21  2  0  0  0  0
 23 17  1  0  0  0  0
 24 18  1  0  0  0  0
 26 30  1  0  0  0  0
 26 27  2  0  0  0  0
 28 26  1  0  0  0  0
 29 28  1  0  0  0  0
 30 31  1  0  0  0  0
 32 31  1  0  0  0  0
 33 32  1  0  0  0  0
 34 33  1  0  0  0  0
 35 34  1  0  0  0  0
 35 30  1  0  0  0  0
M  END
>  <minimizedAffinity>
-5.27587509

$$$$

 OpenBabel03262523563D

 35 37  0  0  1  0  0  0  0  0999 V2000
   37.4970   21.4750   33.1400 C   0  0  1  0  0  0  0  0  0  0  0  0
   36.1720   21.3650   33.7320 C   0  0  0  0  0  0  0  0  0  0  0  0
   35.2620   20.6650   32.7730 C   0  0  0  0  0  0  0  0  0  0  0  0
   35.4990   21.1150   31.3760 C   0  0  0  0  0  0  0  0  0  0  0  0
   36.1770   22.4190   31.2360 C   0  0  0  0  0  0  0  0  0  0  0  0
   37.4500   22.5670   32.0680 C   0  0  1  0  0  0  0  0  0  0  0  0
   37.7890   20.5430   32.5890 H   0  0  0  0  0  0  0  0  0  0  0  0
   36.2230   20.8560   34.7180 H   0  0  0  0  0  0  0  0  0  0  0  0
   35.7240   22.3580   33.9480 H   0  0  0  0  0  0  0  0  0  0  0  0
   34.2260   20.8920   33.0960 H   0  0  0  0  0  0  0  0  0  0  0  0
   35.4030   19.5660   32.9290 H   0  0  0  0  0  0  0  0  0  0  0  0
   36.0530   20.3090   30.8520 H   0  0  0  0  0  0  0  0  0  0  0  0
   34.5130   21.1980   30.8810 H   0  0  0  0  0  0  0  0  0  0  0  0
   35.5140   23.2640   31.5110 H   0  0  0  0  0  0  0  0  0  0  0  0
   36.4380   22.5830   30.1710 H   0  0  0  0  0  0  0  0  0  0  0  0
   38.3120   22.3730   31.3880 H   0  0  0  0  0  0  0  0  0  0  0  0
   39.3150   22.3940   36.2430 C   0  0  0  0  0  0  0  0  0  0  0  0
   38.2490   22.0220   35.3770 C   0  0  0  0  0  0  0  0  0  0  0  0
   38.5990   21.8400   34.0450 C   0  0  0  0  0  0  0  0  0  0  0  0
   39.9060   22.0150   33.6150 N   0  0  0  0  0  0  0  0  0  0  0  0
   40.8700   22.3670   34.4810 C   0  0  0  0  0  0  0  0  0  0  0  0
   40.5870   22.5610   35.8060 N   0  0  0  0  0  0  0  0  0  0  0  0
   39.0760   22.5430   37.2850 H   0  0  0  0  0  0  0  0  0  0  0  0
   37.2510   21.8940   35.7410 H   0  0  0  0  0  0  0  0  0  0  0  0
   41.8970   22.5110   34.1750 H   0  0  0  0  0  0  0  0  0  0  0  0
   38.3460   25.0270   32.2390 C   0  0  0  0  0  0  0  0  0  0  0  0
   39.0350   24.8250   31.2330 O   0  0  0  0  0  0  0  0  0  0  0  0
   37.5560   23.8980   32.5910 N   0  0  0  0  0  0  0  0  0  0  0  0
   36.8640   23.9520   33.4040 H   0  0  0  0  0  0  0  0  0  0  0  0
   38.2230   26.2030   33.0930 C   0  0  0  0  0  3  0  0  0  0  0  0
   39.5490   26.7640   33.4790 C   0  0  0  0  0  2  0  0  0  0  0  0
   39.7580   26.7560   34.9790 C   0  0  0  0  0  2  0  0  0  0  0  0
   38.6490   27.4240   35.7270 C   0  0  0  0  0  2  0  0  0  0  0  0
   37.2950   27.2750   35.0580 C   0  0  0  0  0  2  0  0  0  0  0  0
   37.3430   25.9630   34.2670 C   0  0  0  0  0  2  0  0  0  0  0  0
  1  7  1  6  0  0  0
  1  2  1  0  0  0  0
  1 19  1  0  0  0  0
  2  9  1  0  0  0  0
  2  8  1  0  0  0  0
  3 11  1  0  0  0  0
  3 10  1  0  0  0  0
  3  2  1  0  0  0  0
  4  3  1  0  0  0  0
  5  4  1  0  0  0  0
  5 14  1  0  0  0  0
  5  6  1  0  0  0  0
  6 16  1  6  0  0  0
  6 28  1  0  0  0  0
  6  1  1  0  0  0  0
 12  4  1  0  0  0  0
 13  4  1  0  0  0  0
 15  5  1  0  0  0  0
 17 23  1  0  0  0  0
 18 24  1  0  0  0  0
 18 17  2  0  0  0  0
 19 18  1  0  0  0  0
 20 19  2  0  0  0  0
 20 21  1  0  0  0  0
 21 22  2  0  0  0  0
 22 17  1  0  0  0  0
 25 21  1  0  0  0  0
 26 28  1  0  0  0  0
 26 30  1  0  0  0  0
 27 26  2  0  0  0  0
 28 29  1  0  0  0  0
 30 31  1  0  0  0  0
 30 35  1  0  0  0  0
 31 32  1  0  0  0  0
 32 33  1  0  0  0  0
 34 33  1  0  0  0  0
 35 34  1  0  0  0  0
M  END
>  <minimizedAffinity>
-5.19871473

$$$$

 OpenBabel03262523563D

 35 37  0  0  1  0  0  0  0  0999 V2000
   36.8420   23.7140   31.1520 C   0  0  1  0  0  0  0  0  0  0  0  0
   35.4590   23.9280   31.5490 C   0  0  0  0  0  0  0  0  0  0  0  0
   34.9950   25.2470   31.0190 C   0  0  0  0  0  0  0  0  0  0  0  0
   36.0520   26.2850   31.1480 C   0  0  0  0  0  0  0  0  0  0  0  0
   37.1050   25.9960   32.1420 C   0  0  0  0  0  0  0  0  0  0  0  0
   37.7310   24.6070   32.0220 C   0  0  1  0  0  0  0  0  0  0  0  0
   37.0350   24.0530   30.1010 H   0  0  0  0  0  0  0  0  0  0  0  0
   34.8180   23.0860   31.2100 H   0  0  0  0  0  0  0  0  0  0  0  0
   35.3360   23.9530   32.6530 H   0  0  0  0  0  0  0  0  0  0  0  0
   34.0920   25.5240   31.6010 H   0  0  0  0  0  0  0  0  0  0  0  0
   34.6480   25.0770   29.9690 H   0  0  0  0  0  0  0  0  0  0  0  0
   36.4800   26.4570   30.1390 H   0  0  0  0  0  0  0  0  0  0  0  0
   35.5590   27.2280   31.4510 H   0  0  0  0  0  0  0  0  0  0  0  0
   36.7320   26.0920   33.1820 H   0  0  0  0  0  0  0  0  0  0  0  0
   37.9140   26.7490   32.0480 H   0  0  0  0  0  0  0  0  0  0  0  0
   38.6910   24.7250   31.4680 H   0  0  0  0  0  0  0  0  0  0  0  0
   36.9640   20.0660   31.8320 C   0  0  0  0  0  0  0  0  0  0  0  0
   36.4440   21.3810   31.6720 C   0  0  0  0  0  0  0  0  0  0  0  0
   37.3700   22.3480   31.2990 C   0  0  0  0  0  0  0  0  0  0  0  0
   38.7060   22.0260   31.1030 N   0  0  0  0  0  0  0  0  0  0  0  0
   39.1370   20.7660   31.2700 C   0  0  0  0  0  0  0  0  0  0  0  0
   38.2730   19.7690   31.6360 N   0  0  0  0  0  0  0  0  0  0  0  0
   36.2700   19.2930   32.1210 H   0  0  0  0  0  0  0  0  0  0  0  0
   35.4080   21.5970   31.8300 H   0  0  0  0  0  0  0  0  0  0  0  0
   40.1710   20.4850   31.1250 H   0  0  0  0  0  0  0  0  0  0  0  0
   39.1900   23.9160   34.0900 C   0  0  0  0  0  0  0  0  0  0  0  0
   40.1750   24.4180   33.5380 O   0  0  0  0  0  0  0  0  0  0  0  0
   38.0020   24.0650   33.3210 N   0  0  0  0  0  0  0  0  0  0  0  0
   37.0620   23.7340   33.7060 H   0  0  0  0  0  0  0  0  0  0  0  0
   39.0610   23.2170   35.3640 C   0  0  0  0  0  3  0  0  0  0  0  0
   37.7730   23.5180   36.0490 C   0  0  0  0  0  2  0  0  0  0  0  0
   37.9820   24.1650   37.4020 C   0  0  0  0  0  2  0  0  0  0  0  0
   38.8950   23.3810   38.2890 C   0  0  0  0  0  2  0  0  0  0  0  0
   39.9740   22.6310   37.5310 C   0  0  0  0  0  2  0  0  0  0  0  0
   40.2390   23.4280   36.2480 C   0  0  0  0  0  2  0  0  0  0  0  0
  1  7  1  6  0  0  0
  1 19  1  0  0  0  0
  1  2  1  0  0  0  0
  1  6  1  0  0  0  0
  2  9  1  0  0  0  0
  3  4  1  0  0  0  0
  3  2  1  0  0  0  0
  3 10  1  0  0  0  0
  4 13  1  0  0  0  0
  4  5  1  0  0  0  0
  5 14  1  0  0  0  0
  6 16  1  6  0  0  0
  6  5  1  0  0  0  0
  6 28  1  0  0  0  0
  8  2  1  0  0  0  0
 11  3  1  0  0  0  0
 12  4  1  0  0  0  0
 15  5  1  0  0  0  0
 17 23  1  0  0  0  0
 18 24  1  0  0  0  0
 18 17  1  0  0  0  0
 19 18  2  0  0  0  0
 20 21  2  0  0  0  0
 20 19  1  0  0  0  0
 21 22  1  0  0  0  0
 22 17  2  0  0  0  0
 25 21  1  0  0  0  0
 26 30  1  0  0  0  0
 27 26  2  0  0  0  0
 28 29  1  0  0  0  0
 28 26  1  0  0  0  0
 30 31  1  0  0  0  0
 30 35  1  0  0  0  0
 31 32  1  0  0  0  0
 32 33  1  0  0  0  0
 34 33  1  0  0  0  0
 35 34  1  0  0  0  0
M  END
>  <minimizedAffinity>
-5.14855051

$$$$

 OpenBabel03262523563D

 35 37  0  0  1  0  0  0  0  0999 V2000
   38.6170   25.6750   33.4320 C   0  0  1  0  0  0  0  0  0  0  0  0
   39.7950   25.6280   32.5780 C   0  0  0  0  0  0  0  0  0  0  0  0
   39.9850   26.9630   31.9300 C   0  0  0  0  0  0  0  0  0  0  0  0
   38.6860   27.5460   31.5010 C   0  0  0  0  0  0  0  0  0  0  0  0
   37.5790   26.5820   31.3450 C   0  0  0  0  0  0  0  0  0  0  0  0
   37.3770   25.6460   32.5350 C   0  0  1  0  0  0  0  0  0  0  0  0
   38.5440   26.6440   33.9930 H   0  0  0  0  0  0  0  0  0  0  0  0
   40.6870   25.3060   33.1560 H   0  0  0  0  0  0  0  0  0  0  0  0
   39.6960   24.8770   31.7650 H   0  0  0  0  0  0  0  0  0  0  0  0
   40.6560   26.8010   31.0620 H   0  0  0  0  0  0  0  0  0  0  0  0
   40.5560   27.6000   32.6510 H   0  0  0  0  0  0  0  0  0  0  0  0
   38.4270   28.3530   32.2170 H   0  0  0  0  0  0  0  0  0  0  0  0
   38.8470   28.0310   30.5190 H   0  0  0  0  0  0  0  0  0  0  0  0
   37.7100   25.9410   30.4500 H   0  0  0  0  0  0  0  0  0  0  0  0
   36.6330   27.1360   31.1750 H   0  0  0  0  0  0  0  0  0  0  0  0
   36.5420   26.0640   33.1440 H   0  0  0  0  0  0  0  0  0  0  0  0
   37.7990   23.8630   36.5660 C   0  0  0  0  0  0  0  0  0  0  0  0
   37.9390   24.9290   35.6340 C   0  0  0  0  0  0  0  0  0  0  0  0
   38.4510   24.5730   34.3930 C   0  0  0  0  0  0  0  0  0  0  0  0
   38.7940   23.2600   34.1070 N   0  0  0  0  0  0  0  0  0  0  0  0
   38.6380   22.2960   35.0280 C   0  0  0  0  0  0  0  0  0  0  0  0
   38.1390   22.5840   36.2700 N   0  0  0  0  0  0  0  0  0  0  0  0
   37.4040   24.1070   37.5400 H   0  0  0  0  0  0  0  0  0  0  0  0
   37.6650   25.9320   35.8860 H   0  0  0  0  0  0  0  0  0  0  0  0
   38.8970   21.2640   34.8350 H   0  0  0  0  0  0  0  0  0  0  0  0
   35.8180   23.7710   31.5680 C   0  0  0  0  0  0  0  0  0  0  0  0
   34.9270   24.6140   31.4220 O   0  0  0  0  0  0  0  0  0  0  0  0
   37.0180   24.3320   32.0860 N   0  0  0  0  0  0  0  0  0  0  0  0
   37.8930   23.7310   32.2020 H   0  0  0  0  0  0  0  0  0  0  0  0
   35.8300   22.3360   31.3010 C   0  0  0  0  0  3  0  0  0  0  0  0
   35.0690   21.5630   32.3230 C   0  0  0  0  0  2  0  0  0  0  0  0
   35.9430   20.5660   33.0540 C   0  0  0  0  0  2  0  0  0  0  0  0
   36.6890   19.6550   32.1310 C   0  0  0  0  0  2  0  0  0  0  0  0
   37.0650   20.3080   30.8150 C   0  0  0  0  0  2  0  0  0  0  0  0
   37.2060   21.8080   31.0970 C   0  0  0  0  0  2  0  0  0  0  0  0
  1  7  1  1  0  0  0
  1 19  1  0  0  0  0
  2  8  1  0  0  0  0
  2  1  1  0  0  0  0
  3  2  1  0  0  0  0
  3 11  1  0  0  0  0
  4  3  1  0  0  0  0
  4 12  1  0  0  0  0
  5  4  1  0  0  0  0
  5  6  1  0  0  0  0
  6 16  1  1  0  0  0
  6  1  1  0  0  0  0
  9  2  1  0  0  0  0
 10  3  1  0  0  0  0
 13  4  1  0  0  0  0
 14  5  1  0  0  0  0
 15  5  1  0  0  0  0
 17 23  1  0  0  0  0
 18 24  1  0  0  0  0
 18 17  2  0  0  0  0
 19 18  1  0  0  0  0
 20 19  2  0  0  0  0
 20 21  1  0  0  0  0
 21 22  2  0  0  0  0
 22 17  1  0  0  0  0
 25 21  1  0  0  0  0
 26 28  1  0  0  0  0
 27 26  2  0  0  0  0
 28 29  1  0  0  0  0
 28  6  1  0  0  0  0
 30 26  1  0  0  0  0
 30 31  1  0  0  0  0
 31 32  1  0  0  0  0
 33 32  1  0  0  0  0
 34 35  1  0  0  0  0
 34 33  1  0  0  0  0
 35 30  1  0  0  0  0
M  END
>  <minimizedAffinity>
-5.14517736

$$$$

 OpenBabel03262523563D

 35 37  0  0  1  0  0  0  0  0999 V2000
   38.8270   24.9430   36.3090 C   0  0  1  0  0  0  0  0  0  0  0  0
   37.6510   24.6600   37.1190 C   0  0  0  0  0  0  0  0  0  0  0  0
   38.0870   24.2440   38.4880 C   0  0  0  0  0  0  0  0  0  0  0  0
   39.2750   23.3500   38.4300 C   0  0  0  0  0  0  0  0  0  0  0  0
   39.5000   22.6790   37.1350 C   0  0  0  0  0  0  0  0  0  0  0  0
   39.4700   23.6090   35.9220 C   0  0  1  0  0  0  0  0  0  0  0  0
   39.6170   25.4860   36.8920 H   0  0  0  0  0  0  0  0  0  0  0  0
   36.9680   25.5360   37.1390 H   0  0  0  0  0  0  0  0  0  0  0  0
   37.0410   23.8320   36.7010 H   0  0  0  0  0  0  0  0  0  0  0  0
   37.2230   23.7280   38.9540 H   0  0  0  0  0  0  0  0  0  0  0  0
   38.2480   25.1790   39.0810 H   0  0  0  0  0  0  0  0  0  0  0  0
   40.1590   23.9450   38.7410 H   0  0  0  0  0  0  0  0  0  0  0  0
   39.1360   22.5620   39.1940 H   0  0  0  0  0  0  0  0  0  0  0  0
   38.7540   21.8810   36.9450 H   0  0  0  0  0  0  0  0  0  0  0  0
   40.4830   22.1670   37.1540 H   0  0  0  0  0  0  0  0  0  0  0  0
   40.5290   23.8390   35.6580 H   0  0  0  0  0  0  0  0  0  0  0  0
   39.4500   27.1340   33.3790 C   0  0  0  0  0  0  0  0  0  0  0  0
   39.6780   26.4190   34.5870 C   0  0  0  0  0  0  0  0  0  0  0  0
   38.6040   25.6680   35.0480 C   0  0  0  0  0  0  0  0  0  0  0  0
   37.4010   25.6350   34.3570 N   0  0  0  0  0  0  0  0  0  0  0  0
   37.2470   26.3320   33.2200 C   0  0  0  0  0  0  0  0  0  0  0  0
   38.2680   27.0910   32.7160 N   0  0  0  0  0  0  0  0  0  0  0  0
   40.2660   27.7280   32.9950 H   0  0  0  0  0  0  0  0  0  0  0  0
   40.6180   26.4660   35.0970 H   0  0  0  0  0  0  0  0  0  0  0  0
   36.3220   26.3260   32.6600 H   0  0  0  0  0  0  0  0  0  0  0  0
   37.7730   22.0270   34.6970 C   0  0  0  0  0  0  0  0  0  0  0  0
   37.2510   21.7750   35.7880 O   0  0  0  0  0  0  0  0  0  0  0  0
   38.8390   22.9620   34.8090 N   0  0  0  0  0  0  0  0  0  0  0  0
   39.3400   23.3210   33.9360 H   0  0  0  0  0  0  0  0  0  0  0  0
   37.4770   21.5300   33.3580 C   0  0  0  0  0  3  0  0  0  0  0  0
   38.6870   20.9980   32.6700 C   0  0  0  0  0  2  0  0  0  0  0  0
   38.9960   21.7500   31.3920 C   0  0  0  0  0  2  0  0  0  0  0  0
   37.8310   21.8200   30.4590 C   0  0  0  0  0  2  0  0  0  0  0  0
   36.4920   21.8700   31.1700 C   0  0  0  0  0  2  0  0  0  0  0  0
   36.7460   22.5280   32.5310 C   0  0  0  0  0  2  0  0  0  0  0  0
  1  7  1  1  0  0  0
  1  2  1  0  0  0  0
  2  8  1  0  0  0  0
  2  3  1  0  0  0  0
  3 10  1  0  0  0  0
  3 11  1  0  0  0  0
  4  3  1  0  0  0  0
  4 12  1  0  0  0  0
  4 13  1  0  0  0  0
  5 15  1  0  0  0  0
  5  4  1  0  0  0  0
  6 16  1  6  0  0  0
  6  1  1  0  0  0  0
  6  5  1  0  0  0  0
  9  2  1  0  0  0  0
 14  5  1  0  0  0  0
 17 18  1  0  0  0  0
 18 19  2  0  0  0  0
 18 24  1  0  0  0  0
 19  1  1  0  0  0  0
 20 19  1  0  0  0  0
 21 20  2  0  0  0  0
 22 21  1  0  0  0  0
 22 17  2  0  0  0  0
 23 17  1  0  0  0  0
 25 21  1  0  0  0  0
 26 28  1  0  0  0  0
 26 27  2  0  0  0  0
 28  6  1  0  0  0  0
 29 28  1  0  0  0  0
 30 26  1  0  0  0  0
 31 30  1  0  0  0  0
 32 31  1  0  0  0  0
 33 34  1  0  0  0  0
 33 32  1  0  0  0  0
 34 35  1  0  0  0  0
 35 30  1  0  0  0  0
M  END
>  <minimizedAffinity>
-5.09821939

$$$$

 OpenBabel03262523563D

 35 37  0  0  1  0  0  0  0  0999 V2000
   36.0750   21.9660   31.0960 C   0  0  1  0  0  0  0  0  0  0  0  0
   37.1830   21.1790   30.5790 C   0  0  0  0  0  0  0  0  0  0  0  0
   36.7250   19.7720   30.3570 C   0  0  0  0  0  0  0  0  0  0  0  0
   35.8380   19.3120   31.4590 C   0  0  0  0  0  0  0  0  0  0  0  0
   35.9500   20.0690   32.7210 C   0  0  0  0  0  0  0  0  0  0  0  0
   35.8640   21.5870   32.5630 C   0  0  1  0  0  0  0  0  0  0  0  0
   35.1060   21.7100   30.5900 H   0  0  0  0  0  0  0  0  0  0  0  0
   37.5980   21.6400   29.6570 H   0  0  0  0  0  0  0  0  0  0  0  0
   38.0390   21.1400   31.2870 H   0  0  0  0  0  0  0  0  0  0  0  0
   37.6380   19.1460   30.2930 H   0  0  0  0  0  0  0  0  0  0  0  0
   36.2520   19.7360   29.3440 H   0  0  0  0  0  0  0  0  0  0  0  0
   34.7970   19.3110   31.0740 H   0  0  0  0  0  0  0  0  0  0  0  0
   36.0970   18.2590   31.6780 H   0  0  0  0  0  0  0  0  0  0  0  0
   36.9000   19.8550   33.2510 H   0  0  0  0  0  0  0  0  0  0  0  0
   35.1460   19.7460   33.4140 H   0  0  0  0  0  0  0  0  0  0  0  0
   34.8190   21.8850   32.8150 H   0  0  0  0  0  0  0  0  0  0  0  0
   35.2140   25.5770   31.0520 C   0  0  0  0  0  0  0  0  0  0  0  0
   35.0550   24.1640   31.0950 C   0  0  0  0  0  0  0  0  0  0  0  0
   36.2340   23.4290   31.0730 C   0  0  0  0  0  0  0  0  0  0  0  0
   37.4700   24.0560   31.0130 N   0  0  0  0  0  0  0  0  0  0  0  0
   37.5560   25.3950   30.9750 C   0  0  0  0  0  0  0  0  0  0  0  0
   36.4300   26.1740   30.9940 N   0  0  0  0  0  0  0  0  0  0  0  0
   34.3160   26.1760   31.0680 H   0  0  0  0  0  0  0  0  0  0  0  0
   34.0860   23.7110   31.1400 H   0  0  0  0  0  0  0  0  0  0  0  0
   38.5050   25.9130   30.9280 H   0  0  0  0  0  0  0  0  0  0  0  0
   38.1140   21.9880   33.8500 C   0  0  0  0  0  0  0  0  0  0  0  0
   38.6180   21.0500   33.2230 O   0  0  0  0  0  0  0  0  0  0  0  0
   36.7670   22.2380   33.4660 N   0  0  0  0  0  0  0  0  0  0  0  0
   36.2280   23.0610   33.8810 H   0  0  0  0  0  0  0  0  0  0  0  0
   38.6670   22.8490   34.8900 C   0  0  0  0  0  3  0  0  0  0  0  0
   38.3590   22.3530   36.2610 C   0  0  0  0  0  2  0  0  0  0  0  0
   37.5500   23.3520   37.0620 C   0  0  0  0  0  2  0  0  0  0  0  0
   38.1760   24.7090   37.1070 C   0  0  0  0  0  2  0  0  0  0  0  0
   38.9490   25.0570   35.8490 C   0  0  0  0  0  2  0  0  0  0  0  0
   38.2920   24.2770   34.7040 C   0  0  0  0  0  2  0  0  0  0  0  0
  1  7  1  6  0  0  0
  1  6  1  0  0  0  0
  2  1  1  0  0  0  0
  2  9  1  0  0  0  0
  3  2  1  0  0  0  0
  3  4  1  0  0  0  0
  4 13  1  0  0  0  0
  4  5  1  0  0  0  0
  5 14  1  0  0  0  0
  5 15  1  0  0  0  0
  6  5  1  0  0  0  0
  6 16  1  1  0  0  0
  6 28  1  0  0  0  0
  8  2  1  0  0  0  0
 10  3  1  0  0  0  0
 11  3  1  0  0  0  0
 12  4  1  0  0  0  0
 17 23  1  0  0  0  0
 17 18  1  0  0  0  0
 18 24  1  0  0  0  0
 19 18  2  0  0  0  0
 19  1  1  0  0  0  0
 20 19  1  0  0  0  0
 21 22  1  0  0  0  0
 21 20  2  0  0  0  0
 22 17  2  0  0  0  0
 25 21  1  0  0  0  0
 26 30  1  0  0  0  0
 27 26  2  0  0  0  0
 28 26  1  0  0  0  0
 28 29  1  0  0  0  0
 30 31  1  0  0  0  0
 31 32  1  0  0  0  0
 32 33  1  0  0  0  0
 34 33  1  0  0  0  0
 35 30  1  0  0  0  0
 35 34  1  0  0  0  0
M  END
>  <minimizedAffinity>
-5.07590914

$$$$
