
 OpenBabel03272508593D

 37 40  0  0  1  0  0  0  0  0999 V2000
   36.9310   26.5910   32.8800 C   0  0  0  0  0  0  0  0  0  0  0  0
   37.2680   26.1490   33.9820 O   0  0  0  0  0  0  0  0  0  0  0  0
   37.0240   25.7540   31.6990 N   0  0  0  0  0  0  0  0  0  0  0  0
   36.9570   26.0970   30.7380 H   0  0  0  0  0  0  0  0  0  0  0  0
   36.4270   27.9660   32.7100 C   0  0  0  0  0  0  0  0  0  0  0  0
   36.3730   28.4920   31.4400 C   0  0  0  0  0  0  0  0  0  0  0  0
   35.8960   29.7900   31.3060 C   0  0  0  0  0  0  0  0  0  0  0  0
   35.5140   30.4610   32.4300 C   0  0  0  0  0  0  0  0  0  0  0  0
   35.5640   29.9430   33.7060 C   0  0  0  0  0  0  0  0  0  0  0  0
   36.0360   28.6710   33.7990 N   0  0  0  0  0  0  0  0  0  0  0  0
   36.6820   27.9370   30.5570 H   0  0  0  0  0  0  0  0  0  0  0  0
   35.8640   30.1780   30.3040 H   0  0  0  0  0  0  0  0  0  0  0  0
   35.1620   31.4490   32.1980 H   0  0  0  0  0  0  0  0  0  0  0  0
   35.1260   30.6690   34.9090 C   0  0  2  0  0  3  0  0  0  0  0  0
   33.9320   30.4170   35.3190 O   0  0  0  0  0  1  0  0  0  0  0  0
   35.8120   31.6730   35.7640 C   0  0  0  0  0  3  0  0  0  0  0  0
   36.3500   32.7650   34.9330 C   0  0  0  0  0  2  0  0  0  0  0  0
   36.3580   34.0570   35.7610 C   0  0  0  0  0  2  0  0  0  0  0  0
   34.8800   34.4150   35.8920 C   0  0  0  0  0  2  0  0  0  0  0  0
   34.1420   33.3660   36.6800 C   0  0  0  0  0  2  0  0  0  0  0  0
   34.9260   32.1160   36.9030 C   0  0  0  0  0  2  0  0  0  0  0  0
   36.3820   23.3990   31.2140 C   0  0  2  0  0  0  0  0  0  0  0  0
   37.7200   23.6180   30.6040 C   0  0  0  0  0  0  0  0  0  0  0  0
   37.2260   24.3380   31.8770 C   0  0  1  0  0  0  0  0  0  0  0  0
   35.5420   23.7260   30.5690 H   0  0  0  0  0  0  0  0  0  0  0  0
   37.8020   24.2030   29.6910 H   0  0  0  0  0  0  0  0  0  0  0  0
   38.4390   22.7940   30.7050 H   0  0  0  0  0  0  0  0  0  0  0  0
   37.8000   24.0090   32.7780 H   0  0  0  0  0  0  0  0  0  0  0  0
   36.1270   20.7570   33.8200 C   0  0  0  0  0  0  0  0  0  0  0  0
   35.4490   19.7080   33.1070 C   0  0  0  0  0  0  0  0  0  0  0  0
   35.1040   19.9450   31.7240 C   0  0  0  0  0  0  0  0  0  0  0  0
   35.4240   21.1450   31.1350 N   0  0  0  0  0  0  0  0  0  0  0  0
   36.0690   22.0850   31.8910 C   0  0  0  0  0  0  0  0  0  0  0  0
   36.4330   21.9290   33.2230 N   0  0  0  0  0  0  0  0  0  0  0  0
   36.3700   20.5580   34.8380 H   0  0  0  0  0  0  0  0  0  0  0  0
   35.2000   18.7800   33.5620 H   0  0  0  0  0  0  0  0  0  0  0  0
   34.6010   19.1690   31.1930 H   0  0  0  0  0  0  0  0  0  0  0  0
  1  2  2  0  0  0  0
  3 24  1  0  0  0  0
  3  1  1  0  0  0  0
  4  3  1  0  0  0  0
  5  1  1  0  0  0  0
  5 10  1  0  0  0  0
  6  5  2  0  0  0  0
  7  6  1  0  0  0  0
  7  8  2  0  0  0  0
  8  9  1  0  0  0  0
  9 10  2  0  0  0  0
  9 14  1  0  0  0  0
 11  6  1  0  0  0  0
 12  7  1  0  0  0  0
 13  8  1  0  0  0  0
 14 15  1  6  0  0  0
 14 16  1  0  0  0  0
 16 21  1  0  0  0  0
 17 18  1  0  0  0  0
 17 16  1  0  0  0  0
 18 19  1  0  0  0  0
 19 20  1  0  0  0  0
 20 21  1  0  0  0  0
 22 25  1  6  0  0  0
 22 24  1  0  0  0  0
 22 33  1  0  0  0  0
 23 27  1  0  0  0  0
 23 22  1  0  0  0  0
 23 24  1  0  0  0  0
 24 28  1  1  0  0  0
 26 23  1  0  0  0  0
 29 35  1  0  0  0  0
 30 36  1  0  0  0  0
 30 29  2  0  0  0  0
 31 30  1  0  0  0  0
 32 31  2  0  0  0  0
 32 33  1  0  0  0  0
 33 34  2  0  0  0  0
 34 29  1  0  0  0  0
 37 31  1  0  0  0  0
M  END
>  <minimizedAffinity>
-5.96932554

$$$$

 OpenBabel03272508593D

 37 40  0  0  1  0  0  0  0  0999 V2000
   35.8440   25.1270   31.2640 C   0  0  0  0  0  0  0  0  0  0  0  0
   34.7580   25.2060   30.6830 O   0  0  0  0  0  0  0  0  0  0  0  0
   36.6930   26.2970   31.3830 N   0  0  0  0  0  0  0  0  0  0  0  0
   37.6760   26.2740   31.6660 H   0  0  0  0  0  0  0  0  0  0  0  0
   36.3240   23.8660   31.8550 C   0  0  0  0  0  0  0  0  0  0  0  0
   35.7810   22.6840   31.4080 C   0  0  0  0  0  0  0  0  0  0  0  0
   36.2490   21.5080   31.9820 C   0  0  0  0  0  0  0  0  0  0  0  0
   37.2090   21.5930   32.9460 C   0  0  0  0  0  0  0  0  0  0  0  0
   37.7590   22.7720   33.4000 C   0  0  0  0  0  0  0  0  0  0  0  0
   37.2780   23.9010   32.8170 N   0  0  0  0  0  0  0  0  0  0  0  0
   35.0160   22.6400   30.6350 H   0  0  0  0  0  0  0  0  0  0  0  0
   35.8080   20.5990   31.6150 H   0  0  0  0  0  0  0  0  0  0  0  0
   37.4900   20.6220   33.3080 H   0  0  0  0  0  0  0  0  0  0  0  0
   38.8130   22.8480   34.4260 C   0  0  2  0  0  3  0  0  0  0  0  0
   39.6640   21.8820   34.4370 O   0  0  0  0  0  1  0  0  0  0  0  0
   39.0900   23.8510   35.4870 C   0  0  0  0  0  3  0  0  0  0  0  0
   37.8570   24.1480   36.2400 C   0  0  0  0  0  2  0  0  0  0  0  0
   38.2360   24.5260   37.6780 C   0  0  0  0  0  2  0  0  0  0  0  0
   38.7070   23.2080   38.2880 C   0  0  0  0  0  2  0  0  0  0  0  0
   39.9490   22.7120   37.5990 C   0  0  0  0  0  2  0  0  0  0  0  0
   40.2690   23.4370   36.3350 C   0  0  0  0  0  2  0  0  0  0  0  0
   35.9460   28.5550   32.1150 C   0  0  2  0  0  0  0  0  0  0  0  0
   37.1270   28.7540   31.2350 C   0  0  0  0  0  0  0  0  0  0  0  0
   36.1270   27.5880   31.0820 C   0  0  1  0  0  0  0  0  0  0  0  0
   36.2100   28.3360   33.1690 H   0  0  0  0  0  0  0  0  0  0  0  0
   38.1210   28.5230   31.6130 H   0  0  0  0  0  0  0  0  0  0  0  0
   37.0720   29.5970   30.5340 H   0  0  0  0  0  0  0  0  0  0  0  0
   35.5340   27.6840   30.1410 H   0  0  0  0  0  0  0  0  0  0  0  0
   33.8470   31.4720   31.1570 C   0  0  0  0  0  0  0  0  0  0  0  0
   32.6260   31.1990   31.8660 C   0  0  0  0  0  0  0  0  0  0  0  0
   32.5670   30.0020   32.6740 C   0  0  0  0  0  0  0  0  0  0  0  0
   33.6580   29.1690   32.7430 N   0  0  0  0  0  0  0  0  0  0  0  0
   34.7770   29.5090   32.0330 C   0  0  0  0  0  0  0  0  0  0  0  0
   34.9070   30.6410   31.2370 N   0  0  0  0  0  0  0  0  0  0  0  0
   33.8640   32.3600   30.5680 H   0  0  0  0  0  0  0  0  0  0  0  0
   31.7820   31.8420   31.8140 H   0  0  0  0  0  0  0  0  0  0  0  0
   31.6640   29.7980   33.2010 H   0  0  0  0  0  0  0  0  0  0  0  0
  1  3  1  0  0  0  0
  1  5  1  0  0  0  0
  2  1  2  0  0  0  0
  3  4  1  0  0  0  0
  5 10  1  0  0  0  0
  6  5  2  0  0  0  0
  6  7  1  0  0  0  0
  7  8  2  0  0  0  0
  8 13  1  0  0  0  0
  8  9  1  0  0  0  0
  9 14  1  0  0  0  0
 10  9  2  0  0  0  0
 11  6  1  0  0  0  0
 12  7  1  0  0  0  0
 14 15  1  1  0  0  0
 14 16  1  0  0  0  0
 16 17  1  0  0  0  0
 16 21  1  0  0  0  0
 17 18  1  0  0  0  0
 18 19  1  0  0  0  0
 20 19  1  0  0  0  0
 21 20  1  0  0  0  0
 22 25  1  1  0  0  0
 23 26  1  0  0  0  0
 23 22  1  0  0  0  0
 24 28  1  6  0  0  0
 24 23  1  0  0  0  0
 24  3  1  0  0  0  0
 24 22  1  0  0  0  0
 27 23  1  0  0  0  0
 29 34  2  0  0  0  0
 29 30  1  0  0  0  0
 30 31  2  0  0  0  0
 31 32  1  0  0  0  0
 31 37  1  0  0  0  0
 33 22  1  0  0  0  0
 33 32  2  0  0  0  0
 34 33  1  0  0  0  0
 35 29  1  0  0  0  0
 36 30  1  0  0  0  0
M  END
>  <minimizedAffinity>
-5.91261864

$$$$

 OpenBabel03272508593D

 37 40  0  0  1  0  0  0  0  0999 V2000
   36.2370   28.8920   34.1010 C   0  0  0  0  0  0  0  0  0  0  0  0
   36.8740   28.0520   34.7430 O   0  0  0  0  0  0  0  0  0  0  0  0
   36.2980   28.9030   32.6520 N   0  0  0  0  0  0  0  0  0  0  0  0
   35.9690   29.6710   32.0630 H   0  0  0  0  0  0  0  0  0  0  0  0
   35.3990   29.9090   34.7620 C   0  0  0  0  0  0  0  0  0  0  0  0
   36.0070   30.8170   35.5970 C   0  0  0  0  0  0  0  0  0  0  0  0
   35.1950   31.7640   36.2100 C   0  0  0  0  0  0  0  0  0  0  0  0
   33.8570   31.7390   35.9500 C   0  0  0  0  0  0  0  0  0  0  0  0
   33.2390   30.8330   35.1150 C   0  0  0  0  0  0  0  0  0  0  0  0
   34.0630   29.9220   34.5340 N   0  0  0  0  0  0  0  0  0  0  0  0
   37.0780   30.8200   35.7880 H   0  0  0  0  0  0  0  0  0  0  0  0
   35.6940   32.4620   36.8580 H   0  0  0  0  0  0  0  0  0  0  0  0
   33.3390   32.5180   36.4770 H   0  0  0  0  0  0  0  0  0  0  0  0
   31.7960   30.8310   34.8250 C   0  0  2  0  0  3  0  0  0  0  0  0
   31.3560   31.8230   34.1330 O   0  0  0  0  0  1  0  0  0  0  0  0
   30.7140   29.8790   35.1920 C   0  0  0  0  0  3  0  0  0  0  0  0
   30.9090   28.5960   34.4930 C   0  0  0  0  0  2  0  0  0  0  0  0
   30.3360   27.4690   35.3630 C   0  0  0  0  0  2  0  0  0  0  0  0
   31.3150   27.3800   36.5320 C   0  0  0  0  0  2  0  0  0  0  0  0
   31.2950   28.6450   37.3450 C   0  0  0  0  0  2  0  0  0  0  0  0
   30.5680   29.7720   36.6910 C   0  0  0  0  0  2  0  0  0  0  0  0
   36.0280   26.8890   31.2150 C   0  0  2  0  0  0  0  0  0  0  0  0
   36.8370   27.8670   30.4430 C   0  0  0  0  0  0  0  0  0  0  0  0
   36.8610   27.7570   31.9820 C   0  0  1  0  0  0  0  0  0  0  0  0
   34.9360   27.0540   31.1330 H   0  0  0  0  0  0  0  0  0  0  0  0
   36.3510   28.7350   30.0040 H   0  0  0  0  0  0  0  0  0  0  0  0
   37.6770   27.4550   29.8680 H   0  0  0  0  0  0  0  0  0  0  0  0
   37.8470   27.3790   32.3470 H   0  0  0  0  0  0  0  0  0  0  0  0
   37.9310   23.7330   30.7090 C   0  0  0  0  0  0  0  0  0  0  0  0
   36.9590   22.7420   31.0850 C   0  0  0  0  0  0  0  0  0  0  0  0
   35.6520   23.2010   31.4990 C   0  0  0  0  0  0  0  0  0  0  0  0
   35.3760   24.5470   31.5240 N   0  0  0  0  0  0  0  0  0  0  0  0
   36.3630   25.4170   31.1500 C   0  0  0  0  0  0  0  0  0  0  0  0
   37.6410   25.0510   30.7410 N   0  0  0  0  0  0  0  0  0  0  0  0
   38.8870   23.3700   30.4090 H   0  0  0  0  0  0  0  0  0  0  0  0
   37.1720   21.7010   31.0660 H   0  0  0  0  0  0  0  0  0  0  0  0
   34.9300   22.4680   31.7770 H   0  0  0  0  0  0  0  0  0  0  0  0
  1  2  2  0  0  0  0
  1  5  1  0  0  0  0
  3  1  1  0  0  0  0
  4  3  1  0  0  0  0
  5  6  1  0  0  0  0
  6 11  1  0  0  0  0
  6  7  2  0  0  0  0
  7 12  1  0  0  0  0
  8  7  1  0  0  0  0
  8 13  1  0  0  0  0
  9  8  2  0  0  0  0
 10  5  2  0  0  0  0
 10  9  1  0  0  0  0
 14 15  1  1  0  0  0
 14  9  1  0  0  0  0
 14 16  1  0  0  0  0
 16 21  1  0  0  0  0
 17 16  1  0  0  0  0
 17 18  1  0  0  0  0
 18 19  1  0  0  0  0
 19 20  1  0  0  0  0
 21 20  1  0  0  0  0
 22 25  1  1  0  0  0
 22 24  1  0  0  0  0
 23 22  1  0  0  0  0
 23 24  1  0  0  0  0
 24 28  1  1  0  0  0
 24  3  1  0  0  0  0
 26 23  1  0  0  0  0
 27 23  1  0  0  0  0
 29 34  2  0  0  0  0
 29 30  1  0  0  0  0
 30 31  2  0  0  0  0
 31 32  1  0  0  0  0
 31 37  1  0  0  0  0
 33 22  1  0  0  0  0
 33 32  2  0  0  0  0
 34 33  1  0  0  0  0
 35 29  1  0  0  0  0
 36 30  1  0  0  0  0
M  END
>  <minimizedAffinity>
-5.73501062

$$$$

 OpenBabel03272508593D

 37 40  0  0  1  0  0  0  0  0999 V2000
   37.8820   27.0740   34.5720 C   0  0  0  0  0  0  0  0  0  0  0  0
   37.4380   26.3450   35.4630 O   0  0  0  0  0  0  0  0  0  0  0  0
   39.3130   27.2620   34.4280 N   0  0  0  0  0  0  0  0  0  0  0  0
   39.7480   27.9900   33.8560 H   0  0  0  0  0  0  0  0  0  0  0  0
   36.9980   27.7790   33.6260 C   0  0  0  0  0  0  0  0  0  0  0  0
   37.2570   27.6680   32.2800 C   0  0  0  0  0  0  0  0  0  0  0  0
   36.4100   28.3420   31.4090 C   0  0  0  0  0  0  0  0  0  0  0  0
   35.3830   29.0690   31.9330 C   0  0  0  0  0  0  0  0  0  0  0  0
   35.1150   29.1860   33.2800 C   0  0  0  0  0  0  0  0  0  0  0  0
   35.9630   28.5130   34.1020 N   0  0  0  0  0  0  0  0  0  0  0  0
   38.0830   27.0800   31.8830 H   0  0  0  0  0  0  0  0  0  0  0  0
   36.6350   28.2390   30.3620 H   0  0  0  0  0  0  0  0  0  0  0  0
   34.8000   29.5390   31.1630 H   0  0  0  0  0  0  0  0  0  0  0  0
   33.9880   29.9540   33.8330 C   0  0  2  0  0  3  0  0  0  0  0  0
   32.8590   29.3380   33.8950 O   0  0  0  0  0  1  0  0  0  0  0  0
   33.8950   31.3470   34.3420 C   0  0  0  0  0  3  0  0  0  0  0  0
   33.0990   31.3830   35.5820 C   0  0  0  0  0  2  0  0  0  0  0  0
   33.6000   32.5390   36.4580 C   0  0  0  0  0  2  0  0  0  0  0  0
   34.9700   32.0640   36.9370 C   0  0  0  0  0  2  0  0  0  0  0  0
   35.9210   31.9150   35.7810 C   0  0  0  0  0  2  0  0  0  0  0  0
   35.2610   31.9830   34.4440 C   0  0  0  0  0  2  0  0  0  0  0  0
   40.5220   25.0920   34.5870 C   0  0  2  0  0  0  0  0  0  0  0  0
   41.5520   26.1520   34.4310 C   0  0  0  0  0  0  0  0  0  0  0  0
   40.1960   26.3680   35.1350 C   0  0  1  0  0  0  0  0  0  0  0  0
   40.0930   24.7460   33.6250 H   0  0  0  0  0  0  0  0  0  0  0  0
   41.6980   26.6170   33.4590 H   0  0  0  0  0  0  0  0  0  0  0  0
   42.4570   26.0410   35.0430 H   0  0  0  0  0  0  0  0  0  0  0  0
   40.3300   26.5360   36.2310 H   0  0  0  0  0  0  0  0  0  0  0  0
   42.2500   22.3380   36.3930 C   0  0  0  0  0  0  0  0  0  0  0  0
   41.2070   21.8580   37.2590 C   0  0  0  0  0  0  0  0  0  0  0  0
   39.9160   22.5030   37.1850 C   0  0  0  0  0  0  0  0  0  0  0  0
   39.7200   23.5410   36.3060 N   0  0  0  0  0  0  0  0  0  0  0  0
   40.7700   23.9320   35.5210 C   0  0  0  0  0  0  0  0  0  0  0  0
   42.0380   23.3600   35.5370 N   0  0  0  0  0  0  0  0  0  0  0  0
   43.1920   21.8470   36.4680 H   0  0  0  0  0  0  0  0  0  0  0  0
   41.3580   21.0540   37.9390 H   0  0  0  0  0  0  0  0  0  0  0  0
   39.1420   22.1480   37.8250 H   0  0  0  0  0  0  0  0  0  0  0  0
  1  2  2  0  0  0  0
  3  1  1  0  0  0  0
  3 24  1  0  0  0  0
  4  3  1  0  0  0  0
  5 10  1  0  0  0  0
  5  1  1  0  0  0  0
  6  5  2  0  0  0  0
  7  8  2  0  0  0  0
  7  6  1  0  0  0  0
  8  9  1  0  0  0  0
  9 14  1  0  0  0  0
  9 10  2  0  0  0  0
 11  6  1  0  0  0  0
 12  7  1  0  0  0  0
 13  8  1  0  0  0  0
 14 15  1  6  0  0  0
 14 16  1  0  0  0  0
 16 21  1  0  0  0  0
 16 17  1  0  0  0  0
 17 18  1  0  0  0  0
 18 19  1  0  0  0  0
 20 19  1  0  0  0  0
 21 20  1  0  0  0  0
 22 25  1  6  0  0  0
 22 24  1  0  0  0  0
 22 33  1  0  0  0  0
 23 22  1  0  0  0  0
 23 27  1  0  0  0  0
 23 24  1  0  0  0  0
 24 28  1  1  0  0  0
 26 23  1  0  0  0  0
 29 35  1  0  0  0  0
 29 30  1  0  0  0  0
 30 36  1  0  0  0  0
 31 30  2  0  0  0  0
 31 37  1  0  0  0  0
 32 31  1  0  0  0  0
 33 34  1  0  0  0  0
 33 32  2  0  0  0  0
 34 29  2  0  0  0  0
M  END
>  <minimizedAffinity>
-5.71177483

$$$$

 OpenBabel03272508593D

 37 40  0  0  1  0  0  0  0  0999 V2000
   37.9300   26.4880   35.3140 C   0  0  0  0  0  0  0  0  0  0  0  0
   38.6740   27.3660   35.7590 O   0  0  0  0  0  0  0  0  0  0  0  0
   36.8330   26.8390   34.4320 N   0  0  0  0  0  0  0  0  0  0  0  0
   36.0650   26.2120   34.1840 H   0  0  0  0  0  0  0  0  0  0  0  0
   38.1130   25.0640   35.6500 C   0  0  0  0  0  0  0  0  0  0  0  0
   38.0620   24.6910   36.9730 C   0  0  0  0  0  0  0  0  0  0  0  0
   38.2390   23.3440   37.2640 C   0  0  0  0  0  0  0  0  0  0  0  0
   38.4520   22.4790   36.2320 C   0  0  0  0  0  0  0  0  0  0  0  0
   38.5050   22.8430   34.9050 C   0  0  0  0  0  0  0  0  0  0  0  0
   38.3280   24.1680   34.6570 N   0  0  0  0  0  0  0  0  0  0  0  0
   37.8880   25.4000   37.7810 H   0  0  0  0  0  0  0  0  0  0  0  0
   38.1950   23.0790   38.3050 H   0  0  0  0  0  0  0  0  0  0  0  0
   38.5710   21.4710   36.5830 H   0  0  0  0  0  0  0  0  0  0  0  0
   38.7130   21.8950   33.7970 C   0  0  2  0  0  3  0  0  0  0  0  0
   39.9290   21.5280   33.5870 O   0  0  0  0  0  1  0  0  0  0  0  0
   37.7640   21.2650   32.8430 C   0  0  0  0  0  3  0  0  0  0  0  0
   36.4000   21.2730   33.4030 C   0  0  0  0  0  2  0  0  0  0  0  0
   35.3930   21.3500   32.2480 C   0  0  0  0  0  2  0  0  0  0  0  0
   35.5580   22.7720   31.7160 C   0  0  0  0  0  2  0  0  0  0  0  0
   36.9340   22.9720   31.1420 C   0  0  0  0  0  2  0  0  0  0  0  0
   37.8900   21.8740   31.4660 C   0  0  0  0  0  2  0  0  0  0  0  0
   35.8720   28.4920   32.8390 C   0  0  2  0  0  0  0  0  0  0  0  0
   35.5430   28.9670   34.2080 C   0  0  0  0  0  0  0  0  0  0  0  0
   36.8130   28.1620   33.8590 C   0  0  1  0  0  0  0  0  0  0  0  0
   35.1540   27.7440   32.4450 H   0  0  0  0  0  0  0  0  0  0  0  0
   34.7640   28.4640   34.7760 H   0  0  0  0  0  0  0  0  0  0  0  0
   35.6300   30.0480   34.3790 H   0  0  0  0  0  0  0  0  0  0  0  0
   37.7320   28.7860   33.9700 H   0  0  0  0  0  0  0  0  0  0  0  0
   36.5430   31.7150   31.1100 C   0  0  0  0  0  0  0  0  0  0  0  0
   37.0240   31.2660   29.8310 C   0  0  0  0  0  0  0  0  0  0  0  0
   37.0940   29.8410   29.5970 C   0  0  0  0  0  0  0  0  0  0  0  0
   36.7070   28.9670   30.5850 N   0  0  0  0  0  0  0  0  0  0  0  0
   36.2630   29.4850   31.7710 C   0  0  0  0  0  0  0  0  0  0  0  0
   36.1690   30.8400   32.0670 N   0  0  0  0  0  0  0  0  0  0  0  0
   36.5020   32.7700   31.2560 H   0  0  0  0  0  0  0  0  0  0  0  0
   37.3230   31.9410   29.0660 H   0  0  0  0  0  0  0  0  0  0  0  0
   37.4490   29.5060   28.6500 H   0  0  0  0  0  0  0  0  0  0  0  0
  1  5  1  0  0  0  0
  1  2  2  0  0  0  0
  3  1  1  0  0  0  0
  4  3  1  0  0  0  0
  5  6  1  0  0  0  0
  6  7  2  0  0  0  0
  6 11  1  0  0  0  0
  7 12  1  0  0  0  0
  8 13  1  0  0  0  0
  8  7  1  0  0  0  0
  9  8  2  0  0  0  0
 10  9  1  0  0  0  0
 10  5  2  0  0  0  0
 14 15  1  6  0  0  0
 14  9  1  0  0  0  0
 16 17  1  0  0  0  0
 16 14  1  0  0  0  0
 18 17  1  0  0  0  0
 19 18  1  0  0  0  0
 20 21  1  0  0  0  0
 20 19  1  0  0  0  0
 21 16  1  0  0  0  0
 22 25  1  6  0  0  0
 22 24  1  0  0  0  0
 22 23  1  0  0  0  0
 23 27  1  0  0  0  0
 23 26  1  0  0  0  0
 24 28  1  6  0  0  0
 24 23  1  0  0  0  0
 24  3  1  0  0  0  0
 29 35  1  0  0  0  0
 29 34  1  0  0  0  0
 30 29  2  0  0  0  0
 31 30  1  0  0  0  0
 31 32  2  0  0  0  0
 32 33  1  0  0  0  0
 33 34  2  0  0  0  0
 33 22  1  0  0  0  0
 36 30  1  0  0  0  0
 37 31  1  0  0  0  0
M  END
>  <minimizedAffinity>
-5.71077633

$$$$

 OpenBabel03272508593D

 37 40  0  0  1  0  0  0  0  0999 V2000
   37.2620   27.7790   34.1600 C   0  0  0  0  0  0  0  0  0  0  0  0
   37.4430   27.9610   35.3670 O   0  0  0  0  0  0  0  0  0  0  0  0
   38.0170   26.7610   33.4540 N   0  0  0  0  0  0  0  0  0  0  0  0
   38.0730   26.6810   32.4370 H   0  0  0  0  0  0  0  0  0  0  0  0
   36.2890   28.5730   33.3870 C   0  0  0  0  0  0  0  0  0  0  0  0
   36.5560   28.8270   32.0620 C   0  0  0  0  0  0  0  0  0  0  0  0
   35.6250   29.5790   31.3560 C   0  0  0  0  0  0  0  0  0  0  0  0
   34.5120   30.0160   32.0100 C   0  0  0  0  0  0  0  0  0  0  0  0
   34.2360   29.7660   33.3370 C   0  0  0  0  0  0  0  0  0  0  0  0
   35.1680   29.0290   33.9960 N   0  0  0  0  0  0  0  0  0  0  0  0
   37.4510   28.4650   31.5600 H   0  0  0  0  0  0  0  0  0  0  0  0
   35.8580   29.7630   30.3220 H   0  0  0  0  0  0  0  0  0  0  0  0
   33.8700   30.5810   31.3600 H   0  0  0  0  0  0  0  0  0  0  0  0
   33.0190   30.2250   34.0260 C   0  0  2  0  0  3  0  0  0  0  0  0
   31.9430   29.5620   33.7780 O   0  0  0  0  0  1  0  0  0  0  0  0
   32.7810   31.3420   34.9770 C   0  0  0  0  0  3  0  0  0  0  0  0
   32.8120   30.8440   36.3640 C   0  0  0  0  0  2  0  0  0  0  0  0
   33.3110   31.9680   37.2810 C   0  0  0  0  0  2  0  0  0  0  0  0
   34.7900   32.0980   36.9260 C   0  0  0  0  0  2  0  0  0  0  0  0
   34.9610   32.5540   35.5030 C   0  0  0  0  0  2  0  0  0  0  0  0
   33.7060   32.5030   34.6970 C   0  0  0  0  0  2  0  0  0  0  0  0
   38.0850   24.6260   34.7320 C   0  0  2  0  0  0  0  0  0  0  0  0
   38.9170   24.4300   33.5150 C   0  0  0  0  0  0  0  0  0  0  0  0
   38.7440   25.7870   34.2300 C   0  0  1  0  0  0  0  0  0  0  0  0
   37.0040   24.4520   34.5620 H   0  0  0  0  0  0  0  0  0  0  0  0
   38.4310   24.3000   32.5510 H   0  0  0  0  0  0  0  0  0  0  0  0
   39.8520   23.8720   33.6530 H   0  0  0  0  0  0  0  0  0  0  0  0
   39.6980   26.1180   34.7080 H   0  0  0  0  0  0  0  0  0  0  0  0
   40.0440   22.7100   37.2470 C   0  0  0  0  0  0  0  0  0  0  0  0
   39.3450   23.0260   38.4640 C   0  0  0  0  0  0  0  0  0  0  0  0
   38.1950   23.8970   38.3760 C   0  0  0  0  0  0  0  0  0  0  0  0
   37.8060   24.3940   37.1550 N   0  0  0  0  0  0  0  0  0  0  0  0
   38.5310   24.0400   36.0510 C   0  0  0  0  0  0  0  0  0  0  0  0
   39.6460   23.2090   36.0580 N   0  0  0  0  0  0  0  0  0  0  0  0
   40.8890   22.0670   37.3390 H   0  0  0  0  0  0  0  0  0  0  0  0
   39.6460   22.6430   39.4080 H   0  0  0  0  0  0  0  0  0  0  0  0
   37.6760   24.1330   39.2760 H   0  0  0  0  0  0  0  0  0  0  0  0
  1  2  2  0  0  0  0
  3  1  1  0  0  0  0
  3 24  1  0  0  0  0
  4  3  1  0  0  0  0
  5 10  1  0  0  0  0
  5  1  1  0  0  0  0
  6  5  2  0  0  0  0
  7  8  2  0  0  0  0
  7  6  1  0  0  0  0
  8  9  1  0  0  0  0
  9 10  2  0  0  0  0
  9 14  1  0  0  0  0
 11  6  1  0  0  0  0
 12  7  1  0  0  0  0
 13  8  1  0  0  0  0
 14 15  1  6  0  0  0
 14 16  1  0  0  0  0
 16 17  1  0  0  0  0
 17 18  1  0  0  0  0
 19 18  1  0  0  0  0
 20 19  1  0  0  0  0
 21 16  1  0  0  0  0
 21 20  1  0  0  0  0
 22 25  1  6  0  0  0
 22 33  1  0  0  0  0
 23 27  1  0  0  0  0
 23 24  1  0  0  0  0
 23 22  1  0  0  0  0
 24 28  1  1  0  0  0
 24 22  1  0  0  0  0
 26 23  1  0  0  0  0
 29 35  1  0  0  0  0
 29 30  1  0  0  0  0
 30 36  1  0  0  0  0
 31 30  2  0  0  0  0
 31 37  1  0  0  0  0
 32 31  1  0  0  0  0
 33 34  1  0  0  0  0
 33 32  2  0  0  0  0
 34 29  2  0  0  0  0
M  END
>  <minimizedAffinity>
-5.69922781

$$$$

 OpenBabel03272508593D

 37 40  0  0  1  0  0  0  0  0999 V2000
   36.0960   25.3200   31.3190 C   0  0  0  0  0  0  0  0  0  0  0  0
   35.1110   25.2870   30.5770 O   0  0  0  0  0  0  0  0  0  0  0  0
   36.7460   26.5830   31.6140 N   0  0  0  0  0  0  0  0  0  0  0  0
   37.6680   26.6730   32.0480 H   0  0  0  0  0  0  0  0  0  0  0  0
   36.6530   24.1000   31.9320 C   0  0  0  0  0  0  0  0  0  0  0  0
   36.4460   22.8960   31.3010 C   0  0  0  0  0  0  0  0  0  0  0  0
   36.9790   21.7610   31.8990 C   0  0  0  0  0  0  0  0  0  0  0  0
   37.6700   21.9050   33.0660 C   0  0  0  0  0  0  0  0  0  0  0  0
   37.8830   23.1060   33.7050 C   0  0  0  0  0  0  0  0  0  0  0  0
   37.3470   24.1950   33.0920 N   0  0  0  0  0  0  0  0  0  0  0  0
   35.8920   22.8060   30.3680 H   0  0  0  0  0  0  0  0  0  0  0  0
   36.8020   20.8330   31.3860 H   0  0  0  0  0  0  0  0  0  0  0  0
   38.0330   20.9610   33.4260 H   0  0  0  0  0  0  0  0  0  0  0  0
   38.6510   23.2510   34.9530 C   0  0  2  0  0  3  0  0  0  0  0  0
   38.7780   22.1870   35.6670 O   0  0  0  0  0  1  0  0  0  0  0  0
   39.3240   24.4240   35.5700 C   0  0  0  0  0  3  0  0  0  0  0  0
   40.1500   25.1210   34.5680 C   0  0  0  0  0  2  0  0  0  0  0  0
   40.2090   26.6110   34.9280 C   0  0  0  0  0  2  0  0  0  0  0  0
   38.7990   27.1150   34.6270 C   0  0  0  0  0  2  0  0  0  0  0  0
   37.7920   26.4610   35.5330 C   0  0  0  0  0  2  0  0  0  0  0  0
   38.3320   25.3000   36.2990 C   0  0  0  0  0  2  0  0  0  0  0  0
   35.7820   28.7790   32.2790 C   0  0  2  0  0  0  0  0  0  0  0  0
   36.9390   29.0640   31.3900 C   0  0  0  0  0  0  0  0  0  0  0  0
   36.0570   27.8030   31.2750 C   0  0  1  0  0  0  0  0  0  0  0  0
   36.0660   28.6190   33.3380 H   0  0  0  0  0  0  0  0  0  0  0  0
   37.9500   28.9430   31.7720 H   0  0  0  0  0  0  0  0  0  0  0  0
   36.8030   29.8760   30.6630 H   0  0  0  0  0  0  0  0  0  0  0  0
   35.4580   27.8120   30.3330 H   0  0  0  0  0  0  0  0  0  0  0  0
   33.4120   31.4510   31.2420 C   0  0  0  0  0  0  0  0  0  0  0  0
   32.2210   31.0780   31.9570 C   0  0  0  0  0  0  0  0  0  0  0  0
   32.2760   29.9020   32.7950 C   0  0  0  0  0  0  0  0  0  0  0  0
   33.4430   29.1820   32.8870 N   0  0  0  0  0  0  0  0  0  0  0  0
   34.5270   29.6110   32.1700 C   0  0  0  0  0  0  0  0  0  0  0  0
   34.5480   30.7300   31.3450 N   0  0  0  0  0  0  0  0  0  0  0  0
   33.3450   32.3210   30.6310 H   0  0  0  0  0  0  0  0  0  0  0  0
   31.3180   31.6350   31.8860 H   0  0  0  0  0  0  0  0  0  0  0  0
   31.3950   29.6240   33.3260 H   0  0  0  0  0  0  0  0  0  0  0  0
  1  3  1  0  0  0  0
  1  5  1  0  0  0  0
  2  1  2  0  0  0  0
  3  4  1  0  0  0  0
  5 10  1  0  0  0  0
  6  7  1  0  0  0  0
  6  5  2  0  0  0  0
  7  8  2  0  0  0  0
  8 13  1  0  0  0  0
  8  9  1  0  0  0  0
  9 14  1  0  0  0  0
 10  9  2  0  0  0  0
 11  6  1  0  0  0  0
 12  7  1  0  0  0  0
 14 16  1  0  0  0  0
 14 15  1  1  0  0  0
 16 21  1  0  0  0  0
 17 18  1  0  0  0  0
 17 16  1  0  0  0  0
 19 18  1  0  0  0  0
 19 20  1  0  0  0  0
 20 21  1  0  0  0  0
 22 25  1  1  0  0  0
 23 26  1  0  0  0  0
 23 22  1  0  0  0  0
 24 28  1  6  0  0  0
 24 23  1  0  0  0  0
 24  3  1  0  0  0  0
 24 22  1  0  0  0  0
 27 23  1  0  0  0  0
 29 34  2  0  0  0  0
 29 30  1  0  0  0  0
 30 31  2  0  0  0  0
 31 32  1  0  0  0  0
 31 37  1  0  0  0  0
 33 22  1  0  0  0  0
 33 32  2  0  0  0  0
 34 33  1  0  0  0  0
 35 29  1  0  0  0  0
 36 30  1  0  0  0  0
M  END
>  <minimizedAffinity>
-5.69736242

$$$$

 OpenBabel03272508593D

 37 40  0  0  1  0  0  0  0  0999 V2000
   37.0430   26.8150   32.8940 C   0  0  0  0  0  0  0  0  0  0  0  0
   37.2310   26.3370   34.0160 O   0  0  0  0  0  0  0  0  0  0  0  0
   37.2550   26.0050   31.7100 N   0  0  0  0  0  0  0  0  0  0  0  0
   37.3140   26.3730   30.7580 H   0  0  0  0  0  0  0  0  0  0  0  0
   36.6010   28.2090   32.7030 C   0  0  0  0  0  0  0  0  0  0  0  0
   36.8640   28.8210   31.5000 C   0  0  0  0  0  0  0  0  0  0  0  0
   36.4400   30.1350   31.3450 C   0  0  0  0  0  0  0  0  0  0  0  0
   35.7930   30.7360   32.3850 C   0  0  0  0  0  0  0  0  0  0  0  0
   35.5250   30.1300   33.5930 C   0  0  0  0  0  0  0  0  0  0  0  0
   35.9540   28.8460   33.7090 N   0  0  0  0  0  0  0  0  0  0  0  0
   37.3810   28.3200   30.6830 H   0  0  0  0  0  0  0  0  0  0  0  0
   36.6580   30.5900   30.3960 H   0  0  0  0  0  0  0  0  0  0  0  0
   35.5130   31.7440   32.1440 H   0  0  0  0  0  0  0  0  0  0  0  0
   34.8050   30.7820   34.7000 C   0  0  2  0  0  3  0  0  0  0  0  0
   35.5220   31.1490   35.7040 O   0  0  0  0  0  1  0  0  0  0  0  0
   33.3660   31.1040   34.8910 C   0  0  0  0  0  3  0  0  0  0  0  0
   32.5470   29.8910   34.7190 C   0  0  0  0  0  2  0  0  0  0  0  0
   31.2940   30.0140   35.5950 C   0  0  0  0  0  2  0  0  0  0  0  0
   31.8300   29.8720   37.0180 C   0  0  0  0  0  2  0  0  0  0  0  0
   32.7460   31.0150   37.3610 C   0  0  0  0  0  2  0  0  0  0  0  0
   33.1410   31.8460   36.1870 C   0  0  0  0  0  2  0  0  0  0  0  0
   36.5010   23.6860   31.2100 C   0  0  2  0  0  0  0  0  0  0  0  0
   37.8400   23.8510   30.5850 C   0  0  0  0  0  0  0  0  0  0  0  0
   37.3950   24.5790   31.8720 C   0  0  1  0  0  0  0  0  0  0  0  0
   35.6690   24.0580   30.5790 H   0  0  0  0  0  0  0  0  0  0  0  0
   37.9370   24.4410   29.6770 H   0  0  0  0  0  0  0  0  0  0  0  0
   38.5220   22.9950   30.6690 H   0  0  0  0  0  0  0  0  0  0  0  0
   37.9640   24.2150   32.7610 H   0  0  0  0  0  0  0  0  0  0  0  0
   34.9970   20.3360   31.8000 C   0  0  0  0  0  0  0  0  0  0  0  0
   35.5310   20.0000   33.0930 C   0  0  0  0  0  0  0  0  0  0  0  0
   36.4000   20.9590   33.7350 C   0  0  0  0  0  0  0  0  0  0  0  0
   36.6910   22.1470   33.1070 N   0  0  0  0  0  0  0  0  0  0  0  0
   36.1380   22.3810   31.8780 C   0  0  0  0  0  0  0  0  0  0  0  0
   35.2950   21.5080   31.2000 N   0  0  0  0  0  0  0  0  0  0  0  0
   34.3590   19.6120   31.3480 H   0  0  0  0  0  0  0  0  0  0  0  0
   35.3070   19.0820   33.5790 H   0  0  0  0  0  0  0  0  0  0  0  0
   36.7970   20.7120   34.6930 H   0  0  0  0  0  0  0  0  0  0  0  0
  1  2  2  0  0  0  0
  3 24  1  0  0  0  0
  3  1  1  0  0  0  0
  4  3  1  0  0  0  0
  5  1  1  0  0  0  0
  5 10  1  0  0  0  0
  6  5  2  0  0  0  0
  7  6  1  0  0  0  0
  7  8  2  0  0  0  0
  8  9  1  0  0  0  0
  9 10  2  0  0  0  0
  9 14  1  0  0  0  0
 11  6  1  0  0  0  0
 12  7  1  0  0  0  0
 13  8  1  0  0  0  0
 14 16  1  0  0  0  0
 14 15  1  1  0  0  0
 16 21  1  0  0  0  0
 17 16  1  0  0  0  0
 17 18  1  0  0  0  0
 18 19  1  0  0  0  0
 19 20  1  0  0  0  0
 21 20  1  0  0  0  0
 22 25  1  6  0  0  0
 22 24  1  0  0  0  0
 22 33  1  0  0  0  0
 23 27  1  0  0  0  0
 23 22  1  0  0  0  0
 23 24  1  0  0  0  0
 24 28  1  1  0  0  0
 26 23  1  0  0  0  0
 29 30  1  0  0  0  0
 30 36  1  0  0  0  0
 30 31  2  0  0  0  0
 31 37  1  0  0  0  0
 32 31  1  0  0  0  0
 33 32  2  0  0  0  0
 34 29  2  0  0  0  0
 34 33  1  0  0  0  0
 35 29  1  0  0  0  0
M  END
>  <minimizedAffinity>
-5.68394041

$$$$

 OpenBabel03272508593D

 37 40  0  0  1  0  0  0  0  0999 V2000
   36.3030   27.4300   32.4450 C   0  0  0  0  0  0  0  0  0  0  0  0
   35.4310   27.5880   31.5870 O   0  0  0  0  0  0  0  0  0  0  0  0
   36.4280   28.3730   33.5410 N   0  0  0  0  0  0  0  0  0  0  0  0
   37.2320   28.4280   34.1700 H   0  0  0  0  0  0  0  0  0  0  0  0
   37.2460   26.2980   32.4010 C   0  0  0  0  0  0  0  0  0  0  0  0
   37.9010   26.0350   31.2210 C   0  0  0  0  0  0  0  0  0  0  0  0
   38.7830   24.9620   31.2040 C   0  0  0  0  0  0  0  0  0  0  0  0
   38.9460   24.2380   32.3480 C   0  0  0  0  0  0  0  0  0  0  0  0
   38.2950   24.4930   33.5350 C   0  0  0  0  0  0  0  0  0  0  0  0
   37.4410   25.5500   33.5140 N   0  0  0  0  0  0  0  0  0  0  0  0
   37.7560   26.6290   30.3200 H   0  0  0  0  0  0  0  0  0  0  0  0
   39.2810   24.7780   30.2700 H   0  0  0  0  0  0  0  0  0  0  0  0
   39.6520   23.4400   32.2110 H   0  0  0  0  0  0  0  0  0  0  0  0
   38.4990   23.7180   34.7700 C   0  0  2  0  0  3  0  0  0  0  0  0
   37.7860   22.6530   34.8940 O   0  0  0  0  0  1  0  0  0  0  0  0
   39.3890   23.9350   35.9400 C   0  0  0  0  0  3  0  0  0  0  0  0
   38.9570   23.0940   37.0710 C   0  0  0  0  0  2  0  0  0  0  0  0
   40.1850   22.7400   37.9200 C   0  0  0  0  0  2  0  0  0  0  0  0
   40.9650   21.7660   37.0410 C   0  0  0  0  0  2  0  0  0  0  0  0
   41.4510   22.4440   35.7890 C   0  0  0  0  0  2  0  0  0  0  0  0
   40.8420   23.7860   35.5540 C   0  0  0  0  0  2  0  0  0  0  0  0
   35.5050   30.3710   34.7020 C   0  0  2  0  0  0  0  0  0  0  0  0
   35.6510   30.7320   33.2670 C   0  0  0  0  0  0  0  0  0  0  0  0
   35.3510   29.3040   33.7690 C   0  0  1  0  0  0  0  0  0  0  0  0
   36.4370   30.5010   35.2890 H   0  0  0  0  0  0  0  0  0  0  0  0
   36.6420   30.9300   32.8640 H   0  0  0  0  0  0  0  0  0  0  0  0
   34.8360   31.3250   32.8320 H   0  0  0  0  0  0  0  0  0  0  0  0
   34.3210   28.9810   33.4800 H   0  0  0  0  0  0  0  0  0  0  0  0
   31.9790   30.8410   35.7860 C   0  0  0  0  0  0  0  0  0  0  0  0
   32.1370   31.6920   36.9350 C   0  0  0  0  0  0  0  0  0  0  0  0
   33.4770   32.0910   37.3000 C   0  0  0  0  0  0  0  0  0  0  0  0
   34.5470   31.6560   36.5560 N   0  0  0  0  0  0  0  0  0  0  0  0
   34.3010   30.8480   35.4790 C   0  0  0  0  0  0  0  0  0  0  0  0
   33.0430   30.4240   35.0680 N   0  0  0  0  0  0  0  0  0  0  0  0
   30.9810   30.5600   35.5380 H   0  0  0  0  0  0  0  0  0  0  0  0
   31.3100   32.0290   37.5110 H   0  0  0  0  0  0  0  0  0  0  0  0
   33.5970   32.7220   38.1510 H   0  0  0  0  0  0  0  0  0  0  0  0
  1  3  1  0  0  0  0
  2  1  2  0  0  0  0
  3 24  1  0  0  0  0
  3  4  1  0  0  0  0
  5  1  1  0  0  0  0
  5 10  1  0  0  0  0
  6  5  2  0  0  0  0
  7  6  1  0  0  0  0
  7  8  2  0  0  0  0
  8  9  1  0  0  0  0
  9 14  1  0  0  0  0
 10  9  2  0  0  0  0
 11  6  1  0  0  0  0
 12  7  1  0  0  0  0
 13  8  1  0  0  0  0
 14 15  1  1  0  0  0
 14 16  1  0  0  0  0
 16 17  1  0  0  0  0
 17 18  1  0  0  0  0
 19 18  1  0  0  0  0
 20 19  1  0  0  0  0
 21 20  1  0  0  0  0
 21 16  1  0  0  0  0
 22 25  1  1  0  0  0
 22 33  1  0  0  0  0
 23 24  1  0  0  0  0
 23 22  1  0  0  0  0
 24 28  1  6  0  0  0
 24 22  1  0  0  0  0
 26 23  1  0  0  0  0
 27 23  1  0  0  0  0
 29 30  1  0  0  0  0
 30 31  2  0  0  0  0
 30 36  1  0  0  0  0
 31 37  1  0  0  0  0
 32 31  1  0  0  0  0
 33 32  2  0  0  0  0
 34 33  1  0  0  0  0
 34 29  2  0  0  0  0
 35 29  1  0  0  0  0
M  END
>  <minimizedAffinity>
-5.577775

$$$$
