
 OpenBabel03272508423D

 17 18  0  0  0  0  0  0  0  0999 V2000
   29.9990   28.4540   47.1180 C   0  0  0  0  0  0  0  0  0  0  0  0
   29.8300   29.5070   46.1790 C   0  0  0  0  0  0  0  0  0  0  0  0
   30.9790   30.1530   45.6730 C   0  0  0  0  0  0  0  0  0  0  0  0
   32.1790   29.7270   46.1180 N   0  0  0  0  0  0  0  0  0  0  0  0
   32.3090   28.7320   47.0030 C   0  0  0  0  0  0  0  0  0  0  0  0
   31.2500   28.1010   47.5010 N   0  0  0  0  0  0  0  0  0  0  0  0
   29.0730   28.0110   47.4570 H   0  0  0  0  0  0  0  0  0  0  0  0
   28.8500   29.8200   45.8450 H   0  0  0  0  0  0  0  0  0  0  0  0
   30.8600   30.9550   44.9570 H   0  0  0  0  0  0  0  0  0  0  0  0
   33.5950   28.2590   47.4980 C   0  0  0  0  0  0  0  0  0  0  0  0
   34.0520   27.1160   47.2760 O   0  0  0  0  0  0  0  0  0  0  0  0
   34.3930   29.2090   48.3130 C   0  0  0  0  0  3  0  0  0  0  0  0
   35.1520   28.5230   49.4160 C   0  0  0  0  0  2  0  0  0  0  0  0
   35.5520   29.5760   50.4160 C   0  0  0  0  0  2  0  0  0  0  0  0
   35.9480   30.8500   49.7510 C   0  0  0  0  0  2  0  0  0  0  0  0
   36.3770   30.6890   48.3240 C   0  0  0  0  0  2  0  0  0  0  0  0
   35.4190   29.9430   47.4690 C   0  0  0  0  0  2  0  0  0  0  0  0
  1  7  1  0  0  0  0
  1  6  1  0  0  0  0
  2  1  2  0  0  0  0
  3  4  2  0  0  0  0
  3  2  1  0  0  0  0
  4  5  1  0  0  0  0
  5 10  1  0  0  0  0
  5  6  2  0  0  0  0
  8  2  1  0  0  0  0
  9  3  1  0  0  0  0
 10 12  1  0  0  0  0
 11 10  2  0  0  0  0
 12 13  1  0  0  0  0
 13 14  1  0  0  0  0
 15 14  1  0  0  0  0
 16 15  1  0  0  0  0
 17 12  1  0  0  0  0
 17 16  1  0  0  0  0
M  END
>  <minimizedAffinity>
-4.08657455

>  <minimizedRMSD>
5.66143942

$$$$
