
 OpenBabel03272503493D

 34 36  0  0  1  0  0  0  0  0999 V2000
   33.1780   27.3240   45.8740 C   0  0  1  0  0  0  0  0  0  0  0  0
   33.9220   27.4690   47.2200 C   0  0  2  0  0  0  0  0  0  0  0  0
   33.7790   26.2420   47.7860 O   0  0  0  0  0  0  0  0  0  0  0  0
   34.0670   25.3490   46.7680 C   0  0  0  0  0  0  0  0  0  0  0  0
   33.5530   25.9260   45.4840 C   0  0  2  0  0  0  0  0  0  0  0  0
   33.6380   28.0350   45.1710 H   0  0  0  0  0  0  0  0  0  0  0  0
   34.9680   27.7770   46.9620 H   0  0  0  0  0  0  0  0  0  0  0  0
   33.4920   24.4200   46.9820 H   0  0  0  0  0  0  0  0  0  0  0  0
   35.1650   25.2030   46.7750 H   0  0  0  0  0  0  0  0  0  0  0  0
   32.7020   25.3460   45.0770 H   0  0  0  0  0  0  0  0  0  0  0  0
   31.8240   27.5310   46.0510 O   0  0  0  0  0  0  0  0  0  0  0  0
   31.4940   28.0680   45.2720 H   0  0  0  0  0  0  0  0  0  0  0  0
   33.3110   28.5180   47.8430 O   0  0  0  0  0  0  0  0  0  0  0  0
   35.3440   29.8190   46.7740 O   0  0  0  0  0  0  0  0  0  0  0  0
   34.0900   29.9930   47.6180 P   0  0  1  0  0  0  0  0  0  0  0  0
   33.1020   31.0400   46.7250 O   0  0  0  0  0  0  0  0  0  0  0  0
   32.1500   30.8890   46.9900 H   0  0  0  0  0  0  0  0  0  0  0  0
   34.3950   30.6300   49.1720 O   0  0  0  0  0  0  0  0  0  0  0  0
   35.6330   30.5090   49.7820 C   0  0  0  0  0  0  0  0  0  0  0  0
   35.9680   29.4890   50.7000 C   0  0  0  0  0  0  0  0  0  0  0  0
   37.2490   29.4910   51.2350 C   0  0  0  0  0  0  0  0  0  0  0  0
   38.1170   30.4730   50.8520 N   0  0  0  0  0  0  0  0  0  0  0  0
   37.7690   31.4430   49.9680 C   0  0  0  0  0  0  0  0  0  0  0  0
   36.5150   31.4590   49.4300 N   0  0  0  0  0  0  0  0  0  0  0  0
   35.2000   28.7630   50.9310 H   0  0  0  0  0  0  0  0  0  0  0  0
   37.5130   28.7140   51.9370 H   0  0  0  0  0  0  0  0  0  0  0  0
   38.5020   32.1930   49.7040 H   0  0  0  0  0  0  0  0  0  0  0  0
   34.5660   25.9580   44.5240 O   0  0  0  0  0  0  0  0  0  0  0  0
   34.3780   25.0330   43.5180 C   0  0  0  0  0  3  0  0  0  0  0  0
   33.1190   25.3070   42.7200 C   0  0  0  0  0  2  0  0  0  0  0  0
   33.3880   26.4760   41.7860 C   0  0  0  0  0  2  0  0  0  0  0  0
   34.3700   26.1290   40.7080 C   0  0  0  0  0  2  0  0  0  0  0  0
   35.0530   24.8300   41.1060 C   0  0  0  0  0  2  0  0  0  0  0  0
   35.5320   25.0520   42.5330 C   0  0  0  0  0  2  0  0  0  0  0  0
  1  6  1  6  0  0  0
  1 11  1  0  0  0  0
  1  2  1  0  0  0  0
  2  7  1  6  0  0  0
  2  3  1  0  0  0  0
  2 13  1  0  0  0  0
  4  9  1  0  0  0  0
  4  8  1  0  0  0  0
  4  3  1  0  0  0  0
  5 10  1  6  0  0  0
  5  1  1  0  0  0  0
  5  4  1  0  0  0  0
 12 11  1  0  0  0  0
 15 14  2  6  0  0  0
 15 13  1  0  0  0  0
 15 18  1  0  0  0  0
 16 17  1  0  0  0  0
 16 15  1  0  0  0  0
 18 19  1  0  0  0  0
 19 20  1  0  0  0  0
 20 25  1  0  0  0  0
 20 21  2  0  0  0  0
 21 26  1  0  0  0  0
 22 21  1  0  0  0  0
 23 22  2  0  0  0  0
 24 19  2  0  0  0  0
 24 23  1  0  0  0  0
 27 23  1  0  0  0  0
 28  5  1  0  0  0  0
 29 28  1  0  0  0  0
 30 29  1  0  0  0  0
 31 30  1  0  0  0  0
 32 33  1  0  0  0  0
 32 31  1  0  0  0  0
 33 34  1  0  0  0  0
 34 29  1  0  0  0  0
M  END
>  <minimizedAffinity>
-3.93287539

>  <minimizedRMSD>
0.410015911

$$$$
