
 OpenBabel03272500003D

 26 28  0  0  0  0  0  0  0  0999 V2000
   34.8160   28.4320   48.5480 C   0  0  0  0  0  0  0  0  0  0  0  0
   35.2400   29.5170   47.7360 C   0  0  0  0  0  0  0  0  0  0  0  0
   34.3970   29.8750   46.7010 C   0  0  0  0  0  0  0  0  0  0  0  0
   33.2380   29.1930   46.5150 N   0  0  0  0  0  0  0  0  0  0  0  0
   32.8630   28.1710   47.3000 C   0  0  0  0  0  0  0  0  0  0  0  0
   33.6590   27.7740   48.3390 N   0  0  0  0  0  0  0  0  0  0  0  0
   35.4330   28.0980   49.3820 H   0  0  0  0  0  0  0  0  0  0  0  0
   34.7000   30.7000   46.0700 H   0  0  0  0  0  0  0  0  0  0  0  0
   33.1410   25.7510   45.3310 Br  0  0  0  0  0  0  0  0  0  0  0  0
   31.5760   26.3420   46.2560 C   0  0  0  0  0  0  0  0  0  0  0  0
   31.6200   27.4390   47.0990 C   0  0  0  0  0  0  0  0  0  0  0  0
   30.4540   27.8070   47.7310 C   0  0  0  0  0  0  0  0  0  0  0  0
   29.2540   27.1440   47.5710 C   0  0  0  0  0  0  0  0  0  0  0  0
   29.2530   26.0440   46.7120 C   0  0  0  0  0  0  0  0  0  0  0  0
   30.4180   25.6550   46.0640 C   0  0  0  0  0  0  0  0  0  0  0  0
   30.4530   28.6610   48.3990 H   0  0  0  0  0  0  0  0  0  0  0  0
   28.3610   27.4660   48.0870 H   0  0  0  0  0  0  0  0  0  0  0  0
   28.3210   25.5090   46.5710 H   0  0  0  0  0  0  0  0  0  0  0  0
   30.3210   24.7910   45.4170 H   0  0  0  0  0  0  0  0  0  0  0  0
   36.4270   30.0960   48.0520 O   0  0  0  0  0  0  0  0  0  0  0  0
   36.7260   31.3470   48.5490 C   0  0  0  0  0  3  0  0  0  0  0  0
   36.1780   31.5520   49.9710 C   0  0  0  0  0  2  0  0  0  0  0  0
   36.8390   30.5930   50.9350 C   0  0  0  0  0  2  0  0  0  0  0  0
   38.3160   30.6000   50.6950 C   0  0  0  0  0  2  0  0  0  0  0  0
   38.7470   31.7830   49.8620 C   0  0  0  0  0  2  0  0  0  0  0  0
   38.1680   31.7300   48.4630 C   0  0  0  0  0  2  0  0  0  0  0  0
  1  7  1  0  0  0  0
  2 20  1  0  0  0  0
  2  1  2  0  0  0  0
  3  2  1  0  0  0  0
  4  3  2  0  0  0  0
  4  5  1  0  0  0  0
  5  6  2  0  0  0  0
  6  1  1  0  0  0  0
  8  3  1  0  0  0  0
  9 10  1  0  0  0  0
 10 11  1  0  0  0  0
 11  5  1  0  0  0  0
 11 12  2  0  0  0  0
 12 16  1  0  0  0  0
 13 12  1  0  0  0  0
 13 17  1  0  0  0  0
 14 13  2  0  0  0  0
 15 10  2  0  0  0  0
 15 14  1  0  0  0  0
 18 14  1  0  0  0  0
 19 15  1  0  0  0  0
 20 21  1  0  0  0  0
 21 22  1  0  0  0  0
 22 23  1  0  0  0  0
 24 23  1  0  0  0  0
 25 24  1  0  0  0  0
 26 21  1  0  0  0  0
 26 25  1  0  0  0  0
M  END
>  <minimizedAffinity>
-4.67736149

>  <minimizedRMSD>
6.0541048

$$$$
