
 OpenBabel03272508023D

 25 27  0  0  0  0  0  0  0  0999 V2000
   39.6060   30.7900   44.2880 C   0  0  0  0  0  0  0  0  0  0  0  0
   39.8590   32.1440   44.2930 C   0  0  0  0  0  0  0  0  0  0  0  0
   39.2830   32.7240   45.4390 C   0  0  0  0  0  0  0  0  0  0  0  0
   38.6950   31.6660   46.0890 N   0  0  0  0  0  0  0  0  0  0  0  0
   38.8900   30.5490   45.4110 N   0  0  0  0  0  0  0  0  0  0  0  0
   40.4020   32.7200   43.5640 H   0  0  0  0  0  0  0  0  0  0  0  0
   39.2960   33.7680   45.7460 H   0  0  0  0  0  0  0  0  0  0  0  0
   40.0190   29.8200   43.2910 C   0  0  0  0  0  0  0  0  0  0  0  0
   39.3900   28.5450   43.3030 C   0  0  0  0  0  0  0  0  0  0  0  0
   39.7820   27.6140   42.3510 C   0  0  0  0  0  0  0  0  0  0  0  0
   40.7450   27.9710   41.4630 N   0  0  0  0  0  0  0  0  0  0  0  0
   41.3300   29.1810   41.4670 C   0  0  0  0  0  0  0  0  0  0  0  0
   40.9520   30.0980   42.3940 N   0  0  0  0  0  0  0  0  0  0  0  0
   38.6200   28.3250   44.0480 H   0  0  0  0  0  0  0  0  0  0  0  0
   42.0920   29.4320   40.7460 H   0  0  0  0  0  0  0  0  0  0  0  0
   39.1310   26.2720   42.3490 C   0  0  0  0  0  0  0  0  0  0  0  0
   37.7660   26.5290   42.3400 F   0  0  0  0  0  0  0  0  0  0  0  0
   39.4290   25.5370   41.2270 F   0  0  0  0  0  0  0  0  0  0  0  0
   39.4120   25.5510   43.4980 F   0  0  0  0  0  0  0  0  0  0  0  0
   37.9920   31.8490   47.3230 C   0  0  0  0  0  3  0  0  0  0  0  0
   38.7470   32.7540   48.2400 C   0  0  0  0  0  2  0  0  0  0  0  0
   38.3610   32.5910   49.6880 C   0  0  0  0  0  2  0  0  0  0  0  0
   37.0040   32.0130   49.9130 C   0  0  0  0  0  2  0  0  0  0  0  0
   36.6950   30.7900   49.0910 C   0  0  0  0  0  2  0  0  0  0  0  0
   37.7780   30.5270   48.0580 C   0  0  0  0  0  2  0  0  0  0  0  0
  1  2  1  0  0  0  0
  1  5  2  0  0  0  0
  2  3  2  0  0  0  0
  3  7  1  0  0  0  0
  3  4  1  0  0  0  0
  4 20  1  0  0  0  0
  5  4  1  0  0  0  0
  6  2  1  0  0  0  0
  8  9  1  0  0  0  0
  8  1  1  0  0  0  0
  9 14  1  0  0  0  0
 10  9  2  0  0  0  0
 11 12  2  0  0  0  0
 11 10  1  0  0  0  0
 12 13  1  0  0  0  0
 13  8  2  0  0  0  0
 15 12  1  0  0  0  0
 16 10  1  0  0  0  0
 16 19  1  0  0  0  0
 17 16  1  0  0  0  0
 18 16  1  0  0  0  0
 20 25  1  0  0  0  0
 20 21  1  0  0  0  0
 21 22  1  0  0  0  0
 22 23  1  0  0  0  0
 24 23  1  0  0  0  0
 25 24  1  0  0  0  0
M  END
>  <minimizedAffinity>
-5.88443327

>  <minimizedRMSD>
7.32720089

$$$$
