
 OpenBabel03272506433D

 29 31  0  0  1  0  0  0  0  0999 V2000
   32.4080   28.3670   47.4970 C   0  0  2  0  0  0  0  0  0  0  0  0
   33.6380   28.4260   48.3770 C   0  0  1  0  0  0  0  0  0  0  0  0
   34.1950   27.1720   48.3970 O   0  0  0  0  0  0  0  0  0  0  0  0
   33.5780   26.3840   47.4510 C   0  0  0  0  0  0  0  0  0  0  0  0
   32.8550   27.3360   46.4990 C   0  0  1  0  0  0  0  0  0  0  0  0
   31.5170   28.0250   48.0620 H   0  0  0  0  0  0  0  0  0  0  0  0
   33.3550   28.7970   49.3800 H   0  0  0  0  0  0  0  0  0  0  0  0
   32.8530   25.6660   47.8750 H   0  0  0  0  0  0  0  0  0  0  0  0
   34.3850   25.9120   46.8520 H   0  0  0  0  0  0  0  0  0  0  0  0
   33.5290   27.7950   45.7630 H   0  0  0  0  0  0  0  0  0  0  0  0
   32.1670   29.6040   46.8820 O   0  0  0  0  0  0  0  0  0  0  0  0
   32.1200   30.3110   47.5720 H   0  0  0  0  0  0  0  0  0  0  0  0
   34.8100   29.5450   47.5490 S   0  0  0  0  0  0  0  0  0  0  0  0
   37.4070   29.5030   50.5310 C   0  0  0  0  0  0  0  0  0  0  0  0
   38.0220   30.7460   50.5100 C   0  0  0  0  0  0  0  0  0  0  0  0
   37.6140   31.6480   49.5200 C   0  0  0  0  0  0  0  0  0  0  0  0
   36.6430   31.2650   48.6370 N   0  0  0  0  0  0  0  0  0  0  0  0
   36.0730   30.0450   48.6970 C   0  0  0  0  0  0  0  0  0  0  0  0
   36.4500   29.1510   49.6470 N   0  0  0  0  0  0  0  0  0  0  0  0
   37.7320   28.8200   51.2990 H   0  0  0  0  0  0  0  0  0  0  0  0
   38.7860   31.0670   51.1940 H   0  0  0  0  0  0  0  0  0  0  0  0
   38.0120   32.6490   49.3920 H   0  0  0  0  0  0  0  0  0  0  0  0
   31.8000   26.6930   45.8670 O   0  0  0  0  0  0  0  0  0  0  0  0
   31.7580   26.9200   44.5040 C   0  0  0  0  0  3  0  0  0  0  0  0
   33.0730   27.4900   43.9960 C   0  0  0  0  0  2  0  0  0  0  0  0
   33.5220   26.8450   42.7150 C   0  0  0  0  0  2  0  0  0  0  0  0
   32.3970   26.6700   41.7260 C   0  0  0  0  0  2  0  0  0  0  0  0
   31.1510   26.0730   42.3160 C   0  0  0  0  0  2  0  0  0  0  0  0
   31.5080   25.6340   43.7410 C   0  0  0  0  0  2  0  0  0  0  0  0
  1  6  1  1  0  0  0
  1  2  1  0  0  0  0
  2  3  1  0  0  0  0
  2  7  1  1  0  0  0
  4  8  1  0  0  0  0
  4  3  1  0  0  0  0
  5 10  1  6  0  0  0
  5  4  1  0  0  0  0
  5  1  1  0  0  0  0
  9  4  1  0  0  0  0
 11  1  1  0  0  0  0
 11 12  1  0  0  0  0
 13  2  1  0  0  0  0
 13 18  1  0  0  0  0
 14 20  1  0  0  0  0
 15 14  1  0  0  0  0
 15 21  1  0  0  0  0
 16 15  2  0  0  0  0
 17 18  2  0  0  0  0
 17 16  1  0  0  0  0
 18 19  1  0  0  0  0
 19 14  2  0  0  0  0
 22 16  1  0  0  0  0
 23  5  1  0  0  0  0
 24 23  1  0  0  0  0
 25 24  1  0  0  0  0
 26 25  1  0  0  0  0
 27 28  1  0  0  0  0
 27 26  1  0  0  0  0
 28 29  1  0  0  0  0
 29 24  1  0  0  0  0
M  END
>  <minimizedAffinity>
-3.71698403

>  <minimizedRMSD>
0.265956789

$$$$
