
 OpenBabel03272508573D

 37 40  0  0  1  0  0  0  0  0999 V2000
   38.3270   31.9220   44.4770 C   0  0  0  0  0  0  0  0  0  0  0  0
   37.2180   32.4580   44.3940 O   0  0  0  0  0  0  0  0  0  0  0  0
   38.9140   31.6560   45.7760 N   0  0  0  0  0  0  0  0  0  0  0  0
   39.8930   31.4040   45.9300 H   0  0  0  0  0  0  0  0  0  0  0  0
   39.0970   31.5340   43.2820 C   0  0  0  0  0  0  0  0  0  0  0  0
   40.1350   30.6440   43.4320 C   0  0  0  0  0  0  0  0  0  0  0  0
   40.8480   30.2940   42.2910 C   0  0  0  0  0  0  0  0  0  0  0  0
   40.4810   30.8480   41.1010 C   0  0  0  0  0  0  0  0  0  0  0  0
   39.4430   31.7410   40.9400 C   0  0  0  0  0  0  0  0  0  0  0  0
   38.7690   32.0600   42.0770 N   0  0  0  0  0  0  0  0  0  0  0  0
   40.4090   30.2120   44.3930 H   0  0  0  0  0  0  0  0  0  0  0  0
   41.6530   29.5970   42.4360 H   0  0  0  0  0  0  0  0  0  0  0  0
   41.1010   30.5000   40.2970 H   0  0  0  0  0  0  0  0  0  0  0  0
   39.0410   32.3140   39.6450 C   0  0  2  0  0  3  0  0  0  0  0  0
   39.0310   33.6000   39.5740 O   0  0  0  0  0  1  0  0  0  0  0  0
   38.6280   31.6780   38.3670 C   0  0  0  0  0  3  0  0  0  0  0  0
   37.8620   30.4490   38.6370 C   0  0  0  0  0  2  0  0  0  0  0  0
   36.8590   30.2310   37.4960 C   0  0  0  0  0  2  0  0  0  0  0  0
   35.8260   31.3380   37.7050 C   0  0  0  0  0  2  0  0  0  0  0  0
   36.4510   32.6940   37.5200 C   0  0  0  0  0  2  0  0  0  0  0  0
   37.9400   32.6710   37.4600 C   0  0  0  0  0  2  0  0  0  0  0  0
   38.4400   31.0990   48.1550 C   0  0  2  0  0  0  0  0  0  0  0  0
   38.6980   32.5620   48.0950 C   0  0  0  0  0  0  0  0  0  0  0  0
   38.0700   31.7510   46.9410 C   0  0  1  0  0  0  0  0  0  0  0  0
   39.3620   30.4890   48.2300 H   0  0  0  0  0  0  0  0  0  0  0  0
   39.7160   32.9200   47.9680 H   0  0  0  0  0  0  0  0  0  0  0  0
   38.0480   33.1940   48.7150 H   0  0  0  0  0  0  0  0  0  0  0  0
   37.0010   32.0330   46.7820 H   0  0  0  0  0  0  0  0  0  0  0  0
   35.0760   30.2280   49.4820 C   0  0  0  0  0  0  0  0  0  0  0  0
   35.4120   29.5380   50.6990 C   0  0  0  0  0  0  0  0  0  0  0  0
   36.8110   29.4010   51.0340 C   0  0  0  0  0  0  0  0  0  0  0  0
   37.7690   29.9220   50.1970 N   0  0  0  0  0  0  0  0  0  0  0  0
   37.3560   30.5620   49.0600 C   0  0  0  0  0  0  0  0  0  0  0  0
   36.0320   30.7320   48.6740 N   0  0  0  0  0  0  0  0  0  0  0  0
   34.0380   30.3150   49.2580 H   0  0  0  0  0  0  0  0  0  0  0  0
   34.6720   29.1350   51.3470 H   0  0  0  0  0  0  0  0  0  0  0  0
   37.0630   28.8910   51.9350 H   0  0  0  0  0  0  0  0  0  0  0  0
  1  3  1  0  0  0  0
  2  1  2  0  0  0  0
  3  4  1  0  0  0  0
  3 24  1  0  0  0  0
  5  6  1  0  0  0  0
  5  1  1  0  0  0  0
  6 11  1  0  0  0  0
  7 12  1  0  0  0  0
  7  6  2  0  0  0  0
  8  7  1  0  0  0  0
  9  8  2  0  0  0  0
  9 10  1  0  0  0  0
 10  5  2  0  0  0  0
 13  8  1  0  0  0  0
 14 15  1  1  0  0  0
 14  9  1  0  0  0  0
 16 17  1  0  0  0  0
 16 14  1  0  0  0  0
 18 19  1  0  0  0  0
 18 17  1  0  0  0  0
 20 19  1  0  0  0  0
 21 20  1  0  0  0  0
 21 16  1  0  0  0  0
 22 25  1  6  0  0  0
 22 33  1  0  0  0  0
 23 22  1  0  0  0  0
 23 27  1  0  0  0  0
 24 28  1  6  0  0  0
 24 23  1  0  0  0  0
 24 22  1  0  0  0  0
 26 23  1  0  0  0  0
 29 30  1  0  0  0  0
 30 31  2  0  0  0  0
 30 36  1  0  0  0  0
 31 37  1  0  0  0  0
 32 31  1  0  0  0  0
 33 32  2  0  0  0  0
 34 33  1  0  0  0  0
 34 29  2  0  0  0  0
 35 29  1  0  0  0  0
M  END
>  <minimizedAffinity>
-4.86561489

>  <minimizedRMSD>
0.251414239

$$$$
