
 OpenBabel03272503503D

 34 36  0  0  1  0  0  0  0  0999 V2000
   33.1260   27.3220   45.8980 C   0  0  1  0  0  0  0  0  0  0  0  0
   33.9140   27.4800   47.2180 C   0  0  2  0  0  0  0  0  0  0  0  0
   33.8000   26.2550   47.7950 O   0  0  0  0  0  0  0  0  0  0  0  0
   34.0600   25.3590   46.7720 C   0  0  0  0  0  0  0  0  0  0  0  0
   33.4990   25.9240   45.5030 C   0  0  2  0  0  0  0  0  0  0  0  0
   33.5570   28.0320   45.1760 H   0  0  0  0  0  0  0  0  0  0  0  0
   34.9480   27.7950   46.9220 H   0  0  0  0  0  0  0  0  0  0  0  0
   33.5000   24.4270   47.0110 H   0  0  0  0  0  0  0  0  0  0  0  0
   35.1590   25.2210   46.7430 H   0  0  0  0  0  0  0  0  0  0  0  0
   32.6390   25.3360   45.1280 H   0  0  0  0  0  0  0  0  0  0  0  0
   31.7770   27.5200   46.1200 O   0  0  0  0  0  0  0  0  0  0  0  0
   31.4170   28.0500   45.3500 H   0  0  0  0  0  0  0  0  0  0  0  0
   33.3160   28.5280   47.8560 O   0  0  0  0  0  0  0  0  0  0  0  0
   35.3390   29.8280   46.7670 O   0  0  0  0  0  0  0  0  0  0  0  0
   34.0900   30.0030   47.6190 P   0  0  1  0  0  0  0  0  0  0  0  0
   33.0950   31.0450   46.7280 O   0  0  0  0  0  0  0  0  0  0  0  0
   32.1450   30.8940   47.0000 H   0  0  0  0  0  0  0  0  0  0  0  0
   34.4060   30.6470   49.1680 O   0  0  0  0  0  0  0  0  0  0  0  0
   35.6440   30.5190   49.7760 C   0  0  0  0  0  0  0  0  0  0  0  0
   35.9760   29.4940   50.6890 C   0  0  0  0  0  0  0  0  0  0  0  0
   37.2580   29.4900   51.2220 C   0  0  0  0  0  0  0  0  0  0  0  0
   38.1300   30.4690   50.8410 N   0  0  0  0  0  0  0  0  0  0  0  0
   37.7850   31.4440   49.9610 C   0  0  0  0  0  0  0  0  0  0  0  0
   36.5300   31.4660   49.4250 N   0  0  0  0  0  0  0  0  0  0  0  0
   35.2060   28.7710   50.9190 H   0  0  0  0  0  0  0  0  0  0  0  0
   37.5200   28.7090   51.9220 H   0  0  0  0  0  0  0  0  0  0  0  0
   38.5200   32.1920   49.6980 H   0  0  0  0  0  0  0  0  0  0  0  0
   34.4790   25.9590   44.5100 O   0  0  0  0  0  0  0  0  0  0  0  0
   34.1090   25.2750   43.3700 C   0  0  0  0  0  3  0  0  0  0  0  0
   35.1750   24.2950   42.9220 C   0  0  0  0  0  2  0  0  0  0  0  0
   35.1250   23.0810   43.8350 C   0  0  0  0  0  2  0  0  0  0  0  0
   33.8690   22.2810   43.6490 C   0  0  0  0  0  2  0  0  0  0  0  0
   32.8890   23.1370   42.8650 C   0  0  0  0  0  2  0  0  0  0  0  0
   32.8440   24.4690   43.6000 C   0  0  0  0  0  2  0  0  0  0  0  0
  1  6  1  6  0  0  0
  1 11  1  0  0  0  0
  1  2  1  0  0  0  0
  2  7  1  6  0  0  0
  2  3  1  0  0  0  0
  2 13  1  0  0  0  0
  4  8  1  0  0  0  0
  4  3  1  0  0  0  0
  5 10  1  6  0  0  0
  5  1  1  0  0  0  0
  5  4  1  0  0  0  0
  9  4  1  0  0  0  0
 12 11  1  0  0  0  0
 15 14  2  6  0  0  0
 15 13  1  0  0  0  0
 15 18  1  0  0  0  0
 16 17  1  0  0  0  0
 16 15  1  0  0  0  0
 18 19  1  0  0  0  0
 19 20  1  0  0  0  0
 20 25  1  0  0  0  0
 20 21  2  0  0  0  0
 21 26  1  0  0  0  0
 22 21  1  0  0  0  0
 23 22  2  0  0  0  0
 24 19  2  0  0  0  0
 24 23  1  0  0  0  0
 27 23  1  0  0  0  0
 28  5  1  0  0  0  0
 29 34  1  0  0  0  0
 29 28  1  0  0  0  0
 30 29  1  0  0  0  0
 30 31  1  0  0  0  0
 32 31  1  0  0  0  0
 33 34  1  0  0  0  0
 33 32  1  0  0  0  0
M  END
>  <minimizedAffinity>
-3.94549894

>  <minimizedRMSD>
0.199425101

$$$$
