
 OpenBabel03272508573D

 37 40  0  0  1  0  0  0  0  0999 V2000
   38.3460   31.8990   44.4940 C   0  0  0  0  0  0  0  0  0  0  0  0
   37.2390   32.4370   44.4000 O   0  0  0  0  0  0  0  0  0  0  0  0
   38.9200   31.6360   45.8000 N   0  0  0  0  0  0  0  0  0  0  0  0
   39.8980   31.3830   45.9630 H   0  0  0  0  0  0  0  0  0  0  0  0
   39.1250   31.5040   43.3080 C   0  0  0  0  0  0  0  0  0  0  0  0
   40.1540   30.6050   43.4690 C   0  0  0  0  0  0  0  0  0  0  0  0
   40.8750   30.2500   42.3360 C   0  0  0  0  0  0  0  0  0  0  0  0
   40.5260   30.8070   41.1420 C   0  0  0  0  0  0  0  0  0  0  0  0
   39.4980   31.7080   40.9700 C   0  0  0  0  0  0  0  0  0  0  0  0
   38.8140   32.0330   42.1000 N   0  0  0  0  0  0  0  0  0  0  0  0
   40.4140   30.1710   44.4330 H   0  0  0  0  0  0  0  0  0  0  0  0
   41.6740   29.5460   42.4890 H   0  0  0  0  0  0  0  0  0  0  0  0
   41.1520   30.4540   40.3450 H   0  0  0  0  0  0  0  0  0  0  0  0
   39.1150   32.2850   39.6710 C   0  0  2  0  0  3  0  0  0  0  0  0
   38.9510   33.5620   39.6450 O   0  0  0  0  0  1  0  0  0  0  0  0
   38.8690   31.6610   38.3450 C   0  0  0  0  0  3  0  0  0  0  0  0
   40.1490   31.3410   37.6880 C   0  0  0  0  0  2  0  0  0  0  0  0
   39.9480   30.1150   36.7870 C   0  0  0  0  0  2  0  0  0  0  0  0
   39.7670   28.9640   37.7740 C   0  0  0  0  0  2  0  0  0  0  0  0
   38.5150   29.1480   38.5870 C   0  0  0  0  0  2  0  0  0  0  0  0
   37.9040   30.5030   38.4590 C   0  0  0  0  0  2  0  0  0  0  0  0
   38.4320   31.1040   48.1820 C   0  0  2  0  0  0  0  0  0  0  0  0
   38.6770   32.5680   48.1060 C   0  0  0  0  0  0  0  0  0  0  0  0
   38.0660   31.7380   46.9570 C   0  0  1  0  0  0  0  0  0  0  0  0
   39.3590   30.5030   48.2710 H   0  0  0  0  0  0  0  0  0  0  0  0
   39.6940   32.9340   47.9820 H   0  0  0  0  0  0  0  0  0  0  0  0
   38.0170   33.2010   48.7130 H   0  0  0  0  0  0  0  0  0  0  0  0
   36.9960   32.0080   46.7860 H   0  0  0  0  0  0  0  0  0  0  0  0
   35.0650   30.2340   49.5010 C   0  0  0  0  0  0  0  0  0  0  0  0
   35.3980   29.5460   50.7200 C   0  0  0  0  0  0  0  0  0  0  0  0
   36.7970   29.4100   51.0590 C   0  0  0  0  0  0  0  0  0  0  0  0
   37.7560   29.9300   50.2240 N   0  0  0  0  0  0  0  0  0  0  0  0
   37.3460   30.5680   49.0850 C   0  0  0  0  0  0  0  0  0  0  0  0
   36.0230   30.7370   48.6940 N   0  0  0  0  0  0  0  0  0  0  0  0
   34.0280   30.3200   49.2740 H   0  0  0  0  0  0  0  0  0  0  0  0
   34.6570   29.1430   51.3670 H   0  0  0  0  0  0  0  0  0  0  0  0
   37.0460   28.9010   51.9620 H   0  0  0  0  0  0  0  0  0  0  0  0
  1  3  1  0  0  0  0
  2  1  2  0  0  0  0
  3  4  1  0  0  0  0
  3 24  1  0  0  0  0
  5  6  1  0  0  0  0
  5  1  1  0  0  0  0
  6 11  1  0  0  0  0
  7 12  1  0  0  0  0
  7  6  2  0  0  0  0
  8  7  1  0  0  0  0
  9  8  2  0  0  0  0
  9 10  1  0  0  0  0
 10  5  2  0  0  0  0
 13  8  1  0  0  0  0
 14 15  1  1  0  0  0
 14  9  1  0  0  0  0
 16 21  1  0  0  0  0
 16 14  1  0  0  0  0
 17 16  1  0  0  0  0
 18 17  1  0  0  0  0
 18 19  1  0  0  0  0
 19 20  1  0  0  0  0
 21 20  1  0  0  0  0
 22 25  1  6  0  0  0
 22 33  1  0  0  0  0
 23 22  1  0  0  0  0
 23 27  1  0  0  0  0
 24 28  1  6  0  0  0
 24 23  1  0  0  0  0
 24 22  1  0  0  0  0
 26 23  1  0  0  0  0
 29 30  1  0  0  0  0
 30 31  2  0  0  0  0
 30 36  1  0  0  0  0
 31 37  1  0  0  0  0
 32 31  1  0  0  0  0
 33 32  2  0  0  0  0
 34 33  1  0  0  0  0
 34 29  2  0  0  0  0
 35 29  1  0  0  0  0
M  END
>  <minimizedAffinity>
-4.94893742

>  <minimizedRMSD>
0.117210276

$$$$
