
 OpenBabel03272508573D

 37 40  0  0  1  0  0  0  0  0999 V2000
   38.3540   31.8980   44.4950 C   0  0  0  0  0  0  0  0  0  0  0  0
   37.2550   32.4520   44.4020 O   0  0  0  0  0  0  0  0  0  0  0  0
   38.9210   31.6170   45.8010 N   0  0  0  0  0  0  0  0  0  0  0  0
   39.8930   31.3490   45.9650 H   0  0  0  0  0  0  0  0  0  0  0  0
   39.1310   31.5010   43.3080 C   0  0  0  0  0  0  0  0  0  0  0  0
   40.1610   30.6020   43.4690 C   0  0  0  0  0  0  0  0  0  0  0  0
   40.8800   30.2450   42.3360 C   0  0  0  0  0  0  0  0  0  0  0  0
   40.5290   30.8000   41.1410 C   0  0  0  0  0  0  0  0  0  0  0  0
   39.5000   31.7000   40.9700 C   0  0  0  0  0  0  0  0  0  0  0  0
   38.8180   32.0270   42.0990 N   0  0  0  0  0  0  0  0  0  0  0  0
   40.4220   30.1700   44.4340 H   0  0  0  0  0  0  0  0  0  0  0  0
   41.6790   29.5420   42.4890 H   0  0  0  0  0  0  0  0  0  0  0  0
   41.1540   30.4450   40.3440 H   0  0  0  0  0  0  0  0  0  0  0  0
   39.1150   32.2740   39.6700 C   0  0  2  0  0  3  0  0  0  0  0  0
   38.9580   33.5520   39.6390 O   0  0  0  0  0  1  0  0  0  0  0  0
   38.8590   31.6460   38.3470 C   0  0  0  0  0  3  0  0  0  0  0  0
   40.1330   31.3210   37.6830 C   0  0  0  0  0  2  0  0  0  0  0  0
   39.9240   30.0940   36.7860 C   0  0  0  0  0  2  0  0  0  0  0  0
   39.7470   28.9460   37.7780 C   0  0  0  0  0  2  0  0  0  0  0  0
   38.5000   29.1350   38.6000 C   0  0  0  0  0  2  0  0  0  0  0  0
   37.8910   30.4910   38.4710 C   0  0  0  0  0  2  0  0  0  0  0  0
   38.4300   31.0960   48.1840 C   0  0  2  0  0  0  0  0  0  0  0  0
   38.6710   32.5600   48.1020 C   0  0  0  0  0  0  0  0  0  0  0  0
   38.0640   31.7220   46.9560 C   0  0  1  0  0  0  0  0  0  0  0  0
   39.3580   30.4980   48.2780 H   0  0  0  0  0  0  0  0  0  0  0  0
   39.6870   32.9280   47.9770 H   0  0  0  0  0  0  0  0  0  0  0  0
   38.0080   33.1950   48.7040 H   0  0  0  0  0  0  0  0  0  0  0  0
   36.9940   31.9890   46.7820 H   0  0  0  0  0  0  0  0  0  0  0  0
   35.0630   30.2310   49.5070 C   0  0  0  0  0  0  0  0  0  0  0  0
   35.3960   29.5430   50.7260 C   0  0  0  0  0  0  0  0  0  0  0  0
   36.7950   29.4050   51.0630 C   0  0  0  0  0  0  0  0  0  0  0  0
   37.7540   29.9230   50.2270 N   0  0  0  0  0  0  0  0  0  0  0  0
   37.3440   30.5610   49.0890 C   0  0  0  0  0  0  0  0  0  0  0  0
   36.0210   30.7330   48.6990 N   0  0  0  0  0  0  0  0  0  0  0  0
   34.0250   30.3190   49.2810 H   0  0  0  0  0  0  0  0  0  0  0  0
   34.6540   29.1410   51.3730 H   0  0  0  0  0  0  0  0  0  0  0  0
   37.0440   28.8950   51.9650 H   0  0  0  0  0  0  0  0  0  0  0  0
  1  3  1  0  0  0  0
  2  1  2  0  0  0  0
  3  4  1  0  0  0  0
  3 24  1  0  0  0  0
  5  6  1  0  0  0  0
  5  1  1  0  0  0  0
  6 11  1  0  0  0  0
  7 12  1  0  0  0  0
  7  6  2  0  0  0  0
  8  7  1  0  0  0  0
  9  8  2  0  0  0  0
  9 10  1  0  0  0  0
 10  5  2  0  0  0  0
 13  8  1  0  0  0  0
 14 15  1  1  0  0  0
 14  9  1  0  0  0  0
 16 21  1  0  0  0  0
 16 14  1  0  0  0  0
 17 16  1  0  0  0  0
 18 17  1  0  0  0  0
 18 19  1  0  0  0  0
 19 20  1  0  0  0  0
 21 20  1  0  0  0  0
 22 25  1  6  0  0  0
 22 33  1  0  0  0  0
 23 22  1  0  0  0  0
 23 27  1  0  0  0  0
 24 28  1  6  0  0  0
 24 23  1  0  0  0  0
 24 22  1  0  0  0  0
 26 23  1  0  0  0  0
 29 30  1  0  0  0  0
 30 31  2  0  0  0  0
 30 36  1  0  0  0  0
 31 37  1  0  0  0  0
 32 31  1  0  0  0  0
 33 32  2  0  0  0  0
 34 33  1  0  0  0  0
 34 29  2  0  0  0  0
 35 29  1  0  0  0  0
M  END
>  <minimizedAffinity>
-4.94721508

>  <minimizedRMSD>
0.747500837

$$$$
