
 OpenBabel03272508433D

 17 18  0  0  0  0  0  0  0  0999 V2000
   35.8110   20.9540   35.8210 C   0  0  0  0  0  0  0  0  0  0  0  0
   35.6790   20.6570   34.4390 C   0  0  0  0  0  0  0  0  0  0  0  0
   36.6150   21.2070   33.5360 C   0  0  0  0  0  0  0  0  0  0  0  0
   37.5870   21.9910   34.0480 N   0  0  0  0  0  0  0  0  0  0  0  0
   37.6870   22.2540   35.3560 C   0  0  0  0  0  0  0  0  0  0  0  0
   36.8240   21.7540   36.2350 N   0  0  0  0  0  0  0  0  0  0  0  0
   35.0570   20.4960   36.4470 H   0  0  0  0  0  0  0  0  0  0  0  0
   34.8860   20.0230   34.0660 H   0  0  0  0  0  0  0  0  0  0  0  0
   36.5230   20.9850   32.4810 H   0  0  0  0  0  0  0  0  0  0  0  0
   38.7270   23.0990   35.9280 C   0  0  0  0  0  0  0  0  0  0  0  0
   39.5510   22.7100   36.7850 O   0  0  0  0  0  0  0  0  0  0  0  0
   38.7900   24.5030   35.4510 C   0  0  0  0  0  3  0  0  0  0  0  0
   38.3330   25.4850   36.4940 C   0  0  0  0  0  2  0  0  0  0  0  0
   38.0210   26.7830   35.7920 C   0  0  0  0  0  2  0  0  0  0  0  0
   38.9930   27.0670   34.6970 C   0  0  0  0  0  2  0  0  0  0  0  0
   40.3090   26.3640   34.8470 C   0  0  0  0  0  2  0  0  0  0  0  0
   40.2060   24.8990   35.0720 C   0  0  0  0  0  2  0  0  0  0  0  0
  1  6  1  0  0  0  0
  1  7  1  0  0  0  0
  2  1  2  0  0  0  0
  3  4  2  0  0  0  0
  3  2  1  0  0  0  0
  4  5  1  0  0  0  0
  5 10  1  0  0  0  0
  5  6  2  0  0  0  0
  8  2  1  0  0  0  0
  9  3  1  0  0  0  0
 10 11  2  0  0  0  0
 12 10  1  0  0  0  0
 12 13  1  0  0  0  0
 14 13  1  0  0  0  0
 15 16  1  0  0  0  0
 15 14  1  0  0  0  0
 16 17  1  0  0  0  0
 17 12  1  0  0  0  0
M  END
>  <minimizedAffinity>
-4.30726147

$$$$

 OpenBabel03272508433D

 17 18  0  0  0  0  0  0  0  0999 V2000
   37.8400   23.8350   38.2740 C   0  0  0  0  0  0  0  0  0  0  0  0
   39.0210   23.1310   38.6330 C   0  0  0  0  0  0  0  0  0  0  0  0
   39.9830   22.8690   37.6330 C   0  0  0  0  0  0  0  0  0  0  0  0
   39.7180   23.3070   36.3850 N   0  0  0  0  0  0  0  0  0  0  0  0
   38.5970   23.9680   36.0750 C   0  0  0  0  0  0  0  0  0  0  0  0
   37.6690   24.2320   36.9890 N   0  0  0  0  0  0  0  0  0  0  0  0
   37.1540   23.9960   39.0940 H   0  0  0  0  0  0  0  0  0  0  0  0
   39.1990   22.7960   39.6460 H   0  0  0  0  0  0  0  0  0  0  0  0
   40.8860   22.3350   37.8970 H   0  0  0  0  0  0  0  0  0  0  0  0
   38.2900   24.4470   34.7330 C   0  0  0  0  0  0  0  0  0  0  0  0
   38.5570   23.8140   33.6870 O   0  0  0  0  0  0  0  0  0  0  0  0
   37.6220   25.7670   34.6270 C   0  0  0  0  0  3  0  0  0  0  0  0
   38.5040   26.8950   35.0870 C   0  0  0  0  0  2  0  0  0  0  0  0
   37.6190   28.0860   35.3530 C   0  0  0  0  0  2  0  0  0  0  0  0
   36.5210   28.1960   34.3500 C   0  0  0  0  0  2  0  0  0  0  0  0
   36.8030   27.4960   33.0540 C   0  0  0  0  0  2  0  0  0  0  0  0
   37.2280   26.0800   33.1940 C   0  0  0  0  0  2  0  0  0  0  0  0
  1  2  1  0  0  0  0
  1  7  1  0  0  0  0
  2  8  1  0  0  0  0
  3  9  1  0  0  0  0
  3  2  2  0  0  0  0
  4  3  1  0  0  0  0
  5  4  2  0  0  0  0
  5  6  1  0  0  0  0
  6  1  2  0  0  0  0
 10  5  1  0  0  0  0
 11 10  2  0  0  0  0
 12 10  1  0  0  0  0
 12 13  1  0  0  0  0
 13 14  1  0  0  0  0
 15 14  1  0  0  0  0
 16 17  1  0  0  0  0
 16 15  1  0  0  0  0
 17 12  1  0  0  0  0
M  END
>  <minimizedAffinity>
-4.27848339

$$$$

 OpenBabel03272508433D

 17 18  0  0  0  0  0  0  0  0999 V2000
   35.4960   20.8150   33.4850 C   0  0  0  0  0  0  0  0  0  0  0  0
   35.2600   21.4850   32.2540 C   0  0  0  0  0  0  0  0  0  0  0  0
   36.1940   22.4500   31.8190 C   0  0  0  0  0  0  0  0  0  0  0  0
   37.2640   22.6810   32.6080 N   0  0  0  0  0  0  0  0  0  0  0  0
   37.4610   22.0350   33.7630 C   0  0  0  0  0  0  0  0  0  0  0  0
   36.6040   21.1200   34.2050 N   0  0  0  0  0  0  0  0  0  0  0  0
   34.7370   20.0920   33.7480 H   0  0  0  0  0  0  0  0  0  0  0  0
   34.3900   21.2720   31.6480 H   0  0  0  0  0  0  0  0  0  0  0  0
   36.0230   22.9650   30.8830 H   0  0  0  0  0  0  0  0  0  0  0  0
   38.6080   22.2710   34.6310 C   0  0  0  0  0  0  0  0  0  0  0  0
   39.7780   21.9320   34.3490 O   0  0  0  0  0  0  0  0  0  0  0  0
   38.3450   22.9570   35.9200 C   0  0  0  0  0  3  0  0  0  0  0  0
   39.5120   22.8670   36.8660 C   0  0  0  0  0  2  0  0  0  0  0  0
   39.0030   23.1880   38.2480 C   0  0  0  0  0  2  0  0  0  0  0  0
   37.9860   24.2780   38.2240 C   0  0  0  0  0  2  0  0  0  0  0  0
   38.0600   25.1600   37.0140 C   0  0  0  0  0  2  0  0  0  0  0  0
   38.0630   24.4350   35.7180 C   0  0  0  0  0  2  0  0  0  0  0  0
  1  7  1  0  0  0  0
  1  6  1  0  0  0  0
  2  1  2  0  0  0  0
  3  2  1  0  0  0  0
  3  4  2  0  0  0  0
  4  5  1  0  0  0  0
  5  6  2  0  0  0  0
  5 10  1  0  0  0  0
  8  2  1  0  0  0  0
  9  3  1  0  0  0  0
 10 12  1  0  0  0  0
 11 10  2  0  0  0  0
 12 13  1  0  0  0  0
 13 14  1  0  0  0  0
 15 14  1  0  0  0  0
 16 15  1  0  0  0  0
 17 12  1  0  0  0  0
 17 16  1  0  0  0  0
M  END
>  <minimizedAffinity>
-4.25526237

$$$$

 OpenBabel03272508433D

 17 18  0  0  0  0  0  0  0  0999 V2000
   36.1300   22.1470   31.8070 C   0  0  0  0  0  0  0  0  0  0  0  0
   35.4300   21.0790   32.4290 C   0  0  0  0  0  0  0  0  0  0  0  0
   35.7900   20.7100   33.7440 C   0  0  0  0  0  0  0  0  0  0  0  0
   36.7860   21.4020   34.3340 N   0  0  0  0  0  0  0  0  0  0  0  0
   37.4270   22.4050   33.7240 C   0  0  0  0  0  0  0  0  0  0  0  0
   37.1170   22.7800   32.4870 N   0  0  0  0  0  0  0  0  0  0  0  0
   35.7960   22.3690   30.8020 H   0  0  0  0  0  0  0  0  0  0  0  0
   34.6360   20.5470   31.9230 H   0  0  0  0  0  0  0  0  0  0  0  0
   35.2620   19.8980   34.2260 H   0  0  0  0  0  0  0  0  0  0  0  0
   38.5070   23.1640   34.3430 C   0  0  0  0  0  0  0  0  0  0  0  0
   39.3690   23.8030   33.7010 O   0  0  0  0  0  0  0  0  0  0  0  0
   38.5660   23.1620   35.8250 C   0  0  0  0  0  3  0  0  0  0  0  0
   39.9750   23.2480   36.3440 C   0  0  0  0  0  2  0  0  0  0  0  0
   39.9590   22.8040   37.7850 C   0  0  0  0  0  2  0  0  0  0  0  0
   38.7400   23.2840   38.4980 C   0  0  0  0  0  2  0  0  0  0  0  0
   38.0920   24.4810   37.8670 C   0  0  0  0  0  2  0  0  0  0  0  0
   37.8140   24.3410   36.4150 C   0  0  0  0  0  2  0  0  0  0  0  0
  1  2  2  0  0  0  0
  1  6  1  0  0  0  0
  2  3  1  0  0  0  0
  3  9  1  0  0  0  0
  3  4  2  0  0  0  0
  5  4  1  0  0  0  0
  5 10  1  0  0  0  0
  6  5  2  0  0  0  0
  7  1  1  0  0  0  0
  8  2  1  0  0  0  0
 10 12  1  0  0  0  0
 11 10  2  0  0  0  0
 12 13  1  0  0  0  0
 12 17  1  0  0  0  0
 13 14  1  0  0  0  0
 14 15  1  0  0  0  0
 16 15  1  0  0  0  0
 17 16  1  0  0  0  0
M  END
>  <minimizedAffinity>
-4.21941566

$$$$

 OpenBabel03272508433D

 17 18  0  0  0  0  0  0  0  0999 V2000
   36.7690   26.7770   32.6360 C   0  0  0  0  0  0  0  0  0  0  0  0
   36.6460   27.8720   33.5320 C   0  0  0  0  0  0  0  0  0  0  0  0
   37.1040   27.7150   34.8590 C   0  0  0  0  0  0  0  0  0  0  0  0
   37.6340   26.5220   35.1970 N   0  0  0  0  0  0  0  0  0  0  0  0
   37.7380   25.5070   34.3310 C   0  0  0  0  0  0  0  0  0  0  0  0
   37.3180   25.6180   33.0740 N   0  0  0  0  0  0  0  0  0  0  0  0
   36.3960   26.9770   31.6400 H   0  0  0  0  0  0  0  0  0  0  0  0
   36.2150   28.8150   33.2240 H   0  0  0  0  0  0  0  0  0  0  0  0
   37.0150   28.5440   35.5480 H   0  0  0  0  0  0  0  0  0  0  0  0
   38.3050   24.2100   34.6760 C   0  0  0  0  0  0  0  0  0  0  0  0
   38.5300   23.3020   33.8450 O   0  0  0  0  0  0  0  0  0  0  0  0
   38.6250   23.9750   36.1060 C   0  0  0  0  0  3  0  0  0  0  0  0
   37.5440   23.2090   36.8180 C   0  0  0  0  0  2  0  0  0  0  0  0
   37.7460   23.4060   38.2990 C   0  0  0  0  0  2  0  0  0  0  0  0
   39.1910   23.4110   38.6640 C   0  0  0  0  0  2  0  0  0  0  0  0
   40.0780   22.7210   37.6710 C   0  0  0  0  0  2  0  0  0  0  0  0
   39.9040   23.1730   36.2670 C   0  0  0  0  0  2  0  0  0  0  0  0
  1  6  2  0  0  0  0
  1  2  1  0  0  0  0
  2  3  2  0  0  0  0
  3  4  1  0  0  0  0
  3  9  1  0  0  0  0
  5 10  1  0  0  0  0
  5  4  2  0  0  0  0
  6  5  1  0  0  0  0
  7  1  1  0  0  0  0
  8  2  1  0  0  0  0
 10 12  1  0  0  0  0
 11 10  2  0  0  0  0
 12 17  1  0  0  0  0
 12 13  1  0  0  0  0
 13 14  1  0  0  0  0
 14 15  1  0  0  0  0
 16 15  1  0  0  0  0
 17 16  1  0  0  0  0
M  END
>  <minimizedAffinity>
-4.2140584

$$$$

 OpenBabel03272508433D

 17 18  0  0  0  0  0  0  0  0999 V2000
   37.2580   22.2140   32.8990 C   0  0  0  0  0  0  0  0  0  0  0  0
   36.2440   21.7230   32.0330 C   0  0  0  0  0  0  0  0  0  0  0  0
   35.5570   22.6400   31.2090 C   0  0  0  0  0  0  0  0  0  0  0  0
   35.9080   23.9400   31.2950 N   0  0  0  0  0  0  0  0  0  0  0  0
   36.8680   24.3740   32.1200 C   0  0  0  0  0  0  0  0  0  0  0  0
   37.5370   23.5400   32.9110 N   0  0  0  0  0  0  0  0  0  0  0  0
   37.7370   21.4500   33.4970 H   0  0  0  0  0  0  0  0  0  0  0  0
   35.9900   20.6730   31.9920 H   0  0  0  0  0  0  0  0  0  0  0  0
   34.7830   22.2760   30.5460 H   0  0  0  0  0  0  0  0  0  0  0  0
   37.2610   25.7730   32.2310 C   0  0  0  0  0  0  0  0  0  0  0  0
   37.1130   26.6150   31.3180 O   0  0  0  0  0  0  0  0  0  0  0  0
   37.8710   26.2000   33.5140 C   0  0  0  0  0  3  0  0  0  0  0  0
   39.1890   26.8990   33.3190 C   0  0  0  0  0  2  0  0  0  0  0  0
   39.9100   26.8920   34.6430 C   0  0  0  0  0  2  0  0  0  0  0  0
   38.9740   27.1060   35.7840 C   0  0  0  0  0  2  0  0  0  0  0  0
   37.6930   27.7880   35.4060 C   0  0  0  0  0  2  0  0  0  0  0  0
   36.9730   27.1680   34.2640 C   0  0  0  0  0  2  0  0  0  0  0  0
  1  6  1  0  0  0  0
  1  7  1  0  0  0  0
  2  1  2  0  0  0  0
  3  4  2  0  0  0  0
  3  2  1  0  0  0  0
  4  5  1  0  0  0  0
  5 10  1  0  0  0  0
  5  6  2  0  0  0  0
  8  2  1  0  0  0  0
  9  3  1  0  0  0  0
 10 12  1  0  0  0  0
 11 10  2  0  0  0  0
 12 17  1  0  0  0  0
 13 12  1  0  0  0  0
 13 14  1  0  0  0  0
 14 15  1  0  0  0  0
 16 15  1  0  0  0  0
 17 16  1  0  0  0  0
M  END
>  <minimizedAffinity>
-4.09859562

$$$$

 OpenBabel03272508433D

 17 18  0  0  0  0  0  0  0  0999 V2000
   37.8080   24.0940   38.1160 C   0  0  0  0  0  0  0  0  0  0  0  0
   38.8820   23.3750   38.7050 C   0  0  0  0  0  0  0  0  0  0  0  0
   39.8450   22.7830   37.8580 C   0  0  0  0  0  0  0  0  0  0  0  0
   39.6830   22.9380   36.5280 N   0  0  0  0  0  0  0  0  0  0  0  0
   38.6610   23.6220   36.0010 C   0  0  0  0  0  0  0  0  0  0  0  0
   37.7350   24.1920   36.7660 N   0  0  0  0  0  0  0  0  0  0  0  0
   37.1140   24.5170   38.8300 H   0  0  0  0  0  0  0  0  0  0  0  0
   38.9780   23.2720   39.7770 H   0  0  0  0  0  0  0  0  0  0  0  0
   40.6670   22.2340   38.2980 H   0  0  0  0  0  0  0  0  0  0  0  0
   38.4660   23.7990   34.5670 C   0  0  0  0  0  0  0  0  0  0  0  0
   37.8010   23.0190   33.8510 O   0  0  0  0  0  0  0  0  0  0  0  0
   39.1060   24.9830   33.9430 C   0  0  0  0  0  3  0  0  0  0  0  0
   38.1170   26.0740   33.6350 C   0  0  0  0  0  2  0  0  0  0  0  0
   38.7620   27.0050   32.6390 C   0  0  0  0  0  2  0  0  0  0  0  0
   40.2120   27.2020   32.9240 C   0  0  0  0  0  2  0  0  0  0  0  0
   40.6020   26.9160   34.3440 C   0  0  0  0  0  2  0  0  0  0  0  0
   40.1560   25.5940   34.8540 C   0  0  0  0  0  2  0  0  0  0  0  0
  1  2  1  0  0  0  0
  1  7  1  0  0  0  0
  2  8  1  0  0  0  0
  3  9  1  0  0  0  0
  3  2  2  0  0  0  0
  4  3  1  0  0  0  0
  5  4  2  0  0  0  0
  5  6  1  0  0  0  0
  6  1  2  0  0  0  0
 10  5  1  0  0  0  0
 11 10  2  0  0  0  0
 12 10  1  0  0  0  0
 12 17  1  0  0  0  0
 13 12  1  0  0  0  0
 14 15  1  0  0  0  0
 14 13  1  0  0  0  0
 15 16  1  0  0  0  0
 16 17  1  0  0  0  0
M  END
>  <minimizedAffinity>
-4.07963228

$$$$

 OpenBabel03272508433D

 17 18  0  0  0  0  0  0  0  0999 V2000
   41.2820   22.2610   36.1450 C   0  0  0  0  0  0  0  0  0  0  0  0
   40.8750   22.2300   37.5060 C   0  0  0  0  0  0  0  0  0  0  0  0
   39.6290   22.7960   37.8520 C   0  0  0  0  0  0  0  0  0  0  0  0
   38.8940   23.3380   36.8590 N   0  0  0  0  0  0  0  0  0  0  0  0
   39.3020   23.3530   35.5850 C   0  0  0  0  0  0  0  0  0  0  0  0
   40.4690   22.8300   35.2210 N   0  0  0  0  0  0  0  0  0  0  0  0
   42.2470   21.8080   35.9610 H   0  0  0  0  0  0  0  0  0  0  0  0
   41.4920   21.7860   38.2750 H   0  0  0  0  0  0  0  0  0  0  0  0
   39.3100   22.7760   38.8860 H   0  0  0  0  0  0  0  0  0  0  0  0
   38.5250   23.9350   34.4980 C   0  0  0  0  0  0  0  0  0  0  0  0
   38.2750   23.3460   33.4240 O   0  0  0  0  0  0  0  0  0  0  0  0
   38.0100   25.3120   34.7030 C   0  0  0  0  0  3  0  0  0  0  0  0
   39.0990   26.2840   35.0640 C   0  0  0  0  0  2  0  0  0  0  0  0
   38.4420   27.5010   35.6650 C   0  0  0  0  0  2  0  0  0  0  0  0
   37.1680   27.8430   34.9700 C   0  0  0  0  0  2  0  0  0  0  0  0
   37.0680   27.3040   33.5740 C   0  0  0  0  0  2  0  0  0  0  0  0
   37.3440   25.8500   33.4490 C   0  0  0  0  0  2  0  0  0  0  0  0
  1  2  1  0  0  0  0
  2  3  2  0  0  0  0
  2  8  1  0  0  0  0
  3  9  1  0  0  0  0
  4  3  1  0  0  0  0
  5  4  2  0  0  0  0
  6  5  1  0  0  0  0
  6  1  2  0  0  0  0
  7  1  1  0  0  0  0
 10 12  1  0  0  0  0
 10  5  1  0  0  0  0
 11 10  2  0  0  0  0
 12 13  1  0  0  0  0
 13 14  1  0  0  0  0
 15 14  1  0  0  0  0
 16 15  1  0  0  0  0
 17 16  1  0  0  0  0
 17 12  1  0  0  0  0
M  END
>  <minimizedAffinity>
-4.07294703

$$$$

 OpenBabel03272508433D

 17 18  0  0  0  0  0  0  0  0999 V2000
   36.1940   25.2250   31.7210 C   0  0  0  0  0  0  0  0  0  0  0  0
   35.6510   23.9600   31.3720 C   0  0  0  0  0  0  0  0  0  0  0  0
   36.2280   22.7980   31.9290 C   0  0  0  0  0  0  0  0  0  0  0  0
   37.2720   22.9630   32.7670 N   0  0  0  0  0  0  0  0  0  0  0  0
   37.7630   24.1670   33.0790 C   0  0  0  0  0  0  0  0  0  0  0  0
   37.2460   25.2830   32.5740 N   0  0  0  0  0  0  0  0  0  0  0  0
   35.6970   26.0640   31.2540 H   0  0  0  0  0  0  0  0  0  0  0  0
   34.8110   23.8680   30.6950 H   0  0  0  0  0  0  0  0  0  0  0  0
   35.8210   21.8300   31.6680 H   0  0  0  0  0  0  0  0  0  0  0  0
   38.8910   24.3670   33.9800 C   0  0  0  0  0  0  0  0  0  0  0  0
   39.9740   24.8920   33.6390 O   0  0  0  0  0  0  0  0  0  0  0  0
   38.7210   23.9100   35.3820 C   0  0  0  0  0  3  0  0  0  0  0  0
   40.0370   23.6870   36.0760 C   0  0  0  0  0  2  0  0  0  0  0  0
   39.7710   22.8320   37.2900 C   0  0  0  0  0  2  0  0  0  0  0  0
   38.4890   23.2000   37.9560 C   0  0  0  0  0  2  0  0  0  0  0  0
   38.0190   24.5920   37.6560 C   0  0  0  0  0  2  0  0  0  0  0  0
   37.9600   24.9290   36.2110 C   0  0  0  0  0  2  0  0  0  0  0  0
  1  6  1  0  0  0  0
  2  1  2  0  0  0  0
  2  3  1  0  0  0  0
  3  4  2  0  0  0  0
  4  5  1  0  0  0  0
  5 10  1  0  0  0  0
  6  5  2  0  0  0  0
  7  1  1  0  0  0  0
  8  2  1  0  0  0  0
  9  3  1  0  0  0  0
 10 12  1  0  0  0  0
 11 10  2  0  0  0  0
 12 13  1  0  0  0  0
 12 17  1  0  0  0  0
 13 14  1  0  0  0  0
 14 15  1  0  0  0  0
 16 15  1  0  0  0  0
 17 16  1  0  0  0  0
M  END
>  <minimizedAffinity>
-4.01864719

$$$$
