
 OpenBabel03272505243D

 25 27  0  0  0  0  0  0  0  0999 V2000
   37.1470   19.6820   32.1450 C   0  0  0  0  0  0  0  0  0  0  0  0
   37.3020   21.0930   32.1030 C   0  0  0  0  0  0  0  0  0  0  0  0
   36.1670   21.8920   31.9770 C   0  0  0  0  0  0  0  0  0  0  0  0
   34.9770   21.2700   31.9000 N   0  0  0  0  0  0  0  0  0  0  0  0
   34.8150   19.9350   31.9390 C   0  0  0  0  0  0  0  0  0  0  0  0
   35.9100   19.1430   32.0620 N   0  0  0  0  0  0  0  0  0  0  0  0
   36.2540   23.2970   31.9300 N   0  0  0  0  0  0  0  0  0  0  0  0
   35.3870   24.0370   31.2080 C   0  0  0  0  0  0  0  0  0  0  0  0
   35.4880   25.4250   31.1580 C   0  0  0  0  0  0  0  0  0  0  0  0
   36.5240   26.0350   31.8880 C   0  0  0  0  0  0  0  0  0  0  0  0
   36.6510   27.2710   31.8700 O   0  0  0  0  0  0  0  0  0  0  0  0
   37.3910   25.2720   32.6130 N   0  0  0  0  0  0  0  0  0  0  0  0
   37.2080   23.9450   32.5950 C   0  0  0  0  0  0  0  0  0  0  0  0
   38.0270   23.2760   33.2800 O   0  0  0  0  0  0  0  0  0  0  0  0
   38.0030   19.0110   32.2440 H   0  0  0  0  0  0  0  0  0  0  0  0
   38.3100   21.3900   32.1640 H   0  0  0  0  0  0  0  0  0  0  0  0
   33.8320   19.4870   31.8730 H   0  0  0  0  0  0  0  0  0  0  0  0
   34.5910   23.5670   30.6480 H   0  0  0  0  0  0  0  0  0  0  0  0
   34.8190   26.0600   30.5960 H   0  0  0  0  0  0  0  0  0  0  0  0
   38.4620   25.8820   33.3700 C   0  0  0  0  0  3  0  0  0  0  0  0
   39.5340   26.4560   32.4920 C   0  0  0  0  0  2  0  0  0  0  0  0
   40.5130   27.2170   33.3420 C   0  0  0  0  0  2  0  0  0  0  0  0
   40.4900   26.7740   34.7880 C   0  0  0  0  0  2  0  0  0  0  0  0
   39.1380   27.0290   35.4190 C   0  0  0  0  0  2  0  0  0  0  0  0
   38.0250   26.8930   34.3680 C   0  0  0  0  0  2  0  0  0  0  0  0
  1 15  1  0  0  0  0
  2  1  1  0  0  0  0
  2 16  1  0  0  0  0
  3  2  2  0  0  0  0
  4  5  2  0  0  0  0
  4  3  1  0  0  0  0
  5  6  1  0  0  0  0
  6  1  2  0  0  0  0
  7  3  1  0  0  0  0
  7 13  1  0  0  0  0
  8  7  1  0  0  0  0
  9  8  2  0  0  0  0
  9 10  1  0  0  0  0
 10 12  1  0  0  0  0
 11 10  2  0  0  0  0
 12 20  1  0  0  0  0
 13 12  1  0  0  0  0
 13 14  2  0  0  0  0
 17  5  1  0  0  0  0
 18  8  1  0  0  0  0
 19  9  1  0  0  0  0
 20 25  1  0  0  0  0
 21 22  1  0  0  0  0
 21 20  1  0  0  0  0
 22 23  1  0  0  0  0
 23 24  1  0  0  0  0
 25 24  1  0  0  0  0
M  END
>  <minimizedAffinity>
-5.50466013

$$$$

 OpenBabel03272505243D

 25 27  0  0  0  0  0  0  0  0999 V2000
   37.4440   25.7970   33.5160 C   0  0  0  0  0  0  0  0  0  0  0  0
   36.9660   27.1330   33.5640 C   0  0  0  0  0  0  0  0  0  0  0  0
   36.3130   27.6550   32.4480 C   0  0  0  0  0  0  0  0  0  0  0  0
   36.1730   26.8510   31.3790 N   0  0  0  0  0  0  0  0  0  0  0  0
   36.6200   25.5830   31.3200 C   0  0  0  0  0  0  0  0  0  0  0  0
   37.2580   25.0600   32.3970 N   0  0  0  0  0  0  0  0  0  0  0  0
   35.8150   28.9720   32.4340 N   0  0  0  0  0  0  0  0  0  0  0  0
   35.7820   29.7050   31.3010 C   0  0  0  0  0  0  0  0  0  0  0  0
   35.2990   31.0110   31.2980 C   0  0  0  0  0  0  0  0  0  0  0  0
   34.8430   31.5460   32.5160 C   0  0  0  0  0  0  0  0  0  0  0  0
   34.4050   32.7080   32.5580 O   0  0  0  0  0  0  0  0  0  0  0  0
   34.8820   30.7910   33.6510 N   0  0  0  0  0  0  0  0  0  0  0  0
   35.3650   29.5460   33.5480 C   0  0  0  0  0  0  0  0  0  0  0  0
   35.3820   28.8810   34.6170 O   0  0  0  0  0  0  0  0  0  0  0  0
   37.9620   25.3390   34.3620 H   0  0  0  0  0  0  0  0  0  0  0  0
   37.1820   27.6060   34.4780 H   0  0  0  0  0  0  0  0  0  0  0  0
   36.4800   24.9800   30.4320 H   0  0  0  0  0  0  0  0  0  0  0  0
   36.1330   29.2930   30.3650 H   0  0  0  0  0  0  0  0  0  0  0  0
   35.2520   31.6360   30.4170 H   0  0  0  0  0  0  0  0  0  0  0  0
   34.4170   31.3240   34.9130 C   0  0  0  0  0  3  0  0  0  0  0  0
   33.2610   30.5520   35.4740 C   0  0  0  0  0  2  0  0  0  0  0  0
   32.9530   31.0590   36.8550 C   0  0  0  0  0  2  0  0  0  0  0  0
   33.4640   32.4640   37.0820 C   0  0  0  0  0  2  0  0  0  0  0  0
   34.9710   32.5270   36.9660 C   0  0  0  0  0  2  0  0  0  0  0  0
   35.4710   31.4900   35.9470 C   0  0  0  0  0  2  0  0  0  0  0  0
  1  2  1  0  0  0  0
  1 15  1  0  0  0  0
  2 16  1  0  0  0  0
  3  2  2  0  0  0  0
  4  3  1  0  0  0  0
  5  4  2  0  0  0  0
  5  6  1  0  0  0  0
  6  1  2  0  0  0  0
  7  3  1  0  0  0  0
  7 13  1  0  0  0  0
  8  7  1  0  0  0  0
  9  8  2  0  0  0  0
  9 10  1  0  0  0  0
 10 11  2  0  0  0  0
 10 12  1  0  0  0  0
 12 20  1  0  0  0  0
 13 12  1  0  0  0  0
 13 14  2  0  0  0  0
 17  5  1  0  0  0  0
 18  8  1  0  0  0  0
 19  9  1  0  0  0  0
 20 21  1  0  0  0  0
 20 25  1  0  0  0  0
 21 22  1  0  0  0  0
 22 23  1  0  0  0  0
 24 23  1  0  0  0  0
 25 24  1  0  0  0  0
M  END
>  <minimizedAffinity>
-5.18700695

$$$$

 OpenBabel03272505243D

 25 27  0  0  0  0  0  0  0  0999 V2000
   36.5320   28.8040   32.7350 C   0  0  0  0  0  0  0  0  0  0  0  0
   36.7340   27.4590   33.1430 C   0  0  0  0  0  0  0  0  0  0  0  0
   36.8040   26.4640   32.1690 C   0  0  0  0  0  0  0  0  0  0  0  0
   36.6720   26.8420   30.8850 N   0  0  0  0  0  0  0  0  0  0  0  0
   36.4800   28.1120   30.4850 C   0  0  0  0  0  0  0  0  0  0  0  0
   36.4100   29.0930   31.4190 N   0  0  0  0  0  0  0  0  0  0  0  0
   37.0040   25.1120   32.5090 N   0  0  0  0  0  0  0  0  0  0  0  0
   36.4650   24.1110   31.7810 C   0  0  0  0  0  0  0  0  0  0  0  0
   36.6590   22.7770   32.1310 C   0  0  0  0  0  0  0  0  0  0  0  0
   37.4370   22.5030   33.2700 C   0  0  0  0  0  0  0  0  0  0  0  0
   37.6340   21.3260   33.6180 O   0  0  0  0  0  0  0  0  0  0  0  0
   37.9750   23.5260   33.9930 N   0  0  0  0  0  0  0  0  0  0  0  0
   37.7300   24.7740   33.5730 C   0  0  0  0  0  0  0  0  0  0  0  0
   38.2460   25.6910   34.2650 O   0  0  0  0  0  0  0  0  0  0  0  0
   36.4700   29.6220   33.4570 H   0  0  0  0  0  0  0  0  0  0  0  0
   36.8000   27.3600   34.1880 H   0  0  0  0  0  0  0  0  0  0  0  0
   36.3800   28.3600   29.4360 H   0  0  0  0  0  0  0  0  0  0  0  0
   35.8670   24.3230   30.9060 H   0  0  0  0  0  0  0  0  0  0  0  0
   36.2490   21.9420   31.5800 H   0  0  0  0  0  0  0  0  0  0  0  0
   38.7780   23.2630   35.1670 C   0  0  0  0  0  3  0  0  0  0  0  0
   40.2450   23.4460   34.9150 C   0  0  0  0  0  2  0  0  0  0  0  0
   40.9880   23.3240   36.2150 C   0  0  0  0  0  2  0  0  0  0  0  0
   40.2080   22.5540   37.2570 C   0  0  0  0  0  2  0  0  0  0  0  0
   38.9140   23.2580   37.6060 C   0  0  0  0  0  2  0  0  0  0  0  0
   38.3720   24.0140   36.3830 C   0  0  0  0  0  2  0  0  0  0  0  0
  1  2  1  0  0  0  0
  1 15  1  0  0  0  0
  2 16  1  0  0  0  0
  3  7  1  0  0  0  0
  3  2  2  0  0  0  0
  4  3  1  0  0  0  0
  5  4  2  0  0  0  0
  5  6  1  0  0  0  0
  6  1  2  0  0  0  0
  7 13  1  0  0  0  0
  8  9  2  0  0  0  0
  8  7  1  0  0  0  0
  9 10  1  0  0  0  0
 10 11  2  0  0  0  0
 10 12  1  0  0  0  0
 12 20  1  0  0  0  0
 13 12  1  0  0  0  0
 13 14  2  0  0  0  0
 17  5  1  0  0  0  0
 18  8  1  0  0  0  0
 19  9  1  0  0  0  0
 20 25  1  0  0  0  0
 21 20  1  0  0  0  0
 21 22  1  0  0  0  0
 22 23  1  0  0  0  0
 23 24  1  0  0  0  0
 25 24  1  0  0  0  0
M  END
>  <minimizedAffinity>
-5.10357189

$$$$

 OpenBabel03272505243D

 25 27  0  0  0  0  0  0  0  0999 V2000
   35.5260   24.0420   31.2320 C   0  0  0  0  0  0  0  0  0  0  0  0
   36.7340   24.1760   31.9660 C   0  0  0  0  0  0  0  0  0  0  0  0
   37.2210   25.4550   32.2320 C   0  0  0  0  0  0  0  0  0  0  0  0
   36.5100   26.4990   31.7700 N   0  0  0  0  0  0  0  0  0  0  0  0
   35.3640   26.3850   31.0730 C   0  0  0  0  0  0  0  0  0  0  0  0
   34.8760   25.1480   30.8060 N   0  0  0  0  0  0  0  0  0  0  0  0
   38.4130   25.6550   32.9550 N   0  0  0  0  0  0  0  0  0  0  0  0
   39.2290   26.7010   32.7030 C   0  0  0  0  0  0  0  0  0  0  0  0
   40.4110   26.8840   33.4160 C   0  0  0  0  0  0  0  0  0  0  0  0
   40.7300   25.9440   34.4120 C   0  0  0  0  0  0  0  0  0  0  0  0
   41.7760   26.0700   35.0700 O   0  0  0  0  0  0  0  0  0  0  0  0
   39.8940   24.8950   34.6550 N   0  0  0  0  0  0  0  0  0  0  0  0
   38.7820   24.8080   33.9140 C   0  0  0  0  0  0  0  0  0  0  0  0
   38.0340   23.8270   34.1700 O   0  0  0  0  0  0  0  0  0  0  0  0
   35.1000   23.0630   30.9970 H   0  0  0  0  0  0  0  0  0  0  0  0
   37.1520   23.2480   32.2290 H   0  0  0  0  0  0  0  0  0  0  0  0
   34.8310   27.2610   30.7240 H   0  0  0  0  0  0  0  0  0  0  0  0
   38.9810   27.4220   31.9360 H   0  0  0  0  0  0  0  0  0  0  0  0
   41.0950   27.7050   33.2500 H   0  0  0  0  0  0  0  0  0  0  0  0
   40.2060   23.9190   35.6760 C   0  0  0  0  0  3  0  0  0  0  0  0
   39.1450   23.8280   36.7300 C   0  0  0  0  0  2  0  0  0  0  0  0
   39.4590   22.6810   37.6490 C   0  0  0  0  0  2  0  0  0  0  0  0
   40.9240   22.3030   37.6230 C   0  0  0  0  0  2  0  0  0  0  0  0
   41.3450   21.8340   36.2470 C   0  0  0  0  0  2  0  0  0  0  0  0
   40.5350   22.5630   35.1640 C   0  0  0  0  0  2  0  0  0  0  0  0
  1  2  1  0  0  0  0
  2 16  1  0  0  0  0
  2  3  2  0  0  0  0
  3  7  1  0  0  0  0
  4  3  1  0  0  0  0
  5  4  2  0  0  0  0
  6  5  1  0  0  0  0
  6  1  2  0  0  0  0
  7 13  1  0  0  0  0
  8  7  1  0  0  0  0
  8  9  2  0  0  0  0
  9 10  1  0  0  0  0
 10 12  1  0  0  0  0
 10 11  2  0  0  0  0
 12 20  1  0  0  0  0
 13 14  2  0  0  0  0
 13 12  1  0  0  0  0
 15  1  1  0  0  0  0
 17  5  1  0  0  0  0
 18  8  1  0  0  0  0
 19  9  1  0  0  0  0
 20 21  1  0  0  0  0
 21 22  1  0  0  0  0
 23 22  1  0  0  0  0
 24 23  1  0  0  0  0
 25 20  1  0  0  0  0
 25 24  1  0  0  0  0
M  END
>  <minimizedAffinity>
-5.09594679

$$$$

 OpenBabel03272505243D

 25 27  0  0  0  0  0  0  0  0999 V2000
   35.5210   30.5350   33.4910 C   0  0  0  0  0  0  0  0  0  0  0  0
   35.8410   29.1510   33.4980 C   0  0  0  0  0  0  0  0  0  0  0  0
   35.9060   28.4700   32.2840 C   0  0  0  0  0  0  0  0  0  0  0  0
   35.6570   29.1720   31.1640 N   0  0  0  0  0  0  0  0  0  0  0  0
   35.3520   30.4830   31.1440 C   0  0  0  0  0  0  0  0  0  0  0  0
   35.2850   31.1610   32.3160 N   0  0  0  0  0  0  0  0  0  0  0  0
   36.2190   27.0980   32.2240 N   0  0  0  0  0  0  0  0  0  0  0  0
   35.6960   26.2920   31.2750 C   0  0  0  0  0  0  0  0  0  0  0  0
   36.0020   24.9350   31.2300 C   0  0  0  0  0  0  0  0  0  0  0  0
   36.8770   24.4260   32.2060 C   0  0  0  0  0  0  0  0  0  0  0  0
   37.1760   23.2190   32.2020 O   0  0  0  0  0  0  0  0  0  0  0  0
   37.3980   25.2540   33.1570 N   0  0  0  0  0  0  0  0  0  0  0  0
   37.0410   26.5440   33.1130 C   0  0  0  0  0  0  0  0  0  0  0  0
   37.5440   27.2760   34.0060 O   0  0  0  0  0  0  0  0  0  0  0  0
   35.4580   31.1160   34.4140 H   0  0  0  0  0  0  0  0  0  0  0  0
   35.9890   28.7760   34.4700 H   0  0  0  0  0  0  0  0  0  0  0  0
   35.1600   30.9990   30.2110 H   0  0  0  0  0  0  0  0  0  0  0  0
   35.0230   26.6850   30.5250 H   0  0  0  0  0  0  0  0  0  0  0  0
   35.6100   24.2510   30.4900 H   0  0  0  0  0  0  0  0  0  0  0  0
   38.3000   24.7480   34.1680 C   0  0  0  0  0  3  0  0  0  0  0  0
   39.7260   25.1280   33.9100 C   0  0  0  0  0  2  0  0  0  0  0  0
   40.5670   24.7160   35.0860 C   0  0  0  0  0  2  0  0  0  0  0  0
   39.9230   23.6170   35.9010 C   0  0  0  0  0  2  0  0  0  0  0  0
   38.6080   24.0730   36.4960 C   0  0  0  0  0  2  0  0  0  0  0  0
   37.9250   25.0880   35.5650 C   0  0  0  0  0  2  0  0  0  0  0  0
  1  2  1  0  0  0  0
  1 15  1  0  0  0  0
  2 16  1  0  0  0  0
  3  2  2  0  0  0  0
  4  3  1  0  0  0  0
  5  4  2  0  0  0  0
  5  6  1  0  0  0  0
  6  1  2  0  0  0  0
  7  3  1  0  0  0  0
  7 13  1  0  0  0  0
  8  7  1  0  0  0  0
  9  8  2  0  0  0  0
  9 10  1  0  0  0  0
 10 12  1  0  0  0  0
 11 10  2  0  0  0  0
 12 20  1  0  0  0  0
 13 12  1  0  0  0  0
 13 14  2  0  0  0  0
 17  5  1  0  0  0  0
 18  8  1  0  0  0  0
 19  9  1  0  0  0  0
 20 25  1  0  0  0  0
 21 20  1  0  0  0  0
 21 22  1  0  0  0  0
 22 23  1  0  0  0  0
 23 24  1  0  0  0  0
 25 24  1  0  0  0  0
M  END
>  <minimizedAffinity>
-5.0185256

$$$$

 OpenBabel03272505243D

 25 27  0  0  0  0  0  0  0  0999 V2000
   39.4440   25.9040   30.5130 C   0  0  0  0  0  0  0  0  0  0  0  0
   38.8610   25.1780   31.5860 C   0  0  0  0  0  0  0  0  0  0  0  0
   38.4830   23.8530   31.3750 C   0  0  0  0  0  0  0  0  0  0  0  0
   38.6950   23.3340   30.1530 N   0  0  0  0  0  0  0  0  0  0  0  0
   39.2470   24.0100   29.1280 C   0  0  0  0  0  0  0  0  0  0  0  0
   39.6200   25.3000   29.3160 N   0  0  0  0  0  0  0  0  0  0  0  0
   37.9000   23.0810   32.3990 N   0  0  0  0  0  0  0  0  0  0  0  0
   36.9830   22.1270   32.1310 C   0  0  0  0  0  0  0  0  0  0  0  0
   36.4030   21.3750   33.1510 C   0  0  0  0  0  0  0  0  0  0  0  0
   36.8040   21.6410   34.4720 C   0  0  0  0  0  0  0  0  0  0  0  0
   36.3110   20.9940   35.4120 O   0  0  0  0  0  0  0  0  0  0  0  0
   37.7330   22.6080   34.7240 N   0  0  0  0  0  0  0  0  0  0  0  0
   38.2300   23.2740   33.6740 C   0  0  0  0  0  0  0  0  0  0  0  0
   39.0860   24.1560   33.9470 O   0  0  0  0  0  0  0  0  0  0  0  0
   39.7590   26.9440   30.6250 H   0  0  0  0  0  0  0  0  0  0  0  0
   38.7640   25.7570   32.4590 H   0  0  0  0  0  0  0  0  0  0  0  0
   39.3940   23.5420   28.1630 H   0  0  0  0  0  0  0  0  0  0  0  0
   36.6760   21.9240   31.1150 H   0  0  0  0  0  0  0  0  0  0  0  0
   35.6670   20.6010   32.9870 H   0  0  0  0  0  0  0  0  0  0  0  0
   38.1570   22.8940   36.0770 C   0  0  0  0  0  3  0  0  0  0  0  0
   39.5360   22.3820   36.3690 C   0  0  0  0  0  2  0  0  0  0  0  0
   39.9650   22.8680   37.7250 C   0  0  0  0  0  2  0  0  0  0  0  0
   38.7920   23.2350   38.6060 C   0  0  0  0  0  2  0  0  0  0  0  0
   37.9950   24.3760   38.0130 C   0  0  0  0  0  2  0  0  0  0  0  0
   38.0470   24.3210   36.4770 C   0  0  0  0  0  2  0  0  0  0  0  0
  1 15  1  0  0  0  0
  1  2  1  0  0  0  0
  2 16  1  0  0  0  0
  3  2  2  0  0  0  0
  3  7  1  0  0  0  0
  4  3  1  0  0  0  0
  5  6  1  0  0  0  0
  5  4  2  0  0  0  0
  6  1  2  0  0  0  0
  7 13  1  0  0  0  0
  8  7  1  0  0  0  0
  8  9  2  0  0  0  0
  9 10  1  0  0  0  0
 10 12  1  0  0  0  0
 10 11  2  0  0  0  0
 12 20  1  0  0  0  0
 13 14  2  0  0  0  0
 13 12  1  0  0  0  0
 17  5  1  0  0  0  0
 18  8  1  0  0  0  0
 19  9  1  0  0  0  0
 20 21  1  0  0  0  0
 20 25  1  0  0  0  0
 21 22  1  0  0  0  0
 22 23  1  0  0  0  0
 24 23  1  0  0  0  0
 25 24  1  0  0  0  0
M  END
>  <minimizedAffinity>
-4.98604822

$$$$

 OpenBabel03272505243D

 25 27  0  0  0  0  0  0  0  0999 V2000
   36.0110   27.6730   31.2900 C   0  0  0  0  0  0  0  0  0  0  0  0
   36.2720   26.2900   31.1020 C   0  0  0  0  0  0  0  0  0  0  0  0
   37.5790   25.8810   30.8400 C   0  0  0  0  0  0  0  0  0  0  0  0
   38.5270   26.8330   30.7790 N   0  0  0  0  0  0  0  0  0  0  0  0
   38.2930   28.1470   30.9560 C   0  0  0  0  0  0  0  0  0  0  0  0
   37.0280   28.5620   31.2120 N   0  0  0  0  0  0  0  0  0  0  0  0
   37.9020   24.5240   30.6440 N   0  0  0  0  0  0  0  0  0  0  0  0
   38.8910   24.1440   29.8080 C   0  0  0  0  0  0  0  0  0  0  0  0
   39.1970   22.8000   29.6130 C   0  0  0  0  0  0  0  0  0  0  0  0
   38.4400   21.8450   30.3160 C   0  0  0  0  0  0  0  0  0  0  0  0
   38.6790   20.6350   30.1690 O   0  0  0  0  0  0  0  0  0  0  0  0
   37.4450   22.2460   31.1570 N   0  0  0  0  0  0  0  0  0  0  0  0
   37.2300   23.5630   31.2760 C   0  0  0  0  0  0  0  0  0  0  0  0
   36.3050   23.8930   32.0640 O   0  0  0  0  0  0  0  0  0  0  0  0
   35.0060   28.0470   31.4990 H   0  0  0  0  0  0  0  0  0  0  0  0
   35.4030   25.7020   31.1730 H   0  0  0  0  0  0  0  0  0  0  0  0
   39.0960   28.8710   30.8960 H   0  0  0  0  0  0  0  0  0  0  0  0
   39.4720   24.8800   29.2690 H   0  0  0  0  0  0  0  0  0  0  0  0
   39.9790   22.4470   28.9550 H   0  0  0  0  0  0  0  0  0  0  0  0
   36.6570   21.2780   31.8890 C   0  0  0  0  0  3  0  0  0  0  0  0
   36.7340   21.4760   33.3730 C   0  0  0  0  0  2  0  0  0  0  0  0
   35.7600   20.5490   34.0450 C   0  0  0  0  0  2  0  0  0  0  0  0
   35.3980   19.3630   33.1790 C   0  0  0  0  0  2  0  0  0  0  0  0
   34.7090   19.8030   31.9050 C   0  0  0  0  0  2  0  0  0  0  0  0
   35.2370   21.1760   31.4600 C   0  0  0  0  0  2  0  0  0  0  0  0
  1 15  1  0  0  0  0
  2 16  1  0  0  0  0
  2  1  2  0  0  0  0
  3  2  1  0  0  0  0
  4  3  2  0  0  0  0
  4  5  1  0  0  0  0
  5  6  2  0  0  0  0
  6  1  1  0  0  0  0
  7  3  1  0  0  0  0
  7 13  1  0  0  0  0
  8  7  1  0  0  0  0
  9  8  2  0  0  0  0
  9 10  1  0  0  0  0
 10 12  1  0  0  0  0
 11 10  2  0  0  0  0
 12 13  1  0  0  0  0
 12 20  1  0  0  0  0
 13 14  2  0  0  0  0
 17  5  1  0  0  0  0
 18  8  1  0  0  0  0
 19  9  1  0  0  0  0
 20 21  1  0  0  0  0
 21 22  1  0  0  0  0
 23 22  1  0  0  0  0
 24 23  1  0  0  0  0
 25 20  1  0  0  0  0
 25 24  1  0  0  0  0
M  END
>  <minimizedAffinity>
-4.95186901

$$$$

 OpenBabel03272505243D

 25 27  0  0  0  0  0  0  0  0999 V2000
   36.5780   27.9360   30.3860 C   0  0  0  0  0  0  0  0  0  0  0  0
   36.9140   26.6840   30.9670 C   0  0  0  0  0  0  0  0  0  0  0  0
   36.9620   26.5780   32.3560 C   0  0  0  0  0  0  0  0  0  0  0  0
   36.6850   27.6820   33.0720 N   0  0  0  0  0  0  0  0  0  0  0  0
   36.3650   28.8740   32.5350 C   0  0  0  0  0  0  0  0  0  0  0  0
   36.3140   28.9940   31.1850 N   0  0  0  0  0  0  0  0  0  0  0  0
   37.2880   25.3650   32.9920 N   0  0  0  0  0  0  0  0  0  0  0  0
   37.9520   25.3370   34.1670 C   0  0  0  0  0  0  0  0  0  0  0  0
   38.2800   24.1320   34.7840 C   0  0  0  0  0  0  0  0  0  0  0  0
   37.8970   22.9400   34.1430 C   0  0  0  0  0  0  0  0  0  0  0  0
   38.1710   21.8430   34.6590 O   0  0  0  0  0  0  0  0  0  0  0  0
   37.2260   22.9870   32.9570 N   0  0  0  0  0  0  0  0  0  0  0  0
   36.9580   24.1960   32.4470 C   0  0  0  0  0  0  0  0  0  0  0  0
   36.3350   24.1970   31.3520 O   0  0  0  0  0  0  0  0  0  0  0  0
   36.5260   28.0730   29.3030 H   0  0  0  0  0  0  0  0  0  0  0  0
   37.1110   25.9440   30.2450 H   0  0  0  0  0  0  0  0  0  0  0  0
   36.1510   29.7310   33.1610 H   0  0  0  0  0  0  0  0  0  0  0  0
   38.2460   26.2540   34.6590 H   0  0  0  0  0  0  0  0  0  0  0  0
   38.8090   24.0580   35.7240 H   0  0  0  0  0  0  0  0  0  0  0  0
   36.8230   21.7710   32.2840 C   0  0  0  0  0  3  0  0  0  0  0  0
   37.9830   20.8720   31.9750 C   0  0  0  0  0  2  0  0  0  0  0  0
   37.4660   19.5670   31.4390 C   0  0  0  0  0  2  0  0  0  0  0  0
   36.0720   19.6890   30.8640 C   0  0  0  0  0  2  0  0  0  0  0  0
   35.0750   20.1030   31.9250 C   0  0  0  0  0  2  0  0  0  0  0  0
   35.7510   21.0030   32.9700 C   0  0  0  0  0  2  0  0  0  0  0  0
  1  2  2  0  0  0  0
  1  6  1  0  0  0  0
  2  3  1  0  0  0  0
  3  7  1  0  0  0  0
  3  4  2  0  0  0  0
  5  4  1  0  0  0  0
  5 17  1  0  0  0  0
  6  5  2  0  0  0  0
  7  8  1  0  0  0  0
  8 18  1  0  0  0  0
  8  9  2  0  0  0  0
  9 19  1  0  0  0  0
 10 11  2  0  0  0  0
 10  9  1  0  0  0  0
 12 10  1  0  0  0  0
 13 12  1  0  0  0  0
 13  7  1  0  0  0  0
 14 13  2  0  0  0  0
 15  1  1  0  0  0  0
 16  2  1  0  0  0  0
 20 12  1  0  0  0  0
 20 25  1  0  0  0  0
 21 20  1  0  0  0  0
 22 21  1  0  0  0  0
 23 22  1  0  0  0  0
 23 24  1  0  0  0  0
 24 25  1  0  0  0  0
M  END
>  <minimizedAffinity>
-4.86289787

$$$$

 OpenBabel03272505243D

 25 27  0  0  0  0  0  0  0  0999 V2000
   40.7800   24.0730   35.2750 C   0  0  0  0  0  0  0  0  0  0  0  0
   39.8510   24.5480   34.3120 C   0  0  0  0  0  0  0  0  0  0  0  0
   38.6620   23.8460   34.1200 C   0  0  0  0  0  0  0  0  0  0  0  0
   38.4640   22.7460   34.8680 N   0  0  0  0  0  0  0  0  0  0  0  0
   39.3350   22.2850   35.7840 C   0  0  0  0  0  0  0  0  0  0  0  0
   40.4970   22.9570   35.9830 N   0  0  0  0  0  0  0  0  0  0  0  0
   37.7000   24.2660   33.1810 N   0  0  0  0  0  0  0  0  0  0  0  0
   36.9270   23.3820   32.5150 C   0  0  0  0  0  0  0  0  0  0  0  0
   35.9860   23.8060   31.5790 C   0  0  0  0  0  0  0  0  0  0  0  0
   35.8650   25.1880   31.3490 C   0  0  0  0  0  0  0  0  0  0  0  0
   35.0380   25.6080   30.5210 O   0  0  0  0  0  0  0  0  0  0  0  0
   36.6530   26.0670   32.0310 N   0  0  0  0  0  0  0  0  0  0  0  0
   37.5270   25.5580   32.9100 C   0  0  0  0  0  0  0  0  0  0  0  0
   38.2340   26.4020   33.5220 O   0  0  0  0  0  0  0  0  0  0  0  0
   41.7260   24.5860   35.4650 H   0  0  0  0  0  0  0  0  0  0  0  0
   40.1880   25.4140   33.8180 H   0  0  0  0  0  0  0  0  0  0  0  0
   39.1240   21.3920   36.3590 H   0  0  0  0  0  0  0  0  0  0  0  0
   37.0220   22.3200   32.6930 H   0  0  0  0  0  0  0  0  0  0  0  0
   35.3450   23.1380   31.0220 H   0  0  0  0  0  0  0  0  0  0  0  0
   36.5420   27.4910   31.8080 C   0  0  0  0  0  3  0  0  0  0  0  0
   36.9210   27.8870   30.4130 C   0  0  0  0  0  2  0  0  0  0  0  0
   36.6140   29.3450   30.2120 C   0  0  0  0  0  2  0  0  0  0  0  0
   36.5420   30.1050   31.5180 C   0  0  0  0  0  2  0  0  0  0  0  0
   35.4260   29.5840   32.3970 C   0  0  0  0  0  2  0  0  0  0  0  0
   35.2230   28.0780   32.1640 C   0  0  0  0  0  2  0  0  0  0  0  0
  1 15  1  0  0  0  0
  1  6  1  0  0  0  0
  2  1  2  0  0  0  0
  3  2  1  0  0  0  0
  3  4  2  0  0  0  0
  4  5  1  0  0  0  0
  5  6  2  0  0  0  0
  5 17  1  0  0  0  0
  7  3  1  0  0  0  0
  8 18  1  0  0  0  0
  8  7  1  0  0  0  0
  9  8  2  0  0  0  0
 10  9  1  0  0  0  0
 10 12  1  0  0  0  0
 11 10  2  0  0  0  0
 12 13  1  0  0  0  0
 13  7  1  0  0  0  0
 13 14  2  0  0  0  0
 16  2  1  0  0  0  0
 19  9  1  0  0  0  0
 20 12  1  0  0  0  0
 20 25  1  0  0  0  0
 21 20  1  0  0  0  0
 22 21  1  0  0  0  0
 22 23  1  0  0  0  0
 23 24  1  0  0  0  0
 25 24  1  0  0  0  0
M  END
>  <minimizedAffinity>
-4.86211252

$$$$
