
 OpenBabel03272508573D

 37 40  0  0  1  0  0  0  0  0999 V2000
   38.3540   31.9010   44.5000 C   0  0  0  0  0  0  0  0  0  0  0  0
   37.2560   32.4580   44.4080 O   0  0  0  0  0  0  0  0  0  0  0  0
   38.9210   31.6170   45.8040 N   0  0  0  0  0  0  0  0  0  0  0  0
   39.8940   31.3460   45.9670 H   0  0  0  0  0  0  0  0  0  0  0  0
   39.1300   31.5040   43.3110 C   0  0  0  0  0  0  0  0  0  0  0  0
   40.1170   30.5570   43.4590 C   0  0  0  0  0  0  0  0  0  0  0  0
   40.8360   30.2000   42.3250 C   0  0  0  0  0  0  0  0  0  0  0  0
   40.5250   30.8040   41.1420 C   0  0  0  0  0  0  0  0  0  0  0  0
   39.5390   31.7530   40.9840 C   0  0  0  0  0  0  0  0  0  0  0  0
   38.8570   32.0770   42.1140 N   0  0  0  0  0  0  0  0  0  0  0  0
   40.3460   30.0870   44.4140 H   0  0  0  0  0  0  0  0  0  0  0  0
   41.6010   29.4590   42.4680 H   0  0  0  0  0  0  0  0  0  0  0  0
   41.1450   30.4440   40.3430 H   0  0  0  0  0  0  0  0  0  0  0  0
   39.1970   32.3800   39.6970 C   0  0  2  0  0  3  0  0  0  0  0  0
   38.7030   33.5670   39.7590 O   0  0  0  0  0  1  0  0  0  0  0  0
   39.3100   31.8920   38.2980 C   0  0  0  0  0  3  0  0  0  0  0  0
   38.1950   32.4130   37.4870 C   0  0  0  0  0  2  0  0  0  0  0  0
   38.6700   32.5640   36.0350 C   0  0  0  0  0  2  0  0  0  0  0  0
   39.6400   33.7420   36.0910 C   0  0  0  0  0  2  0  0  0  0  0  0
   40.8400   33.4070   36.9360 C   0  0  0  0  0  2  0  0  0  0  0  0
   40.6870   32.1570   37.7360 C   0  0  0  0  0  2  0  0  0  0  0  0
   38.4320   31.0940   48.1880 C   0  0  2  0  0  0  0  0  0  0  0  0
   38.6750   32.5580   48.1060 C   0  0  0  0  0  0  0  0  0  0  0  0
   38.0660   31.7220   46.9600 C   0  0  1  0  0  0  0  0  0  0  0  0
   39.3600   30.4950   48.2810 H   0  0  0  0  0  0  0  0  0  0  0  0
   39.6910   32.9250   47.9810 H   0  0  0  0  0  0  0  0  0  0  0  0
   38.0140   33.1940   48.7100 H   0  0  0  0  0  0  0  0  0  0  0  0
   36.9960   31.9910   46.7870 H   0  0  0  0  0  0  0  0  0  0  0  0
   35.0650   30.2340   49.5140 C   0  0  0  0  0  0  0  0  0  0  0  0
   35.3980   29.5430   50.7300 C   0  0  0  0  0  0  0  0  0  0  0  0
   36.7970   29.4020   51.0660 C   0  0  0  0  0  0  0  0  0  0  0  0
   37.7560   29.9200   50.2290 N   0  0  0  0  0  0  0  0  0  0  0  0
   37.3460   30.5610   49.0930 C   0  0  0  0  0  0  0  0  0  0  0  0
   36.0220   30.7360   48.7050 N   0  0  0  0  0  0  0  0  0  0  0  0
   34.0270   30.3250   49.2890 H   0  0  0  0  0  0  0  0  0  0  0  0
   34.6560   29.1420   51.3780 H   0  0  0  0  0  0  0  0  0  0  0  0
   37.0460   28.8900   51.9670 H   0  0  0  0  0  0  0  0  0  0  0  0
  1  3  1  0  0  0  0
  2  1  2  0  0  0  0
  3  4  1  0  0  0  0
  3 24  1  0  0  0  0
  5  6  1  0  0  0  0
  5  1  1  0  0  0  0
  6 11  1  0  0  0  0
  7 12  1  0  0  0  0
  7  6  2  0  0  0  0
  8  7  1  0  0  0  0
  9  8  2  0  0  0  0
  9 10  1  0  0  0  0
 10  5  2  0  0  0  0
 13  8  1  0  0  0  0
 14 15  1  1  0  0  0
 14  9  1  0  0  0  0
 16 14  1  0  0  0  0
 17 16  1  0  0  0  0
 18 19  1  0  0  0  0
 18 17  1  0  0  0  0
 19 20  1  0  0  0  0
 20 21  1  0  0  0  0
 21 16  1  0  0  0  0
 22 25  1  6  0  0  0
 22 33  1  0  0  0  0
 23 22  1  0  0  0  0
 23 27  1  0  0  0  0
 24 28  1  6  0  0  0
 24 23  1  0  0  0  0
 24 22  1  0  0  0  0
 26 23  1  0  0  0  0
 29 30  1  0  0  0  0
 30 31  2  0  0  0  0
 30 36  1  0  0  0  0
 31 37  1  0  0  0  0
 32 31  1  0  0  0  0
 33 32  2  0  0  0  0
 34 33  1  0  0  0  0
 34 29  2  0  0  0  0
 35 29  1  0  0  0  0
M  END
>  <minimizedAffinity>
-4.98581266

>  <minimizedRMSD>
0.973557651

$$$$
