
 OpenBabel03272503493D

 34 36  0  0  1  0  0  0  0  0999 V2000
   33.1930   27.3400   45.8520 C   0  0  1  0  0  0  0  0  0  0  0  0
   33.9260   27.4690   47.2060 C   0  0  2  0  0  0  0  0  0  0  0  0
   33.7740   26.2370   47.7580 O   0  0  0  0  0  0  0  0  0  0  0  0
   34.0680   25.3540   46.7330 C   0  0  0  0  0  0  0  0  0  0  0  0
   33.5680   25.9440   45.4510 C   0  0  2  0  0  0  0  0  0  0  0  0
   33.6620   28.0560   45.1600 H   0  0  0  0  0  0  0  0  0  0  0  0
   34.9750   27.7770   46.9600 H   0  0  0  0  0  0  0  0  0  0  0  0
   33.4890   24.4240   46.9330 H   0  0  0  0  0  0  0  0  0  0  0  0
   35.1660   25.2040   46.7490 H   0  0  0  0  0  0  0  0  0  0  0  0
   32.7190   25.3720   45.0300 H   0  0  0  0  0  0  0  0  0  0  0  0
   31.8390   27.5490   46.0180 O   0  0  0  0  0  0  0  0  0  0  0  0
   31.5170   28.0950   45.2420 H   0  0  0  0  0  0  0  0  0  0  0  0
   33.3120   28.5130   47.8340 O   0  0  0  0  0  0  0  0  0  0  0  0
   35.3460   29.8230   46.7770 O   0  0  0  0  0  0  0  0  0  0  0  0
   34.0890   29.9910   47.6200 P   0  0  1  0  0  0  0  0  0  0  0  0
   33.1030   31.0420   46.7310 O   0  0  0  0  0  0  0  0  0  0  0  0
   32.1500   30.8890   46.9930 H   0  0  0  0  0  0  0  0  0  0  0  0
   34.3910   30.6180   49.1780 O   0  0  0  0  0  0  0  0  0  0  0  0
   35.6300   30.5020   49.7860 C   0  0  0  0  0  0  0  0  0  0  0  0
   35.9700   29.4850   50.7050 C   0  0  0  0  0  0  0  0  0  0  0  0
   37.2520   29.4930   51.2380 C   0  0  0  0  0  0  0  0  0  0  0  0
   38.1160   30.4770   50.8520 N   0  0  0  0  0  0  0  0  0  0  0  0
   37.7640   31.4450   49.9670 C   0  0  0  0  0  0  0  0  0  0  0  0
   36.5080   31.4550   49.4310 N   0  0  0  0  0  0  0  0  0  0  0  0
   35.2060   28.7570   50.9380 H   0  0  0  0  0  0  0  0  0  0  0  0
   37.5200   28.7180   51.9410 H   0  0  0  0  0  0  0  0  0  0  0  0
   38.4930   32.1970   49.7010 H   0  0  0  0  0  0  0  0  0  0  0  0
   34.5900   25.9830   44.5010 O   0  0  0  0  0  0  0  0  0  0  0  0
   34.3830   26.9430   43.5320 C   0  0  0  0  0  3  0  0  0  0  0  0
   35.6660   27.6580   43.1530 C   0  0  0  0  0  2  0  0  0  0  0  0
   36.4820   26.7360   42.2630 C   0  0  0  0  0  2  0  0  0  0  0  0
   35.8390   26.5210   40.9250 C   0  0  0  0  0  2  0  0  0  0  0  0
   34.4030   27.0060   41.0200 C   0  0  0  0  0  2  0  0  0  0  0  0
   33.8330   26.3290   42.2580 C   0  0  0  0  0  2  0  0  0  0  0  0
  1  6  1  6  0  0  0
  1 11  1  0  0  0  0
  1  2  1  0  0  0  0
  2  7  1  6  0  0  0
  2  3  1  0  0  0  0
  2 13  1  0  0  0  0
  4  9  1  0  0  0  0
  4  8  1  0  0  0  0
  4  3  1  0  0  0  0
  5 10  1  6  0  0  0
  5  1  1  0  0  0  0
  5  4  1  0  0  0  0
 12 11  1  0  0  0  0
 15 14  2  6  0  0  0
 15 13  1  0  0  0  0
 15 18  1  0  0  0  0
 16 17  1  0  0  0  0
 16 15  1  0  0  0  0
 18 19  1  0  0  0  0
 19 20  1  0  0  0  0
 20 25  1  0  0  0  0
 20 21  2  0  0  0  0
 21 26  1  0  0  0  0
 22 21  1  0  0  0  0
 23 22  2  0  0  0  0
 24 19  2  0  0  0  0
 24 23  1  0  0  0  0
 27 23  1  0  0  0  0
 28  5  1  0  0  0  0
 29 28  1  0  0  0  0
 30 29  1  0  0  0  0
 31 30  1  0  0  0  0
 32 33  1  0  0  0  0
 32 31  1  0  0  0  0
 33 34  1  0  0  0  0
 34 29  1  0  0  0  0
M  END
>  <minimizedAffinity>
-4.08434153

>  <minimizedRMSD>
2.04409933

$$$$
