
 OpenBabel03272505013D

 25 27  0  0  0  0  0  0  0  0999 V2000
   37.7080   30.5140   46.9640 Cl  0  0  0  0  0  0  0  0  0  0  0  0
   38.3260   31.8760   47.8740 C   0  0  0  0  0  0  0  0  0  0  0  0
   37.9720   31.9970   49.1850 C   0  0  0  0  0  0  0  0  0  0  0  0
   38.4980   33.1040   49.8570 C   0  0  0  0  0  0  0  0  0  0  0  0
   39.3290   34.0000   49.1840 C   0  0  0  0  0  0  0  0  0  0  0  0
   39.6510   33.8280   47.8650 C   0  0  0  0  0  0  0  0  0  0  0  0
   39.1410   32.7440   47.1890 C   0  0  0  0  0  0  0  0  0  0  0  0
   38.2290   33.2180   50.8970 H   0  0  0  0  0  0  0  0  0  0  0  0
   39.6810   34.8210   49.7970 H   0  0  0  0  0  0  0  0  0  0  0  0
   40.3000   34.5630   47.4110 H   0  0  0  0  0  0  0  0  0  0  0  0
   37.5490   30.3480   51.0080 C   0  0  0  0  0  0  0  0  0  0  0  0
   37.1040   31.0680   49.9000 C   0  0  0  0  0  0  0  0  0  0  0  0
   35.7850   30.8680   49.4890 C   0  0  0  0  0  0  0  0  0  0  0  0
   35.0070   29.9960   50.1780 N   0  0  0  0  0  0  0  0  0  0  0  0
   35.4750   29.3160   51.2490 C   0  0  0  0  0  0  0  0  0  0  0  0
   36.7550   29.4940   51.6650 N   0  0  0  0  0  0  0  0  0  0  0  0
   38.5770   30.4880   51.3460 H   0  0  0  0  0  0  0  0  0  0  0  0
   35.3690   31.3980   48.6300 H   0  0  0  0  0  0  0  0  0  0  0  0
   34.7750   28.6480   51.7230 H   0  0  0  0  0  0  0  0  0  0  0  0
   39.4720   32.5290   45.7600 C   0  0  0  0  0  3  0  0  0  0  0  0
   38.2390   32.4880   44.8990 C   0  0  0  0  0  2  0  0  0  0  0  0
   38.6700   32.5460   43.4560 C   0  0  0  0  0  2  0  0  0  0  0  0
   40.1070   32.2070   43.2280 C   0  0  0  0  0  2  0  0  0  0  0  0
   40.6230   31.0730   44.0840 C   0  0  0  0  0  2  0  0  0  0  0  0
   40.2370   31.2420   45.5350 C   0  0  0  0  0  2  0  0  0  0  0  0
  1  2  1  0  0  0  0
  2  3  1  0  0  0  0
  3  4  2  0  0  0  0
  3 12  1  0  0  0  0
  4  8  1  0  0  0  0
  5  9  1  0  0  0  0
  5  4  1  0  0  0  0
  6  5  2  0  0  0  0
  7  6  1  0  0  0  0
  7  2  2  0  0  0  0
 10  6  1  0  0  0  0
 11 17  1  0  0  0  0
 11 16  1  0  0  0  0
 12 11  2  0  0  0  0
 13 12  1  0  0  0  0
 13 14  2  0  0  0  0
 14 15  1  0  0  0  0
 15 16  2  0  0  0  0
 15 19  1  0  0  0  0
 18 13  1  0  0  0  0
 20  7  1  0  0  0  0
 21 20  1  0  0  0  0
 22 21  1  0  0  0  0
 23 22  1  0  0  0  0
 23 24  1  0  0  0  0
 24 25  1  0  0  0  0
 25 20  1  0  0  0  0
M  END
>  <minimizedAffinity>
-6.78147507

>  <minimizedRMSD>
0.779541254

$$$$
