
 OpenBabel03272510343D

 25 27  0  0  0  0  0  0  0  0999 V2000
   36.9740   30.7880   45.6790 C   0  0  0  0  0  0  0  0  0  0  0  0
   36.2230   30.7560   44.5150 C   0  0  0  0  0  0  0  0  0  0  0  0
   34.9140   30.2760   44.5530 C   0  0  0  0  0  0  0  0  0  0  0  0
   34.4020   29.8460   45.7500 C   0  0  0  0  0  0  0  0  0  0  0  0
   35.1580   29.8790   46.9240 C   0  0  0  0  0  0  0  0  0  0  0  0
   36.4550   30.3540   46.8840 C   0  0  0  0  0  0  0  0  0  0  0  0
   36.5790   31.0810   43.5490 H   0  0  0  0  0  0  0  0  0  0  0  0
   34.3190   30.2470   43.6480 H   0  0  0  0  0  0  0  0  0  0  0  0
   33.3810   29.4850   45.7220 H   0  0  0  0  0  0  0  0  0  0  0  0
   34.6390   29.5200   47.7730 H   0  0  0  0  0  0  0  0  0  0  0  0
   39.7060   33.1520   45.1820 C   0  0  0  0  0  0  0  0  0  0  0  0
   40.8620   32.3830   45.2780 C   0  0  0  0  0  0  0  0  0  0  0  0
   40.6870   31.0100   45.5220 C   0  0  0  0  0  0  0  0  0  0  0  0
   39.4340   30.5090   45.6500 N   0  0  0  0  0  0  0  0  0  0  0  0
   38.3300   31.2960   45.5490 C   0  0  0  0  0  0  0  0  0  0  0  0
   38.5040   32.6040   45.3160 N   0  0  0  0  0  0  0  0  0  0  0  0
   39.8950   34.2080   44.9910 H   0  0  0  0  0  0  0  0  0  0  0  0
   41.8840   32.6730   45.1950 H   0  0  0  0  0  0  0  0  0  0  0  0
   41.4680   30.2680   45.6270 H   0  0  0  0  0  0  0  0  0  0  0  0
   37.2320   30.3900   48.1380 C   0  0  0  0  0  3  0  0  0  0  0  0
   37.3750   31.7540   48.7220 C   0  0  0  0  0  2  0  0  0  0  0  0
   38.3460   31.6230   49.9010 C   0  0  0  0  0  2  0  0  0  0  0  0
   37.5770   30.8520   50.9540 C   0  0  0  0  0  2  0  0  0  0  0  0
   37.3490   29.4660   50.4680 C   0  0  0  0  0  2  0  0  0  0  0  0
   36.7070   29.3680   49.1090 C   0  0  0  0  0  2  0  0  0  0  0  0
  1  6  1  0  0  0  0
  2  3  1  0  0  0  0
  2  1  2  0  0  0  0
  3  4  2  0  0  0  0
  4  5  1  0  0  0  0
  5 10  1  0  0  0  0
  6  5  2  0  0  0  0
  6 20  1  0  0  0  0
  7  2  1  0  0  0  0
  8  3  1  0  0  0  0
  9  4  1  0  0  0  0
 11 12  2  0  0  0  0
 11 16  1  0  0  0  0
 12 13  1  0  0  0  0
 13 19  1  0  0  0  0
 13 14  2  0  0  0  0
 15 14  1  0  0  0  0
 15  1  1  0  0  0  0
 16 15  2  0  0  0  0
 17 11  1  0  0  0  0
 18 12  1  0  0  0  0
 20 21  1  0  0  0  0
 20 25  1  0  0  0  0
 21 22  1  0  0  0  0
 22 23  1  0  0  0  0
 24 23  1  0  0  0  0
 25 24  1  0  0  0  0
M  END
>  <minimizedAffinity>
-6.24154997

>  <minimizedRMSD>
3.24164701

$$$$
