
 OpenBabel03272505133D

 36 39  0  0  0  0  0  0  0  0999 V2000
   36.4170   30.8960   45.7090 Cl  0  0  0  0  0  0  0  0  0  0  0  0
   36.6940   30.7850   47.4260 C   0  0  0  0  0  0  0  0  0  0  0  0
   37.9530   31.1280   47.8830 C   0  0  0  0  0  0  0  0  0  0  0  0
   38.1860   31.0420   49.2510 C   0  0  0  0  0  0  0  0  0  0  0  0
   37.1760   30.6300   50.0900 C   0  0  0  0  0  0  0  0  0  0  0  0
   35.9390   30.3040   49.5540 C   0  0  0  0  0  0  0  0  0  0  0  0
   35.6410   30.3640   48.2170 C   0  0  0  0  0  0  0  0  0  0  0  0
   39.1670   31.3060   49.6300 H   0  0  0  0  0  0  0  0  0  0  0  0
   37.3190   30.5520   51.1580 H   0  0  0  0  0  0  0  0  0  0  0  0
   35.1690   29.9820   50.2510 H   0  0  0  0  0  0  0  0  0  0  0  0
   40.2280   33.3270   46.0890 C   0  0  0  0  0  0  0  0  0  0  0  0
   40.9380   32.4770   45.2290 C   0  0  0  0  0  0  0  0  0  0  0  0
   40.6130   31.1090   45.2800 C   0  0  0  0  0  0  0  0  0  0  0  0
   39.6420   30.6970   46.1490 N   0  0  0  0  0  0  0  0  0  0  0  0
   39.0020   31.5640   46.9430 C   0  0  0  0  0  0  0  0  0  0  0  0
   39.2840   32.8670   46.9220 N   0  0  0  0  0  0  0  0  0  0  0  0
   40.5270   34.3630   45.9980 H   0  0  0  0  0  0  0  0  0  0  0  0
   41.7080   32.8530   44.5500 H   0  0  0  0  0  0  0  0  0  0  0  0
   41.1120   30.4080   44.6570 H   0  0  0  0  0  0  0  0  0  0  0  0
   34.0730   29.9530   47.5250 S   0  0  0  0  0  0  0  0  0  0  0  0
   34.0050   29.1470   44.4840 Cl  0  0  0  0  0  0  0  0  0  0  0  0
   33.9320   27.9360   45.7440 C   0  0  0  0  0  0  0  0  0  0  0  0
   33.9560   28.2120   47.1190 C   0  0  0  0  0  0  0  0  0  0  0  0
   33.8930   27.1780   48.0140 C   0  0  0  0  0  0  0  0  0  0  0  0
   33.8050   25.8780   47.5860 C   0  0  0  0  0  0  0  0  0  0  0  0
   33.7780   25.5660   46.2330 C   0  0  0  0  0  0  0  0  0  0  0  0
   33.8420   26.6020   45.3450 C   0  0  0  0  0  0  0  0  0  0  0  0
   33.9200   27.5130   49.0510 H   0  0  0  0  0  0  0  0  0  0  0  0
   33.7590   25.1090   48.3190 H   0  0  0  0  0  0  0  0  0  0  0  0
   33.7080   24.5230   45.9560 H   0  0  0  0  0  0  0  0  0  0  0  0
   33.8130   26.2680   43.8960 C   0  0  0  0  0  3  0  0  0  0  0  0
   32.8130   25.2010   43.5780 C   0  0  0  0  0  2  0  0  0  0  0  0
   32.7510   24.9850   42.0990 C   0  0  0  0  0  2  0  0  0  0  0  0
   33.7570   25.8180   41.3400 C   0  0  0  0  0  2  0  0  0  0  0  0
   35.1430   25.7300   41.8950 C   0  0  0  0  0  2  0  0  0  0  0  0
   35.1760   25.8440   43.4010 C   0  0  0  0  0  2  0  0  0  0  0  0
  1  2  1  0  0  0  0
  2  3  2  0  0  0  0
  2  7  1  0  0  0  0
  3  4  1  0  0  0  0
  4  8  1  0  0  0  0
  4  5  2  0  0  0  0
  5  9  1  0  0  0  0
  6  5  1  0  0  0  0
  6 10  1  0  0  0  0
  7  6  2  0  0  0  0
 11 16  1  0  0  0  0
 12 13  1  0  0  0  0
 12 11  2  0  0  0  0
 13 14  2  0  0  0  0
 14 15  1  0  0  0  0
 15  3  1  0  0  0  0
 16 15  2  0  0  0  0
 17 11  1  0  0  0  0
 18 12  1  0  0  0  0
 19 13  1  0  0  0  0
 20  7  1  0  0  0  0
 21 22  1  0  0  0  0
 22 23  1  0  0  0  0
 23 20  1  0  0  0  0
 23 24  2  0  0  0  0
 24 28  1  0  0  0  0
 25 24  1  0  0  0  0
 25 29  1  0  0  0  0
 26 25  2  0  0  0  0
 27 22  2  0  0  0  0
 27 26  1  0  0  0  0
 30 26  1  0  0  0  0
 31 27  1  0  0  0  0
 32 31  1  0  0  0  0
 33 32  1  0  0  0  0
 34 35  1  0  0  0  0
 34 33  1  0  0  0  0
 35 36  1  0  0  0  0
 36 31  1  0  0  0  0
M  END
>  <minimizedAffinity>
-5.74771261

>  <minimizedRMSD>
0.406652361

$$$$
