
 OpenBabel03272508063D

 32 35  0  0  0  0  0  0  0  0999 V2000
   38.9000   30.8870   45.7810 C   0  0  0  0  0  0  0  0  0  0  0  0
   40.0920   31.5330   46.0510 C   0  0  0  0  0  0  0  0  0  0  0  0
   40.9440   31.4810   44.9410 C   0  0  0  0  0  0  0  0  0  0  0  0
   40.2190   30.7980   44.0410 N   0  0  0  0  0  0  0  0  0  0  0  0
   39.0290   30.4510   44.5250 N   0  0  0  0  0  0  0  0  0  0  0  0
   40.3740   32.0280   46.9850 H   0  0  0  0  0  0  0  0  0  0  0  0
   41.9310   31.8640   44.7810 H   0  0  0  0  0  0  0  0  0  0  0  0
   37.7770   30.7380   46.6880 C   0  0  0  0  0  0  0  0  0  0  0  0
   37.9860   30.9550   48.0650 C   0  0  0  0  0  0  0  0  0  0  0  0
   36.8980   30.8100   48.9190 C   0  0  0  0  0  0  0  0  0  0  0  0
   35.6910   30.4650   48.3750 N   0  0  0  0  0  0  0  0  0  0  0  0
   35.5140   30.2610   47.0470 C   0  0  0  0  0  0  0  0  0  0  0  0
   36.5670   30.4020   46.2150 N   0  0  0  0  0  0  0  0  0  0  0  0
   38.9510   31.2260   48.4670 H   0  0  0  0  0  0  0  0  0  0  0  0
   34.5350   29.9920   46.6850 H   0  0  0  0  0  0  0  0  0  0  0  0
   37.0860   31.0300   50.3750 C   0  0  0  0  0  0  0  0  0  0  0  0
   36.5800   32.2800   50.6340 F   0  0  0  0  0  0  0  0  0  0  0  0
   36.4040   30.0970   51.1550 F   0  0  0  0  0  0  0  0  0  0  0  0
   38.4340   31.0300   50.7240 F   0  0  0  0  0  0  0  0  0  0  0  0
   40.5800   30.4240   42.6680 C   0  0  0  0  0  0  0  0  0  0  0  0
   40.2050   31.2080   41.5650 C   0  0  0  0  0  0  0  0  0  0  0  0
   40.5490   30.8270   40.3300 C   0  0  0  0  0  0  0  0  0  0  0  0
   41.2970   29.6240   40.1490 C   0  0  0  0  0  0  0  0  0  0  0  0
   41.4920   29.0400   41.9100 S   0  0  0  0  0  0  0  0  0  0  0  0
   39.6330   32.1320   41.6800 H   0  0  0  0  0  0  0  0  0  0  0  0
   40.3450   31.3040   39.3830 H   0  0  0  0  0  0  0  0  0  0  0  0
   41.8240   28.9240   39.0450 C   0  0  0  0  0  3  0  0  0  0  0  0
   40.8420   28.9830   37.9220 C   0  0  0  0  0  2  0  0  0  0  0  0
   41.3030   29.9520   36.8310 C   0  0  0  0  0  2  0  0  0  0  0  0
   42.5480   29.3000   36.2170 C   0  0  0  0  0  2  0  0  0  0  0  0
   43.6000   29.0680   37.2760 C   0  0  0  0  0  2  0  0  0  0  0  0
   43.1530   29.5210   38.6390 C   0  0  0  0  0  2  0  0  0  0  0  0
  1  2  1  0  0  0  0
  1  8  1  0  0  0  0
  2  6  1  0  0  0  0
  3  2  2  0  0  0  0
  4  5  1  0  0  0  0
  4  3  1  0  0  0  0
  5  1  2  0  0  0  0
  7  3  1  0  0  0  0
  8  9  1  0  0  0  0
  9 14  1  0  0  0  0
  9 10  2  0  0  0  0
 10 16  1  0  0  0  0
 11 10  1  0  0  0  0
 12 11  2  0  0  0  0
 13  8  2  0  0  0  0
 13 12  1  0  0  0  0
 15 12  1  0  0  0  0
 16 17  1  0  0  0  0
 16 19  1  0  0  0  0
 16 18  1  0  0  0  0
 20  4  1  0  0  0  0
 21 25  1  0  0  0  0
 21 20  2  0  0  0  0
 22 21  1  0  0  0  0
 23 22  2  0  0  0  0
 23 24  1  0  0  0  0
 24 20  1  0  0  0  0
 26 22  1  0  0  0  0
 27 23  1  0  0  0  0
 28 27  1  0  0  0  0
 29 28  1  0  0  0  0
 30 29  1  0  0  0  0
 30 31  1  0  0  0  0
 31 32  1  0  0  0  0
 32 27  1  0  0  0  0
M  END
>  <minimizedAffinity>
-6.22396898

>  <minimizedRMSD>
0.0978406817

$$$$
