
 OpenBabel03272506473D

 39 42  0  0  1  0  0  0  0  0999 V2000
   32.1260   28.4950   47.4420 C   0  0  2  0  0  0  0  0  0  0  0  0
   33.3750   28.3200   48.2540 C   0  0  1  0  0  0  0  0  0  0  0  0
   33.7630   27.0170   48.1540 O   0  0  0  0  0  0  0  0  0  0  0  0
   33.0560   26.4090   47.1230 C   0  0  0  0  0  0  0  0  0  0  0  0
   32.4480   27.5000   46.2820 C   0  0  1  0  0  0  0  0  0  0  0  0
   31.2010   28.1730   47.9090 H   0  0  0  0  0  0  0  0  0  0  0  0
   33.1830   28.6610   49.2920 H   0  0  0  0  0  0  0  0  0  0  0  0
   32.3790   25.6950   47.5620 H   0  0  0  0  0  0  0  0  0  0  0  0
   33.8080   25.8500   46.4990 H   0  0  0  0  0  0  0  0  0  0  0  0
   33.1540   28.0150   45.6390 H   0  0  0  0  0  0  0  0  0  0  0  0
   32.0530   29.8020   46.9150 O   0  0  0  0  0  0  0  0  0  0  0  0
   32.7080   29.8600   46.1840 H   0  0  0  0  0  0  0  0  0  0  0  0
   34.6820   29.3660   47.4940 S   0  0  0  0  0  0  0  0  0  0  0  0
   37.1020   29.2800   50.6290 C   0  0  0  0  0  0  0  0  0  0  0  0
   37.5870   30.5850   50.7450 C   0  0  0  0  0  0  0  0  0  0  0  0
   37.1490   31.5280   49.8180 C   0  0  0  0  0  0  0  0  0  0  0  0
   36.2740   31.1380   48.8480 N   0  0  0  0  0  0  0  0  0  0  0  0
   35.8300   29.8650   48.7710 C   0  0  0  0  0  0  0  0  0  0  0  0
   36.2360   28.9200   49.6580 N   0  0  0  0  0  0  0  0  0  0  0  0
   37.4670   28.5950   51.3620 H   0  0  0  0  0  0  0  0  0  0  0  0
   38.2860   30.8490   51.5390 H   0  0  0  0  0  0  0  0  0  0  0  0
   37.5090   32.5430   49.8880 H   0  0  0  0  0  0  0  0  0  0  0  0
   31.2960   27.0290   45.7020 O   0  0  0  0  0  0  0  0  0  0  0  0
   29.8740   29.1650   44.2590 Cl  0  0  0  0  0  0  0  0  0  0  0  0
   29.2980   28.1690   45.5740 C   0  0  0  0  0  0  0  0  0  0  0  0
   30.0590   27.1860   46.1640 C   0  0  0  0  0  0  0  0  0  0  0  0
   29.4810   26.4360   47.1910 C   0  0  0  0  0  0  0  0  0  0  0  0
   28.1850   26.6800   47.5940 C   0  0  0  0  0  0  0  0  0  0  0  0
   27.4120   27.6650   47.0070 C   0  0  0  0  0  0  0  0  0  0  0  0
   27.9910   28.4050   45.9920 C   0  0  0  0  0  0  0  0  0  0  0  0
   30.0020   25.6460   47.7030 H   0  0  0  0  0  0  0  0  0  0  0  0
   27.6980   26.1240   48.3830 H   0  0  0  0  0  0  0  0  0  0  0  0
   26.3970   27.8460   47.3330 H   0  0  0  0  0  0  0  0  0  0  0  0
   27.1650   29.4660   45.3570 C   0  0  0  0  0  3  0  0  0  0  0  0
   26.9770   29.2640   43.8810 C   0  0  0  0  0  2  0  0  0  0  0  0
   26.8190   30.5990   43.1520 C   0  0  0  0  0  2  0  0  0  0  0  0
   26.0330   31.5940   43.9600 C   0  0  0  0  0  2  0  0  0  0  0  0
   26.8300   31.9230   45.2030 C   0  0  0  0  0  2  0  0  0  0  0  0
   27.7970   30.8220   45.5490 C   0  0  0  0  0  2  0  0  0  0  0  0
  1  6  1  1  0  0  0
  1  2  1  0  0  0  0
  2  7  1  1  0  0  0
  3  2  1  0  0  0  0
  4  8  1  0  0  0  0
  4  3  1  0  0  0  0
  5 10  1  6  0  0  0
  5  4  1  0  0  0  0
  5  1  1  0  0  0  0
  9  4  1  0  0  0  0
 11  1  1  0  0  0  0
 12 11  1  0  0  0  0
 13  2  1  0  0  0  0
 13 18  1  0  0  0  0
 14 15  1  0  0  0  0
 14 20  1  0  0  0  0
 15 21  1  0  0  0  0
 16 22  1  0  0  0  0
 16 15  2  0  0  0  0
 17 16  1  0  0  0  0
 18 17  2  0  0  0  0
 18 19  1  0  0  0  0
 19 14  2  0  0  0  0
 23 26  1  0  0  0  0
 23  5  1  0  0  0  0
 24 25  1  0  0  0  0
 25 30  2  0  0  0  0
 25 26  1  0  0  0  0
 26 27  2  0  0  0  0
 27 28  1  0  0  0  0
 27 31  1  0  0  0  0
 28 32  1  0  0  0  0
 29 33  1  0  0  0  0
 29 28  2  0  0  0  0
 30 29  1  0  0  0  0
 34 39  1  0  0  0  0
 34 30  1  0  0  0  0
 35 34  1  0  0  0  0
 36 35  1  0  0  0  0
 36 37  1  0  0  0  0
 37 38  1  0  0  0  0
 38 39  1  0  0  0  0
M  END
>  <minimizedAffinity>
-5.24647427

>  <minimizedRMSD>
0.272768497

$$$$
