
 OpenBabel03272510213D

 33 36  0  0  0  0  0  0  0  0999 V2000
   37.4060   29.1610   50.8150 Br  0  0  0  0  0  0  0  0  0  0  0  0
   36.0120   29.3030   49.5210 C   0  0  0  0  0  0  0  0  0  0  0  0
   36.0260   30.3430   48.5800 C   0  0  0  0  0  0  0  0  0  0  0  0
   34.9820   30.3820   47.6710 C   0  0  0  0  0  0  0  0  0  0  0  0
   33.9530   29.4500   47.6660 C   0  0  0  0  0  0  0  0  0  0  0  0
   33.9780   28.4580   48.5980 C   0  0  0  0  0  0  0  0  0  0  0  0
   35.0050   28.3980   49.5110 C   0  0  0  0  0  0  0  0  0  0  0  0
   34.9310   31.1560   46.9200 H   0  0  0  0  0  0  0  0  0  0  0  0
   33.1810   27.7250   48.6040 H   0  0  0  0  0  0  0  0  0  0  0  0
   34.9720   27.5820   50.2310 H   0  0  0  0  0  0  0  0  0  0  0  0
   38.0000   33.2340   49.5710 C   0  0  0  0  0  0  0  0  0  0  0  0
   39.0610   33.2490   48.6240 C   0  0  0  0  0  0  0  0  0  0  0  0
   39.0720   32.2570   47.6590 C   0  0  0  0  0  0  0  0  0  0  0  0
   38.0790   31.3130   47.6530 N   0  0  0  0  0  0  0  0  0  0  0  0
   37.0910   31.3300   48.5630 C   0  0  0  0  0  0  0  0  0  0  0  0
   37.0590   32.2940   49.5200 N   0  0  0  0  0  0  0  0  0  0  0  0
   37.9090   33.9660   50.3560 H   0  0  0  0  0  0  0  0  0  0  0  0
   39.7570   34.0450   48.7580 H   0  0  0  0  0  0  0  0  0  0  0  0
   39.8730   32.2830   46.9600 H   0  0  0  0  0  0  0  0  0  0  0  0
   32.8610   29.4970   46.7130 C   0  0  0  0  0  0  0  0  0  0  0  0
   31.9110   28.5000   46.5600 C   0  0  0  0  0  0  0  0  0  0  0  0
   30.8790   28.5940   45.6250 C   0  0  0  0  0  0  0  0  0  0  0  0
   30.7840   29.6710   44.8420 N   0  0  0  0  0  0  0  0  0  0  0  0
   31.7100   30.6460   44.9880 C   0  0  0  0  0  0  0  0  0  0  0  0
   32.6930   30.5430   45.8870 N   0  0  0  0  0  0  0  0  0  0  0  0
   31.9830   27.6220   47.1930 H   0  0  0  0  0  0  0  0  0  0  0  0
   30.1790   27.7550   45.5800 H   0  0  0  0  0  0  0  0  0  0  0  0
   31.5950   31.8350   44.1130 C   0  0  0  0  0  3  0  0  0  0  0  0
   31.3500   33.1010   44.9070 C   0  0  0  0  0  2  0  0  0  0  0  0
   31.7190   34.3360   44.1450 C   0  0  0  0  0  2  0  0  0  0  0  0
   31.6430   34.1520   42.6490 C   0  0  0  0  0  2  0  0  0  0  0  0
   32.4180   32.9860   42.1280 C   0  0  0  0  0  2  0  0  0  0  0  0
   32.8480   32.0930   43.2960 C   0  0  0  0  0  2  0  0  0  0  0  0
  2  1  1  0  0  0  0
  3  2  2  0  0  0  0
  4  3  1  0  0  0  0
  5  4  2  0  0  0  0
  5  6  1  0  0  0  0
  6  9  1  0  0  0  0
  6  7  2  0  0  0  0
  7  2  1  0  0  0  0
  7 10  1  0  0  0  0
  8  4  1  0  0  0  0
 11 17  1  0  0  0  0
 12 18  1  0  0  0  0
 12 11  2  0  0  0  0
 13 12  1  0  0  0  0
 14 13  2  0  0  0  0
 14 15  1  0  0  0  0
 15  3  1  0  0  0  0
 15 16  2  0  0  0  0
 16 11  1  0  0  0  0
 19 13  1  0  0  0  0
 20  5  1  0  0  0  0
 21 20  1  0  0  0  0
 21 26  1  0  0  0  0
 22 21  2  0  0  0  0
 23 24  2  0  0  0  0
 23 22  1  0  0  0  0
 24 25  1  0  0  0  0
 25 20  2  0  0  0  0
 27 22  1  0  0  0  0
 28 29  1  0  0  0  0
 28 24  1  0  0  0  0
 30 29  1  0  0  0  0
 31 30  1  0  0  0  0
 32 31  1  0  0  0  0
 32 33  1  0  0  0  0
 33 28  1  0  0  0  0
M  END
>  <minimizedAffinity>
-6.61422062

>  <minimizedRMSD>
0.798089325

$$$$
