
 OpenBabel03272505123D

 36 39  0  0  0  0  0  0  0  0999 V2000
   36.4150   30.9010   45.7090 Cl  0  0  0  0  0  0  0  0  0  0  0  0
   36.6960   30.7830   47.4240 C   0  0  0  0  0  0  0  0  0  0  0  0
   37.9570   31.1210   47.8800 C   0  0  0  0  0  0  0  0  0  0  0  0
   38.1920   31.0300   49.2480 C   0  0  0  0  0  0  0  0  0  0  0  0
   37.1830   30.6160   50.0870 C   0  0  0  0  0  0  0  0  0  0  0  0
   35.9440   30.2940   49.5520 C   0  0  0  0  0  0  0  0  0  0  0  0
   35.6440   30.3610   48.2160 C   0  0  0  0  0  0  0  0  0  0  0  0
   39.1740   31.2900   49.6260 H   0  0  0  0  0  0  0  0  0  0  0  0
   37.3280   30.5330   51.1550 H   0  0  0  0  0  0  0  0  0  0  0  0
   35.1750   29.9710   50.2490 H   0  0  0  0  0  0  0  0  0  0  0  0
   40.2250   33.3260   46.0850 C   0  0  0  0  0  0  0  0  0  0  0  0
   40.9380   32.4770   45.2260 C   0  0  0  0  0  0  0  0  0  0  0  0
   40.6170   31.1080   45.2780 C   0  0  0  0  0  0  0  0  0  0  0  0
   39.6470   30.6940   46.1480 N   0  0  0  0  0  0  0  0  0  0  0  0
   39.0040   31.5600   46.9410 C   0  0  0  0  0  0  0  0  0  0  0  0
   39.2830   32.8640   46.9180 N   0  0  0  0  0  0  0  0  0  0  0  0
   40.5210   34.3620   45.9930 H   0  0  0  0  0  0  0  0  0  0  0  0
   41.7070   32.8540   44.5470 H   0  0  0  0  0  0  0  0  0  0  0  0
   41.1180   30.4080   44.6560 H   0  0  0  0  0  0  0  0  0  0  0  0
   34.0740   29.9550   47.5250 S   0  0  0  0  0  0  0  0  0  0  0  0
   33.9410   29.1640   44.4820 Cl  0  0  0  0  0  0  0  0  0  0  0  0
   33.8990   27.9470   45.7370 C   0  0  0  0  0  0  0  0  0  0  0  0
   33.9520   28.2160   47.1130 C   0  0  0  0  0  0  0  0  0  0  0  0
   33.9110   27.1770   48.0040 C   0  0  0  0  0  0  0  0  0  0  0  0
   33.8180   25.8800   47.5710 C   0  0  0  0  0  0  0  0  0  0  0  0
   33.7620   25.5740   46.2180 C   0  0  0  0  0  0  0  0  0  0  0  0
   33.8040   26.6150   45.3330 C   0  0  0  0  0  0  0  0  0  0  0  0
   33.9610   27.5070   49.0420 H   0  0  0  0  0  0  0  0  0  0  0  0
   33.7890   25.1060   48.3010 H   0  0  0  0  0  0  0  0  0  0  0  0
   33.6890   24.5320   45.9370 H   0  0  0  0  0  0  0  0  0  0  0  0
   33.7440   26.2870   43.8840 C   0  0  0  0  0  3  0  0  0  0  0  0
   34.9730   26.7180   43.1500 C   0  0  0  0  0  2  0  0  0  0  0  0
   34.9030   26.2670   41.7260 C   0  0  0  0  0  2  0  0  0  0  0  0
   33.5970   25.5870   41.3890 C   0  0  0  0  0  2  0  0  0  0  0  0
   32.3940   26.3580   41.8270 C   0  0  0  0  0  2  0  0  0  0  0  0
   32.5260   26.8990   43.2320 C   0  0  0  0  0  2  0  0  0  0  0  0
  1  2  1  0  0  0  0
  2  3  2  0  0  0  0
  2  7  1  0  0  0  0
  3  4  1  0  0  0  0
  4  8  1  0  0  0  0
  4  5  2  0  0  0  0
  5  9  1  0  0  0  0
  6  5  1  0  0  0  0
  6 10  1  0  0  0  0
  7  6  2  0  0  0  0
 11 16  1  0  0  0  0
 12 13  1  0  0  0  0
 12 11  2  0  0  0  0
 13 14  2  0  0  0  0
 14 15  1  0  0  0  0
 15  3  1  0  0  0  0
 16 15  2  0  0  0  0
 17 11  1  0  0  0  0
 18 12  1  0  0  0  0
 19 13  1  0  0  0  0
 20  7  1  0  0  0  0
 21 22  1  0  0  0  0
 22 23  1  0  0  0  0
 23 20  1  0  0  0  0
 23 24  2  0  0  0  0
 24 28  1  0  0  0  0
 25 24  1  0  0  0  0
 25 29  1  0  0  0  0
 26 25  2  0  0  0  0
 27 22  2  0  0  0  0
 27 26  1  0  0  0  0
 30 26  1  0  0  0  0
 31 27  1  0  0  0  0
 32 31  1  0  0  0  0
 33 32  1  0  0  0  0
 34 33  1  0  0  0  0
 34 35  1  0  0  0  0
 35 36  1  0  0  0  0
 36 31  1  0  0  0  0
M  END
>  <minimizedAffinity>
-5.71274042

>  <minimizedRMSD>
0.485731363

$$$$
