
 OpenBabel03272505283D

 28 30  0  0  0  0  0  0  0  0999 V2000
   37.1420   21.9600   33.0940 N   0  0  0  0  0  0  0  0  0  0  0  0
   37.6610   22.1950   34.3290 C   0  0  0  0  0  0  0  0  0  0  0  0
   38.0330   23.4650   34.7410 C   0  0  0  0  0  0  0  0  0  0  0  0
   37.8520   24.5190   33.8280 C   0  0  0  0  0  0  0  0  0  0  0  0
   38.1760   25.6810   34.1670 O   0  0  0  0  0  0  0  0  0  0  0  0
   37.3330   24.2820   32.5930 N   0  0  0  0  0  0  0  0  0  0  0  0
   37.0130   23.0150   32.3110 C   0  0  0  0  0  0  0  0  0  0  0  0
   36.5400   22.8340   31.1650 O   0  0  0  0  0  0  0  0  0  0  0  0
   37.7940   21.3700   35.0210 H   0  0  0  0  0  0  0  0  0  0  0  0
   35.2070   18.8280   32.6140 C   0  0  0  0  0  0  0  0  0  0  0  0
   35.5630   20.1200   33.0400 C   0  0  0  0  0  0  0  0  0  0  0  0
   36.7690   20.6710   32.6880 C   0  0  0  0  0  0  0  0  0  0  0  0
   37.6170   19.9300   31.9130 N   0  0  0  0  0  0  0  0  0  0  0  0
   37.2870   18.6760   31.4940 C   0  0  0  0  0  0  0  0  0  0  0  0
   36.0840   18.1350   31.8480 N   0  0  0  0  0  0  0  0  0  0  0  0
   34.2750   18.3380   32.8570 H   0  0  0  0  0  0  0  0  0  0  0  0
   34.7990   20.5400   33.6350 H   0  0  0  0  0  0  0  0  0  0  0  0
   37.9560   18.0870   30.8810 H   0  0  0  0  0  0  0  0  0  0  0  0
   38.6030   23.7200   36.0980 C   0  0  0  0  0  3  0  0  0  0  0  0
   39.4110   22.5290   36.5840 C   0  0  0  0  0  2  0  0  0  0  0  0
   40.0710   22.9310   37.8860 C   0  0  0  0  0  2  0  0  0  0  0  0
   38.9860   23.2550   38.9100 C   0  0  0  0  0  2  0  0  0  0  0  0
   38.1790   24.4390   38.3720 C   0  0  0  0  0  2  0  0  0  0  0  0
   37.5190   23.9700   37.0980 C   0  0  0  0  0  2  0  0  0  0  0  0
   37.1450   25.3670   31.6540 C   0  0  0  0  0  0  0  0  0  0  0  0
   37.0060   24.8640   30.3920 F   0  0  0  0  0  0  0  0  0  0  0  0
   38.2180   26.2420   31.6130 F   0  0  0  0  0  0  0  0  0  0  0  0
   35.9790   26.0460   31.9790 F   0  0  0  0  0  0  0  0  0  0  0  0
  1  2  1  0  0  0  0
  2  3  2  0  0  0  0
  2  9  1  0  0  0  0
  3 19  1  0  0  0  0
  4  5  2  0  0  0  0
  4  3  1  0  0  0  0
  6  4  1  0  0  0  0
  7  6  1  0  0  0  0
  7  1  1  0  0  0  0
  8  7  2  0  0  0  0
 10 16  1  0  0  0  0
 10 11  1  0  0  0  0
 11 17  1  0  0  0  0
 12 11  2  0  0  0  0
 12  1  1  0  0  0  0
 13 12  1  0  0  0  0
 14 15  1  0  0  0  0
 14 13  2  0  0  0  0
 15 10  2  0  0  0  0
 18 14  1  0  0  0  0
 19 20  1  0  0  0  0
 19 24  1  0  0  0  0
 20 21  1  0  0  0  0
 21 22  1  0  0  0  0
 23 22  1  0  0  0  0
 24 23  1  0  0  0  0
 25 28  1  0  0  0  0
 25  6  1  0  0  0  0
 26 25  1  0  0  0  0
 27 25  1  0  0  0  0
M  END
>  <minimizedAffinity>
-5.82149124

$$$$

 OpenBabel03272505283D

 28 30  0  0  0  0  0  0  0  0999 V2000
   38.0280   23.5110   34.6240 N   0  0  0  0  0  0  0  0  0  0  0  0
   37.4750   22.4670   33.9480 C   0  0  0  0  0  0  0  0  0  0  0  0
   37.0190   22.5940   32.6450 C   0  0  0  0  0  0  0  0  0  0  0  0
   37.1490   23.8540   32.0360 C   0  0  0  0  0  0  0  0  0  0  0  0
   36.7480   24.0050   30.8580 O   0  0  0  0  0  0  0  0  0  0  0  0
   37.7010   24.8960   32.7130 N   0  0  0  0  0  0  0  0  0  0  0  0
   38.1030   24.6520   33.9650 C   0  0  0  0  0  0  0  0  0  0  0  0
   38.6050   25.6340   34.5580 O   0  0  0  0  0  0  0  0  0  0  0  0
   37.3830   21.5020   34.4340 H   0  0  0  0  0  0  0  0  0  0  0  0
   40.1540   22.7020   37.5580 C   0  0  0  0  0  0  0  0  0  0  0  0
   39.7110   22.8250   36.2290 C   0  0  0  0  0  0  0  0  0  0  0  0
   38.4860   23.3700   35.9410 C   0  0  0  0  0  0  0  0  0  0  0  0
   37.7050   23.7910   36.9820 N   0  0  0  0  0  0  0  0  0  0  0  0
   38.1190   23.6770   38.2740 C   0  0  0  0  0  0  0  0  0  0  0  0
   39.3410   23.1340   38.5530 N   0  0  0  0  0  0  0  0  0  0  0  0
   41.1050   22.2820   37.8500 H   0  0  0  0  0  0  0  0  0  0  0  0
   40.4320   22.4420   35.5600 H   0  0  0  0  0  0  0  0  0  0  0  0
   37.5030   24.0080   39.1010 H   0  0  0  0  0  0  0  0  0  0  0  0
   36.4130   21.4470   31.9050 C   0  0  0  0  0  3  0  0  0  0  0  0
   35.5700   20.5850   32.8300 C   0  0  0  0  0  2  0  0  0  0  0  0
   34.8780   19.5450   31.9730 C   0  0  0  0  0  2  0  0  0  0  0  0
   35.9370   18.6760   31.3010 C   0  0  0  0  0  2  0  0  0  0  0  0
   36.7800   19.5830   30.4020 C   0  0  0  0  0  2  0  0  0  0  0  0
   37.4700   20.5720   31.3100 C   0  0  0  0  0  2  0  0  0  0  0  0
   37.8360   26.1930   32.0850 C   0  0  0  0  0  0  0  0  0  0  0  0
   38.1300   26.0330   30.7610 F   0  0  0  0  0  0  0  0  0  0  0  0
   38.8580   26.9560   32.6260 F   0  0  0  0  0  0  0  0  0  0  0  0
   36.6260   26.8660   32.1800 F   0  0  0  0  0  0  0  0  0  0  0  0
  1 12  1  0  0  0  0
  2  9  1  0  0  0  0
  2  1  1  0  0  0  0
  3  2  2  0  0  0  0
  4  3  1  0  0  0  0
  4  6  1  0  0  0  0
  5  4  2  0  0  0  0
  6  7  1  0  0  0  0
  7  8  2  0  0  0  0
  7  1  1  0  0  0  0
 10 16  1  0  0  0  0
 10 15  1  0  0  0  0
 11 10  2  0  0  0  0
 12 11  1  0  0  0  0
 12 13  2  0  0  0  0
 13 14  1  0  0  0  0
 14 15  2  0  0  0  0
 14 18  1  0  0  0  0
 17 11  1  0  0  0  0
 19  3  1  0  0  0  0
 19 20  1  0  0  0  0
 21 20  1  0  0  0  0
 22 21  1  0  0  0  0
 23 22  1  0  0  0  0
 23 24  1  0  0  0  0
 24 19  1  0  0  0  0
 25 28  1  0  0  0  0
 25 27  1  0  0  0  0
 25  6  1  0  0  0  0
 26 25  1  0  0  0  0
M  END
>  <minimizedAffinity>
-5.79554224

$$$$

 OpenBabel03272505283D

 28 30  0  0  0  0  0  0  0  0999 V2000
   36.9490   27.7160   33.5530 N   0  0  0  0  0  0  0  0  0  0  0  0
   36.2470   28.5960   34.3160 C   0  0  0  0  0  0  0  0  0  0  0  0
   35.7430   29.7790   33.7980 C   0  0  0  0  0  0  0  0  0  0  0  0
   35.9830   30.0430   32.4380 C   0  0  0  0  0  0  0  0  0  0  0  0
   35.5410   31.1020   31.9350 O   0  0  0  0  0  0  0  0  0  0  0  0
   36.6860   29.1610   31.6770 N   0  0  0  0  0  0  0  0  0  0  0  0
   37.1220   28.0560   32.2890 C   0  0  0  0  0  0  0  0  0  0  0  0
   37.7660   27.2680   31.5580 O   0  0  0  0  0  0  0  0  0  0  0  0
   36.0700   28.3780   35.3630 H   0  0  0  0  0  0  0  0  0  0  0  0
   38.5450   25.2670   35.8420 C   0  0  0  0  0  0  0  0  0  0  0  0
   38.0540   26.4770   35.3210 C   0  0  0  0  0  0  0  0  0  0  0  0
   37.4540   26.5230   34.0880 C   0  0  0  0  0  0  0  0  0  0  0  0
   37.3480   25.3590   33.3770 N   0  0  0  0  0  0  0  0  0  0  0  0
   37.8200   24.1800   33.8680 C   0  0  0  0  0  0  0  0  0  0  0  0
   38.4160   24.1420   35.0970 N   0  0  0  0  0  0  0  0  0  0  0  0
   39.0270   25.1650   36.8040 H   0  0  0  0  0  0  0  0  0  0  0  0
   38.2280   27.2710   35.9950 H   0  0  0  0  0  0  0  0  0  0  0  0
   37.7390   23.2570   33.3080 H   0  0  0  0  0  0  0  0  0  0  0  0
   34.9720   30.7450   34.6380 C   0  0  0  0  0  3  0  0  0  0  0  0
   35.7900   31.2020   35.8340 C   0  0  0  0  0  2  0  0  0  0  0  0
   34.9970   32.2840   36.5370 C   0  0  0  0  0  2  0  0  0  0  0  0
   33.6780   31.6890   37.0260 C   0  0  0  0  0  2  0  0  0  0  0  0
   32.8980   31.2170   35.7980 C   0  0  0  0  0  2  0  0  0  0  0  0
   33.7170   30.1200   35.1600 C   0  0  0  0  0  2  0  0  0  0  0  0
   36.9320   29.4320   30.2770 C   0  0  0  0  0  0  0  0  0  0  0  0
   36.1220   30.4490   29.8560 F   0  0  0  0  0  0  0  0  0  0  0  0
   36.6610   28.3480   29.4570 F   0  0  0  0  0  0  0  0  0  0  0  0
   38.2500   29.8380   30.1220 F   0  0  0  0  0  0  0  0  0  0  0  0
  1 12  1  0  0  0  0
  1  2  1  0  0  0  0
  2  9  1  0  0  0  0
  3  2  2  0  0  0  0
  3 19  1  0  0  0  0
  4  3  1  0  0  0  0
  5  4  2  0  0  0  0
  6  7  1  0  0  0  0
  6  4  1  0  0  0  0
  7  1  1  0  0  0  0
  8  7  2  0  0  0  0
 10 16  1  0  0  0  0
 11 10  1  0  0  0  0
 11 17  1  0  0  0  0
 12 11  2  0  0  0  0
 13 14  2  0  0  0  0
 13 12  1  0  0  0  0
 14 15  1  0  0  0  0
 15 10  2  0  0  0  0
 18 14  1  0  0  0  0
 19 24  1  0  0  0  0
 19 20  1  0  0  0  0
 20 21  1  0  0  0  0
 21 22  1  0  0  0  0
 23 22  1  0  0  0  0
 24 23  1  0  0  0  0
 25  6  1  0  0  0  0
 26 25  1  0  0  0  0
 27 25  1  0  0  0  0
 28 25  1  0  0  0  0
M  END
>  <minimizedAffinity>
-5.77712917

$$$$

 OpenBabel03272505283D

 28 30  0  0  0  0  0  0  0  0999 V2000
   37.2100   22.8240   32.7310 N   0  0  0  0  0  0  0  0  0  0  0  0
   37.6830   22.8490   34.0060 C   0  0  0  0  0  0  0  0  0  0  0  0
   38.1340   24.0170   34.6010 C   0  0  0  0  0  0  0  0  0  0  0  0
   38.0850   25.1930   33.8320 C   0  0  0  0  0  0  0  0  0  0  0  0
   38.4830   26.2690   34.3380 O   0  0  0  0  0  0  0  0  0  0  0  0
   37.6130   25.1660   32.5570 N   0  0  0  0  0  0  0  0  0  0  0  0
   37.2070   23.9800   32.0930 C   0  0  0  0  0  0  0  0  0  0  0  0
   36.7810   23.9930   30.9150 O   0  0  0  0  0  0  0  0  0  0  0  0
   37.7140   21.9330   34.5860 H   0  0  0  0  0  0  0  0  0  0  0  0
   35.0770   19.9330   31.7970 C   0  0  0  0  0  0  0  0  0  0  0  0
   35.5140   21.1220   32.4080 C   0  0  0  0  0  0  0  0  0  0  0  0
   36.7570   21.6360   32.1400 C   0  0  0  0  0  0  0  0  0  0  0  0
   37.5610   20.9620   31.2640 N   0  0  0  0  0  0  0  0  0  0  0  0
   37.1520   19.8090   30.6650 C   0  0  0  0  0  0  0  0  0  0  0  0
   35.9130   19.3030   30.9360 N   0  0  0  0  0  0  0  0  0  0  0  0
   34.1120   19.4770   31.9660 H   0  0  0  0  0  0  0  0  0  0  0  0
   34.7740   21.5000   33.0590 H   0  0  0  0  0  0  0  0  0  0  0  0
   37.7870   19.2720   29.9720 H   0  0  0  0  0  0  0  0  0  0  0  0
   38.6520   24.0420   36.0020 C   0  0  0  0  0  3  0  0  0  0  0  0
   39.3380   22.7330   36.3540 C   0  0  0  0  0  2  0  0  0  0  0  0
   39.9600   22.9020   37.7240 C   0  0  0  0  0  2  0  0  0  0  0  0
   38.8530   23.1790   38.7370 C   0  0  0  0  0  2  0  0  0  0  0  0
   38.1700   24.4870   38.3340 C   0  0  0  0  0  2  0  0  0  0  0  0
   37.5410   24.2480   36.9820 C   0  0  0  0  0  2  0  0  0  0  0  0
   37.5610   26.3770   31.7660 C   0  0  0  0  0  0  0  0  0  0  0  0
   38.3350   27.3400   32.3490 F   0  0  0  0  0  0  0  0  0  0  0  0
   36.2850   26.9060   31.6640 F   0  0  0  0  0  0  0  0  0  0  0  0
   38.0780   26.1130   30.5050 F   0  0  0  0  0  0  0  0  0  0  0  0
  1  2  1  0  0  0  0
  2  9  1  0  0  0  0
  2  3  2  0  0  0  0
  3 19  1  0  0  0  0
  4  5  2  0  0  0  0
  4  3  1  0  0  0  0
  6  4  1  0  0  0  0
  7  6  1  0  0  0  0
  7  1  1  0  0  0  0
  8  7  2  0  0  0  0
 10 16  1  0  0  0  0
 10 11  1  0  0  0  0
 11 17  1  0  0  0  0
 12 11  2  0  0  0  0
 12  1  1  0  0  0  0
 13 12  1  0  0  0  0
 14 15  1  0  0  0  0
 14 13  2  0  0  0  0
 15 10  2  0  0  0  0
 18 14  1  0  0  0  0
 19 20  1  0  0  0  0
 19 24  1  0  0  0  0
 20 21  1  0  0  0  0
 21 22  1  0  0  0  0
 23 22  1  0  0  0  0
 24 23  1  0  0  0  0
 25 26  1  0  0  0  0
 25  6  1  0  0  0  0
 27 25  1  0  0  0  0
 28 25  1  0  0  0  0
M  END
>  <minimizedAffinity>
-5.75394106

$$$$

 OpenBabel03272505283D

 28 30  0  0  0  0  0  0  0  0999 V2000
   38.1590   23.7860   34.3010 N   0  0  0  0  0  0  0  0  0  0  0  0
   38.1940   25.0640   33.8370 C   0  0  0  0  0  0  0  0  0  0  0  0
   37.5660   25.4370   32.6590 C   0  0  0  0  0  0  0  0  0  0  0  0
   36.8800   24.4360   31.9490 C   0  0  0  0  0  0  0  0  0  0  0  0
   36.2990   24.7380   30.8800 O   0  0  0  0  0  0  0  0  0  0  0  0
   36.8460   23.1580   32.4130 N   0  0  0  0  0  0  0  0  0  0  0  0
   37.4900   22.9210   33.5610 C   0  0  0  0  0  0  0  0  0  0  0  0
   37.4400   21.7330   33.9560 O   0  0  0  0  0  0  0  0  0  0  0  0
   38.7270   25.8240   34.3980 H   0  0  0  0  0  0  0  0  0  0  0  0
   38.8660   23.2250   37.9020 C   0  0  0  0  0  0  0  0  0  0  0  0
   38.2090   23.6070   36.7180 C   0  0  0  0  0  0  0  0  0  0  0  0
   38.7980   23.4200   35.4930 C   0  0  0  0  0  0  0  0  0  0  0  0
   40.0420   22.8540   35.4530 N   0  0  0  0  0  0  0  0  0  0  0  0
   40.6910   22.4800   36.5910 C   0  0  0  0  0  0  0  0  0  0  0  0
   40.0980   22.6680   37.8070 N   0  0  0  0  0  0  0  0  0  0  0  0
   38.4570   23.3450   38.8950 H   0  0  0  0  0  0  0  0  0  0  0  0
   37.2680   24.0340   36.9360 H   0  0  0  0  0  0  0  0  0  0  0  0
   41.6760   22.0320   36.5630 H   0  0  0  0  0  0  0  0  0  0  0  0
   37.6050   26.8420   32.1530 C   0  0  0  0  0  3  0  0  0  0  0  0
   36.2240   27.4750   32.1880 C   0  0  0  0  0  2  0  0  0  0  0  0
   36.3850   28.9310   31.8060 C   0  0  0  0  0  2  0  0  0  0  0  0
   36.9380   29.0110   30.3860 C   0  0  0  0  0  2  0  0  0  0  0  0
   38.3140   28.3410   30.3860 C   0  0  0  0  0  2  0  0  0  0  0  0
   38.0890   26.8900   30.7380 C   0  0  0  0  0  2  0  0  0  0  0  0
   36.1390   22.1290   31.6830 C   0  0  0  0  0  0  0  0  0  0  0  0
   35.3170   22.7050   30.7560 F   0  0  0  0  0  0  0  0  0  0  0  0
   35.3320   21.3450   32.4910 F   0  0  0  0  0  0  0  0  0  0  0  0
   37.0620   21.3410   31.0100 F   0  0  0  0  0  0  0  0  0  0  0  0
  1 12  1  0  0  0  0
  2  1  1  0  0  0  0
  2  9  1  0  0  0  0
  3  2  2  0  0  0  0
  4  6  1  0  0  0  0
  4  3  1  0  0  0  0
  5  4  2  0  0  0  0
  6  7  1  0  0  0  0
  7  8  2  0  0  0  0
  7  1  1  0  0  0  0
 10 16  1  0  0  0  0
 11 17  1  0  0  0  0
 11 10  2  0  0  0  0
 12 11  1  0  0  0  0
 13 12  2  0  0  0  0
 13 14  1  0  0  0  0
 14 15  2  0  0  0  0
 15 10  1  0  0  0  0
 18 14  1  0  0  0  0
 19 20  1  0  0  0  0
 19  3  1  0  0  0  0
 21 20  1  0  0  0  0
 22 21  1  0  0  0  0
 23 22  1  0  0  0  0
 23 24  1  0  0  0  0
 24 19  1  0  0  0  0
 25  6  1  0  0  0  0
 25 27  1  0  0  0  0
 26 25  1  0  0  0  0
 28 25  1  0  0  0  0
M  END
>  <minimizedAffinity>
-5.74531841

$$$$

 OpenBabel03272505283D

 28 30  0  0  0  0  0  0  0  0999 V2000
   37.3690   25.5140   32.6840 N   0  0  0  0  0  0  0  0  0  0  0  0
   38.1450   25.3080   33.7820 C   0  0  0  0  0  0  0  0  0  0  0  0
   38.3240   24.0470   34.3290 C   0  0  0  0  0  0  0  0  0  0  0  0
   37.6680   22.9720   33.7040 C   0  0  0  0  0  0  0  0  0  0  0  0
   37.8080   21.8180   34.1710 O   0  0  0  0  0  0  0  0  0  0  0  0
   36.8920   23.1810   32.6060 N   0  0  0  0  0  0  0  0  0  0  0  0
   36.7950   24.4420   32.1710 C   0  0  0  0  0  0  0  0  0  0  0  0
   36.0710   24.5960   31.1610 O   0  0  0  0  0  0  0  0  0  0  0  0
   38.6450   26.1480   34.2520 H   0  0  0  0  0  0  0  0  0  0  0  0
   36.1520   28.9750   32.1100 C   0  0  0  0  0  0  0  0  0  0  0  0
   36.3040   27.6930   32.6680 C   0  0  0  0  0  0  0  0  0  0  0  0
   37.1950   26.7940   32.1390 C   0  0  0  0  0  0  0  0  0  0  0  0
   37.9330   27.1780   31.0540 N   0  0  0  0  0  0  0  0  0  0  0  0
   37.7970   28.4150   30.5020 C   0  0  0  0  0  0  0  0  0  0  0  0
   36.9080   29.3050   31.0340 N   0  0  0  0  0  0  0  0  0  0  0  0
   35.4690   29.7260   32.4790 H   0  0  0  0  0  0  0  0  0  0  0  0
   35.6520   27.5640   33.4890 H   0  0  0  0  0  0  0  0  0  0  0  0
   38.3780   28.7220   29.6420 H   0  0  0  0  0  0  0  0  0  0  0  0
   39.1780   23.8230   35.5350 C   0  0  0  0  0  3  0  0  0  0  0  0
   40.4070   23.0000   35.1880 C   0  0  0  0  0  2  0  0  0  0  0  0
   41.2820   22.9530   36.4220 C   0  0  0  0  0  2  0  0  0  0  0  0
   40.5140   22.2610   37.5460 C   0  0  0  0  0  2  0  0  0  0  0  0
   39.2730   23.1030   37.8460 C   0  0  0  0  0  2  0  0  0  0  0  0
   38.4250   23.0850   36.5970 C   0  0  0  0  0  2  0  0  0  0  0  0
   36.2180   22.0740   31.9620 C   0  0  0  0  0  0  0  0  0  0  0  0
   37.1300   21.1200   31.6150 F   0  0  0  0  0  0  0  0  0  0  0  0
   35.5660   22.4400   30.7950 F   0  0  0  0  0  0  0  0  0  0  0  0
   35.3220   21.5090   32.8590 F   0  0  0  0  0  0  0  0  0  0  0  0
  1  2  1  0  0  0  0
  2  9  1  0  0  0  0
  2  3  2  0  0  0  0
  3 19  1  0  0  0  0
  4  5  2  0  0  0  0
  4  3  1  0  0  0  0
  6  4  1  0  0  0  0
  7  6  1  0  0  0  0
  7  1  1  0  0  0  0
  8  7  2  0  0  0  0
 10 16  1  0  0  0  0
 10 11  1  0  0  0  0
 11 17  1  0  0  0  0
 12 11  2  0  0  0  0
 12  1  1  0  0  0  0
 13 12  1  0  0  0  0
 14 15  1  0  0  0  0
 14 13  2  0  0  0  0
 15 10  2  0  0  0  0
 18 14  1  0  0  0  0
 19 24  1  0  0  0  0
 20 19  1  0  0  0  0
 20 21  1  0  0  0  0
 21 22  1  0  0  0  0
 22 23  1  0  0  0  0
 24 23  1  0  0  0  0
 25  6  1  0  0  0  0
 25 28  1  0  0  0  0
 26 25  1  0  0  0  0
 27 25  1  0  0  0  0
M  END
>  <minimizedAffinity>
-5.70440435

$$$$

 OpenBabel03272505283D

 28 30  0  0  0  0  0  0  0  0999 V2000
   37.6100   22.7000   33.9210 N   0  0  0  0  0  0  0  0  0  0  0  0
   37.7260   23.8720   33.2390 C   0  0  0  0  0  0  0  0  0  0  0  0
   38.0350   25.0640   33.8740 C   0  0  0  0  0  0  0  0  0  0  0  0
   38.2280   25.0240   35.2670 C   0  0  0  0  0  0  0  0  0  0  0  0
   38.5100   26.0830   35.8740 O   0  0  0  0  0  0  0  0  0  0  0  0
   38.1100   23.8520   35.9470 N   0  0  0  0  0  0  0  0  0  0  0  0
   37.8080   22.7680   35.2250 C   0  0  0  0  0  0  0  0  0  0  0  0
   37.7050   21.7080   35.8850 O   0  0  0  0  0  0  0  0  0  0  0  0
   37.5750   23.8850   32.1660 H   0  0  0  0  0  0  0  0  0  0  0  0
   35.7390   19.7660   32.6260 C   0  0  0  0  0  0  0  0  0  0  0  0
   36.0330   20.9680   33.2960 C   0  0  0  0  0  0  0  0  0  0  0  0
   37.2970   21.5000   33.2690 C   0  0  0  0  0  0  0  0  0  0  0  0
   38.2650   20.8310   32.5730 N   0  0  0  0  0  0  0  0  0  0  0  0
   37.9970   19.6660   31.9200 C   0  0  0  0  0  0  0  0  0  0  0  0
   36.7350   19.1420   31.9510 N   0  0  0  0  0  0  0  0  0  0  0  0
   34.7670   19.2960   32.6100 H   0  0  0  0  0  0  0  0  0  0  0  0
   35.1750   21.3390   33.7870 H   0  0  0  0  0  0  0  0  0  0  0  0
   38.7610   19.1330   31.3700 H   0  0  0  0  0  0  0  0  0  0  0  0
   38.1630   26.3500   33.1230 C   0  0  0  0  0  3  0  0  0  0  0  0
   36.7980   26.9370   32.8100 C   0  0  0  0  0  2  0  0  0  0  0  0
   37.0240   28.3000   32.1890 C   0  0  0  0  0  2  0  0  0  0  0  0
   37.8070   28.1270   30.8910 C   0  0  0  0  0  2  0  0  0  0  0  0
   39.1610   27.5090   31.2450 C   0  0  0  0  0  2  0  0  0  0  0  0
   38.8760   26.1440   31.8240 C   0  0  0  0  0  2  0  0  0  0  0  0
   38.3100   23.8100   37.3790 C   0  0  0  0  0  0  0  0  0  0  0  0
   37.3910   22.9750   37.9470 F   0  0  0  0  0  0  0  0  0  0  0  0
   38.1480   25.0450   37.9870 F   0  0  0  0  0  0  0  0  0  0  0  0
   39.5750   23.3030   37.6420 F   0  0  0  0  0  0  0  0  0  0  0  0
  1  7  1  0  0  0  0
  2  3  2  0  0  0  0
  2  1  1  0  0  0  0
  3  4  1  0  0  0  0
  4  5  2  0  0  0  0
  4  6  1  0  0  0  0
  6 25  1  0  0  0  0
  7  8  2  0  0  0  0
  7  6  1  0  0  0  0
  9  2  1  0  0  0  0
 10 11  1  0  0  0  0
 11 17  1  0  0  0  0
 12 11  2  0  0  0  0
 12  1  1  0  0  0  0
 13 12  1  0  0  0  0
 14 15  1  0  0  0  0
 14 13  2  0  0  0  0
 15 10  2  0  0  0  0
 16 10  1  0  0  0  0
 18 14  1  0  0  0  0
 19  3  1  0  0  0  0
 20 19  1  0  0  0  0
 21 20  1  0  0  0  0
 22 23  1  0  0  0  0
 22 21  1  0  0  0  0
 23 24  1  0  0  0  0
 24 19  1  0  0  0  0
 25 28  1  0  0  0  0
 25 26  1  0  0  0  0
 25 27  1  0  0  0  0
M  END
>  <minimizedAffinity>
-5.67534304

$$$$

 OpenBabel03272505283D

 28 30  0  0  0  0  0  0  0  0999 V2000
   37.4300   24.7570   32.5840 N   0  0  0  0  0  0  0  0  0  0  0  0
   38.0330   24.3750   33.7420 C   0  0  0  0  0  0  0  0  0  0  0  0
   37.9390   23.0800   34.2280 C   0  0  0  0  0  0  0  0  0  0  0  0
   37.1900   22.1600   33.4740 C   0  0  0  0  0  0  0  0  0  0  0  0
   37.0840   20.9800   33.8820 O   0  0  0  0  0  0  0  0  0  0  0  0
   36.5870   22.5440   32.3160 N   0  0  0  0  0  0  0  0  0  0  0  0
   36.7480   23.8200   31.9510 C   0  0  0  0  0  0  0  0  0  0  0  0
   36.1770   24.1380   30.8820 O   0  0  0  0  0  0  0  0  0  0  0  0
   38.6080   25.0970   34.3120 H   0  0  0  0  0  0  0  0  0  0  0  0
   38.6270   27.7800   30.7920 C   0  0  0  0  0  0  0  0  0  0  0  0
   38.5500   26.4590   31.2700 C   0  0  0  0  0  0  0  0  0  0  0  0
   37.5320   26.0690   32.1030 C   0  0  0  0  0  0  0  0  0  0  0  0
   36.5950   27.0000   32.4580 N   0  0  0  0  0  0  0  0  0  0  0  0
   36.6570   28.2820   32.0050 C   0  0  0  0  0  0  0  0  0  0  0  0
   37.6730   28.6630   31.1750 N   0  0  0  0  0  0  0  0  0  0  0  0
   39.4020   28.1480   30.1350 H   0  0  0  0  0  0  0  0  0  0  0  0
   39.3560   25.8830   30.9050 H   0  0  0  0  0  0  0  0  0  0  0  0
   35.9180   29.0210   32.2850 H   0  0  0  0  0  0  0  0  0  0  0  0
   38.6030   22.6630   35.5000 C   0  0  0  0  0  3  0  0  0  0  0  0
   38.4420   23.7250   36.5740 C   0  0  0  0  0  2  0  0  0  0  0  0
   39.0060   23.1570   37.8590 C   0  0  0  0  0  2  0  0  0  0  0  0
   40.4910   22.8650   37.6590 C   0  0  0  0  0  2  0  0  0  0  0  0
   40.6130   21.8150   36.5540 C   0  0  0  0  0  2  0  0  0  0  0  0
   40.0690   22.4460   35.2940 C   0  0  0  0  0  2  0  0  0  0  0  0
   35.8160   21.5970   31.5400 C   0  0  0  0  0  0  0  0  0  0  0  0
   35.1470   22.2540   30.5470 F   0  0  0  0  0  0  0  0  0  0  0  0
   34.8590   20.9310   32.2870 F   0  0  0  0  0  0  0  0  0  0  0  0
   36.6850   20.6900   30.9470 F   0  0  0  0  0  0  0  0  0  0  0  0
  1  2  1  0  0  0  0
  2  3  2  0  0  0  0
  2  9  1  0  0  0  0
  3 19  1  0  0  0  0
  4  5  2  0  0  0  0
  4  3  1  0  0  0  0
  6  4  1  0  0  0  0
  7  6  1  0  0  0  0
  7  1  1  0  0  0  0
  8  7  2  0  0  0  0
 10 15  2  0  0  0  0
 10 11  1  0  0  0  0
 11 12  2  0  0  0  0
 12 13  1  0  0  0  0
 12  1  1  0  0  0  0
 14 18  1  0  0  0  0
 14 13  2  0  0  0  0
 15 14  1  0  0  0  0
 16 10  1  0  0  0  0
 17 11  1  0  0  0  0
 19 20  1  0  0  0  0
 20 21  1  0  0  0  0
 22 21  1  0  0  0  0
 23 22  1  0  0  0  0
 24 19  1  0  0  0  0
 24 23  1  0  0  0  0
 25 27  1  0  0  0  0
 25  6  1  0  0  0  0
 26 25  1  0  0  0  0
 28 25  1  0  0  0  0
M  END
>  <minimizedAffinity>
-5.59949112

$$$$

 OpenBabel03272505283D

 28 30  0  0  0  0  0  0  0  0999 V2000
   37.8840   23.2850   34.4220 N   0  0  0  0  0  0  0  0  0  0  0  0
   37.9650   24.4270   33.6870 C   0  0  0  0  0  0  0  0  0  0  0  0
   37.4070   24.5270   32.4210 C   0  0  0  0  0  0  0  0  0  0  0  0
   36.7450   23.3940   31.9160 C   0  0  0  0  0  0  0  0  0  0  0  0
   36.2280   23.4490   30.7760 O   0  0  0  0  0  0  0  0  0  0  0  0
   36.6660   22.2540   32.6530 N   0  0  0  0  0  0  0  0  0  0  0  0
   37.2430   22.2780   33.8590 C   0  0  0  0  0  0  0  0  0  0  0  0
   37.1520   21.2100   34.5070 O   0  0  0  0  0  0  0  0  0  0  0  0
   38.4790   25.2910   34.0910 H   0  0  0  0  0  0  0  0  0  0  0  0
   40.2850   22.6720   37.1860 C   0  0  0  0  0  0  0  0  0  0  0  0
   39.7330   22.7450   35.8950 C   0  0  0  0  0  0  0  0  0  0  0  0
   38.4520   23.1960   35.7000 C   0  0  0  0  0  0  0  0  0  0  0  0
   37.7250   23.5700   36.7960 N   0  0  0  0  0  0  0  0  0  0  0  0
   38.2460   23.5040   38.0530 C   0  0  0  0  0  0  0  0  0  0  0  0
   39.5220   23.0550   38.2390 N   0  0  0  0  0  0  0  0  0  0  0  0
   41.2860   22.3270   37.4060 H   0  0  0  0  0  0  0  0  0  0  0  0
   40.4270   22.4090   35.1740 H   0  0  0  0  0  0  0  0  0  0  0  0
   37.6720   23.7990   38.9230 H   0  0  0  0  0  0  0  0  0  0  0  0
   37.4970   25.7810   31.6150 C   0  0  0  0  0  3  0  0  0  0  0  0
   38.7310   26.5840   31.9900 C   0  0  0  0  0  2  0  0  0  0  0  0
   38.8220   27.7490   31.0270 C   0  0  0  0  0  2  0  0  0  0  0  0
   37.5830   28.6250   31.1930 C   0  0  0  0  0  2  0  0  0  0  0  0
   36.3630   27.7750   30.8350 C   0  0  0  0  0  2  0  0  0  0  0  0
   36.3030   26.6540   31.8450 C   0  0  0  0  0  2  0  0  0  0  0  0
   35.9830   21.0880   32.1330 C   0  0  0  0  0  0  0  0  0  0  0  0
   36.7490   19.9770   32.3390 F   0  0  0  0  0  0  0  0  0  0  0  0
   35.7480   21.1590   30.7690 F   0  0  0  0  0  0  0  0  0  0  0  0
   34.7890   20.9230   32.8210 F   0  0  0  0  0  0  0  0  0  0  0  0
  1 12  1  0  0  0  0
  2  9  1  0  0  0  0
  2  1  1  0  0  0  0
  3  2  2  0  0  0  0
  4  3  1  0  0  0  0
  4  6  1  0  0  0  0
  5  4  2  0  0  0  0
  6  7  1  0  0  0  0
  7  1  1  0  0  0  0
  7  8  2  0  0  0  0
 10 16  1  0  0  0  0
 10 15  1  0  0  0  0
 11 10  2  0  0  0  0
 12 11  1  0  0  0  0
 12 13  2  0  0  0  0
 13 14  1  0  0  0  0
 14 15  2  0  0  0  0
 14 18  1  0  0  0  0
 17 11  1  0  0  0  0
 19 24  1  0  0  0  0
 19 20  1  0  0  0  0
 19  3  1  0  0  0  0
 21 22  1  0  0  0  0
 21 20  1  0  0  0  0
 23 22  1  0  0  0  0
 23 24  1  0  0  0  0
 25 26  1  0  0  0  0
 25  6  1  0  0  0  0
 25 28  1  0  0  0  0
 27 25  1  0  0  0  0
M  END
>  <minimizedAffinity>
-5.57723427

$$$$
