
 OpenBabel03262523393D

 42 45  0  0  1  0  0  0  0  0999 V2000
   36.6880   23.5590   31.0610 C   0  0  2  0  0  0  0  0  0  0  0  0
   37.7720   24.3300   31.7250 C   0  0  0  0  0  0  0  0  0  0  0  0
   37.2470   25.3840   32.6990 C   0  0  2  0  0  0  0  0  0  0  0  0
   36.4450   26.3860   31.9140 C   0  0  0  0  0  0  0  0  0  0  0  0
   35.4040   25.7180   31.0310 C   0  0  0  0  0  0  0  0  0  0  0  0
   35.3440   24.2310   31.2640 C   0  0  0  0  0  0  0  0  0  0  0  0
   36.7880   23.4950   29.9390 H   0  0  0  0  0  0  0  0  0  0  0  0
   38.2010   24.9870   30.8840 H   0  0  0  0  0  0  0  0  0  0  0  0
   38.6120   23.8650   32.1540 H   0  0  0  0  0  0  0  0  0  0  0  0
   36.5370   24.8450   33.3600 H   0  0  0  0  0  0  0  0  0  0  0  0
   37.1810   26.8650   31.2090 H   0  0  0  0  0  0  0  0  0  0  0  0
   36.0390   27.1900   32.5240 H   0  0  0  0  0  0  0  0  0  0  0  0
   35.5840   25.8820   29.9480 H   0  0  0  0  0  0  0  0  0  0  0  0
   34.4360   26.1600   31.2970 H   0  0  0  0  0  0  0  0  0  0  0  0
   34.5920   23.8250   30.5680 H   0  0  0  0  0  0  0  0  0  0  0  0
   35.0030   24.0240   32.2890 H   0  0  0  0  0  0  0  0  0  0  0  0
   38.3020   25.9490   33.5450 C   0  0  2  0  0  0  0  0  0  0  0  0
   39.2460   26.9250   32.8860 C   0  0  0  0  0  0  0  0  0  0  0  0
   40.2600   27.0360   34.0410 C   0  0  0  0  0  0  0  0  0  0  0  0
   40.3990   25.7500   34.5080 O   0  0  0  0  0  0  0  0  0  0  0  0
   39.2760   25.0050   34.1490 C   0  0  1  0  0  0  0  0  0  0  0  0
   37.8390   26.5270   34.3650 H   0  0  0  0  0  0  0  0  0  0  0  0
   39.7160   26.5050   31.9740 H   0  0  0  0  0  0  0  0  0  0  0  0
   38.7420   27.8780   32.7190 H   0  0  0  0  0  0  0  0  0  0  0  0
   39.8040   27.6500   34.8260 H   0  0  0  0  0  0  0  0  0  0  0  0
   41.2230   27.4440   33.6960 H   0  0  0  0  0  0  0  0  0  0  0  0
   39.6810   24.2230   33.4940 H   0  0  0  0  0  0  0  0  0  0  0  0
   38.8260   24.2870   35.3840 C   0  0  0  0  0  3  0  0  0  0  0  0
   39.9960   23.5000   35.9140 C   0  0  0  0  0  2  0  0  0  0  0  0
   39.8830   23.0870   37.3420 C   0  0  0  0  0  2  0  0  0  0  0  0
   38.4790   23.0410   37.8710 C   0  0  0  0  0  2  0  0  0  0  0  0
   37.6540   24.2400   37.5120 C   0  0  0  0  0  2  0  0  0  0  0  0
   38.2990   25.1350   36.4880 C   0  0  0  0  0  2  0  0  0  0  0  0
   36.5700   22.1770   31.5740 C   0  0  0  0  0  0  0  0  0  0  0  0
   35.3310   21.8360   32.1180 C   0  0  0  0  0  0  0  0  0  0  0  0
   35.1550   20.5540   32.5950 C   0  0  0  0  0  0  0  0  0  0  0  0
   36.2150   19.6580   32.5150 N   0  0  0  0  0  0  0  0  0  0  0  0
   37.4090   20.0350   31.9760 C   0  0  0  0  0  0  0  0  0  0  0  0
   37.5570   21.2730   31.5240 N   0  0  0  0  0  0  0  0  0  0  0  0
   34.3810   22.3070   32.3010 H   0  0  0  0  0  0  0  0  0  0  0  0
   34.3410   20.0420   33.0440 H   0  0  0  0  0  0  0  0  0  0  0  0
   38.2370   19.3450   31.9110 H   0  0  0  0  0  0  0  0  0  0  0  0
  1  7  1  6  0  0  0
  1  6  1  0  0  0  0
  1 34  1  0  0  0  0
  1  2  1  0  0  0  0
  2  9  1  0  0  0  0
  2  3  1  0  0  0  0
  3 10  1  1  0  0  0
  3 17  1  0  0  0  0
  4 12  1  0  0  0  0
  4  3  1  0  0  0  0
  5  6  1  0  0  0  0
  5 14  1  0  0  0  0
  5  4  1  0  0  0  0
  6 16  1  0  0  0  0
  8  2  1  0  0  0  0
 11  4  1  0  0  0  0
 13  5  1  0  0  0  0
 15  6  1  0  0  0  0
 17 21  1  0  0  0  0
 17 22  1  1  0  0  0
 18 17  1  0  0  0  0
 18 19  1  0  0  0  0
 19 20  1  0  0  0  0
 19 25  1  0  0  0  0
 21 27  1  6  0  0  0
 21 20  1  0  0  0  0
 21 28  1  0  0  0  0
 23 18  1  0  0  0  0
 24 18  1  0  0  0  0
 26 19  1  0  0  0  0
 28 29  1  0  0  0  0
 28 33  1  0  0  0  0
 29 30  1  0  0  0  0
 30 31  1  0  0  0  0
 32 31  1  0  0  0  0
 33 32  1  0  0  0  0
 34 35  1  0  0  0  0
 35 40  1  0  0  0  0
 35 36  2  0  0  0  0
 36 41  1  0  0  0  0
 37 36  1  0  0  0  0
 38 37  2  0  0  0  0
 39 34  2  0  0  0  0
 39 38  1  0  0  0  0
 42 38  1  0  0  0  0
M  END
>  <minimizedAffinity>
-5.94520807

$$$$

 OpenBabel03262523393D

 42 45  0  0  1  0  0  0  0  0999 V2000
   38.7580   26.2180   35.1500 C   0  0  2  0  0  0  0  0  0  0  0  0
   37.6860   26.1120   34.1270 C   0  0  0  0  0  0  0  0  0  0  0  0
   38.2150   25.7490   32.7400 C   0  0  2  0  0  0  0  0  0  0  0  0
   39.1190   26.8620   32.2810 C   0  0  0  0  0  0  0  0  0  0  0  0
   40.1680   27.2110   33.3240 C   0  0  0  0  0  0  0  0  0  0  0  0
   40.1250   26.2680   34.4980 C   0  0  0  0  0  0  0  0  0  0  0  0
   38.7190   27.1650   35.7640 H   0  0  0  0  0  0  0  0  0  0  0  0
   37.3460   27.1990   33.9670 H   0  0  0  0  0  0  0  0  0  0  0  0
   36.7960   25.5780   34.2960 H   0  0  0  0  0  0  0  0  0  0  0  0
   38.8520   24.8550   32.8930 H   0  0  0  0  0  0  0  0  0  0  0  0
   38.4550   27.7670   32.2000 H   0  0  0  0  0  0  0  0  0  0  0  0
   39.5370   26.7000   31.2900 H   0  0  0  0  0  0  0  0  0  0  0  0
   40.0610   28.2440   33.7170 H   0  0  0  0  0  0  0  0  0  0  0  0
   41.1430   27.1230   32.8300 H   0  0  0  0  0  0  0  0  0  0  0  0
   40.8910   26.6090   35.2140 H   0  0  0  0  0  0  0  0  0  0  0  0
   40.3940   25.2520   34.1740 H   0  0  0  0  0  0  0  0  0  0  0  0
   37.1480   25.3820   31.8040 C   0  0  2  0  0  0  0  0  0  0  0  0
   36.0640   26.4080   31.5790 C   0  0  0  0  0  0  0  0  0  0  0  0
   35.1070   25.5150   30.7670 C   0  0  0  0  0  0  0  0  0  0  0  0
   35.1420   24.2960   31.4030 O   0  0  0  0  0  0  0  0  0  0  0  0
   36.3230   24.1940   32.1380 C   0  0  1  0  0  0  0  0  0  0  0  0
   37.5840   25.2200   30.8020 H   0  0  0  0  0  0  0  0  0  0  0  0
   35.5980   26.7430   32.5270 H   0  0  0  0  0  0  0  0  0  0  0  0
   36.4460   27.2260   30.9670 H   0  0  0  0  0  0  0  0  0  0  0  0
   35.5310   25.4020   29.7620 H   0  0  0  0  0  0  0  0  0  0  0  0
   34.0860   25.9280   30.7460 H   0  0  0  0  0  0  0  0  0  0  0  0
   35.9760   24.1060   33.1750 H   0  0  0  0  0  0  0  0  0  0  0  0
   36.9170   22.8590   31.8090 C   0  0  0  0  0  3  0  0  0  0  0  0
   35.7850   21.8930   31.5780 C   0  0  0  0  0  2  0  0  0  0  0  0
   36.1540   20.6610   30.8220 C   0  0  0  0  0  2  0  0  0  0  0  0
   37.6130   20.3140   30.8630 C   0  0  0  0  0  2  0  0  0  0  0  0
   38.5220   21.4790   30.6170 C   0  0  0  0  0  2  0  0  0  0  0  0
   37.8200   22.8090   30.6260 C   0  0  0  0  0  2  0  0  0  0  0  0
   38.7640   25.0800   36.0950 C   0  0  0  0  0  0  0  0  0  0  0  0
   39.6410   24.0400   35.7860 C   0  0  0  0  0  0  0  0  0  0  0  0
   39.7050   22.9600   36.6420 C   0  0  0  0  0  0  0  0  0  0  0  0
   38.8960   22.9520   37.7720 N   0  0  0  0  0  0  0  0  0  0  0  0
   38.0520   23.9900   38.0340 C   0  0  0  0  0  0  0  0  0  0  0  0
   38.0060   25.0190   37.1980 N   0  0  0  0  0  0  0  0  0  0  0  0
   40.3490   23.7930   35.0140 H   0  0  0  0  0  0  0  0  0  0  0  0
   40.2680   22.0600   36.6500 H   0  0  0  0  0  0  0  0  0  0  0  0
   37.4190   23.9920   38.9090 H   0  0  0  0  0  0  0  0  0  0  0  0
  1  7  1  1  0  0  0
  1 34  1  0  0  0  0
  2  9  1  0  0  0  0
  2  1  1  0  0  0  0
  3 10  1  1  0  0  0
  3  2  1  0  0  0  0
  4  3  1  0  0  0  0
  4  5  1  0  0  0  0
  5 13  1  0  0  0  0
  5  6  1  0  0  0  0
  6  1  1  0  0  0  0
  6 15  1  0  0  0  0
  8  2  1  0  0  0  0
 11  4  1  0  0  0  0
 12  4  1  0  0  0  0
 14  5  1  0  0  0  0
 16  6  1  0  0  0  0
 17 22  1  6  0  0  0
 17 21  1  0  0  0  0
 17  3  1  0  0  0  0
 18 17  1  0  0  0  0
 18 23  1  0  0  0  0
 19 20  1  0  0  0  0
 19 18  1  0  0  0  0
 20 21  1  0  0  0  0
 21 27  1  1  0  0  0
 24 18  1  0  0  0  0
 25 19  1  0  0  0  0
 26 19  1  0  0  0  0
 28 21  1  0  0  0  0
 29 28  1  0  0  0  0
 30 31  1  0  0  0  0
 30 29  1  0  0  0  0
 32 33  1  0  0  0  0
 32 31  1  0  0  0  0
 33 28  1  0  0  0  0
 34 39  1  0  0  0  0
 35 34  2  0  0  0  0
 35 36  1  0  0  0  0
 36 41  1  0  0  0  0
 36 37  2  0  0  0  0
 37 38  1  0  0  0  0
 38 42  1  0  0  0  0
 39 38  2  0  0  0  0
 40 35  1  0  0  0  0
M  END
>  <minimizedAffinity>
-5.76424265

$$$$

 OpenBabel03262523393D

 42 45  0  0  1  0  0  0  0  0999 V2000
   32.8290   30.7710   35.6630 C   0  0  2  0  0  0  0  0  0  0  0  0
   33.7230   30.4650   34.5150 C   0  0  0  0  0  0  0  0  0  0  0  0
   35.1920   30.3410   34.9170 C   0  0  2  0  0  0  0  0  0  0  0  0
   35.6440   31.6740   35.4510 C   0  0  0  0  0  0  0  0  0  0  0  0
   34.7030   32.2080   36.5200 C   0  0  0  0  0  0  0  0  0  0  0  0
   33.6320   31.2100   36.8720 C   0  0  0  0  0  0  0  0  0  0  0  0
   32.1250   31.6350   35.4820 H   0  0  0  0  0  0  0  0  0  0  0  0
   33.7330   31.4390   33.9030 H   0  0  0  0  0  0  0  0  0  0  0  0
   33.5020   29.7130   33.8140 H   0  0  0  0  0  0  0  0  0  0  0  0
   35.2050   29.6290   35.7670 H   0  0  0  0  0  0  0  0  0  0  0  0
   35.5540   32.3850   34.5820 H   0  0  0  0  0  0  0  0  0  0  0  0
   36.6890   31.6890   35.7520 H   0  0  0  0  0  0  0  0  0  0  0  0
   34.2000   33.1520   36.2220 H   0  0  0  0  0  0  0  0  0  0  0  0
   35.3160   32.4030   37.4080 H   0  0  0  0  0  0  0  0  0  0  0  0
   32.9820   31.6850   37.6240 H   0  0  0  0  0  0  0  0  0  0  0  0
   34.0850   30.3190   37.3310 H   0  0  0  0  0  0  0  0  0  0  0  0
   36.0260   29.7780   33.8510 C   0  0  2  0  0  0  0  0  0  0  0  0
   35.8000   30.3190   32.4600 C   0  0  0  0  0  0  0  0  0  0  0  0
   36.6760   29.3020   31.7030 C   0  0  0  0  0  0  0  0  0  0  0  0
   36.4100   28.0950   32.3070 O   0  0  0  0  0  0  0  0  0  0  0  0
   35.9130   28.3210   33.5900 C   0  0  1  0  0  0  0  0  0  0  0  0
   37.0860   30.0030   34.0620 H   0  0  0  0  0  0  0  0  0  0  0  0
   34.7380   30.2490   32.1480 H   0  0  0  0  0  0  0  0  0  0  0  0
   36.2130   31.3250   32.3790 H   0  0  0  0  0  0  0  0  0  0  0  0
   37.7240   29.5660   31.8860 H   0  0  0  0  0  0  0  0  0  0  0  0
   36.4320   29.2770   30.6290 H   0  0  0  0  0  0  0  0  0  0  0  0
   34.9000   27.9000   33.5530 H   0  0  0  0  0  0  0  0  0  0  0  0
   36.6790   27.4200   34.5100 C   0  0  0  0  0  3  0  0  0  0  0  0
   37.1390   26.2280   33.7130 C   0  0  0  0  0  2  0  0  0  0  0  0
   38.2630   25.4610   34.3210 C   0  0  0  0  0  2  0  0  0  0  0  0
   38.4150   25.6410   35.8030 C   0  0  0  0  0  2  0  0  0  0  0  0
   38.3330   27.0680   36.2540 C   0  0  0  0  0  2  0  0  0  0  0  0
   37.8660   28.0160   35.1830 C   0  0  0  0  0  2  0  0  0  0  0  0
   32.0090   29.6130   36.0770 C   0  0  0  0  0  0  0  0  0  0  0  0
   31.4820   28.8410   35.0410 C   0  0  0  0  0  0  0  0  0  0  0  0
   30.7250   27.7360   35.3660 C   0  0  0  0  0  0  0  0  0  0  0  0
   30.5180   27.4370   36.7080 N   0  0  0  0  0  0  0  0  0  0  0  0
   31.0510   28.2200   37.6880 C   0  0  0  0  0  0  0  0  0  0  0  0
   31.7760   29.2780   37.3530 N   0  0  0  0  0  0  0  0  0  0  0  0
   31.4810   28.8420   33.9650 H   0  0  0  0  0  0  0  0  0  0  0  0
   30.2200   26.9960   34.7960 H   0  0  0  0  0  0  0  0  0  0  0  0
   30.8940   27.9950   38.7320 H   0  0  0  0  0  0  0  0  0  0  0  0
  1  7  1  6  0  0  0
  1 34  1  0  0  0  0
  1  6  1  0  0  0  0
  2  3  1  0  0  0  0
  2  1  1  0  0  0  0
  3  4  1  0  0  0  0
  3 10  1  1  0  0  0
  4 12  1  0  0  0  0
  4  5  1  0  0  0  0
  5  6  1  0  0  0  0
  5 14  1  0  0  0  0
  6 16  1  0  0  0  0
  6 15  1  0  0  0  0
  8  2  1  0  0  0  0
  9  2  1  0  0  0  0
 11  4  1  0  0  0  0
 13  5  1  0  0  0  0
 17 22  1  1  0  0  0
 17  3  1  0  0  0  0
 18 17  1  0  0  0  0
 19 25  1  0  0  0  0
 19 20  1  0  0  0  0
 19 18  1  0  0  0  0
 20 21  1  0  0  0  0
 21 27  1  1  0  0  0
 21 17  1  0  0  0  0
 21 28  1  0  0  0  0
 23 18  1  0  0  0  0
 24 18  1  0  0  0  0
 26 19  1  0  0  0  0
 28 33  1  0  0  0  0
 29 30  1  0  0  0  0
 29 28  1  0  0  0  0
 30 31  1  0  0  0  0
 31 32  1  0  0  0  0
 33 32  1  0  0  0  0
 34 39  1  0  0  0  0
 35 36  1  0  0  0  0
 35 34  2  0  0  0  0
 36 37  2  0  0  0  0
 37 38  1  0  0  0  0
 38 42  1  0  0  0  0
 39 38  2  0  0  0  0
 40 35  1  0  0  0  0
 41 36  1  0  0  0  0
M  END
>  <minimizedAffinity>
-5.74182892

$$$$

 OpenBabel03262523393D

 42 45  0  0  1  0  0  0  0  0999 V2000
   40.1270   26.6240   34.8450 C   0  0  2  0  0  0  0  0  0  0  0  0
   39.4630   27.0820   33.5960 C   0  0  0  0  0  0  0  0  0  0  0  0
   40.2480   26.7250   32.3350 C   0  0  2  0  0  0  0  0  0  0  0  0
   41.5700   27.4420   32.3900 C   0  0  0  0  0  0  0  0  0  0  0  0
   42.2890   27.2130   33.7090 C   0  0  0  0  0  0  0  0  0  0  0  0
   41.5630   26.2180   34.5760 C   0  0  0  0  0  0  0  0  0  0  0  0
   40.2180   27.4220   35.6380 H   0  0  0  0  0  0  0  0  0  0  0  0
   39.5790   28.2260   33.6230 H   0  0  0  0  0  0  0  0  0  0  0  0
   38.4400   26.9230   33.4110 H   0  0  0  0  0  0  0  0  0  0  0  0
   40.4640   25.6400   32.4200 H   0  0  0  0  0  0  0  0  0  0  0  0
   41.3110   28.5390   32.3690 H   0  0  0  0  0  0  0  0  0  0  0  0
   42.1990   27.2610   31.5210 H   0  0  0  0  0  0  0  0  0  0  0  0
   42.4180   28.1440   34.3000 H   0  0  0  0  0  0  0  0  0  0  0  0
   43.2800   26.8150   33.4620 H   0  0  0  0  0  0  0  0  0  0  0  0
   42.1310   26.1350   35.5170 H   0  0  0  0  0  0  0  0  0  0  0  0
   41.5610   25.2300   34.0940 H   0  0  0  0  0  0  0  0  0  0  0  0
   39.4730   26.9310   31.1070 C   0  0  2  0  0  0  0  0  0  0  0  0
   39.8610   28.1140   30.2540 C   0  0  0  0  0  0  0  0  0  0  0  0
   38.6720   28.0560   29.2760 C   0  0  0  0  0  0  0  0  0  0  0  0
   37.5830   27.7720   30.0680 O   0  0  0  0  0  0  0  0  0  0  0  0
   38.0160   27.1730   31.2500 C   0  0  1  0  0  0  0  0  0  0  0  0
   39.6080   26.0590   30.4430 H   0  0  0  0  0  0  0  0  0  0  0  0
   39.8670   29.0620   30.8280 H   0  0  0  0  0  0  0  0  0  0  0  0
   40.8000   27.9100   29.7380 H   0  0  0  0  0  0  0  0  0  0  0  0
   38.8430   27.2140   28.5960 H   0  0  0  0  0  0  0  0  0  0  0  0
   38.5410   29.0090   28.7390 H   0  0  0  0  0  0  0  0  0  0  0  0
   37.7040   27.8800   32.0290 H   0  0  0  0  0  0  0  0  0  0  0  0
   37.1580   25.9620   31.4540 C   0  0  0  0  0  3  0  0  0  0  0  0
   35.7480   26.3230   31.0680 C   0  0  0  0  0  2  0  0  0  0  0  0
   34.8570   25.1620   30.7830 C   0  0  0  0  0  2  0  0  0  0  0  0
   35.2960   23.8680   31.4030 C   0  0  0  0  0  2  0  0  0  0  0  0
   36.7560   23.5770   31.2320 C   0  0  0  0  0  2  0  0  0  0  0  0
   37.5480   24.7390   30.6990 C   0  0  0  0  0  2  0  0  0  0  0  0
   39.4510   25.4630   35.4620 C   0  0  0  0  0  0  0  0  0  0  0  0
   40.0790   24.2300   35.2840 C   0  0  0  0  0  0  0  0  0  0  0  0
   39.5050   23.1130   35.8540 C   0  0  0  0  0  0  0  0  0  0  0  0
   38.3280   23.2600   36.5780 N   0  0  0  0  0  0  0  0  0  0  0  0
   37.7470   24.4850   36.7250 C   0  0  0  0  0  0  0  0  0  0  0  0
   38.3160   25.5460   36.1690 N   0  0  0  0  0  0  0  0  0  0  0  0
   40.9540   23.8420   34.7920 H   0  0  0  0  0  0  0  0  0  0  0  0
   39.7630   22.0840   35.8770 H   0  0  0  0  0  0  0  0  0  0  0  0
   36.8320   24.6080   37.2850 H   0  0  0  0  0  0  0  0  0  0  0  0
  1 34  1  0  0  0  0
  1  7  1  1  0  0  0
  2  8  1  0  0  0  0
  2  1  1  0  0  0  0
  3  4  1  0  0  0  0
  3 10  1  1  0  0  0
  3  2  1  0  0  0  0
  4  5  1  0  0  0  0
  5 13  1  0  0  0  0
  5  6  1  0  0  0  0
  6  1  1  0  0  0  0
  6 15  1  0  0  0  0
  9  2  1  0  0  0  0
 11  4  1  0  0  0  0
 12  4  1  0  0  0  0
 14  5  1  0  0  0  0
 16  6  1  0  0  0  0
 17 22  1  6  0  0  0
 17 21  1  0  0  0  0
 17  3  1  0  0  0  0
 18 23  1  0  0  0  0
 18 17  1  0  0  0  0
 19 20  1  0  0  0  0
 19 18  1  0  0  0  0
 20 21  1  0  0  0  0
 21 28  1  0  0  0  0
 21 27  1  1  0  0  0
 24 18  1  0  0  0  0
 25 19  1  0  0  0  0
 26 19  1  0  0  0  0
 29 28  1  0  0  0  0
 30 29  1  0  0  0  0
 30 31  1  0  0  0  0
 32 31  1  0  0  0  0
 33 32  1  0  0  0  0
 33 28  1  0  0  0  0
 34 39  1  0  0  0  0
 35 34  2  0  0  0  0
 35 36  1  0  0  0  0
 36 41  1  0  0  0  0
 36 37  2  0  0  0  0
 37 38  1  0  0  0  0
 38 42  1  0  0  0  0
 39 38  2  0  0  0  0
 40 35  1  0  0  0  0
M  END
>  <minimizedAffinity>
-5.72635174

$$$$

 OpenBabel03262523393D

 42 45  0  0  1  0  0  0  0  0999 V2000
   38.4350   21.8850   34.3120 C   0  0  2  0  0  0  0  0  0  0  0  0
   38.8430   22.9040   33.3090 C   0  0  0  0  0  0  0  0  0  0  0  0
   37.6570   23.5590   32.6040 C   0  0  2  0  0  0  0  0  0  0  0  0
   36.9240   22.4920   31.8360 C   0  0  0  0  0  0  0  0  0  0  0  0
   36.6010   21.2860   32.7040 C   0  0  0  0  0  0  0  0  0  0  0  0
   36.9740   21.5180   34.1440 C   0  0  0  0  0  0  0  0  0  0  0  0
   38.9730   20.8980   34.2110 H   0  0  0  0  0  0  0  0  0  0  0  0
   39.3060   22.2860   32.4570 H   0  0  0  0  0  0  0  0  0  0  0  0
   39.5600   23.6450   33.5190 H   0  0  0  0  0  0  0  0  0  0  0  0
   36.9820   23.8970   33.4160 H   0  0  0  0  0  0  0  0  0  0  0  0
   37.6590   22.1260   31.0660 H   0  0  0  0  0  0  0  0  0  0  0  0
   36.0650   22.8680   31.2850 H   0  0  0  0  0  0  0  0  0  0  0  0
   37.1120   20.3600   32.3670 H   0  0  0  0  0  0  0  0  0  0  0  0
   35.5170   21.1330   32.6360 H   0  0  0  0  0  0  0  0  0  0  0  0
   36.7360   20.5910   34.6920 H   0  0  0  0  0  0  0  0  0  0  0  0
   36.3610   22.3270   34.5670 H   0  0  0  0  0  0  0  0  0  0  0  0
   38.0430   24.7400   31.8240 C   0  0  2  0  0  0  0  0  0  0  0  0
   38.5360   24.4900   30.4200 C   0  0  0  0  0  0  0  0  0  0  0  0
   39.0240   25.9210   30.1210 C   0  0  0  0  0  0  0  0  0  0  0  0
   39.6350   26.3310   31.2820 O   0  0  0  0  0  0  0  0  0  0  0  0
   39.1510   25.5760   32.3500 C   0  0  1  0  0  0  0  0  0  0  0  0
   37.1600   25.3910   31.6930 H   0  0  0  0  0  0  0  0  0  0  0  0
   39.3720   23.7630   30.3910 H   0  0  0  0  0  0  0  0  0  0  0  0
   37.7000   24.2210   29.7730 H   0  0  0  0  0  0  0  0  0  0  0  0
   38.1390   26.5440   29.9480 H   0  0  0  0  0  0  0  0  0  0  0  0
   39.7230   25.9410   29.2700 H   0  0  0  0  0  0  0  0  0  0  0  0
   40.0390   25.0480   32.7190 H   0  0  0  0  0  0  0  0  0  0  0  0
   38.7940   26.5470   33.4330 C   0  0  0  0  0  3  0  0  0  0  0  0
   37.3610   26.9630   33.2290 C   0  0  0  0  0  2  0  0  0  0  0  0
   36.7030   27.5600   34.4260 C   0  0  0  0  0  2  0  0  0  0  0  0
   37.6480   28.1300   35.4420 C   0  0  0  0  0  2  0  0  0  0  0  0
   38.8070   27.2360   35.7630 C   0  0  0  0  0  2  0  0  0  0  0  0
   38.9420   26.0610   34.8330 C   0  0  0  0  0  2  0  0  0  0  0  0
   38.6150   22.3470   35.7050 C   0  0  0  0  0  0  0  0  0  0  0  0
   39.8900   22.1690   36.2430 C   0  0  0  0  0  0  0  0  0  0  0  0
   40.1240   22.5970   37.5330 C   0  0  0  0  0  0  0  0  0  0  0  0
   39.0820   23.1860   38.2420 N   0  0  0  0  0  0  0  0  0  0  0  0
   37.8510   23.3390   37.6770 C   0  0  0  0  0  0  0  0  0  0  0  0
   37.6480   22.9190   36.4350 N   0  0  0  0  0  0  0  0  0  0  0  0
   40.8370   21.7610   35.9370 H   0  0  0  0  0  0  0  0  0  0  0  0
   40.9730   22.5880   38.1690 H   0  0  0  0  0  0  0  0  0  0  0  0
   37.0370   23.7940   38.2200 H   0  0  0  0  0  0  0  0  0  0  0  0
  1  7  1  6  0  0  0
  1 34  1  0  0  0  0
  2  9  1  0  0  0  0
  2  1  1  0  0  0  0
  3  2  1  0  0  0  0
  3 10  1  1  0  0  0
  4  3  1  0  0  0  0
  4  5  1  0  0  0  0
  5  6  1  0  0  0  0
  6  1  1  0  0  0  0
  6 16  1  0  0  0  0
  6 15  1  0  0  0  0
  8  2  1  0  0  0  0
 11  4  1  0  0  0  0
 12  4  1  0  0  0  0
 13  5  1  0  0  0  0
 14  5  1  0  0  0  0
 17 22  1  6  0  0  0
 17 21  1  0  0  0  0
 17  3  1  0  0  0  0
 18 17  1  0  0  0  0
 19 18  1  0  0  0  0
 19 20  1  0  0  0  0
 20 21  1  0  0  0  0
 21 27  1  1  0  0  0
 21 28  1  0  0  0  0
 23 18  1  0  0  0  0
 24 18  1  0  0  0  0
 25 19  1  0  0  0  0
 26 19  1  0  0  0  0
 28 33  1  0  0  0  0
 29 28  1  0  0  0  0
 29 30  1  0  0  0  0
 30 31  1  0  0  0  0
 31 32  1  0  0  0  0
 33 32  1  0  0  0  0
 34 35  2  0  0  0  0
 34 39  1  0  0  0  0
 35 36  1  0  0  0  0
 36 41  1  0  0  0  0
 36 37  2  0  0  0  0
 38 42  1  0  0  0  0
 38 37  1  0  0  0  0
 39 38  2  0  0  0  0
 40 35  1  0  0  0  0
M  END
>  <minimizedAffinity>
-5.68999338

$$$$

 OpenBabel03262523393D

 42 45  0  0  1  0  0  0  0  0999 V2000
   38.5270   26.1240   35.9560 C   0  0  2  0  0  0  0  0  0  0  0  0
   37.4880   26.5420   34.9780 C   0  0  0  0  0  0  0  0  0  0  0  0
   37.8780   26.2540   33.5290 C   0  0  2  0  0  0  0  0  0  0  0  0
   39.1030   27.0660   33.2060 C   0  0  0  0  0  0  0  0  0  0  0  0
   40.2000   26.8800   34.2420 C   0  0  0  0  0  0  0  0  0  0  0  0
   39.8380   25.8270   35.2560 C   0  0  0  0  0  0  0  0  0  0  0  0
   38.7990   26.9200   36.7090 H   0  0  0  0  0  0  0  0  0  0  0  0
   37.5280   27.6910   35.0040 H   0  0  0  0  0  0  0  0  0  0  0  0
   36.4700   26.3100   35.1040 H   0  0  0  0  0  0  0  0  0  0  0  0
   38.1820   25.1870   33.5140 H   0  0  0  0  0  0  0  0  0  0  0  0
   38.7770   28.1400   33.2970 H   0  0  0  0  0  0  0  0  0  0  0  0
   39.4510   26.9380   32.1840 H   0  0  0  0  0  0  0  0  0  0  0  0
   40.4380   27.8130   34.7940 H   0  0  0  0  0  0  0  0  0  0  0  0
   41.0950   26.5570   33.6960 H   0  0  0  0  0  0  0  0  0  0  0  0
   40.6680   25.7790   35.9810 H   0  0  0  0  0  0  0  0  0  0  0  0
   39.7580   24.8460   34.7680 H   0  0  0  0  0  0  0  0  0  0  0  0
   36.7570   26.4120   32.5980 C   0  0  2  0  0  0  0  0  0  0  0  0
   36.4040   25.2110   31.7540 C   0  0  0  0  0  0  0  0  0  0  0  0
   35.3960   25.9090   30.8220 C   0  0  0  0  0  0  0  0  0  0  0  0
   35.9640   27.1300   30.5440 O   0  0  0  0  0  0  0  0  0  0  0  0
   36.8830   27.4490   31.5440 C   0  0  1  0  0  0  0  0  0  0  0  0
   35.8360   26.6230   33.1710 H   0  0  0  0  0  0  0  0  0  0  0  0
   37.2760   24.8230   31.1900 H   0  0  0  0  0  0  0  0  0  0  0  0
   35.9090   24.4560   32.3670 H   0  0  0  0  0  0  0  0  0  0  0  0
   34.4730   26.0700   31.3920 H   0  0  0  0  0  0  0  0  0  0  0  0
   35.2240   25.3270   29.9030 H   0  0  0  0  0  0  0  0  0  0  0  0
   37.8400   27.5000   31.0100 H   0  0  0  0  0  0  0  0  0  0  0  0
   36.5910   28.8580   31.9590 C   0  0  0  0  0  3  0  0  0  0  0  0
   36.2010   29.6330   30.7280 C   0  0  0  0  0  2  0  0  0  0  0  0
   35.4620   30.9010   30.9900 C   0  0  0  0  0  2  0  0  0  0  0  0
   35.6660   31.4730   32.3610 C   0  0  0  0  0  2  0  0  0  0  0  0
   35.5600   30.4630   33.4640 C   0  0  0  0  0  2  0  0  0  0  0  0
   35.5220   29.0390   32.9800 C   0  0  0  0  0  2  0  0  0  0  0  0
   38.1480   24.9120   36.7130 C   0  0  0  0  0  0  0  0  0  0  0  0
   38.1720   25.0320   38.1020 C   0  0  0  0  0  0  0  0  0  0  0  0
   37.8100   23.9390   38.8620 C   0  0  0  0  0  0  0  0  0  0  0  0
   37.4380   22.7670   38.2140 N   0  0  0  0  0  0  0  0  0  0  0  0
   37.4300   22.6940   36.8530 C   0  0  0  0  0  0  0  0  0  0  0  0
   37.7820   23.7570   36.1410 N   0  0  0  0  0  0  0  0  0  0  0  0
   38.4100   25.7820   38.8360 H   0  0  0  0  0  0  0  0  0  0  0  0
   37.7390   23.7600   39.9050 H   0  0  0  0  0  0  0  0  0  0  0  0
   37.1430   21.7870   36.3410 H   0  0  0  0  0  0  0  0  0  0  0  0
  1  7  1  1  0  0  0
  1 34  1  0  0  0  0
  2  8  1  0  0  0  0
  2  9  1  0  0  0  0
  2  1  1  0  0  0  0
  3 10  1  6  0  0  0
  3  2  1  0  0  0  0
  4 11  1  0  0  0  0
  4  3  1  0  0  0  0
  4  5  1  0  0  0  0
  5 13  1  0  0  0  0
  5  6  1  0  0  0  0
  6  1  1  0  0  0  0
  6 15  1  0  0  0  0
 12  4  1  0  0  0  0
 14  5  1  0  0  0  0
 16  6  1  0  0  0  0
 17 22  1  1  0  0  0
 17  3  1  0  0  0  0
 18 24  1  0  0  0  0
 18 17  1  0  0  0  0
 19 25  1  0  0  0  0
 19 18  1  0  0  0  0
 20 19  1  0  0  0  0
 20 21  1  0  0  0  0
 21 27  1  6  0  0  0
 21 28  1  0  0  0  0
 21 17  1  0  0  0  0
 23 18  1  0  0  0  0
 26 19  1  0  0  0  0
 28 33  1  0  0  0  0
 29 30  1  0  0  0  0
 29 28  1  0  0  0  0
 30 31  1  0  0  0  0
 31 32  1  0  0  0  0
 33 32  1  0  0  0  0
 34 35  1  0  0  0  0
 35 40  1  0  0  0  0
 35 36  2  0  0  0  0
 36 41  1  0  0  0  0
 37 36  1  0  0  0  0
 38 37  2  0  0  0  0
 39 34  2  0  0  0  0
 39 38  1  0  0  0  0
 42 38  1  0  0  0  0
M  END
>  <minimizedAffinity>
-5.65598679

$$$$

 OpenBabel03262523393D

 42 45  0  0  1  0  0  0  0  0999 V2000
   37.8530   25.2400   35.7150 C   0  0  2  0  0  0  0  0  0  0  0  0
   38.0840   25.0330   34.2610 C   0  0  0  0  0  0  0  0  0  0  0  0
   38.9270   26.1370   33.6260 C   0  0  2  0  0  0  0  0  0  0  0  0
   38.1680   27.4310   33.7450 C   0  0  0  0  0  0  0  0  0  0  0  0
   37.6990   27.6870   35.1680 C   0  0  0  0  0  0  0  0  0  0  0  0
   38.2260   26.6510   36.1260 C   0  0  0  0  0  0  0  0  0  0  0  0
   36.7720   25.1470   36.0290 H   0  0  0  0  0  0  0  0  0  0  0  0
   37.0540   25.2260   33.7860 H   0  0  0  0  0  0  0  0  0  0  0  0
   38.3880   24.1070   33.8660 H   0  0  0  0  0  0  0  0  0  0  0  0
   39.8270   26.2270   34.2690 H   0  0  0  0  0  0  0  0  0  0  0  0
   37.2320   27.2810   33.1370 H   0  0  0  0  0  0  0  0  0  0  0  0
   38.6860   28.2800   33.3040 H   0  0  0  0  0  0  0  0  0  0  0  0
   36.5920   27.7030   35.2630 H   0  0  0  0  0  0  0  0  0  0  0  0
   38.0890   28.6700   35.4550 H   0  0  0  0  0  0  0  0  0  0  0  0
   37.8160   26.8930   37.1200 H   0  0  0  0  0  0  0  0  0  0  0  0
   39.3210   26.7180   36.1870 H   0  0  0  0  0  0  0  0  0  0  0  0
   39.3790   25.7970   32.2730 C   0  0  2  0  0  0  0  0  0  0  0  0
   40.5760   26.5530   31.7490 C   0  0  0  0  0  0  0  0  0  0  0  0
   40.5090   26.0530   30.2940 C   0  0  0  0  0  0  0  0  0  0  0  0
   39.1700   26.0630   29.9820 O   0  0  0  0  0  0  0  0  0  0  0  0
   38.4220   26.0100   31.1580 C   0  0  1  0  0  0  0  0  0  0  0  0
   39.6930   24.7380   32.2510 H   0  0  0  0  0  0  0  0  0  0  0  0
   40.4370   27.6520   31.8070 H   0  0  0  0  0  0  0  0  0  0  0  0
   41.4840   26.2010   32.2410 H   0  0  0  0  0  0  0  0  0  0  0  0
   40.8670   25.0170   30.2820 H   0  0  0  0  0  0  0  0  0  0  0  0
   41.0850   26.7030   29.6160 H   0  0  0  0  0  0  0  0  0  0  0  0
   37.8660   26.9560   31.1550 H   0  0  0  0  0  0  0  0  0  0  0  0
   37.3860   24.9460   30.9580 C   0  0  0  0  0  3  0  0  0  0  0  0
   38.0020   23.6250   31.3340 C   0  0  0  0  0  2  0  0  0  0  0  0
   37.0270   22.5350   31.6240 C   0  0  0  0  0  2  0  0  0  0  0  0
   35.6690   22.7330   31.0170 C   0  0  0  0  0  2  0  0  0  0  0  0
   35.1170   24.1140   31.1980 C   0  0  0  0  0  2  0  0  0  0  0  0
   36.1200   25.1040   31.7250 C   0  0  0  0  0  2  0  0  0  0  0  0
   38.6390   24.3150   36.5590 C   0  0  0  0  0  0  0  0  0  0  0  0
   39.7460   23.7270   35.9460 C   0  0  0  0  0  0  0  0  0  0  0  0
   40.5290   22.8690   36.6890 C   0  0  0  0  0  0  0  0  0  0  0  0
   40.1850   22.6260   38.0140 N   0  0  0  0  0  0  0  0  0  0  0  0
   39.0930   23.2220   38.5720 C   0  0  0  0  0  0  0  0  0  0  0  0
   38.3540   24.0440   37.8390 N   0  0  0  0  0  0  0  0  0  0  0  0
   40.2220   23.7330   34.9810 H   0  0  0  0  0  0  0  0  0  0  0  0
   41.4020   22.3030   36.4810 H   0  0  0  0  0  0  0  0  0  0  0  0
   38.8180   23.0380   39.6010 H   0  0  0  0  0  0  0  0  0  0  0  0
  1  7  1  1  0  0  0
  1  6  1  0  0  0  0
  1 34  1  0  0  0  0
  2  1  1  0  0  0  0
  3  4  1  0  0  0  0
  3  2  1  0  0  0  0
  3 10  1  1  0  0  0
  4  5  1  0  0  0  0
  5 13  1  0  0  0  0
  5 14  1  0  0  0  0
  5  6  1  0  0  0  0
  6 16  1  0  0  0  0
  6 15  1  0  0  0  0
  8  2  1  0  0  0  0
  9  2  1  0  0  0  0
 11  4  1  0  0  0  0
 12  4  1  0  0  0  0
 17 22  1  1  0  0  0
 17  3  1  0  0  0  0
 18 23  1  0  0  0  0
 18 24  1  0  0  0  0
 18 17  1  0  0  0  0
 19 18  1  0  0  0  0
 20 19  1  0  0  0  0
 20 21  1  0  0  0  0
 21 27  1  1  0  0  0
 21 17  1  0  0  0  0
 25 19  1  0  0  0  0
 26 19  1  0  0  0  0
 28 21  1  0  0  0  0
 28 29  1  0  0  0  0
 28 33  1  0  0  0  0
 29 30  1  0  0  0  0
 31 32  1  0  0  0  0
 31 30  1  0  0  0  0
 32 33  1  0  0  0  0
 34 39  1  0  0  0  0
 35 34  2  0  0  0  0
 35 36  1  0  0  0  0
 36 37  2  0  0  0  0
 37 38  1  0  0  0  0
 38 42  1  0  0  0  0
 39 38  2  0  0  0  0
 40 35  1  0  0  0  0
 41 36  1  0  0  0  0
M  END
>  <minimizedAffinity>
-5.63199949

$$$$

 OpenBabel03262523393D

 42 45  0  0  1  0  0  0  0  0999 V2000
   36.5930   23.3720   30.9650 C   0  0  2  0  0  0  0  0  0  0  0  0
   37.9180   23.7560   31.5170 C   0  0  0  0  0  0  0  0  0  0  0  0
   37.8180   24.7150   32.7020 C   0  0  2  0  0  0  0  0  0  0  0  0
   37.1850   25.9910   32.2170 C   0  0  0  0  0  0  0  0  0  0  0  0
   35.8930   25.7330   31.4580 C   0  0  0  0  0  0  0  0  0  0  0  0
   35.5020   24.2800   31.4980 C   0  0  0  0  0  0  0  0  0  0  0  0
   36.5100   23.4820   29.8450 H   0  0  0  0  0  0  0  0  0  0  0  0
   38.3700   24.4360   30.7070 H   0  0  0  0  0  0  0  0  0  0  0  0
   38.6710   23.0490   31.7190 H   0  0  0  0  0  0  0  0  0  0  0  0
   37.1010   24.2420   33.4040 H   0  0  0  0  0  0  0  0  0  0  0  0
   37.9060   26.4090   31.4600 H   0  0  0  0  0  0  0  0  0  0  0  0
   37.0840   26.7470   32.9930 H   0  0  0  0  0  0  0  0  0  0  0  0
   35.9490   26.0390   30.3920 H   0  0  0  0  0  0  0  0  0  0  0  0
   35.1150   26.3270   31.9520 H   0  0  0  0  0  0  0  0  0  0  0  0
   34.5800   24.1780   30.9020 H   0  0  0  0  0  0  0  0  0  0  0  0
   35.2720   23.9800   32.5300 H   0  0  0  0  0  0  0  0  0  0  0  0
   39.0930   24.8770   33.4090 C   0  0  2  0  0  0  0  0  0  0  0  0
   40.3090   25.1470   32.5570 C   0  0  0  0  0  0  0  0  0  0  0  0
   41.3690   24.9970   33.6650 C   0  0  0  0  0  0  0  0  0  0  0  0
   40.9500   23.9160   34.4050 O   0  0  0  0  0  0  0  0  0  0  0  0
   39.5820   23.7280   34.2120 C   0  0  1  0  0  0  0  0  0  0  0  0
   39.0270   25.7530   34.0780 H   0  0  0  0  0  0  0  0  0  0  0  0
   40.4430   24.3860   31.7620 H   0  0  0  0  0  0  0  0  0  0  0  0
   40.2810   26.1710   32.1810 H   0  0  0  0  0  0  0  0  0  0  0  0
   41.3220   25.8950   34.2920 H   0  0  0  0  0  0  0  0  0  0  0  0
   42.3730   24.8320   33.2450 H   0  0  0  0  0  0  0  0  0  0  0  0
   39.5200   22.7350   33.7470 H   0  0  0  0  0  0  0  0  0  0  0  0
   38.9770   23.5620   35.5720 C   0  0  0  0  0  3  0  0  0  0  0  0
   39.9640   22.8150   36.4300 C   0  0  0  0  0  2  0  0  0  0  0  0
   39.7430   22.9410   37.8990 C   0  0  0  0  0  2  0  0  0  0  0  0
   38.3450   23.3180   38.2920 C   0  0  0  0  0  2  0  0  0  0  0  0
   37.7700   24.4440   37.4870 C   0  0  0  0  0  2  0  0  0  0  0  0
   38.5960   24.8130   36.2840 C   0  0  0  0  0  2  0  0  0  0  0  0
   36.2110   21.9830   31.3020 C   0  0  0  0  0  0  0  0  0  0  0  0
   37.0510   20.9860   30.8050 C   0  0  0  0  0  0  0  0  0  0  0  0
   36.7570   19.6720   31.1030 C   0  0  0  0  0  0  0  0  0  0  0  0
   35.6390   19.3960   31.8820 N   0  0  0  0  0  0  0  0  0  0  0  0
   34.8450   20.4020   32.3460 C   0  0  0  0  0  0  0  0  0  0  0  0
   35.1470   21.6590   32.0470 N   0  0  0  0  0  0  0  0  0  0  0  0
   37.9400   20.9160   30.2030 H   0  0  0  0  0  0  0  0  0  0  0  0
   37.2130   18.7440   30.8630 H   0  0  0  0  0  0  0  0  0  0  0  0
   33.9750   20.1970   32.9510 H   0  0  0  0  0  0  0  0  0  0  0  0
  1  7  1  6  0  0  0
  1 34  1  0  0  0  0
  1  6  1  0  0  0  0
  1  2  1  0  0  0  0
  2  9  1  0  0  0  0
  2  3  1  0  0  0  0
  3 10  1  1  0  0  0
  3 17  1  0  0  0  0
  4  3  1  0  0  0  0
  4 12  1  0  0  0  0
  5  6  1  0  0  0  0
  5 14  1  0  0  0  0
  5  4  1  0  0  0  0
  6 16  1  0  0  0  0
  8  2  1  0  0  0  0
 11  4  1  0  0  0  0
 13  5  1  0  0  0  0
 15  6  1  0  0  0  0
 17 22  1  1  0  0  0
 17 21  1  0  0  0  0
 18 17  1  0  0  0  0
 18 19  1  0  0  0  0
 19 25  1  0  0  0  0
 19 20  1  0  0  0  0
 21 27  1  6  0  0  0
 21 20  1  0  0  0  0
 21 28  1  0  0  0  0
 23 18  1  0  0  0  0
 24 18  1  0  0  0  0
 26 19  1  0  0  0  0
 28 33  1  0  0  0  0
 28 29  1  0  0  0  0
 29 30  1  0  0  0  0
 30 31  1  0  0  0  0
 32 31  1  0  0  0  0
 33 32  1  0  0  0  0
 34 39  1  0  0  0  0
 35 36  1  0  0  0  0
 35 34  2  0  0  0  0
 36 37  2  0  0  0  0
 37 38  1  0  0  0  0
 38 42  1  0  0  0  0
 39 38  2  0  0  0  0
 40 35  1  0  0  0  0
 41 36  1  0  0  0  0
M  END
>  <minimizedAffinity>
-5.60379267

$$$$

 OpenBabel03262523393D

 42 45  0  0  1  0  0  0  0  0999 V2000
   39.8480   26.7530   32.0920 C   0  0  2  0  0  0  0  0  0  0  0  0
   39.6740   25.2830   32.2270 C   0  0  0  0  0  0  0  0  0  0  0  0
   39.7030   24.8070   33.6790 C   0  0  2  0  0  0  0  0  0  0  0  0
   41.0630   25.1180   34.2440 C   0  0  0  0  0  0  0  0  0  0  0  0
   41.4600   26.5670   34.0090 C   0  0  0  0  0  0  0  0  0  0  0  0
   40.3390   27.3600   33.3910 C   0  0  0  0  0  0  0  0  0  0  0  0
   40.6320   27.0580   31.3400 H   0  0  0  0  0  0  0  0  0  0  0  0
   40.6590   24.8480   31.8220 H   0  0  0  0  0  0  0  0  0  0  0  0
   38.9220   24.7550   31.7160 H   0  0  0  0  0  0  0  0  0  0  0  0
   38.9740   25.4490   34.2130 H   0  0  0  0  0  0  0  0  0  0  0  0
   41.7830   24.5020   33.6360 H   0  0  0  0  0  0  0  0  0  0  0  0
   41.1860   24.8010   35.2770 H   0  0  0  0  0  0  0  0  0  0  0  0
   42.3500   26.6720   33.3530 H   0  0  0  0  0  0  0  0  0  0  0  0
   41.6970   26.9900   34.9930 H   0  0  0  0  0  0  0  0  0  0  0  0
   40.7190   28.3830   33.2280 H   0  0  0  0  0  0  0  0  0  0  0  0
   39.4920   27.4220   34.0890 H   0  0  0  0  0  0  0  0  0  0  0  0
   39.2660   23.4160   33.8280 C   0  0  2  0  0  0  0  0  0  0  0  0
   38.9610   22.6630   32.5550 C   0  0  0  0  0  0  0  0  0  0  0  0
   38.3400   21.4120   33.2050 C   0  0  0  0  0  0  0  0  0  0  0  0
   37.5620   21.9000   34.2280 O   0  0  0  0  0  0  0  0  0  0  0  0
   38.0150   23.1680   34.5880 C   0  0  1  0  0  0  0  0  0  0  0  0
   40.0720   22.8310   34.3050 H   0  0  0  0  0  0  0  0  0  0  0  0
   38.2270   23.1940   31.9180 H   0  0  0  0  0  0  0  0  0  0  0  0
   39.8890   22.4130   32.0380 H   0  0  0  0  0  0  0  0  0  0  0  0
   39.1580   20.8200   33.6340 H   0  0  0  0  0  0  0  0  0  0  0  0
   37.7410   20.8350   32.4830 H   0  0  0  0  0  0  0  0  0  0  0  0
   37.1610   23.8210   34.3650 H   0  0  0  0  0  0  0  0  0  0  0  0
   38.1320   23.1740   36.0810 C   0  0  0  0  0  3  0  0  0  0  0  0
   39.4450   22.5320   36.4440 C   0  0  0  0  0  2  0  0  0  0  0  0
   39.9360   22.8370   37.8180 C   0  0  0  0  0  2  0  0  0  0  0  0
   38.8710   23.2680   38.7830 C   0  0  0  0  0  2  0  0  0  0  0  0
   37.9260   24.2910   38.2280 C   0  0  0  0  0  2  0  0  0  0  0  0
   38.0660   24.5050   36.7450 C   0  0  0  0  0  2  0  0  0  0  0  0
   38.5940   27.4480   31.7290 C   0  0  0  0  0  0  0  0  0  0  0  0
   38.4970   27.8690   30.4020 C   0  0  0  0  0  0  0  0  0  0  0  0
   37.3420   28.5060   30.0000 C   0  0  0  0  0  0  0  0  0  0  0  0
   36.3260   28.7030   30.9290 N   0  0  0  0  0  0  0  0  0  0  0  0
   36.4650   28.2760   32.2160 C   0  0  0  0  0  0  0  0  0  0  0  0
   37.5840   27.6650   32.5820 N   0  0  0  0  0  0  0  0  0  0  0  0
   39.1000   27.8520   29.5120 H   0  0  0  0  0  0  0  0  0  0  0  0
   37.0110   28.9170   29.0780 H   0  0  0  0  0  0  0  0  0  0  0  0
   35.6820   28.4250   32.9440 H   0  0  0  0  0  0  0  0  0  0  0  0
  1  7  1  6  0  0  0
  1  2  1  0  0  0  0
  1  6  1  0  0  0  0
  2  3  1  0  0  0  0
  3 17  1  0  0  0  0
  3 10  1  1  0  0  0
  3  4  1  0  0  0  0
  4 12  1  0  0  0  0
  5  4  1  0  0  0  0
  5 14  1  0  0  0  0
  6  5  1  0  0  0  0
  6 16  1  0  0  0  0
  8  2  1  0  0  0  0
  9  2  1  0  0  0  0
 11  4  1  0  0  0  0
 13  5  1  0  0  0  0
 15  6  1  0  0  0  0
 17 22  1  1  0  0  0
 17 21  1  0  0  0  0
 18 19  1  0  0  0  0
 18 17  1  0  0  0  0
 19 25  1  0  0  0  0
 19 20  1  0  0  0  0
 20 21  1  0  0  0  0
 21 27  1  6  0  0  0
 21 28  1  0  0  0  0
 23 18  1  0  0  0  0
 24 18  1  0  0  0  0
 26 19  1  0  0  0  0
 28 29  1  0  0  0  0
 28 33  1  0  0  0  0
 29 30  1  0  0  0  0
 30 31  1  0  0  0  0
 32 31  1  0  0  0  0
 33 32  1  0  0  0  0
 34  1  1  0  0  0  0
 34 39  1  0  0  0  0
 35 34  2  0  0  0  0
 36 35  1  0  0  0  0
 36 37  2  0  0  0  0
 37 38  1  0  0  0  0
 38 39  2  0  0  0  0
 38 42  1  0  0  0  0
 40 35  1  0  0  0  0
 41 36  1  0  0  0  0
M  END
>  <minimizedAffinity>
-5.5741539

$$$$
