
 OpenBabel03272510343D

 25 27  0  0  0  0  0  0  0  0999 V2000
   36.9740   30.7880   45.6780 C   0  0  0  0  0  0  0  0  0  0  0  0
   36.2230   30.7550   44.5150 C   0  0  0  0  0  0  0  0  0  0  0  0
   34.9140   30.2750   44.5530 C   0  0  0  0  0  0  0  0  0  0  0  0
   34.4020   29.8460   45.7500 C   0  0  0  0  0  0  0  0  0  0  0  0
   35.1580   29.8790   46.9240 C   0  0  0  0  0  0  0  0  0  0  0  0
   36.4550   30.3550   46.8840 C   0  0  0  0  0  0  0  0  0  0  0  0
   36.5790   31.0800   43.5480 H   0  0  0  0  0  0  0  0  0  0  0  0
   34.3190   30.2450   43.6480 H   0  0  0  0  0  0  0  0  0  0  0  0
   33.3810   29.4840   45.7220 H   0  0  0  0  0  0  0  0  0  0  0  0
   34.6390   29.5210   47.7730 H   0  0  0  0  0  0  0  0  0  0  0  0
   39.7050   33.1520   45.1810 C   0  0  0  0  0  0  0  0  0  0  0  0
   40.8620   32.3830   45.2770 C   0  0  0  0  0  0  0  0  0  0  0  0
   40.6870   31.0110   45.5220 C   0  0  0  0  0  0  0  0  0  0  0  0
   39.4340   30.5100   45.6500 N   0  0  0  0  0  0  0  0  0  0  0  0
   38.3300   31.2960   45.5480 C   0  0  0  0  0  0  0  0  0  0  0  0
   38.5040   32.6040   45.3150 N   0  0  0  0  0  0  0  0  0  0  0  0
   39.8940   34.2080   44.9910 H   0  0  0  0  0  0  0  0  0  0  0  0
   41.8840   32.6740   45.1940 H   0  0  0  0  0  0  0  0  0  0  0  0
   41.4680   30.2690   45.6260 H   0  0  0  0  0  0  0  0  0  0  0  0
   37.2320   30.3910   48.1380 C   0  0  0  0  0  3  0  0  0  0  0  0
   37.3750   31.7540   48.7230 C   0  0  0  0  0  2  0  0  0  0  0  0
   38.3470   31.6220   49.9020 C   0  0  0  0  0  2  0  0  0  0  0  0
   37.5770   30.8520   50.9540 C   0  0  0  0  0  2  0  0  0  0  0  0
   37.3480   29.4650   50.4680 C   0  0  0  0  0  2  0  0  0  0  0  0
   36.7060   29.3690   49.1080 C   0  0  0  0  0  2  0  0  0  0  0  0
  1  6  1  0  0  0  0
  2  3  1  0  0  0  0
  2  1  2  0  0  0  0
  3  4  2  0  0  0  0
  4  5  1  0  0  0  0
  5 10  1  0  0  0  0
  6  5  2  0  0  0  0
  6 20  1  0  0  0  0
  7  2  1  0  0  0  0
  8  3  1  0  0  0  0
  9  4  1  0  0  0  0
 11 12  2  0  0  0  0
 11 16  1  0  0  0  0
 12 13  1  0  0  0  0
 13 19  1  0  0  0  0
 13 14  2  0  0  0  0
 15 14  1  0  0  0  0
 15  1  1  0  0  0  0
 16 15  2  0  0  0  0
 17 11  1  0  0  0  0
 18 12  1  0  0  0  0
 20 21  1  0  0  0  0
 20 25  1  0  0  0  0
 21 22  1  0  0  0  0
 22 23  1  0  0  0  0
 24 23  1  0  0  0  0
 25 24  1  0  0  0  0
M  END
>  <minimizedAffinity>
-6.24289083

>  <minimizedRMSD>
3.41414332

$$$$
