
 OpenBabel03272509273D

 38 40  0  0  1  0  0  0  0  0999 V2000
   37.8490   25.0440   33.6330 C   0  0  2  0  0  0  0  0  0  0  0  0
   38.4880   26.2730   32.9840 C   0  0  0  0  0  0  0  0  0  0  0  0
   39.2980   27.0630   34.0100 C   0  0  0  0  0  0  0  0  0  0  0  0
   38.5050   27.1230   35.2380 C   0  0  0  0  0  0  0  0  0  0  0  0
   37.8710   25.8530   35.6930 C   0  0  0  0  0  0  0  0  0  0  0  0
   38.4450   24.6780   34.9020 C   0  0  1  0  0  0  0  0  0  0  0  0
   36.7550   25.2720   33.6640 H   0  0  0  0  0  0  0  0  0  0  0  0
   37.7580   26.9350   32.5180 H   0  0  0  0  0  0  0  0  0  0  0  0
   39.2250   26.0150   32.1980 H   0  0  0  0  0  0  0  0  0  0  0  0
   39.4650   28.0700   33.6040 H   0  0  0  0  0  0  0  0  0  0  0  0
   40.3180   26.6220   34.1360 H   0  0  0  0  0  0  0  0  0  0  0  0
   39.2100   27.5390   36.0250 H   0  0  0  0  0  0  0  0  0  0  0  0
   37.7960   27.9830   35.1170 H   0  0  0  0  0  0  0  0  0  0  0  0
   37.9070   25.8600   36.7430 H   0  0  0  0  0  0  0  0  0  0  0  0
   36.7750   26.0230   35.4290 H   0  0  0  0  0  0  0  0  0  0  0  0
   39.5400   24.8430   34.8670 H   0  0  0  0  0  0  0  0  0  0  0  0
   38.1050   23.6960   35.9130 C   0  0  2  0  0  3  0  0  0  0  0  0
   37.8220   24.0110   37.3390 C   0  0  0  0  0  3  0  0  0  0  0  0
   38.7600   23.5580   38.3910 C   0  0  0  0  0  3  0  0  0  0  0  0
   39.9140   22.6990   38.0910 C   0  0  0  0  0  2  0  0  0  0  0  0
   40.2950   22.5960   36.6290 C   0  0  0  0  0  2  0  0  0  0  0  0
   39.0070   22.4990   35.9270 C   0  0  0  0  0  2  0  0  0  0  0  0
   37.9920   23.7900   32.3630 S   0  0  0  0  0  0  0  0  0  0  0  0
   36.8250   23.8320   31.0980 C   0  0  0  0  0  0  0  0  0  0  0  0
   36.6950   24.6900   30.4300 H   0  0  0  0  0  0  0  0  0  0  0  0
   37.2440   23.1050   30.3570 H   0  0  0  0  0  0  0  0  0  0  0  0
   35.6010   23.1790   31.6600 C   0  0  0  0  0  0  0  0  0  0  0  0
   34.6410   23.5810   31.4390 H   0  0  0  0  0  0  0  0  0  0  0  0
   35.6890   23.4630   32.7720 H   0  0  0  0  0  0  0  0  0  0  0  0
   35.4530   19.7380   32.9810 C   0  0  0  0  0  0  0  0  0  0  0  0
   35.3670   21.1250   32.8730 C   0  0  0  0  0  0  0  0  0  0  0  0
   35.7520   21.7420   31.7120 C   0  0  0  0  0  0  0  0  0  0  0  0
   36.2090   20.9210   30.7060 N   0  0  0  0  0  0  0  0  0  0  0  0
   36.2790   19.5940   30.8390 C   0  0  0  0  0  0  0  0  0  0  0  0
   35.9100   18.9780   31.9600 N   0  0  0  0  0  0  0  0  0  0  0  0
   35.1830   19.1450   33.8410 H   0  0  0  0  0  0  0  0  0  0  0  0
   34.9660   21.4760   33.8130 H   0  0  0  0  0  0  0  0  0  0  0  0
   36.6550   19.0540   29.9800 H   0  0  0  0  0  0  0  0  0  0  0  0
  1  7  1  1  0  0  0
  1  6  1  0  0  0  0
  2  1  1  0  0  0  0
  2  3  1  0  0  0  0
  3 11  1  0  0  0  0
  3  4  1  0  0  0  0
  4  5  1  0  0  0  0
  4 12  1  0  0  0  0
  5 14  1  0  0  0  0
  6 16  1  6  0  0  0
  6  5  1  0  0  0  0
  6 17  1  0  0  0  0
  8  2  1  0  0  0  0
  9  2  1  0  0  0  0
 10  3  1  0  0  0  0
 13  4  1  0  0  0  0
 15  5  1  0  0  0  0
 17 22  1  1  0  0  0
 17 18  1  0  0  0  0
 18 19  2  0  0  0  0
 20 19  1  0  0  0  0
 21 20  1  0  0  0  0
 22 21  1  0  0  0  0
 23  1  1  0  0  0  0
 24 27  1  0  0  0  0
 24 23  1  0  0  0  0
 25 24  1  0  0  0  0
 26 24  1  0  0  0  0
 27 32  1  0  0  0  0
 27 29  1  0  0  0  0
 28 27  1  0  0  0  0
 30 36  1  0  0  0  0
 31 30  1  0  0  0  0
 31 37  1  0  0  0  0
 32 31  2  0  0  0  0
 33 34  2  0  0  0  0
 33 32  1  0  0  0  0
 34 35  1  0  0  0  0
 35 30  2  0  0  0  0
 38 34  1  0  0  0  0
M  END
>  <minimizedAffinity>
-5.51953983

$$$$

 OpenBabel03272509273D

 38 40  0  0  1  0  0  0  0  0999 V2000
   37.8250   25.5200   33.9100 C   0  0  2  0  0  0  0  0  0  0  0  0
   38.6490   26.6410   33.2740 C   0  0  0  0  0  0  0  0  0  0  0  0
   39.7670   27.0860   34.2140 C   0  0  0  0  0  0  0  0  0  0  0  0
   39.1980   27.1710   35.5580 C   0  0  0  0  0  0  0  0  0  0  0  0
   38.3400   26.0340   35.9990 C   0  0  0  0  0  0  0  0  0  0  0  0
   38.4860   24.8690   35.0220 C   0  0  1  0  0  0  0  0  0  0  0  0
   36.8380   25.9890   34.1450 H   0  0  0  0  0  0  0  0  0  0  0  0
   38.0470   27.5070   32.9970 H   0  0  0  0  0  0  0  0  0  0  0  0
   39.1800   26.3210   32.3540 H   0  0  0  0  0  0  0  0  0  0  0  0
   40.1190   28.0700   33.8770 H   0  0  0  0  0  0  0  0  0  0  0  0
   40.6540   26.4090   34.1250 H   0  0  0  0  0  0  0  0  0  0  0  0
   40.0880   27.3100   36.2490 H   0  0  0  0  0  0  0  0  0  0  0  0
   38.7140   28.1800   35.6350 H   0  0  0  0  0  0  0  0  0  0  0  0
   38.5250   25.8990   37.0250 H   0  0  0  0  0  0  0  0  0  0  0  0
   37.2950   26.4840   35.9410 H   0  0  0  0  0  0  0  0  0  0  0  0
   39.5710   24.7800   34.8180 H   0  0  0  0  0  0  0  0  0  0  0  0
   38.0610   23.8710   35.9840 C   0  0  2  0  0  3  0  0  0  0  0  0
   37.7350   24.1530   37.4090 C   0  0  0  0  0  3  0  0  0  0  0  0
   38.6080   23.6220   38.4800 C   0  0  0  0  0  3  0  0  0  0  0  0
   39.7330   22.7200   38.1950 C   0  0  0  0  0  2  0  0  0  0  0  0
   40.1670   22.6470   36.7460 C   0  0  0  0  0  2  0  0  0  0  0  0
   38.9050   22.6330   35.9920 C   0  0  0  0  0  2  0  0  0  0  0  0
   37.4700   24.4380   32.5280 S   0  0  0  0  0  0  0  0  0  0  0  0
   37.1800   25.1930   31.0080 C   0  0  0  0  0  0  0  0  0  0  0  0
   37.9650   25.6820   30.4210 H   0  0  0  0  0  0  0  0  0  0  0  0
   36.9870   24.3190   30.3350 H   0  0  0  0  0  0  0  0  0  0  0  0
   35.8650   25.8920   31.1520 C   0  0  0  0  0  0  0  0  0  0  0  0
   35.1310   25.5030   31.8160 H   0  0  0  0  0  0  0  0  0  0  0  0
   35.3720   25.6490   30.1410 H   0  0  0  0  0  0  0  0  0  0  0  0
   35.6190   29.4560   32.0740 C   0  0  0  0  0  0  0  0  0  0  0  0
   35.4750   28.0690   32.0760 C   0  0  0  0  0  0  0  0  0  0  0  0
   36.0230   27.3270   31.0630 C   0  0  0  0  0  0  0  0  0  0  0  0
   36.6960   28.0270   30.0880 N   0  0  0  0  0  0  0  0  0  0  0  0
   36.8170   29.3560   30.1130 C   0  0  0  0  0  0  0  0  0  0  0  0
   36.2910   30.0930   31.0890 N   0  0  0  0  0  0  0  0  0  0  0  0
   35.2310   30.1410   32.8120 H   0  0  0  0  0  0  0  0  0  0  0  0
   34.9140   27.8260   32.9670 H   0  0  0  0  0  0  0  0  0  0  0  0
   37.3690   29.7950   29.2910 H   0  0  0  0  0  0  0  0  0  0  0  0
  1  7  1  1  0  0  0
  1  6  1  0  0  0  0
  2  1  1  0  0  0  0
  2  3  1  0  0  0  0
  3  4  1  0  0  0  0
  4 13  1  0  0  0  0
  4  5  1  0  0  0  0
  4 12  1  0  0  0  0
  5 14  1  0  0  0  0
  6 16  1  6  0  0  0
  6 17  1  0  0  0  0
  6  5  1  0  0  0  0
  8  2  1  0  0  0  0
  9  2  1  0  0  0  0
 10  3  1  0  0  0  0
 11  3  1  0  0  0  0
 15  5  1  0  0  0  0
 17 22  1  1  0  0  0
 17 18  1  0  0  0  0
 18 19  2  0  0  0  0
 20 19  1  0  0  0  0
 21 20  1  0  0  0  0
 22 21  1  0  0  0  0
 23  1  1  0  0  0  0
 24 27  1  0  0  0  0
 24 23  1  0  0  0  0
 25 24  1  0  0  0  0
 26 24  1  0  0  0  0
 27 28  1  0  0  0  0
 29 27  1  0  0  0  0
 30 31  1  0  0  0  0
 30 36  1  0  0  0  0
 31 37  1  0  0  0  0
 32 27  1  0  0  0  0
 32 31  2  0  0  0  0
 33 34  2  0  0  0  0
 33 32  1  0  0  0  0
 34 35  1  0  0  0  0
 35 30  2  0  0  0  0
 38 34  1  0  0  0  0
M  END
>  <minimizedAffinity>
-5.37808228

$$$$

 OpenBabel03272509273D

 38 40  0  0  1  0  0  0  0  0999 V2000
   37.0260   26.4230   32.8390 C   0  0  2  0  0  0  0  0  0  0  0  0
   36.1410   27.2180   31.8760 C   0  0  0  0  0  0  0  0  0  0  0  0
   36.0820   28.6860   32.2880 C   0  0  0  0  0  0  0  0  0  0  0  0
   35.9240   28.7250   33.7420 C   0  0  0  0  0  0  0  0  0  0  0  0
   36.8040   27.8220   34.5390 C   0  0  0  0  0  0  0  0  0  0  0  0
   37.9020   27.2510   33.6430 C   0  0  1  0  0  0  0  0  0  0  0  0
   36.3170   25.7750   33.4110 H   0  0  0  0  0  0  0  0  0  0  0  0
   35.1270   26.8230   31.8080 H   0  0  0  0  0  0  0  0  0  0  0  0
   36.5380   27.2420   30.8420 H   0  0  0  0  0  0  0  0  0  0  0  0
   35.2150   29.1420   31.7910 H   0  0  0  0  0  0  0  0  0  0  0  0
   36.9710   29.2440   31.9010 H   0  0  0  0  0  0  0  0  0  0  0  0
   36.0810   29.8130   34.0280 H   0  0  0  0  0  0  0  0  0  0  0  0
   34.8280   28.6100   33.9470 H   0  0  0  0  0  0  0  0  0  0  0  0
   37.0470   28.3420   35.4190 H   0  0  0  0  0  0  0  0  0  0  0  0
   36.0790   27.0050   34.8640 H   0  0  0  0  0  0  0  0  0  0  0  0
   38.2750   28.1030   33.0420 H   0  0  0  0  0  0  0  0  0  0  0  0
   38.8000   26.9680   34.7460 C   0  0  2  0  0  3  0  0  0  0  0  0
   40.2320   26.5930   34.5970 C   0  0  0  0  0  3  0  0  0  0  0  0
   40.6760   25.2300   34.9640 C   0  0  0  0  0  3  0  0  0  0  0  0
   39.7700   24.2550   35.5870 C   0  0  0  0  0  2  0  0  0  0  0  0
   38.2940   24.5850   35.5080 C   0  0  0  0  0  2  0  0  0  0  0  0
   38.2340   26.0300   35.7690 C   0  0  0  0  0  2  0  0  0  0  0  0
   37.8810   25.2780   31.7590 S   0  0  0  0  0  0  0  0  0  0  0  0
   36.9010   24.2010   30.8410 C   0  0  0  0  0  0  0  0  0  0  0  0
   36.4810   24.4580   29.8620 H   0  0  0  0  0  0  0  0  0  0  0  0
   37.6370   23.4260   30.5100 H   0  0  0  0  0  0  0  0  0  0  0  0
   36.0140   23.5200   31.8350 C   0  0  0  0  0  0  0  0  0  0  0  0
   35.1230   24.0010   32.1630 H   0  0  0  0  0  0  0  0  0  0  0  0
   36.6500   23.5980   32.7910 H   0  0  0  0  0  0  0  0  0  0  0  0
   34.8910   20.0140   32.0710 C   0  0  0  0  0  0  0  0  0  0  0  0
   34.9990   21.3910   32.2610 C   0  0  0  0  0  0  0  0  0  0  0  0
   35.9860   22.0910   31.6180 C   0  0  0  0  0  0  0  0  0  0  0  0
   36.8230   21.3600   30.8050 N   0  0  0  0  0  0  0  0  0  0  0  0
   36.6930   20.0420   30.6420 C   0  0  0  0  0  0  0  0  0  0  0  0
   35.7420   19.3460   31.2600 N   0  0  0  0  0  0  0  0  0  0  0  0
   34.1610   19.3610   32.5240 H   0  0  0  0  0  0  0  0  0  0  0  0
   34.2020   21.6650   32.9370 H   0  0  0  0  0  0  0  0  0  0  0  0
   37.4110   19.5760   29.9780 H   0  0  0  0  0  0  0  0  0  0  0  0
  1  7  1  1  0  0  0
  1  6  1  0  0  0  0
  2  3  1  0  0  0  0
  2  1  1  0  0  0  0
  3  4  1  0  0  0  0
  4 13  1  0  0  0  0
  4 12  1  0  0  0  0
  4  5  1  0  0  0  0
  5 15  1  0  0  0  0
  5 14  1  0  0  0  0
  6 16  1  6  0  0  0
  6  5  1  0  0  0  0
  6 17  1  0  0  0  0
  8  2  1  0  0  0  0
  9  2  1  0  0  0  0
 10  3  1  0  0  0  0
 11  3  1  0  0  0  0
 17 18  1  6  0  0  0
 17 22  1  0  0  0  0
 18 19  2  0  0  0  0
 19 20  1  0  0  0  0
 21 20  1  0  0  0  0
 21 22  1  0  0  0  0
 23  1  1  0  0  0  0
 24 23  1  0  0  0  0
 24 27  1  0  0  0  0
 25 24  1  0  0  0  0
 26 24  1  0  0  0  0
 27 28  1  0  0  0  0
 27 29  1  0  0  0  0
 30 31  1  0  0  0  0
 30 36  1  0  0  0  0
 31 37  1  0  0  0  0
 32 27  1  0  0  0  0
 32 31  2  0  0  0  0
 33 32  1  0  0  0  0
 34 33  2  0  0  0  0
 34 35  1  0  0  0  0
 35 30  2  0  0  0  0
 38 34  1  0  0  0  0
M  END
>  <minimizedAffinity>
-5.32655001

$$$$

 OpenBabel03272509273D

 38 40  0  0  1  0  0  0  0  0999 V2000
   39.2630   26.7510   33.5450 C   0  0  2  0  0  0  0  0  0  0  0  0
   39.2930   27.1340   35.0260 C   0  0  0  0  0  0  0  0  0  0  0  0
   37.8800   27.1670   35.6020 C   0  0  0  0  0  0  0  0  0  0  0  0
   37.0230   27.8290   34.6180 C   0  0  0  0  0  0  0  0  0  0  0  0
   37.1770   27.4040   33.1970 C   0  0  0  0  0  0  0  0  0  0  0  0
   38.0210   26.1320   33.1290 C   0  0  1  0  0  0  0  0  0  0  0  0
   39.5390   27.6870   33.0010 H   0  0  0  0  0  0  0  0  0  0  0  0
   39.7760   28.0950   35.2060 H   0  0  0  0  0  0  0  0  0  0  0  0
   39.8250   26.3930   35.6550 H   0  0  0  0  0  0  0  0  0  0  0  0
   37.9110   27.7400   36.5390 H   0  0  0  0  0  0  0  0  0  0  0  0
   37.5460   26.1400   35.8940 H   0  0  0  0  0  0  0  0  0  0  0  0
   35.9630   27.6610   34.9880 H   0  0  0  0  0  0  0  0  0  0  0  0
   37.1340   28.9320   34.7910 H   0  0  0  0  0  0  0  0  0  0  0  0
   36.2170   27.4340   32.7700 H   0  0  0  0  0  0  0  0  0  0  0  0
   37.7360   28.2860   32.7410 H   0  0  0  0  0  0  0  0  0  0  0  0
   37.6390   25.4720   33.9330 H   0  0  0  0  0  0  0  0  0  0  0  0
   37.4960   25.7270   31.8390 C   0  0  2  0  0  3  0  0  0  0  0  0
   36.1230   26.0300   31.3510 C   0  0  0  0  0  3  0  0  0  0  0  0
   35.1500   24.9290   31.1700 C   0  0  0  0  0  3  0  0  0  0  0  0
   35.5240   23.5190   31.3450 C   0  0  0  0  0  2  0  0  0  0  0  0
   36.8380   23.2700   32.0560 C   0  0  0  0  0  2  0  0  0  0  0  0
   37.7440   24.2880   31.5040 C   0  0  0  0  0  2  0  0  0  0  0  0
   40.7050   25.7040   33.3630 S   0  0  0  0  0  0  0  0  0  0  0  0
   41.1360   24.7380   34.7210 C   0  0  0  0  0  0  0  0  0  0  0  0
   42.1740   24.5550   35.0220 H   0  0  0  0  0  0  0  0  0  0  0  0
   40.8210   25.3760   35.5840 H   0  0  0  0  0  0  0  0  0  0  0  0
   40.1890   23.5790   34.7050 C   0  0  0  0  0  0  0  0  0  0  0  0
   40.4510   22.6910   34.1810 H   0  0  0  0  0  0  0  0  0  0  0  0
   39.3580   23.9810   34.0190 H   0  0  0  0  0  0  0  0  0  0  0  0
   37.3990   23.5050   37.1170 C   0  0  0  0  0  0  0  0  0  0  0  0
   38.1380   23.6430   35.9430 C   0  0  0  0  0  0  0  0  0  0  0  0
   39.4940   23.4550   35.9680 C   0  0  0  0  0  0  0  0  0  0  0  0
   40.0450   23.1350   37.1880 N   0  0  0  0  0  0  0  0  0  0  0  0
   39.3110   23.0090   38.2950 C   0  0  0  0  0  0  0  0  0  0  0  0
   37.9920   23.1890   38.2900 N   0  0  0  0  0  0  0  0  0  0  0  0
   36.3320   23.6310   37.2210 H   0  0  0  0  0  0  0  0  0  0  0  0
   37.4260   23.8850   35.1660 H   0  0  0  0  0  0  0  0  0  0  0  0
   39.8560   22.7540   39.1950 H   0  0  0  0  0  0  0  0  0  0  0  0
  1  7  1  6  0  0  0
  1  2  1  0  0  0  0
  2  8  1  0  0  0  0
  2  3  1  0  0  0  0
  2  9  1  0  0  0  0
  3 11  1  0  0  0  0
  3 10  1  0  0  0  0
  4 13  1  0  0  0  0
  4 12  1  0  0  0  0
  4  3  1  0  0  0  0
  5  4  1  0  0  0  0
  6  5  1  0  0  0  0
  6  1  1  0  0  0  0
  6 16  1  1  0  0  0
 14  5  1  0  0  0  0
 15  5  1  0  0  0  0
 17 18  1  1  0  0  0
 17  6  1  0  0  0  0
 19 20  1  0  0  0  0
 19 18  2  0  0  0  0
 20 21  1  0  0  0  0
 22 17  1  0  0  0  0
 22 21  1  0  0  0  0
 23  1  1  0  0  0  0
 23 24  1  0  0  0  0
 24 25  1  0  0  0  0
 24 26  1  0  0  0  0
 27 24  1  0  0  0  0
 27 32  1  0  0  0  0
 28 27  1  0  0  0  0
 29 27  1  0  0  0  0
 30 36  1  0  0  0  0
 30 35  1  0  0  0  0
 31 32  1  0  0  0  0
 31 30  2  0  0  0  0
 32 33  2  0  0  0  0
 33 34  1  0  0  0  0
 34 38  1  0  0  0  0
 35 34  2  0  0  0  0
 37 31  1  0  0  0  0
M  END
>  <minimizedAffinity>
-5.12631035

$$$$

 OpenBabel03272509273D

 38 40  0  0  1  0  0  0  0  0999 V2000
   39.1600   22.2070   35.7020 C   0  0  2  0  0  0  0  0  0  0  0  0
   37.8800   22.7240   36.3610 C   0  0  0  0  0  0  0  0  0  0  0  0
   38.2120   23.7000   37.4880 C   0  0  0  0  0  0  0  0  0  0  0  0
   39.3310   23.1320   38.2400 C   0  0  0  0  0  0  0  0  0  0  0  0
   40.4680   22.5850   37.4450 C   0  0  0  0  0  0  0  0  0  0  0  0
   40.3290   23.0130   35.9850 C   0  0  1  0  0  0  0  0  0  0  0  0
   39.2280   21.1350   36.0120 H   0  0  0  0  0  0  0  0  0  0  0  0
   37.2510   21.9250   36.7540 H   0  0  0  0  0  0  0  0  0  0  0  0
   37.2440   23.3140   35.6710 H   0  0  0  0  0  0  0  0  0  0  0  0
   37.3230   23.7950   38.1250 H   0  0  0  0  0  0  0  0  0  0  0  0
   38.3970   24.7270   37.0830 H   0  0  0  0  0  0  0  0  0  0  0  0
   39.6730   23.9630   38.9340 H   0  0  0  0  0  0  0  0  0  0  0  0
   38.8860   22.4130   38.9770 H   0  0  0  0  0  0  0  0  0  0  0  0
   41.3430   22.8030   37.9860 H   0  0  0  0  0  0  0  0  0  0  0  0
   40.3200   21.4610   37.5550 H   0  0  0  0  0  0  0  0  0  0  0  0
   40.0530   24.0850   36.0090 H   0  0  0  0  0  0  0  0  0  0  0  0
   41.7400   22.8530   35.6950 C   0  0  2  0  0  3  0  0  0  0  0  0
   42.8200   22.8420   36.7190 C   0  0  0  0  0  3  0  0  0  0  0  0
   43.7990   23.9510   36.7660 C   0  0  0  0  0  3  0  0  0  0  0  0
   43.8170   25.0200   35.7560 C   0  0  0  0  0  2  0  0  0  0  0  0
   42.5820   25.1230   34.8850 C   0  0  0  0  0  2  0  0  0  0  0  0
   42.2380   23.7270   34.5830 C   0  0  0  0  0  2  0  0  0  0  0  0
   38.7230   22.1260   33.9670 S   0  0  0  0  0  0  0  0  0  0  0  0
   37.7560   23.4100   33.3520 C   0  0  0  0  0  0  0  0  0  0  0  0
   36.9620   23.2620   32.6120 H   0  0  0  0  0  0  0  0  0  0  0  0
   37.1170   23.6770   34.2320 H   0  0  0  0  0  0  0  0  0  0  0  0
   38.6910   24.5630   33.1650 C   0  0  0  0  0  0  0  0  0  0  0  0
   39.1410   24.7290   32.2150 H   0  0  0  0  0  0  0  0  0  0  0  0
   39.6070   24.2050   33.7630 H   0  0  0  0  0  0  0  0  0  0  0  0
   38.8030   27.2770   35.6610 C   0  0  0  0  0  0  0  0  0  0  0  0
   39.1310   26.1540   34.9030 C   0  0  0  0  0  0  0  0  0  0  0  0
   38.2680   25.7110   33.9360 C   0  0  0  0  0  0  0  0  0  0  0  0
   37.1030   26.4280   33.7810 N   0  0  0  0  0  0  0  0  0  0  0  0
   36.8170   27.5000   34.5230 C   0  0  0  0  0  0  0  0  0  0  0  0
   37.6430   27.9450   35.4670 N   0  0  0  0  0  0  0  0  0  0  0  0
   39.3990   27.7140   36.4480 H   0  0  0  0  0  0  0  0  0  0  0  0
   40.1010   25.8280   35.2510 H   0  0  0  0  0  0  0  0  0  0  0  0
   35.8710   27.9820   34.3100 H   0  0  0  0  0  0  0  0  0  0  0  0
  1  6  1  0  0  0  0
  1  7  1  1  0  0  0
  1  2  1  0  0  0  0
  2  8  1  0  0  0  0
  2  3  1  0  0  0  0
  3 10  1  0  0  0  0
  3  4  1  0  0  0  0
  4 12  1  0  0  0  0
  4 13  1  0  0  0  0
  5 15  1  0  0  0  0
  5 14  1  0  0  0  0
  5  4  1  0  0  0  0
  6 16  1  6  0  0  0
  6  5  1  0  0  0  0
  9  2  1  0  0  0  0
 11  3  1  0  0  0  0
 17 22  1  6  0  0  0
 17  6  1  0  0  0  0
 17 18  1  0  0  0  0
 18 19  2  0  0  0  0
 20 19  1  0  0  0  0
 21 20  1  0  0  0  0
 22 21  1  0  0  0  0
 23  1  1  0  0  0  0
 24 23  1  0  0  0  0
 24 26  1  0  0  0  0
 25 24  1  0  0  0  0
 27 24  1  0  0  0  0
 27 29  1  0  0  0  0
 27 32  1  0  0  0  0
 28 27  1  0  0  0  0
 30 36  1  0  0  0  0
 31 37  1  0  0  0  0
 31 30  2  0  0  0  0
 32 31  1  0  0  0  0
 33 32  2  0  0  0  0
 33 34  1  0  0  0  0
 34 35  2  0  0  0  0
 35 30  1  0  0  0  0
 38 34  1  0  0  0  0
M  END
>  <minimizedAffinity>
-5.1019311

$$$$

 OpenBabel03272509273D

 38 40  0  0  1  0  0  0  0  0999 V2000
   39.4720   24.0510   36.2940 C   0  0  2  0  0  0  0  0  0  0  0  0
   39.3780   22.9420   37.3430 C   0  0  0  0  0  0  0  0  0  0  0  0
   38.0820   23.0660   38.1410 C   0  0  0  0  0  0  0  0  0  0  0  0
   37.8950   24.4830   38.4510 C   0  0  0  0  0  0  0  0  0  0  0  0
   38.1120   25.4500   37.3370 C   0  0  0  0  0  0  0  0  0  0  0  0
   38.2060   24.6970   36.0120 C   0  0  1  0  0  0  0  0  0  0  0  0
   40.2840   24.7260   36.6630 H   0  0  0  0  0  0  0  0  0  0  0  0
   40.2230   22.9350   38.0310 H   0  0  0  0  0  0  0  0  0  0  0  0
   39.3260   21.9280   36.8990 H   0  0  0  0  0  0  0  0  0  0  0  0
   38.1950   22.4770   39.0620 H   0  0  0  0  0  0  0  0  0  0  0  0
   37.2300   22.5930   37.5910 H   0  0  0  0  0  0  0  0  0  0  0  0
   36.8410   24.5580   38.8660 H   0  0  0  0  0  0  0  0  0  0  0  0
   38.4980   24.6890   39.3740 H   0  0  0  0  0  0  0  0  0  0  0  0
   37.4070   26.2190   37.4670 H   0  0  0  0  0  0  0  0  0  0  0  0
   39.1150   25.9140   37.6130 H   0  0  0  0  0  0  0  0  0  0  0  0
   37.3880   23.9490   36.0300 H   0  0  0  0  0  0  0  0  0  0  0  0
   37.8340   25.8460   35.2110 C   0  0  2  0  0  3  0  0  0  0  0  0
   37.4390   25.7870   33.7770 C   0  0  0  0  0  3  0  0  0  0  0  0
   38.3170   26.3910   32.7500 C   0  0  0  0  0  3  0  0  0  0  0  0
   39.5210   27.1560   33.1030 C   0  0  0  0  0  2  0  0  0  0  0  0
   40.0070   26.9970   34.5280 C   0  0  0  0  0  2  0  0  0  0  0  0
   38.7760   27.0050   35.3310 C   0  0  0  0  0  2  0  0  0  0  0  0
   40.2070   23.2220   34.8870 S   0  0  0  0  0  0  0  0  0  0  0  0
   39.2970   21.9440   34.1790 C   0  0  0  0  0  0  0  0  0  0  0  0
   39.6150   20.8960   34.2020 H   0  0  0  0  0  0  0  0  0  0  0  0
   38.4140   21.8670   34.8630 H   0  0  0  0  0  0  0  0  0  0  0  0
   38.7670   22.4940   32.8920 C   0  0  0  0  0  0  0  0  0  0  0  0
   39.4310   22.6680   32.0800 H   0  0  0  0  0  0  0  0  0  0  0  0
   38.5290   23.5780   33.1950 H   0  0  0  0  0  0  0  0  0  0  0  0
   35.5220   20.8230   33.4310 C   0  0  0  0  0  0  0  0  0  0  0  0
   36.8090   21.3210   33.6260 C   0  0  0  0  0  0  0  0  0  0  0  0
   37.4480   21.9740   32.6050 C   0  0  0  0  0  0  0  0  0  0  0  0
   36.7500   22.0920   31.4240 N   0  0  0  0  0  0  0  0  0  0  0  0
   35.5180   21.6050   31.2680 C   0  0  0  0  0  0  0  0  0  0  0  0
   34.8820   20.9680   32.2480 N   0  0  0  0  0  0  0  0  0  0  0  0
   34.9240   20.2930   34.1560 H   0  0  0  0  0  0  0  0  0  0  0  0
   37.0740   21.0810   34.6460 H   0  0  0  0  0  0  0  0  0  0  0  0
   35.0700   21.7600   30.2940 H   0  0  0  0  0  0  0  0  0  0  0  0
  1  7  1  1  0  0  0
  1  2  1  0  0  0  0
  2  8  1  0  0  0  0
  2  3  1  0  0  0  0
  3  4  1  0  0  0  0
  3 10  1  0  0  0  0
  4 12  1  0  0  0  0
  4 13  1  0  0  0  0
  5 14  1  0  0  0  0
  5 15  1  0  0  0  0
  5  4  1  0  0  0  0
  6 16  1  6  0  0  0
  6  1  1  0  0  0  0
  6  5  1  0  0  0  0
  9  2  1  0  0  0  0
 11  3  1  0  0  0  0
 17 18  1  6  0  0  0
 17 22  1  0  0  0  0
 17  6  1  0  0  0  0
 19 20  1  0  0  0  0
 19 18  2  0  0  0  0
 20 21  1  0  0  0  0
 21 22  1  0  0  0  0
 23  1  1  0  0  0  0
 24 25  1  0  0  0  0
 24 26  1  0  0  0  0
 24 23  1  0  0  0  0
 27 29  1  0  0  0  0
 27 24  1  0  0  0  0
 28 27  1  0  0  0  0
 30 31  1  0  0  0  0
 30 36  1  0  0  0  0
 31 37  1  0  0  0  0
 32 27  1  0  0  0  0
 32 31  2  0  0  0  0
 33 32  1  0  0  0  0
 34 33  2  0  0  0  0
 34 35  1  0  0  0  0
 35 30  2  0  0  0  0
 38 34  1  0  0  0  0
M  END
>  <minimizedAffinity>
-5.02256393

$$$$

 OpenBabel03272509273D

 38 40  0  0  1  0  0  0  0  0999 V2000
   39.2290   25.2460   33.0210 C   0  0  2  0  0  0  0  0  0  0  0  0
   39.8820   25.3670   34.3990 C   0  0  0  0  0  0  0  0  0  0  0  0
   40.2930   26.8120   34.6750 C   0  0  0  0  0  0  0  0  0  0  0  0
   40.9000   27.3330   33.4500 C   0  0  0  0  0  0  0  0  0  0  0  0
   40.1830   27.0530   32.1720 C   0  0  0  0  0  0  0  0  0  0  0  0
   38.7870   26.5120   32.4720 C   0  0  1  0  0  0  0  0  0  0  0  0
   39.9710   24.6870   32.4010 H   0  0  0  0  0  0  0  0  0  0  0  0
   40.7500   24.7190   34.5160 H   0  0  0  0  0  0  0  0  0  0  0  0
   39.1910   25.1190   35.2300 H   0  0  0  0  0  0  0  0  0  0  0  0
   41.0210   26.8040   35.4970 H   0  0  0  0  0  0  0  0  0  0  0  0
   39.4250   27.4070   35.0540 H   0  0  0  0  0  0  0  0  0  0  0  0
   41.0100   28.4490   33.6260 H   0  0  0  0  0  0  0  0  0  0  0  0
   41.9730   27.0110   33.4650 H   0  0  0  0  0  0  0  0  0  0  0  0
   40.3100   27.9030   31.5660 H   0  0  0  0  0  0  0  0  0  0  0  0
   40.8380   26.2480   31.7010 H   0  0  0  0  0  0  0  0  0  0  0  0
   38.3810   27.1530   33.2790 H   0  0  0  0  0  0  0  0  0  0  0  0
   38.2450   26.9020   31.1850 C   0  0  2  0  0  3  0  0  0  0  0  0
   38.7450   28.0370   30.3640 C   0  0  0  0  0  3  0  0  0  0  0  0
   37.8910   29.2290   30.1610 C   0  0  0  0  0  3  0  0  0  0  0  0
   36.5050   29.2880   30.6470 C   0  0  0  0  0  2  0  0  0  0  0  0
   36.1170   28.2310   31.6600 C   0  0  0  0  0  2  0  0  0  0  0  0
   36.7490   27.0020   31.1580 C   0  0  0  0  0  2  0  0  0  0  0  0
   37.9140   24.0610   33.2930 S   0  0  0  0  0  0  0  0  0  0  0  0
   38.3870   22.4280   33.5620 C   0  0  0  0  0  0  0  0  0  0  0  0
   38.5440   21.7080   32.7520 H   0  0  0  0  0  0  0  0  0  0  0  0
   39.4480   22.5350   33.9010 H   0  0  0  0  0  0  0  0  0  0  0  0
   37.6190   21.9830   34.7670 C   0  0  0  0  0  0  0  0  0  0  0  0
   37.1280   21.0390   34.7600 H   0  0  0  0  0  0  0  0  0  0  0  0
   36.7100   22.6860   34.7240 H   0  0  0  0  0  0  0  0  0  0  0  0
   38.0240   23.4480   38.1280 C   0  0  0  0  0  0  0  0  0  0  0  0
   37.4740   23.0370   36.9150 C   0  0  0  0  0  0  0  0  0  0  0  0
   38.2660   22.4130   35.9870 C   0  0  0  0  0  0  0  0  0  0  0  0
   39.5860   22.2320   36.3330 N   0  0  0  0  0  0  0  0  0  0  0  0
   40.0830   22.6370   37.5040 C   0  0  0  0  0  0  0  0  0  0  0  0
   39.3290   23.2450   38.4160 N   0  0  0  0  0  0  0  0  0  0  0  0
   37.5030   23.9490   38.9300 H   0  0  0  0  0  0  0  0  0  0  0  0
   36.4290   23.3080   36.9500 H   0  0  0  0  0  0  0  0  0  0  0  0
   41.1360   22.4400   37.6620 H   0  0  0  0  0  0  0  0  0  0  0  0
  1  7  1  6  0  0  0
  1 23  1  0  0  0  0
  1  2  1  0  0  0  0
  2  8  1  0  0  0  0
  2  3  1  0  0  0  0
  2  9  1  0  0  0  0
  3 11  1  0  0  0  0
  3 10  1  0  0  0  0
  4 13  1  0  0  0  0
  4 12  1  0  0  0  0
  4  3  1  0  0  0  0
  5  6  1  0  0  0  0
  5  4  1  0  0  0  0
  6  1  1  0  0  0  0
  6 16  1  1  0  0  0
 14  5  1  0  0  0  0
 15  5  1  0  0  0  0
 17 18  1  1  0  0  0
 17  6  1  0  0  0  0
 19 18  2  0  0  0  0
 19 20  1  0  0  0  0
 20 21  1  0  0  0  0
 22 17  1  0  0  0  0
 22 21  1  0  0  0  0
 23 24  1  0  0  0  0
 24 26  1  0  0  0  0
 24 27  1  0  0  0  0
 25 24  1  0  0  0  0
 27 32  1  0  0  0  0
 28 27  1  0  0  0  0
 29 27  1  0  0  0  0
 30 35  1  0  0  0  0
 30 36  1  0  0  0  0
 31 37  1  0  0  0  0
 31 30  2  0  0  0  0
 32 33  2  0  0  0  0
 32 31  1  0  0  0  0
 33 34  1  0  0  0  0
 34 38  1  0  0  0  0
 34 35  2  0  0  0  0
M  END
>  <minimizedAffinity>
-4.90766382

$$$$

 OpenBabel03272509273D

 38 40  0  0  1  0  0  0  0  0999 V2000
   36.4300   28.1490   33.9320 C   0  0  2  0  0  0  0  0  0  0  0  0
   37.1960   27.8080   32.6520 C   0  0  0  0  0  0  0  0  0  0  0  0
   36.9870   28.8890   31.5950 C   0  0  0  0  0  0  0  0  0  0  0  0
   35.5680   29.2460   31.6110 C   0  0  0  0  0  0  0  0  0  0  0  0
   34.9440   29.4610   32.9480 C   0  0  0  0  0  0  0  0  0  0  0  0
   36.0310   29.5390   34.0180 C   0  0  1  0  0  0  0  0  0  0  0  0
   35.5960   27.4060   33.9730 H   0  0  0  0  0  0  0  0  0  0  0  0
   36.9160   26.8400   32.2350 H   0  0  0  0  0  0  0  0  0  0  0  0
   38.2940   27.7800   32.7980 H   0  0  0  0  0  0  0  0  0  0  0  0
   37.2710   28.4680   30.6210 H   0  0  0  0  0  0  0  0  0  0  0  0
   37.6850   29.7480   31.7610 H   0  0  0  0  0  0  0  0  0  0  0  0
   35.4900   30.1750   30.9640 H   0  0  0  0  0  0  0  0  0  0  0  0
   35.0440   28.4950   30.9650 H   0  0  0  0  0  0  0  0  0  0  0  0
   34.2490   30.2410   32.8320 H   0  0  0  0  0  0  0  0  0  0  0  0
   34.3170   28.5180   33.0750 H   0  0  0  0  0  0  0  0  0  0  0  0
   36.8240   30.1880   33.5970 H   0  0  0  0  0  0  0  0  0  0  0  0
   35.2050   30.2790   34.9520 C   0  0  2  0  0  3  0  0  0  0  0  0
   33.9420   30.9800   34.5950 C   0  0  0  0  0  3  0  0  0  0  0  0
   33.8830   32.4580   34.6460 C   0  0  0  0  0  3  0  0  0  0  0  0
   35.0010   33.2670   35.1520 C   0  0  0  0  0  2  0  0  0  0  0  0
   36.3270   32.5480   35.2830 C   0  0  0  0  0  2  0  0  0  0  0  0
   35.9700   31.2290   35.8240 C   0  0  0  0  0  2  0  0  0  0  0  0
   37.5440   27.6200   35.2300 S   0  0  0  0  0  0  0  0  0  0  0  0
   38.4780   26.2080   34.9210 C   0  0  0  0  0  0  0  0  0  0  0  0
   38.7920   25.9030   33.9160 H   0  0  0  0  0  0  0  0  0  0  0  0
   39.4810   26.4850   35.3330 H   0  0  0  0  0  0  0  0  0  0  0  0
   37.9360   25.1600   35.8410 C   0  0  0  0  0  0  0  0  0  0  0  0
   36.9390   24.8120   35.7150 H   0  0  0  0  0  0  0  0  0  0  0  0
   37.8200   25.7590   36.8160 H   0  0  0  0  0  0  0  0  0  0  0  0
   41.0170   23.1430   35.6070 C   0  0  0  0  0  0  0  0  0  0  0  0
   39.9790   24.0250   35.3070 C   0  0  0  0  0  0  0  0  0  0  0  0
   38.9590   24.2040   36.2040 C   0  0  0  0  0  0  0  0  0  0  0  0
   39.0370   23.4780   37.3710 N   0  0  0  0  0  0  0  0  0  0  0  0
   40.0450   22.6420   37.6300 C   0  0  0  0  0  0  0  0  0  0  0  0
   41.0430   22.4550   36.7700 N   0  0  0  0  0  0  0  0  0  0  0  0
   41.8670   22.9200   34.9810 H   0  0  0  0  0  0  0  0  0  0  0  0
   40.2080   24.4420   34.3370 H   0  0  0  0  0  0  0  0  0  0  0  0
   39.9970   22.1260   38.5810 H   0  0  0  0  0  0  0  0  0  0  0  0
  1  7  1  1  0  0  0
  1  6  1  0  0  0  0
  1 23  1  0  0  0  0
  2  9  1  0  0  0  0
  2  1  1  0  0  0  0
  3  4  1  0  0  0  0
  3 11  1  0  0  0  0
  3  2  1  0  0  0  0
  4  5  1  0  0  0  0
  5 15  1  0  0  0  0
  5  6  1  0  0  0  0
  6 16  1  6  0  0  0
  6 17  1  0  0  0  0
  8  2  1  0  0  0  0
 10  3  1  0  0  0  0
 12  4  1  0  0  0  0
 13  4  1  0  0  0  0
 14  5  1  0  0  0  0
 17 18  1  6  0  0  0
 17 22  1  0  0  0  0
 18 19  2  0  0  0  0
 19 20  1  0  0  0  0
 20 21  1  0  0  0  0
 21 22  1  0  0  0  0
 24 23  1  0  0  0  0
 24 26  1  0  0  0  0
 24 27  1  0  0  0  0
 25 24  1  0  0  0  0
 27 32  1  0  0  0  0
 27 29  1  0  0  0  0
 28 27  1  0  0  0  0
 30 35  1  0  0  0  0
 31 30  2  0  0  0  0
 31 32  1  0  0  0  0
 32 33  2  0  0  0  0
 33 34  1  0  0  0  0
 34 38  1  0  0  0  0
 35 34  2  0  0  0  0
 36 30  1  0  0  0  0
 37 31  1  0  0  0  0
M  END
>  <minimizedAffinity>
-4.86622953

$$$$

 OpenBabel03272509273D

 38 40  0  0  1  0  0  0  0  0999 V2000
   38.0990   24.0510   33.0570 C   0  0  2  0  0  0  0  0  0  0  0  0
   37.3040   23.0790   32.1840 C   0  0  0  0  0  0  0  0  0  0  0  0
   37.3010   21.6820   32.8000 C   0  0  0  0  0  0  0  0  0  0  0  0
   38.6580   21.4110   33.2730 C   0  0  0  0  0  0  0  0  0  0  0  0
   39.3340   22.4990   34.0370 C   0  0  0  0  0  0  0  0  0  0  0  0
   38.3170   23.5770   34.4090 C   0  0  1  0  0  0  0  0  0  0  0  0
   39.0240   24.2730   32.4700 H   0  0  0  0  0  0  0  0  0  0  0  0
   37.6820   23.0200   31.1630 H   0  0  0  0  0  0  0  0  0  0  0  0
   36.2300   23.3440   32.1060 H   0  0  0  0  0  0  0  0  0  0  0  0
   37.0120   20.9690   32.0160 H   0  0  0  0  0  0  0  0  0  0  0  0
   36.5080   21.5960   33.5840 H   0  0  0  0  0  0  0  0  0  0  0  0
   38.5730   20.4630   33.8900 H   0  0  0  0  0  0  0  0  0  0  0  0
   39.2340   21.0340   32.3880 H   0  0  0  0  0  0  0  0  0  0  0  0
   39.9120   22.0290   34.7790 H   0  0  0  0  0  0  0  0  0  0  0  0
   40.0860   22.8950   33.2780 H   0  0  0  0  0  0  0  0  0  0  0  0
   37.4200   23.0350   34.7680 H   0  0  0  0  0  0  0  0  0  0  0  0
   39.0970   24.0770   35.5240 C   0  0  2  0  0  3  0  0  0  0  0  0
   40.1320   23.2940   36.2510 C   0  0  0  0  0  3  0  0  0  0  0  0
   39.8990   22.8990   37.6590 C   0  0  0  0  0  3  0  0  0  0  0  0
   38.7210   23.3520   38.4120 C   0  0  0  0  0  2  0  0  0  0  0  0
   37.5970   23.9390   37.5850 C   0  0  0  0  0  2  0  0  0  0  0  0
   38.2830   24.7630   36.5790 C   0  0  0  0  0  2  0  0  0  0  0  0
   37.1490   25.5660   32.9530 S   0  0  0  0  0  0  0  0  0  0  0  0
   37.8920   26.9900   33.5730 C   0  0  0  0  0  0  0  0  0  0  0  0
   38.9360   27.0290   33.9000 H   0  0  0  0  0  0  0  0  0  0  0  0
   37.9770   27.6360   32.6620 H   0  0  0  0  0  0  0  0  0  0  0  0
   36.8560   27.6390   34.4360 C   0  0  0  0  0  0  0  0  0  0  0  0
   37.0290   27.7440   35.4800 H   0  0  0  0  0  0  0  0  0  0  0  0
   36.0370   26.8310   34.4460 H   0  0  0  0  0  0  0  0  0  0  0  0
   35.0090   30.7880   33.9020 C   0  0  0  0  0  0  0  0  0  0  0  0
   35.6340   29.7000   34.5090 C   0  0  0  0  0  0  0  0  0  0  0  0
   36.1940   28.7180   33.7360 C   0  0  0  0  0  0  0  0  0  0  0  0
   36.0940   28.8830   32.3730 N   0  0  0  0  0  0  0  0  0  0  0  0
   35.4900   29.9370   31.8200 C   0  0  0  0  0  0  0  0  0  0  0  0
   34.9400   30.9000   32.5560 N   0  0  0  0  0  0  0  0  0  0  0  0
   34.5330   31.6160   34.4040 H   0  0  0  0  0  0  0  0  0  0  0  0
   35.5560   29.8640   35.5750 H   0  0  0  0  0  0  0  0  0  0  0  0
   35.4740   29.9570   30.7370 H   0  0  0  0  0  0  0  0  0  0  0  0
  1  7  1  6  0  0  0
  1  6  1  0  0  0  0
  2  3  1  0  0  0  0
  2  1  1  0  0  0  0
  3  4  1  0  0  0  0
  3 11  1  0  0  0  0
  4 12  1  0  0  0  0
  4  5  1  0  0  0  0
  5  6  1  0  0  0  0
  5 14  1  0  0  0  0
  6 16  1  1  0  0  0
  6 17  1  0  0  0  0
  8  2  1  0  0  0  0
  9  2  1  0  0  0  0
 10  3  1  0  0  0  0
 13  4  1  0  0  0  0
 15  5  1  0  0  0  0
 17 18  1  1  0  0  0
 17 22  1  0  0  0  0
 18 19  2  0  0  0  0
 19 20  1  0  0  0  0
 21 20  1  0  0  0  0
 22 21  1  0  0  0  0
 23  1  1  0  0  0  0
 23 24  1  0  0  0  0
 24 25  1  0  0  0  0
 24 27  1  0  0  0  0
 26 24  1  0  0  0  0
 27 29  1  0  0  0  0
 27 28  1  0  0  0  0
 30 36  1  0  0  0  0
 30 31  1  0  0  0  0
 31 37  1  0  0  0  0
 32 27  1  0  0  0  0
 32 31  2  0  0  0  0
 33 32  1  0  0  0  0
 34 33  2  0  0  0  0
 34 35  1  0  0  0  0
 35 30  2  0  0  0  0
 38 34  1  0  0  0  0
M  END
>  <minimizedAffinity>
-4.83340883

$$$$
