
 OpenBabel03262520443D

 25 27  0  0  1  0  0  0  0  0999 V2000
   38.7970   31.8450   48.5040 C   0  0  1  0  0  0  0  0  0  0  0  0
   38.5900   33.1970   49.1860 C   0  0  0  0  0  0  0  0  0  0  0  0
   37.4450   32.3130   48.8630 C   0  0  2  0  0  0  0  0  0  0  0  0
   39.2100   31.0020   49.0760 H   0  0  0  0  0  0  0  0  0  0  0  0
   38.7820   34.1180   48.6300 H   0  0  0  0  0  0  0  0  0  0  0  0
   38.8870   33.2420   50.2680 H   0  0  0  0  0  0  0  0  0  0  0  0
   36.8530   32.6540   47.9640 H   0  0  0  0  0  0  0  0  0  0  0  0
   36.6840   31.6630   49.9910 C   0  0  0  0  0  0  0  0  0  0  0  0
   35.4100   31.0790   49.4260 C   0  0  0  0  0  0  0  0  0  0  0  0
   35.7680   29.8340   48.6610 C   0  0  0  0  0  0  0  0  0  0  0  0
   36.1900   28.8330   49.7230 C   0  0  0  0  0  0  0  0  0  0  0  0
   37.4210   29.2740   50.4560 C   0  0  0  0  0  0  0  0  0  0  0  0
   37.4910   30.7080   50.7930 C   0  0  0  0  0  0  0  0  0  0  0  0
   39.3390   31.9690   47.1110 C   0  0  0  0  0  0  0  0  0  0  0  0
   39.8200   32.9490   46.9320 H   0  0  0  0  0  0  0  0  0  0  0  0
   40.1520   31.2110   47.0110 H   0  0  0  0  0  0  0  0  0  0  0  0
   37.2000   32.2640   44.0440 C   0  0  0  0  0  0  0  0  0  0  0  0
   38.1750   32.5460   45.0380 C   0  0  0  0  0  0  0  0  0  0  0  0
   38.3160   31.6440   46.0940 C   0  0  0  0  0  0  0  0  0  0  0  0
   37.5300   30.5610   46.1210 N   0  0  0  0  0  0  0  0  0  0  0  0
   36.6060   30.3120   45.1630 C   0  0  0  0  0  0  0  0  0  0  0  0
   36.4540   31.1760   44.1270 N   0  0  0  0  0  0  0  0  0  0  0  0
   37.0520   32.9310   43.2060 H   0  0  0  0  0  0  0  0  0  0  0  0
   38.7440   33.4580   44.8950 H   0  0  0  0  0  0  0  0  0  0  0  0
   35.9860   29.4330   45.2070 H   0  0  0  0  0  0  0  0  0  0  0  0
  1  3  1  0  0  0  0
  1  4  1  1  0  0  0
  1  2  1  0  0  0  0
  2  6  1  0  0  0  0
  3  7  1  6  0  0  0
  3  2  1  0  0  0  0
  3  8  1  0  0  0  0
  5  2  1  0  0  0  0
  8 13  1  0  0  0  0
  9  8  1  0  0  0  0
 10  9  1  0  0  0  0
 10 11  1  0  0  0  0
 11 12  1  0  0  0  0
 12 13  1  0  0  0  0
 14  1  1  0  0  0  0
 15 14  1  0  0  0  0
 16 14  1  0  0  0  0
 17 22  2  0  0  0  0
 17 18  1  0  0  0  0
 18 19  2  0  0  0  0
 19 20  1  0  0  0  0
 19 14  1  0  0  0  0
 21 25  1  0  0  0  0
 21 20  2  0  0  0  0
 22 21  1  0  0  0  0
 23 17  1  0  0  0  0
 24 18  1  0  0  0  0
M  END
>  <minimizedAffinity>
-5.58843803

>  <minimizedRMSD>
5.73736525

$$$$
