
 OpenBabel03272505173D

 39 42  0  0  1  0  0  0  0  0999 V2000
   36.2850   30.8050   44.1670 N   0  0  0  0  0  0  0  0  0  0  0  0
   35.7590   31.9640   43.4240 C   0  0  0  0  0  0  0  0  0  0  0  0
   36.8410   32.4020   42.4790 C   0  0  0  0  0  0  0  0  0  0  0  0
   37.2920   31.2950   41.7570 N   0  0  0  0  0  0  0  0  0  0  0  0
   37.9070   30.2760   42.5330 C   0  0  0  0  0  0  0  0  0  0  0  0
   37.6590   30.4980   44.0060 C   0  0  1  0  0  0  0  0  0  0  0  0
   34.8280   31.7320   42.8940 H   0  0  0  0  0  0  0  0  0  0  0  0
   35.6140   32.7660   44.1840 H   0  0  0  0  0  0  0  0  0  0  0  0
   37.5930   33.0590   42.9370 H   0  0  0  0  0  0  0  0  0  0  0  0
   36.3100   33.0550   41.7480 H   0  0  0  0  0  0  0  0  0  0  0  0
   37.7600   31.4900   40.8490 H   0  0  0  0  0  0  0  0  0  0  0  0
   38.9350   30.0030   42.2770 H   0  0  0  0  0  0  0  0  0  0  0  0
   37.3170   29.3400   42.2520 H   0  0  0  0  0  0  0  0  0  0  0  0
   37.7620   29.3890   44.3820 H   0  0  0  0  0  0  0  0  0  0  0  0
   36.7120   31.1090   47.0670 Cl  0  0  0  0  0  0  0  0  0  0  0  0
   35.5840   29.9930   46.3740 C   0  0  0  0  0  0  0  0  0  0  0  0
   34.8440   29.2000   47.1820 C   0  0  0  0  0  0  0  0  0  0  0  0
   33.9340   28.3600   46.5390 C   0  0  0  0  0  0  0  0  0  0  0  0
   33.7570   28.2980   45.1870 C   0  0  0  0  0  0  0  0  0  0  0  0
   34.5340   29.1240   44.4050 C   0  0  0  0  0  0  0  0  0  0  0  0
   35.4670   29.9880   45.0000 C   0  0  0  0  0  0  0  0  0  0  0  0
   33.3150   27.7040   47.1500 H   0  0  0  0  0  0  0  0  0  0  0  0
   33.0250   27.6190   44.7540 H   0  0  0  0  0  0  0  0  0  0  0  0
   34.4240   29.1030   43.3420 H   0  0  0  0  0  0  0  0  0  0  0  0
   36.4540   29.2010   50.5810 C   0  0  0  0  0  0  0  0  0  0  0  0
   36.2990   29.1430   49.1890 C   0  0  0  0  0  0  0  0  0  0  0  0
   35.0230   29.2430   48.6100 C   0  0  0  0  0  0  0  0  0  0  0  0
   33.9540   29.3950   49.4590 N   0  0  0  0  0  0  0  0  0  0  0  0
   34.1320   29.4480   50.7950 C   0  0  0  0  0  0  0  0  0  0  0  0
   35.3620   29.3540   51.3650 N   0  0  0  0  0  0  0  0  0  0  0  0
   37.3920   29.1340   51.1080 H   0  0  0  0  0  0  0  0  0  0  0  0
   37.2500   28.9890   48.7230 H   0  0  0  0  0  0  0  0  0  0  0  0
   33.1810   29.5700   51.2970 H   0  0  0  0  0  0  0  0  0  0  0  0
   38.7190   31.1570   44.7810 C   0  0  0  0  0  0  0  0  0  0  0  0
   38.7780   32.6950   44.5570 C   0  0  0  0  0  0  0  0  0  0  0  0
   39.7300   33.2420   45.6000 C   0  0  0  0  0  0  0  0  0  0  0  0
   41.1110   32.7740   45.3070 C   0  0  0  0  0  0  0  0  0  0  0  0
   41.1430   31.2640   45.1850 C   0  0  0  0  0  0  0  0  0  0  0  0
   40.1260   30.8360   44.1830 C   0  0  0  0  0  0  0  0  0  0  0  0
  1 21  1  0  0  0  0
  2  1  1  0  0  0  0
  2  8  1  0  0  0  0
  3  9  1  0  0  0  0
  3  2  1  0  0  0  0
  4  3  1  0  0  0  0
  4  5  1  0  0  0  0
  5  6  1  0  0  0  0
  6  1  1  0  0  0  0
  6 14  1  1  0  0  0
  6 34  1  0  0  0  0
  7  2  1  0  0  0  0
 10  3  1  0  0  0  0
 11  4  1  0  0  0  0
 12  5  1  0  0  0  0
 13  5  1  0  0  0  0
 16 15  1  0  0  0  0
 16 17  1  0  0  0  0
 17 27  1  0  0  0  0
 18 22  1  0  0  0  0
 18 17  2  0  0  0  0
 19 18  1  0  0  0  0
 20 21  1  0  0  0  0
 20 19  2  0  0  0  0
 21 16  2  0  0  0  0
 23 19  1  0  0  0  0
 24 20  1  0  0  0  0
 25 31  1  0  0  0  0
 25 30  1  0  0  0  0
 26 25  2  0  0  0  0
 27 26  1  0  0  0  0
 27 28  2  0  0  0  0
 28 29  1  0  0  0  0
 29 33  1  0  0  0  0
 29 30  2  0  0  0  0
 32 26  1  0  0  0  0
 35 34  1  0  0  0  0
 35 36  1  0  0  0  0
 37 36  1  0  0  0  0
 38 37  1  0  0  0  0
 39 34  1  0  0  0  0
 39 38  1  0  0  0  0
M  END
>  <minimizedAffinity>
-5.18334484

>  <minimizedRMSD>
2.26951456

$$$$
