
 OpenBabel03262520203D

 18 19  0  0  1  0  0  0  0  0999 V2000
   39.6180   23.4050   34.9860 C   0  0  0  0  0  0  0  0  0  0  0  0
   39.3980   23.1960   36.3800 C   0  0  0  0  0  0  0  0  0  0  0  0
   38.4930   24.0460   37.0160 C   0  0  0  0  0  0  0  0  0  0  0  0
   37.8810   25.0140   36.2700 N   0  0  0  0  0  0  0  0  0  0  0  0
   38.1140   25.1830   34.9500 C   0  0  0  0  0  0  0  0  0  0  0  0
   38.9800   24.3750   34.3300 N   0  0  0  0  0  0  0  0  0  0  0  0
   40.3110   22.7750   34.4420 H   0  0  0  0  0  0  0  0  0  0  0  0
   39.9210   22.4060   36.9010 H   0  0  0  0  0  0  0  0  0  0  0  0
   37.4050   26.2500   34.2520 C   0  0  1  0  0  3  0  0  0  0  0  0
   37.4380   27.5730   35.0240 C   0  0  0  0  0  2  0  0  0  0  0  0
   36.2650   28.3490   34.4340 C   0  0  0  0  0  2  0  0  0  0  0  0
   36.4210   28.5930   32.9740 C   0  0  0  0  0  3  0  0  0  0  0  0
   37.1510   27.5840   32.1870 C   0  0  0  0  0  3  0  0  0  0  0  0
   37.9530   26.5680   32.8960 C   0  0  0  0  0  2  0  0  0  0  0  0
   38.2250   23.8730   38.4650 C   0  0  0  0  0  0  0  0  0  0  0  0
   39.4190   23.4790   39.0120 F   0  0  0  0  0  0  0  0  0  0  0  0
   37.8250   25.0450   39.0840 F   0  0  0  0  0  0  0  0  0  0  0  0
   37.2860   22.8850   38.7080 F   0  0  0  0  0  0  0  0  0  0  0  0
  1  2  1  0  0  0  0
  2  8  1  0  0  0  0
  2  3  2  0  0  0  0
  3 15  1  0  0  0  0
  4  3  1  0  0  0  0
  5  4  2  0  0  0  0
  6  5  1  0  0  0  0
  6  1  2  0  0  0  0
  7  1  1  0  0  0  0
  9  5  1  1  0  0  0
  9 10  1  0  0  0  0
 11 10  1  0  0  0  0
 12 11  1  0  0  0  0
 13 14  1  0  0  0  0
 13 12  2  0  0  0  0
 14  9  1  0  0  0  0
 15 18  1  0  0  0  0
 15 16  1  0  0  0  0
 15 17  1  0  0  0  0
M  END
>  <minimizedAffinity>
-5.28120661

$$$$

 OpenBabel03262520203D

 18 19  0  0  1  0  0  0  0  0999 V2000
   39.8150   23.7770   34.3580 C   0  0  0  0  0  0  0  0  0  0  0  0
   39.6020   23.9510   35.7570 C   0  0  0  0  0  0  0  0  0  0  0  0
   38.5080   23.2930   36.3200 C   0  0  0  0  0  0  0  0  0  0  0  0
   37.7200   22.5320   35.5040 N   0  0  0  0  0  0  0  0  0  0  0  0
   37.9530   22.3900   34.1810 C   0  0  0  0  0  0  0  0  0  0  0  0
   38.9970   23.0160   33.6300 N   0  0  0  0  0  0  0  0  0  0  0  0
   40.6490   24.2650   33.8670 H   0  0  0  0  0  0  0  0  0  0  0  0
   40.2720   24.5710   36.3370 H   0  0  0  0  0  0  0  0  0  0  0  0
   37.0450   21.5530   33.4030 C   0  0  1  0  0  3  0  0  0  0  0  0
   35.9600   20.9090   34.2710 C   0  0  0  0  0  2  0  0  0  0  0  0
   35.4890   19.7320   33.4230 C   0  0  0  0  0  2  0  0  0  0  0  0
   34.9250   20.1620   32.1150 C   0  0  0  0  0  3  0  0  0  0  0  0
   35.4780   21.3820   31.5010 C   0  0  0  0  0  3  0  0  0  0  0  0
   36.3100   22.2820   32.3230 C   0  0  0  0  0  2  0  0  0  0  0  0
   38.2390   23.4390   37.7720 C   0  0  0  0  0  0  0  0  0  0  0  0
   37.9710   24.7700   37.9630 F   0  0  0  0  0  0  0  0  0  0  0  0
   37.1440   22.7070   38.1950 F   0  0  0  0  0  0  0  0  0  0  0  0
   39.3390   23.1000   38.5440 F   0  0  0  0  0  0  0  0  0  0  0  0
  1  2  1  0  0  0  0
  2  3  2  0  0  0  0
  2  8  1  0  0  0  0
  3 15  1  0  0  0  0
  4  3  1  0  0  0  0
  5  4  2  0  0  0  0
  6  5  1  0  0  0  0
  6  1  2  0  0  0  0
  7  1  1  0  0  0  0
  9  5  1  1  0  0  0
  9 10  1  0  0  0  0
 11 10  1  0  0  0  0
 12 11  1  0  0  0  0
 13 12  2  0  0  0  0
 13 14  1  0  0  0  0
 14  9  1  0  0  0  0
 15 16  1  0  0  0  0
 15 17  1  0  0  0  0
 15 18  1  0  0  0  0
M  END
>  <minimizedAffinity>
-5.06587505

$$$$

 OpenBabel03262520203D

 18 19  0  0  1  0  0  0  0  0999 V2000
   38.1440   23.8170   38.4830 C   0  0  0  0  0  0  0  0  0  0  0  0
   39.3010   22.9990   38.3210 C   0  0  0  0  0  0  0  0  0  0  0  0
   39.9680   23.0770   37.0980 C   0  0  0  0  0  0  0  0  0  0  0  0
   39.4760   23.9230   36.1450 N   0  0  0  0  0  0  0  0  0  0  0  0
   38.3760   24.6830   36.3340 C   0  0  0  0  0  0  0  0  0  0  0  0
   37.7270   24.6170   37.5010 N   0  0  0  0  0  0  0  0  0  0  0  0
   37.5850   23.7970   39.4110 H   0  0  0  0  0  0  0  0  0  0  0  0
   39.6280   22.3550   39.1240 H   0  0  0  0  0  0  0  0  0  0  0  0
   37.9380   25.5520   35.2460 C   0  0  1  0  0  3  0  0  0  0  0  0
   37.9810   27.0340   35.6300 C   0  0  0  0  0  2  0  0  0  0  0  0
   37.0360   27.6820   34.6230 C   0  0  0  0  0  2  0  0  0  0  0  0
   37.4870   27.4940   33.2170 C   0  0  0  0  0  3  0  0  0  0  0  0
   38.2260   26.2610   32.8970 C   0  0  0  0  0  3  0  0  0  0  0  0
   38.7600   25.4400   34.0010 C   0  0  0  0  0  2  0  0  0  0  0  0
   41.1790   22.2490   36.8750 C   0  0  0  0  0  0  0  0  0  0  0  0
   42.2280   23.1320   36.8600 F   0  0  0  0  0  0  0  0  0  0  0  0
   41.3960   21.3280   37.8850 F   0  0  0  0  0  0  0  0  0  0  0  0
   41.1450   21.5900   35.6570 F   0  0  0  0  0  0  0  0  0  0  0  0
  1  7  1  0  0  0  0
  2  1  1  0  0  0  0
  2  8  1  0  0  0  0
  3  2  2  0  0  0  0
  4  5  2  0  0  0  0
  4  3  1  0  0  0  0
  5  6  1  0  0  0  0
  6  1  2  0  0  0  0
  9 10  1  0  0  0  0
  9  5  1  1  0  0  0
 11 10  1  0  0  0  0
 12 11  1  0  0  0  0
 13 12  2  0  0  0  0
 13 14  1  0  0  0  0
 14  9  1  0  0  0  0
 15  3  1  0  0  0  0
 15 17  1  0  0  0  0
 16 15  1  0  0  0  0
 18 15  1  0  0  0  0
M  END
>  <minimizedAffinity>
-4.87468958

$$$$

 OpenBabel03262520203D

 18 19  0  0  1  0  0  0  0  0999 V2000
   38.1010   22.4640   34.7890 C   0  0  0  0  0  0  0  0  0  0  0  0
   37.8070   22.5350   36.1840 C   0  0  0  0  0  0  0  0  0  0  0  0
   38.4850   23.5000   36.9280 C   0  0  0  0  0  0  0  0  0  0  0  0
   39.3770   24.3070   36.2810 N   0  0  0  0  0  0  0  0  0  0  0  0
   39.6310   24.2110   34.9580 C   0  0  0  0  0  0  0  0  0  0  0  0
   38.9880   23.2900   34.2340 N   0  0  0  0  0  0  0  0  0  0  0  0
   37.6050   21.7330   34.1620 H   0  0  0  0  0  0  0  0  0  0  0  0
   37.0850   21.8590   36.6220 H   0  0  0  0  0  0  0  0  0  0  0  0
   40.6050   25.1250   34.3700 C   0  0  1  0  0  3  0  0  0  0  0  0
   40.2290   26.5940   34.5860 C   0  0  0  0  0  2  0  0  0  0  0  0
   41.0240   27.3200   33.5050 C   0  0  0  0  0  2  0  0  0  0  0  0
   42.4930   27.1290   33.6540 C   0  0  0  0  0  3  0  0  0  0  0  0
   42.9610   25.8580   34.2340 C   0  0  0  0  0  3  0  0  0  0  0  0
   41.9890   24.9840   34.9200 C   0  0  0  0  0  2  0  0  0  0  0  0
   38.2170   23.6190   38.3830 C   0  0  0  0  0  0  0  0  0  0  0  0
   37.7580   24.8980   38.5670 F   0  0  0  0  0  0  0  0  0  0  0  0
   37.2470   22.7370   38.8270 F   0  0  0  0  0  0  0  0  0  0  0  0
   39.3640   23.4530   39.1410 F   0  0  0  0  0  0  0  0  0  0  0  0
  1  2  1  0  0  0  0
  2  8  1  0  0  0  0
  2  3  2  0  0  0  0
  3 15  1  0  0  0  0
  4  3  1  0  0  0  0
  5  4  2  0  0  0  0
  6  1  2  0  0  0  0
  6  5  1  0  0  0  0
  7  1  1  0  0  0  0
  9 10  1  0  0  0  0
  9 14  1  0  0  0  0
  9  5  1  1  0  0  0
 11 12  1  0  0  0  0
 11 10  1  0  0  0  0
 12 13  2  0  0  0  0
 13 14  1  0  0  0  0
 15 16  1  0  0  0  0
 15 17  1  0  0  0  0
 15 18  1  0  0  0  0
M  END
>  <minimizedAffinity>
-4.8118782

$$$$

 OpenBabel03262520203D

 18 19  0  0  1  0  0  0  0  0999 V2000
   37.6360   23.9220   32.5690 C   0  0  0  0  0  0  0  0  0  0  0  0
   37.1630   25.2300   32.2510 C   0  0  0  0  0  0  0  0  0  0  0  0
   37.1790   26.1780   33.2750 C   0  0  0  0  0  0  0  0  0  0  0  0
   37.6410   25.7960   34.5030 N   0  0  0  0  0  0  0  0  0  0  0  0
   38.0820   24.5470   34.7670 C   0  0  0  0  0  0  0  0  0  0  0  0
   38.0710   23.6300   33.7950 N   0  0  0  0  0  0  0  0  0  0  0  0
   37.6460   23.1460   31.8120 H   0  0  0  0  0  0  0  0  0  0  0  0
   36.8130   25.4550   31.2530 H   0  0  0  0  0  0  0  0  0  0  0  0
   38.5530   24.2490   36.1160 C   0  0  1  0  0  3  0  0  0  0  0  0
   37.4010   24.0250   37.0990 C   0  0  0  0  0  2  0  0  0  0  0  0
   38.0540   24.2550   38.4590 C   0  0  0  0  0  2  0  0  0  0  0  0
   39.1620   23.2980   38.7270 C   0  0  0  0  0  3  0  0  0  0  0  0
   39.9360   22.8100   37.5720 C   0  0  0  0  0  3  0  0  0  0  0  0
   39.4030   23.0210   36.2120 C   0  0  0  0  0  2  0  0  0  0  0  0
   36.6990   27.5550   33.0000 C   0  0  0  0  0  0  0  0  0  0  0  0
   37.7220   28.1700   32.3240 F   0  0  0  0  0  0  0  0  0  0  0  0
   35.5680   27.5840   32.2040 F   0  0  0  0  0  0  0  0  0  0  0  0
   36.4560   28.2650   34.1640 F   0  0  0  0  0  0  0  0  0  0  0  0
  1  6  1  0  0  0  0
  2  1  2  0  0  0  0
  2  3  1  0  0  0  0
  3  4  2  0  0  0  0
  4  5  1  0  0  0  0
  6  5  2  0  0  0  0
  7  1  1  0  0  0  0
  8  2  1  0  0  0  0
  9  5  1  6  0  0  0
  9 14  1  0  0  0  0
  9 10  1  0  0  0  0
 10 11  1  0  0  0  0
 11 12  1  0  0  0  0
 13 12  2  0  0  0  0
 14 13  1  0  0  0  0
 15  3  1  0  0  0  0
 15 18  1  0  0  0  0
 16 15  1  0  0  0  0
 17 15  1  0  0  0  0
M  END
>  <minimizedAffinity>
-4.74577713

$$$$

 OpenBabel03262520203D

 18 19  0  0  1  0  0  0  0  0999 V2000
   37.5650   23.5920   32.2430 C   0  0  0  0  0  0  0  0  0  0  0  0
   36.8260   22.3980   31.9930 C   0  0  0  0  0  0  0  0  0  0  0  0
   36.6930   21.4990   33.0510 C   0  0  0  0  0  0  0  0  0  0  0  0
   37.2720   21.8170   34.2470 N   0  0  0  0  0  0  0  0  0  0  0  0
   37.9650   22.9590   34.4480 C   0  0  0  0  0  0  0  0  0  0  0  0
   38.1010   23.8280   33.4420 N   0  0  0  0  0  0  0  0  0  0  0  0
   37.7010   24.3260   31.4570 H   0  0  0  0  0  0  0  0  0  0  0  0
   36.3970   22.2180   31.0170 H   0  0  0  0  0  0  0  0  0  0  0  0
   38.5430   23.1960   35.7670 C   0  0  1  0  0  3  0  0  0  0  0  0
   37.4950   23.1320   36.8820 C   0  0  0  0  0  2  0  0  0  0  0  0
   38.1560   23.8930   38.0260 C   0  0  0  0  0  2  0  0  0  0  0  0
   39.4290   23.2610   38.4690 C   0  0  0  0  0  3  0  0  0  0  0  0
   40.2250   22.5470   37.4560 C   0  0  0  0  0  3  0  0  0  0  0  0
   39.6020   22.2150   36.1600 C   0  0  0  0  0  2  0  0  0  0  0  0
   35.9340   20.2410   32.8470 C   0  0  0  0  0  0  0  0  0  0  0  0
   36.8440   19.3410   32.3530 F   0  0  0  0  0  0  0  0  0  0  0  0
   35.4060   19.7310   34.0200 F   0  0  0  0  0  0  0  0  0  0  0  0
   34.9180   20.3890   31.9170 F   0  0  0  0  0  0  0  0  0  0  0  0
  1  6  1  0  0  0  0
  2  1  2  0  0  0  0
  2  3  1  0  0  0  0
  3  4  2  0  0  0  0
  4  5  1  0  0  0  0
  6  5  2  0  0  0  0
  7  1  1  0  0  0  0
  8  2  1  0  0  0  0
  9  5  1  6  0  0  0
  9 14  1  0  0  0  0
  9 10  1  0  0  0  0
 10 11  1  0  0  0  0
 11 12  1  0  0  0  0
 13 12  2  0  0  0  0
 14 13  1  0  0  0  0
 15  3  1  0  0  0  0
 15 17  1  0  0  0  0
 16 15  1  0  0  0  0
 18 15  1  0  0  0  0
M  END
>  <minimizedAffinity>
-4.74086761

$$$$

 OpenBabel03262520203D

 18 19  0  0  1  0  0  0  0  0999 V2000
   37.0590   27.8350   34.5610 C   0  0  0  0  0  0  0  0  0  0  0  0
   36.6910   27.3250   33.2800 C   0  0  0  0  0  0  0  0  0  0  0  0
   36.9890   25.9880   33.0190 C   0  0  0  0  0  0  0  0  0  0  0  0
   37.6080   25.2600   33.9960 N   0  0  0  0  0  0  0  0  0  0  0  0
   37.9420   25.7770   35.1980 C   0  0  0  0  0  0  0  0  0  0  0  0
   37.6620   27.0570   35.4600 N   0  0  0  0  0  0  0  0  0  0  0  0
   36.8530   28.8670   34.8180 H   0  0  0  0  0  0  0  0  0  0  0  0
   36.2030   27.9660   32.5600 H   0  0  0  0  0  0  0  0  0  0  0  0
   38.6010   24.9080   36.1680 C   0  0  1  0  0  3  0  0  0  0  0  0
   37.6000   24.1170   37.0150 C   0  0  0  0  0  2  0  0  0  0  0  0
   38.4190   23.7180   38.2390 C   0  0  0  0  0  2  0  0  0  0  0  0
   39.5910   22.8700   37.8890 C   0  0  0  0  0  3  0  0  0  0  0  0
   40.2230   23.0890   36.5760 C   0  0  0  0  0  3  0  0  0  0  0  0
   39.5050   23.8820   35.5590 C   0  0  0  0  0  2  0  0  0  0  0  0
   36.6280   25.4050   31.7030 C   0  0  0  0  0  0  0  0  0  0  0  0
   37.7780   24.8230   31.2330 F   0  0  0  0  0  0  0  0  0  0  0  0
   35.6490   24.4310   31.7950 F   0  0  0  0  0  0  0  0  0  0  0  0
   36.2260   26.3720   30.7960 F   0  0  0  0  0  0  0  0  0  0  0  0
  1  7  1  0  0  0  0
  1  6  1  0  0  0  0
  2  1  2  0  0  0  0
  3  2  1  0  0  0  0
  3  4  2  0  0  0  0
  4  5  1  0  0  0  0
  5  6  2  0  0  0  0
  8  2  1  0  0  0  0
  9  5  1  6  0  0  0
  9 10  1  0  0  0  0
 10 11  1  0  0  0  0
 12 11  1  0  0  0  0
 13 12  2  0  0  0  0
 14  9  1  0  0  0  0
 14 13  1  0  0  0  0
 15 17  1  0  0  0  0
 15  3  1  0  0  0  0
 16 15  1  0  0  0  0
 18 15  1  0  0  0  0
M  END
>  <minimizedAffinity>
-4.63305569

$$$$

 OpenBabel03262520203D

 18 19  0  0  1  0  0  0  0  0999 V2000
   39.8190   24.1810   34.0970 C   0  0  0  0  0  0  0  0  0  0  0  0
   39.5340   23.7000   35.4090 C   0  0  0  0  0  0  0  0  0  0  0  0
   38.6110   24.4230   36.1650 C   0  0  0  0  0  0  0  0  0  0  0  0
   38.0460   25.5340   35.6060 N   0  0  0  0  0  0  0  0  0  0  0  0
   38.3400   25.9600   34.3580 C   0  0  0  0  0  0  0  0  0  0  0  0
   39.2230   25.2760   33.6240 N   0  0  0  0  0  0  0  0  0  0  0  0
   40.5290   23.6590   33.4660 H   0  0  0  0  0  0  0  0  0  0  0  0
   40.0240   22.8110   35.7810 H   0  0  0  0  0  0  0  0  0  0  0  0
   37.6770   27.1610   33.8610 C   0  0  1  0  0  3  0  0  0  0  0  0
   36.9940   26.9320   32.5090 C   0  0  0  0  0  2  0  0  0  0  0  0
   36.8430   28.3430   31.9510 C   0  0  0  0  0  2  0  0  0  0  0  0
   36.0030   29.2120   32.8200 C   0  0  0  0  0  3  0  0  0  0  0  0
   36.0270   28.9550   34.2700 C   0  0  0  0  0  3  0  0  0  0  0  0
   36.6060   27.6900   34.7620 C   0  0  0  0  0  2  0  0  0  0  0  0
   38.2760   23.9670   37.5370 C   0  0  0  0  0  0  0  0  0  0  0  0
   39.3960   23.3160   37.9890 F   0  0  0  0  0  0  0  0  0  0  0  0
   37.9990   25.0120   38.4000 F   0  0  0  0  0  0  0  0  0  0  0  0
   37.2170   23.0740   37.5460 F   0  0  0  0  0  0  0  0  0  0  0  0
  1  2  1  0  0  0  0
  2  8  1  0  0  0  0
  2  3  2  0  0  0  0
  3 15  1  0  0  0  0
  4  3  1  0  0  0  0
  5  4  2  0  0  0  0
  6  1  2  0  0  0  0
  6  5  1  0  0  0  0
  7  1  1  0  0  0  0
  9  5  1  1  0  0  0
  9 14  1  0  0  0  0
 10  9  1  0  0  0  0
 11 10  1  0  0  0  0
 11 12  1  0  0  0  0
 12 13  2  0  0  0  0
 13 14  1  0  0  0  0
 15 18  1  0  0  0  0
 15 16  1  0  0  0  0
 15 17  1  0  0  0  0
M  END
>  <minimizedAffinity>
-4.62771702

$$$$

 OpenBabel03262520203D

 18 19  0  0  1  0  0  0  0  0999 V2000
   38.0500   26.2400   35.3000 C   0  0  0  0  0  0  0  0  0  0  0  0
   38.1400   25.7520   36.6370 C   0  0  0  0  0  0  0  0  0  0  0  0
   38.1720   24.3680   36.8080 C   0  0  0  0  0  0  0  0  0  0  0  0
   38.1150   23.5770   35.6960 N   0  0  0  0  0  0  0  0  0  0  0  0
   38.0300   24.0750   34.4430 C   0  0  0  0  0  0  0  0  0  0  0  0
   37.9990   25.3990   34.2660 N   0  0  0  0  0  0  0  0  0  0  0  0
   38.0210   27.3060   35.1070 H   0  0  0  0  0  0  0  0  0  0  0  0
   38.1810   26.4440   37.4670 H   0  0  0  0  0  0  0  0  0  0  0  0
   37.9750   23.1370   33.3260 C   0  0  1  0  0  3  0  0  0  0  0  0
   37.5040   21.7460   33.7580 C   0  0  0  0  0  2  0  0  0  0  0  0
   38.0050   20.8440   32.6340 C   0  0  0  0  0  2  0  0  0  0  0  0
   37.4250   21.2050   31.3120 C   0  0  0  0  0  3  0  0  0  0  0  0
   37.0960   22.6210   31.0750 C   0  0  0  0  0  3  0  0  0  0  0  0
   37.0500   23.5470   32.2240 C   0  0  0  0  0  2  0  0  0  0  0  0
   38.2660   23.8060   38.1780 C   0  0  0  0  0  0  0  0  0  0  0  0
   38.1060   24.8740   39.0230 F   0  0  0  0  0  0  0  0  0  0  0  0
   37.2750   22.8790   38.4500 F   0  0  0  0  0  0  0  0  0  0  0  0
   39.5040   23.2350   38.4250 F   0  0  0  0  0  0  0  0  0  0  0  0
  1  2  1  0  0  0  0
  2  3  2  0  0  0  0
  2  8  1  0  0  0  0
  3 15  1  0  0  0  0
  4  3  1  0  0  0  0
  5  4  2  0  0  0  0
  6  5  1  0  0  0  0
  6  1  2  0  0  0  0
  7  1  1  0  0  0  0
  9 10  1  0  0  0  0
  9  5  1  1  0  0  0
 11 10  1  0  0  0  0
 12 11  1  0  0  0  0
 13 12  2  0  0  0  0
 13 14  1  0  0  0  0
 14  9  1  0  0  0  0
 15 18  1  0  0  0  0
 15 17  1  0  0  0  0
 15 16  1  0  0  0  0
M  END
>  <minimizedAffinity>
-4.61766291

$$$$
