
 OpenBabel03272506473D

 39 42  0  0  1  0  0  0  0  0999 V2000
   31.8680   28.3950   47.4470 C   0  0  2  0  0  0  0  0  0  0  0  0
   33.1090   28.1780   48.2630 C   0  0  1  0  0  0  0  0  0  0  0  0
   33.4370   26.8580   48.1860 O   0  0  0  0  0  0  0  0  0  0  0  0
   32.7040   26.2640   47.1650 C   0  0  0  0  0  0  0  0  0  0  0  0
   32.1450   27.3670   46.3050 C   0  0  1  0  0  0  0  0  0  0  0  0
   30.9300   28.1240   47.9190 H   0  0  0  0  0  0  0  0  0  0  0  0
   32.9330   28.5460   49.2950 H   0  0  0  0  0  0  0  0  0  0  0  0
   31.9950   25.5890   47.6160 H   0  0  0  0  0  0  0  0  0  0  0  0
   33.4290   25.6620   46.5510 H   0  0  0  0  0  0  0  0  0  0  0  0
   32.8730   27.8380   45.6530 H   0  0  0  0  0  0  0  0  0  0  0  0
   31.8550   29.6950   46.8980 O   0  0  0  0  0  0  0  0  0  0  0  0
   32.5120   29.7110   46.1660 H   0  0  0  0  0  0  0  0  0  0  0  0
   34.4610   29.1500   47.4860 S   0  0  0  0  0  0  0  0  0  0  0  0
   36.7120   29.2940   50.7430 C   0  0  0  0  0  0  0  0  0  0  0  0
   37.2320   30.5900   50.7640 C   0  0  0  0  0  0  0  0  0  0  0  0
   36.8750   31.4530   49.7310 C   0  0  0  0  0  0  0  0  0  0  0  0
   36.0380   30.9980   48.7550 N   0  0  0  0  0  0  0  0  0  0  0  0
   35.5570   29.7360   48.7720 C   0  0  0  0  0  0  0  0  0  0  0  0
   35.8860   28.8680   49.7630 N   0  0  0  0  0  0  0  0  0  0  0  0
   37.0150   28.6710   51.5550 H   0  0  0  0  0  0  0  0  0  0  0  0
   37.8980   30.9080   51.5670 H   0  0  0  0  0  0  0  0  0  0  0  0
   37.2640   32.4590   49.7260 H   0  0  0  0  0  0  0  0  0  0  0  0
   30.9720   26.9380   45.7330 O   0  0  0  0  0  0  0  0  0  0  0  0
   29.6600   29.1090   44.2380 Cl  0  0  0  0  0  0  0  0  0  0  0  0
   29.0330   28.1720   45.5730 C   0  0  0  0  0  0  0  0  0  0  0  0
   29.7440   27.1670   46.1870 C   0  0  0  0  0  0  0  0  0  0  0  0
   29.1270   26.4690   47.2280 C   0  0  0  0  0  0  0  0  0  0  0  0
   27.8440   26.7860   47.6210 C   0  0  0  0  0  0  0  0  0  0  0  0
   27.1220   27.7940   47.0100 C   0  0  0  0  0  0  0  0  0  0  0  0
   27.7390   28.4810   45.9810 C   0  0  0  0  0  0  0  0  0  0  0  0
   29.6080   25.6670   47.7600 H   0  0  0  0  0  0  0  0  0  0  0  0
   27.3290   26.2720   48.4200 H   0  0  0  0  0  0  0  0  0  0  0  0
   26.1160   28.0320   47.3290 H   0  0  0  0  0  0  0  0  0  0  0  0
   26.9670   29.5670   45.3200 C   0  0  0  0  0  3  0  0  0  0  0  0
   26.7950   29.3530   43.8430 C   0  0  0  0  0  2  0  0  0  0  0  0
   26.7030   30.6850   43.0960 C   0  0  0  0  0  2  0  0  0  0  0  0
   25.9460   31.7220   43.8780 C   0  0  0  0  0  2  0  0  0  0  0  0
   26.7350   32.0330   45.1320 C   0  0  0  0  0  2  0  0  0  0  0  0
   27.6520   30.8990   45.5070 C   0  0  0  0  0  2  0  0  0  0  0  0
  1  6  1  1  0  0  0
  1  2  1  0  0  0  0
  2  7  1  1  0  0  0
  3  2  1  0  0  0  0
  4  8  1  0  0  0  0
  4  3  1  0  0  0  0
  5 10  1  6  0  0  0
  5  4  1  0  0  0  0
  5  1  1  0  0  0  0
  9  4  1  0  0  0  0
 11  1  1  0  0  0  0
 12 11  1  0  0  0  0
 13  2  1  0  0  0  0
 13 18  1  0  0  0  0
 14 15  1  0  0  0  0
 14 20  1  0  0  0  0
 15 21  1  0  0  0  0
 16 15  2  0  0  0  0
 17 18  2  0  0  0  0
 17 16  1  0  0  0  0
 18 19  1  0  0  0  0
 19 14  2  0  0  0  0
 22 16  1  0  0  0  0
 23 26  1  0  0  0  0
 23  5  1  0  0  0  0
 24 25  1  0  0  0  0
 25 30  2  0  0  0  0
 25 26  1  0  0  0  0
 26 27  2  0  0  0  0
 27 28  1  0  0  0  0
 27 31  1  0  0  0  0
 28 32  1  0  0  0  0
 29 33  1  0  0  0  0
 29 28  2  0  0  0  0
 30 29  1  0  0  0  0
 34 39  1  0  0  0  0
 34 30  1  0  0  0  0
 35 34  1  0  0  0  0
 36 35  1  0  0  0  0
 36 37  1  0  0  0  0
 37 38  1  0  0  0  0
 38 39  1  0  0  0  0
M  END
>  <minimizedAffinity>
-5.25329494

>  <minimizedRMSD>
0.646276891

$$$$
