
 OpenBabel03272509053D

 30 32  0  0  0  0  0  0  0  0999 V2000
   34.7410   28.4880   49.7520 C   0  0  0  0  0  3  0  0  0  0  0  0
   34.3920   28.2120   48.5220 C   0  0  0  0  0  3  0  0  0  0  0  0
   37.5570   30.2710   51.2620 C   0  0  0  0  0  0  0  0  0  0  0  0
   38.0210   31.0400   50.1760 C   0  0  0  0  0  0  0  0  0  0  0  0
   37.3450   30.9230   48.9450 C   0  0  0  0  0  0  0  0  0  0  0  0
   36.2910   30.0750   48.8800 N   0  0  0  0  0  0  0  0  0  0  0  0
   35.8750   29.3530   49.9390 C   0  0  0  0  0  0  0  0  0  0  0  0
   36.5210   29.4670   51.1190 N   0  0  0  0  0  0  0  0  0  0  0  0
   38.0960   30.3840   52.1900 H   0  0  0  0  0  0  0  0  0  0  0  0
   38.8430   31.7140   50.1910 H   0  0  0  0  0  0  0  0  0  0  0  0
   37.7010   31.6580   47.7030 C   0  0  0  0  0  3  0  0  0  0  0  0
   39.1050   32.2130   47.7560 C   0  0  0  0  0  2  0  0  0  0  0  0
   39.3620   32.8050   46.3670 C   0  0  0  0  0  2  0  0  0  0  0  0
   39.5320   31.7130   45.3390 C   0  0  0  0  0  2  0  0  0  0  0  0
   38.9990   30.4350   45.9250 C   0  0  0  0  0  2  0  0  0  0  0  0
   37.6160   30.7510   46.4810 C   0  0  0  0  0  2  0  0  0  0  0  0
   33.2770   27.3580   48.0700 C   0  0  0  0  0  0  0  0  0  0  0  0
   32.5200   28.0180   47.5730 H   0  0  0  0  0  0  0  0  0  0  0  0
   32.7630   26.8290   48.9010 H   0  0  0  0  0  0  0  0  0  0  0  0
   33.7060   26.3420   47.0630 C   0  0  0  0  0  0  0  0  0  0  0  0
   33.9590   25.0230   47.3360 C   0  0  0  0  0  0  0  0  0  0  0  0
   34.3510   24.1600   46.3340 C   0  0  0  0  0  0  0  0  0  0  0  0
   34.5000   24.6160   45.0100 C   0  0  0  0  0  0  0  0  0  0  0  0
   34.2490   25.9310   44.7310 C   0  0  0  0  0  0  0  0  0  0  0  0
   33.8550   26.7810   45.7530 C   0  0  0  0  0  0  0  0  0  0  0  0
   33.8310   24.7170   48.3720 H   0  0  0  0  0  0  0  0  0  0  0  0
   34.5330   23.1440   46.6120 H   0  0  0  0  0  0  0  0  0  0  0  0
   34.8080   23.8540   44.3210 H   0  0  0  0  0  0  0  0  0  0  0  0
   34.3690   26.2590   43.7070 H   0  0  0  0  0  0  0  0  0  0  0  0
   33.6720   27.8170   45.4620 H   0  0  0  0  0  0  0  0  0  0  0  0
  1  7  1  0  0  0  0
  2  1  2  0  0  0  0
  3  9  1  0  0  0  0
  4 10  1  0  0  0  0
  4  3  2  0  0  0  0
  5  4  1  0  0  0  0
  6  5  2  0  0  0  0
  6  7  1  0  0  0  0
  7  8  2  0  0  0  0
  8  3  1  0  0  0  0
 11 12  1  0  0  0  0
 11  5  1  0  0  0  0
 13 12  1  0  0  0  0
 14 15  1  0  0  0  0
 14 13  1  0  0  0  0
 15 16  1  0  0  0  0
 16 11  1  0  0  0  0
 17  2  1  0  0  0  0
 17 19  1  0  0  0  0
 18 17  1  0  0  0  0
 20 21  1  0  0  0  0
 20 17  1  0  0  0  0
 21 26  1  0  0  0  0
 22 27  1  0  0  0  0
 22 21  2  0  0  0  0
 23 22  1  0  0  0  0
 24 23  2  0  0  0  0
 24 25  1  0  0  0  0
 25 20  2  0  0  0  0
 28 23  1  0  0  0  0
 29 24  1  0  0  0  0
 30 25  1  0  0  0  0
M  END
>  <minimizedAffinity>
-6.05791044

>  <minimizedRMSD>
0.85687995

$$$$
