
 OpenBabel03272505273D

 28 30  0  0  0  0  0  0  0  0999 V2000
   37.3740   31.0590   47.1460 N   0  0  0  0  0  0  0  0  0  0  0  0
   36.7740   30.7360   45.9680 C   0  0  0  0  0  0  0  0  0  0  0  0
   37.2310   31.2220   44.7530 C   0  0  0  0  0  0  0  0  0  0  0  0
   38.3520   32.0710   44.7770 C   0  0  0  0  0  0  0  0  0  0  0  0
   38.7930   32.5280   43.6970 O   0  0  0  0  0  0  0  0  0  0  0  0
   38.9500   32.3930   45.9560 N   0  0  0  0  0  0  0  0  0  0  0  0
   38.4180   31.8630   47.0620 C   0  0  0  0  0  0  0  0  0  0  0  0
   38.9930   32.1830   48.1280 O   0  0  0  0  0  0  0  0  0  0  0  0
   35.9110   30.0800   45.9680 H   0  0  0  0  0  0  0  0  0  0  0  0
   37.2440   29.4730   50.5000 C   0  0  0  0  0  0  0  0  0  0  0  0
   37.7370   29.9570   49.2750 C   0  0  0  0  0  0  0  0  0  0  0  0
   36.9030   30.5620   48.3690 C   0  0  0  0  0  0  0  0  0  0  0  0
   35.5790   30.6800   48.6870 N   0  0  0  0  0  0  0  0  0  0  0  0
   35.0860   30.2150   49.8690 C   0  0  0  0  0  0  0  0  0  0  0  0
   35.9230   29.6150   50.7670 N   0  0  0  0  0  0  0  0  0  0  0  0
   37.8470   28.9890   51.2550 H   0  0  0  0  0  0  0  0  0  0  0  0
   38.7730   29.7730   49.1920 H   0  0  0  0  0  0  0  0  0  0  0  0
   34.0380   30.3070   50.1240 H   0  0  0  0  0  0  0  0  0  0  0  0
   36.5710   30.8660   43.4610 C   0  0  0  0  0  0  0  0  0  0  0  0
   37.5570   30.2150   42.5050 C   0  0  0  0  0  0  0  0  0  0  0  0
   36.7750   29.7530   41.2940 C   0  0  0  0  0  0  0  0  0  0  0  0
   36.1470   30.9700   40.6190 C   0  0  0  0  0  0  0  0  0  0  0  0
   35.1850   31.6110   41.6200 C   0  0  0  0  0  0  0  0  0  0  0  0
   36.0220   32.0820   42.7850 C   0  0  0  0  0  0  0  0  0  0  0  0
   40.1040   33.2650   45.9800 C   0  0  0  0  0  0  0  0  0  0  0  0
   39.9650   34.2380   45.0320 F   0  0  0  0  0  0  0  0  0  0  0  0
   41.2900   32.6070   45.6980 F   0  0  0  0  0  0  0  0  0  0  0  0
   40.1760   33.8800   47.2220 F   0  0  0  0  0  0  0  0  0  0  0  0
  1 12  1  0  0  0  0
  2  1  1  0  0  0  0
  3  4  1  0  0  0  0
  3  2  2  0  0  0  0
  4  6  1  0  0  0  0
  5  4  2  0  0  0  0
  6 25  1  0  0  0  0
  6  7  1  0  0  0  0
  7  1  1  0  0  0  0
  7  8  2  0  0  0  0
  9  2  1  0  0  0  0
 10 15  1  0  0  0  0
 10 16  1  0  0  0  0
 11 10  2  0  0  0  0
 12 13  2  0  0  0  0
 12 11  1  0  0  0  0
 13 14  1  0  0  0  0
 14 18  1  0  0  0  0
 14 15  2  0  0  0  0
 17 11  1  0  0  0  0
 19  3  1  0  0  0  0
 20 19  1  0  0  0  0
 21 20  1  0  0  0  0
 22 21  1  0  0  0  0
 22 23  1  0  0  0  0
 23 24  1  0  0  0  0
 24 19  1  0  0  0  0
 25 28  1  0  0  0  0
 26 25  1  0  0  0  0
 27 25  1  0  0  0  0
M  END
>  <minimizedAffinity>
-6.13623333

>  <minimizedRMSD>
0.530635118

$$$$
