
 OpenBabel03272506003D

 41 44  0  0  1  0  0  0  0  0999 V2000
   35.7440   29.4390   31.9960 C   0  0  2  0  0  0  0  0  0  0  0  0
   36.0760   28.0880   32.5070 C   0  0  0  0  0  0  0  0  0  0  0  0
   37.4570   27.6040   32.0360 C   0  0  2  0  0  0  0  0  0  0  0  0
   37.6390   27.6120   30.5880 C   0  0  0  0  0  0  0  0  0  0  0  0
   36.9800   28.8060   29.8980 C   0  0  0  0  0  0  0  0  0  0  0  0
   36.6610   29.9000   30.8840 C   0  0  0  0  0  0  0  0  0  0  0  0
   34.7080   29.4760   31.5440 H   0  0  0  0  0  0  0  0  0  0  0  0
   35.3660   27.3480   32.0280 H   0  0  0  0  0  0  0  0  0  0  0  0
   36.0800   27.8610   33.5460 H   0  0  0  0  0  0  0  0  0  0  0  0
   38.2100   28.1980   32.5740 H   0  0  0  0  0  0  0  0  0  0  0  0
   38.7220   27.5650   30.3470 H   0  0  0  0  0  0  0  0  0  0  0  0
   37.1930   26.7180   30.1160 H   0  0  0  0  0  0  0  0  0  0  0  0
   37.7290   29.2170   29.1940 H   0  0  0  0  0  0  0  0  0  0  0  0
   36.1000   28.5110   29.2910 H   0  0  0  0  0  0  0  0  0  0  0  0
   36.1800   30.7150   30.3420 H   0  0  0  0  0  0  0  0  0  0  0  0
   37.6250   30.2060   31.3560 H   0  0  0  0  0  0  0  0  0  0  0  0
   38.7560   27.3330   34.6720 Cl  0  0  0  0  0  0  0  0  0  0  0  0
   38.1480   25.9520   33.7740 C   0  0  0  0  0  0  0  0  0  0  0  0
   37.5330   26.2050   32.5570 C   0  0  0  0  0  0  0  0  0  0  0  0
   37.0820   25.0610   31.9380 C   0  0  0  0  0  0  0  0  0  0  0  0
   37.2350   23.8020   32.4850 C   0  0  0  0  0  0  0  0  0  0  0  0
   37.8660   23.6360   33.7130 C   0  0  0  0  0  0  0  0  0  0  0  0
   38.3370   24.7640   34.3770 C   0  0  0  0  0  0  0  0  0  0  0  0
   36.5840   25.1730   30.9830 H   0  0  0  0  0  0  0  0  0  0  0  0
   36.8370   22.9680   31.8990 H   0  0  0  0  0  0  0  0  0  0  0  0
   37.9490   22.6330   34.0760 H   0  0  0  0  0  0  0  0  0  0  0  0
   39.0100   24.5850   35.6900 C   0  0  0  0  0  3  0  0  0  0  0  0
   39.4890   23.1570   35.8720 C   0  0  0  0  0  2  0  0  0  0  0  0
   40.0750   23.0230   37.2530 C   0  0  0  0  0  2  0  0  0  0  0  0
   38.9930   23.0710   38.3090 C   0  0  0  0  0  2  0  0  0  0  0  0
   37.7800   23.7090   37.7090 C   0  0  0  0  0  2  0  0  0  0  0  0
   38.1440   24.9380   36.8650 C   0  0  0  0  0  2  0  0  0  0  0  0
   35.7620   30.4730   33.0390 C   0  0  0  0  0  0  0  0  0  0  0  0
   35.6460   29.9980   34.3470 C   0  0  0  0  0  0  0  0  0  0  0  0
   35.6730   30.9430   35.3810 C   0  0  0  0  0  0  0  0  0  0  0  0
   35.8130   32.2890   35.0610 N   0  0  0  0  0  0  0  0  0  0  0  0
   35.9230   32.7020   33.7820 C   0  0  0  0  0  0  0  0  0  0  0  0
   35.8940   31.7810   32.8160 N   0  0  0  0  0  0  0  0  0  0  0  0
   35.5240   29.0760   34.8830 H   0  0  0  0  0  0  0  0  0  0  0  0
   35.6070   30.8630   36.4420 H   0  0  0  0  0  0  0  0  0  0  0  0
   36.0310   33.7230   33.5040 H   0  0  0  0  0  0  0  0  0  0  0  0
  1  7  1  6  0  0  0
  1  2  1  0  0  0  0
  1 33  1  0  0  0  0
  2  9  1  0  0  0  0
  3  2  1  0  0  0  0
  3 19  1  0  0  0  0
  3 10  1  1  0  0  0
  4  3  1  0  0  0  0
  5  4  1  0  0  0  0
  5  6  1  0  0  0  0
  6 16  1  0  0  0  0
  6  1  1  0  0  0  0
  8  2  1  0  0  0  0
 11  4  1  0  0  0  0
 12  4  1  0  0  0  0
 13  5  1  0  0  0  0
 14  5  1  0  0  0  0
 15  6  1  0  0  0  0
 18 23  1  0  0  0  0
 18 17  1  0  0  0  0
 19 18  2  0  0  0  0
 20 21  2  0  0  0  0
 20 19  1  0  0  0  0
 21 22  1  0  0  0  0
 22 26  1  0  0  0  0
 22 23  2  0  0  0  0
 23 27  1  0  0  0  0
 24 20  1  0  0  0  0
 25 21  1  0  0  0  0
 27 28  1  0  0  0  0
 27 32  1  0  0  0  0
 28 29  1  0  0  0  0
 29 30  1  0  0  0  0
 31 30  1  0  0  0  0
 32 31  1  0  0  0  0
 33 34  1  0  0  0  0
 34 39  1  0  0  0  0
 34 35  2  0  0  0  0
 35 40  1  0  0  0  0
 36 35  1  0  0  0  0
 37 36  2  0  0  0  0
 38 33  2  0  0  0  0
 38 37  1  0  0  0  0
 41 37  1  0  0  0  0
M  END
>  <minimizedAffinity>
-6.26280832

$$$$

 OpenBabel03272506003D

 41 44  0  0  1  0  0  0  0  0999 V2000
   34.6380   29.9930   33.4470 C   0  0  2  0  0  0  0  0  0  0  0  0
   35.2090   28.6300   33.5570 C   0  0  0  0  0  0  0  0  0  0  0  0
   36.6420   28.5470   33.0020 C   0  0  2  0  0  0  0  0  0  0  0  0
   36.7830   29.0030   31.6230 C   0  0  0  0  0  0  0  0  0  0  0  0
   35.9120   30.2130   31.2890 C   0  0  0  0  0  0  0  0  0  0  0  0
   35.4330   30.9050   32.5390 C   0  0  0  0  0  0  0  0  0  0  0  0
   33.6000   29.9800   32.9990 H   0  0  0  0  0  0  0  0  0  0  0  0
   34.6250   27.9490   32.8670 H   0  0  0  0  0  0  0  0  0  0  0  0
   35.2790   28.1180   34.4850 H   0  0  0  0  0  0  0  0  0  0  0  0
   37.2940   29.0810   33.7070 H   0  0  0  0  0  0  0  0  0  0  0  0
   37.8510   29.2140   31.4060 H   0  0  0  0  0  0  0  0  0  0  0  0
   36.4850   28.2190   30.9020 H   0  0  0  0  0  0  0  0  0  0  0  0
   36.5610   30.9320   30.7530 H   0  0  0  0  0  0  0  0  0  0  0  0
   35.0800   29.9590   30.6000 H   0  0  0  0  0  0  0  0  0  0  0  0
   34.8070   31.7460   32.2430 H   0  0  0  0  0  0  0  0  0  0  0  0
   36.3420   31.2230   33.1040 H   0  0  0  0  0  0  0  0  0  0  0  0
   38.2570   27.7980   35.3560 Cl  0  0  0  0  0  0  0  0  0  0  0  0
   37.7480   26.6270   34.1490 C   0  0  0  0  0  0  0  0  0  0  0  0
   36.9690   27.0920   33.1000 C   0  0  0  0  0  0  0  0  0  0  0  0
   36.6150   26.0980   32.2170 C   0  0  0  0  0  0  0  0  0  0  0  0
   37.0020   24.7810   32.3730 C   0  0  0  0  0  0  0  0  0  0  0  0
   37.7850   24.3980   33.4560 C   0  0  0  0  0  0  0  0  0  0  0  0
   38.1670   25.3690   34.3770 C   0  0  0  0  0  0  0  0  0  0  0  0
   36.0000   26.3770   31.3700 H   0  0  0  0  0  0  0  0  0  0  0  0
   36.6590   24.0800   31.6060 H   0  0  0  0  0  0  0  0  0  0  0  0
   38.0480   23.3630   33.5150 H   0  0  0  0  0  0  0  0  0  0  0  0
   39.0040   24.9580   35.5350 C   0  0  0  0  0  3  0  0  0  0  0  0
   39.9220   23.8060   35.1690 C   0  0  0  0  0  2  0  0  0  0  0  0
   40.6690   23.3820   36.4050 C   0  0  0  0  0  2  0  0  0  0  0  0
   39.7510   22.6820   37.3820 C   0  0  0  0  0  2  0  0  0  0  0  0
   38.3400   23.0550   37.0490 C   0  0  0  0  0  2  0  0  0  0  0  0
   38.2080   24.5520   36.7410 C   0  0  0  0  0  2  0  0  0  0  0  0
   34.5040   30.6700   34.7450 C   0  0  0  0  0  0  0  0  0  0  0  0
   35.6350   31.3690   35.1680 C   0  0  0  0  0  0  0  0  0  0  0  0
   35.5540   32.0460   36.3920 C   0  0  0  0  0  0  0  0  0  0  0  0
   34.3680   31.9900   37.1170 N   0  0  0  0  0  0  0  0  0  0  0  0
   33.3000   31.3010   36.6670 C   0  0  0  0  0  0  0  0  0  0  0  0
   33.4030   30.6650   35.4980 N   0  0  0  0  0  0  0  0  0  0  0  0
   36.6410   31.5820   34.8550 H   0  0  0  0  0  0  0  0  0  0  0  0
   36.2460   32.6430   36.9410 H   0  0  0  0  0  0  0  0  0  0  0  0
   32.3800   31.2380   37.1970 H   0  0  0  0  0  0  0  0  0  0  0  0
  1  7  1  6  0  0  0
  1  2  1  0  0  0  0
  1 33  1  0  0  0  0
  2  9  1  0  0  0  0
  3 19  1  0  0  0  0
  3  2  1  0  0  0  0
  3 10  1  1  0  0  0
  4  3  1  0  0  0  0
  5  4  1  0  0  0  0
  5  6  1  0  0  0  0
  6 16  1  0  0  0  0
  6  1  1  0  0  0  0
  8  2  1  0  0  0  0
 11  4  1  0  0  0  0
 12  4  1  0  0  0  0
 13  5  1  0  0  0  0
 14  5  1  0  0  0  0
 15  6  1  0  0  0  0
 18 23  1  0  0  0  0
 18 17  1  0  0  0  0
 19 18  2  0  0  0  0
 20 21  2  0  0  0  0
 20 19  1  0  0  0  0
 21 22  1  0  0  0  0
 22 26  1  0  0  0  0
 22 23  2  0  0  0  0
 23 27  1  0  0  0  0
 24 20  1  0  0  0  0
 25 21  1  0  0  0  0
 27 32  1  0  0  0  0
 28 27  1  0  0  0  0
 28 29  1  0  0  0  0
 29 30  1  0  0  0  0
 31 30  1  0  0  0  0
 32 31  1  0  0  0  0
 33 34  2  0  0  0  0
 33 38  1  0  0  0  0
 34 35  1  0  0  0  0
 35 40  1  0  0  0  0
 35 36  2  0  0  0  0
 37 36  1  0  0  0  0
 37 41  1  0  0  0  0
 38 37  2  0  0  0  0
 39 34  1  0  0  0  0
M  END
>  <minimizedAffinity>
-6.22967386

$$$$

 OpenBabel03272506003D

 41 44  0  0  1  0  0  0  0  0999 V2000
   37.8080   24.5700   33.2130 C   0  0  2  0  0  0  0  0  0  0  0  0
   37.0420   25.8240   33.0200 C   0  0  0  0  0  0  0  0  0  0  0  0
   37.8340   26.8810   32.2320 C   0  0  2  0  0  0  0  0  0  0  0  0
   39.1350   27.2130   32.8040 C   0  0  0  0  0  0  0  0  0  0  0  0
   39.8650   26.0080   33.3970 C   0  0  0  0  0  0  0  0  0  0  0  0
   39.2810   24.7120   32.8950 C   0  0  0  0  0  0  0  0  0  0  0  0
   37.7820   24.2220   34.2890 H   0  0  0  0  0  0  0  0  0  0  0  0
   36.9030   26.3090   34.0330 H   0  0  0  0  0  0  0  0  0  0  0  0
   36.0880   25.8380   32.5530 H   0  0  0  0  0  0  0  0  0  0  0  0
   37.8910   26.5330   31.1910 H   0  0  0  0  0  0  0  0  0  0  0  0
   39.7620   27.7170   32.0390 H   0  0  0  0  0  0  0  0  0  0  0  0
   39.0430   27.9370   33.6340 H   0  0  0  0  0  0  0  0  0  0  0  0
   40.9070   26.0550   33.0260 H   0  0  0  0  0  0  0  0  0  0  0  0
   39.9180   26.0480   34.5040 H   0  0  0  0  0  0  0  0  0  0  0  0
   39.8260   23.8920   33.3620 H   0  0  0  0  0  0  0  0  0  0  0  0
   39.3790   24.7190   31.7840 H   0  0  0  0  0  0  0  0  0  0  0  0
   37.0610   27.7890   34.9310 Cl  0  0  0  0  0  0  0  0  0  0  0  0
   36.4870   28.5780   33.4700 C   0  0  0  0  0  0  0  0  0  0  0  0
   36.9390   28.0770   32.2580 C   0  0  0  0  0  0  0  0  0  0  0  0
   36.4420   28.7690   31.1760 C   0  0  0  0  0  0  0  0  0  0  0  0
   35.5850   29.8440   31.3020 C   0  0  0  0  0  0  0  0  0  0  0  0
   35.1790   30.2820   32.5580 C   0  0  0  0  0  0  0  0  0  0  0  0
   35.6570   29.6150   33.6820 C   0  0  0  0  0  0  0  0  0  0  0  0
   36.7510   28.4440   30.1910 H   0  0  0  0  0  0  0  0  0  0  0  0
   35.2550   30.3130   30.3700 H   0  0  0  0  0  0  0  0  0  0  0  0
   34.5150   31.1200   32.5810 H   0  0  0  0  0  0  0  0  0  0  0  0
   35.2240   30.0850   35.0240 C   0  0  0  0  0  3  0  0  0  0  0  0
   33.8470   30.7210   34.9650 C   0  0  0  0  0  2  0  0  0  0  0  0
   33.5120   31.2550   36.3320 C   0  0  0  0  0  2  0  0  0  0  0  0
   34.3470   32.4730   36.6610 C   0  0  0  0  0  2  0  0  0  0  0  0
   35.5480   32.4720   35.7680 C   0  0  0  0  0  2  0  0  0  0  0  0
   36.1660   31.0720   35.6500 C   0  0  0  0  0  2  0  0  0  0  0  0
   37.2920   23.4480   32.4180 C   0  0  0  0  0  0  0  0  0  0  0  0
   38.1560   22.3580   32.3010 C   0  0  0  0  0  0  0  0  0  0  0  0
   37.7040   21.2540   31.5650 C   0  0  0  0  0  0  0  0  0  0  0  0
   36.4360   21.2960   30.9950 N   0  0  0  0  0  0  0  0  0  0  0  0
   35.6360   22.3720   31.1350 C   0  0  0  0  0  0  0  0  0  0  0  0
   36.0900   23.4100   31.8410 N   0  0  0  0  0  0  0  0  0  0  0  0
   39.1390   22.0460   32.6010 H   0  0  0  0  0  0  0  0  0  0  0  0
   38.1430   20.3130   31.3210 H   0  0  0  0  0  0  0  0  0  0  0  0
   34.6620   22.4360   30.7120 H   0  0  0  0  0  0  0  0  0  0  0  0
  1  7  1  1  0  0  0
  2  1  1  0  0  0  0
  2  8  1  0  0  0  0
  3 10  1  6  0  0  0
  3 19  1  0  0  0  0
  3  4  1  0  0  0  0
  3  2  1  0  0  0  0
  4  5  1  0  0  0  0
  4 12  1  0  0  0  0
  5 14  1  0  0  0  0
  6  1  1  0  0  0  0
  6 15  1  0  0  0  0
  6  5  1  0  0  0  0
  9  2  1  0  0  0  0
 11  4  1  0  0  0  0
 13  5  1  0  0  0  0
 16  6  1  0  0  0  0
 18 23  1  0  0  0  0
 18 17  1  0  0  0  0
 19 18  2  0  0  0  0
 20 21  2  0  0  0  0
 20 19  1  0  0  0  0
 21 22  1  0  0  0  0
 22 26  1  0  0  0  0
 22 23  2  0  0  0  0
 23 27  1  0  0  0  0
 24 20  1  0  0  0  0
 25 21  1  0  0  0  0
 27 32  1  0  0  0  0
 28 27  1  0  0  0  0
 28 29  1  0  0  0  0
 29 30  1  0  0  0  0
 31 30  1  0  0  0  0
 32 31  1  0  0  0  0
 33  1  1  0  0  0  0
 34 33  1  0  0  0  0
 34 39  1  0  0  0  0
 35 34  2  0  0  0  0
 36 37  2  0  0  0  0
 36 35  1  0  0  0  0
 37 38  1  0  0  0  0
 38 33  2  0  0  0  0
 40 35  1  0  0  0  0
 41 37  1  0  0  0  0
M  END
>  <minimizedAffinity>
-6.02767897

$$$$

 OpenBabel03272506003D

 41 44  0  0  1  0  0  0  0  0999 V2000
   38.8550   25.6730   33.0920 C   0  0  2  0  0  0  0  0  0  0  0  0
   38.2240   27.0140   33.1270 C   0  0  0  0  0  0  0  0  0  0  0  0
   37.0650   27.1440   32.1240 C   0  0  2  0  0  0  0  0  0  0  0  0
   37.4220   26.8320   30.7440 C   0  0  0  0  0  0  0  0  0  0  0  0
   38.4050   25.6680   30.6170 C   0  0  0  0  0  0  0  0  0  0  0  0
   38.4560   24.8540   31.8840 C   0  0  0  0  0  0  0  0  0  0  0  0
   39.9830   25.7390   33.0310 H   0  0  0  0  0  0  0  0  0  0  0  0
   38.9800   27.7660   32.7470 H   0  0  0  0  0  0  0  0  0  0  0  0
   37.8210   27.4260   34.0190 H   0  0  0  0  0  0  0  0  0  0  0  0
   36.2340   26.5360   32.5080 H   0  0  0  0  0  0  0  0  0  0  0  0
   36.5020   26.6370   30.1540 H   0  0  0  0  0  0  0  0  0  0  0  0
   37.9150   27.6870   30.2470 H   0  0  0  0  0  0  0  0  0  0  0  0
   38.0080   25.0040   29.8250 H   0  0  0  0  0  0  0  0  0  0  0  0
   39.4100   25.9980   30.2830 H   0  0  0  0  0  0  0  0  0  0  0  0
   39.1810   24.0520   31.7420 H   0  0  0  0  0  0  0  0  0  0  0  0
   37.4230   24.4740   32.0690 H   0  0  0  0  0  0  0  0  0  0  0  0
   35.9440   27.9060   34.7460 Cl  0  0  0  0  0  0  0  0  0  0  0  0
   36.0970   29.0450   33.4180 C   0  0  0  0  0  0  0  0  0  0  0  0
   36.6630   28.5780   32.2410 C   0  0  0  0  0  0  0  0  0  0  0  0
   36.7480   29.5480   31.2680 C   0  0  0  0  0  0  0  0  0  0  0  0
   36.3110   30.8440   31.4590 C   0  0  0  0  0  0  0  0  0  0  0  0
   35.7540   31.2310   32.6730 C   0  0  0  0  0  0  0  0  0  0  0  0
   35.6480   30.2840   33.6880 C   0  0  0  0  0  0  0  0  0  0  0  0
   37.1850   29.2660   30.3180 H   0  0  0  0  0  0  0  0  0  0  0  0
   36.4300   31.5260   30.6120 H   0  0  0  0  0  0  0  0  0  0  0  0
   35.4370   32.2490   32.7520 H   0  0  0  0  0  0  0  0  0  0  0  0
   35.0530   30.6990   34.9850 C   0  0  0  0  0  3  0  0  0  0  0  0
   33.8570   31.6090   34.7750 C   0  0  0  0  0  2  0  0  0  0  0  0
   33.3630   32.0640   36.1230 C   0  0  0  0  0  2  0  0  0  0  0  0
   34.3270   33.0440   36.7540 C   0  0  0  0  0  2  0  0  0  0  0  0
   35.6600   32.8820   36.0920 C   0  0  0  0  0  2  0  0  0  0  0  0
   36.0180   31.4030   35.8940 C   0  0  0  0  0  2  0  0  0  0  0  0
   38.5660   24.8660   34.2860 C   0  0  0  0  0  0  0  0  0  0  0  0
   38.4970   25.5820   35.4820 C   0  0  0  0  0  0  0  0  0  0  0  0
   38.2090   24.8610   36.6490 C   0  0  0  0  0  0  0  0  0  0  0  0
   38.0080   23.4880   36.5610 N   0  0  0  0  0  0  0  0  0  0  0  0
   38.0840   22.8390   35.3820 C   0  0  0  0  0  0  0  0  0  0  0  0
   38.3600   23.5480   34.2850 N   0  0  0  0  0  0  0  0  0  0  0  0
   38.6060   26.5840   35.8530 H   0  0  0  0  0  0  0  0  0  0  0  0
   38.0990   25.1450   37.6710 H   0  0  0  0  0  0  0  0  0  0  0  0
   37.9350   21.7900   35.2810 H   0  0  0  0  0  0  0  0  0  0  0  0
  1  7  1  6  0  0  0
  1  2  1  0  0  0  0
  1 33  1  0  0  0  0
  2  9  1  0  0  0  0
  3 19  1  0  0  0  0
  3 10  1  1  0  0  0
  3  2  1  0  0  0  0
  4  3  1  0  0  0  0
  5  4  1  0  0  0  0
  5  6  1  0  0  0  0
  6 16  1  0  0  0  0
  6  1  1  0  0  0  0
  8  2  1  0  0  0  0
 11  4  1  0  0  0  0
 12  4  1  0  0  0  0
 13  5  1  0  0  0  0
 14  5  1  0  0  0  0
 15  6  1  0  0  0  0
 18 23  1  0  0  0  0
 18 17  1  0  0  0  0
 19 18  2  0  0  0  0
 20 21  2  0  0  0  0
 20 19  1  0  0  0  0
 21 22  1  0  0  0  0
 22 26  1  0  0  0  0
 22 23  2  0  0  0  0
 23 27  1  0  0  0  0
 24 20  1  0  0  0  0
 25 21  1  0  0  0  0
 27 32  1  0  0  0  0
 28 27  1  0  0  0  0
 28 29  1  0  0  0  0
 29 30  1  0  0  0  0
 31 30  1  0  0  0  0
 32 31  1  0  0  0  0
 33 34  1  0  0  0  0
 34 39  1  0  0  0  0
 34 35  2  0  0  0  0
 35 40  1  0  0  0  0
 36 35  1  0  0  0  0
 37 36  2  0  0  0  0
 38 33  2  0  0  0  0
 38 37  1  0  0  0  0
 41 37  1  0  0  0  0
M  END
>  <minimizedAffinity>
-5.88118887

$$$$

 OpenBabel03272506003D

 41 44  0  0  1  0  0  0  0  0999 V2000
   38.7850   27.9790   30.6370 C   0  0  2  0  0  0  0  0  0  0  0  0
   38.6890   26.6700   31.3270 C   0  0  0  0  0  0  0  0  0  0  0  0
   37.2340   26.2520   31.5940 C   0  0  2  0  0  0  0  0  0  0  0  0
   36.4510   27.2320   32.3410 C   0  0  0  0  0  0  0  0  0  0  0  0
   36.7650   28.6790   31.9630 C   0  0  0  0  0  0  0  0  0  0  0  0
   37.4870   28.7550   30.6420 C   0  0  0  0  0  0  0  0  0  0  0  0
   39.5300   28.6660   31.1390 H   0  0  0  0  0  0  0  0  0  0  0  0
   39.1190   26.7910   32.3670 H   0  0  0  0  0  0  0  0  0  0  0  0
   39.1260   25.7870   30.9290 H   0  0  0  0  0  0  0  0  0  0  0  0
   36.7890   25.9860   30.6250 H   0  0  0  0  0  0  0  0  0  0  0  0
   35.3680   27.0180   32.2180 H   0  0  0  0  0  0  0  0  0  0  0  0
   36.6430   27.1650   33.4280 H   0  0  0  0  0  0  0  0  0  0  0  0
   35.7910   29.1880   31.8260 H   0  0  0  0  0  0  0  0  0  0  0  0
   37.2990   29.2210   32.7700 H   0  0  0  0  0  0  0  0  0  0  0  0
   37.6980   29.8040   30.4320 H   0  0  0  0  0  0  0  0  0  0  0  0
   36.8200   28.2890   29.8790 H   0  0  0  0  0  0  0  0  0  0  0  0
   38.5580   26.5750   34.2110 Cl  0  0  0  0  0  0  0  0  0  0  0  0
   38.0050   25.0160   33.6200 C   0  0  0  0  0  0  0  0  0  0  0  0
   37.3730   24.9920   32.3860 C   0  0  0  0  0  0  0  0  0  0  0  0
   36.9680   23.7290   32.0170 C   0  0  0  0  0  0  0  0  0  0  0  0
   37.1790   22.6140   32.8050 C   0  0  0  0  0  0  0  0  0  0  0  0
   37.8230   22.7260   34.0320 C   0  0  0  0  0  0  0  0  0  0  0  0
   38.2490   23.9840   34.4470 C   0  0  0  0  0  0  0  0  0  0  0  0
   36.4610   23.6240   31.0670 H   0  0  0  0  0  0  0  0  0  0  0  0
   36.8140   21.6630   32.4060 H   0  0  0  0  0  0  0  0  0  0  0  0
   37.9520   21.8220   34.5890 H   0  0  0  0  0  0  0  0  0  0  0  0
   38.9370   24.1020   35.7590 C   0  0  0  0  0  3  0  0  0  0  0  0
   39.3870   22.7460   36.2690 C   0  0  0  0  0  2  0  0  0  0  0  0
   39.9900   22.9270   37.6370 C   0  0  0  0  0  2  0  0  0  0  0  0
   38.9250   23.2480   38.6620 C   0  0  0  0  0  2  0  0  0  0  0  0
   37.7170   23.7570   37.9390 C   0  0  0  0  0  2  0  0  0  0  0  0
   38.0960   24.7430   36.8260 C   0  0  0  0  0  2  0  0  0  0  0  0
   39.2260   27.8650   29.2400 C   0  0  0  0  0  0  0  0  0  0  0  0
   39.2610   29.0670   28.5310 C   0  0  0  0  0  0  0  0  0  0  0  0
   39.6910   29.0160   27.1980 C   0  0  0  0  0  0  0  0  0  0  0  0
   40.0550   27.7900   26.6530 N   0  0  0  0  0  0  0  0  0  0  0  0
   40.0040   26.6540   27.3780 C   0  0  0  0  0  0  0  0  0  0  0  0
   39.5930   26.7290   28.6450 N   0  0  0  0  0  0  0  0  0  0  0  0
   39.0480   30.1110   28.6630 H   0  0  0  0  0  0  0  0  0  0  0  0
   39.8120   29.7600   26.4440 H   0  0  0  0  0  0  0  0  0  0  0  0
   40.2760   25.7010   26.9900 H   0  0  0  0  0  0  0  0  0  0  0  0
  1  6  1  0  0  0  0
  1  7  1  1  0  0  0
  1  2  1  0  0  0  0
  2  3  1  0  0  0  0
  2  8  1  0  0  0  0
  3 10  1  6  0  0  0
  3  4  1  0  0  0  0
  3 19  1  0  0  0  0
  4 12  1  0  0  0  0
  5  4  1  0  0  0  0
  5 14  1  0  0  0  0
  6  5  1  0  0  0  0
  9  2  1  0  0  0  0
 11  4  1  0  0  0  0
 13  5  1  0  0  0  0
 15  6  1  0  0  0  0
 16  6  1  0  0  0  0
 18 17  1  0  0  0  0
 18 23  1  0  0  0  0
 19 18  2  0  0  0  0
 20 19  1  0  0  0  0
 20 21  2  0  0  0  0
 21 22  1  0  0  0  0
 22 23  2  0  0  0  0
 22 26  1  0  0  0  0
 23 27  1  0  0  0  0
 24 20  1  0  0  0  0
 25 21  1  0  0  0  0
 27 28  1  0  0  0  0
 27 32  1  0  0  0  0
 28 29  1  0  0  0  0
 29 30  1  0  0  0  0
 31 30  1  0  0  0  0
 32 31  1  0  0  0  0
 33  1  1  0  0  0  0
 34 39  1  0  0  0  0
 34 33  2  0  0  0  0
 35 34  1  0  0  0  0
 36 35  2  0  0  0  0
 36 37  1  0  0  0  0
 37 38  2  0  0  0  0
 38 33  1  0  0  0  0
 40 35  1  0  0  0  0
 41 37  1  0  0  0  0
M  END
>  <minimizedAffinity>
-5.85759878

$$$$

 OpenBabel03272506003D

 41 44  0  0  1  0  0  0  0  0999 V2000
   32.7320   30.4050   35.2690 C   0  0  2  0  0  0  0  0  0  0  0  0
   33.5760   29.8980   34.1610 C   0  0  0  0  0  0  0  0  0  0  0  0
   35.0740   29.9170   34.5080 C   0  0  2  0  0  0  0  0  0  0  0  0
   35.5820   31.2220   34.9220 C   0  0  0  0  0  0  0  0  0  0  0  0
   34.5970   32.0150   35.7800 C   0  0  0  0  0  0  0  0  0  0  0  0
   33.5200   31.1230   36.3430 C   0  0  0  0  0  0  0  0  0  0  0  0
   31.9790   31.1690   34.9100 H   0  0  0  0  0  0  0  0  0  0  0  0
   33.5000   30.6290   33.3010 H   0  0  0  0  0  0  0  0  0  0  0  0
   33.4370   28.9320   33.7400 H   0  0  0  0  0  0  0  0  0  0  0  0
   35.2460   29.1270   35.2510 H   0  0  0  0  0  0  0  0  0  0  0  0
   36.5520   31.0960   35.4480 H   0  0  0  0  0  0  0  0  0  0  0  0
   35.8000   31.8690   34.0530 H   0  0  0  0  0  0  0  0  0  0  0  0
   35.1720   32.4060   36.6420 H   0  0  0  0  0  0  0  0  0  0  0  0
   34.1830   32.8940   35.2460 H   0  0  0  0  0  0  0  0  0  0  0  0
   32.8410   31.7410   36.9300 H   0  0  0  0  0  0  0  0  0  0  0  0
   34.0310   30.3420   36.9560 H   0  0  0  0  0  0  0  0  0  0  0  0
   36.9160   27.6270   34.7770 Cl  0  0  0  0  0  0  0  0  0  0  0  0
   36.6400   28.4410   33.2450 C   0  0  0  0  0  0  0  0  0  0  0  0
   35.7310   29.4890   33.2360 C   0  0  0  0  0  0  0  0  0  0  0  0
   35.5780   30.0520   31.9890 C   0  0  0  0  0  0  0  0  0  0  0  0
   36.2640   29.6070   30.8760 C   0  0  0  0  0  0  0  0  0  0  0  0
   37.1590   28.5480   30.9720 C   0  0  0  0  0  0  0  0  0  0  0  0
   37.3460   27.9460   32.2130 C   0  0  0  0  0  0  0  0  0  0  0  0
   34.8820   30.8750   31.8950 H   0  0  0  0  0  0  0  0  0  0  0  0
   36.0600   30.1340   29.9390 H   0  0  0  0  0  0  0  0  0  0  0  0
   37.6550   28.2560   30.0710 H   0  0  0  0  0  0  0  0  0  0  0  0
   38.3030   26.8130   32.3140 C   0  0  0  0  0  3  0  0  0  0  0  0
   39.6630   27.1900   31.7590 C   0  0  0  0  0  2  0  0  0  0  0  0
   40.5510   25.9750   31.8070 C   0  0  0  0  0  2  0  0  0  0  0  0
   40.1260   24.9500   30.7790 C   0  0  0  0  0  2  0  0  0  0  0  0
   38.7100   25.2360   30.3890 C   0  0  0  0  0  2  0  0  0  0  0  0
   37.8420   25.5690   31.6100 C   0  0  0  0  0  2  0  0  0  0  0  0
   31.9480   29.3520   35.9280 C   0  0  0  0  0  0  0  0  0  0  0  0
   31.3370   28.4400   35.0650 C   0  0  0  0  0  0  0  0  0  0  0  0
   30.5890   27.4060   35.6440 C   0  0  0  0  0  0  0  0  0  0  0  0
   30.4930   27.3380   37.0290 N   0  0  0  0  0  0  0  0  0  0  0  0
   31.1010   28.2410   37.8230 C   0  0  0  0  0  0  0  0  0  0  0  0
   31.8070   29.2160   37.2470 N   0  0  0  0  0  0  0  0  0  0  0  0
   31.2250   28.2440   34.0150 H   0  0  0  0  0  0  0  0  0  0  0  0
   30.0330   26.5940   35.2350 H   0  0  0  0  0  0  0  0  0  0  0  0
   31.0470   28.2160   38.8860 H   0  0  0  0  0  0  0  0  0  0  0  0
  1  7  1  6  0  0  0
  1 33  1  0  0  0  0
  1  6  1  0  0  0  0
  2  3  1  0  0  0  0
  2  1  1  0  0  0  0
  3  4  1  0  0  0  0
  3 10  1  1  0  0  0
  4 11  1  0  0  0  0
  4  5  1  0  0  0  0
  5  6  1  0  0  0  0
  5 13  1  0  0  0  0
  6 15  1  0  0  0  0
  6 16  1  0  0  0  0
  8  2  1  0  0  0  0
  9  2  1  0  0  0  0
 12  4  1  0  0  0  0
 14  5  1  0  0  0  0
 18 17  1  0  0  0  0
 19 18  1  0  0  0  0
 19  3  1  0  0  0  0
 20 19  2  0  0  0  0
 21 22  2  0  0  0  0
 21 20  1  0  0  0  0
 22 23  1  0  0  0  0
 23 27  1  0  0  0  0
 23 18  2  0  0  0  0
 24 20  1  0  0  0  0
 25 21  1  0  0  0  0
 26 22  1  0  0  0  0
 28 29  1  0  0  0  0
 28 27  1  0  0  0  0
 30 29  1  0  0  0  0
 31 30  1  0  0  0  0
 31 32  1  0  0  0  0
 32 27  1  0  0  0  0
 33 38  1  0  0  0  0
 34 35  1  0  0  0  0
 34 33  2  0  0  0  0
 35 36  2  0  0  0  0
 36 37  1  0  0  0  0
 37 41  1  0  0  0  0
 38 37  2  0  0  0  0
 39 34  1  0  0  0  0
 40 35  1  0  0  0  0
M  END
>  <minimizedAffinity>
-5.84354401

$$$$

 OpenBabel03272506003D

 41 44  0  0  1  0  0  0  0  0999 V2000
   36.2010   28.3320   31.5430 C   0  0  2  0  0  0  0  0  0  0  0  0
   35.1940   29.0170   32.3870 C   0  0  0  0  0  0  0  0  0  0  0  0
   35.7530   29.4150   33.7630 C   0  0  2  0  0  0  0  0  0  0  0  0
   36.3260   28.3100   34.5250 C   0  0  0  0  0  0  0  0  0  0  0  0
   37.0860   27.3040   33.6620 C   0  0  0  0  0  0  0  0  0  0  0  0
   37.4240   27.8850   32.3130 C   0  0  0  0  0  0  0  0  0  0  0  0
   35.7910   27.3820   31.0850 H   0  0  0  0  0  0  0  0  0  0  0  0
   34.3840   28.2690   32.6440 H   0  0  0  0  0  0  0  0  0  0  0  0
   34.6910   29.8970   32.0670 H   0  0  0  0  0  0  0  0  0  0  0  0
   36.4570   30.2430   33.6010 H   0  0  0  0  0  0  0  0  0  0  0  0
   36.9770   28.7090   35.3320 H   0  0  0  0  0  0  0  0  0  0  0  0
   35.5450   27.7220   35.0410 H   0  0  0  0  0  0  0  0  0  0  0  0
   38.0470   27.1070   34.1760 H   0  0  0  0  0  0  0  0  0  0  0  0
   36.5610   26.3300   33.5840 H   0  0  0  0  0  0  0  0  0  0  0  0
   37.9480   27.1220   31.7370 H   0  0  0  0  0  0  0  0  0  0  0  0
   38.0480   28.7920   32.4960 H   0  0  0  0  0  0  0  0  0  0  0  0
   36.0330   32.2180   34.6430 Cl  0  0  0  0  0  0  0  0  0  0  0  0
   34.5900   31.2690   34.9620 C   0  0  0  0  0  0  0  0  0  0  0  0
   34.5630   29.9700   34.4760 C   0  0  0  0  0  0  0  0  0  0  0  0
   33.3880   29.3150   34.7690 C   0  0  0  0  0  0  0  0  0  0  0  0
   32.3550   29.9040   35.4710 C   0  0  0  0  0  0  0  0  0  0  0  0
   32.4650   31.2150   35.9240 C   0  0  0  0  0  0  0  0  0  0  0  0
   33.6340   31.9170   35.6510 C   0  0  0  0  0  0  0  0  0  0  0  0
   33.2840   28.2960   34.4200 H   0  0  0  0  0  0  0  0  0  0  0  0
   31.4700   29.2840   35.6440 H   0  0  0  0  0  0  0  0  0  0  0  0
   31.6270   31.6070   36.4610 H   0  0  0  0  0  0  0  0  0  0  0  0
   33.7490   33.3180   36.1340 C   0  0  0  0  0  3  0  0  0  0  0  0
   34.1200   33.3640   37.6050 C   0  0  0  0  0  2  0  0  0  0  0  0
   34.1280   34.8030   38.0490 C   0  0  0  0  0  2  0  0  0  0  0  0
   32.7230   35.3580   38.1190 C   0  0  0  0  0  2  0  0  0  0  0  0
   31.8350   34.4930   37.2800 C   0  0  0  0  0  2  0  0  0  0  0  0
   32.4980   34.1260   35.9460 C   0  0  0  0  0  2  0  0  0  0  0  0
   36.6640   29.1510   30.4150 C   0  0  0  0  0  0  0  0  0  0  0  0
   36.3790   30.5130   30.5150 C   0  0  0  0  0  0  0  0  0  0  0  0
   36.8150   31.3410   29.4720 C   0  0  0  0  0  0  0  0  0  0  0  0
   37.4990   30.7750   28.4020 N   0  0  0  0  0  0  0  0  0  0  0  0
   37.7520   29.4520   28.3480 C   0  0  0  0  0  0  0  0  0  0  0  0
   37.3270   28.6850   29.3550 N   0  0  0  0  0  0  0  0  0  0  0  0
   35.8910   31.2100   31.1710 H   0  0  0  0  0  0  0  0  0  0  0  0
   36.7360   32.3890   29.2930 H   0  0  0  0  0  0  0  0  0  0  0  0
   38.2730   28.9880   27.5450 H   0  0  0  0  0  0  0  0  0  0  0  0
  1  7  1  6  0  0  0
  1  6  1  0  0  0  0
  1  2  1  0  0  0  0
  2  8  1  0  0  0  0
  2  3  1  0  0  0  0
  3 10  1  6  0  0  0
  3 19  1  0  0  0  0
  3  4  1  0  0  0  0
  4 12  1  0  0  0  0
  4 11  1  0  0  0  0
  5 13  1  0  0  0  0
  5  4  1  0  0  0  0
  6 16  1  0  0  0  0
  6  5  1  0  0  0  0
  9  2  1  0  0  0  0
 14  5  1  0  0  0  0
 15  6  1  0  0  0  0
 17 18  1  0  0  0  0
 18 23  1  0  0  0  0
 19 20  1  0  0  0  0
 19 18  2  0  0  0  0
 20 21  2  0  0  0  0
 21 25  1  0  0  0  0
 21 22  1  0  0  0  0
 22 26  1  0  0  0  0
 23 22  2  0  0  0  0
 23 27  1  0  0  0  0
 24 20  1  0  0  0  0
 27 28  1  0  0  0  0
 28 29  1  0  0  0  0
 29 30  1  0  0  0  0
 31 30  1  0  0  0  0
 32 27  1  0  0  0  0
 32 31  1  0  0  0  0
 33 34  1  0  0  0  0
 33  1  1  0  0  0  0
 34 39  1  0  0  0  0
 35 34  2  0  0  0  0
 36 35  1  0  0  0  0
 37 36  2  0  0  0  0
 37 38  1  0  0  0  0
 38 33  2  0  0  0  0
 40 35  1  0  0  0  0
 41 37  1  0  0  0  0
M  END
>  <minimizedAffinity>
-5.76063919

$$$$

 OpenBabel03272506003D

 41 44  0  0  1  0  0  0  0  0999 V2000
   38.9580   26.1820   31.6350 C   0  0  2  0  0  0  0  0  0  0  0  0
   38.2060   27.4280   31.9170 C   0  0  0  0  0  0  0  0  0  0  0  0
   36.7740   27.1510   32.4050 C   0  0  2  0  0  0  0  0  0  0  0  0
   35.9790   26.3200   31.5060 C   0  0  0  0  0  0  0  0  0  0  0  0
   36.7810   25.2010   30.8420 C   0  0  0  0  0  0  0  0  0  0  0  0
   38.0780   24.9530   31.5680 C   0  0  0  0  0  0  0  0  0  0  0  0
   39.4720   26.2190   30.6280 H   0  0  0  0  0  0  0  0  0  0  0  0
   38.0450   27.9690   30.9370 H   0  0  0  0  0  0  0  0  0  0  0  0
   38.5590   28.1590   32.6030 H   0  0  0  0  0  0  0  0  0  0  0  0
   36.8500   26.7440   33.4230 H   0  0  0  0  0  0  0  0  0  0  0  0
   35.1050   25.9090   32.0530 H   0  0  0  0  0  0  0  0  0  0  0  0
   35.5550   26.9100   30.6730 H   0  0  0  0  0  0  0  0  0  0  0  0
   36.1770   24.2790   30.9410 H   0  0  0  0  0  0  0  0  0  0  0  0
   36.9280   25.3730   29.7570 H   0  0  0  0  0  0  0  0  0  0  0  0
   38.6130   24.1610   31.0440 H   0  0  0  0  0  0  0  0  0  0  0  0
   37.8170   24.6760   32.6170 H   0  0  0  0  0  0  0  0  0  0  0  0
   36.6780   28.2520   35.1420 Cl  0  0  0  0  0  0  0  0  0  0  0  0
   36.0490   29.1220   33.7520 C   0  0  0  0  0  0  0  0  0  0  0  0
   36.1730   28.5150   32.5110 C   0  0  0  0  0  0  0  0  0  0  0  0
   35.6600   29.2810   31.4890 C   0  0  0  0  0  0  0  0  0  0  0  0
   35.0860   30.5200   31.6940 C   0  0  0  0  0  0  0  0  0  0  0  0
   35.0010   31.0570   32.9740 C   0  0  0  0  0  0  0  0  0  0  0  0
   35.5080   30.3200   34.0400 C   0  0  0  0  0  0  0  0  0  0  0  0
   35.7230   28.8810   30.4850 H   0  0  0  0  0  0  0  0  0  0  0  0
   34.7120   31.0350   30.8040 H   0  0  0  0  0  0  0  0  0  0  0  0
   34.5440   32.0210   33.0590 H   0  0  0  0  0  0  0  0  0  0  0  0
   35.4160   30.8950   35.4070 C   0  0  0  0  0  3  0  0  0  0  0  0
   33.9840   31.2520   35.7600 C   0  0  0  0  0  2  0  0  0  0  0  0
   33.9770   31.9120   37.1130 C   0  0  0  0  0  2  0  0  0  0  0  0
   34.5800   33.2970   37.0460 C   0  0  0  0  0  2  0  0  0  0  0  0
   35.4170   33.3850   35.8070 C   0  0  0  0  0  2  0  0  0  0  0  0
   36.2620   32.1210   35.6030 C   0  0  0  0  0  2  0  0  0  0  0  0
   40.0190   25.9120   32.6150 C   0  0  0  0  0  0  0  0  0  0  0  0
   40.3010   26.9630   33.4880 C   0  0  0  0  0  0  0  0  0  0  0  0
   41.2950   26.7510   34.4530 C   0  0  0  0  0  0  0  0  0  0  0  0
   41.9440   25.5220   34.4940 N   0  0  0  0  0  0  0  0  0  0  0  0
   41.6370   24.5340   33.6290 C   0  0  0  0  0  0  0  0  0  0  0  0
   40.6870   24.7620   32.7200 N   0  0  0  0  0  0  0  0  0  0  0  0
   39.9970   27.9730   33.6910 H   0  0  0  0  0  0  0  0  0  0  0  0
   41.7020   27.3630   35.2250 H   0  0  0  0  0  0  0  0  0  0  0  0
   42.1150   23.5830   33.6330 H   0  0  0  0  0  0  0  0  0  0  0  0
  1  7  1  6  0  0  0
  1  2  1  0  0  0  0
  1 33  1  0  0  0  0
  2  3  1  0  0  0  0
  2  9  1  0  0  0  0
  3 19  1  0  0  0  0
  3 10  1  1  0  0  0
  4 11  1  0  0  0  0
  4  3  1  0  0  0  0
  5 13  1  0  0  0  0
  5  4  1  0  0  0  0
  5  6  1  0  0  0  0
  6  1  1  0  0  0  0
  6 16  1  0  0  0  0
  8  2  1  0  0  0  0
 12  4  1  0  0  0  0
 14  5  1  0  0  0  0
 15  6  1  0  0  0  0
 18 23  1  0  0  0  0
 18 17  1  0  0  0  0
 19 18  2  0  0  0  0
 20 21  2  0  0  0  0
 20 19  1  0  0  0  0
 21 22  1  0  0  0  0
 22 26  1  0  0  0  0
 22 23  2  0  0  0  0
 23 27  1  0  0  0  0
 24 20  1  0  0  0  0
 25 21  1  0  0  0  0
 27 32  1  0  0  0  0
 27 28  1  0  0  0  0
 28 29  1  0  0  0  0
 30 29  1  0  0  0  0
 31 30  1  0  0  0  0
 32 31  1  0  0  0  0
 33 38  2  0  0  0  0
 33 34  1  0  0  0  0
 34 39  1  0  0  0  0
 34 35  2  0  0  0  0
 35 36  1  0  0  0  0
 35 40  1  0  0  0  0
 37 41  1  0  0  0  0
 37 36  2  0  0  0  0
 38 37  1  0  0  0  0
M  END
>  <minimizedAffinity>
-5.75852394

$$$$

 OpenBabel03272506003D

 41 44  0  0  1  0  0  0  0  0999 V2000
   35.1430   29.4340   33.0830 C   0  0  2  0  0  0  0  0  0  0  0  0
   35.7510   28.1090   33.3490 C   0  0  0  0  0  0  0  0  0  0  0  0
   37.2110   28.0270   32.8740 C   0  0  2  0  0  0  0  0  0  0  0  0
   37.4090   28.3570   31.4660 C   0  0  0  0  0  0  0  0  0  0  0  0
   36.5180   29.4980   30.9770 C   0  0  0  0  0  0  0  0  0  0  0  0
   35.9540   30.2860   32.1310 C   0  0  0  0  0  0  0  0  0  0  0  0
   34.1290   29.3410   32.5880 H   0  0  0  0  0  0  0  0  0  0  0  0
   35.2250   27.3460   32.6990 H   0  0  0  0  0  0  0  0  0  0  0  0
   35.7890   27.6890   34.3240 H   0  0  0  0  0  0  0  0  0  0  0  0
   37.8090   28.6480   33.5560 H   0  0  0  0  0  0  0  0  0  0  0  0
   38.4800   28.5860   31.2820 H   0  0  0  0  0  0  0  0  0  0  0  0
   37.1740   27.4990   30.8100 H   0  0  0  0  0  0  0  0  0  0  0  0
   37.1710   30.1870   30.4070 H   0  0  0  0  0  0  0  0  0  0  0  0
   35.7310   29.1500   30.2760 H   0  0  0  0  0  0  0  0  0  0  0  0
   35.3170   31.0720   31.7260 H   0  0  0  0  0  0  0  0  0  0  0  0
   36.8220   30.6880   32.7060 H   0  0  0  0  0  0  0  0  0  0  0  0
   35.9400   26.0810   31.0560 Cl  0  0  0  0  0  0  0  0  0  0  0  0
   37.0220   25.5950   32.3520 C   0  0  0  0  0  0  0  0  0  0  0  0
   37.5800   26.6010   33.1260 C   0  0  0  0  0  0  0  0  0  0  0  0
   38.4190   26.1180   34.1050 C   0  0  0  0  0  0  0  0  0  0  0  0
   38.6670   24.7720   34.2840 C   0  0  0  0  0  0  0  0  0  0  0  0
   38.0640   23.8260   33.4620 C   0  0  0  0  0  0  0  0  0  0  0  0
   37.2090   24.2670   32.4570 C   0  0  0  0  0  0  0  0  0  0  0  0
   38.9000   26.8410   34.7510 H   0  0  0  0  0  0  0  0  0  0  0  0
   39.3510   24.5080   35.0960 H   0  0  0  0  0  0  0  0  0  0  0  0
   38.3010   22.8010   33.6570 H   0  0  0  0  0  0  0  0  0  0  0  0
   36.5660   23.2550   31.5780 C   0  0  0  0  0  3  0  0  0  0  0  0
   35.8730   22.1790   32.3940 C   0  0  0  0  0  2  0  0  0  0  0  0
   35.3260   21.1430   31.4480 C   0  0  0  0  0  2  0  0  0  0  0  0
   36.4400   20.3250   30.8340 C   0  0  0  0  0  2  0  0  0  0  0  0
   37.7170   21.0950   30.9690 C   0  0  0  0  0  2  0  0  0  0  0  0
   37.5200   22.5800   30.6360 C   0  0  0  0  0  2  0  0  0  0  0  0
   34.9200   30.2240   34.3010 C   0  0  0  0  0  0  0  0  0  0  0  0
   33.6000   30.2600   34.7510 C   0  0  0  0  0  0  0  0  0  0  0  0
   33.3360   30.9870   35.9200 C   0  0  0  0  0  0  0  0  0  0  0  0
   34.3880   31.6290   36.5660 N   0  0  0  0  0  0  0  0  0  0  0  0
   35.6490   31.5660   36.0940 C   0  0  0  0  0  0  0  0  0  0  0  0
   35.8730   30.8660   34.9790 N   0  0  0  0  0  0  0  0  0  0  0  0
   32.6250   29.8960   34.4840 H   0  0  0  0  0  0  0  0  0  0  0  0
   32.4450   31.1780   36.4730 H   0  0  0  0  0  0  0  0  0  0  0  0
   36.4740   32.0450   36.5640 H   0  0  0  0  0  0  0  0  0  0  0  0
  1  7  1  6  0  0  0
  1  2  1  0  0  0  0
  1 33  1  0  0  0  0
  2  9  1  0  0  0  0
  3 19  1  0  0  0  0
  3  2  1  0  0  0  0
  3 10  1  1  0  0  0
  4  3  1  0  0  0  0
  5  4  1  0  0  0  0
  5  6  1  0  0  0  0
  6 16  1  0  0  0  0
  6  1  1  0  0  0  0
  8  2  1  0  0  0  0
 11  4  1  0  0  0  0
 12  4  1  0  0  0  0
 13  5  1  0  0  0  0
 14  5  1  0  0  0  0
 15  6  1  0  0  0  0
 17 18  1  0  0  0  0
 18 23  2  0  0  0  0
 18 19  1  0  0  0  0
 19 20  2  0  0  0  0
 20 21  1  0  0  0  0
 20 24  1  0  0  0  0
 21 25  1  0  0  0  0
 22 26  1  0  0  0  0
 22 21  2  0  0  0  0
 23 22  1  0  0  0  0
 27 28  1  0  0  0  0
 27 23  1  0  0  0  0
 29 28  1  0  0  0  0
 30 31  1  0  0  0  0
 30 29  1  0  0  0  0
 32 31  1  0  0  0  0
 32 27  1  0  0  0  0
 33 34  2  0  0  0  0
 33 38  1  0  0  0  0
 34 35  1  0  0  0  0
 35 40  1  0  0  0  0
 35 36  2  0  0  0  0
 37 41  1  0  0  0  0
 37 36  1  0  0  0  0
 38 37  2  0  0  0  0
 39 34  1  0  0  0  0
M  END
>  <minimizedAffinity>
-5.75233507

$$$$
