
 OpenBabel03272506323D

 37 39  0  0  1  0  0  0  0  0999 V2000
   38.5240   26.5130   32.7340 C   0  0  1  0  0  0  0  0  0  0  0  0
   39.7830   26.6760   32.0410 C   0  0  0  0  0  0  0  0  0  0  0  0
   40.9150   27.3180   32.8170 C   0  0  0  0  0  0  0  0  0  0  0  0
   40.9870   26.9680   34.2630 C   0  0  0  0  0  0  0  0  0  0  0  0
   39.7060   26.7600   34.9840 C   0  0  0  0  0  0  0  0  0  0  0  0
   38.6980   26.0520   34.1610 C   0  0  2  0  0  0  0  0  0  0  0  0
   37.9610   25.6410   32.2710 H   0  0  0  0  0  0  0  0  0  0  0  0
   40.1760   25.6360   31.8380 H   0  0  0  0  0  0  0  0  0  0  0  0
   39.7820   27.1430   31.0620 H   0  0  0  0  0  0  0  0  0  0  0  0
   41.8810   27.0460   32.3410 H   0  0  0  0  0  0  0  0  0  0  0  0
   40.8360   28.4220   32.6850 H   0  0  0  0  0  0  0  0  0  0  0  0
   41.6830   26.1080   34.4060 H   0  0  0  0  0  0  0  0  0  0  0  0
   41.5000   27.8290   34.7660 H   0  0  0  0  0  0  0  0  0  0  0  0
   39.2950   27.7730   35.2480 H   0  0  0  0  0  0  0  0  0  0  0  0
   39.8840   26.1750   35.8850 H   0  0  0  0  0  0  0  0  0  0  0  0
   37.7650   25.9630   34.7190 H   0  0  0  0  0  0  0  0  0  0  0  0
   36.6240   27.9560   33.6550 C   0  0  0  0  0  0  0  0  0  0  0  0
   37.5550   27.6170   32.6250 C   0  0  0  0  0  0  0  0  0  0  0  0
   37.4950   28.4000   31.4860 C   0  0  0  0  0  0  0  0  0  0  0  0
   36.5810   29.4200   31.4130 N   0  0  0  0  0  0  0  0  0  0  0  0
   35.7290   29.6930   32.4160 C   0  0  0  0  0  0  0  0  0  0  0  0
   35.7540   28.9460   33.5540 N   0  0  0  0  0  0  0  0  0  0  0  0
   36.6500   27.3580   34.5560 H   0  0  0  0  0  0  0  0  0  0  0  0
   38.1410   28.2340   30.6610 H   0  0  0  0  0  0  0  0  0  0  0  0
   35.0470   30.5130   32.2660 H   0  0  0  0  0  0  0  0  0  0  0  0
   39.2270   24.6000   34.0340 C   0  0  0  0  0  0  0  0  0  0  0  0
   40.1330   24.4530   34.6590 H   0  0  0  0  0  0  0  0  0  0  0  0
   39.5340   24.3580   33.0200 H   0  0  0  0  0  0  0  0  0  0  0  0
   38.1800   23.6230   34.5700 C   0  0  0  0  0  0  0  0  0  0  0  0
   37.1640   24.0410   34.4090 H   0  0  0  0  0  0  0  0  0  0  0  0
   38.2430   22.7170   33.9320 H   0  0  0  0  0  0  0  0  0  0  0  0
   38.3940   23.2330   35.9810 C   0  0  0  0  0  3  0  0  0  0  0  0
   37.4510   24.0290   36.8610 C   0  0  0  0  0  2  0  0  0  0  0  0
   38.1310   24.4650   38.1460 C   0  0  0  0  0  2  0  0  0  0  0  0
   38.8030   23.2610   38.7300 C   0  0  0  0  0  2  0  0  0  0  0  0
   39.9640   22.8630   37.8600 C   0  0  0  0  0  2  0  0  0  0  0  0
   39.8250   23.2850   36.4370 C   0  0  0  0  0  2  0  0  0  0  0  0
  1  7  1  6  0  0  0
  1  6  1  0  0  0  0
  2  1  1  0  0  0  0
  2  3  1  0  0  0  0
  3  4  1  0  0  0  0
  4 12  1  0  0  0  0
  4 13  1  0  0  0  0
  4  5  1  0  0  0  0
  5 14  1  0  0  0  0
  5 15  1  0  0  0  0
  6 16  1  1  0  0  0
  6  5  1  0  0  0  0
  8  2  1  0  0  0  0
  9  2  1  0  0  0  0
 10  3  1  0  0  0  0
 11  3  1  0  0  0  0
 17 23  1  0  0  0  0
 18  1  1  0  0  0  0
 18 17  2  0  0  0  0
 19 18  1  0  0  0  0
 20 19  2  0  0  0  0
 20 21  1  0  0  0  0
 21 22  2  0  0  0  0
 22 17  1  0  0  0  0
 24 19  1  0  0  0  0
 25 21  1  0  0  0  0
 26  6  1  0  0  0  0
 26 29  1  0  0  0  0
 26 27  1  0  0  0  0
 28 26  1  0  0  0  0
 29 32  1  0  0  0  0
 30 29  1  0  0  0  0
 31 29  1  0  0  0  0
 32 37  1  0  0  0  0
 32 33  1  0  0  0  0
 33 34  1  0  0  0  0
 34 35  1  0  0  0  0
 36 35  1  0  0  0  0
 37 36  1  0  0  0  0
M  END
>  <minimizedAffinity>
-5.2909646

$$$$

 OpenBabel03272506323D

 37 39  0  0  1  0  0  0  0  0999 V2000
   38.5800   23.3700   35.6980 C   0  0  1  0  0  0  0  0  0  0  0  0
   38.6360   23.7050   37.1030 C   0  0  0  0  0  0  0  0  0  0  0  0
   39.5690   22.8820   37.9680 C   0  0  0  0  0  0  0  0  0  0  0  0
   40.8480   22.4680   37.3270 C   0  0  0  0  0  0  0  0  0  0  0  0
   40.8190   22.1540   35.8760 C   0  0  0  0  0  0  0  0  0  0  0  0
   39.9400   23.0710   35.1130 C   0  0  2  0  0  0  0  0  0  0  0  0
   38.2700   24.2930   35.1120 H   0  0  0  0  0  0  0  0  0  0  0  0
   39.0830   24.7410   37.1690 H   0  0  0  0  0  0  0  0  0  0  0  0
   37.7060   23.7920   37.6560 H   0  0  0  0  0  0  0  0  0  0  0  0
   39.8070   23.4530   38.8910 H   0  0  0  0  0  0  0  0  0  0  0  0
   39.0040   21.9900   38.3260 H   0  0  0  0  0  0  0  0  0  0  0  0
   41.6460   23.2080   37.5710 H   0  0  0  0  0  0  0  0  0  0  0  0
   41.1680   21.5280   37.8490 H   0  0  0  0  0  0  0  0  0  0  0  0
   40.4210   21.1090   35.7610 H   0  0  0  0  0  0  0  0  0  0  0  0
   41.8250   22.2260   35.4670 H   0  0  0  0  0  0  0  0  0  0  0  0
   39.9200   22.7730   34.0640 H   0  0  0  0  0  0  0  0  0  0  0  0
   36.6640   21.7510   36.1970 C   0  0  0  0  0  0  0  0  0  0  0  0
   37.5740   22.3740   35.2890 C   0  0  0  0  0  0  0  0  0  0  0  0
   37.4590   21.9820   33.9670 C   0  0  0  0  0  0  0  0  0  0  0  0
   36.5140   21.0530   33.6160 N   0  0  0  0  0  0  0  0  0  0  0  0
   35.6840   20.4990   34.5170 C   0  0  0  0  0  0  0  0  0  0  0  0
   35.7630   20.8570   35.8280 N   0  0  0  0  0  0  0  0  0  0  0  0
   36.7340   22.0400   37.2370 H   0  0  0  0  0  0  0  0  0  0  0  0
   38.0860   22.3830   33.2100 H   0  0  0  0  0  0  0  0  0  0  0  0
   34.9750   19.7780   34.1460 H   0  0  0  0  0  0  0  0  0  0  0  0
   40.6720   24.4380   35.1260 C   0  0  0  0  0  0  0  0  0  0  0  0
   41.7720   24.2960   35.1650 H   0  0  0  0  0  0  0  0  0  0  0  0
   40.4250   25.0320   36.0010 H   0  0  0  0  0  0  0  0  0  0  0  0
   40.3880   25.1840   33.8210 C   0  0  0  0  0  0  0  0  0  0  0  0
   41.3420   25.5460   33.3840 H   0  0  0  0  0  0  0  0  0  0  0  0
   39.9930   24.4280   33.1100 H   0  0  0  0  0  0  0  0  0  0  0  0
   39.4000   26.2760   33.9600 C   0  0  0  0  0  3  0  0  0  0  0  0
   39.5200   26.8760   35.3460 C   0  0  0  0  0  2  0  0  0  0  0  0
   38.1560   27.2060   35.9250 C   0  0  0  0  0  2  0  0  0  0  0  0
   37.3990   27.9700   34.8830 C   0  0  0  0  0  2  0  0  0  0  0  0
   37.0600   27.0540   33.7380 C   0  0  0  0  0  2  0  0  0  0  0  0
   37.9930   25.9010   33.5900 C   0  0  0  0  0  2  0  0  0  0  0  0
  1  7  1  6  0  0  0
  1  2  1  0  0  0  0
  2  8  1  0  0  0  0
  2  9  1  0  0  0  0
  2  3  1  0  0  0  0
  3 11  1  0  0  0  0
  3 10  1  0  0  0  0
  4 12  1  0  0  0  0
  4 13  1  0  0  0  0
  4  3  1  0  0  0  0
  5  4  1  0  0  0  0
  6 16  1  6  0  0  0
  6 26  1  0  0  0  0
  6  1  1  0  0  0  0
  6  5  1  0  0  0  0
 14  5  1  0  0  0  0
 15  5  1  0  0  0  0
 17 23  1  0  0  0  0
 18  1  1  0  0  0  0
 18 17  2  0  0  0  0
 19 18  1  0  0  0  0
 20 19  2  0  0  0  0
 20 21  1  0  0  0  0
 21 22  2  0  0  0  0
 22 17  1  0  0  0  0
 24 19  1  0  0  0  0
 25 21  1  0  0  0  0
 26 27  1  0  0  0  0
 26 28  1  0  0  0  0
 29 32  1  0  0  0  0
 29 26  1  0  0  0  0
 30 29  1  0  0  0  0
 31 29  1  0  0  0  0
 32 33  1  0  0  0  0
 33 34  1  0  0  0  0
 35 34  1  0  0  0  0
 36 35  1  0  0  0  0
 37 36  1  0  0  0  0
 37 32  1  0  0  0  0
M  END
>  <minimizedAffinity>
-5.22627163

$$$$

 OpenBabel03272506323D

 37 39  0  0  1  0  0  0  0  0999 V2000
   38.8090   24.4420   35.1140 C   0  0  1  0  0  0  0  0  0  0  0  0
   37.8210   25.0880   35.9480 C   0  0  0  0  0  0  0  0  0  0  0  0
   38.1880   26.4410   36.5250 C   0  0  0  0  0  0  0  0  0  0  0  0
   38.9950   27.3240   35.6370 C   0  0  0  0  0  0  0  0  0  0  0  0
   39.9910   26.6760   34.7450 C   0  0  0  0  0  0  0  0  0  0  0  0
   39.4980   25.4010   34.1730 C   0  0  2  0  0  0  0  0  0  0  0  0
   38.2790   23.7430   34.3920 H   0  0  0  0  0  0  0  0  0  0  0  0
   36.9430   25.3310   35.2790 H   0  0  0  0  0  0  0  0  0  0  0  0
   37.3740   24.5230   36.7600 H   0  0  0  0  0  0  0  0  0  0  0  0
   37.2580   26.9800   36.8050 H   0  0  0  0  0  0  0  0  0  0  0  0
   38.7170   26.2680   37.4910 H   0  0  0  0  0  0  0  0  0  0  0  0
   38.3180   28.0050   35.0700 H   0  0  0  0  0  0  0  0  0  0  0  0
   39.5720   28.0040   36.3170 H   0  0  0  0  0  0  0  0  0  0  0  0
   40.9050   26.4540   35.3600 H   0  0  0  0  0  0  0  0  0  0  0  0
   40.2370   27.3470   33.9240 H   0  0  0  0  0  0  0  0  0  0  0  0
   40.2780   24.9470   33.5620 H   0  0  0  0  0  0  0  0  0  0  0  0
   40.9870   23.1030   35.1880 C   0  0  0  0  0  0  0  0  0  0  0  0
   39.7670   23.5460   35.7860 C   0  0  0  0  0  0  0  0  0  0  0  0
   39.5230   23.0760   37.0640 C   0  0  0  0  0  0  0  0  0  0  0  0
   40.4320   22.2430   37.6630 N   0  0  0  0  0  0  0  0  0  0  0  0
   41.5660   21.8580   37.0510 C   0  0  0  0  0  0  0  0  0  0  0  0
   41.8440   22.2980   35.7930 N   0  0  0  0  0  0  0  0  0  0  0  0
   41.2010   23.4570   34.1890 H   0  0  0  0  0  0  0  0  0  0  0  0
   38.6470   23.3430   37.5990 H   0  0  0  0  0  0  0  0  0  0  0  0
   42.2180   21.2020   37.6020 H   0  0  0  0  0  0  0  0  0  0  0  0
   38.3920   25.8110   33.1660 C   0  0  0  0  0  0  0  0  0  0  0  0
   37.6150   26.4290   33.6620 H   0  0  0  0  0  0  0  0  0  0  0  0
   37.8630   24.9530   32.7600 H   0  0  0  0  0  0  0  0  0  0  0  0
   38.9960   26.6910   32.0700 C   0  0  0  0  0  0  0  0  0  0  0  0
   40.0160   27.0090   32.3690 H   0  0  0  0  0  0  0  0  0  0  0  0
   39.1270   26.0360   31.1830 H   0  0  0  0  0  0  0  0  0  0  0  0
   38.1480   27.8440   31.6960 C   0  0  0  0  0  3  0  0  0  0  0  0
   36.9750   27.9240   32.6510 C   0  0  0  0  0  2  0  0  0  0  0  0
   35.6960   28.3010   31.9240 C   0  0  0  0  0  2  0  0  0  0  0  0
   36.0000   29.4920   31.0690 C   0  0  0  0  0  2  0  0  0  0  0  0
   36.9120   29.0820   29.9440 C   0  0  0  0  0  2  0  0  0  0  0  0
   37.7460   27.8850   30.2490 C   0  0  0  0  0  2  0  0  0  0  0  0
  1  7  1  6  0  0  0
  1 18  1  0  0  0  0
  1  2  1  0  0  0  0
  2  3  1  0  0  0  0
  2  9  1  0  0  0  0
  3 10  1  0  0  0  0
  3 11  1  0  0  0  0
  4 13  1  0  0  0  0
  4  3  1  0  0  0  0
  5 14  1  0  0  0  0
  5  4  1  0  0  0  0
  6 16  1  6  0  0  0
  6  5  1  0  0  0  0
  6  1  1  0  0  0  0
  8  2  1  0  0  0  0
 12  4  1  0  0  0  0
 15  5  1  0  0  0  0
 17 18  2  0  0  0  0
 17 22  1  0  0  0  0
 18 19  1  0  0  0  0
 19 24  1  0  0  0  0
 19 20  2  0  0  0  0
 21 25  1  0  0  0  0
 21 20  1  0  0  0  0
 22 21  2  0  0  0  0
 23 17  1  0  0  0  0
 26 27  1  0  0  0  0
 26  6  1  0  0  0  0
 28 26  1  0  0  0  0
 29 30  1  0  0  0  0
 29 26  1  0  0  0  0
 31 29  1  0  0  0  0
 32 29  1  0  0  0  0
 32 33  1  0  0  0  0
 34 33  1  0  0  0  0
 35 34  1  0  0  0  0
 36 37  1  0  0  0  0
 36 35  1  0  0  0  0
 37 32  1  0  0  0  0
M  END
>  <minimizedAffinity>
-5.10362101

$$$$

 OpenBabel03272506323D

 37 39  0  0  1  0  0  0  0  0999 V2000
   38.3520   24.3980   35.0790 C   0  0  1  0  0  0  0  0  0  0  0  0
   37.7930   25.5220   35.7970 C   0  0  0  0  0  0  0  0  0  0  0  0
   38.5720   26.8200   35.7560 C   0  0  0  0  0  0  0  0  0  0  0  0
   39.2540   27.1230   34.4660 C   0  0  0  0  0  0  0  0  0  0  0  0
   39.8040   25.9800   33.6940 C   0  0  0  0  0  0  0  0  0  0  0  0
   38.9230   24.7890   33.7360 C   0  0  2  0  0  0  0  0  0  0  0  0
   37.5100   23.6970   34.7820 H   0  0  0  0  0  0  0  0  0  0  0  0
   36.8280   25.7910   35.2740 H   0  0  0  0  0  0  0  0  0  0  0  0
   37.4920   25.3810   36.8310 H   0  0  0  0  0  0  0  0  0  0  0  0
   37.8890   27.6620   35.9970 H   0  0  0  0  0  0  0  0  0  0  0  0
   39.3080   26.8040   36.5930 H   0  0  0  0  0  0  0  0  0  0  0  0
   38.5950   27.7650   33.8350 H   0  0  0  0  0  0  0  0  0  0  0  0
   40.1250   27.7820   34.7220 H   0  0  0  0  0  0  0  0  0  0  0  0
   40.7910   25.7020   34.1540 H   0  0  0  0  0  0  0  0  0  0  0  0
   39.9360   26.2710   32.6540 H   0  0  0  0  0  0  0  0  0  0  0  0
   39.3900   23.9670   33.1930 H   0  0  0  0  0  0  0  0  0  0  0  0
   40.2530   22.6910   35.2080 C   0  0  0  0  0  0  0  0  0  0  0  0
   39.2620   23.5130   35.8270 C   0  0  0  0  0  0  0  0  0  0  0  0
   39.1960   23.4310   37.2070 C   0  0  0  0  0  0  0  0  0  0  0  0
   40.0540   22.5970   37.8770 N   0  0  0  0  0  0  0  0  0  0  0  0
   40.9690   21.8460   37.2390 C   0  0  0  0  0  0  0  0  0  0  0  0
   41.0670   21.8970   35.8820 N   0  0  0  0  0  0  0  0  0  0  0  0
   40.3240   22.7370   34.1290 H   0  0  0  0  0  0  0  0  0  0  0  0
   38.4960   23.9990   37.7670 H   0  0  0  0  0  0  0  0  0  0  0  0
   41.5980   21.2210   37.8500 H   0  0  0  0  0  0  0  0  0  0  0  0
   37.6820   25.1730   32.8890 C   0  0  0  0  0  0  0  0  0  0  0  0
   37.5250   26.2720   32.8960 H   0  0  0  0  0  0  0  0  0  0  0  0
   36.7630   24.7470   33.2840 H   0  0  0  0  0  0  0  0  0  0  0  0
   37.9190   24.7880   31.4280 C   0  0  0  0  0  0  0  0  0  0  0  0
   37.6470   25.6400   30.7700 H   0  0  0  0  0  0  0  0  0  0  0  0
   39.0150   24.6530   31.3160 H   0  0  0  0  0  0  0  0  0  0  0  0
   37.2350   23.5410   31.0210 C   0  0  0  0  0  3  0  0  0  0  0  0
   35.8400   23.5280   31.6130 C   0  0  0  0  0  2  0  0  0  0  0  0
   35.4610   22.1410   32.1020 C   0  0  0  0  0  2  0  0  0  0  0  0
   35.7760   21.1760   31.0020 C   0  0  0  0  0  2  0  0  0  0  0  0
   37.2680   21.0720   30.8370 C   0  0  0  0  0  2  0  0  0  0  0  0
   38.0110   22.2830   31.2900 C   0  0  0  0  0  2  0  0  0  0  0  0
  1  7  1  6  0  0  0
  1  2  1  0  0  0  0
  1 18  1  0  0  0  0
  2  9  1  0  0  0  0
  3  2  1  0  0  0  0
  3 10  1  0  0  0  0
  3 11  1  0  0  0  0
  4 13  1  0  0  0  0
  4  3  1  0  0  0  0
  5  6  1  0  0  0  0
  5 14  1  0  0  0  0
  5  4  1  0  0  0  0
  6 16  1  6  0  0  0
  6  1  1  0  0  0  0
  8  2  1  0  0  0  0
 12  4  1  0  0  0  0
 15  5  1  0  0  0  0
 17 18  2  0  0  0  0
 17 22  1  0  0  0  0
 18 19  1  0  0  0  0
 19 24  1  0  0  0  0
 19 20  2  0  0  0  0
 21 25  1  0  0  0  0
 21 20  1  0  0  0  0
 22 21  2  0  0  0  0
 23 17  1  0  0  0  0
 26 27  1  0  0  0  0
 26 28  1  0  0  0  0
 26  6  1  0  0  0  0
 29 26  1  0  0  0  0
 30 29  1  0  0  0  0
 31 29  1  0  0  0  0
 32 37  1  0  0  0  0
 32 29  1  0  0  0  0
 32 33  1  0  0  0  0
 33 34  1  0  0  0  0
 35 34  1  0  0  0  0
 36 35  1  0  0  0  0
 36 37  1  0  0  0  0
M  END
>  <minimizedAffinity>
-5.07539892

$$$$

 OpenBabel03272506323D

 37 39  0  0  1  0  0  0  0  0999 V2000
   36.9790   26.8900   32.5390 C   0  0  1  0  0  0  0  0  0  0  0  0
   38.3710   27.2820   32.5580 C   0  0  0  0  0  0  0  0  0  0  0  0
   38.9660   27.7620   31.2500 C   0  0  0  0  0  0  0  0  0  0  0  0
   38.0560   28.5630   30.3820 C   0  0  0  0  0  0  0  0  0  0  0  0
   36.6160   28.1990   30.3760 C   0  0  0  0  0  0  0  0  0  0  0  0
   36.1190   27.8230   31.7210 C   0  0  2  0  0  0  0  0  0  0  0  0
   36.5460   27.0230   33.5810 H   0  0  0  0  0  0  0  0  0  0  0  0
   38.4380   28.1980   33.2160 H   0  0  0  0  0  0  0  0  0  0  0  0
   39.0970   26.6020   32.9900 H   0  0  0  0  0  0  0  0  0  0  0  0
   39.8700   28.3700   31.4640 H   0  0  0  0  0  0  0  0  0  0  0  0
   39.3470   26.8710   30.7000 H   0  0  0  0  0  0  0  0  0  0  0  0
   38.2050   29.6490   30.5840 H   0  0  0  0  0  0  0  0  0  0  0  0
   38.4240   28.4200   29.3310 H   0  0  0  0  0  0  0  0  0  0  0  0
   36.4910   27.3130   29.6950 H   0  0  0  0  0  0  0  0  0  0  0  0
   36.0280   29.0420   30.0170 H   0  0  0  0  0  0  0  0  0  0  0  0
   35.0720   27.5250   31.6550 H   0  0  0  0  0  0  0  0  0  0  0  0
   35.6220   25.0460   31.3990 C   0  0  0  0  0  0  0  0  0  0  0  0
   36.6880   25.4750   32.2480 C   0  0  0  0  0  0  0  0  0  0  0  0
   37.4540   24.4640   32.8010 C   0  0  0  0  0  0  0  0  0  0  0  0
   37.1580   23.1570   32.5130 N   0  0  0  0  0  0  0  0  0  0  0  0
   36.1400   22.8120   31.7050 C   0  0  0  0  0  0  0  0  0  0  0  0
   35.3620   23.7750   31.1400 N   0  0  0  0  0  0  0  0  0  0  0  0
   35.0080   25.8180   30.9540 H   0  0  0  0  0  0  0  0  0  0  0  0
   38.2700   24.6720   33.4460 H   0  0  0  0  0  0  0  0  0  0  0  0
   35.9860   21.7590   31.5380 H   0  0  0  0  0  0  0  0  0  0  0  0
   36.1080   29.1450   32.5320 C   0  0  0  0  0  0  0  0  0  0  0  0
   36.1420   30.0240   31.8550 H   0  0  0  0  0  0  0  0  0  0  0  0
   36.9770   29.2420   33.1770 H   0  0  0  0  0  0  0  0  0  0  0  0
   34.7950   29.2590   33.3070 C   0  0  0  0  0  0  0  0  0  0  0  0
   34.0190   29.7170   32.6590 H   0  0  0  0  0  0  0  0  0  0  0  0
   34.4570   28.2200   33.5030 H   0  0  0  0  0  0  0  0  0  0  0  0
   34.9230   29.9740   34.5960 C   0  0  0  0  0  3  0  0  0  0  0  0
   33.5390   30.2700   35.1360 C   0  0  0  0  0  2  0  0  0  0  0  0
   33.4750   31.6500   35.7660 C   0  0  0  0  0  2  0  0  0  0  0  0
   34.6420   31.7740   36.6950 C   0  0  0  0  0  2  0  0  0  0  0  0
   35.9160   31.8320   35.8970 C   0  0  0  0  0  2  0  0  0  0  0  0
   35.8220   31.1770   34.5610 C   0  0  0  0  0  2  0  0  0  0  0  0
  1  2  1  0  0  0  0
  1  7  1  1  0  0  0
  2  9  1  0  0  0  0
  2  8  1  0  0  0  0
  3 10  1  0  0  0  0
  3  2  1  0  0  0  0
  4 12  1  0  0  0  0
  4  3  1  0  0  0  0
  5  4  1  0  0  0  0
  5  6  1  0  0  0  0
  6 16  1  6  0  0  0
  6 26  1  0  0  0  0
  6  1  1  0  0  0  0
 11  3  1  0  0  0  0
 13  4  1  0  0  0  0
 14  5  1  0  0  0  0
 15  5  1  0  0  0  0
 17 18  1  0  0  0  0
 18  1  1  0  0  0  0
 18 19  2  0  0  0  0
 19 24  1  0  0  0  0
 20 19  1  0  0  0  0
 21 20  2  0  0  0  0
 22 17  2  0  0  0  0
 22 21  1  0  0  0  0
 23 17  1  0  0  0  0
 25 21  1  0  0  0  0
 26 28  1  0  0  0  0
 26 29  1  0  0  0  0
 27 26  1  0  0  0  0
 29 31  1  0  0  0  0
 29 32  1  0  0  0  0
 30 29  1  0  0  0  0
 32 33  1  0  0  0  0
 33 34  1  0  0  0  0
 34 35  1  0  0  0  0
 36 35  1  0  0  0  0
 37 32  1  0  0  0  0
 37 36  1  0  0  0  0
M  END
>  <minimizedAffinity>
-5.04003191

$$$$

 OpenBabel03272506323D

 37 39  0  0  1  0  0  0  0  0999 V2000
   39.3710   23.5410   35.5770 C   0  0  1  0  0  0  0  0  0  0  0  0
   38.4120   22.7140   34.8800 C   0  0  0  0  0  0  0  0  0  0  0  0
   37.4220   21.9450   35.7310 C   0  0  0  0  0  0  0  0  0  0  0  0
   36.9360   22.6490   36.9510 C   0  0  0  0  0  0  0  0  0  0  0  0
   37.8950   23.5320   37.6620 C   0  0  0  0  0  0  0  0  0  0  0  0
   38.7600   24.2970   36.7330 C   0  0  2  0  0  0  0  0  0  0  0  0
   39.6960   24.3850   34.8900 H   0  0  0  0  0  0  0  0  0  0  0  0
   37.7480   23.4150   34.2940 H   0  0  0  0  0  0  0  0  0  0  0  0
   38.7730   22.0170   34.1300 H   0  0  0  0  0  0  0  0  0  0  0  0
   36.5420   21.6750   35.1090 H   0  0  0  0  0  0  0  0  0  0  0  0
   37.8880   20.9700   36.0010 H   0  0  0  0  0  0  0  0  0  0  0  0
   35.9810   23.1780   36.7250 H   0  0  0  0  0  0  0  0  0  0  0  0
   36.6460   21.8450   37.6790 H   0  0  0  0  0  0  0  0  0  0  0  0
   38.5540   22.8790   38.2980 H   0  0  0  0  0  0  0  0  0  0  0  0
   37.3490   24.2410   38.2820 H   0  0  0  0  0  0  0  0  0  0  0  0
   39.4720   24.8960   37.3030 H   0  0  0  0  0  0  0  0  0  0  0  0
   41.9110   23.3050   35.3960 C   0  0  0  0  0  0  0  0  0  0  0  0
   40.6520   22.9130   35.9460 C   0  0  0  0  0  0  0  0  0  0  0  0
   40.6980   21.8810   36.8670 C   0  0  0  0  0  0  0  0  0  0  0  0
   41.9040   21.3150   37.1890 N   0  0  0  0  0  0  0  0  0  0  0  0
   43.0600   21.7260   36.6380 C   0  0  0  0  0  0  0  0  0  0  0  0
   43.0590   22.7380   35.7280 N   0  0  0  0  0  0  0  0  0  0  0  0
   41.9030   24.1090   34.6730 H   0  0  0  0  0  0  0  0  0  0  0  0
   39.8200   21.5130   37.3350 H   0  0  0  0  0  0  0  0  0  0  0  0
   43.9560   21.2190   36.9540 H   0  0  0  0  0  0  0  0  0  0  0  0
   37.8180   25.3300   36.0610 C   0  0  0  0  0  0  0  0  0  0  0  0
   36.8640   25.4170   36.6220 H   0  0  0  0  0  0  0  0  0  0  0  0
   37.5360   25.0380   35.0530 H   0  0  0  0  0  0  0  0  0  0  0  0
   38.4630   26.7160   36.1040 C   0  0  0  0  0  0  0  0  0  0  0  0
   37.7150   27.4630   36.4430 H   0  0  0  0  0  0  0  0  0  0  0  0
   39.2360   26.6750   36.8990 H   0  0  0  0  0  0  0  0  0  0  0  0
   39.1010   27.1170   34.8310 C   0  0  0  0  0  3  0  0  0  0  0  0
   38.2990   26.5510   33.6770 C   0  0  0  0  0  2  0  0  0  0  0  0
   39.2060   26.0490   32.5680 C   0  0  0  0  0  2  0  0  0  0  0  0
   40.2030   27.1290   32.2800 C   0  0  0  0  0  2  0  0  0  0  0  0
   41.1460   27.2640   33.4430 C   0  0  0  0  0  2  0  0  0  0  0  0
   40.5710   26.8160   34.7440 C   0  0  0  0  0  2  0  0  0  0  0  0
  1  7  1  6  0  0  0
  1 18  1  0  0  0  0
  1  6  1  0  0  0  0
  2  1  1  0  0  0  0
  2  3  1  0  0  0  0
  3 11  1  0  0  0  0
  3  4  1  0  0  0  0
  4  5  1  0  0  0  0
  4 13  1  0  0  0  0
  5 15  1  0  0  0  0
  5 14  1  0  0  0  0
  6 16  1  1  0  0  0
  6  5  1  0  0  0  0
  8  2  1  0  0  0  0
  9  2  1  0  0  0  0
 10  3  1  0  0  0  0
 12  4  1  0  0  0  0
 17 22  2  0  0  0  0
 17 18  1  0  0  0  0
 18 19  2  0  0  0  0
 19 20  1  0  0  0  0
 19 24  1  0  0  0  0
 21 25  1  0  0  0  0
 21 20  2  0  0  0  0
 22 21  1  0  0  0  0
 23 17  1  0  0  0  0
 26 29  1  0  0  0  0
 26 27  1  0  0  0  0
 26  6  1  0  0  0  0
 28 26  1  0  0  0  0
 29 30  1  0  0  0  0
 29 31  1  0  0  0  0
 32 29  1  0  0  0  0
 33 32  1  0  0  0  0
 34 33  1  0  0  0  0
 35 34  1  0  0  0  0
 35 36  1  0  0  0  0
 36 37  1  0  0  0  0
 37 32  1  0  0  0  0
M  END
>  <minimizedAffinity>
-5.02496862

$$$$

 OpenBabel03272506323D

 37 39  0  0  1  0  0  0  0  0999 V2000
   37.5920   26.8060   33.3040 C   0  0  1  0  0  0  0  0  0  0  0  0
   38.8160   26.7370   32.5370 C   0  0  0  0  0  0  0  0  0  0  0  0
   40.0880   27.1740   33.2340 C   0  0  0  0  0  0  0  0  0  0  0  0
   40.1840   26.8280   34.6800 C   0  0  0  0  0  0  0  0  0  0  0  0
   38.9320   26.8570   35.4780 C   0  0  0  0  0  0  0  0  0  0  0  0
   37.7660   26.3330   34.7270 C   0  0  2  0  0  0  0  0  0  0  0  0
   36.8570   26.0440   32.8910 H   0  0  0  0  0  0  0  0  0  0  0  0
   39.0060   25.6420   32.3310 H   0  0  0  0  0  0  0  0  0  0  0  0
   38.8390   27.1890   31.5510 H   0  0  0  0  0  0  0  0  0  0  0  0
   40.9610   26.7310   32.7090 H   0  0  0  0  0  0  0  0  0  0  0  0
   40.1980   28.2740   33.0870 H   0  0  0  0  0  0  0  0  0  0  0  0
   40.7240   25.8590   34.7990 H   0  0  0  0  0  0  0  0  0  0  0  0
   40.8700   27.5890   35.1370 H   0  0  0  0  0  0  0  0  0  0  0  0
   38.7230   27.9290   35.7460 H   0  0  0  0  0  0  0  0  0  0  0  0
   39.0570   26.2570   36.3770 H   0  0  0  0  0  0  0  0  0  0  0  0
   36.8680   26.4150   35.3390 H   0  0  0  0  0  0  0  0  0  0  0  0
   36.7470   28.8720   32.0550 C   0  0  0  0  0  0  0  0  0  0  0  0
   36.8280   28.0640   33.2310 C   0  0  0  0  0  0  0  0  0  0  0  0
   36.1350   28.5380   34.3300 C   0  0  0  0  0  0  0  0  0  0  0  0
   35.4350   29.7130   34.2330 N   0  0  0  0  0  0  0  0  0  0  0  0
   35.3940   30.4320   33.0980 C   0  0  0  0  0  0  0  0  0  0  0  0
   36.0620   30.0010   31.9930 N   0  0  0  0  0  0  0  0  0  0  0  0
   37.2800   28.5220   31.1820 H   0  0  0  0  0  0  0  0  0  0  0  0
   36.1300   28.0160   35.2540 H   0  0  0  0  0  0  0  0  0  0  0  0
   34.8170   31.3420   33.1190 H   0  0  0  0  0  0  0  0  0  0  0  0
   38.0220   24.8090   34.5960 C   0  0  0  0  0  0  0  0  0  0  0  0
   39.0260   24.6120   34.1650 H   0  0  0  0  0  0  0  0  0  0  0  0
   37.3180   24.3270   33.9230 H   0  0  0  0  0  0  0  0  0  0  0  0
   38.0260   24.1680   35.9850 C   0  0  0  0  0  0  0  0  0  0  0  0
   38.1570   24.9550   36.7570 H   0  0  0  0  0  0  0  0  0  0  0  0
   37.0070   23.7540   36.1400 H   0  0  0  0  0  0  0  0  0  0  0  0
   39.0160   23.0800   36.1380 C   0  0  0  0  0  3  0  0  0  0  0  0
   39.4500   23.0080   37.5880 C   0  0  0  0  0  2  0  0  0  0  0  0
   40.9380   22.7350   37.7070 C   0  0  0  0  0  2  0  0  0  0  0  0
   41.2550   21.5780   36.8110 C   0  0  0  0  0  2  0  0  0  0  0  0
   41.1090   22.0000   35.3750 C   0  0  0  0  0  2  0  0  0  0  0  0
   40.1650   23.1360   35.1720 C   0  0  0  0  0  2  0  0  0  0  0  0
  1  7  1  6  0  0  0
  1  6  1  0  0  0  0
  2  3  1  0  0  0  0
  2  1  1  0  0  0  0
  3  4  1  0  0  0  0
  4 12  1  0  0  0  0
  4 13  1  0  0  0  0
  4  5  1  0  0  0  0
  5 14  1  0  0  0  0
  5 15  1  0  0  0  0
  6 16  1  1  0  0  0
  6  5  1  0  0  0  0
  8  2  1  0  0  0  0
  9  2  1  0  0  0  0
 10  3  1  0  0  0  0
 11  3  1  0  0  0  0
 17 18  1  0  0  0  0
 18  1  1  0  0  0  0
 18 19  2  0  0  0  0
 19 24  1  0  0  0  0
 20 19  1  0  0  0  0
 21 25  1  0  0  0  0
 21 20  2  0  0  0  0
 22 17  2  0  0  0  0
 22 21  1  0  0  0  0
 23 17  1  0  0  0  0
 26  6  1  0  0  0  0
 26 29  1  0  0  0  0
 27 26  1  0  0  0  0
 28 26  1  0  0  0  0
 29 32  1  0  0  0  0
 29 31  1  0  0  0  0
 29 30  1  0  0  0  0
 32 33  1  0  0  0  0
 33 34  1  0  0  0  0
 35 34  1  0  0  0  0
 36 35  1  0  0  0  0
 37 36  1  0  0  0  0
 37 32  1  0  0  0  0
M  END
>  <minimizedAffinity>
-5.02189589

$$$$

 OpenBabel03272506323D

 37 39  0  0  1  0  0  0  0  0999 V2000
   40.2100   22.9560   35.8280 C   0  0  1  0  0  0  0  0  0  0  0  0
   40.0090   22.3310   37.1160 C   0  0  0  0  0  0  0  0  0  0  0  0
   39.2340   23.1230   38.1500 C   0  0  0  0  0  0  0  0  0  0  0  0
   38.1100   23.9460   37.6230 C   0  0  0  0  0  0  0  0  0  0  0  0
   38.2820   24.5680   36.2860 C   0  0  0  0  0  0  0  0  0  0  0  0
   38.9800   23.6770   35.3300 C   0  0  2  0  0  0  0  0  0  0  0  0
   40.3430   22.1460   35.0430 H   0  0  0  0  0  0  0  0  0  0  0  0
   39.3460   21.4340   36.9390 H   0  0  0  0  0  0  0  0  0  0  0  0
   40.8680   21.9150   37.6330 H   0  0  0  0  0  0  0  0  0  0  0  0
   38.8300   22.4240   38.9130 H   0  0  0  0  0  0  0  0  0  0  0  0
   39.9600   23.7600   38.7060 H   0  0  0  0  0  0  0  0  0  0  0  0
   37.1590   23.3680   37.6880 H   0  0  0  0  0  0  0  0  0  0  0  0
   37.9750   24.7900   38.3510 H   0  0  0  0  0  0  0  0  0  0  0  0
   38.9030   25.4960   36.4180 H   0  0  0  0  0  0  0  0  0  0  0  0
   37.3080   24.8180   35.8710 H   0  0  0  0  0  0  0  0  0  0  0  0
   39.1190   24.1940   34.3790 H   0  0  0  0  0  0  0  0  0  0  0  0
   42.6440   23.5230   36.3730 C   0  0  0  0  0  0  0  0  0  0  0  0
   41.4290   23.7680   35.6630 C   0  0  0  0  0  0  0  0  0  0  0  0
   41.4550   24.8400   34.7880 C   0  0  0  0  0  0  0  0  0  0  0  0
   42.6030   25.5780   34.6570 N   0  0  0  0  0  0  0  0  0  0  0  0
   43.7190   25.3000   35.3530 C   0  0  0  0  0  0  0  0  0  0  0  0
   43.7360   24.2540   36.2240 N   0  0  0  0  0  0  0  0  0  0  0  0
   42.6490   22.6900   37.0640 H   0  0  0  0  0  0  0  0  0  0  0  0
   40.6060   25.1090   34.2110 H   0  0  0  0  0  0  0  0  0  0  0  0
   44.5700   25.9370   35.1820 H   0  0  0  0  0  0  0  0  0  0  0  0
   37.9690   22.5420   35.0220 C   0  0  0  0  0  0  0  0  0  0  0  0
   36.9870   22.7490   35.4960 H   0  0  0  0  0  0  0  0  0  0  0  0
   38.2870   21.5830   35.4240 H   0  0  0  0  0  0  0  0  0  0  0  0
   37.7080   22.4810   33.5170 C   0  0  0  0  0  0  0  0  0  0  0  0
   37.2820   23.4460   33.1730 H   0  0  0  0  0  0  0  0  0  0  0  0
   38.7030   22.3950   33.0310 H   0  0  0  0  0  0  0  0  0  0  0  0
   36.8710   21.3340   33.1020 C   0  0  0  0  0  3  0  0  0  0  0  0
   37.6910   20.4190   32.2150 C   0  0  0  0  0  2  0  0  0  0  0  0
   36.8640   19.8800   31.0620 C   0  0  0  0  0  2  0  0  0  0  0  0
   35.5830   19.3550   31.6350 C   0  0  0  0  0  2  0  0  0  0  0  0
   34.7490   20.5030   32.1330 C   0  0  0  0  0  2  0  0  0  0  0  0
   35.5420   21.7090   32.5090 C   0  0  0  0  0  2  0  0  0  0  0  0
  1  7  1  6  0  0  0
  1  2  1  0  0  0  0
  2  9  1  0  0  0  0
  2  3  1  0  0  0  0
  3 11  1  0  0  0  0
  3 10  1  0  0  0  0
  4 12  1  0  0  0  0
  4  3  1  0  0  0  0
  4 13  1  0  0  0  0
  5 14  1  0  0  0  0
  5  4  1  0  0  0  0
  6 16  1  6  0  0  0
  6  1  1  0  0  0  0
  6  5  1  0  0  0  0
  8  2  1  0  0  0  0
 15  5  1  0  0  0  0
 17 23  1  0  0  0  0
 18  1  1  0  0  0  0
 18 17  2  0  0  0  0
 19 18  1  0  0  0  0
 20 19  2  0  0  0  0
 20 21  1  0  0  0  0
 21 22  2  0  0  0  0
 22 17  1  0  0  0  0
 24 19  1  0  0  0  0
 25 21  1  0  0  0  0
 26  6  1  0  0  0  0
 26 28  1  0  0  0  0
 26 27  1  0  0  0  0
 29 26  1  0  0  0  0
 30 29  1  0  0  0  0
 31 29  1  0  0  0  0
 32 29  1  0  0  0  0
 33 32  1  0  0  0  0
 34 35  1  0  0  0  0
 34 33  1  0  0  0  0
 35 36  1  0  0  0  0
 36 37  1  0  0  0  0
 37 32  1  0  0  0  0
M  END
>  <minimizedAffinity>
-4.98927069

$$$$

 OpenBabel03272506323D

 37 39  0  0  1  0  0  0  0  0999 V2000
   34.3260   29.9530   34.6720 C   0  0  1  0  0  0  0  0  0  0  0  0
   33.2530   29.5550   33.7880 C   0  0  0  0  0  0  0  0  0  0  0  0
   33.1730   30.2570   32.4480 C   0  0  0  0  0  0  0  0  0  0  0  0
   34.4790   30.5830   31.8100 C   0  0  0  0  0  0  0  0  0  0  0  0
   35.6040   30.9600   32.7030 C   0  0  0  0  0  0  0  0  0  0  0  0
   35.6360   30.1560   33.9480 C   0  0  2  0  0  0  0  0  0  0  0  0
   34.5720   29.0860   35.3640 H   0  0  0  0  0  0  0  0  0  0  0  0
   33.4570   28.4820   33.4980 H   0  0  0  0  0  0  0  0  0  0  0  0
   32.2410   29.5260   34.1780 H   0  0  0  0  0  0  0  0  0  0  0  0
   32.5860   29.6290   31.7440 H   0  0  0  0  0  0  0  0  0  0  0  0
   32.5610   31.1790   32.5820 H   0  0  0  0  0  0  0  0  0  0  0  0
   34.7680   29.7670   31.1070 H   0  0  0  0  0  0  0  0  0  0  0  0
   34.2890   31.4690   31.1480 H   0  0  0  0  0  0  0  0  0  0  0  0
   35.4690   32.0390   32.9860 H   0  0  0  0  0  0  0  0  0  0  0  0
   36.5480   30.8180   32.1810 H   0  0  0  0  0  0  0  0  0  0  0  0
   36.4510   30.4980   34.5860 H   0  0  0  0  0  0  0  0  0  0  0  0
   35.0550   31.7560   36.3330 C   0  0  0  0  0  0  0  0  0  0  0  0
   34.0420   31.0480   35.6160 C   0  0  0  0  0  0  0  0  0  0  0  0
   32.7430   31.4550   35.8610 C   0  0  0  0  0  0  0  0  0  0  0  0
   32.5090   32.4770   36.7450 N   0  0  0  0  0  0  0  0  0  0  0  0
   33.5040   33.1070   37.3920 C   0  0  0  0  0  0  0  0  0  0  0  0
   34.7970   32.7380   37.1800 N   0  0  0  0  0  0  0  0  0  0  0  0
   36.0800   31.4560   36.1590 H   0  0  0  0  0  0  0  0  0  0  0  0
   31.9150   30.9970   35.3810 H   0  0  0  0  0  0  0  0  0  0  0  0
   33.2220   33.8970   38.0680 H   0  0  0  0  0  0  0  0  0  0  0  0
   36.0510   28.7310   33.5000 C   0  0  0  0  0  0  0  0  0  0  0  0
   36.8490   28.7760   32.7290 H   0  0  0  0  0  0  0  0  0  0  0  0
   35.2320   28.1870   33.0370 H   0  0  0  0  0  0  0  0  0  0  0  0
   36.6520   27.9750   34.6850 C   0  0  0  0  0  0  0  0  0  0  0  0
   37.0010   28.6990   35.4510 H   0  0  0  0  0  0  0  0  0  0  0  0
   35.8160   27.4140   35.1530 H   0  0  0  0  0  0  0  0  0  0  0  0
   37.7180   27.0210   34.3070 C   0  0  0  0  0  3  0  0  0  0  0  0
   38.7530   26.9750   35.4130 C   0  0  0  0  0  2  0  0  0  0  0  0
   40.1600   26.8950   34.8500 C   0  0  0  0  0  2  0  0  0  0  0  0
   40.1710   25.8090   33.8190 C   0  0  0  0  0  2  0  0  0  0  0  0
   39.3610   26.2400   32.6270 C   0  0  0  0  0  2  0  0  0  0  0  0
   38.3090   27.2480   32.9450 C   0  0  0  0  0  2  0  0  0  0  0  0
  1  7  1  1  0  0  0
  1 18  1  0  0  0  0
  2  9  1  0  0  0  0
  2  1  1  0  0  0  0
  3 11  1  0  0  0  0
  3  2  1  0  0  0  0
  4  3  1  0  0  0  0
  4  5  1  0  0  0  0
  5 14  1  0  0  0  0
  5  6  1  0  0  0  0
  6 16  1  1  0  0  0
  6  1  1  0  0  0  0
  8  2  1  0  0  0  0
 10  3  1  0  0  0  0
 12  4  1  0  0  0  0
 13  4  1  0  0  0  0
 15  5  1  0  0  0  0
 17 22  1  0  0  0  0
 18 19  1  0  0  0  0
 18 17  2  0  0  0  0
 19 20  2  0  0  0  0
 20 21  1  0  0  0  0
 21 25  1  0  0  0  0
 22 21  2  0  0  0  0
 23 17  1  0  0  0  0
 24 19  1  0  0  0  0
 26  6  1  0  0  0  0
 26 29  1  0  0  0  0
 27 26  1  0  0  0  0
 28 26  1  0  0  0  0
 29 31  1  0  0  0  0
 29 30  1  0  0  0  0
 32 29  1  0  0  0  0
 32 33  1  0  0  0  0
 34 33  1  0  0  0  0
 35 34  1  0  0  0  0
 36 37  1  0  0  0  0
 36 35  1  0  0  0  0
 37 32  1  0  0  0  0
M  END
>  <minimizedAffinity>
-4.98165083

$$$$
