
 OpenBabel03272501513D

 27 29  0  0  0  0  0  0  0  0999 V2000
   38.4600   32.2290   48.7410 C   0  0  0  0  0  0  0  0  0  0  0  0
   38.7920   33.2880   49.5740 C   0  0  0  0  0  0  0  0  0  0  0  0
   39.6050   34.2980   49.0130 C   0  0  0  0  0  0  0  0  0  0  0  0
   40.0510   34.2460   47.7000 C   0  0  0  0  0  0  0  0  0  0  0  0
   39.7000   33.1700   46.8940 C   0  0  0  0  0  0  0  0  0  0  0  0
   38.9100   32.1850   47.4330 C   0  0  0  0  0  0  0  0  0  0  0  0
   38.4570   33.3490   50.5970 H   0  0  0  0  0  0  0  0  0  0  0  0
   39.8830   35.1430   49.6410 H   0  0  0  0  0  0  0  0  0  0  0  0
   40.6800   35.0750   47.3440 H   0  0  0  0  0  0  0  0  0  0  0  0
   40.1030   33.2420   45.9010 H   0  0  0  0  0  0  0  0  0  0  0  0
   37.1940   29.1680   50.5600 C   0  0  0  0  0  0  0  0  0  0  0  0
   38.1240   30.0920   50.0490 C   0  0  0  0  0  0  0  0  0  0  0  0
   37.6210   31.1940   49.3210 C   0  0  0  0  0  0  0  0  0  0  0  0
   36.2850   31.2730   49.1750 N   0  0  0  0  0  0  0  0  0  0  0  0
   35.4170   30.3760   49.6730 C   0  0  0  0  0  0  0  0  0  0  0  0
   35.8640   29.3210   50.3670 N   0  0  0  0  0  0  0  0  0  0  0  0
   34.0500   30.6260   49.4140 N   0  0  0  0  0  0  0  0  0  0  0  0
   37.6460   28.3470   51.1070 H   0  0  0  0  0  0  0  0  0  0  0  0
   39.1790   30.0350   50.1610 H   0  0  0  0  0  0  0  0  0  0  0  0
   33.6690   30.8630   48.4660 H   0  0  0  0  0  0  0  0  0  0  0  0
   33.5280   30.5280   50.3250 H   0  0  0  0  0  0  0  0  0  0  0  0
   38.5990   31.1030   46.4740 C   0  0  0  0  0  0  0  0  0  0  0  0
   37.3440   31.4840   45.7300 C   0  0  0  0  0  0  0  0  0  0  0  0
   36.9150   30.4040   44.7630 C   0  0  0  0  0  0  0  0  0  0  0  0
   38.0800   30.0140   43.8730 C   0  0  0  0  0  0  0  0  0  0  0  0
   39.2870   29.6400   44.6850 C   0  0  0  0  0  0  0  0  0  0  0  0
   39.7260   30.9020   45.4420 C   0  0  0  0  0  0  0  0  0  0  0  0
  1 13  1  0  0  0  0
  1  2  1  0  0  0  0
  2  7  1  0  0  0  0
  3  2  2  0  0  0  0
  3  8  1  0  0  0  0
  4  3  1  0  0  0  0
  5  6  1  0  0  0  0
  5  4  2  0  0  0  0
  6  1  2  0  0  0  0
  9  4  1  0  0  0  0
 10  5  1  0  0  0  0
 11 18  1  0  0  0  0
 12 19  1  0  0  0  0
 12 11  2  0  0  0  0
 13 12  1  0  0  0  0
 14 13  2  0  0  0  0
 14 15  1  0  0  0  0
 15 16  2  0  0  0  0
 16 11  1  0  0  0  0
 17 15  1  0  0  0  0
 17 21  1  0  0  0  0
 20 17  1  0  0  0  0
 22  6  1  0  0  0  0
 23 22  1  0  0  0  0
 24 23  1  0  0  0  0
 25 26  1  0  0  0  0
 25 24  1  0  0  0  0
 26 27  1  0  0  0  0
 27 22  1  0  0  0  0
M  END
>  <minimizedAffinity>
-6.55960751

>  <minimizedRMSD>
2.0677588

$$$$
