
 OpenBabel03272507053D

 28 31  0  0  0  0  0  0  0  0999 V2000
   35.4310   28.7950   49.3410 C   0  0  0  0  0  0  0  0  0  0  0  0
   35.3470   29.8910   48.4820 C   0  0  0  0  0  0  0  0  0  0  0  0
   34.2530   30.0510   47.6740 C   0  0  0  0  0  0  0  0  0  0  0  0
   33.2130   29.1450   47.6850 C   0  0  0  0  0  0  0  0  0  0  0  0
   32.0480   29.0820   46.9970 N   0  0  0  0  0  0  0  0  0  0  0  0
   31.4610   27.9350   47.4700 C   0  0  0  0  0  0  0  0  0  0  0  0
   32.2320   27.3410   48.3940 N   0  0  0  0  0  0  0  0  0  0  0  0
   33.3330   28.0800   48.5440 C   0  0  0  0  0  0  0  0  0  0  0  0
   34.4040   27.8620   49.3790 C   0  0  0  0  0  0  0  0  0  0  0  0
   36.2760   28.6240   49.9990 H   0  0  0  0  0  0  0  0  0  0  0  0
   34.2280   30.9270   47.0140 H   0  0  0  0  0  0  0  0  0  0  0  0
   31.6850   29.7450   46.2820 H   0  0  0  0  0  0  0  0  0  0  0  0
   30.4960   27.6350   47.0830 H   0  0  0  0  0  0  0  0  0  0  0  0
   34.4480   27.0050   50.0360 H   0  0  0  0  0  0  0  0  0  0  0  0
   37.7760   32.4500   49.5220 C   0  0  0  0  0  0  0  0  0  0  0  0
   38.5290   32.6480   48.3430 C   0  0  0  0  0  0  0  0  0  0  0  0
   38.1720   31.8800   47.2000 C   0  0  0  0  0  0  0  0  0  0  0  0
   37.1300   31.0030   47.3110 N   0  0  0  0  0  0  0  0  0  0  0  0
   36.4360   30.8470   48.4650 C   0  0  0  0  0  0  0  0  0  0  0  0
   36.7620   31.5620   49.5410 N   0  0  0  0  0  0  0  0  0  0  0  0
   38.0670   33.0440   50.3700 H   0  0  0  0  0  0  0  0  0  0  0  0
   39.3470   33.3320   48.2410 H   0  0  0  0  0  0  0  0  0  0  0  0
   38.9190   32.0340   45.9270 C   0  0  0  0  0  0  0  0  0  0  0  0
   39.7220   30.8440   45.5300 C   0  0  0  0  0  0  0  0  0  0  0  0
   40.7090   31.2690   44.4630 C   0  0  0  0  0  0  0  0  0  0  0  0
   40.2470   32.5110   43.7320 C   0  0  0  0  0  0  0  0  0  0  0  0
   40.1600   33.6910   44.6870 C   0  0  0  0  0  0  0  0  0  0  0  0
   39.8780   33.2080   46.1020 C   0  0  0  0  0  0  0  0  0  0  0  0
  1  9  1  0  0  0  0
  1 10  1  0  0  0  0
  2  1  2  0  0  0  0
  3  4  2  0  0  0  0
  3  2  1  0  0  0  0
  4  8  1  0  0  0  0
  5  6  1  0  0  0  0
  5  4  1  0  0  0  0
  6  7  2  0  0  0  0
  7  8  1  0  0  0  0
  8  9  2  0  0  0  0
  9 14  1  0  0  0  0
 11  3  1  0  0  0  0
 12  5  1  0  0  0  0
 13  6  1  0  0  0  0
 15 20  1  0  0  0  0
 15 21  1  0  0  0  0
 16 15  2  0  0  0  0
 17 18  2  0  0  0  0
 17 16  1  0  0  0  0
 18 19  1  0  0  0  0
 19  2  1  0  0  0  0
 19 20  2  0  0  0  0
 22 16  1  0  0  0  0
 23 28  1  0  0  0  0
 23 17  1  0  0  0  0
 24 23  1  0  0  0  0
 25 24  1  0  0  0  0
 26 25  1  0  0  0  0
 26 27  1  0  0  0  0
 27 28  1  0  0  0  0
M  END
>  <minimizedAffinity>
-7.02100325

>  <minimizedRMSD>
2.06950927

$$$$
