
 OpenBabel03272507343D

 33 36  0  0  1  0  0  0  0  0999 V2000
   35.7650   29.1430   49.8150 C   0  0  0  0  0  0  0  0  0  0  0  0
   34.6460   29.5880   50.4790 C   0  0  0  0  0  0  0  0  0  0  0  0
   33.5350   28.9490   49.9080 C   0  0  0  0  0  0  0  0  0  0  0  0
   34.0590   28.1440   48.9200 C   0  0  0  0  0  0  0  0  0  0  0  0
   35.3670   28.2910   48.9020 O   0  0  0  0  0  0  0  0  0  0  0  0
   34.5380   30.2950   51.2980 H   0  0  0  0  0  0  0  0  0  0  0  0
   32.4910   29.0290   50.1440 H   0  0  0  0  0  0  0  0  0  0  0  0
   37.1010   29.6030   50.1520 C   0  0  0  0  0  0  0  0  0  0  0  0
   37.6700   29.1390   51.1520 O   0  0  0  0  0  0  0  0  0  0  0  0
   37.6880   30.5870   49.2880 C   0  0  0  0  0  0  0  0  0  0  0  0
   38.0170   31.8070   49.8460 C   0  0  0  0  0  0  0  0  0  0  0  0
   38.5880   32.7870   49.0350 C   0  0  0  0  0  0  0  0  0  0  0  0
   38.7980   32.4870   47.7040 N   0  0  0  0  0  0  0  0  0  0  0  0
   38.4650   31.2940   47.2000 C   0  0  0  0  0  0  0  0  0  0  0  0
   37.9170   30.3500   47.9770 N   0  0  0  0  0  0  0  0  0  0  0  0
   37.8680   32.0830   50.8940 H   0  0  0  0  0  0  0  0  0  0  0  0
   38.8700   33.7560   49.3930 H   0  0  0  0  0  0  0  0  0  0  0  0
   38.6840   31.1890   46.1370 H   0  0  0  0  0  0  0  0  0  0  0  0
   33.2940   27.2650   48.0340 C   0  0  0  0  0  0  0  0  0  0  0  0
   32.0270   27.2210   48.1780 O   0  0  0  0  0  0  0  0  0  0  0  0
   33.9940   26.4370   46.9950 C   0  0  1  0  0  0  0  0  0  0  0  0
   33.7980   24.9030   47.3270 C   0  0  0  0  0  0  0  0  0  0  0  0
   33.2270   25.5580   46.1270 C   0  0  2  0  0  0  0  0  0  0  0  0
   35.0850   26.6400   46.9830 H   0  0  0  0  0  0  0  0  0  0  0  0
   33.1380   24.6510   48.1560 H   0  0  0  0  0  0  0  0  0  0  0  0
   34.6900   24.2830   47.2720 H   0  0  0  0  0  0  0  0  0  0  0  0
   32.1100   25.7420   46.1840 H   0  0  0  0  0  0  0  0  0  0  0  0
   33.6820   25.0260   44.8260 C   0  0  0  0  0  3  0  0  0  0  0  0
   33.7260   25.9790   43.6720 C   0  0  0  0  0  2  0  0  0  0  0  0
   35.0560   26.6320   43.4570 C   0  0  0  0  0  2  0  0  0  0  0  0
   36.1610   25.6360   43.1920 C   0  0  0  0  0  2  0  0  0  0  0  0
   35.8510   24.2770   43.7730 C   0  0  0  0  0  2  0  0  0  0  0  0
   35.0680   24.4480   45.0320 C   0  0  0  0  0  2  0  0  0  0  0  0
  1  8  1  0  0  0  0
  1  2  2  0  0  0  0
  2  6  1  0  0  0  0
  3  7  1  0  0  0  0
  3  2  1  0  0  0  0
  4  3  2  0  0  0  0
  5  4  1  0  0  0  0
  5  1  1  0  0  0  0
  8  9  2  0  0  0  0
 10 11  1  0  0  0  0
 10  8  1  0  0  0  0
 11 16  1  0  0  0  0
 12 17  1  0  0  0  0
 12 11  2  0  0  0  0
 13 12  1  0  0  0  0
 14 13  2  0  0  0  0
 14 15  1  0  0  0  0
 15 10  2  0  0  0  0
 18 14  1  0  0  0  0
 19 20  2  0  0  0  0
 19  4  1  0  0  0  0
 21 24  1  6  0  0  0
 21 22  1  0  0  0  0
 21 19  1  0  0  0  0
 22 25  1  0  0  0  0
 23 27  1  1  0  0  0
 23 21  1  0  0  0  0
 23 22  1  0  0  0  0
 26 22  1  0  0  0  0
 28 33  1  0  0  0  0
 28 23  1  0  0  0  0
 29 28  1  0  0  0  0
 30 29  1  0  0  0  0
 31 30  1  0  0  0  0
 31 32  1  0  0  0  0
 32 33  1  0  0  0  0
M  END
>  <minimizedAffinity>
-5.21264315

>  <minimizedRMSD>
0.928956449

$$$$
