
 OpenBabel03272508123D

 31 33  0  0  0  0  0  0  0  0999 V2000
   36.6450   29.4130   44.0780 Cl  0  0  0  0  0  0  0  0  0  0  0  0
   38.2880   29.8130   43.5170 C   0  0  0  0  0  0  0  0  0  0  0  0
   39.2950   30.3110   44.3450 C   0  0  0  0  0  0  0  0  0  0  0  0
   40.5160   30.5730   43.7680 C   0  0  0  0  0  0  0  0  0  0  0  0
   40.7370   30.3540   42.4300 C   0  0  0  0  0  0  0  0  0  0  0  0
   39.7590   29.8660   41.6020 C   0  0  0  0  0  0  0  0  0  0  0  0
   38.5420   29.5990   42.1500 C   0  0  0  0  0  0  0  0  0  0  0  0
   41.2480   30.9560   44.4670 H   0  0  0  0  0  0  0  0  0  0  0  0
   41.7160   30.5780   42.0260 H   0  0  0  0  0  0  0  0  0  0  0  0
   39.9430   29.6960   40.5430 H   0  0  0  0  0  0  0  0  0  0  0  0
   37.4560   29.0640   41.2650 C   0  0  0  0  0  3  0  0  0  0  0  0
   36.4190   30.1730   41.2070 C   0  0  0  0  0  2  0  0  0  0  0  0
   35.2360   29.6830   40.4350 C   0  0  0  0  0  2  0  0  0  0  0  0
   35.5130   28.4010   39.6890 C   0  0  0  0  0  2  0  0  0  0  0  0
   35.9650   27.2920   40.6160 C   0  0  0  0  0  2  0  0  0  0  0  0
   36.8360   27.8040   41.7530 C   0  0  0  0  0  2  0  0  0  0  0  0
   38.8830   30.4600   45.6390 O   0  0  0  0  0  0  0  0  0  0  0  0
   39.4440   32.5150   47.1040 O   0  0  0  0  0  0  0  0  0  0  0  0
   38.3020   31.8410   46.4120 P   0  0  1  0  0  0  0  0  0  0  0  0
   37.7170   32.8480   45.1670 O   0  0  0  0  0  0  0  0  0  0  0  0
   37.4890   32.3540   44.3490 H   0  0  0  0  0  0  0  0  0  0  0  0
   37.0250   31.4150   47.4390 O   0  0  0  0  0  0  0  0  0  0  0  0
   37.6160   30.5300   50.9820 C   0  0  0  0  0  0  0  0  0  0  0  0
   37.7030   31.2960   49.8190 C   0  0  0  0  0  0  0  0  0  0  0  0
   37.0730   30.8450   48.6610 C   0  0  0  0  0  0  0  0  0  0  0  0
   36.3940   29.6530   48.7370 N   0  0  0  0  0  0  0  0  0  0  0  0
   36.3330   28.9420   49.8800 C   0  0  0  0  0  0  0  0  0  0  0  0
   36.9420   29.3830   50.9920 N   0  0  0  0  0  0  0  0  0  0  0  0
   38.1370   30.9550   51.8430 H   0  0  0  0  0  0  0  0  0  0  0  0
   38.2110   32.2320   49.6780 H   0  0  0  0  0  0  0  0  0  0  0  0
   35.7790   27.9910   49.9030 H   0  0  0  0  0  0  0  0  0  0  0  0
  2  1  1  0  0  0  0
  2  3  1  0  0  0  0
  3 17  1  0  0  0  0
  4  3  2  0  0  0  0
  4  8  1  0  0  0  0
  5  4  1  0  0  0  0
  6  7  1  0  0  0  0
  6  5  2  0  0  0  0
  7  2  2  0  0  0  0
  9  5  1  0  0  0  0
 10  6  1  0  0  0  0
 11 16  1  0  0  0  0
 11  7  1  0  0  0  0
 12 11  1  0  0  0  0
 13 12  1  0  0  0  0
 14 13  1  0  0  0  0
 14 15  1  0  0  0  0
 15 16  1  0  0  0  0
 17 19  1  0  0  0  0
 19 18  2  1  0  0  0
 19 22  1  0  0  0  0
 20 19  1  0  0  0  0
 21 20  1  0  0  0  0
 22 25  1  0  0  0  0
 23 28  1  0  0  0  0
 23 29  1  0  0  0  0
 24 23  2  0  0  0  0
 25 26  2  0  0  0  0
 25 24  1  0  0  0  0
 26 27  1  0  0  0  0
 27 31  1  0  0  0  0
 27 28  2  0  0  0  0
 30 24  1  0  0  0  0
M  END
>  <minimizedAffinity>
-4.83069611

>  <minimizedRMSD>
0.246645391

$$$$
