
 OpenBabel03272508123D

 31 33  0  0  0  0  0  0  0  0999 V2000
   36.6450   29.4530   44.0210 Cl  0  0  0  0  0  0  0  0  0  0  0  0
   38.3050   29.8320   43.4960 C   0  0  0  0  0  0  0  0  0  0  0  0
   39.3040   30.3080   44.3480 C   0  0  0  0  0  0  0  0  0  0  0  0
   40.5390   30.5560   43.7970 C   0  0  0  0  0  0  0  0  0  0  0  0
   40.7830   30.3450   42.4610 C   0  0  0  0  0  0  0  0  0  0  0  0
   39.8140   29.8800   41.6110 C   0  0  0  0  0  0  0  0  0  0  0  0
   38.5830   29.6270   42.1320 C   0  0  0  0  0  0  0  0  0  0  0  0
   41.2630   30.9210   44.5140 H   0  0  0  0  0  0  0  0  0  0  0  0
   41.7730   30.5580   42.0790 H   0  0  0  0  0  0  0  0  0  0  0  0
   40.0150   29.7160   40.5530 H   0  0  0  0  0  0  0  0  0  0  0  0
   37.5060   29.1160   41.2210 C   0  0  0  0  0  3  0  0  0  0  0  0
   37.8470   27.6520   40.9960 C   0  0  0  0  0  2  0  0  0  0  0  0
   36.8880   27.0840   40.0000 C   0  0  0  0  0  2  0  0  0  0  0  0
   35.7060   27.9860   39.7450 C   0  0  0  0  0  2  0  0  0  0  0  0
   36.1310   29.3560   39.2620 C   0  0  0  0  0  2  0  0  0  0  0  0
   37.4180   29.8300   39.9200 C   0  0  0  0  0  2  0  0  0  0  0  0
   38.8690   30.4510   45.6350 O   0  0  0  0  0  0  0  0  0  0  0  0
   39.4430   32.5040   47.0980 O   0  0  0  0  0  0  0  0  0  0  0  0
   38.2960   31.8350   46.4100 P   0  0  1  0  0  0  0  0  0  0  0  0
   37.7110   32.8440   45.1670 O   0  0  0  0  0  0  0  0  0  0  0  0
   37.4780   32.3510   44.3510 H   0  0  0  0  0  0  0  0  0  0  0  0
   37.0210   31.4130   47.4420 O   0  0  0  0  0  0  0  0  0  0  0  0
   37.6170   30.5280   50.9840 C   0  0  0  0  0  0  0  0  0  0  0  0
   37.7020   31.2950   49.8200 C   0  0  0  0  0  0  0  0  0  0  0  0
   37.0710   30.8430   48.6640 C   0  0  0  0  0  0  0  0  0  0  0  0
   36.3920   29.6510   48.7400 N   0  0  0  0  0  0  0  0  0  0  0  0
   36.3330   28.9400   49.8830 C   0  0  0  0  0  0  0  0  0  0  0  0
   36.9440   29.3810   50.9950 N   0  0  0  0  0  0  0  0  0  0  0  0
   38.1390   30.9540   51.8440 H   0  0  0  0  0  0  0  0  0  0  0  0
   38.2100   32.2310   49.6790 H   0  0  0  0  0  0  0  0  0  0  0  0
   35.7790   27.9890   49.9070 H   0  0  0  0  0  0  0  0  0  0  0  0
  2  1  1  0  0  0  0
  2  3  1  0  0  0  0
  3 17  1  0  0  0  0
  4  3  2  0  0  0  0
  4  8  1  0  0  0  0
  5  4  1  0  0  0  0
  6  7  1  0  0  0  0
  6  5  2  0  0  0  0
  7  2  2  0  0  0  0
  9  5  1  0  0  0  0
 10  6  1  0  0  0  0
 11  7  1  0  0  0  0
 12 11  1  0  0  0  0
 13 12  1  0  0  0  0
 14 13  1  0  0  0  0
 15 14  1  0  0  0  0
 15 16  1  0  0  0  0
 16 11  1  0  0  0  0
 17 19  1  0  0  0  0
 19 18  2  1  0  0  0
 19 22  1  0  0  0  0
 20 19  1  0  0  0  0
 21 20  1  0  0  0  0
 22 25  1  0  0  0  0
 23 28  1  0  0  0  0
 23 29  1  0  0  0  0
 24 23  2  0  0  0  0
 25 26  2  0  0  0  0
 25 24  1  0  0  0  0
 26 27  1  0  0  0  0
 27 31  1  0  0  0  0
 27 28  2  0  0  0  0
 30 24  1  0  0  0  0
M  END
>  <minimizedAffinity>
-4.82740068

>  <minimizedRMSD>
0.438275427

$$$$
