
 OpenBabel03262520383D

 15 16  0  0  0  0  0  0  0  0999 V2000
   34.7550   29.4320   48.8090 C   0  0  0  0  0  0  0  0  0  0  0  0
   34.2390   30.0420   47.6370 C   0  0  0  0  0  0  0  0  0  0  0  0
   33.5120   29.2370   46.7540 C   0  0  0  0  0  0  0  0  0  0  0  0
   33.3350   27.9130   47.0590 N   0  0  0  0  0  0  0  0  0  0  0  0
   33.8470   27.3680   48.1940 C   0  0  0  0  0  0  0  0  0  0  0  0
   34.5450   28.1270   49.0480 N   0  0  0  0  0  0  0  0  0  0  0  0
   34.3660   31.0770   47.3790 H   0  0  0  0  0  0  0  0  0  0  0  0
   33.0920   29.6430   45.8400 H   0  0  0  0  0  0  0  0  0  0  0  0
   33.7250   26.3370   48.4580 H   0  0  0  0  0  0  0  0  0  0  0  0
   35.5240   30.3000   49.7370 C   0  0  0  0  0  0  0  0  0  0  0  0
   36.4610   31.1930   48.9760 C   0  0  0  0  0  0  0  0  0  0  0  0
   37.9150   30.8160   49.1610 C   0  0  0  0  0  0  0  0  0  0  0  0
   38.3140   30.7940   50.6160 C   0  0  0  0  0  0  0  0  0  0  0  0
   37.2960   30.1180   51.5000 C   0  0  0  0  0  0  0  0  0  0  0  0
   36.2420   29.3890   50.7000 C   0  0  0  0  0  0  0  0  0  0  0  0
  1  6  1  0  0  0  0
  1 10  1  0  0  0  0
  2  1  2  0  0  0  0
  3  4  2  0  0  0  0
  3  2  1  0  0  0  0
  4  5  1  0  0  0  0
  5  9  1  0  0  0  0
  5  6  2  0  0  0  0
  7  2  1  0  0  0  0
  8  3  1  0  0  0  0
 10 15  1  0  0  0  0
 11 12  1  0  0  0  0
 11 10  1  0  0  0  0
 12 13  1  0  0  0  0
 13 14  1  0  0  0  0
 15 14  1  0  0  0  0
M  END
>  <minimizedAffinity>
-4.74438858

>  <minimizedRMSD>
4.3302021

$$$$
