
 OpenBabel03272504093D

 30 32  0  0  0  0  0  0  0  0999 V2000
   37.8470   30.5880   50.2000 C   0  0  0  0  0  0  0  0  0  0  0  0
   37.3480   30.7210   48.9230 C   0  0  0  0  0  0  0  0  0  0  0  0
   36.0390   30.2720   48.6150 C   0  0  0  0  0  0  0  0  0  0  0  0
   35.3350   29.7170   49.6410 N   0  0  0  0  0  0  0  0  0  0  0  0
   35.8590   29.5980   50.8950 C   0  0  0  0  0  0  0  0  0  0  0  0
   37.1100   30.0330   51.1670 N   0  0  0  0  0  0  0  0  0  0  0  0
   35.0350   28.9880   51.8940 N   0  0  0  0  0  0  0  0  0  0  0  0
   38.8570   30.9400   50.4130 H   0  0  0  0  0  0  0  0  0  0  0  0
   35.6000   28.2890   52.4610 H   0  0  0  0  0  0  0  0  0  0  0  0
   34.0490   29.1080   52.1340 H   0  0  0  0  0  0  0  0  0  0  0  0
   38.3040   33.5790   49.1750 Cl  0  0  0  0  0  0  0  0  0  0  0  0
   38.7400   32.5920   47.8270 C   0  0  0  0  0  0  0  0  0  0  0  0
   38.2200   31.3380   47.8930 C   0  0  0  0  0  0  0  0  0  0  0  0
   38.5170   30.4360   46.8350 C   0  0  0  0  0  0  0  0  0  0  0  0
   39.2870   30.7830   45.7840 C   0  0  0  0  0  0  0  0  0  0  0  0
   39.8070   32.0740   45.7400 C   0  0  0  0  0  0  0  0  0  0  0  0
   40.8160   32.6030   44.4270 Cl  0  0  0  0  0  0  0  0  0  0  0  0
   39.5250   32.9510   46.7590 C   0  0  0  0  0  0  0  0  0  0  0  0
   38.1780   29.4100   46.7810 H   0  0  0  0  0  0  0  0  0  0  0  0
   39.5460   30.1430   44.9520 H   0  0  0  0  0  0  0  0  0  0  0  0
   39.8970   33.9770   46.7920 H   0  0  0  0  0  0  0  0  0  0  0  0
   35.5190   30.4060   47.2670 C   0  0  0  0  0  0  0  0  0  0  0  0
   36.0730   29.6420   46.6370 H   0  0  0  0  0  0  0  0  0  0  0  0
   35.6860   31.3500   46.7380 H   0  0  0  0  0  0  0  0  0  0  0  0
   34.0690   30.0350   47.0720 C   0  0  0  0  0  0  0  0  0  0  0  0
   33.8640   30.1120   45.5520 C   0  0  0  0  0  0  0  0  0  0  0  0
   32.8360   29.1220   45.0760 C   0  0  0  0  0  0  0  0  0  0  0  0
   33.4950   27.7530   45.2720 C   0  0  0  0  0  0  0  0  0  0  0  0
   33.9180   27.5390   46.6830 C   0  0  0  0  0  0  0  0  0  0  0  0
   33.6990   28.6900   47.6120 C   0  0  0  0  0  0  0  0  0  0  0  0
  1  8  1  0  0  0  0
  1  6  1  0  0  0  0
  2  1  2  0  0  0  0
  3  2  1  0  0  0  0
  3  4  2  0  0  0  0
  4  5  1  0  0  0  0
  5  6  2  0  0  0  0
  5  7  1  0  0  0  0
  7 10  1  0  0  0  0
  7  9  1  0  0  0  0
 12 13  1  0  0  0  0
 12 11  1  0  0  0  0
 13  2  1  0  0  0  0
 14 13  2  0  0  0  0
 15 14  1  0  0  0  0
 16 15  2  0  0  0  0
 16 18  1  0  0  0  0
 17 16  1  0  0  0  0
 18 21  1  0  0  0  0
 18 12  2  0  0  0  0
 19 14  1  0  0  0  0
 20 15  1  0  0  0  0
 22  3  1  0  0  0  0
 23 22  1  0  0  0  0
 24 22  1  0  0  0  0
 25 22  1  0  0  0  0
 25 30  1  0  0  0  0
 26 25  1  0  0  0  0
 27 28  1  0  0  0  0
 27 26  1  0  0  0  0
 28 29  1  0  0  0  0
 29 30  1  0  0  0  0
M  END
>  <minimizedAffinity>
-6.02280712

>  <minimizedRMSD>
2.43690133

$$$$
