
 OpenBabel03272509053D

 30 32  0  0  0  0  0  0  0  0999 V2000
   34.8730   28.4750   49.6730 C   0  0  0  0  0  3  0  0  0  0  0  0
   34.4600   28.0730   48.4990 C   0  0  0  0  0  3  0  0  0  0  0  0
   37.5110   30.7240   50.8470 C   0  0  0  0  0  0  0  0  0  0  0  0
   38.1920   31.0130   49.6480 C   0  0  0  0  0  0  0  0  0  0  0  0
   37.7200   30.4220   48.4590 C   0  0  0  0  0  0  0  0  0  0  0  0
   36.6400   29.6090   48.5410 N   0  0  0  0  0  0  0  0  0  0  0  0
   36.0130   29.3530   49.7070 C   0  0  0  0  0  0  0  0  0  0  0  0
   36.4650   29.9200   50.8460 N   0  0  0  0  0  0  0  0  0  0  0  0
   37.8970   31.1920   51.7390 H   0  0  0  0  0  0  0  0  0  0  0  0
   39.0410   31.6450   49.5450 H   0  0  0  0  0  0  0  0  0  0  0  0
   38.3170   30.6190   47.1120 C   0  0  0  0  0  3  0  0  0  0  0  0
   37.3080   31.1380   46.1160 C   0  0  0  0  0  2  0  0  0  0  0  0
   38.1060   31.4220   44.8390 C   0  0  0  0  0  2  0  0  0  0  0  0
   38.9810   32.6400   45.0090 C   0  0  0  0  0  2  0  0  0  0  0  0
   39.0910   32.9310   46.4810 C   0  0  0  0  0  2  0  0  0  0  0  0
   39.4650   31.6200   47.1600 C   0  0  0  0  0  2  0  0  0  0  0  0
   33.3250   27.1790   48.1990 C   0  0  0  0  0  0  0  0  0  0  0  0
   32.4880   27.8100   47.8060 H   0  0  0  0  0  0  0  0  0  0  0  0
   32.9440   26.6380   49.0900 H   0  0  0  0  0  0  0  0  0  0  0  0
   33.6520   26.1730   47.1450 C   0  0  0  0  0  0  0  0  0  0  0  0
   33.8000   24.8280   47.3620 C   0  0  0  0  0  0  0  0  0  0  0  0
   34.1030   23.9770   46.3190 C   0  0  0  0  0  0  0  0  0  0  0  0
   34.2670   24.4720   45.0110 C   0  0  0  0  0  0  0  0  0  0  0  0
   34.1200   25.8130   44.7880 C   0  0  0  0  0  0  0  0  0  0  0  0
   33.8150   26.6500   45.8500 C   0  0  0  0  0  0  0  0  0  0  0  0
   33.6650   24.4920   48.3870 H   0  0  0  0  0  0  0  0  0  0  0  0
   34.2060   22.9380   46.5540 H   0  0  0  0  0  0  0  0  0  0  0  0
   34.4990   23.7160   44.2870 H   0  0  0  0  0  0  0  0  0  0  0  0
   34.2500   26.1710   43.7750 H   0  0  0  0  0  0  0  0  0  0  0  0
   33.7120   27.7080   45.6030 H   0  0  0  0  0  0  0  0  0  0  0  0
  1  7  1  0  0  0  0
  2  1  2  0  0  0  0
  3  9  1  0  0  0  0
  4  3  2  0  0  0  0
  5  6  2  0  0  0  0
  5  4  1  0  0  0  0
  6  7  1  0  0  0  0
  7  8  2  0  0  0  0
  8  3  1  0  0  0  0
 10  4  1  0  0  0  0
 11 16  1  0  0  0  0
 11  5  1  0  0  0  0
 12 11  1  0  0  0  0
 13 14  1  0  0  0  0
 13 12  1  0  0  0  0
 14 15  1  0  0  0  0
 15 16  1  0  0  0  0
 17  2  1  0  0  0  0
 17 19  1  0  0  0  0
 18 17  1  0  0  0  0
 20 21  1  0  0  0  0
 20 17  1  0  0  0  0
 21 26  1  0  0  0  0
 22 27  1  0  0  0  0
 22 21  2  0  0  0  0
 23 22  1  0  0  0  0
 24 23  2  0  0  0  0
 24 25  1  0  0  0  0
 25 20  2  0  0  0  0
 28 23  1  0  0  0  0
 29 24  1  0  0  0  0
 30 25  1  0  0  0  0
M  END
>  <minimizedAffinity>
-5.555686

>  <minimizedRMSD>
0.659942687

$$$$
