
 OpenBabel03272503543D

 41 44  0  0  1  0  0  0  0  0999 V2000
   35.0790   29.7590   46.4480 C   0  0  1  0  0  0  0  0  0  0  0  0
   33.6170   30.1730   46.1420 C   0  0  0  0  0  0  0  0  0  0  0  0
   33.4100   29.7520   44.6840 C   0  0  0  0  0  0  0  0  0  0  0  0
   34.2070   30.6940   43.8660 C   0  0  0  0  0  0  0  0  0  0  0  0
   35.6740   30.5860   44.2110 C   0  0  0  0  0  0  0  0  0  0  0  0
   35.9180   30.7530   45.6940 C   0  0  2  0  0  0  0  0  0  0  0  0
   35.0860   28.7220   46.0640 H   0  0  0  0  0  0  0  0  0  0  0  0
   32.9220   29.6140   46.8010 H   0  0  0  0  0  0  0  0  0  0  0  0
   33.4980   31.2580   46.1800 H   0  0  0  0  0  0  0  0  0  0  0  0
   33.8560   28.7220   44.5530 H   0  0  0  0  0  0  0  0  0  0  0  0
   32.3500   29.7330   44.3950 H   0  0  0  0  0  0  0  0  0  0  0  0
   33.9100   31.7360   44.1810 H   0  0  0  0  0  0  0  0  0  0  0  0
   34.0760   30.6550   42.7910 H   0  0  0  0  0  0  0  0  0  0  0  0
   36.0450   29.6370   43.8270 H   0  0  0  0  0  0  0  0  0  0  0  0
   36.1530   31.4700   43.7260 H   0  0  0  0  0  0  0  0  0  0  0  0
   35.5660   31.7710   45.9580 H   0  0  0  0  0  0  0  0  0  0  0  0
   34.8040   28.8610   48.7790 C   0  0  0  0  0  0  0  0  0  0  0  0
   35.1600   28.8890   50.1210 C   0  0  0  0  0  0  0  0  0  0  0  0
   36.0950   29.8330   50.5900 C   0  0  0  0  0  0  0  0  0  0  0  0
   36.6250   30.7080   49.6660 C   0  0  0  0  0  0  0  0  0  0  0  0
   36.2810   30.6900   48.3400 C   0  0  0  0  0  0  0  0  0  0  0  0
   35.3470   29.7400   47.8900 C   0  0  0  0  0  0  0  0  0  0  0  0
   34.7430   28.1990   50.8500 H   0  0  0  0  0  0  0  0  0  0  0  0
   36.3690   29.8500   51.6370 H   0  0  0  0  0  0  0  0  0  0  0  0
   37.3370   31.4120   50.0780 H   0  0  0  0  0  0  0  0  0  0  0  0
   36.7730   31.4330   47.7380 H   0  0  0  0  0  0  0  0  0  0  0  0
   33.0690   25.7910   47.4250 C   0  0  0  0  0  0  0  0  0  0  0  0
   34.1090   26.6970   47.7070 C   0  0  0  0  0  0  0  0  0  0  0  0
   33.8220   27.8590   48.4230 C   0  0  0  0  0  0  0  0  0  0  0  0
   32.5390   28.0280   48.7980 N   0  0  0  0  0  0  0  0  0  0  0  0
   31.5470   27.1580   48.5270 C   0  0  0  0  0  0  0  0  0  0  0  0
   31.8190   26.0540   47.8470 N   0  0  0  0  0  0  0  0  0  0  0  0
   33.3930   24.9230   46.8660 H   0  0  0  0  0  0  0  0  0  0  0  0
   35.1140   26.5340   47.3950 H   0  0  0  0  0  0  0  0  0  0  0  0
   30.5410   27.3390   48.8490 H   0  0  0  0  0  0  0  0  0  0  0  0
   37.3930   30.6670   45.9580 C   0  0  0  0  0  0  0  0  0  0  0  0
   37.9540   32.0950   45.8960 C   0  0  0  0  0  0  0  0  0  0  0  0
   39.3180   31.9940   46.5920 C   0  0  0  0  0  0  0  0  0  0  0  0
   40.1960   31.0300   45.8700 C   0  0  0  0  0  0  0  0  0  0  0  0
   39.5130   30.4930   44.6370 C   0  0  0  0  0  0  0  0  0  0  0  0
   38.1600   29.8690   44.9800 C   0  0  0  0  0  0  0  0  0  0  0  0
  1  7  1  6  0  0  0
  1 22  1  0  0  0  0
  2  9  1  0  0  0  0
  2  1  1  0  0  0  0
  2  8  1  0  0  0  0
  3  2  1  0  0  0  0
  4 12  1  0  0  0  0
  4  5  1  0  0  0  0
  4  3  1  0  0  0  0
  5  6  1  0  0  0  0
  6 16  1  1  0  0  0
  6 36  1  0  0  0  0
  6  1  1  0  0  0  0
 10  3  1  0  0  0  0
 11  3  1  0  0  0  0
 13  4  1  0  0  0  0
 14  5  1  0  0  0  0
 15  5  1  0  0  0  0
 17 18  1  0  0  0  0
 18 19  2  0  0  0  0
 18 23  1  0  0  0  0
 19 24  1  0  0  0  0
 20 25  1  0  0  0  0
 20 19  1  0  0  0  0
 21 20  2  0  0  0  0
 22 21  1  0  0  0  0
 22 17  2  0  0  0  0
 26 21  1  0  0  0  0
 27 28  2  0  0  0  0
 27 32  1  0  0  0  0
 28 29  1  0  0  0  0
 29 17  1  0  0  0  0
 29 30  2  0  0  0  0
 31 30  1  0  0  0  0
 31 35  1  0  0  0  0
 32 31  2  0  0  0  0
 33 27  1  0  0  0  0
 34 28  1  0  0  0  0
 37 36  1  0  0  0  0
 37 38  1  0  0  0  0
 39 38  1  0  0  0  0
 40 41  1  0  0  0  0
 40 39  1  0  0  0  0
 41 36  1  0  0  0  0
M  END
>  <minimizedAffinity>
-6.18536568

>  <minimizedRMSD>
4.65369654

$$$$
