
 OpenBabel03262520283D

 17 18  0  0  0  0  0  0  0  0999 V2000
   38.0040   24.2820   37.9470 C   0  0  0  0  0  0  0  0  0  0  0  0
   38.8570   23.2460   38.3680 C   0  0  0  0  0  0  0  0  0  0  0  0
   39.8010   22.7720   37.4630 C   0  0  0  0  0  0  0  0  0  0  0  0
   39.8500   23.3290   36.2300 N   0  0  0  0  0  0  0  0  0  0  0  0
   39.0120   24.3260   35.8580 C   0  0  0  0  0  0  0  0  0  0  0  0
   38.1020   24.7910   36.7120 N   0  0  0  0  0  0  0  0  0  0  0  0
   40.6410   21.7350   37.9120 N   0  0  0  0  0  0  0  0  0  0  0  0
   37.2560   24.6630   38.6520 H   0  0  0  0  0  0  0  0  0  0  0  0
   38.7100   22.8890   39.3890 H   0  0  0  0  0  0  0  0  0  0  0  0
   40.2930   21.0080   38.5770 H   0  0  0  0  0  0  0  0  0  0  0  0
   41.6420   21.5480   37.6770 H   0  0  0  0  0  0  0  0  0  0  0  0
   39.1040   24.9140   34.4740 C   0  0  0  0  0  3  0  0  0  0  0  0
   37.9690   24.4740   33.6430 C   0  0  0  0  0  2  0  0  0  0  0  0
   37.1670   25.5220   32.9520 C   0  0  0  0  0  2  0  0  0  0  0  0
   37.2050   26.8660   33.6220 C   0  0  0  0  0  2  0  0  0  0  0  0
   38.6840   27.2650   33.6300 C   0  0  0  0  0  2  0  0  0  0  0  0
   39.3570   26.3700   34.6100 C   0  0  0  0  0  2  0  0  0  0  0  0
  1  2  1  0  0  0  0
  1  8  1  0  0  0  0
  2  9  1  0  0  0  0
  3  7  1  0  0  0  0
  3  2  2  0  0  0  0
  4  3  1  0  0  0  0
  5  4  2  0  0  0  0
  5  6  1  0  0  0  0
  6  1  2  0  0  0  0
  7 10  1  0  0  0  0
 11  7  1  0  0  0  0
 12 17  1  0  0  0  0
 12  5  1  0  0  0  0
 13 12  1  0  0  0  0
 14 15  1  0  0  0  0
 14 13  1  0  0  0  0
 15 16  1  0  0  0  0
 16 17  1  0  0  0  0
M  END
>  <minimizedAffinity>
-4.60943317

$$$$

 OpenBabel03262520283D

 17 18  0  0  0  0  0  0  0  0999 V2000
   36.4750   21.1270   33.8420 C   0  0  0  0  0  0  0  0  0  0  0  0
   35.5240   20.7590   34.8110 C   0  0  0  0  0  0  0  0  0  0  0  0
   35.7550   21.1410   36.1290 C   0  0  0  0  0  0  0  0  0  0  0  0
   36.8780   21.8440   36.4090 N   0  0  0  0  0  0  0  0  0  0  0  0
   37.7730   22.1810   35.4510 C   0  0  0  0  0  0  0  0  0  0  0  0
   37.5670   21.8230   34.1840 N   0  0  0  0  0  0  0  0  0  0  0  0
   34.7850   20.7590   37.0750 N   0  0  0  0  0  0  0  0  0  0  0  0
   36.3030   20.8310   32.8010 H   0  0  0  0  0  0  0  0  0  0  0  0
   34.6630   20.1940   34.4470 H   0  0  0  0  0  0  0  0  0  0  0  0
   34.2670   19.8570   36.9830 H   0  0  0  0  0  0  0  0  0  0  0  0
   34.4630   21.2650   37.9320 H   0  0  0  0  0  0  0  0  0  0  0  0
   39.0080   22.9630   35.8110 C   0  0  0  0  0  3  0  0  0  0  0  0
   39.1190   23.1220   37.2730 C   0  0  0  0  0  2  0  0  0  0  0  0
   40.3980   22.7190   37.9200 C   0  0  0  0  0  2  0  0  0  0  0  0
   41.1710   21.6790   37.1590 C   0  0  0  0  0  2  0  0  0  0  0  0
   41.4560   22.3150   35.7950 C   0  0  0  0  0  2  0  0  0  0  0  0
   40.1550   22.3750   35.0760 C   0  0  0  0  0  2  0  0  0  0  0  0
  1  6  2  0  0  0  0
  1  2  1  0  0  0  0
  2  3  2  0  0  0  0
  3  4  1  0  0  0  0
  3  7  1  0  0  0  0
  5 12  1  0  0  0  0
  5  4  2  0  0  0  0
  6  5  1  0  0  0  0
  7 11  1  0  0  0  0
  8  1  1  0  0  0  0
  9  2  1  0  0  0  0
 10  7  1  0  0  0  0
 12 13  1  0  0  0  0
 13 14  1  0  0  0  0
 15 14  1  0  0  0  0
 16 15  1  0  0  0  0
 17 16  1  0  0  0  0
 17 12  1  0  0  0  0
M  END
>  <minimizedAffinity>
-4.59091568

$$$$

 OpenBabel03262520283D

 17 18  0  0  0  0  0  0  0  0999 V2000
   36.7370   23.6750   32.1860 C   0  0  0  0  0  0  0  0  0  0  0  0
   35.7040   23.9130   31.2620 C   0  0  0  0  0  0  0  0  0  0  0  0
   35.3920   25.2350   30.9600 C   0  0  0  0  0  0  0  0  0  0  0  0
   36.0950   26.2190   31.5680 N   0  0  0  0  0  0  0  0  0  0  0  0
   37.0840   25.9540   32.4530 C   0  0  0  0  0  0  0  0  0  0  0  0
   37.3960   24.6940   32.7550 N   0  0  0  0  0  0  0  0  0  0  0  0
   34.3540   25.4420   30.0310 N   0  0  0  0  0  0  0  0  0  0  0  0
   36.9910   22.6380   32.4320 H   0  0  0  0  0  0  0  0  0  0  0  0
   35.2200   23.0270   30.8460 H   0  0  0  0  0  0  0  0  0  0  0  0
   33.5350   24.7940   29.9830 H   0  0  0  0  0  0  0  0  0  0  0  0
   34.2480   26.1960   29.3160 H   0  0  0  0  0  0  0  0  0  0  0  0
   37.8390   27.0830   33.1050 C   0  0  0  0  0  3  0  0  0  0  0  0
   37.2410   27.4270   34.4080 C   0  0  0  0  0  2  0  0  0  0  0  0
   38.1410   27.4680   35.5950 C   0  0  0  0  0  2  0  0  0  0  0  0
   39.3640   26.6050   35.4690 C   0  0  0  0  0  2  0  0  0  0  0  0
   40.1030   27.1410   34.2380 C   0  0  0  0  0  2  0  0  0  0  0  0
   39.2860   26.7570   33.0550 C   0  0  0  0  0  2  0  0  0  0  0  0
  1  8  1  0  0  0  0
  1  6  1  0  0  0  0
  2  1  2  0  0  0  0
  3  2  1  0  0  0  0
  3  4  2  0  0  0  0
  4  5  1  0  0  0  0
  5  6  2  0  0  0  0
  5 12  1  0  0  0  0
  7  3  1  0  0  0  0
  9  2  1  0  0  0  0
 10  7  1  0  0  0  0
 11  7  1  0  0  0  0
 12 13  1  0  0  0  0
 13 14  1  0  0  0  0
 15 14  1  0  0  0  0
 16 15  1  0  0  0  0
 17 12  1  0  0  0  0
 17 16  1  0  0  0  0
M  END
>  <minimizedAffinity>
-4.54966259

$$$$

 OpenBabel03262520283D

 17 18  0  0  0  0  0  0  0  0999 V2000
   37.9220   24.3790   38.0870 C   0  0  0  0  0  0  0  0  0  0  0  0
   38.7330   23.2800   38.4230 C   0  0  0  0  0  0  0  0  0  0  0  0
   39.7050   22.8850   37.5090 C   0  0  0  0  0  0  0  0  0  0  0  0
   39.8190   23.5750   36.3500 N   0  0  0  0  0  0  0  0  0  0  0  0
   39.0210   24.6280   36.0590 C   0  0  0  0  0  0  0  0  0  0  0  0
   38.0840   25.0200   36.9220 N   0  0  0  0  0  0  0  0  0  0  0  0
   40.5030   21.7830   37.8720 N   0  0  0  0  0  0  0  0  0  0  0  0
   37.1530   24.6980   38.7990 H   0  0  0  0  0  0  0  0  0  0  0  0
   38.5350   22.8150   39.3900 H   0  0  0  0  0  0  0  0  0  0  0  0
   40.1100   20.9950   38.4370 H   0  0  0  0  0  0  0  0  0  0  0  0
   41.5080   21.5960   37.6590 H   0  0  0  0  0  0  0  0  0  0  0  0
   39.1840   25.3650   34.7550 C   0  0  0  0  0  3  0  0  0  0  0  0
   39.7900   26.6910   34.9760 C   0  0  0  0  0  2  0  0  0  0  0  0
   40.9970   27.0440   34.1780 C   0  0  0  0  0  2  0  0  0  0  0  0
   41.7930   25.8600   33.7100 C   0  0  0  0  0  2  0  0  0  0  0  0
   40.8230   25.0420   32.8510 C   0  0  0  0  0  2  0  0  0  0  0  0
   39.8310   24.4460   33.7860 C   0  0  0  0  0  2  0  0  0  0  0  0
  1  2  1  0  0  0  0
  1  8  1  0  0  0  0
  2  9  1  0  0  0  0
  3  7  1  0  0  0  0
  3  2  2  0  0  0  0
  4  3  1  0  0  0  0
  5  4  2  0  0  0  0
  5  6  1  0  0  0  0
  6  1  2  0  0  0  0
  7 10  1  0  0  0  0
 11  7  1  0  0  0  0
 12 13  1  0  0  0  0
 12  5  1  0  0  0  0
 14 13  1  0  0  0  0
 15 14  1  0  0  0  0
 16 15  1  0  0  0  0
 16 17  1  0  0  0  0
 17 12  1  0  0  0  0
M  END
>  <minimizedAffinity>
-4.50665474

$$$$

 OpenBabel03262520283D

 17 18  0  0  0  0  0  0  0  0999 V2000
   41.3280   22.5970   36.3170 C   0  0  0  0  0  0  0  0  0  0  0  0
   40.5070   22.2890   37.4160 C   0  0  0  0  0  0  0  0  0  0  0  0
   39.3490   23.0390   37.5960 C   0  0  0  0  0  0  0  0  0  0  0  0
   39.0740   24.0220   36.7070 N   0  0  0  0  0  0  0  0  0  0  0  0
   39.8870   24.2920   35.6580 C   0  0  0  0  0  0  0  0  0  0  0  0
   41.0000   23.5840   35.4720 N   0  0  0  0  0  0  0  0  0  0  0  0
   38.5480   22.7080   38.7040 N   0  0  0  0  0  0  0  0  0  0  0  0
   42.2430   22.0120   36.1660 H   0  0  0  0  0  0  0  0  0  0  0  0
   40.8470   21.4710   38.0540 H   0  0  0  0  0  0  0  0  0  0  0  0
   38.9740   22.3710   39.5970 H   0  0  0  0  0  0  0  0  0  0  0  0
   37.5080   22.7410   38.8010 H   0  0  0  0  0  0  0  0  0  0  0  0
   39.5390   25.3970   34.6950 C   0  0  0  0  0  3  0  0  0  0  0  0
   38.4350   24.9890   33.8080 C   0  0  0  0  0  2  0  0  0  0  0  0
   37.2530   25.8900   33.7120 C   0  0  0  0  0  2  0  0  0  0  0  0
   37.0410   26.7560   34.9210 C   0  0  0  0  0  2  0  0  0  0  0  0
   38.3210   27.5900   35.0420 C   0  0  0  0  0  2  0  0  0  0  0  0
   39.3950   26.6540   35.4710 C   0  0  0  0  0  2  0  0  0  0  0  0
  1  2  1  0  0  0  0
  2  3  2  0  0  0  0
  2  9  1  0  0  0  0
  3  7  1  0  0  0  0
  4  3  1  0  0  0  0
  5  4  2  0  0  0  0
  6  5  1  0  0  0  0
  6  1  2  0  0  0  0
  7 11  1  0  0  0  0
  7 10  1  0  0  0  0
  8  1  1  0  0  0  0
 12 17  1  0  0  0  0
 12  5  1  0  0  0  0
 13 12  1  0  0  0  0
 14 13  1  0  0  0  0
 14 15  1  0  0  0  0
 15 16  1  0  0  0  0
 16 17  1  0  0  0  0
M  END
>  <minimizedAffinity>
-4.35625172

$$$$

 OpenBabel03262520283D

 17 18  0  0  0  0  0  0  0  0999 V2000
   41.8130   24.0150   35.4250 C   0  0  0  0  0  0  0  0  0  0  0  0
   41.9000   22.9400   36.3290 C   0  0  0  0  0  0  0  0  0  0  0  0
   40.7370   22.5410   36.9800 C   0  0  0  0  0  0  0  0  0  0  0  0
   39.5880   23.2040   36.7120 N   0  0  0  0  0  0  0  0  0  0  0  0
   39.5400   24.2350   35.8360 C   0  0  0  0  0  0  0  0  0  0  0  0
   40.6440   24.6310   35.2040 N   0  0  0  0  0  0  0  0  0  0  0  0
   40.8560   21.4630   37.8780 N   0  0  0  0  0  0  0  0  0  0  0  0
   42.7230   24.3380   34.9070 H   0  0  0  0  0  0  0  0  0  0  0  0
   42.8900   22.4950   36.4500 H   0  0  0  0  0  0  0  0  0  0  0  0
   41.7240   21.3230   38.4420 H   0  0  0  0  0  0  0  0  0  0  0  0
   40.1670   20.7090   38.0990 H   0  0  0  0  0  0  0  0  0  0  0  0
   38.2370   24.9420   35.5710 C   0  0  0  0  0  3  0  0  0  0  0  0
   38.2240   26.2710   36.2080 C   0  0  0  0  0  2  0  0  0  0  0  0
   37.8850   27.4460   35.3570 C   0  0  0  0  0  2  0  0  0  0  0  0
   38.1790   27.2520   33.8970 C   0  0  0  0  0  2  0  0  0  0  0  0
   37.3330   26.0450   33.4780 C   0  0  0  0  0  2  0  0  0  0  0  0
   37.9530   24.8530   34.1170 C   0  0  0  0  0  2  0  0  0  0  0  0
  1  2  1  0  0  0  0
  2  9  1  0  0  0  0
  2  3  2  0  0  0  0
  3  7  1  0  0  0  0
  4  3  1  0  0  0  0
  5  4  2  0  0  0  0
  6  1  2  0  0  0  0
  6  5  1  0  0  0  0
  7 11  1  0  0  0  0
  7 10  1  0  0  0  0
  8  1  1  0  0  0  0
 12  5  1  0  0  0  0
 12 13  1  0  0  0  0
 14 13  1  0  0  0  0
 15 14  1  0  0  0  0
 16 15  1  0  0  0  0
 16 17  1  0  0  0  0
 17 12  1  0  0  0  0
M  END
>  <minimizedAffinity>
-4.34133148

$$$$

 OpenBabel03262520283D

 17 18  0  0  0  0  0  0  0  0999 V2000
   38.1490   24.8200   36.1040 C   0  0  0  0  0  0  0  0  0  0  0  0
   37.7730   24.1680   37.2920 C   0  0  0  0  0  0  0  0  0  0  0  0
   38.6750   23.2710   37.8560 C   0  0  0  0  0  0  0  0  0  0  0  0
   39.8620   23.0740   37.2360 N   0  0  0  0  0  0  0  0  0  0  0  0
   40.1920   23.7200   36.0930 C   0  0  0  0  0  0  0  0  0  0  0  0
   39.3400   24.5810   35.5390 N   0  0  0  0  0  0  0  0  0  0  0  0
   38.2710   22.6340   39.0450 N   0  0  0  0  0  0  0  0  0  0  0  0
   37.4460   25.5280   35.6500 H   0  0  0  0  0  0  0  0  0  0  0  0
   36.7860   24.4200   37.6850 H   0  0  0  0  0  0  0  0  0  0  0  0
   37.2690   22.3850   39.2100 H   0  0  0  0  0  0  0  0  0  0  0  0
   38.8470   22.3400   39.8660 H   0  0  0  0  0  0  0  0  0  0  0  0
   41.5250   23.4670   35.4390 C   0  0  0  0  0  3  0  0  0  0  0  0
   42.1420   24.7330   35.0030 C   0  0  0  0  0  2  0  0  0  0  0  0
   43.5370   25.0140   35.4460 C   0  0  0  0  0  2  0  0  0  0  0  0
   43.9290   24.3180   36.7180 C   0  0  0  0  0  2  0  0  0  0  0  0
   43.7690   22.8240   36.4200 C   0  0  0  0  0  2  0  0  0  0  0  0
   42.3070   22.5680   36.3230 C   0  0  0  0  0  2  0  0  0  0  0  0
  1  2  1  0  0  0  0
  2  9  1  0  0  0  0
  2  3  2  0  0  0  0
  3  7  1  0  0  0  0
  4  3  1  0  0  0  0
  5  4  2  0  0  0  0
  6  5  1  0  0  0  0
  6  1  2  0  0  0  0
  7 10  1  0  0  0  0
  7 11  1  0  0  0  0
  8  1  1  0  0  0  0
 12  5  1  0  0  0  0
 12 17  1  0  0  0  0
 13 12  1  0  0  0  0
 13 14  1  0  0  0  0
 14 15  1  0  0  0  0
 16 15  1  0  0  0  0
 17 16  1  0  0  0  0
M  END
>  <minimizedAffinity>
-4.32873917

$$$$

 OpenBabel03262520283D

 17 18  0  0  0  0  0  0  0  0999 V2000
   35.7670   20.6950   35.2030 C   0  0  0  0  0  0  0  0  0  0  0  0
   35.6850   20.5530   33.8060 C   0  0  0  0  0  0  0  0  0  0  0  0
   36.5780   21.2780   33.0240 C   0  0  0  0  0  0  0  0  0  0  0  0
   37.4760   22.0780   33.6450 N   0  0  0  0  0  0  0  0  0  0  0  0
   37.5280   22.1910   34.9930 C   0  0  0  0  0  0  0  0  0  0  0  0
   36.6790   21.5050   35.7570 N   0  0  0  0  0  0  0  0  0  0  0  0
   36.4730   21.1140   31.6300 N   0  0  0  0  0  0  0  0  0  0  0  0
   35.0670   20.1290   35.8290 H   0  0  0  0  0  0  0  0  0  0  0  0
   34.9140   19.8730   33.4380 H   0  0  0  0  0  0  0  0  0  0  0  0
   35.5460   20.9560   31.1730 H   0  0  0  0  0  0  0  0  0  0  0  0
   37.2250   21.1240   30.9050 H   0  0  0  0  0  0  0  0  0  0  0  0
   38.5440   23.0960   35.6390 C   0  0  0  0  0  3  0  0  0  0  0  0
   37.8850   24.2410   36.2910 C   0  0  0  0  0  2  0  0  0  0  0  0
   38.2140   24.5100   37.7200 C   0  0  0  0  0  2  0  0  0  0  0  0
   38.6750   23.3010   38.4810 C   0  0  0  0  0  2  0  0  0  0  0  0
   39.9270   22.8180   37.7420 C   0  0  0  0  0  2  0  0  0  0  0  0
   39.4610   22.2540   36.4470 C   0  0  0  0  0  2  0  0  0  0  0  0
  1  6  1  0  0  0  0
  1  8  1  0  0  0  0
  2  1  2  0  0  0  0
  3  4  2  0  0  0  0
  3  2  1  0  0  0  0
  4  5  1  0  0  0  0
  5 12  1  0  0  0  0
  5  6  2  0  0  0  0
  7  3  1  0  0  0  0
  9  2  1  0  0  0  0
 10  7  1  0  0  0  0
 11  7  1  0  0  0  0
 12 13  1  0  0  0  0
 12 17  1  0  0  0  0
 13 14  1  0  0  0  0
 14 15  1  0  0  0  0
 16 15  1  0  0  0  0
 17 16  1  0  0  0  0
M  END
>  <minimizedAffinity>
-4.31369781

$$$$

 OpenBabel03262520283D

 17 18  0  0  0  0  0  0  0  0999 V2000
   31.0260   28.2450   35.1470 C   0  0  0  0  0  0  0  0  0  0  0  0
   30.8500   27.7910   36.4660 C   0  0  0  0  0  0  0  0  0  0  0  0
   31.4140   28.5410   37.4940 C   0  0  0  0  0  0  0  0  0  0  0  0
   32.0980   29.6640   37.1720 N   0  0  0  0  0  0  0  0  0  0  0  0
   32.2480   30.0720   35.8900 C   0  0  0  0  0  0  0  0  0  0  0  0
   31.7160   29.3650   34.8940 N   0  0  0  0  0  0  0  0  0  0  0  0
   31.2200   28.0630   38.8040 N   0  0  0  0  0  0  0  0  0  0  0  0
   30.5870   27.6620   34.3290 H   0  0  0  0  0  0  0  0  0  0  0  0
   30.2750   26.8700   36.5840 H   0  0  0  0  0  0  0  0  0  0  0  0
   31.1810   27.0370   39.0030 H   0  0  0  0  0  0  0  0  0  0  0  0
   31.0980   28.5990   39.6920 H   0  0  0  0  0  0  0  0  0  0  0  0
   33.0200   31.3290   35.5810 C   0  0  0  0  0  3  0  0  0  0  0  0
   33.5610   31.9260   36.8150 C   0  0  0  0  0  2  0  0  0  0  0  0
   35.0180   32.2350   36.8550 C   0  0  0  0  0  2  0  0  0  0  0  0
   35.8500   31.3910   35.9320 C   0  0  0  0  0  2  0  0  0  0  0  0
   35.2980   31.6710   34.5310 C   0  0  0  0  0  2  0  0  0  0  0  0
   33.9570   31.0300   34.4700 C   0  0  0  0  0  2  0  0  0  0  0  0
  1  2  1  0  0  0  0
  2  9  1  0  0  0  0
  2  3  2  0  0  0  0
  3  7  1  0  0  0  0
  4  3  1  0  0  0  0
  5  4  2  0  0  0  0
  6  1  2  0  0  0  0
  6  5  1  0  0  0  0
  7 10  1  0  0  0  0
  7 11  1  0  0  0  0
  8  1  1  0  0  0  0
 12  5  1  0  0  0  0
 12 13  1  0  0  0  0
 13 14  1  0  0  0  0
 15 14  1  0  0  0  0
 16 15  1  0  0  0  0
 17 16  1  0  0  0  0
 17 12  1  0  0  0  0
M  END
>  <minimizedAffinity>
-4.28800154

$$$$
