
 OpenBabel03272509543D

 40 43  0  0  0  0  0  0  0  0999 V2000
   34.9990   28.3020   49.5410 O   0  0  0  0  0  0  0  0  0  0  0  0
   37.3430   30.1880   51.5320 C   0  0  0  0  0  0  0  0  0  0  0  0
   38.0510   30.8650   50.5090 C   0  0  0  0  0  0  0  0  0  0  0  0
   37.6740   30.6250   49.1990 C   0  0  0  0  0  0  0  0  0  0  0  0
   36.6430   29.7500   49.0100 N   0  0  0  0  0  0  0  0  0  0  0  0
   35.9890   29.1250   49.9920 C   0  0  0  0  0  0  0  0  0  0  0  0
   36.3530   29.3550   51.2680 N   0  0  0  0  0  0  0  0  0  0  0  0
   37.6440   30.3830   52.5500 H   0  0  0  0  0  0  0  0  0  0  0  0
   38.8500   31.5410   50.6680 H   0  0  0  0  0  0  0  0  0  0  0  0
   39.0250   33.1750   48.9820 F   0  0  0  0  0  0  0  0  0  0  0  0
   38.9120   32.4030   47.8980 C   0  0  0  0  0  0  0  0  0  0  0  0
   38.2770   31.2190   48.0290 C   0  0  0  0  0  0  0  0  0  0  0  0
   38.2120   30.4860   46.8390 C   0  0  0  0  0  0  0  0  0  0  0  0
   38.7500   30.9460   45.6610 C   0  0  0  0  0  0  0  0  0  0  0  0
   39.3840   32.1590   45.5910 C   0  0  0  0  0  0  0  0  0  0  0  0
   39.4590   32.8910   46.7390 C   0  0  0  0  0  0  0  0  0  0  0  0
   37.7350   29.5150   46.7810 H   0  0  0  0  0  0  0  0  0  0  0  0
   38.6920   30.3640   44.7410 H   0  0  0  0  0  0  0  0  0  0  0  0
   39.7980   32.4940   44.6480 H   0  0  0  0  0  0  0  0  0  0  0  0
   39.9550   33.8520   46.7080 H   0  0  0  0  0  0  0  0  0  0  0  0
   34.4360   28.5470   48.2600 C   0  0  0  0  0  0  0  0  0  0  0  0
   35.2400   28.7950   47.5410 H   0  0  0  0  0  0  0  0  0  0  0  0
   33.8000   29.4580   48.3460 H   0  0  0  0  0  0  0  0  0  0  0  0
   33.5620   27.4020   47.8370 C   0  0  0  0  0  0  0  0  0  0  0  0
   33.6560   26.5180   48.4750 H   0  0  0  0  0  0  0  0  0  0  0  0
   33.8670   27.1160   46.7870 H   0  0  0  0  0  0  0  0  0  0  0  0
   32.1290   27.7860   47.7280 C   0  0  0  0  0  0  0  0  0  0  0  0
   31.3220   27.5800   48.8470 C   0  0  0  0  0  0  0  0  0  0  0  0
   29.9880   27.9000   48.8530 C   0  0  0  0  0  0  0  0  0  0  0  0
   29.4460   28.4180   47.7700 N   0  0  0  0  0  0  0  0  0  0  0  0
   30.2400   28.6200   46.6690 C   0  0  0  0  0  0  0  0  0  0  0  0
   31.5540   28.3170   46.6310 N   0  0  0  0  0  0  0  0  0  0  0  0
   31.7380   27.1540   49.7610 H   0  0  0  0  0  0  0  0  0  0  0  0
   29.4020   27.7250   49.7380 H   0  0  0  0  0  0  0  0  0  0  0  0
   29.6610   29.2040   45.4290 C   0  0  0  0  0  3  0  0  0  0  0  0
   30.8130   29.7780   44.6290 C   0  0  0  0  0  2  0  0  0  0  0  0
   30.9010   31.2550   44.9380 C   0  0  0  0  0  2  0  0  0  0  0  0
   29.7200   31.9080   44.2480 C   0  0  0  0  0  2  0  0  0  0  0  0
   28.4450   31.2170   44.6110 C   0  0  0  0  0  2  0  0  0  0  0  0
   28.5850   30.2140   45.7300 C   0  0  0  0  0  2  0  0  0  0  0  0
  1  6  1  0  0  0  0
  2  8  1  0  0  0  0
  3  9  1  0  0  0  0
  3  2  2  0  0  0  0
  4  3  1  0  0  0  0
  5  4  2  0  0  0  0
  5  6  1  0  0  0  0
  6  7  2  0  0  0  0
  7  2  1  0  0  0  0
 11 12  1  0  0  0  0
 11 10  1  0  0  0  0
 12  4  1  0  0  0  0
 13 12  2  0  0  0  0
 14 13  1  0  0  0  0
 15 14  2  0  0  0  0
 15 16  1  0  0  0  0
 16 11  2  0  0  0  0
 17 13  1  0  0  0  0
 18 14  1  0  0  0  0
 19 15  1  0  0  0  0
 20 16  1  0  0  0  0
 21 23  1  0  0  0  0
 21  1  1  0  0  0  0
 22 21  1  0  0  0  0
 24 21  1  0  0  0  0
 24 25  1  0  0  0  0
 26 24  1  0  0  0  0
 27 24  1  0  0  0  0
 27 28  1  0  0  0  0
 28 29  2  0  0  0  0
 28 33  1  0  0  0  0
 29 34  1  0  0  0  0
 30 29  1  0  0  0  0
 31 30  2  0  0  0  0
 32 31  1  0  0  0  0
 32 27  2  0  0  0  0
 35 40  1  0  0  0  0
 35 31  1  0  0  0  0
 36 37  1  0  0  0  0
 36 35  1  0  0  0  0
 38 39  1  0  0  0  0
 38 37  1  0  0  0  0
 39 40  1  0  0  0  0
M  END
>  <minimizedAffinity>
-6.51770067

>  <minimizedRMSD>
0.443347663

$$$$
