
 OpenBabel03272500123D

 18 19  0  0  1  0  0  0  0  0999 V2000
   35.4240   29.2160   50.4670 C   0  0  0  0  0  0  0  0  0  0  0  0
   36.1870   30.1500   49.7440 C   0  0  0  0  0  0  0  0  0  0  0  0
   35.9650   30.2620   48.3700 C   0  0  0  0  0  0  0  0  0  0  0  0
   35.0190   29.4570   47.8080 N   0  0  0  0  0  0  0  0  0  0  0  0
   34.3020   28.5670   48.5330 C   0  0  0  0  0  0  0  0  0  0  0  0
   34.5000   28.4460   49.8460 N   0  0  0  0  0  0  0  0  0  0  0  0
   35.5530   29.0850   51.5360 H   0  0  0  0  0  0  0  0  0  0  0  0
   36.5560   30.9760   47.8440 H   0  0  0  0  0  0  0  0  0  0  0  0
   33.3010   27.7500   47.7970 C   0  0  1  0  0  0  0  0  0  0  0  0
   33.7410   26.3470   47.5250 C   0  0  0  0  0  0  0  0  0  0  0  0
   32.6880   25.7690   46.6060 C   0  0  0  0  0  0  0  0  0  0  0  0
   31.3220   25.7680   47.1800 C   0  0  0  0  0  0  0  0  0  0  0  0
   30.9720   26.8520   48.1230 C   0  0  0  0  0  0  0  0  0  0  0  0
   32.0650   27.6820   48.6600 C   0  0  0  0  0  0  0  0  0  0  0  0
   37.1900   30.9650   50.4980 C   0  0  0  0  0  0  0  0  0  0  0  0
   38.4470   30.8740   49.8750 F   0  0  0  0  0  0  0  0  0  0  0  0
   36.8020   32.2840   50.4140 F   0  0  0  0  0  0  0  0  0  0  0  0
   37.3300   30.5990   51.8080 F   0  0  0  0  0  0  0  0  0  0  0  0
  1  7  1  0  0  0  0
  2  1  2  0  0  0  0
  2 15  1  0  0  0  0
  3  2  1  0  0  0  0
  4  3  2  0  0  0  0
  4  5  1  0  0  0  0
  5  6  2  0  0  0  0
  6  1  1  0  0  0  0
  8  3  1  0  0  0  0
  9  5  1  1  0  0  0
  9 14  1  0  0  0  0
 10  9  1  0  0  0  0
 11 12  1  0  0  0  0
 11 10  1  0  0  0  0
 12 13  2  0  0  0  0
 13 14  1  0  0  0  0
 15 18  1  0  0  0  0
 16 15  1  0  0  0  0
 17 15  1  0  0  0  0
M  END
>  <minimizedAffinity>
-5.34090662

>  <minimizedRMSD>
0.747343421

$$$$
