
 OpenBabel03262520533D

 22 24  0  0  1  0  0  0  0  0999 V2000
   38.8170   31.5290   48.4110 C   0  0  2  0  0  0  0  0  0  0  0  0
   38.7330   33.0040   48.4070 C   0  0  0  0  0  0  0  0  0  0  0  0
   38.3080   32.2010   47.2040 C   0  0  1  0  0  0  0  0  0  0  0  0
   39.8380   31.1220   48.4100 H   0  0  0  0  0  0  0  0  0  0  0  0
   37.9860   33.5100   49.0380 H   0  0  0  0  0  0  0  0  0  0  0  0
   39.6570   33.5800   48.2410 H   0  0  0  0  0  0  0  0  0  0  0  0
   37.2110   32.1570   47.0260 H   0  0  0  0  0  0  0  0  0  0  0  0
   36.0840   29.1780   49.3820 C   0  0  0  0  0  0  0  0  0  0  0  0
   36.1500   29.2410   50.7770 C   0  0  0  0  0  0  0  0  0  0  0  0
   37.1210   30.0890   51.3840 C   0  0  0  0  0  0  0  0  0  0  0  0
   37.9370   30.7950   50.5760 N   0  0  0  0  0  0  0  0  0  0  0  0
   37.8500   30.7150   49.2190 C   0  0  0  0  0  0  0  0  0  0  0  0
   36.9310   29.9130   48.6170 N   0  0  0  0  0  0  0  0  0  0  0  0
   35.3730   28.5570   48.8620 H   0  0  0  0  0  0  0  0  0  0  0  0
   35.4600   28.6420   51.3570 H   0  0  0  0  0  0  0  0  0  0  0  0
   37.1620   30.1290   52.4640 H   0  0  0  0  0  0  0  0  0  0  0  0
   39.1110   32.2310   45.9260 C   0  0  1  0  0  0  0  0  0  0  0  0
   39.8490   30.9460   45.7900 C   0  0  0  0  0  0  0  0  0  0  0  0
   39.1950   29.9240   44.9220 C   0  0  0  0  0  0  0  0  0  0  0  0
   37.7940   30.2380   44.5200 C   0  0  0  0  0  0  0  0  0  0  0  0
   37.7490   31.6010   43.9110 C   0  0  0  0  0  0  0  0  0  0  0  0
   38.3380   32.6880   44.7470 C   0  0  0  0  0  0  0  0  0  0  0  0
  1  4  1  6  0  0  0
  1 12  1  0  0  0  0
  2  1  1  0  0  0  0
  2  5  1  0  0  0  0
  3  7  1  6  0  0  0
  3  2  1  0  0  0  0
  3  1  1  0  0  0  0
  6  2  1  0  0  0  0
  8  9  1  0  0  0  0
  9 15  1  0  0  0  0
  9 10  2  0  0  0  0
 10 16  1  0  0  0  0
 11 10  1  0  0  0  0
 12 11  2  0  0  0  0
 13 12  1  0  0  0  0
 13  8  2  0  0  0  0
 14  8  1  0  0  0  0
 17 22  1  6  0  0  0
 17  3  1  0  0  0  0
 18 17  1  0  0  0  0
 19 18  2  0  0  0  0
 20 19  1  0  0  0  0
 21 20  1  0  0  0  0
 21 22  2  0  0  0  0
M  END
>  <minimizedAffinity>
-5.32674026

>  <minimizedRMSD>
6.37212133

$$$$
