
 OpenBabel03272504143D

 28 30  0  0  0  0  0  0  0  0999 V2000
   38.9920   26.8310   34.5450 Cl  0  0  0  0  0  0  0  0  0  0  0  0
   38.1090   25.7690   33.4240 C   0  0  0  0  0  0  0  0  0  0  0  0
   38.0010   24.4110   33.6160 C   0  0  0  0  0  0  0  0  0  0  0  0
   37.2980   23.7350   32.6780 C   0  0  0  0  0  0  0  0  0  0  0  0
   36.7170   24.3460   31.5950 C   0  0  0  0  0  0  0  0  0  0  0  0
   36.8240   25.7110   31.3990 C   0  0  0  0  0  0  0  0  0  0  0  0
   37.5420   26.4220   32.3490 C   0  0  0  0  0  0  0  0  0  0  0  0
   37.1830   22.6580   32.7870 H   0  0  0  0  0  0  0  0  0  0  0  0
   36.1740   23.7570   30.8890 H   0  0  0  0  0  0  0  0  0  0  0  0
   36.3580   26.1680   30.5370 H   0  0  0  0  0  0  0  0  0  0  0  0
   38.8190   23.5030   37.1650 C   0  0  0  0  0  0  0  0  0  0  0  0
   38.1840   24.0730   36.0560 C   0  0  0  0  0  0  0  0  0  0  0  0
   38.6340   23.8370   34.7750 C   0  0  0  0  0  0  0  0  0  0  0  0
   39.7260   23.0190   34.6710 N   0  0  0  0  0  0  0  0  0  0  0  0
   40.3360   22.4710   35.7250 C   0  0  0  0  0  0  0  0  0  0  0  0
   39.8760   22.7180   36.9640 N   0  0  0  0  0  0  0  0  0  0  0  0
   37.3170   24.7160   36.2390 H   0  0  0  0  0  0  0  0  0  0  0  0
   41.1980   21.8300   35.5880 H   0  0  0  0  0  0  0  0  0  0  0  0
   38.2870   23.7940   38.5300 C   0  0  0  0  0  0  0  0  0  0  0  0
   37.8400   25.1000   38.5670 F   0  0  0  0  0  0  0  0  0  0  0  0
   37.3230   22.8700   38.8030 F   0  0  0  0  0  0  0  0  0  0  0  0
   39.3430   23.6630   39.4210 F   0  0  0  0  0  0  0  0  0  0  0  0
   37.6620   27.9090   32.1400 C   0  0  0  0  0  3  0  0  0  0  0  0
   38.1640   28.2520   30.7730 C   0  0  0  0  0  2  0  0  0  0  0  0
   37.0600   28.5380   29.7690 C   0  0  0  0  0  2  0  0  0  0  0  0
   36.4100   29.8010   30.3380 C   0  0  0  0  0  2  0  0  0  0  0  0
   35.6210   29.2810   31.5270 C   0  0  0  0  0  2  0  0  0  0  0  0
   36.4570   28.6610   32.5840 C   0  0  0  0  0  2  0  0  0  0  0  0
  2  3  1  0  0  0  0
  2  1  1  0  0  0  0
  3 13  1  0  0  0  0
  4  8  1  0  0  0  0
  4  3  2  0  0  0  0
  5  4  1  0  0  0  0
  6  5  2  0  0  0  0
  6  7  1  0  0  0  0
  7  2  2  0  0  0  0
  9  5  1  0  0  0  0
 10  6  1  0  0  0  0
 11 19  1  0  0  0  0
 12 17  1  0  0  0  0
 12 11  2  0  0  0  0
 13 12  1  0  0  0  0
 14 13  2  0  0  0  0
 14 15  1  0  0  0  0
 15 16  2  0  0  0  0
 16 11  1  0  0  0  0
 18 15  1  0  0  0  0
 19 20  1  0  0  0  0
 19 21  1  0  0  0  0
 19 22  1  0  0  0  0
 23  7  1  0  0  0  0
 23 28  1  0  0  0  0
 24 23  1  0  0  0  0
 25 26  1  0  0  0  0
 25 24  1  0  0  0  0
 26 27  1  0  0  0  0
 27 28  1  0  0  0  0
M  END
>  <minimizedAffinity>
-6.21640778

$$$$

 OpenBabel03272504143D

 28 30  0  0  0  0  0  0  0  0999 V2000
   37.6430   27.9380   35.2680 Cl  0  0  0  0  0  0  0  0  0  0  0  0
   37.0810   27.0900   33.8090 C   0  0  0  0  0  0  0  0  0  0  0  0
   37.4330   25.7910   33.5230 C   0  0  0  0  0  0  0  0  0  0  0  0
   36.9280   25.2800   32.3770 C   0  0  0  0  0  0  0  0  0  0  0  0
   36.1110   25.9940   31.5370 C   0  0  0  0  0  0  0  0  0  0  0  0
   35.7540   27.3010   31.8220 C   0  0  0  0  0  0  0  0  0  0  0  0
   36.2640   27.8430   32.9920 C   0  0  0  0  0  0  0  0  0  0  0  0
   37.1770   24.2560   32.1070 H   0  0  0  0  0  0  0  0  0  0  0  0
   35.7430   25.5350   30.6450 H   0  0  0  0  0  0  0  0  0  0  0  0
   35.1100   27.8420   31.1430 H   0  0  0  0  0  0  0  0  0  0  0  0
   38.7460   24.0950   36.6030 C   0  0  0  0  0  0  0  0  0  0  0  0
   37.8900   24.7650   35.7240 C   0  0  0  0  0  0  0  0  0  0  0  0
   38.2930   25.1010   34.4490 C   0  0  0  0  0  0  0  0  0  0  0  0
   39.5690   24.7360   34.1160 N   0  0  0  0  0  0  0  0  0  0  0  0
   40.3910   24.0960   34.9500 C   0  0  0  0  0  0  0  0  0  0  0  0
   39.9710   23.7810   36.1890 N   0  0  0  0  0  0  0  0  0  0  0  0
   36.8850   25.0160   36.0810 H   0  0  0  0  0  0  0  0  0  0  0  0
   41.3940   23.8300   34.6370 H   0  0  0  0  0  0  0  0  0  0  0  0
   38.2540   23.7570   37.9730 C   0  0  0  0  0  0  0  0  0  0  0  0
   37.9610   24.9270   38.6440 F   0  0  0  0  0  0  0  0  0  0  0  0
   37.1900   22.9160   37.8330 F   0  0  0  0  0  0  0  0  0  0  0  0
   39.2890   23.1130   38.6360 F   0  0  0  0  0  0  0  0  0  0  0  0
   35.8800   29.2650   33.3080 C   0  0  0  0  0  3  0  0  0  0  0  0
   36.2150   30.2040   32.1930 C   0  0  0  0  0  2  0  0  0  0  0  0
   35.0610   30.4580   31.2370 C   0  0  0  0  0  2  0  0  0  0  0  0
   34.0390   31.1670   32.1280 C   0  0  0  0  0  2  0  0  0  0  0  0
   33.4880   30.0430   32.9890 C   0  0  0  0  0  2  0  0  0  0  0  0
   34.5020   29.3910   33.8550 C   0  0  0  0  0  2  0  0  0  0  0  0
  2  1  1  0  0  0  0
  3  2  1  0  0  0  0
  3 13  1  0  0  0  0
  4  3  2  0  0  0  0
  5  6  2  0  0  0  0
  5  4  1  0  0  0  0
  6  7  1  0  0  0  0
  7 23  1  0  0  0  0
  7  2  2  0  0  0  0
  8  4  1  0  0  0  0
  9  5  1  0  0  0  0
 10  6  1  0  0  0  0
 11 19  1  0  0  0  0
 12 17  1  0  0  0  0
 12 11  2  0  0  0  0
 13 12  1  0  0  0  0
 14 13  2  0  0  0  0
 14 15  1  0  0  0  0
 15 16  2  0  0  0  0
 16 11  1  0  0  0  0
 18 15  1  0  0  0  0
 19 22  1  0  0  0  0
 19 20  1  0  0  0  0
 21 19  1  0  0  0  0
 23 28  1  0  0  0  0
 24 23  1  0  0  0  0
 25 26  1  0  0  0  0
 25 24  1  0  0  0  0
 26 27  1  0  0  0  0
 27 28  1  0  0  0  0
M  END
>  <minimizedAffinity>
-5.98100948

$$$$

 OpenBabel03272504143D

 28 30  0  0  0  0  0  0  0  0999 V2000
   38.8820   26.6860   35.2770 Cl  0  0  0  0  0  0  0  0  0  0  0  0
   38.2000   25.5050   34.1350 C   0  0  0  0  0  0  0  0  0  0  0  0
   38.1880   24.1520   34.3840 C   0  0  0  0  0  0  0  0  0  0  0  0
   37.6350   23.3780   33.4220 C   0  0  0  0  0  0  0  0  0  0  0  0
   37.1110   23.8890   32.2610 C   0  0  0  0  0  0  0  0  0  0  0  0
   37.1210   25.2490   32.0070 C   0  0  0  0  0  0  0  0  0  0  0  0
   37.6850   26.0600   32.9820 C   0  0  0  0  0  0  0  0  0  0  0  0
   37.6020   22.3010   33.5730 H   0  0  0  0  0  0  0  0  0  0  0  0
   36.6880   23.2260   31.5390 H   0  0  0  0  0  0  0  0  0  0  0  0
   36.7030   25.6270   31.0850 H   0  0  0  0  0  0  0  0  0  0  0  0
   40.4990   22.5940   36.8980 C   0  0  0  0  0  0  0  0  0  0  0  0
   39.9710   23.0380   35.6810 C   0  0  0  0  0  0  0  0  0  0  0  0
   38.7550   23.6850   35.6220 C   0  0  0  0  0  0  0  0  0  0  0  0
   38.1170   23.8570   36.8200 N   0  0  0  0  0  0  0  0  0  0  0  0
   38.6150   23.4360   37.9850 C   0  0  0  0  0  0  0  0  0  0  0  0
   39.8040   22.8080   38.0130 N   0  0  0  0  0  0  0  0  0  0  0  0
   40.5560   22.8540   34.7740 H   0  0  0  0  0  0  0  0  0  0  0  0
   38.0680   23.5970   38.9060 H   0  0  0  0  0  0  0  0  0  0  0  0
   41.8220   21.8990   36.9010 C   0  0  0  0  0  0  0  0  0  0  0  0
   42.8250   22.8480   36.8970 F   0  0  0  0  0  0  0  0  0  0  0  0
   41.8480   21.0680   37.9810 F   0  0  0  0  0  0  0  0  0  0  0  0
   41.9040   21.1630   35.7270 F   0  0  0  0  0  0  0  0  0  0  0  0
   37.6990   27.5420   32.7110 C   0  0  0  0  0  3  0  0  0  0  0  0
   38.1930   27.8630   31.3360 C   0  0  0  0  0  2  0  0  0  0  0  0
   37.0850   28.0240   30.3090 C   0  0  0  0  0  2  0  0  0  0  0  0
   36.3370   29.2590   30.8170 C   0  0  0  0  0  2  0  0  0  0  0  0
   35.5720   28.7340   32.0190 C   0  0  0  0  0  2  0  0  0  0  0  0
   36.4370   28.2210   33.1100 C   0  0  0  0  0  2  0  0  0  0  0  0
  2  3  1  0  0  0  0
  2  1  1  0  0  0  0
  3 13  1  0  0  0  0
  4  8  1  0  0  0  0
  4  3  2  0  0  0  0
  5  4  1  0  0  0  0
  6  5  2  0  0  0  0
  6  7  1  0  0  0  0
  7  2  2  0  0  0  0
  9  5  1  0  0  0  0
 10  6  1  0  0  0  0
 11 19  1  0  0  0  0
 11 16  1  0  0  0  0
 12 11  2  0  0  0  0
 13 12  1  0  0  0  0
 13 14  2  0  0  0  0
 14 15  1  0  0  0  0
 15 16  2  0  0  0  0
 15 18  1  0  0  0  0
 17 12  1  0  0  0  0
 19 21  1  0  0  0  0
 20 19  1  0  0  0  0
 22 19  1  0  0  0  0
 23  7  1  0  0  0  0
 23 28  1  0  0  0  0
 24 23  1  0  0  0  0
 25 26  1  0  0  0  0
 25 24  1  0  0  0  0
 26 27  1  0  0  0  0
 27 28  1  0  0  0  0
M  END
>  <minimizedAffinity>
-5.91310883

$$$$

 OpenBabel03272504143D

 28 30  0  0  0  0  0  0  0  0999 V2000
   39.5900   26.5380   34.2390 Cl  0  0  0  0  0  0  0  0  0  0  0  0
   38.5090   25.5190   33.2620 C   0  0  0  0  0  0  0  0  0  0  0  0
   38.2100   24.2180   33.5960 C   0  0  0  0  0  0  0  0  0  0  0  0
   37.3710   23.5700   32.7550 C   0  0  0  0  0  0  0  0  0  0  0  0
   36.8380   24.1530   31.6340 C   0  0  0  0  0  0  0  0  0  0  0  0
   37.1360   25.4610   31.2950 C   0  0  0  0  0  0  0  0  0  0  0  0
   37.9950   26.1430   32.1440 C   0  0  0  0  0  0  0  0  0  0  0  0
   37.1040   22.5380   32.9770 H   0  0  0  0  0  0  0  0  0  0  0  0
   36.1810   23.5880   31.0090 H   0  0  0  0  0  0  0  0  0  0  0  0
   36.7040   25.8980   30.4060 H   0  0  0  0  0  0  0  0  0  0  0  0
   38.9140   23.3920   37.1890 C   0  0  0  0  0  0  0  0  0  0  0  0
   38.3170   23.9380   36.0480 C   0  0  0  0  0  0  0  0  0  0  0  0
   38.8050   23.6700   34.7870 C   0  0  0  0  0  0  0  0  0  0  0  0
   39.8950   22.8450   34.7370 N   0  0  0  0  0  0  0  0  0  0  0  0
   40.4700   22.3200   35.8210 C   0  0  0  0  0  0  0  0  0  0  0  0
   39.9730   22.5990   37.0400 N   0  0  0  0  0  0  0  0  0  0  0  0
   37.4470   24.5880   36.1890 H   0  0  0  0  0  0  0  0  0  0  0  0
   41.3330   21.6730   35.7260 H   0  0  0  0  0  0  0  0  0  0  0  0
   38.3420   23.7180   38.5300 C   0  0  0  0  0  0  0  0  0  0  0  0
   37.3080   22.8430   38.7990 F   0  0  0  0  0  0  0  0  0  0  0  0
   39.3600   23.6690   39.4350 F   0  0  0  0  0  0  0  0  0  0  0  0
   37.8250   25.0040   38.4570 F   0  0  0  0  0  0  0  0  0  0  0  0
   38.3240   27.5680   31.7800 C   0  0  0  0  0  3  0  0  0  0  0  0
   39.4080   27.6550   30.7530 C   0  0  0  0  0  2  0  0  0  0  0  0
   38.8950   27.7620   29.3270 C   0  0  0  0  0  2  0  0  0  0  0  0
   38.1720   29.1110   29.3320 C   0  0  0  0  0  2  0  0  0  0  0  0
   36.8950   28.8200   30.1020 C   0  0  0  0  0  2  0  0  0  0  0  0
   37.1180   28.3950   31.5060 C   0  0  0  0  0  2  0  0  0  0  0  0
  2  3  1  0  0  0  0
  2  1  1  0  0  0  0
  3 13  1  0  0  0  0
  4  8  1  0  0  0  0
  4  3  2  0  0  0  0
  5  4  1  0  0  0  0
  6  5  2  0  0  0  0
  6  7  1  0  0  0  0
  7  2  2  0  0  0  0
  9  5  1  0  0  0  0
 10  6  1  0  0  0  0
 11 19  1  0  0  0  0
 12 17  1  0  0  0  0
 12 11  2  0  0  0  0
 13 12  1  0  0  0  0
 14 13  2  0  0  0  0
 14 15  1  0  0  0  0
 15 16  2  0  0  0  0
 16 11  1  0  0  0  0
 18 15  1  0  0  0  0
 19 20  1  0  0  0  0
 19 21  1  0  0  0  0
 22 19  1  0  0  0  0
 23  7  1  0  0  0  0
 24 23  1  0  0  0  0
 25 26  1  0  0  0  0
 25 24  1  0  0  0  0
 26 27  1  0  0  0  0
 27 28  1  0  0  0  0
 28 23  1  0  0  0  0
M  END
>  <minimizedAffinity>
-5.8723073

$$$$

 OpenBabel03272504143D

 28 30  0  0  0  0  0  0  0  0999 V2000
   38.1210   27.8530   35.5230 Cl  0  0  0  0  0  0  0  0  0  0  0  0
   37.6830   26.6720   34.2680 C   0  0  0  0  0  0  0  0  0  0  0  0
   36.8980   26.9950   33.1860 C   0  0  0  0  0  0  0  0  0  0  0  0
   36.6500   25.9890   32.3150 C   0  0  0  0  0  0  0  0  0  0  0  0
   37.1430   24.7190   32.4790 C   0  0  0  0  0  0  0  0  0  0  0  0
   37.9330   24.3910   33.5660 C   0  0  0  0  0  0  0  0  0  0  0  0
   38.1970   25.4080   34.4720 C   0  0  0  0  0  0  0  0  0  0  0  0
   36.0340   26.1950   31.4410 H   0  0  0  0  0  0  0  0  0  0  0  0
   36.9110   23.9680   31.7550 H   0  0  0  0  0  0  0  0  0  0  0  0
   38.3080   23.3830   33.6740 H   0  0  0  0  0  0  0  0  0  0  0  0
   35.2610   30.2830   33.9570 C   0  0  0  0  0  0  0  0  0  0  0  0
   35.7180   28.9680   34.0900 C   0  0  0  0  0  0  0  0  0  0  0  0
   36.4160   28.3460   33.0760 C   0  0  0  0  0  0  0  0  0  0  0  0
   36.6220   29.0990   31.9520 N   0  0  0  0  0  0  0  0  0  0  0  0
   36.1890   30.3540   31.8190 C   0  0  0  0  0  0  0  0  0  0  0  0
   35.5110   30.9360   32.8250 N   0  0  0  0  0  0  0  0  0  0  0  0
   35.5030   28.4450   35.0280 H   0  0  0  0  0  0  0  0  0  0  0  0
   36.3800   30.9070   30.9070 H   0  0  0  0  0  0  0  0  0  0  0  0
   34.5100   30.9040   35.0900 C   0  0  0  0  0  0  0  0  0  0  0  0
   35.3840   31.1320   36.1340 F   0  0  0  0  0  0  0  0  0  0  0  0
   33.9070   32.0310   34.6150 F   0  0  0  0  0  0  0  0  0  0  0  0
   33.5550   29.9870   35.5040 F   0  0  0  0  0  0  0  0  0  0  0  0
   39.0570   25.0570   35.6580 C   0  0  0  0  0  3  0  0  0  0  0  0
   38.2550   24.5210   36.8020 C   0  0  0  0  0  2  0  0  0  0  0  0
   38.1720   23.0050   36.8360 C   0  0  0  0  0  2  0  0  0  0  0  0
   39.6270   22.5970   37.0790 C   0  0  0  0  0  2  0  0  0  0  0  0
   40.2880   22.8430   35.7340 C   0  0  0  0  0  2  0  0  0  0  0  0
   40.2590   24.2600   35.2940 C   0  0  0  0  0  2  0  0  0  0  0  0
  2  7  1  0  0  0  0
  2  1  1  0  0  0  0
  3  2  2  0  0  0  0
  4  5  2  0  0  0  0
  4  3  1  0  0  0  0
  5  6  1  0  0  0  0
  6 10  1  0  0  0  0
  6  7  2  0  0  0  0
  7 23  1  0  0  0  0
  8  4  1  0  0  0  0
  9  5  1  0  0  0  0
 11 12  1  0  0  0  0
 11 19  1  0  0  0  0
 12 17  1  0  0  0  0
 13  3  1  0  0  0  0
 13 12  2  0  0  0  0
 14 13  1  0  0  0  0
 15 14  2  0  0  0  0
 15 16  1  0  0  0  0
 16 11  2  0  0  0  0
 18 15  1  0  0  0  0
 19 22  1  0  0  0  0
 19 20  1  0  0  0  0
 21 19  1  0  0  0  0
 23 24  1  0  0  0  0
 24 25  1  0  0  0  0
 25 26  1  0  0  0  0
 27 26  1  0  0  0  0
 28 23  1  0  0  0  0
 28 27  1  0  0  0  0
M  END
>  <minimizedAffinity>
-5.67627668

$$$$

 OpenBabel03272504143D

 28 30  0  0  0  0  0  0  0  0999 V2000
   36.5960   28.1860   34.5590 Cl  0  0  0  0  0  0  0  0  0  0  0  0
   35.9690   29.2750   33.3010 C   0  0  0  0  0  0  0  0  0  0  0  0
   36.1640   29.0480   31.9580 C   0  0  0  0  0  0  0  0  0  0  0  0
   35.6270   29.9650   31.1200 C   0  0  0  0  0  0  0  0  0  0  0  0
   34.9250   31.0600   31.5590 C   0  0  0  0  0  0  0  0  0  0  0  0
   34.7270   31.2900   32.9090 C   0  0  0  0  0  0  0  0  0  0  0  0
   35.2710   30.3630   33.7850 C   0  0  0  0  0  0  0  0  0  0  0  0
   35.7530   29.8290   30.0470 H   0  0  0  0  0  0  0  0  0  0  0  0
   34.5250   31.7480   30.8470 H   0  0  0  0  0  0  0  0  0  0  0  0
   34.1720   32.1610   33.2300 H   0  0  0  0  0  0  0  0  0  0  0  0
   37.0900   25.5040   31.1420 C   0  0  0  0  0  0  0  0  0  0  0  0
   36.3430   26.6230   31.5250 C   0  0  0  0  0  0  0  0  0  0  0  0
   36.9090   27.8800   31.5680 C   0  0  0  0  0  0  0  0  0  0  0  0
   38.2290   27.9480   31.2150 N   0  0  0  0  0  0  0  0  0  0  0  0
   38.9470   26.8850   30.8480 C   0  0  0  0  0  0  0  0  0  0  0  0
   38.3700   25.6700   30.8150 N   0  0  0  0  0  0  0  0  0  0  0  0
   35.2920   26.4690   31.7910 H   0  0  0  0  0  0  0  0  0  0  0  0
   39.9900   26.9940   30.5780 H   0  0  0  0  0  0  0  0  0  0  0  0
   36.4250   24.1670   31.1140 C   0  0  0  0  0  0  0  0  0  0  0  0
   36.4240   23.6410   32.3910 F   0  0  0  0  0  0  0  0  0  0  0  0
   35.1810   24.3370   30.5830 F   0  0  0  0  0  0  0  0  0  0  0  0
   37.1870   23.3430   30.2970 F   0  0  0  0  0  0  0  0  0  0  0  0
   35.0600   30.6090   35.2560 C   0  0  0  0  0  3  0  0  0  0  0  0
   36.1450   31.4480   35.8530 C   0  0  0  0  0  2  0  0  0  0  0  0
   35.8170   32.9310   35.8990 C   0  0  0  0  0  2  0  0  0  0  0  0
   34.6290   32.9810   36.8630 C   0  0  0  0  0  2  0  0  0  0  0  0
   33.4820   32.4340   36.0320 C   0  0  0  0  0  2  0  0  0  0  0  0
   33.6720   31.0320   35.5840 C   0  0  0  0  0  2  0  0  0  0  0  0
  2  7  1  0  0  0  0
  2  1  1  0  0  0  0
  3  2  2  0  0  0  0
  4  5  2  0  0  0  0
  4  3  1  0  0  0  0
  5  6  1  0  0  0  0
  6 10  1  0  0  0  0
  6  7  2  0  0  0  0
  7 23  1  0  0  0  0
  8  4  1  0  0  0  0
  9  5  1  0  0  0  0
 11 12  1  0  0  0  0
 12 13  2  0  0  0  0
 12 17  1  0  0  0  0
 13  3  1  0  0  0  0
 14 13  1  0  0  0  0
 15 14  2  0  0  0  0
 16 15  1  0  0  0  0
 16 11  2  0  0  0  0
 18 15  1  0  0  0  0
 19 11  1  0  0  0  0
 19 20  1  0  0  0  0
 21 19  1  0  0  0  0
 22 19  1  0  0  0  0
 23 28  1  0  0  0  0
 23 24  1  0  0  0  0
 24 25  1  0  0  0  0
 25 26  1  0  0  0  0
 27 26  1  0  0  0  0
 28 27  1  0  0  0  0
M  END
>  <minimizedAffinity>
-5.65386248

$$$$

 OpenBabel03272504143D

 28 30  0  0  0  0  0  0  0  0999 V2000
   38.2250   27.4640   34.6040 Cl  0  0  0  0  0  0  0  0  0  0  0  0
   37.8050   25.9620   33.7520 C   0  0  0  0  0  0  0  0  0  0  0  0
   37.0900   25.9490   32.5760 C   0  0  0  0  0  0  0  0  0  0  0  0
   36.8470   24.7290   32.0450 C   0  0  0  0  0  0  0  0  0  0  0  0
   37.2780   23.5620   32.6240 C   0  0  0  0  0  0  0  0  0  0  0  0
   37.9970   23.5710   33.8060 C   0  0  0  0  0  0  0  0  0  0  0  0
   38.2560   24.8120   34.3670 C   0  0  0  0  0  0  0  0  0  0  0  0
   36.2850   24.6670   31.1140 H   0  0  0  0  0  0  0  0  0  0  0  0
   37.0540   22.6280   32.1550 H   0  0  0  0  0  0  0  0  0  0  0  0
   38.3250   22.6380   34.2430 H   0  0  0  0  0  0  0  0  0  0  0  0
   36.8470   29.0010   30.4050 C   0  0  0  0  0  0  0  0  0  0  0  0
   37.2750   27.7740   30.9210 C   0  0  0  0  0  0  0  0  0  0  0  0
   36.6690   27.2100   32.0240 C   0  0  0  0  0  0  0  0  0  0  0  0
   35.6380   27.9290   32.5650 N   0  0  0  0  0  0  0  0  0  0  0  0
   35.2240   29.1000   32.0770 C   0  0  0  0  0  0  0  0  0  0  0  0
   35.8330   29.6260   31.0000 N   0  0  0  0  0  0  0  0  0  0  0  0
   38.1100   27.2730   30.4200 H   0  0  0  0  0  0  0  0  0  0  0  0
   34.4020   29.6290   32.5440 H   0  0  0  0  0  0  0  0  0  0  0  0
   37.5410   29.5630   29.2070 C   0  0  0  0  0  0  0  0  0  0  0  0
   37.6000   28.5910   28.2280 F   0  0  0  0  0  0  0  0  0  0  0  0
   36.8710   30.6890   28.8330 F   0  0  0  0  0  0  0  0  0  0  0  0
   38.8360   29.8810   29.5920 F   0  0  0  0  0  0  0  0  0  0  0  0
   39.0380   24.8290   35.6550 C   0  0  0  0  0  3  0  0  0  0  0  0
   38.1500   24.8640   36.8580 C   0  0  0  0  0  2  0  0  0  0  0  0
   37.8560   23.4940   37.4440 C   0  0  0  0  0  2  0  0  0  0  0  0
   39.2350   23.0300   37.9180 C   0  0  0  0  0  2  0  0  0  0  0  0
   39.9460   22.6700   36.6250 C   0  0  0  0  0  2  0  0  0  0  0  0
   40.1230   23.8110   35.6930 C   0  0  0  0  0  2  0  0  0  0  0  0
  2  7  1  0  0  0  0
  2  1  1  0  0  0  0
  3  2  2  0  0  0  0
  4  3  1  0  0  0  0
  4  5  2  0  0  0  0
  5  6  1  0  0  0  0
  6 10  1  0  0  0  0
  6  7  2  0  0  0  0
  7 23  1  0  0  0  0
  8  4  1  0  0  0  0
  9  5  1  0  0  0  0
 11 12  2  0  0  0  0
 11 16  1  0  0  0  0
 12 13  1  0  0  0  0
 13 14  2  0  0  0  0
 13  3  1  0  0  0  0
 15 18  1  0  0  0  0
 15 14  1  0  0  0  0
 16 15  2  0  0  0  0
 17 12  1  0  0  0  0
 19 22  1  0  0  0  0
 19 11  1  0  0  0  0
 20 19  1  0  0  0  0
 21 19  1  0  0  0  0
 23 28  1  0  0  0  0
 23 24  1  0  0  0  0
 24 25  1  0  0  0  0
 25 26  1  0  0  0  0
 27 26  1  0  0  0  0
 28 27  1  0  0  0  0
M  END
>  <minimizedAffinity>
-5.58857107

$$$$

 OpenBabel03272504143D

 28 30  0  0  0  0  0  0  0  0999 V2000
   38.5140   27.2680   34.3600 Cl  0  0  0  0  0  0  0  0  0  0  0  0
   37.9870   25.7180   33.6650 C   0  0  0  0  0  0  0  0  0  0  0  0
   37.3060   25.6320   32.4740 C   0  0  0  0  0  0  0  0  0  0  0  0
   36.9720   24.3830   32.0730 C   0  0  0  0  0  0  0  0  0  0  0  0
   37.2850   23.2580   32.7930 C   0  0  0  0  0  0  0  0  0  0  0  0
   37.9710   23.3420   33.9920 C   0  0  0  0  0  0  0  0  0  0  0  0
   38.3220   24.6130   34.4200 C   0  0  0  0  0  0  0  0  0  0  0  0
   36.4320   24.2630   31.1360 H   0  0  0  0  0  0  0  0  0  0  0  0
   36.9940   22.2990   32.4230 H   0  0  0  0  0  0  0  0  0  0  0  0
   38.2060   22.4410   34.5410 H   0  0  0  0  0  0  0  0  0  0  0  0
   35.8050   28.9370   31.5180 C   0  0  0  0  0  0  0  0  0  0  0  0
   36.0730   27.7580   32.2220 C   0  0  0  0  0  0  0  0  0  0  0  0
   37.0100   26.8530   31.7700 C   0  0  0  0  0  0  0  0  0  0  0  0
   37.6450   27.1880   30.6060 N   0  0  0  0  0  0  0  0  0  0  0  0
   37.3950   28.3120   29.9300 C   0  0  0  0  0  0  0  0  0  0  0  0
   36.4760   29.1780   30.3940 N   0  0  0  0  0  0  0  0  0  0  0  0
   35.5130   27.5750   33.1440 H   0  0  0  0  0  0  0  0  0  0  0  0
   37.9270   28.5300   29.0120 H   0  0  0  0  0  0  0  0  0  0  0  0
   34.7790   29.8810   32.0550 C   0  0  0  0  0  0  0  0  0  0  0  0
   35.3330   30.5980   33.0970 F   0  0  0  0  0  0  0  0  0  0  0  0
   34.3470   30.6530   31.0180 F   0  0  0  0  0  0  0  0  0  0  0  0
   33.7340   29.1150   32.5520 F   0  0  0  0  0  0  0  0  0  0  0  0
   39.0680   24.7110   35.7250 C   0  0  0  0  0  3  0  0  0  0  0  0
   38.1510   24.9040   36.8910 C   0  0  0  0  0  2  0  0  0  0  0  0
   37.7690   23.6110   37.5910 C   0  0  0  0  0  2  0  0  0  0  0  0
   39.1080   23.1250   38.1500 C   0  0  0  0  0  2  0  0  0  0  0  0
   39.8340   22.6100   36.9190 C   0  0  0  0  0  2  0  0  0  0  0  0
   40.0960   23.6480   35.8920 C   0  0  0  0  0  2  0  0  0  0  0  0
  2  1  1  0  0  0  0
  2  7  1  0  0  0  0
  3  2  2  0  0  0  0
  4  3  1  0  0  0  0
  4  5  2  0  0  0  0
  5  6  1  0  0  0  0
  6  7  2  0  0  0  0
  6 10  1  0  0  0  0
  7 23  1  0  0  0  0
  8  4  1  0  0  0  0
  9  5  1  0  0  0  0
 11 19  1  0  0  0  0
 11 12  1  0  0  0  0
 12 17  1  0  0  0  0
 13 12  2  0  0  0  0
 13  3  1  0  0  0  0
 14 13  1  0  0  0  0
 15 16  1  0  0  0  0
 15 14  2  0  0  0  0
 16 11  2  0  0  0  0
 18 15  1  0  0  0  0
 19 22  1  0  0  0  0
 19 20  1  0  0  0  0
 21 19  1  0  0  0  0
 23 28  1  0  0  0  0
 23 24  1  0  0  0  0
 24 25  1  0  0  0  0
 25 26  1  0  0  0  0
 27 26  1  0  0  0  0
 28 27  1  0  0  0  0
M  END
>  <minimizedAffinity>
-5.57802296

$$$$

 OpenBabel03272504143D

 28 30  0  0  0  0  0  0  0  0999 V2000
   35.1450   24.5120   31.1190 Cl  0  0  0  0  0  0  0  0  0  0  0  0
   36.6280   24.1530   32.0310 C   0  0  0  0  0  0  0  0  0  0  0  0
   37.4740   25.1350   32.4910 C   0  0  0  0  0  0  0  0  0  0  0  0
   38.5640   24.7070   33.1700 C   0  0  0  0  0  0  0  0  0  0  0  0
   38.8290   23.3800   33.3980 C   0  0  0  0  0  0  0  0  0  0  0  0
   37.9800   22.3890   32.9370 C   0  0  0  0  0  0  0  0  0  0  0  0
   36.8580   22.8080   32.2380 C   0  0  0  0  0  0  0  0  0  0  0  0
   39.2630   25.4470   33.5550 H   0  0  0  0  0  0  0  0  0  0  0  0
   39.7070   23.1050   33.9410 H   0  0  0  0  0  0  0  0  0  0  0  0
   38.2110   21.3510   33.1290 H   0  0  0  0  0  0  0  0  0  0  0  0
   36.2830   28.6730   32.8810 C   0  0  0  0  0  0  0  0  0  0  0  0
   36.6050   27.3440   33.1750 C   0  0  0  0  0  0  0  0  0  0  0  0
   37.1350   26.5070   32.2160 C   0  0  0  0  0  0  0  0  0  0  0  0
   37.3190   27.0630   30.9800 N   0  0  0  0  0  0  0  0  0  0  0  0
   37.0150   28.3310   30.6930 C   0  0  0  0  0  0  0  0  0  0  0  0
   36.4990   29.1260   31.6480 N   0  0  0  0  0  0  0  0  0  0  0  0
   36.4210   26.9880   34.1940 H   0  0  0  0  0  0  0  0  0  0  0  0
   37.1800   28.7230   29.6960 H   0  0  0  0  0  0  0  0  0  0  0  0
   35.7110   29.5340   33.9600 C   0  0  0  0  0  0  0  0  0  0  0  0
   36.4800   29.3930   35.0980 F   0  0  0  0  0  0  0  0  0  0  0  0
   35.6540   30.8090   33.4830 F   0  0  0  0  0  0  0  0  0  0  0  0
   34.4330   29.0640   34.2290 F   0  0  0  0  0  0  0  0  0  0  0  0
   35.9300   21.7340   31.7320 C   0  0  0  0  0  3  0  0  0  0  0  0
   36.6010   20.8160   30.7600 C   0  0  0  0  0  2  0  0  0  0  0  0
   37.1690   19.5580   31.3960 C   0  0  0  0  0  2  0  0  0  0  0  0
   35.9130   18.8410   31.8980 C   0  0  0  0  0  2  0  0  0  0  0  0
   35.5110   19.6520   33.1170 C   0  0  0  0  0  2  0  0  0  0  0  0
   35.1640   21.0640   32.8180 C   0  0  0  0  0  2  0  0  0  0  0  0
  1  2  1  0  0  0  0
  2  7  2  0  0  0  0
  2  3  1  0  0  0  0
  3  4  2  0  0  0  0
  4  5  1  0  0  0  0
  4  8  1  0  0  0  0
  5  9  1  0  0  0  0
  6 10  1  0  0  0  0
  6  5  2  0  0  0  0
  7  6  1  0  0  0  0
 11 12  1  0  0  0  0
 11 19  1  0  0  0  0
 12 17  1  0  0  0  0
 13  3  1  0  0  0  0
 13 12  2  0  0  0  0
 14 13  1  0  0  0  0
 15 14  2  0  0  0  0
 15 16  1  0  0  0  0
 16 11  2  0  0  0  0
 18 15  1  0  0  0  0
 19 22  1  0  0  0  0
 19 20  1  0  0  0  0
 21 19  1  0  0  0  0
 23  7  1  0  0  0  0
 23 28  1  0  0  0  0
 24 25  1  0  0  0  0
 24 23  1  0  0  0  0
 25 26  1  0  0  0  0
 26 27  1  0  0  0  0
 28 27  1  0  0  0  0
M  END
>  <minimizedAffinity>
-5.57349205

$$$$
