
 OpenBabel03272500543D

 25 27  0  0  0  0  0  0  0  0999 V2000
   34.8350   30.4880   34.9950 C   0  0  0  0  0  0  0  0  0  0  0  0
   35.6930   31.5120   35.3830 C   0  0  0  0  0  0  0  0  0  0  0  0
   35.4000   32.4350   36.3640 C   0  0  0  0  0  0  0  0  0  0  0  0
   34.1760   32.3560   37.0170 C   0  0  0  0  0  0  0  0  0  0  0  0
   33.3330   31.3410   36.6280 C   0  0  0  0  0  0  0  0  0  0  0  0
   33.6040   30.3990   35.6430 C   0  0  0  0  0  0  0  0  0  0  0  0
   36.6720   31.6470   34.9230 H   0  0  0  0  0  0  0  0  0  0  0  0
   36.0910   33.2200   36.6420 H   0  0  0  0  0  0  0  0  0  0  0  0
   33.9100   33.0620   37.7930 H   0  0  0  0  0  0  0  0  0  0  0  0
   32.3930   31.3170   37.1570 H   0  0  0  0  0  0  0  0  0  0  0  0
   36.1620   28.5530   34.3620 C   0  0  0  0  0  0  0  0  0  0  0  0
   35.3230   29.6120   33.9530 C   0  0  0  0  0  0  0  0  0  0  0  0
   35.0470   29.7090   32.5860 C   0  0  0  0  0  0  0  0  0  0  0  0
   35.6000   28.7850   31.7490 N   0  0  0  0  0  0  0  0  0  0  0  0
   36.3990   27.7840   32.1800 C   0  0  0  0  0  0  0  0  0  0  0  0
   36.6840   27.6670   33.5040 N   0  0  0  0  0  0  0  0  0  0  0  0
   36.4800   28.3330   35.3720 H   0  0  0  0  0  0  0  0  0  0  0  0
   34.4160   30.5090   32.2980 H   0  0  0  0  0  0  0  0  0  0  0  0
   36.7630   27.1330   31.4140 H   0  0  0  0  0  0  0  0  0  0  0  0
   32.6780   29.3330   35.2310 C   0  0  0  0  0  3  0  0  0  0  0  0
   31.9940   28.7980   36.4870 C   0  0  0  0  0  2  0  0  0  0  0  0
   31.0820   27.6280   36.1910 C   0  0  0  0  0  2  0  0  0  0  0  0
   30.2290   27.9430   34.9850 C   0  0  0  0  0  2  0  0  0  0  0  0
   30.1900   29.4390   34.8170 C   0  0  0  0  0  2  0  0  0  0  0  0
   31.5620   29.8660   34.3430 C   0  0  0  0  0  2  0  0  0  0  0  0
  1  2  2  0  0  0  0
  1  6  1  0  0  0  0
  2  3  1  0  0  0  0
  3  8  1  0  0  0  0
  3  4  2  0  0  0  0
  4  9  1  0  0  0  0
  5  4  1  0  0  0  0
  5 10  1  0  0  0  0
  6  5  2  0  0  0  0
  7  2  1  0  0  0  0
 11 17  1  0  0  0  0
 12 11  1  0  0  0  0
 12  1  1  0  0  0  0
 13 12  2  0  0  0  0
 14 15  2  0  0  0  0
 14 13  1  0  0  0  0
 15 16  1  0  0  0  0
 16 11  2  0  0  0  0
 18 13  1  0  0  0  0
 19 15  1  0  0  0  0
 20  6  1  0  0  0  0
 20 21  1  0  0  0  0
 22 21  1  0  0  0  0
 23 22  1  0  0  0  0
 24 23  1  0  0  0  0
 25 24  1  0  0  0  0
 25 20  1  0  0  0  0
M  END
>  <minimizedAffinity>
-5.04138803

$$$$

 OpenBabel03272500543D

 25 27  0  0  0  0  0  0  0  0999 V2000
   36.0440   26.2920   31.6260 C   0  0  0  0  0  0  0  0  0  0  0  0
   35.1700   25.5240   30.8630 C   0  0  0  0  0  0  0  0  0  0  0  0
   35.1430   24.1460   30.8710 C   0  0  0  0  0  0  0  0  0  0  0  0
   36.0380   23.4620   31.6850 C   0  0  0  0  0  0  0  0  0  0  0  0
   36.8990   24.2270   32.4360 C   0  0  0  0  0  0  0  0  0  0  0  0
   36.9460   25.6160   32.4450 C   0  0  0  0  0  0  0  0  0  0  0  0
   34.4360   25.9800   30.1970 H   0  0  0  0  0  0  0  0  0  0  0  0
   34.4490   23.5800   30.2640 H   0  0  0  0  0  0  0  0  0  0  0  0
   36.0480   22.3800   31.7190 H   0  0  0  0  0  0  0  0  0  0  0  0
   37.5780   23.6570   33.0520 H   0  0  0  0  0  0  0  0  0  0  0  0
   36.6080   28.3210   30.4140 C   0  0  0  0  0  0  0  0  0  0  0  0
   35.9150   27.7250   31.4890 C   0  0  0  0  0  0  0  0  0  0  0  0
   35.1740   28.5780   32.3130 C   0  0  0  0  0  0  0  0  0  0  0  0
   35.1700   29.9110   32.0270 N   0  0  0  0  0  0  0  0  0  0  0  0
   35.8480   30.4430   30.9860 C   0  0  0  0  0  0  0  0  0  0  0  0
   36.5770   29.6380   30.1690 N   0  0  0  0  0  0  0  0  0  0  0  0
   37.2290   27.8170   29.6850 H   0  0  0  0  0  0  0  0  0  0  0  0
   34.6600   28.1140   33.1150 H   0  0  0  0  0  0  0  0  0  0  0  0
   35.7570   31.5030   30.8800 H   0  0  0  0  0  0  0  0  0  0  0  0
   37.8900   26.4130   33.2450 C   0  0  0  0  0  3  0  0  0  0  0  0
   37.3630   26.4610   34.6770 C   0  0  0  0  0  2  0  0  0  0  0  0
   38.2120   27.3360   35.5730 C   0  0  0  0  0  2  0  0  0  0  0  0
   39.6730   27.0210   35.3530 C   0  0  0  0  0  2  0  0  0  0  0  0
   39.7690   25.6460   34.7460 C   0  0  0  0  0  2  0  0  0  0  0  0
   39.2590   25.7530   33.3250 C   0  0  0  0  0  2  0  0  0  0  0  0
  1  6  1  0  0  0  0
  2  3  1  0  0  0  0
  2  1  2  0  0  0  0
  3  4  2  0  0  0  0
  4  9  1  0  0  0  0
  4  5  1  0  0  0  0
  5  6  2  0  0  0  0
  5 10  1  0  0  0  0
  6 20  1  0  0  0  0
  7  2  1  0  0  0  0
  8  3  1  0  0  0  0
 11 12  1  0  0  0  0
 12  1  1  0  0  0  0
 12 13  2  0  0  0  0
 13 18  1  0  0  0  0
 14 13  1  0  0  0  0
 15 14  2  0  0  0  0
 16 11  2  0  0  0  0
 16 15  1  0  0  0  0
 17 11  1  0  0  0  0
 19 15  1  0  0  0  0
 20 25  1  0  0  0  0
 20 21  1  0  0  0  0
 21 22  1  0  0  0  0
 23 22  1  0  0  0  0
 24 23  1  0  0  0  0
 25 24  1  0  0  0  0
M  END
>  <minimizedAffinity>
-5.02165651

$$$$

 OpenBabel03272500543D

 25 27  0  0  0  0  0  0  0  0999 V2000
   38.9320   26.0880   32.9650 C   0  0  0  0  0  0  0  0  0  0  0  0
   39.8250   26.9130   32.2890 C   0  0  0  0  0  0  0  0  0  0  0  0
   41.0120   27.3670   32.8210 C   0  0  0  0  0  0  0  0  0  0  0  0
   41.3580   26.9880   34.1130 C   0  0  0  0  0  0  0  0  0  0  0  0
   40.4700   26.1720   34.7750 C   0  0  0  0  0  0  0  0  0  0  0  0
   39.2670   25.7020   34.2610 C   0  0  0  0  0  0  0  0  0  0  0  0
   39.6320   27.2580   31.2720 H   0  0  0  0  0  0  0  0  0  0  0  0
   41.6850   28.0080   32.2670 H   0  0  0  0  0  0  0  0  0  0  0  0
   42.2820   27.3230   34.5650 H   0  0  0  0  0  0  0  0  0  0  0  0
   40.7740   25.9040   35.7750 H   0  0  0  0  0  0  0  0  0  0  0  0
   36.7200   26.6800   32.1520 C   0  0  0  0  0  0  0  0  0  0  0  0
   37.7410   25.7100   32.2370 C   0  0  0  0  0  0  0  0  0  0  0  0
   37.5010   24.4830   31.6110 C   0  0  0  0  0  0  0  0  0  0  0  0
   36.3120   24.3080   30.9680 N   0  0  0  0  0  0  0  0  0  0  0  0
   35.3580   25.2630   30.9080 C   0  0  0  0  0  0  0  0  0  0  0  0
   35.5640   26.4650   31.5090 N   0  0  0  0  0  0  0  0  0  0  0  0
   36.7340   27.6740   32.5790 H   0  0  0  0  0  0  0  0  0  0  0  0
   38.2790   23.7670   31.6850 H   0  0  0  0  0  0  0  0  0  0  0  0
   34.4750   24.9890   30.3720 H   0  0  0  0  0  0  0  0  0  0  0  0
   38.3250   24.8440   34.9970 C   0  0  0  0  0  3  0  0  0  0  0  0
   38.9850   23.4810   35.1850 C   0  0  0  0  0  2  0  0  0  0  0  0
   38.0630   22.4830   35.8530 C   0  0  0  0  0  2  0  0  0  0  0  0
   37.3940   23.1300   37.0420 C   0  0  0  0  0  2  0  0  0  0  0  0
   38.2270   24.3130   37.4630 C   0  0  0  0  0  2  0  0  0  0  0  0
   38.0550   25.3740   36.3980 C   0  0  0  0  0  2  0  0  0  0  0  0
  1  6  1  0  0  0  0
  2  3  1  0  0  0  0
  2  1  2  0  0  0  0
  3  4  2  0  0  0  0
  4  9  1  0  0  0  0
  4  5  1  0  0  0  0
  5 10  1  0  0  0  0
  6  5  2  0  0  0  0
  6 20  1  0  0  0  0
  7  2  1  0  0  0  0
  8  3  1  0  0  0  0
 11 12  1  0  0  0  0
 11 17  1  0  0  0  0
 12  1  1  0  0  0  0
 13 18  1  0  0  0  0
 13 12  2  0  0  0  0
 14 13  1  0  0  0  0
 15 14  2  0  0  0  0
 15 16  1  0  0  0  0
 16 11  2  0  0  0  0
 19 15  1  0  0  0  0
 20 21  1  0  0  0  0
 20 25  1  0  0  0  0
 21 22  1  0  0  0  0
 22 23  1  0  0  0  0
 23 24  1  0  0  0  0
 25 24  1  0  0  0  0
M  END
>  <minimizedAffinity>
-4.9068861

$$$$

 OpenBabel03272500543D

 25 27  0  0  0  0  0  0  0  0999 V2000
   37.2010   24.3910   32.4550 C   0  0  0  0  0  0  0  0  0  0  0  0
   36.9310   25.7240   32.1620 C   0  0  0  0  0  0  0  0  0  0  0  0
   35.8660   26.1470   31.3970 C   0  0  0  0  0  0  0  0  0  0  0  0
   34.9950   25.1980   30.8750 C   0  0  0  0  0  0  0  0  0  0  0  0
   35.2680   23.8820   31.1680 C   0  0  0  0  0  0  0  0  0  0  0  0
   36.3350   23.4300   31.9360 C   0  0  0  0  0  0  0  0  0  0  0  0
   37.5630   26.5330   32.5310 H   0  0  0  0  0  0  0  0  0  0  0  0
   35.6840   27.1930   31.1890 H   0  0  0  0  0  0  0  0  0  0  0  0
   34.1470   25.4900   30.2700 H   0  0  0  0  0  0  0  0  0  0  0  0
   34.5700   23.1770   30.7420 H   0  0  0  0  0  0  0  0  0  0  0  0
   38.1800   24.2680   34.6750 C   0  0  0  0  0  0  0  0  0  0  0  0
   38.3610   24.1450   33.2810 C   0  0  0  0  0  0  0  0  0  0  0  0
   39.6410   23.7970   32.8390 C   0  0  0  0  0  0  0  0  0  0  0  0
   40.6160   23.6030   33.7720 N   0  0  0  0  0  0  0  0  0  0  0  0
   40.4020   23.7300   35.1000 C   0  0  0  0  0  0  0  0  0  0  0  0
   39.1670   24.0680   35.5580 N   0  0  0  0  0  0  0  0  0  0  0  0
   37.2640   24.5330   35.1880 H   0  0  0  0  0  0  0  0  0  0  0  0
   39.7590   23.7080   31.7900 H   0  0  0  0  0  0  0  0  0  0  0  0
   41.2570   23.5500   35.7170 H   0  0  0  0  0  0  0  0  0  0  0  0
   36.6170   22.0140   32.2200 C   0  0  0  0  0  3  0  0  0  0  0  0
   35.3110   21.3580   32.6620 C   0  0  0  0  0  2  0  0  0  0  0  0
   35.5030   19.9140   33.0710 C   0  0  0  0  0  2  0  0  0  0  0  0
   36.3540   19.2060   32.0450 C   0  0  0  0  0  2  0  0  0  0  0  0
   36.2820   19.9850   30.7570 C   0  0  0  0  0  2  0  0  0  0  0  0
   37.0600   21.2650   30.9720 C   0  0  0  0  0  2  0  0  0  0  0  0
  1 12  1  0  0  0  0
  2  1  1  0  0  0  0
  2  7  1  0  0  0  0
  3  2  2  0  0  0  0
  4  5  2  0  0  0  0
  4  3  1  0  0  0  0
  5  6  1  0  0  0  0
  6 20  1  0  0  0  0
  6  1  2  0  0  0  0
  8  3  1  0  0  0  0
  9  4  1  0  0  0  0
 10  5  1  0  0  0  0
 11 17  1  0  0  0  0
 11 16  1  0  0  0  0
 12 11  2  0  0  0  0
 13 12  1  0  0  0  0
 13 14  2  0  0  0  0
 14 15  1  0  0  0  0
 15 16  2  0  0  0  0
 15 19  1  0  0  0  0
 18 13  1  0  0  0  0
 20 21  1  0  0  0  0
 21 22  1  0  0  0  0
 23 22  1  0  0  0  0
 24 25  1  0  0  0  0
 24 23  1  0  0  0  0
 25 20  1  0  0  0  0
M  END
>  <minimizedAffinity>
-4.85580873

$$$$

 OpenBabel03272500543D

 25 27  0  0  0  0  0  0  0  0999 V2000
   37.9370   25.7960   34.7680 C   0  0  0  0  0  0  0  0  0  0  0  0
   37.7210   27.0140   35.4040 C   0  0  0  0  0  0  0  0  0  0  0  0
   37.0770   28.0860   34.8240 C   0  0  0  0  0  0  0  0  0  0  0  0
   36.6080   27.9620   33.5210 C   0  0  0  0  0  0  0  0  0  0  0  0
   36.8260   26.7550   32.8990 C   0  0  0  0  0  0  0  0  0  0  0  0
   37.4710   25.6600   33.4620 C   0  0  0  0  0  0  0  0  0  0  0  0
   38.0560   27.1970   36.4260 H   0  0  0  0  0  0  0  0  0  0  0  0
   36.9250   29.0200   35.3470 H   0  0  0  0  0  0  0  0  0  0  0  0
   36.0980   28.7810   33.0310 H   0  0  0  0  0  0  0  0  0  0  0  0
   36.4490   26.7010   31.8880 H   0  0  0  0  0  0  0  0  0  0  0  0
   37.8770   24.1620   36.5660 C   0  0  0  0  0  0  0  0  0  0  0  0
   38.6230   24.7880   35.5440 C   0  0  0  0  0  0  0  0  0  0  0  0
   39.9480   24.3710   35.3850 C   0  0  0  0  0  0  0  0  0  0  0  0
   40.4250   23.4010   36.2150 N   0  0  0  0  0  0  0  0  0  0  0  0
   39.6770   22.8250   37.1830 C   0  0  0  0  0  0  0  0  0  0  0  0
   38.3860   23.2110   37.3610 N   0  0  0  0  0  0  0  0  0  0  0  0
   36.8470   24.3630   36.8310 H   0  0  0  0  0  0  0  0  0  0  0  0
   40.4930   24.8510   34.6130 H   0  0  0  0  0  0  0  0  0  0  0  0
   40.1800   22.0790   37.7600 H   0  0  0  0  0  0  0  0  0  0  0  0
   37.7080   24.3840   32.7680 C   0  0  0  0  0  3  0  0  0  0  0  0
   36.4650   24.0650   31.9430 C   0  0  0  0  0  2  0  0  0  0  0  0
   36.5610   22.7200   31.2550 C   0  0  0  0  0  2  0  0  0  0  0  0
   37.9160   22.5810   30.6020 C   0  0  0  0  0  2  0  0  0  0  0  0
   38.4840   23.9620   30.4040 C   0  0  0  0  0  2  0  0  0  0  0  0
   38.8550   24.4870   31.7740 C   0  0  0  0  0  2  0  0  0  0  0  0
  1  2  1  0  0  0  0
  1 12  1  0  0  0  0
  2  7  1  0  0  0  0
  3  8  1  0  0  0  0
  3  2  2  0  0  0  0
  4  3  1  0  0  0  0
  5  6  1  0  0  0  0
  5  4  2  0  0  0  0
  6  1  2  0  0  0  0
  9  4  1  0  0  0  0
 10  5  1  0  0  0  0
 11 17  1  0  0  0  0
 11 16  1  0  0  0  0
 12 11  2  0  0  0  0
 13 12  1  0  0  0  0
 13 14  2  0  0  0  0
 14 15  1  0  0  0  0
 15 16  2  0  0  0  0
 15 19  1  0  0  0  0
 18 13  1  0  0  0  0
 20  6  1  0  0  0  0
 21 20  1  0  0  0  0
 22 21  1  0  0  0  0
 23 22  1  0  0  0  0
 24 23  1  0  0  0  0
 24 25  1  0  0  0  0
 25 20  1  0  0  0  0
M  END
>  <minimizedAffinity>
-4.76750183

$$$$

 OpenBabel03272500543D

 25 27  0  0  0  0  0  0  0  0999 V2000
   39.4690   25.6380   34.3050 C   0  0  0  0  0  0  0  0  0  0  0  0
   40.5600   26.4820   34.4890 C   0  0  0  0  0  0  0  0  0  0  0  0
   41.0960   27.2780   33.5010 C   0  0  0  0  0  0  0  0  0  0  0  0
   40.5270   27.2510   32.2330 C   0  0  0  0  0  0  0  0  0  0  0  0
   39.4480   26.4150   32.0590 C   0  0  0  0  0  0  0  0  0  0  0  0
   38.8900   25.6020   33.0380 C   0  0  0  0  0  0  0  0  0  0  0  0
   41.0670   26.5640   35.4510 H   0  0  0  0  0  0  0  0  0  0  0  0
   41.9460   27.9240   33.6780 H   0  0  0  0  0  0  0  0  0  0  0  0
   40.9190   27.8620   31.4310 H   0  0  0  0  0  0  0  0  0  0  0  0
   39.0380   26.4210   31.0600 H   0  0  0  0  0  0  0  0  0  0  0  0
   39.7320   23.6820   35.7210 C   0  0  0  0  0  0  0  0  0  0  0  0
   39.0440   24.8870   35.4650 C   0  0  0  0  0  0  0  0  0  0  0  0
   38.0240   25.2330   36.3550 C   0  0  0  0  0  0  0  0  0  0  0  0
   37.7640   24.3950   37.3980 N   0  0  0  0  0  0  0  0  0  0  0  0
   38.4470   23.2490   37.6110 C   0  0  0  0  0  0  0  0  0  0  0  0
   39.4440   22.8870   36.7600 N   0  0  0  0  0  0  0  0  0  0  0  0
   40.5400   23.2610   35.1380 H   0  0  0  0  0  0  0  0  0  0  0  0
   37.5180   26.1410   36.1470 H   0  0  0  0  0  0  0  0  0  0  0  0
   38.1370   22.6880   38.4670 H   0  0  0  0  0  0  0  0  0  0  0  0
   37.7460   24.7020   32.8210 C   0  0  0  0  0  3  0  0  0  0  0  0
   36.8530   25.3310   31.7560 C   0  0  0  0  0  2  0  0  0  0  0  0
   35.5900   24.5300   31.5180 C   0  0  0  0  0  2  0  0  0  0  0  0
   35.9360   23.0650   31.3960 C   0  0  0  0  0  2  0  0  0  0  0  0
   37.3940   22.9560   31.0330 C   0  0  0  0  0  2  0  0  0  0  0  0
   38.1850   23.3580   32.2590 C   0  0  0  0  0  2  0  0  0  0  0  0
  1  2  1  0  0  0  0
  1 12  1  0  0  0  0
  2  7  1  0  0  0  0
  3  8  1  0  0  0  0
  3  2  2  0  0  0  0
  4  3  1  0  0  0  0
  5  4  2  0  0  0  0
  5  6  1  0  0  0  0
  6  1  2  0  0  0  0
  9  4  1  0  0  0  0
 10  5  1  0  0  0  0
 11 16  1  0  0  0  0
 12 11  2  0  0  0  0
 12 13  1  0  0  0  0
 13 14  2  0  0  0  0
 14 15  1  0  0  0  0
 15 19  1  0  0  0  0
 16 15  2  0  0  0  0
 17 11  1  0  0  0  0
 18 13  1  0  0  0  0
 20  6  1  0  0  0  0
 21 20  1  0  0  0  0
 22 21  1  0  0  0  0
 23 22  1  0  0  0  0
 24 23  1  0  0  0  0
 24 25  1  0  0  0  0
 25 20  1  0  0  0  0
M  END
>  <minimizedAffinity>
-4.7557826

$$$$

 OpenBabel03272500543D

 25 27  0  0  0  0  0  0  0  0999 V2000
   39.7050   23.8660   36.1670 C   0  0  0  0  0  0  0  0  0  0  0  0
   39.7710   23.0210   37.2690 C   0  0  0  0  0  0  0  0  0  0  0  0
   38.9350   23.1080   38.3610 C   0  0  0  0  0  0  0  0  0  0  0  0
   37.9590   24.0970   38.3820 C   0  0  0  0  0  0  0  0  0  0  0  0
   37.9000   24.9300   37.2890 C   0  0  0  0  0  0  0  0  0  0  0  0
   38.7310   24.8630   36.1770 C   0  0  0  0  0  0  0  0  0  0  0  0
   40.5070   22.2180   37.3350 H   0  0  0  0  0  0  0  0  0  0  0  0
   39.0130   22.4330   39.2030 H   0  0  0  0  0  0  0  0  0  0  0  0
   37.2830   24.1980   39.2210 H   0  0  0  0  0  0  0  0  0  0  0  0
   37.1310   25.6850   37.3460 H   0  0  0  0  0  0  0  0  0  0  0  0
   40.3080   22.6330   34.1610 C   0  0  0  0  0  0  0  0  0  0  0  0
   40.6630   23.6120   35.1130 C   0  0  0  0  0  0  0  0  0  0  0  0
   41.9010   24.2380   34.9440 C   0  0  0  0  0  0  0  0  0  0  0  0
   42.6740   23.8650   33.8840 N   0  0  0  0  0  0  0  0  0  0  0  0
   42.2970   22.9230   32.9920 C   0  0  0  0  0  0  0  0  0  0  0  0
   41.0980   22.2980   33.1330 N   0  0  0  0  0  0  0  0  0  0  0  0
   39.3960   22.0510   34.1410 H   0  0  0  0  0  0  0  0  0  0  0  0
   42.1520   24.9700   35.6680 H   0  0  0  0  0  0  0  0  0  0  0  0
   43.0020   22.7300   32.2120 H   0  0  0  0  0  0  0  0  0  0  0  0
   38.6600   25.7780   35.0260 C   0  0  0  0  0  3  0  0  0  0  0  0
   37.5750   25.2610   34.0860 C   0  0  0  0  0  2  0  0  0  0  0  0
   37.4770   26.0780   32.8160 C   0  0  0  0  0  2  0  0  0  0  0  0
   37.4940   27.5490   33.1580 C   0  0  0  0  0  2  0  0  0  0  0  0
   37.0810   27.7000   34.5990 C   0  0  0  0  0  2  0  0  0  0  0  0
   38.2220   27.1740   35.4430 C   0  0  0  0  0  2  0  0  0  0  0  0
  1  6  2  0  0  0  0
  1  2  1  0  0  0  0
  2  7  1  0  0  0  0
  2  3  2  0  0  0  0
  3  4  1  0  0  0  0
  3  8  1  0  0  0  0
  4  9  1  0  0  0  0
  5 10  1  0  0  0  0
  5  4  2  0  0  0  0
  6  5  1  0  0  0  0
 11 12  1  0  0  0  0
 12  1  1  0  0  0  0
 13 12  2  0  0  0  0
 13 18  1  0  0  0  0
 14 13  1  0  0  0  0
 15 16  1  0  0  0  0
 15 14  2  0  0  0  0
 16 11  2  0  0  0  0
 17 11  1  0  0  0  0
 19 15  1  0  0  0  0
 20 25  1  0  0  0  0
 20  6  1  0  0  0  0
 21 20  1  0  0  0  0
 22 23  1  0  0  0  0
 22 21  1  0  0  0  0
 23 24  1  0  0  0  0
 24 25  1  0  0  0  0
M  END
>  <minimizedAffinity>
-4.75472927

$$$$

 OpenBabel03272500543D

 25 27  0  0  0  0  0  0  0  0999 V2000
   39.5150   24.3480   35.9020 C   0  0  0  0  0  0  0  0  0  0  0  0
   38.3310   24.7260   36.5270 C   0  0  0  0  0  0  0  0  0  0  0  0
   37.8810   24.1930   37.7160 C   0  0  0  0  0  0  0  0  0  0  0  0
   38.6430   23.2150   38.3450 C   0  0  0  0  0  0  0  0  0  0  0  0
   39.8120   22.8470   37.7200 C   0  0  0  0  0  0  0  0  0  0  0  0
   40.2870   23.3680   36.5220 C   0  0  0  0  0  0  0  0  0  0  0  0
   37.6730   25.4850   36.1020 H   0  0  0  0  0  0  0  0  0  0  0  0
   36.9550   24.5100   38.1760 H   0  0  0  0  0  0  0  0  0  0  0  0
   38.3240   22.7730   39.2790 H   0  0  0  0  0  0  0  0  0  0  0  0
   40.3720   22.0840   38.2390 H   0  0  0  0  0  0  0  0  0  0  0  0
   40.4460   26.2890   34.7740 C   0  0  0  0  0  0  0  0  0  0  0  0
   39.8230   25.0280   34.6630 C   0  0  0  0  0  0  0  0  0  0  0  0
   39.5670   24.5610   33.3700 C   0  0  0  0  0  0  0  0  0  0  0  0
   39.9310   25.3460   32.3170 N   0  0  0  0  0  0  0  0  0  0  0  0
   40.5270   26.5500   32.4650 C   0  0  0  0  0  0  0  0  0  0  0  0
   40.7880   27.0280   33.7100 N   0  0  0  0  0  0  0  0  0  0  0  0
   40.7120   26.8010   35.6900 H   0  0  0  0  0  0  0  0  0  0  0  0
   39.0990   23.6130   33.3060 H   0  0  0  0  0  0  0  0  0  0  0  0
   40.7570   27.0570   31.5520 H   0  0  0  0  0  0  0  0  0  0  0  0
   41.5330   22.9440   35.8640 C   0  0  0  0  0  3  0  0  0  0  0  0
   42.6970   23.5920   36.6090 C   0  0  0  0  0  2  0  0  0  0  0  0
   44.0310   23.2970   35.9580 C   0  0  0  0  0  2  0  0  0  0  0  0
   44.1180   21.8270   35.6240 C   0  0  0  0  0  2  0  0  0  0  0  0
   43.1280   21.0910   36.4890 C   0  0  0  0  0  2  0  0  0  0  0  0
   41.7480   21.4420   35.9780 C   0  0  0  0  0  2  0  0  0  0  0  0
  1  6  2  0  0  0  0
  1  2  1  0  0  0  0
  2  3  2  0  0  0  0
  3  8  1  0  0  0  0
  3  4  1  0  0  0  0
  4  9  1  0  0  0  0
  5 10  1  0  0  0  0
  5  4  2  0  0  0  0
  6  5  1  0  0  0  0
  7  2  1  0  0  0  0
 11 17  1  0  0  0  0
 12 11  1  0  0  0  0
 12  1  1  0  0  0  0
 13 12  2  0  0  0  0
 14 15  2  0  0  0  0
 14 13  1  0  0  0  0
 15 16  1  0  0  0  0
 16 11  2  0  0  0  0
 18 13  1  0  0  0  0
 19 15  1  0  0  0  0
 20 25  1  0  0  0  0
 20  6  1  0  0  0  0
 20 21  1  0  0  0  0
 22 21  1  0  0  0  0
 23 22  1  0  0  0  0
 23 24  1  0  0  0  0
 25 24  1  0  0  0  0
M  END
>  <minimizedAffinity>
-4.71747637

$$$$

 OpenBabel03272500543D

 25 27  0  0  0  0  0  0  0  0999 V2000
   39.9730   24.1770   35.6190 C   0  0  0  0  0  0  0  0  0  0  0  0
   40.1980   23.2070   36.5900 C   0  0  0  0  0  0  0  0  0  0  0  0
   39.3790   22.9980   37.6780 C   0  0  0  0  0  0  0  0  0  0  0  0
   38.2530   23.7980   37.8350 C   0  0  0  0  0  0  0  0  0  0  0  0
   38.0370   24.7550   36.8710 C   0  0  0  0  0  0  0  0  0  0  0  0
   38.8470   24.9860   35.7660 C   0  0  0  0  0  0  0  0  0  0  0  0
   41.0580   22.5370   36.5440 H   0  0  0  0  0  0  0  0  0  0  0  0
   39.5840   22.2330   38.4150 H   0  0  0  0  0  0  0  0  0  0  0  0
   37.5860   23.6640   38.6760 H   0  0  0  0  0  0  0  0  0  0  0  0
   37.1550   25.3560   37.0320 H   0  0  0  0  0  0  0  0  0  0  0  0
   42.1000   25.0060   34.7840 C   0  0  0  0  0  0  0  0  0  0  0  0
   40.9390   24.2380   34.5460 C   0  0  0  0  0  0  0  0  0  0  0  0
   40.8400   23.6150   33.2980 C   0  0  0  0  0  0  0  0  0  0  0  0
   41.8580   23.7870   32.4070 N   0  0  0  0  0  0  0  0  0  0  0  0
   42.9550   24.5300   32.6750 C   0  0  0  0  0  0  0  0  0  0  0  0
   43.0770   25.1480   33.8790 N   0  0  0  0  0  0  0  0  0  0  0  0
   42.3370   25.5560   35.6850 H   0  0  0  0  0  0  0  0  0  0  0  0
   39.9640   23.0430   33.1360 H   0  0  0  0  0  0  0  0  0  0  0  0
   43.6730   24.5800   31.8840 H   0  0  0  0  0  0  0  0  0  0  0  0
   38.6040   26.0290   34.7570 C   0  0  0  0  0  3  0  0  0  0  0  0
   37.5470   25.5050   33.7900 C   0  0  0  0  0  2  0  0  0  0  0  0
   37.2840   26.4660   32.6500 C   0  0  0  0  0  2  0  0  0  0  0  0
   37.1330   27.8670   33.1940 C   0  0  0  0  0  2  0  0  0  0  0  0
   36.7770   27.7670   34.6540 C   0  0  0  0  0  2  0  0  0  0  0  0
   38.0160   27.2880   35.3790 C   0  0  0  0  0  2  0  0  0  0  0  0
  1  6  2  0  0  0  0
  1  2  1  0  0  0  0
  2  3  2  0  0  0  0
  3  4  1  0  0  0  0
  3  8  1  0  0  0  0
  4  9  1  0  0  0  0
  5 10  1  0  0  0  0
  5  4  2  0  0  0  0
  6  5  1  0  0  0  0
  7  2  1  0  0  0  0
 11 17  1  0  0  0  0
 12 11  1  0  0  0  0
 12  1  1  0  0  0  0
 13 12  2  0  0  0  0
 14 15  2  0  0  0  0
 14 13  1  0  0  0  0
 15 16  1  0  0  0  0
 16 11  2  0  0  0  0
 18 13  1  0  0  0  0
 19 15  1  0  0  0  0
 20 25  1  0  0  0  0
 20  6  1  0  0  0  0
 21 20  1  0  0  0  0
 22 23  1  0  0  0  0
 22 21  1  0  0  0  0
 23 24  1  0  0  0  0
 24 25  1  0  0  0  0
M  END
>  <minimizedAffinity>
-4.6815114

$$$$
