
 OpenBabel03272510303D

 25 27  0  0  0  0  0  0  0  0999 V2000
   37.3130   31.3650   49.1650 C   0  0  0  0  0  0  0  0  0  0  0  0
   38.0510   32.4490   49.6630 C   0  0  0  0  0  0  0  0  0  0  0  0
   38.8430   33.1290   48.7390 C   0  0  0  0  0  0  0  0  0  0  0  0
   38.8560   32.7170   47.4420 N   0  0  0  0  0  0  0  0  0  0  0  0
   38.1240   31.6620   47.0080 C   0  0  0  0  0  0  0  0  0  0  0  0
   37.3310   30.9650   47.8920 N   0  0  0  0  0  0  0  0  0  0  0  0
   38.0140   32.7440   50.6940 H   0  0  0  0  0  0  0  0  0  0  0  0
   39.4390   33.9730   49.0480 H   0  0  0  0  0  0  0  0  0  0  0  0
   36.4190   30.6450   50.1210 C   0  0  0  0  0  0  0  0  0  0  0  0
   36.0300   29.2660   49.9580 C   0  0  0  0  0  0  0  0  0  0  0  0
   37.1450   29.5730   50.9410 C   0  0  0  0  0  0  0  0  0  0  0  0
   35.7670   31.3370   50.7090 H   0  0  0  0  0  0  0  0  0  0  0  0
   36.3570   28.6080   49.1300 H   0  0  0  0  0  0  0  0  0  0  0  0
   35.0400   28.9510   50.3540 H   0  0  0  0  0  0  0  0  0  0  0  0
   38.1850   29.3260   50.7060 H   0  0  0  0  0  0  0  0  0  0  0  0
   36.8980   29.6170   52.0180 H   0  0  0  0  0  0  0  0  0  0  0  0
   38.1090   31.2250   45.6180 C   0  0  0  0  0  0  0  0  0  0  0  0
   37.9700   32.1510   44.9930 H   0  0  0  0  0  0  0  0  0  0  0  0
   37.2480   30.5640   45.3650 H   0  0  0  0  0  0  0  0  0  0  0  0
   39.3370   30.5340   45.1270 C   0  0  0  0  0  3  0  0  0  0  0  0
   38.8550   29.3730   44.2610 C   0  0  0  0  0  2  0  0  0  0  0  0
   38.4560   29.8490   42.8750 C   0  0  0  0  0  2  0  0  0  0  0  0
   39.7340   30.1640   42.1270 C   0  0  0  0  0  2  0  0  0  0  0  0
   40.7770   30.5570   43.1310 C   0  0  0  0  0  2  0  0  0  0  0  0
   40.2300   31.3870   44.2750 C   0  0  0  0  0  2  0  0  0  0  0  0
  1  2  1  0  0  0  0
  1  9  1  0  0  0  0
  2  7  1  0  0  0  0
  3  8  1  0  0  0  0
  3  2  2  0  0  0  0
  4  3  1  0  0  0  0
  5  4  2  0  0  0  0
  5  6  1  0  0  0  0
  6  1  2  0  0  0  0
  9 12  1  0  0  0  0
  9 11  1  0  0  0  0
 10  9  1  0  0  0  0
 10 14  1  0  0  0  0
 10 11  1  0  0  0  0
 11 16  1  0  0  0  0
 13 10  1  0  0  0  0
 15 11  1  0  0  0  0
 17  5  1  0  0  0  0
 18 17  1  0  0  0  0
 19 17  1  0  0  0  0
 20 17  1  0  0  0  0
 21 20  1  0  0  0  0
 22 21  1  0  0  0  0
 23 22  1  0  0  0  0
 23 24  1  0  0  0  0
 24 25  1  0  0  0  0
 25 20  1  0  0  0  0
M  END
>  <minimizedAffinity>
-5.22190046

>  <minimizedRMSD>
1.52884531

$$$$
