
 OpenBabel03272509053D

 30 32  0  0  0  0  0  0  0  0999 V2000
   34.7010   28.4340   49.7000 C   0  0  0  0  0  3  0  0  0  0  0  0
   34.3920   27.9740   48.5160 C   0  0  0  0  0  3  0  0  0  0  0  0
   37.3780   30.5430   51.0330 C   0  0  0  0  0  0  0  0  0  0  0  0
   38.1020   30.8560   49.8650 C   0  0  0  0  0  0  0  0  0  0  0  0
   37.6440   30.3280   48.6410 C   0  0  0  0  0  0  0  0  0  0  0  0
   36.5350   29.5500   48.6630 N   0  0  0  0  0  0  0  0  0  0  0  0
   35.8680   29.2700   49.8000 C   0  0  0  0  0  0  0  0  0  0  0  0
   36.3060   29.7770   50.9730 N   0  0  0  0  0  0  0  0  0  0  0  0
   37.7540   30.9630   51.9530 H   0  0  0  0  0  0  0  0  0  0  0  0
   38.9740   31.4620   49.8110 H   0  0  0  0  0  0  0  0  0  0  0  0
   38.2850   30.5560   47.3210 C   0  0  0  0  0  3  0  0  0  0  0  0
   37.2760   30.9170   46.2560 C   0  0  0  0  0  2  0  0  0  0  0  0
   38.1010   31.2590   45.0120 C   0  0  0  0  0  2  0  0  0  0  0  0
   38.8110   32.5800   45.1810 C   0  0  0  0  0  2  0  0  0  0  0  0
   38.8050   32.9260   46.6440 C   0  0  0  0  0  2  0  0  0  0  0  0
   39.2990   31.6920   47.3890 C   0  0  0  0  0  2  0  0  0  0  0  0
   33.2550   27.1050   48.1540 C   0  0  0  0  0  0  0  0  0  0  0  0
   32.4580   27.7530   47.7090 H   0  0  0  0  0  0  0  0  0  0  0  0
   32.8090   26.5790   49.0240 H   0  0  0  0  0  0  0  0  0  0  0  0
   33.6200   26.0850   47.1260 C   0  0  0  0  0  0  0  0  0  0  0  0
   33.7780   24.7460   47.3700 C   0  0  0  0  0  0  0  0  0  0  0  0
   34.1170   23.8810   46.3500 C   0  0  0  0  0  0  0  0  0  0  0  0
   34.3070   24.3550   45.0380 C   0  0  0  0  0  0  0  0  0  0  0  0
   34.1510   25.6900   44.7880 C   0  0  0  0  0  0  0  0  0  0  0  0
   33.8100   26.5420   45.8270 C   0  0  0  0  0  0  0  0  0  0  0  0
   33.6210   24.4260   48.3970 H   0  0  0  0  0  0  0  0  0  0  0  0
   34.2250   22.8480   46.6050 H   0  0  0  0  0  0  0  0  0  0  0  0
   34.5660   23.5890   44.3330 H   0  0  0  0  0  0  0  0  0  0  0  0
   34.3020   26.0330   43.7730 H   0  0  0  0  0  0  0  0  0  0  0  0
   33.7010   27.5950   45.5590 H   0  0  0  0  0  0  0  0  0  0  0  0
  1  7  1  0  0  0  0
  2  1  2  0  0  0  0
  3  9  1  0  0  0  0
  4  3  2  0  0  0  0
  5  6  2  0  0  0  0
  5  4  1  0  0  0  0
  6  7  1  0  0  0  0
  7  8  2  0  0  0  0
  8  3  1  0  0  0  0
 10  4  1  0  0  0  0
 11 16  1  0  0  0  0
 11  5  1  0  0  0  0
 12 11  1  0  0  0  0
 13 14  1  0  0  0  0
 13 12  1  0  0  0  0
 14 15  1  0  0  0  0
 15 16  1  0  0  0  0
 17  2  1  0  0  0  0
 17 19  1  0  0  0  0
 18 17  1  0  0  0  0
 20 21  1  0  0  0  0
 20 17  1  0  0  0  0
 21 26  1  0  0  0  0
 22 27  1  0  0  0  0
 22 21  2  0  0  0  0
 23 22  1  0  0  0  0
 24 23  2  0  0  0  0
 24 25  1  0  0  0  0
 25 20  2  0  0  0  0
 28 23  1  0  0  0  0
 29 24  1  0  0  0  0
 30 25  1  0  0  0  0
M  END
>  <minimizedAffinity>
-5.55383587

>  <minimizedRMSD>
0.424715728

$$$$
