
 OpenBabel03272509053D

 30 32  0  0  0  0  0  0  0  0999 V2000
   34.5830   28.5380   49.7860 C   0  0  0  0  0  3  0  0  0  0  0  0
   34.3530   28.1380   48.5630 C   0  0  0  0  0  3  0  0  0  0  0  0
   37.4260   30.2170   51.3640 C   0  0  0  0  0  0  0  0  0  0  0  0
   37.9220   30.9960   50.3000 C   0  0  0  0  0  0  0  0  0  0  0  0
   37.2590   30.9210   49.0590 C   0  0  0  0  0  0  0  0  0  0  0  0
   36.1830   30.1030   48.9640 N   0  0  0  0  0  0  0  0  0  0  0  0
   35.7360   29.3700   50.0030 C   0  0  0  0  0  0  0  0  0  0  0  0
   36.3720   29.4430   51.1930 N   0  0  0  0  0  0  0  0  0  0  0  0
   37.9560   30.2970   52.3010 H   0  0  0  0  0  0  0  0  0  0  0  0
   38.7620   31.6480   50.3380 H   0  0  0  0  0  0  0  0  0  0  0  0
   37.6470   31.6720   47.8370 C   0  0  0  0  0  3  0  0  0  0  0  0
   39.0590   32.2000   47.9240 C   0  0  0  0  0  2  0  0  0  0  0  0
   39.3500   32.8130   46.5490 C   0  0  0  0  0  2  0  0  0  0  0  0
   39.5190   31.7380   45.5040 C   0  0  0  0  0  2  0  0  0  0  0  0
   38.9540   30.4590   46.0580 C   0  0  0  0  0  2  0  0  0  0  0  0
   37.5690   30.7900   46.5980 C   0  0  0  0  0  2  0  0  0  0  0  0
   33.2470   27.2860   48.0840 C   0  0  0  0  0  0  0  0  0  0  0  0
   32.4970   27.9500   47.5820 H   0  0  0  0  0  0  0  0  0  0  0  0
   32.7210   26.7480   48.9010 H   0  0  0  0  0  0  0  0  0  0  0  0
   33.6950   26.2820   47.0730 C   0  0  0  0  0  0  0  0  0  0  0  0
   33.9550   24.9630   47.3390 C   0  0  0  0  0  0  0  0  0  0  0  0
   34.3650   24.1110   46.3340 C   0  0  0  0  0  0  0  0  0  0  0  0
   34.5240   24.5790   45.0150 C   0  0  0  0  0  0  0  0  0  0  0  0
   34.2650   25.8930   44.7440 C   0  0  0  0  0  0  0  0  0  0  0  0
   33.8540   26.7320   45.7690 C   0  0  0  0  0  0  0  0  0  0  0  0
   33.8200   24.6480   48.3700 H   0  0  0  0  0  0  0  0  0  0  0  0
   34.5530   23.0940   46.6060 H   0  0  0  0  0  0  0  0  0  0  0  0
   34.8450   23.8250   44.3230 H   0  0  0  0  0  0  0  0  0  0  0  0
   34.3930   26.2310   43.7240 H   0  0  0  0  0  0  0  0  0  0  0  0
   33.6650   27.7690   45.4840 H   0  0  0  0  0  0  0  0  0  0  0  0
  1  7  1  0  0  0  0
  2  1  2  0  0  0  0
  3  9  1  0  0  0  0
  4 10  1  0  0  0  0
  4  3  2  0  0  0  0
  5  4  1  0  0  0  0
  6  5  2  0  0  0  0
  6  7  1  0  0  0  0
  7  8  2  0  0  0  0
  8  3  1  0  0  0  0
 11 12  1  0  0  0  0
 11  5  1  0  0  0  0
 13 12  1  0  0  0  0
 14 15  1  0  0  0  0
 14 13  1  0  0  0  0
 15 16  1  0  0  0  0
 16 11  1  0  0  0  0
 17  2  1  0  0  0  0
 17 19  1  0  0  0  0
 18 17  1  0  0  0  0
 20 21  1  0  0  0  0
 20 17  1  0  0  0  0
 21 26  1  0  0  0  0
 22 27  1  0  0  0  0
 22 21  2  0  0  0  0
 23 22  1  0  0  0  0
 24 23  2  0  0  0  0
 24 25  1  0  0  0  0
 25 20  2  0  0  0  0
 28 23  1  0  0  0  0
 29 24  1  0  0  0  0
 30 25  1  0  0  0  0
M  END
>  <minimizedAffinity>
-6.08811092

>  <minimizedRMSD>
0.909583509

$$$$
