
 OpenBabel03272509053D

 30 32  0  0  0  0  0  0  0  0999 V2000
   34.6750   28.4480   49.7850 C   0  0  0  0  0  3  0  0  0  0  0  0
   34.3420   28.1910   48.5470 C   0  0  0  0  0  3  0  0  0  0  0  0
   37.4570   30.2300   51.3600 C   0  0  0  0  0  0  0  0  0  0  0  0
   37.9330   31.0140   50.2900 C   0  0  0  0  0  0  0  0  0  0  0  0
   37.2790   30.9060   49.0470 C   0  0  0  0  0  0  0  0  0  0  0  0
   36.2300   30.0530   48.9550 N   0  0  0  0  0  0  0  0  0  0  0  0
   35.8010   29.3170   49.9990 C   0  0  0  0  0  0  0  0  0  0  0  0
   36.4280   29.4210   51.1910 N   0  0  0  0  0  0  0  0  0  0  0  0
   37.9790   30.3360   52.2980 H   0  0  0  0  0  0  0  0  0  0  0  0
   38.7510   31.6920   50.3260 H   0  0  0  0  0  0  0  0  0  0  0  0
   37.6500   31.6570   47.8190 C   0  0  0  0  0  3  0  0  0  0  0  0
   39.0540   32.2080   47.8960 C   0  0  0  0  0  2  0  0  0  0  0  0
   39.3280   32.8180   46.5180 C   0  0  0  0  0  2  0  0  0  0  0  0
   39.5090   31.7390   45.4770 C   0  0  0  0  0  2  0  0  0  0  0  0
   38.9660   30.4560   46.0400 C   0  0  0  0  0  2  0  0  0  0  0  0
   37.5790   30.7670   46.5840 C   0  0  0  0  0  2  0  0  0  0  0  0
   33.2380   27.3380   48.0670 C   0  0  0  0  0  0  0  0  0  0  0  0
   32.4910   27.9990   47.5580 H   0  0  0  0  0  0  0  0  0  0  0  0
   32.7080   26.8040   48.8840 H   0  0  0  0  0  0  0  0  0  0  0  0
   33.6900   26.3270   47.0640 C   0  0  0  0  0  0  0  0  0  0  0  0
   33.9520   25.0100   47.3390 C   0  0  0  0  0  0  0  0  0  0  0  0
   34.3660   24.1530   46.3400 C   0  0  0  0  0  0  0  0  0  0  0  0
   34.5270   24.6130   45.0190 C   0  0  0  0  0  0  0  0  0  0  0  0
   34.2670   25.9250   44.7390 C   0  0  0  0  0  0  0  0  0  0  0  0
   33.8520   26.7690   45.7570 C   0  0  0  0  0  0  0  0  0  0  0  0
   33.8140   24.7020   48.3720 H   0  0  0  0  0  0  0  0  0  0  0  0
   34.5540   23.1380   46.6190 H   0  0  0  0  0  0  0  0  0  0  0  0
   34.8510   23.8540   44.3320 H   0  0  0  0  0  0  0  0  0  0  0  0
   34.3970   26.2560   43.7170 H   0  0  0  0  0  0  0  0  0  0  0  0
   33.6620   27.8040   45.4650 H   0  0  0  0  0  0  0  0  0  0  0  0
  1  7  1  0  0  0  0
  2  1  2  0  0  0  0
  3  9  1  0  0  0  0
  4 10  1  0  0  0  0
  4  3  2  0  0  0  0
  5  4  1  0  0  0  0
  6  5  2  0  0  0  0
  6  7  1  0  0  0  0
  7  8  2  0  0  0  0
  8  3  1  0  0  0  0
 11 12  1  0  0  0  0
 11  5  1  0  0  0  0
 13 12  1  0  0  0  0
 14 15  1  0  0  0  0
 14 13  1  0  0  0  0
 15 16  1  0  0  0  0
 16 11  1  0  0  0  0
 17  2  1  0  0  0  0
 17 19  1  0  0  0  0
 18 17  1  0  0  0  0
 20 21  1  0  0  0  0
 20 17  1  0  0  0  0
 21 26  1  0  0  0  0
 22 27  1  0  0  0  0
 22 21  2  0  0  0  0
 23 22  1  0  0  0  0
 24 23  2  0  0  0  0
 24 25  1  0  0  0  0
 25 20  2  0  0  0  0
 28 23  1  0  0  0  0
 29 24  1  0  0  0  0
 30 25  1  0  0  0  0
M  END
>  <minimizedAffinity>
-6.07029057

>  <minimizedRMSD>
0.857832491

$$$$
