
 OpenBabel03272509053D

 30 32  0  0  0  0  0  0  0  0999 V2000
   36.6350   29.6210   49.6010 C   0  0  0  0  0  0  0  0  0  0  0  0
   35.5420   29.3280   48.9450 C   0  0  0  0  0  0  0  0  0  0  0  0
   37.9800   33.0190   49.4160 C   0  0  0  0  0  0  0  0  0  0  0  0
   38.8040   32.9360   48.2760 C   0  0  0  0  0  0  0  0  0  0  0  0
   38.8740   31.7030   47.5970 C   0  0  0  0  0  0  0  0  0  0  0  0
   38.1440   30.6710   48.0830 N   0  0  0  0  0  0  0  0  0  0  0  0
   37.3670   30.7850   49.1780 C   0  0  0  0  0  0  0  0  0  0  0  0
   37.2990   31.9670   49.8280 N   0  0  0  0  0  0  0  0  0  0  0  0
   37.9490   33.9770   49.9120 H   0  0  0  0  0  0  0  0  0  0  0  0
   39.3890   33.7240   47.8660 H   0  0  0  0  0  0  0  0  0  0  0  0
   39.6900   31.4430   46.3820 C   0  0  0  0  0  0  0  0  0  0  0  0
   38.9090   30.6960   45.3270 C   0  0  0  0  0  0  0  0  0  0  0  0
   39.8330   30.6380   44.1040 C   0  0  0  0  0  0  0  0  0  0  0  0
   39.9530   31.9940   43.4540 C   0  0  0  0  0  0  0  0  0  0  0  0
   39.4660   33.0250   44.4350 C   0  0  0  0  0  0  0  0  0  0  0  0
   40.1740   32.7430   45.7540 C   0  0  0  0  0  0  0  0  0  0  0  0
   34.6230   28.1980   49.1810 C   0  0  0  0  0  0  0  0  0  0  0  0
   33.7430   28.5870   49.7550 H   0  0  0  0  0  0  0  0  0  0  0  0
   35.0760   27.3810   49.7820 H   0  0  0  0  0  0  0  0  0  0  0  0
   34.0990   27.6120   47.9120 C   0  0  0  0  0  0  0  0  0  0  0  0
   33.7600   26.2960   47.7360 C   0  0  0  0  0  0  0  0  0  0  0  0
   33.2830   25.8490   46.5200 C   0  0  0  0  0  0  0  0  0  0  0  0
   33.1350   26.7360   45.4360 C   0  0  0  0  0  0  0  0  0  0  0  0
   33.4720   28.0500   45.6060 C   0  0  0  0  0  0  0  0  0  0  0  0
   33.9480   28.4780   46.8360 C   0  0  0  0  0  0  0  0  0  0  0  0
   33.8910   25.6490   48.5990 H   0  0  0  0  0  0  0  0  0  0  0  0
   33.0360   24.8110   46.4470 H   0  0  0  0  0  0  0  0  0  0  0  0
   32.7560   26.2730   44.5460 H   0  0  0  0  0  0  0  0  0  0  0  0
   33.3490   28.7130   44.7600 H   0  0  0  0  0  0  0  0  0  0  0  0
   34.1980   29.5380   46.9030 H   0  0  0  0  0  0  0  0  0  0  0  0
  2 17  1  0  0  0  0
  2  1  2  0  0  0  0
  3  8  1  0  0  0  0
  3  9  1  0  0  0  0
  4  3  2  0  0  0  0
  5  6  2  0  0  0  0
  5  4  1  0  0  0  0
  6  7  1  0  0  0  0
  7  1  1  0  0  0  0
  7  8  2  0  0  0  0
 10  4  1  0  0  0  0
 11  5  1  0  0  0  0
 12 11  1  0  0  0  0
 13 12  1  0  0  0  0
 14 13  1  0  0  0  0
 14 15  1  0  0  0  0
 15 16  1  0  0  0  0
 16 11  1  0  0  0  0
 17 18  1  0  0  0  0
 17 19  1  0  0  0  0
 20 17  1  0  0  0  0
 21 20  1  0  0  0  0
 21 26  1  0  0  0  0
 22 21  2  0  0  0  0
 23 24  2  0  0  0  0
 23 22  1  0  0  0  0
 24 25  1  0  0  0  0
 25 30  1  0  0  0  0
 25 20  2  0  0  0  0
 27 22  1  0  0  0  0
 28 23  1  0  0  0  0
 29 24  1  0  0  0  0
M  END
>  <minimizedAffinity>
-6.40290308

>  <minimizedRMSD>
2.4115088

$$$$
