
 OpenBabel03272509053D

 30 32  0  0  0  0  0  0  0  0999 V2000
   34.7150   28.4170   49.7000 C   0  0  0  0  0  3  0  0  0  0  0  0
   34.3890   27.9820   48.5110 C   0  0  0  0  0  3  0  0  0  0  0  0
   37.3790   30.5460   51.0310 C   0  0  0  0  0  0  0  0  0  0  0  0
   38.1000   30.8610   49.8620 C   0  0  0  0  0  0  0  0  0  0  0  0
   37.6470   30.3270   48.6390 C   0  0  0  0  0  0  0  0  0  0  0  0
   36.5430   29.5420   48.6620 N   0  0  0  0  0  0  0  0  0  0  0  0
   35.8770   29.2610   49.7990 C   0  0  0  0  0  0  0  0  0  0  0  0
   36.3110   29.7730   50.9710 N   0  0  0  0  0  0  0  0  0  0  0  0
   37.7520   30.9700   51.9500 H   0  0  0  0  0  0  0  0  0  0  0  0
   38.9690   31.4720   49.8070 H   0  0  0  0  0  0  0  0  0  0  0  0
   38.2870   30.5580   47.3180 C   0  0  0  0  0  3  0  0  0  0  0  0
   37.2770   30.9200   46.2560 C   0  0  0  0  0  2  0  0  0  0  0  0
   38.1020   31.2640   45.0100 C   0  0  0  0  0  2  0  0  0  0  0  0
   38.8120   32.5840   45.1810 C   0  0  0  0  0  2  0  0  0  0  0  0
   38.8080   32.9280   46.6450 C   0  0  0  0  0  2  0  0  0  0  0  0
   39.3010   31.6920   47.3860 C   0  0  0  0  0  2  0  0  0  0  0  0
   33.2540   27.1120   48.1490 C   0  0  0  0  0  0  0  0  0  0  0  0
   32.4560   27.7580   47.7010 H   0  0  0  0  0  0  0  0  0  0  0  0
   32.8060   26.5870   49.0200 H   0  0  0  0  0  0  0  0  0  0  0  0
   33.6200   26.0900   47.1240 C   0  0  0  0  0  0  0  0  0  0  0  0
   33.7790   24.7510   47.3710 C   0  0  0  0  0  0  0  0  0  0  0  0
   34.1200   23.8840   46.3540 C   0  0  0  0  0  0  0  0  0  0  0  0
   34.3120   24.3560   45.0410 C   0  0  0  0  0  0  0  0  0  0  0  0
   34.1550   25.6900   44.7880 C   0  0  0  0  0  0  0  0  0  0  0  0
   33.8110   26.5440   45.8250 C   0  0  0  0  0  0  0  0  0  0  0  0
   33.6210   24.4330   48.3990 H   0  0  0  0  0  0  0  0  0  0  0  0
   34.2290   22.8520   46.6110 H   0  0  0  0  0  0  0  0  0  0  0  0
   34.5730   23.5890   44.3380 H   0  0  0  0  0  0  0  0  0  0  0  0
   34.3060   26.0300   43.7720 H   0  0  0  0  0  0  0  0  0  0  0  0
   33.7020   27.5960   45.5540 H   0  0  0  0  0  0  0  0  0  0  0  0
  1  7  1  0  0  0  0
  2  1  2  0  0  0  0
  3  9  1  0  0  0  0
  4  3  2  0  0  0  0
  5  6  2  0  0  0  0
  5  4  1  0  0  0  0
  6  7  1  0  0  0  0
  7  8  2  0  0  0  0
  8  3  1  0  0  0  0
 10  4  1  0  0  0  0
 11 16  1  0  0  0  0
 11  5  1  0  0  0  0
 12 11  1  0  0  0  0
 13 14  1  0  0  0  0
 13 12  1  0  0  0  0
 14 15  1  0  0  0  0
 15 16  1  0  0  0  0
 17  2  1  0  0  0  0
 17 19  1  0  0  0  0
 18 17  1  0  0  0  0
 20 21  1  0  0  0  0
 20 17  1  0  0  0  0
 21 26  1  0  0  0  0
 22 27  1  0  0  0  0
 22 21  2  0  0  0  0
 23 22  1  0  0  0  0
 24 23  2  0  0  0  0
 24 25  1  0  0  0  0
 25 20  2  0  0  0  0
 28 23  1  0  0  0  0
 29 24  1  0  0  0  0
 30 25  1  0  0  0  0
M  END
>  <minimizedAffinity>
-5.55682707

>  <minimizedRMSD>
0.658906102

$$$$
