
 OpenBabel03272508183D

 22 24  0  0  0  0  0  0  0  0999 V2000
   39.3460   23.4680   36.6960 C   0  0  0  0  0  0  0  0  0  0  0  0
   39.6590   24.3570   35.6440 C   0  0  0  0  0  0  0  0  0  0  0  0
   40.9540   24.0330   35.1450 C   0  0  0  0  0  0  0  0  0  0  0  0
   41.7430   23.0320   35.6110 N   0  0  0  0  0  0  0  0  0  0  0  0
   41.3480   22.2370   36.6190 C   0  0  0  0  0  0  0  0  0  0  0  0
   40.1410   22.4700   37.1550 N   0  0  0  0  0  0  0  0  0  0  0  0
   41.4150   24.5630   34.3510 H   0  0  0  0  0  0  0  0  0  0  0  0
   41.8130   21.4100   37.1190 H   0  0  0  0  0  0  0  0  0  0  0  0
   37.9540   23.6660   37.2610 C   0  0  0  0  0  0  0  0  0  0  0  0
   37.5940   23.0970   38.5290 C   0  0  0  0  0  0  0  0  0  0  0  0
   38.0050   24.5290   38.5490 C   0  0  0  0  0  0  0  0  0  0  0  0
   37.1920   24.0660   36.5900 H   0  0  0  0  0  0  0  0  0  0  0  0
   38.3350   22.3850   39.0010 H   0  0  0  0  0  0  0  0  0  0  0  0
   36.5700   22.8450   38.8560 H   0  0  0  0  0  0  0  0  0  0  0  0
   37.1930   25.2550   38.7280 H   0  0  0  0  0  0  0  0  0  0  0  0
   38.9890   24.7860   38.9060 H   0  0  0  0  0  0  0  0  0  0  0  0
   38.8940   25.4160   35.0650 C   0  0  0  0  0  3  0  0  0  0  0  0
   38.5240   25.4750   33.6570 C   0  0  0  0  0  2  0  0  0  0  0  0
   37.1680   26.1580   33.5170 C   0  0  0  0  0  2  0  0  0  0  0  0
   37.2490   27.5130   34.1190 C   0  0  0  0  0  2  0  0  0  0  0  0
   37.8900   27.5920   35.4790 C   0  0  0  0  0  2  0  0  0  0  0  0
   39.2110   26.8200   35.5160 C   0  0  0  0  0  2  0  0  0  0  0  0
  1  6  1  0  0  0  0
  1  9  1  0  0  0  0
  2  1  2  0  0  0  0
  3  4  2  0  0  0  0
  3  2  1  0  0  0  0
  4  5  1  0  0  0  0
  5  8  1  0  0  0  0
  5  6  2  0  0  0  0
  7  3  1  0  0  0  0
  9 10  1  0  0  0  0
  9 11  1  0  0  0  0
 10 11  1  0  0  0  0
 10 14  1  0  0  0  0
 10 13  1  0  0  0  0
 11 15  1  0  0  0  0
 11 16  1  0  0  0  0
 12  9  1  0  0  0  0
 17 22  1  0  0  0  0
 17  2  1  0  0  0  0
 18 17  1  0  0  0  0
 19 18  1  0  0  0  0
 19 20  1  0  0  0  0
 20 21  1  0  0  0  0
 21 22  1  0  0  0  0
M  END
>  <minimizedAffinity>
-4.60346651

$$$$

 OpenBabel03272508183D

 22 24  0  0  0  0  0  0  0  0999 V2000
   37.1860   26.7740   33.7490 C   0  0  0  0  0  0  0  0  0  0  0  0
   36.3990   27.6540   32.9760 C   0  0  0  0  0  0  0  0  0  0  0  0
   35.9490   26.9610   31.8140 C   0  0  0  0  0  0  0  0  0  0  0  0
   36.2370   25.6690   31.5160 N   0  0  0  0  0  0  0  0  0  0  0  0
   36.9970   24.9130   32.3250 C   0  0  0  0  0  0  0  0  0  0  0  0
   37.4680   25.4830   33.4430 N   0  0  0  0  0  0  0  0  0  0  0  0
   35.3400   27.4130   31.0730 H   0  0  0  0  0  0  0  0  0  0  0  0
   37.3300   23.8950   32.2690 H   0  0  0  0  0  0  0  0  0  0  0  0
   37.6630   27.3780   35.0550 C   0  0  0  0  0  0  0  0  0  0  0  0
   38.2110   26.5430   36.0870 C   0  0  0  0  0  0  0  0  0  0  0  0
   39.1990   27.2200   35.2020 C   0  0  0  0  0  0  0  0  0  0  0  0
   37.3860   28.4130   35.2600 H   0  0  0  0  0  0  0  0  0  0  0  0
   38.1300   25.4250   35.9400 H   0  0  0  0  0  0  0  0  0  0  0  0
   38.2300   26.7790   37.1660 H   0  0  0  0  0  0  0  0  0  0  0  0
   39.7700   28.0430   35.6660 H   0  0  0  0  0  0  0  0  0  0  0  0
   39.6910   26.6480   34.4320 H   0  0  0  0  0  0  0  0  0  0  0  0
   36.0180   29.0110   33.2140 C   0  0  0  0  0  3  0  0  0  0  0  0
   35.1250   29.4270   34.2880 C   0  0  0  0  0  2  0  0  0  0  0  0
   35.5320   30.8140   34.7750 C   0  0  0  0  0  2  0  0  0  0  0  0
   35.4870   31.7580   33.6300 C   0  0  0  0  0  2  0  0  0  0  0  0
   36.1470   31.2850   32.3620 C   0  0  0  0  0  2  0  0  0  0  0  0
   35.7120   29.8610   32.0070 C   0  0  0  0  0  2  0  0  0  0  0  0
  1  9  1  0  0  0  0
  2 17  1  0  0  0  0
  2  1  2  0  0  0  0
  3  2  1  0  0  0  0
  4  3  2  0  0  0  0
  4  5  1  0  0  0  0
  5  6  2  0  0  0  0
  6  1  1  0  0  0  0
  7  3  1  0  0  0  0
  8  5  1  0  0  0  0
  9 11  1  0  0  0  0
  9 12  1  0  0  0  0
  9 10  1  0  0  0  0
 10 14  1  0  0  0  0
 11 15  1  0  0  0  0
 11 10  1  0  0  0  0
 13 10  1  0  0  0  0
 16 11  1  0  0  0  0
 17 18  1  0  0  0  0
 18 19  1  0  0  0  0
 20 19  1  0  0  0  0
 21 20  1  0  0  0  0
 22 21  1  0  0  0  0
 22 17  1  0  0  0  0
M  END
>  <minimizedAffinity>
-4.46869326

$$$$

 OpenBabel03272508183D

 22 24  0  0  0  0  0  0  0  0999 V2000
   39.2430   24.9530   33.8160 C   0  0  0  0  0  0  0  0  0  0  0  0
   38.6390   23.9300   34.5780 C   0  0  0  0  0  0  0  0  0  0  0  0
   37.8480   23.1210   33.7110 C   0  0  0  0  0  0  0  0  0  0  0  0
   37.7110   23.3140   32.3740 N   0  0  0  0  0  0  0  0  0  0  0  0
   38.3350   24.3210   31.7410 C   0  0  0  0  0  0  0  0  0  0  0  0
   39.1000   25.1370   32.4800 N   0  0  0  0  0  0  0  0  0  0  0  0
   37.2910   22.2850   34.0490 H   0  0  0  0  0  0  0  0  0  0  0  0
   38.3550   24.6340   30.7160 H   0  0  0  0  0  0  0  0  0  0  0  0
   40.1720   25.8380   34.6210 C   0  0  0  0  0  0  0  0  0  0  0  0
   40.5320   27.1440   34.1420 C   0  0  0  0  0  0  0  0  0  0  0  0
   39.4230   27.0950   35.1350 C   0  0  0  0  0  0  0  0  0  0  0  0
   40.7120   25.3770   35.4490 H   0  0  0  0  0  0  0  0  0  0  0  0
   40.2160   27.4100   33.0900 H   0  0  0  0  0  0  0  0  0  0  0  0
   41.4480   27.7000   34.4120 H   0  0  0  0  0  0  0  0  0  0  0  0
   39.6660   27.4770   36.1410 H   0  0  0  0  0  0  0  0  0  0  0  0
   38.4080   27.2120   34.7910 H   0  0  0  0  0  0  0  0  0  0  0  0
   38.7400   23.6270   35.9720 C   0  0  0  0  0  3  0  0  0  0  0  0
   39.4020   22.4400   36.4980 C   0  0  0  0  0  2  0  0  0  0  0  0
   40.0350   22.7690   37.8460 C   0  0  0  0  0  2  0  0  0  0  0  0
   38.9780   23.2610   38.7660 C   0  0  0  0  0  2  0  0  0  0  0  0
   38.0480   24.3020   38.2030 C   0  0  0  0  0  2  0  0  0  0  0  0
   37.5250   23.8930   36.8240 C   0  0  0  0  0  2  0  0  0  0  0  0
  1  2  1  0  0  0  0
  1  9  1  0  0  0  0
  2 17  1  0  0  0  0
  3  7  1  0  0  0  0
  3  2  2  0  0  0  0
  4  3  1  0  0  0  0
  5  4  2  0  0  0  0
  5  6  1  0  0  0  0
  6  1  2  0  0  0  0
  8  5  1  0  0  0  0
  9 11  1  0  0  0  0
  9 12  1  0  0  0  0
 10 14  1  0  0  0  0
 10  9  1  0  0  0  0
 10 11  1  0  0  0  0
 11 15  1  0  0  0  0
 13 10  1  0  0  0  0
 16 11  1  0  0  0  0
 17 18  1  0  0  0  0
 17 22  1  0  0  0  0
 18 19  1  0  0  0  0
 19 20  1  0  0  0  0
 21 20  1  0  0  0  0
 22 21  1  0  0  0  0
M  END
>  <minimizedAffinity>
-4.42685795

$$$$

 OpenBabel03272508183D

 22 24  0  0  0  0  0  0  0  0999 V2000
   36.8520   27.6070   33.3830 C   0  0  0  0  0  0  0  0  0  0  0  0
   36.0100   28.6970   33.0740 C   0  0  0  0  0  0  0  0  0  0  0  0
   36.0140   28.8910   31.6620 C   0  0  0  0  0  0  0  0  0  0  0  0
   36.7140   28.1400   30.7740 N   0  0  0  0  0  0  0  0  0  0  0  0
   37.4870   27.1170   31.1720 C   0  0  0  0  0  0  0  0  0  0  0  0
   37.5470   26.8630   32.4870 N   0  0  0  0  0  0  0  0  0  0  0  0
   35.4570   29.6550   31.1830 H   0  0  0  0  0  0  0  0  0  0  0  0
   38.1040   26.4200   30.6400 H   0  0  0  0  0  0  0  0  0  0  0  0
   36.8710   27.2560   34.8560 C   0  0  0  0  0  0  0  0  0  0  0  0
   37.6740   26.1660   35.3360 C   0  0  0  0  0  0  0  0  0  0  0  0
   38.2720   27.5230   35.4640 C   0  0  0  0  0  0  0  0  0  0  0  0
   36.1100   27.7130   35.4910 H   0  0  0  0  0  0  0  0  0  0  0  0
   38.1590   25.5040   34.5580 H   0  0  0  0  0  0  0  0  0  0  0  0
   37.4910   25.5870   36.2600 H   0  0  0  0  0  0  0  0  0  0  0  0
   38.3330   27.9230   36.4920 H   0  0  0  0  0  0  0  0  0  0  0  0
   39.0390   27.8250   34.7690 H   0  0  0  0  0  0  0  0  0  0  0  0
   35.2160   29.5270   33.9250 C   0  0  0  0  0  3  0  0  0  0  0  0
   33.7620   29.6050   33.8560 C   0  0  0  0  0  2  0  0  0  0  0  0
   33.2010   29.8570   35.2510 C   0  0  0  0  0  2  0  0  0  0  0  0
   33.7920   31.1100   35.7860 C   0  0  0  0  0  2  0  0  0  0  0  0
   35.2840   31.2490   35.6410 C   0  0  0  0  0  2  0  0  0  0  0  0
   35.7370   30.9110   34.2180 C   0  0  0  0  0  2  0  0  0  0  0  0
  1  9  1  0  0  0  0
  2  1  1  0  0  0  0
  2 17  1  0  0  0  0
  3  2  2  0  0  0  0
  4  5  2  0  0  0  0
  4  3  1  0  0  0  0
  5  6  1  0  0  0  0
  6  1  2  0  0  0  0
  7  3  1  0  0  0  0
  8  5  1  0  0  0  0
  9 10  1  0  0  0  0
  9 11  1  0  0  0  0
  9 12  1  0  0  0  0
 10 11  1  0  0  0  0
 10 14  1  0  0  0  0
 11 15  1  0  0  0  0
 13 10  1  0  0  0  0
 16 11  1  0  0  0  0
 17 22  1  0  0  0  0
 18 17  1  0  0  0  0
 18 19  1  0  0  0  0
 19 20  1  0  0  0  0
 21 20  1  0  0  0  0
 22 21  1  0  0  0  0
M  END
>  <minimizedAffinity>
-4.31442022

$$$$

 OpenBabel03272508183D

 22 24  0  0  0  0  0  0  0  0999 V2000
   38.3260   25.2700   34.2580 C   0  0  0  0  0  0  0  0  0  0  0  0
   38.5770   23.8910   34.4320 C   0  0  0  0  0  0  0  0  0  0  0  0
   37.8800   23.1690   33.4210 C   0  0  0  0  0  0  0  0  0  0  0  0
   37.1070   23.7280   32.4550 N   0  0  0  0  0  0  0  0  0  0  0  0
   36.9340   25.0580   32.3740 C   0  0  0  0  0  0  0  0  0  0  0  0
   37.5520   25.8190   33.2890 N   0  0  0  0  0  0  0  0  0  0  0  0
   37.9090   22.1120   33.3410 H   0  0  0  0  0  0  0  0  0  0  0  0
   36.3780   25.6800   31.7010 H   0  0  0  0  0  0  0  0  0  0  0  0
   39.0790   26.1500   35.2350 C   0  0  0  0  0  0  0  0  0  0  0  0
   38.6430   27.4940   35.4900 C   0  0  0  0  0  0  0  0  0  0  0  0
   38.2010   26.4670   36.4730 C   0  0  0  0  0  0  0  0  0  0  0  0
   40.0600   25.8070   35.5670 H   0  0  0  0  0  0  0  0  0  0  0  0
   37.8220   27.9020   34.8280 H   0  0  0  0  0  0  0  0  0  0  0  0
   39.2800   28.3220   35.8510 H   0  0  0  0  0  0  0  0  0  0  0  0
   38.6870   26.5150   37.4640 H   0  0  0  0  0  0  0  0  0  0  0  0
   37.1850   26.1100   36.4360 H   0  0  0  0  0  0  0  0  0  0  0  0
   39.3900   23.2100   35.3910 C   0  0  0  0  0  3  0  0  0  0  0  0
   40.3980   22.2170   35.0420 C   0  0  0  0  0  2  0  0  0  0  0  0
   41.5470   22.2900   36.0410 C   0  0  0  0  0  2  0  0  0  0  0  0
   41.0100   22.0670   37.4080 C   0  0  0  0  0  2  0  0  0  0  0  0
   39.7760   22.8510   37.7650 C   0  0  0  0  0  2  0  0  0  0  0  0
   38.7190   22.7550   36.6620 C   0  0  0  0  0  2  0  0  0  0  0  0
  1  2  1  0  0  0  0
  1  9  1  0  0  0  0
  2 17  1  0  0  0  0
  3  2  2  0  0  0  0
  4  3  1  0  0  0  0
  5  4  2  0  0  0  0
  5  6  1  0  0  0  0
  6  1  2  0  0  0  0
  7  3  1  0  0  0  0
  8  5  1  0  0  0  0
  9 10  1  0  0  0  0
  9 12  1  0  0  0  0
  9 11  1  0  0  0  0
 10 14  1  0  0  0  0
 10 11  1  0  0  0  0
 11 15  1  0  0  0  0
 13 10  1  0  0  0  0
 16 11  1  0  0  0  0
 17 22  1  0  0  0  0
 18 17  1  0  0  0  0
 18 19  1  0  0  0  0
 19 20  1  0  0  0  0
 20 21  1  0  0  0  0
 22 21  1  0  0  0  0
M  END
>  <minimizedAffinity>
-4.25309277

$$$$

 OpenBabel03272508183D

 22 24  0  0  0  0  0  0  0  0999 V2000
   36.3070   26.7940   31.8880 C   0  0  0  0  0  0  0  0  0  0  0  0
   37.2140   25.8790   32.4660 C   0  0  0  0  0  0  0  0  0  0  0  0
   36.7950   24.5560   32.1410 C   0  0  0  0  0  0  0  0  0  0  0  0
   35.7050   24.2430   31.3960 N   0  0  0  0  0  0  0  0  0  0  0  0
   34.9040   25.1940   30.8870 C   0  0  0  0  0  0  0  0  0  0  0  0
   35.2200   26.4710   31.1440 N   0  0  0  0  0  0  0  0  0  0  0  0
   37.3160   23.6910   32.4640 H   0  0  0  0  0  0  0  0  0  0  0  0
   34.0170   25.1540   30.2870 H   0  0  0  0  0  0  0  0  0  0  0  0
   36.6920   28.2440   32.1030 C   0  0  0  0  0  0  0  0  0  0  0  0
   35.7270   29.2900   31.9090 C   0  0  0  0  0  0  0  0  0  0  0  0
   35.9270   28.8380   33.3140 C   0  0  0  0  0  0  0  0  0  0  0  0
   37.7540   28.4730   32.1990 H   0  0  0  0  0  0  0  0  0  0  0  0
   34.7350   28.9960   31.4530 H   0  0  0  0  0  0  0  0  0  0  0  0
   35.9570   30.3420   31.6630 H   0  0  0  0  0  0  0  0  0  0  0  0
   36.4570   29.5490   33.9730 H   0  0  0  0  0  0  0  0  0  0  0  0
   35.1900   28.1970   33.7680 H   0  0  0  0  0  0  0  0  0  0  0  0
   38.3970   26.1060   33.2360 C   0  0  0  0  0  3  0  0  0  0  0  0
   39.7220   25.6410   32.8450 C   0  0  0  0  0  2  0  0  0  0  0  0
   40.7710   26.6330   33.3340 C   0  0  0  0  0  2  0  0  0  0  0  0
   40.6510   26.7710   34.8080 C   0  0  0  0  0  2  0  0  0  0  0  0
   39.2570   26.9710   35.3400 C   0  0  0  0  0  2  0  0  0  0  0  0
   38.2820   25.9590   34.7320 C   0  0  0  0  0  2  0  0  0  0  0  0
  1  9  1  0  0  0  0
  1  2  1  0  0  0  0
  2 17  1  0  0  0  0
  3  7  1  0  0  0  0
  3  2  2  0  0  0  0
  4  3  1  0  0  0  0
  5  6  1  0  0  0  0
  5  4  2  0  0  0  0
  6  1  2  0  0  0  0
  8  5  1  0  0  0  0
  9 12  1  0  0  0  0
  9 11  1  0  0  0  0
 10  9  1  0  0  0  0
 10 11  1  0  0  0  0
 11 16  1  0  0  0  0
 11 15  1  0  0  0  0
 13 10  1  0  0  0  0
 14 10  1  0  0  0  0
 17 22  1  0  0  0  0
 18 17  1  0  0  0  0
 18 19  1  0  0  0  0
 19 20  1  0  0  0  0
 20 21  1  0  0  0  0
 22 21  1  0  0  0  0
M  END
>  <minimizedAffinity>
-4.19085407

$$$$

 OpenBabel03272508183D

 22 24  0  0  0  0  0  0  0  0999 V2000
   37.3680   23.2050   32.8330 C   0  0  0  0  0  0  0  0  0  0  0  0
   36.4200   22.5060   32.0550 C   0  0  0  0  0  0  0  0  0  0  0  0
   35.6210   23.4520   31.3510 C   0  0  0  0  0  0  0  0  0  0  0  0
   35.7600   24.8000   31.4240 N   0  0  0  0  0  0  0  0  0  0  0  0
   36.7000   25.3690   32.1970 C   0  0  0  0  0  0  0  0  0  0  0  0
   37.5000   24.5540   32.9000 N   0  0  0  0  0  0  0  0  0  0  0  0
   34.8340   23.1700   30.6980 H   0  0  0  0  0  0  0  0  0  0  0  0
   36.9660   26.3900   32.3860 H   0  0  0  0  0  0  0  0  0  0  0  0
   38.3290   22.3000   33.5740 C   0  0  0  0  0  0  0  0  0  0  0  0
   39.1010   22.8010   34.6770 C   0  0  0  0  0  0  0  0  0  0  0  0
   37.8530   22.0710   35.0320 C   0  0  0  0  0  0  0  0  0  0  0  0
   38.5660   21.3370   33.1180 H   0  0  0  0  0  0  0  0  0  0  0  0
   39.0680   23.9160   34.8620 H   0  0  0  0  0  0  0  0  0  0  0  0
   40.0640   22.3900   35.0310 H   0  0  0  0  0  0  0  0  0  0  0  0
   37.9960   21.0730   35.4820 H   0  0  0  0  0  0  0  0  0  0  0  0
   36.9860   22.6340   35.3400 H   0  0  0  0  0  0  0  0  0  0  0  0
   36.2110   21.1010   31.8890 C   0  0  0  0  0  3  0  0  0  0  0  0
   36.3800   20.4000   30.6230 C   0  0  0  0  0  2  0  0  0  0  0  0
   36.8740   18.9830   30.8910 C   0  0  0  0  0  2  0  0  0  0  0  0
   35.8990   18.2930   31.7730 C   0  0  0  0  0  2  0  0  0  0  0  0
   35.4390   19.0690   32.9780 C   0  0  0  0  0  2  0  0  0  0  0  0
   35.0270   20.4930   32.5970 C   0  0  0  0  0  2  0  0  0  0  0  0
  1  6  1  0  0  0  0
  1  9  1  0  0  0  0
  2  1  2  0  0  0  0
  3  4  2  0  0  0  0
  3  2  1  0  0  0  0
  4  5  1  0  0  0  0
  5  8  1  0  0  0  0
  5  6  2  0  0  0  0
  7  3  1  0  0  0  0
  9 10  1  0  0  0  0
  9 11  1  0  0  0  0
 10 13  1  0  0  0  0
 10 14  1  0  0  0  0
 10 11  1  0  0  0  0
 11 16  1  0  0  0  0
 11 15  1  0  0  0  0
 12  9  1  0  0  0  0
 17  2  1  0  0  0  0
 17 22  1  0  0  0  0
 18 19  1  0  0  0  0
 18 17  1  0  0  0  0
 19 20  1  0  0  0  0
 20 21  1  0  0  0  0
 22 21  1  0  0  0  0
M  END
>  <minimizedAffinity>
-4.12015867

$$$$

 OpenBabel03272508183D

 22 24  0  0  0  0  0  0  0  0999 V2000
   37.2390   25.4000   32.8890 C   0  0  0  0  0  0  0  0  0  0  0  0
   37.0680   26.7260   33.3420 C   0  0  0  0  0  0  0  0  0  0  0  0
   37.5310   26.8110   34.6880 C   0  0  0  0  0  0  0  0  0  0  0  0
   38.0490   25.7800   35.4020 N   0  0  0  0  0  0  0  0  0  0  0  0
   38.1720   24.5510   34.8740 C   0  0  0  0  0  0  0  0  0  0  0  0
   37.7590   24.3750   33.6110 N   0  0  0  0  0  0  0  0  0  0  0  0
   37.5050   27.7090   35.2510 H   0  0  0  0  0  0  0  0  0  0  0  0
   38.5480   23.6260   35.2640 H   0  0  0  0  0  0  0  0  0  0  0  0
   36.8490   25.2010   31.4390 C   0  0  0  0  0  0  0  0  0  0  0  0
   36.6530   23.8790   30.9110 C   0  0  0  0  0  0  0  0  0  0  0  0
   35.4220   24.6040   31.3330 C   0  0  0  0  0  0  0  0  0  0  0  0
   36.9290   26.0630   30.7750 H   0  0  0  0  0  0  0  0  0  0  0  0
   36.9450   23.0130   31.5760 H   0  0  0  0  0  0  0  0  0  0  0  0
   36.7480   23.5880   29.8500 H   0  0  0  0  0  0  0  0  0  0  0  0
   34.7670   24.9490   30.5130 H   0  0  0  0  0  0  0  0  0  0  0  0
   34.9510   24.3370   32.2650 H   0  0  0  0  0  0  0  0  0  0  0  0
   36.5620   27.8790   32.6660 C   0  0  0  0  0  3  0  0  0  0  0  0
   37.2970   28.6050   31.6380 C   0  0  0  0  0  2  0  0  0  0  0  0
   36.3140   29.1750   30.6210 C   0  0  0  0  0  2  0  0  0  0  0  0
   35.3480   30.0550   31.3280 C   0  0  0  0  0  2  0  0  0  0  0  0
   34.7420   29.4900   32.5850 C   0  0  0  0  0  2  0  0  0  0  0  0
   35.8150   28.8910   33.4980 C   0  0  0  0  0  2  0  0  0  0  0  0
  1  2  2  0  0  0  0
  1  6  1  0  0  0  0
  2  3  1  0  0  0  0
  3  7  1  0  0  0  0
  3  4  2  0  0  0  0
  5  8  1  0  0  0  0
  5  4  1  0  0  0  0
  6  5  2  0  0  0  0
  9  1  1  0  0  0  0
 10 11  1  0  0  0  0
 10  9  1  0  0  0  0
 10 13  1  0  0  0  0
 11  9  1  0  0  0  0
 11 16  1  0  0  0  0
 12  9  1  0  0  0  0
 14 10  1  0  0  0  0
 15 11  1  0  0  0  0
 17  2  1  0  0  0  0
 17 22  1  0  0  0  0
 18 17  1  0  0  0  0
 19 20  1  0  0  0  0
 19 18  1  0  0  0  0
 20 21  1  0  0  0  0
 21 22  1  0  0  0  0
M  END
>  <minimizedAffinity>
-4.10395288

$$$$

 OpenBabel03272508183D

 22 24  0  0  0  0  0  0  0  0999 V2000
   39.7080   23.6280   36.3590 C   0  0  0  0  0  0  0  0  0  0  0  0
   38.9400   24.7620   36.0160 C   0  0  0  0  0  0  0  0  0  0  0  0
   37.9920   25.0010   37.0530 C   0  0  0  0  0  0  0  0  0  0  0  0
   37.8620   24.2550   38.1790 N   0  0  0  0  0  0  0  0  0  0  0  0
   38.6490   23.1910   38.4120 C   0  0  0  0  0  0  0  0  0  0  0  0
   39.5700   22.8880   37.4870 N   0  0  0  0  0  0  0  0  0  0  0  0
   37.2960   25.8000   37.0250 H   0  0  0  0  0  0  0  0  0  0  0  0
   38.7040   22.4910   39.2220 H   0  0  0  0  0  0  0  0  0  0  0  0
   40.8060   23.3170   35.3620 C   0  0  0  0  0  0  0  0  0  0  0  0
   41.4770   22.0470   35.3900 C   0  0  0  0  0  0  0  0  0  0  0  0
   40.3680   22.1790   34.4040 C   0  0  0  0  0  0  0  0  0  0  0  0
   41.2030   24.1480   34.7770 H   0  0  0  0  0  0  0  0  0  0  0  0
   41.2550   21.3680   36.2660 H   0  0  0  0  0  0  0  0  0  0  0  0
   42.4940   21.8470   35.0060 H   0  0  0  0  0  0  0  0  0  0  0  0
   40.6760   22.2360   33.3450 H   0  0  0  0  0  0  0  0  0  0  0  0
   39.4180   21.7180   34.6200 H   0  0  0  0  0  0  0  0  0  0  0  0
   39.0160   25.6250   34.8780 C   0  0  0  0  0  3  0  0  0  0  0  0
   39.7470   26.8860   34.8630 C   0  0  0  0  0  2  0  0  0  0  0  0
   40.3050   27.1300   33.4660 C   0  0  0  0  0  2  0  0  0  0  0  0
   39.1830   27.1360   32.4940 C   0  0  0  0  0  2  0  0  0  0  0  0
   38.1970   26.0060   32.6210 C   0  0  0  0  0  2  0  0  0  0  0  0
   37.7550   25.8150   34.0740 C   0  0  0  0  0  2  0  0  0  0  0  0
  1  6  1  0  0  0  0
  2  1  2  0  0  0  0
  2  3  1  0  0  0  0
  3  4  2  0  0  0  0
  4  5  1  0  0  0  0
  5  8  1  0  0  0  0
  6  5  2  0  0  0  0
  7  3  1  0  0  0  0
  9 10  1  0  0  0  0
  9  1  1  0  0  0  0
 10 13  1  0  0  0  0
 11 16  1  0  0  0  0
 11  9  1  0  0  0  0
 11 10  1  0  0  0  0
 12  9  1  0  0  0  0
 14 10  1  0  0  0  0
 15 11  1  0  0  0  0
 17  2  1  0  0  0  0
 18 17  1  0  0  0  0
 19 18  1  0  0  0  0
 20 21  1  0  0  0  0
 20 19  1  0  0  0  0
 21 22  1  0  0  0  0
 22 17  1  0  0  0  0
M  END
>  <minimizedAffinity>
-4.07256317

$$$$
