
 OpenBabel03272509053D

 30 32  0  0  0  0  0  0  0  0999 V2000
   34.7210   28.4150   49.6990 C   0  0  0  0  0  3  0  0  0  0  0  0
   34.3890   27.9870   48.5090 C   0  0  0  0  0  3  0  0  0  0  0  0
   37.3800   30.5490   51.0280 C   0  0  0  0  0  0  0  0  0  0  0  0
   38.1020   30.8640   49.8590 C   0  0  0  0  0  0  0  0  0  0  0  0
   37.6490   30.3290   48.6360 C   0  0  0  0  0  0  0  0  0  0  0  0
   36.5470   29.5420   48.6590 N   0  0  0  0  0  0  0  0  0  0  0  0
   35.8810   29.2610   49.7970 C   0  0  0  0  0  0  0  0  0  0  0  0
   36.3140   29.7740   50.9680 N   0  0  0  0  0  0  0  0  0  0  0  0
   37.7530   30.9750   51.9470 H   0  0  0  0  0  0  0  0  0  0  0  0
   38.9690   31.4770   49.8030 H   0  0  0  0  0  0  0  0  0  0  0  0
   38.2890   30.5600   47.3150 C   0  0  0  0  0  3  0  0  0  0  0  0
   37.2790   30.9250   46.2530 C   0  0  0  0  0  2  0  0  0  0  0  0
   38.1030   31.2670   45.0080 C   0  0  0  0  0  2  0  0  0  0  0  0
   38.8160   32.5860   45.1790 C   0  0  0  0  0  2  0  0  0  0  0  0
   38.8120   32.9300   46.6430 C   0  0  0  0  0  2  0  0  0  0  0  0
   39.3050   31.6940   47.3840 C   0  0  0  0  0  2  0  0  0  0  0  0
   33.2540   27.1170   48.1470 C   0  0  0  0  0  0  0  0  0  0  0  0
   32.4570   27.7630   47.6980 H   0  0  0  0  0  0  0  0  0  0  0  0
   32.8050   26.5930   49.0180 H   0  0  0  0  0  0  0  0  0  0  0  0
   33.6210   26.0930   47.1230 C   0  0  0  0  0  0  0  0  0  0  0  0
   33.7790   24.7550   47.3720 C   0  0  0  0  0  0  0  0  0  0  0  0
   34.1210   23.8860   46.3560 C   0  0  0  0  0  0  0  0  0  0  0  0
   34.3130   24.3560   45.0430 C   0  0  0  0  0  0  0  0  0  0  0  0
   34.1560   25.6900   44.7880 C   0  0  0  0  0  0  0  0  0  0  0  0
   33.8130   26.5450   45.8240 C   0  0  0  0  0  0  0  0  0  0  0  0
   33.6210   24.4380   48.4000 H   0  0  0  0  0  0  0  0  0  0  0  0
   34.2290   22.8540   46.6150 H   0  0  0  0  0  0  0  0  0  0  0  0
   34.5740   23.5880   44.3410 H   0  0  0  0  0  0  0  0  0  0  0  0
   34.3090   26.0290   43.7720 H   0  0  0  0  0  0  0  0  0  0  0  0
   33.7040   27.5970   45.5520 H   0  0  0  0  0  0  0  0  0  0  0  0
  1  7  1  0  0  0  0
  2  1  2  0  0  0  0
  3  9  1  0  0  0  0
  4  3  2  0  0  0  0
  5  6  2  0  0  0  0
  5  4  1  0  0  0  0
  6  7  1  0  0  0  0
  7  8  2  0  0  0  0
  8  3  1  0  0  0  0
 10  4  1  0  0  0  0
 11 16  1  0  0  0  0
 11  5  1  0  0  0  0
 12 11  1  0  0  0  0
 13 14  1  0  0  0  0
 13 12  1  0  0  0  0
 14 15  1  0  0  0  0
 15 16  1  0  0  0  0
 17  2  1  0  0  0  0
 17 19  1  0  0  0  0
 18 17  1  0  0  0  0
 20 21  1  0  0  0  0
 20 17  1  0  0  0  0
 21 26  1  0  0  0  0
 22 27  1  0  0  0  0
 22 21  2  0  0  0  0
 23 22  1  0  0  0  0
 24 23  2  0  0  0  0
 24 25  1  0  0  0  0
 25 20  2  0  0  0  0
 28 23  1  0  0  0  0
 29 24  1  0  0  0  0
 30 25  1  0  0  0  0
M  END
>  <minimizedAffinity>
-5.55852365

>  <minimizedRMSD>
0.464971155

$$$$
