
 OpenBabel03262520183D

 15 16  0  0  0  0  0  0  0  0999 V2000
   36.2250   29.4350   51.3580 C   0  0  0  0  0  0  0  0  0  0  0  0
   37.1100   30.2610   50.6310 C   0  0  0  0  0  0  0  0  0  0  0  0
   36.6220   30.8530   49.4570 C   0  0  0  0  0  0  0  0  0  0  0  0
   35.3330   30.6000   49.0890 N   0  0  0  0  0  0  0  0  0  0  0  0
   34.5190   29.8060   49.8080 C   0  0  0  0  0  0  0  0  0  0  0  0
   34.9630   29.2220   50.9450 N   0  0  0  0  0  0  0  0  0  0  0  0
   36.6270   28.9900   52.2630 H   0  0  0  0  0  0  0  0  0  0  0  0
   38.1150   30.4280   50.9680 H   0  0  0  0  0  0  0  0  0  0  0  0
   33.5160   29.6610   49.4430 H   0  0  0  0  0  0  0  0  0  0  0  0
   37.5090   31.7180   48.6760 C   0  0  0  0  0  3  0  0  0  0  0  0
   38.6120   32.3740   49.4250 C   0  0  0  0  0  2  0  0  0  0  0  0
   39.1430   33.4780   48.5320 C   0  0  0  0  0  2  0  0  0  0  0  0
   39.2520   33.0420   47.1200 C   0  0  0  0  0  2  0  0  0  0  0  0
   39.2390   31.5720   46.8680 C   0  0  0  0  0  2  0  0  0  0  0  0
   38.1960   30.8160   47.6420 C   0  0  0  0  0  2  0  0  0  0  0  0
  1  7  1  0  0  0  0
  2  8  1  0  0  0  0
  2  1  2  0  0  0  0
  3  2  1  0  0  0  0
  4  3  2  0  0  0  0
  4  5  1  0  0  0  0
  5  6  2  0  0  0  0
  6  1  1  0  0  0  0
  9  5  1  0  0  0  0
 10 11  1  0  0  0  0
 10  3  1  0  0  0  0
 12 11  1  0  0  0  0
 13 12  1  0  0  0  0
 14 13  1  0  0  0  0
 14 15  1  0  0  0  0
 15 10  1  0  0  0  0
M  END
>  <minimizedAffinity>
-4.84607267

>  <minimizedRMSD>
1.58942902

$$$$
