
 OpenBabel03262523043D

 23 25  0  0  0  0  0  0  0  0999 V2000
   36.0520   23.6140   31.6760 C   0  0  0  0  0  0  0  0  0  0  0  0
   35.2440   24.4500   30.9630 C   0  0  0  0  0  0  0  0  0  0  0  0
   35.3780   25.7990   31.1070 C   0  0  0  0  0  0  0  0  0  0  0  0
   36.3010   26.3120   31.9520 N   0  0  0  0  0  0  0  0  0  0  0  0
   37.0920   25.4650   32.6500 C   0  0  0  0  0  0  0  0  0  0  0  0
   36.9650   24.1310   32.5110 N   0  0  0  0  0  0  0  0  0  0  0  0
   34.5360   23.9780   30.3130 H   0  0  0  0  0  0  0  0  0  0  0  0
   34.7320   26.4680   30.5370 H   0  0  0  0  0  0  0  0  0  0  0  0
   36.7850   20.1380   30.7620 C   0  0  0  0  0  0  0  0  0  0  0  0
   35.7660   19.4210   31.4070 C   0  0  0  0  0  0  0  0  0  0  0  0
   34.8340   20.1630   32.1540 C   0  0  0  0  0  0  0  0  0  0  0  0
   34.9630   21.5210   32.2150 N   0  0  0  0  0  0  0  0  0  0  0  0
   35.9680   22.1710   31.5740 C   0  0  0  0  0  0  0  0  0  0  0  0
   36.8650   21.4600   30.8560 N   0  0  0  0  0  0  0  0  0  0  0  0
   37.5610   19.6820   30.1600 H   0  0  0  0  0  0  0  0  0  0  0  0
   35.7490   18.3500   31.2980 H   0  0  0  0  0  0  0  0  0  0  0  0
   34.0470   19.6240   32.6530 H   0  0  0  0  0  0  0  0  0  0  0  0
   38.0790   26.1150   33.5550 C   0  0  0  0  0  3  0  0  0  0  0  0
   38.5810   25.0930   34.5340 C   0  0  0  0  0  2  0  0  0  0  0  0
   37.9900   25.2610   35.9160 C   0  0  0  0  0  2  0  0  0  0  0  0
   38.3620   26.6180   36.4160 C   0  0  0  0  0  2  0  0  0  0  0  0
   37.9900   27.7310   35.4840 C   0  0  0  0  0  2  0  0  0  0  0  0
   37.3540   27.2560   34.2130 C   0  0  0  0  0  2  0  0  0  0  0  0
  1  6  1  0  0  0  0
  2  3  1  0  0  0  0
  2  1  2  0  0  0  0
  3  4  2  0  0  0  0
  4  5  1  0  0  0  0
  5 18  1  0  0  0  0
  6  5  2  0  0  0  0
  7  2  1  0  0  0  0
  8  3  1  0  0  0  0
  9 14  2  0  0  0  0
  9 10  1  0  0  0  0
 10 11  2  0  0  0  0
 11 12  1  0  0  0  0
 11 17  1  0  0  0  0
 13  1  1  0  0  0  0
 13 12  2  0  0  0  0
 14 13  1  0  0  0  0
 15  9  1  0  0  0  0
 16 10  1  0  0  0  0
 18 23  1  0  0  0  0
 18 19  1  0  0  0  0
 19 20  1  0  0  0  0
 20 21  1  0  0  0  0
 22 21  1  0  0  0  0
 23 22  1  0  0  0  0
M  END
>  <minimizedAffinity>
-5.26462936

$$$$

 OpenBabel03262523043D

 23 25  0  0  0  0  0  0  0  0999 V2000
   35.1160   29.8960   34.0810 C   0  0  0  0  0  0  0  0  0  0  0  0
   34.8720   30.1910   32.7710 C   0  0  0  0  0  0  0  0  0  0  0  0
   35.4430   29.4310   31.7940 C   0  0  0  0  0  0  0  0  0  0  0  0
   36.2470   28.3910   32.1130 N   0  0  0  0  0  0  0  0  0  0  0  0
   36.4760   28.1170   33.4170 C   0  0  0  0  0  0  0  0  0  0  0  0
   35.9140   28.8630   34.3880 N   0  0  0  0  0  0  0  0  0  0  0  0
   34.2270   31.0260   32.5910 H   0  0  0  0  0  0  0  0  0  0  0  0
   35.2480   29.6660   30.7470 H   0  0  0  0  0  0  0  0  0  0  0  0
   32.7150   31.2590   36.4960 C   0  0  0  0  0  0  0  0  0  0  0  0
   33.5000   32.1330   37.2620 C   0  0  0  0  0  0  0  0  0  0  0  0
   34.8610   32.2360   36.9240 C   0  0  0  0  0  0  0  0  0  0  0  0
   35.3440   31.4930   35.8850 N   0  0  0  0  0  0  0  0  0  0  0  0
   34.5450   30.6590   35.1720 C   0  0  0  0  0  0  0  0  0  0  0  0
   33.2360   30.5590   35.4960 N   0  0  0  0  0  0  0  0  0  0  0  0
   31.6570   31.0930   36.6580 H   0  0  0  0  0  0  0  0  0  0  0  0
   33.0260   32.6760   38.0620 H   0  0  0  0  0  0  0  0  0  0  0  0
   35.4730   32.9040   37.5050 H   0  0  0  0  0  0  0  0  0  0  0  0
   37.3720   26.9570   33.6770 C   0  0  0  0  0  3  0  0  0  0  0  0
   37.5280   26.7900   35.1620 C   0  0  0  0  0  2  0  0  0  0  0  0
   38.8690   27.2710   35.6710 C   0  0  0  0  0  2  0  0  0  0  0  0
   39.9340   26.4750   34.9910 C   0  0  0  0  0  2  0  0  0  0  0  0
   39.8390   26.4890   33.4950 C   0  0  0  0  0  2  0  0  0  0  0  0
   38.6680   27.2660   32.9790 C   0  0  0  0  0  2  0  0  0  0  0  0
  1  6  1  0  0  0  0
  1 13  1  0  0  0  0
  2  1  2  0  0  0  0
  3  4  2  0  0  0  0
  3  2  1  0  0  0  0
  4  5  1  0  0  0  0
  5 18  1  0  0  0  0
  5  6  2  0  0  0  0
  7  2  1  0  0  0  0
  8  3  1  0  0  0  0
  9 15  1  0  0  0  0
  9 10  1  0  0  0  0
 10 16  1  0  0  0  0
 11 10  2  0  0  0  0
 11 17  1  0  0  0  0
 12 11  1  0  0  0  0
 13 14  1  0  0  0  0
 13 12  2  0  0  0  0
 14  9  2  0  0  0  0
 18 19  1  0  0  0  0
 19 20  1  0  0  0  0
 21 20  1  0  0  0  0
 22 21  1  0  0  0  0
 23 22  1  0  0  0  0
 23 18  1  0  0  0  0
M  END
>  <minimizedAffinity>
-5.13546324

$$$$

 OpenBabel03262523043D

 23 25  0  0  0  0  0  0  0  0999 V2000
   38.3850   24.5390   34.4950 C   0  0  0  0  0  0  0  0  0  0  0  0
   38.6970   25.7980   34.0740 C   0  0  0  0  0  0  0  0  0  0  0  0
   38.4740   26.1470   32.7750 C   0  0  0  0  0  0  0  0  0  0  0  0
   37.9500   25.2550   31.9040 N   0  0  0  0  0  0  0  0  0  0  0  0
   37.6480   24.0110   32.3420 C   0  0  0  0  0  0  0  0  0  0  0  0
   37.8640   23.6610   33.6250 N   0  0  0  0  0  0  0  0  0  0  0  0
   39.1080   26.4530   34.8150 H   0  0  0  0  0  0  0  0  0  0  0  0
   38.7230   27.1540   32.4380 H   0  0  0  0  0  0  0  0  0  0  0  0
   39.7580   22.8180   37.4290 C   0  0  0  0  0  0  0  0  0  0  0  0
   38.9510   23.2870   38.4760 C   0  0  0  0  0  0  0  0  0  0  0  0
   37.9350   24.1990   38.1430 C   0  0  0  0  0  0  0  0  0  0  0  0
   37.7860   24.5790   36.8400 N   0  0  0  0  0  0  0  0  0  0  0  0
   38.5930   24.0980   35.8600 C   0  0  0  0  0  0  0  0  0  0  0  0
   39.5700   23.2210   36.1780 N   0  0  0  0  0  0  0  0  0  0  0  0
   40.5720   22.1140   37.5580 H   0  0  0  0  0  0  0  0  0  0  0  0
   39.1480   22.9270   39.4720 H   0  0  0  0  0  0  0  0  0  0  0  0
   37.3090   24.5660   38.9380 H   0  0  0  0  0  0  0  0  0  0  0  0
   37.0750   23.0960   31.3180 C   0  0  0  0  0  3  0  0  0  0  0  0
   35.6030   22.9430   31.5760 C   0  0  0  0  0  2  0  0  0  0  0  0
   35.2510   21.6130   32.2050 C   0  0  0  0  0  2  0  0  0  0  0  0
   35.6820   20.5310   31.2700 C   0  0  0  0  0  2  0  0  0  0  0  0
   37.1220   20.6190   30.8640 C   0  0  0  0  0  2  0  0  0  0  0  0
   37.8330   21.8020   31.4440 C   0  0  0  0  0  2  0  0  0  0  0  0
  1 13  1  0  0  0  0
  2  1  1  0  0  0  0
  2  7  1  0  0  0  0
  3  2  2  0  0  0  0
  4  5  2  0  0  0  0
  4  3  1  0  0  0  0
  5  6  1  0  0  0  0
  6  1  2  0  0  0  0
  8  3  1  0  0  0  0
  9 15  1  0  0  0  0
  9 10  1  0  0  0  0
 10 16  1  0  0  0  0
 11 10  2  0  0  0  0
 11 17  1  0  0  0  0
 12 11  1  0  0  0  0
 13 14  1  0  0  0  0
 13 12  2  0  0  0  0
 14  9  2  0  0  0  0
 18 23  1  0  0  0  0
 18 19  1  0  0  0  0
 18  5  1  0  0  0  0
 19 20  1  0  0  0  0
 21 20  1  0  0  0  0
 22 21  1  0  0  0  0
 22 23  1  0  0  0  0
M  END
>  <minimizedAffinity>
-5.05513144

$$$$

 OpenBabel03262523043D

 23 25  0  0  0  0  0  0  0  0999 V2000
   38.1550   23.5800   34.1980 C   0  0  0  0  0  0  0  0  0  0  0  0
   38.5700   24.6340   33.4370 C   0  0  0  0  0  0  0  0  0  0  0  0
   38.1970   24.7050   32.1280 C   0  0  0  0  0  0  0  0  0  0  0  0
   37.4230   23.7410   31.5800 N   0  0  0  0  0  0  0  0  0  0  0  0
   37.0240   22.7040   32.3510 C   0  0  0  0  0  0  0  0  0  0  0  0
   37.3880   22.6280   33.6460 N   0  0  0  0  0  0  0  0  0  0  0  0
   39.1780   25.3600   33.9350 H   0  0  0  0  0  0  0  0  0  0  0  0
   38.5270   25.5480   31.5200 H   0  0  0  0  0  0  0  0  0  0  0  0
   39.9330   22.6190   37.2600 C   0  0  0  0  0  0  0  0  0  0  0  0
   39.1500   23.1930   38.2710 C   0  0  0  0  0  0  0  0  0  0  0  0
   38.0080   23.9090   37.8710 C   0  0  0  0  0  0  0  0  0  0  0  0
   37.7220   24.0100   36.5400 N   0  0  0  0  0  0  0  0  0  0  0  0
   38.5110   23.4370   35.5950 C   0  0  0  0  0  0  0  0  0  0  0  0
   39.6090   22.7490   35.9790 N   0  0  0  0  0  0  0  0  0  0  0  0
   40.8340   22.0460   37.4400 H   0  0  0  0  0  0  0  0  0  0  0  0
   39.4590   23.0570   39.2940 H   0  0  0  0  0  0  0  0  0  0  0  0
   37.3990   24.3540   38.6390 H   0  0  0  0  0  0  0  0  0  0  0  0
   36.1760   21.6900   31.6680 C   0  0  0  0  0  3  0  0  0  0  0  0
   35.1530   21.1790   32.6420 C   0  0  0  0  0  2  0  0  0  0  0  0
   35.4740   19.7960   33.1620 C   0  0  0  0  0  2  0  0  0  0  0  0
   35.5230   18.8640   31.9960 C   0  0  0  0  0  2  0  0  0  0  0  0
   36.4510   19.3060   30.9050 C   0  0  0  0  0  2  0  0  0  0  0  0
   37.1150   20.6190   31.1830 C   0  0  0  0  0  2  0  0  0  0  0  0
  1 13  1  0  0  0  0
  2  7  1  0  0  0  0
  2  1  2  0  0  0  0
  3  2  1  0  0  0  0
  4  3  2  0  0  0  0
  4  5  1  0  0  0  0
  5  6  2  0  0  0  0
  6  1  1  0  0  0  0
  8  3  1  0  0  0  0
  9 15  1  0  0  0  0
  9 10  1  0  0  0  0
 10 16  1  0  0  0  0
 11 10  2  0  0  0  0
 11 17  1  0  0  0  0
 12 11  1  0  0  0  0
 13 14  1  0  0  0  0
 13 12  2  0  0  0  0
 14  9  2  0  0  0  0
 18  5  1  0  0  0  0
 18 19  1  0  0  0  0
 19 20  1  0  0  0  0
 21 20  1  0  0  0  0
 22 23  1  0  0  0  0
 22 21  1  0  0  0  0
 23 18  1  0  0  0  0
M  END
>  <minimizedAffinity>
-5.05450678

$$$$

 OpenBabel03262523043D

 23 25  0  0  0  0  0  0  0  0999 V2000
   36.2920   23.8670   31.7460 C   0  0  0  0  0  0  0  0  0  0  0  0
   35.4200   24.3960   30.8390 C   0  0  0  0  0  0  0  0  0  0  0  0
   35.2370   25.7460   30.7920 C   0  0  0  0  0  0  0  0  0  0  0  0
   35.9090   26.5610   31.6360 N   0  0  0  0  0  0  0  0  0  0  0  0
   36.7670   26.0160   32.5280 C   0  0  0  0  0  0  0  0  0  0  0  0
   36.9540   24.6830   32.5790 N   0  0  0  0  0  0  0  0  0  0  0  0
   34.9230   23.6940   30.2010 H   0  0  0  0  0  0  0  0  0  0  0  0
   34.5410   26.1690   30.0670 H   0  0  0  0  0  0  0  0  0  0  0  0
   37.9600   20.6020   31.6320 C   0  0  0  0  0  0  0  0  0  0  0  0
   36.9610   19.7230   32.0740 C   0  0  0  0  0  0  0  0  0  0  0  0
   35.7150   20.2820   32.4060 C   0  0  0  0  0  0  0  0  0  0  0  0
   35.5400   21.6310   32.2850 N   0  0  0  0  0  0  0  0  0  0  0  0
   36.5380   22.4440   31.8530 C   0  0  0  0  0  0  0  0  0  0  0  0
   37.7370   21.9070   31.5340 N   0  0  0  0  0  0  0  0  0  0  0  0
   38.9590   20.2940   31.3480 H   0  0  0  0  0  0  0  0  0  0  0  0
   37.1970   18.6740   32.1350 H   0  0  0  0  0  0  0  0  0  0  0  0
   34.9400   19.6160   32.7460 H   0  0  0  0  0  0  0  0  0  0  0  0
   37.4630   26.9850   33.4170 C   0  0  0  0  0  3  0  0  0  0  0  0
   38.9210   27.0140   33.0530 C   0  0  0  0  0  2  0  0  0  0  0  0
   39.7900   26.2780   34.0480 C   0  0  0  0  0  2  0  0  0  0  0  0
   39.6230   26.9300   35.3810 C   0  0  0  0  0  2  0  0  0  0  0  0
   38.1960   27.0410   35.8260 C   0  0  0  0  0  2  0  0  0  0  0  0
   37.2160   26.5130   34.8240 C   0  0  0  0  0  2  0  0  0  0  0  0
  1 13  1  0  0  0  0
  1  6  1  0  0  0  0
  2  1  2  0  0  0  0
  3  2  1  0  0  0  0
  3  4  2  0  0  0  0
  4  5  1  0  0  0  0
  5  6  2  0  0  0  0
  5 18  1  0  0  0  0
  7  2  1  0  0  0  0
  8  3  1  0  0  0  0
  9 10  1  0  0  0  0
 10 16  1  0  0  0  0
 10 11  2  0  0  0  0
 11 17  1  0  0  0  0
 12 11  1  0  0  0  0
 13 12  2  0  0  0  0
 14  9  2  0  0  0  0
 14 13  1  0  0  0  0
 15  9  1  0  0  0  0
 18 23  1  0  0  0  0
 19 18  1  0  0  0  0
 19 20  1  0  0  0  0
 20 21  1  0  0  0  0
 21 22  1  0  0  0  0
 23 22  1  0  0  0  0
M  END
>  <minimizedAffinity>
-4.94709539

$$$$

 OpenBabel03262523043D

 23 25  0  0  0  0  0  0  0  0999 V2000
   37.3990   22.8450   32.7970 C   0  0  0  0  0  0  0  0  0  0  0  0
   37.6690   23.7570   31.8190 C   0  0  0  0  0  0  0  0  0  0  0  0
   38.3340   24.9040   32.1350 C   0  0  0  0  0  0  0  0  0  0  0  0
   38.7260   25.1450   33.4070 N   0  0  0  0  0  0  0  0  0  0  0  0
   38.4480   24.2270   34.3610 C   0  0  0  0  0  0  0  0  0  0  0  0
   37.7920   23.0910   34.0560 N   0  0  0  0  0  0  0  0  0  0  0  0
   37.3320   23.5030   30.8350 H   0  0  0  0  0  0  0  0  0  0  0  0
   38.5510   25.6330   31.3530 H   0  0  0  0  0  0  0  0  0  0  0  0
   35.4490   19.7760   33.2860 C   0  0  0  0  0  0  0  0  0  0  0  0
   35.3720   19.2440   31.9910 C   0  0  0  0  0  0  0  0  0  0  0  0
   36.0030   19.9640   30.9620 C   0  0  0  0  0  0  0  0  0  0  0  0
   36.6500   21.1270   31.2670 N   0  0  0  0  0  0  0  0  0  0  0  0
   36.6980   21.6050   32.5370 C   0  0  0  0  0  0  0  0  0  0  0  0
   36.0910   20.9140   33.5270 N   0  0  0  0  0  0  0  0  0  0  0  0
   35.0040   19.3170   34.1600 H   0  0  0  0  0  0  0  0  0  0  0  0
   34.8380   18.3190   31.8520 H   0  0  0  0  0  0  0  0  0  0  0  0
   35.9500   19.5640   29.9640 H   0  0  0  0  0  0  0  0  0  0  0  0
   38.9140   24.5720   35.7320 C   0  0  0  0  0  3  0  0  0  0  0  0
   40.0680   23.6790   36.0890 C   0  0  0  0  0  2  0  0  0  0  0  0
   39.6860   22.5840   37.0600 C   0  0  0  0  0  2  0  0  0  0  0  0
   39.1840   23.2300   38.3100 C   0  0  0  0  0  2  0  0  0  0  0  0
   38.0790   24.2160   38.0810 C   0  0  0  0  0  2  0  0  0  0  0  0
   37.7260   24.3910   36.6360 C   0  0  0  0  0  2  0  0  0  0  0  0
  1  6  1  0  0  0  0
  2  3  1  0  0  0  0
  2  1  2  0  0  0  0
  3  4  2  0  0  0  0
  4  5  1  0  0  0  0
  5 18  1  0  0  0  0
  6  5  2  0  0  0  0
  7  2  1  0  0  0  0
  8  3  1  0  0  0  0
  9 14  1  0  0  0  0
  9 15  1  0  0  0  0
 10  9  2  0  0  0  0
 11 12  2  0  0  0  0
 11 10  1  0  0  0  0
 12 13  1  0  0  0  0
 13  1  1  0  0  0  0
 13 14  2  0  0  0  0
 16 10  1  0  0  0  0
 17 11  1  0  0  0  0
 18 19  1  0  0  0  0
 18 23  1  0  0  0  0
 19 20  1  0  0  0  0
 20 21  1  0  0  0  0
 22 21  1  0  0  0  0
 23 22  1  0  0  0  0
M  END
>  <minimizedAffinity>
-4.93008566

$$$$

 OpenBabel03262523043D

 23 25  0  0  0  0  0  0  0  0999 V2000
   38.2290   24.3820   34.6150 C   0  0  0  0  0  0  0  0  0  0  0  0
   38.0470   23.4440   33.6410 C   0  0  0  0  0  0  0  0  0  0  0  0
   37.8200   23.8450   32.3580 C   0  0  0  0  0  0  0  0  0  0  0  0
   37.7730   25.1600   32.0450 N   0  0  0  0  0  0  0  0  0  0  0  0
   37.9560   26.0720   33.0260 C   0  0  0  0  0  0  0  0  0  0  0  0
   38.1820   25.6840   34.2970 N   0  0  0  0  0  0  0  0  0  0  0  0
   38.0970   22.4230   33.9570 H   0  0  0  0  0  0  0  0  0  0  0  0
   37.6750   23.0960   31.5780 H   0  0  0  0  0  0  0  0  0  0  0  0
   37.9360   24.1980   38.2670 C   0  0  0  0  0  0  0  0  0  0  0  0
   38.9810   23.3350   38.6240 C   0  0  0  0  0  0  0  0  0  0  0  0
   39.7780   22.8270   37.5820 C   0  0  0  0  0  0  0  0  0  0  0  0
   39.4990   23.1930   36.2970 N   0  0  0  0  0  0  0  0  0  0  0  0
   38.4750   24.0320   35.9990 C   0  0  0  0  0  0  0  0  0  0  0  0
   37.7080   24.5200   36.9990 N   0  0  0  0  0  0  0  0  0  0  0  0
   37.2540   24.6530   38.9760 H   0  0  0  0  0  0  0  0  0  0  0  0
   39.1210   23.1070   39.6670 H   0  0  0  0  0  0  0  0  0  0  0  0
   40.5840   22.1640   37.8440 H   0  0  0  0  0  0  0  0  0  0  0  0
   37.8890   27.4950   32.5940 C   0  0  0  0  0  3  0  0  0  0  0  0
   36.6400   28.1120   33.1570 C   0  0  0  0  0  2  0  0  0  0  0  0
   35.5540   28.2910   32.1200 C   0  0  0  0  0  2  0  0  0  0  0  0
   36.0810   29.1860   31.0470 C   0  0  0  0  0  2  0  0  0  0  0  0
   37.3790   28.7240   30.4570 C   0  0  0  0  0  2  0  0  0  0  0  0
   37.9120   27.4760   31.0900 C   0  0  0  0  0  2  0  0  0  0  0  0
  1 13  1  0  0  0  0
  2  7  1  0  0  0  0
  2  1  2  0  0  0  0
  3  2  1  0  0  0  0
  4  3  2  0  0  0  0
  4  5  1  0  0  0  0
  5  6  2  0  0  0  0
  6  1  1  0  0  0  0
  8  3  1  0  0  0  0
  9 10  1  0  0  0  0
  9 15  1  0  0  0  0
 10 16  1  0  0  0  0
 11 17  1  0  0  0  0
 11 10  2  0  0  0  0
 12 11  1  0  0  0  0
 13 12  2  0  0  0  0
 13 14  1  0  0  0  0
 14  9  2  0  0  0  0
 18  5  1  0  0  0  0
 18 19  1  0  0  0  0
 20 19  1  0  0  0  0
 21 20  1  0  0  0  0
 22 21  1  0  0  0  0
 22 23  1  0  0  0  0
 23 18  1  0  0  0  0
M  END
>  <minimizedAffinity>
-4.92469263

$$$$

 OpenBabel03262523043D

 23 25  0  0  0  0  0  0  0  0999 V2000
   37.6670   25.1560   33.2760 C   0  0  0  0  0  0  0  0  0  0  0  0
   38.0580   24.5020   32.1440 C   0  0  0  0  0  0  0  0  0  0  0  0
   38.5990   23.2550   32.2420 C   0  0  0  0  0  0  0  0  0  0  0  0
   38.7530   22.6640   33.4490 N   0  0  0  0  0  0  0  0  0  0  0  0
   38.3590   23.3300   34.5580 C   0  0  0  0  0  0  0  0  0  0  0  0
   37.8220   24.5630   34.4690 N   0  0  0  0  0  0  0  0  0  0  0  0
   37.9080   25.0260   31.2230 H   0  0  0  0  0  0  0  0  0  0  0  0
   38.9120   22.7310   31.3380 H   0  0  0  0  0  0  0  0  0  0  0  0
   36.1720   28.2810   32.0680 C   0  0  0  0  0  0  0  0  0  0  0  0
   35.9750   29.0120   33.2480 C   0  0  0  0  0  0  0  0  0  0  0  0
   36.3680   28.4030   34.4530 C   0  0  0  0  0  0  0  0  0  0  0  0
   36.9130   27.1520   34.4170 N   0  0  0  0  0  0  0  0  0  0  0  0
   37.0840   26.4810   33.2490 C   0  0  0  0  0  0  0  0  0  0  0  0
   36.7060   27.0650   32.0900 N   0  0  0  0  0  0  0  0  0  0  0  0
   35.9110   28.6390   31.0800 H   0  0  0  0  0  0  0  0  0  0  0  0
   35.5380   29.9930   33.1730 H   0  0  0  0  0  0  0  0  0  0  0  0
   36.2220   28.9560   35.3650 H   0  0  0  0  0  0  0  0  0  0  0  0
   38.5640   22.6070   35.8430 C   0  0  0  0  0  3  0  0  0  0  0  0
   37.4880   23.0200   36.8070 C   0  0  0  0  0  2  0  0  0  0  0  0
   37.9850   23.9750   37.8690 C   0  0  0  0  0  2  0  0  0  0  0  0
   39.0690   23.2910   38.6350 C   0  0  0  0  0  2  0  0  0  0  0  0
   40.1720   22.7520   37.7750 C   0  0  0  0  0  2  0  0  0  0  0  0
   39.9470   22.9700   36.3110 C   0  0  0  0  0  2  0  0  0  0  0  0
  1  6  1  0  0  0  0
  2  3  1  0  0  0  0
  2  1  2  0  0  0  0
  3  4  2  0  0  0  0
  4  5  1  0  0  0  0
  5 18  1  0  0  0  0
  6  5  2  0  0  0  0
  7  2  1  0  0  0  0
  8  3  1  0  0  0  0
  9 14  2  0  0  0  0
  9 10  1  0  0  0  0
 10 11  2  0  0  0  0
 11 17  1  0  0  0  0
 12 11  1  0  0  0  0
 13  1  1  0  0  0  0
 13 12  2  0  0  0  0
 14 13  1  0  0  0  0
 15  9  1  0  0  0  0
 16 10  1  0  0  0  0
 18 23  1  0  0  0  0
 18 19  1  0  0  0  0
 19 20  1  0  0  0  0
 20 21  1  0  0  0  0
 22 21  1  0  0  0  0
 23 22  1  0  0  0  0
M  END
>  <minimizedAffinity>
-4.86092377

$$$$

 OpenBabel03262523043D

 23 25  0  0  0  0  0  0  0  0999 V2000
   37.0160   25.3610   32.4430 C   0  0  0  0  0  0  0  0  0  0  0  0
   36.1470   26.1880   31.7930 C   0  0  0  0  0  0  0  0  0  0  0  0
   35.1990   25.6540   30.9730 C   0  0  0  0  0  0  0  0  0  0  0  0
   35.1150   24.3150   30.7980 N   0  0  0  0  0  0  0  0  0  0  0  0
   35.9870   23.5140   31.4520 C   0  0  0  0  0  0  0  0  0  0  0  0
   36.9260   24.0350   32.2650 N   0  0  0  0  0  0  0  0  0  0  0  0
   36.2690   27.2350   31.9770 H   0  0  0  0  0  0  0  0  0  0  0  0
   34.5030   26.3140   30.4530 H   0  0  0  0  0  0  0  0  0  0  0  0
   40.0560   27.0030   33.6790 C   0  0  0  0  0  0  0  0  0  0  0  0
   39.9920   26.7820   35.0620 C   0  0  0  0  0  0  0  0  0  0  0  0
   38.8870   26.0610   35.5470 C   0  0  0  0  0  0  0  0  0  0  0  0
   37.9450   25.6180   34.6630 N   0  0  0  0  0  0  0  0  0  0  0  0
   38.0480   25.8570   33.3310 C   0  0  0  0  0  0  0  0  0  0  0  0
   39.1100   26.5500   32.8640 N   0  0  0  0  0  0  0  0  0  0  0  0
   40.8540   27.5430   33.1860 H   0  0  0  0  0  0  0  0  0  0  0  0
   40.7850   27.1720   35.6770 H   0  0  0  0  0  0  0  0  0  0  0  0
   38.8280   25.8850   36.6070 H   0  0  0  0  0  0  0  0  0  0  0  0
   35.8230   22.0560   31.2020 C   0  0  0  0  0  3  0  0  0  0  0  0
   34.9200   21.4840   32.2570 C   0  0  0  0  0  2  0  0  0  0  0  0
   35.6670   20.6880   33.3040 C   0  0  0  0  0  2  0  0  0  0  0  0
   36.3660   19.5610   32.6180 C   0  0  0  0  0  2  0  0  0  0  0  0
   37.2410   19.9930   31.4810 C   0  0  0  0  0  2  0  0  0  0  0  0
   37.2080   21.4700   31.2310 C   0  0  0  0  0  2  0  0  0  0  0  0
  1 13  1  0  0  0  0
  2  7  1  0  0  0  0
  2  1  2  0  0  0  0
  3  2  1  0  0  0  0
  4  3  2  0  0  0  0
  4  5  1  0  0  0  0
  5  6  2  0  0  0  0
  6  1  1  0  0  0  0
  8  3  1  0  0  0  0
  9 10  1  0  0  0  0
 10 11  2  0  0  0  0
 10 16  1  0  0  0  0
 11 17  1  0  0  0  0
 12 11  1  0  0  0  0
 13 12  2  0  0  0  0
 14 13  1  0  0  0  0
 14  9  2  0  0  0  0
 15  9  1  0  0  0  0
 18 23  1  0  0  0  0
 18  5  1  0  0  0  0
 18 19  1  0  0  0  0
 19 20  1  0  0  0  0
 21 20  1  0  0  0  0
 22 21  1  0  0  0  0
 23 22  1  0  0  0  0
M  END
>  <minimizedAffinity>
-4.85467672

$$$$
