
 OpenBabel03262522493D

 22 24  0  0  0  0  0  0  0  0999 V2000
   36.4410   25.8610   31.0740 C   0  0  0  0  0  0  0  0  0  0  0  0
   37.5320   25.0910   31.0930 C   0  0  0  0  0  0  0  0  0  0  0  0
   37.4350   23.7330   31.1460 C   0  0  0  0  0  0  0  0  0  0  0  0
   36.1620   23.2320   31.1770 C   0  0  0  0  0  0  0  0  0  0  0  0
   35.1210   24.7380   31.1300 S   0  0  0  0  0  0  0  0  0  0  0  0
   38.5240   25.5790   31.0640 H   0  0  0  0  0  0  0  0  0  0  0  0
   38.2460   23.0210   31.1650 H   0  0  0  0  0  0  0  0  0  0  0  0
   35.3980   29.2380   31.9580 C   0  0  0  0  0  0  0  0  0  0  0  0
   36.0440   30.0290   30.9700 C   0  0  0  0  0  0  0  0  0  0  0  0
   36.8360   29.3810   30.0040 C   0  0  0  0  0  0  0  0  0  0  0  0
   36.9410   28.0220   30.0700 N   0  0  0  0  0  0  0  0  0  0  0  0
   36.3140   27.3180   31.0190 C   0  0  0  0  0  0  0  0  0  0  0  0
   35.5490   27.8950   31.9610 N   0  0  0  0  0  0  0  0  0  0  0  0
   34.7800   29.6780   32.7230 H   0  0  0  0  0  0  0  0  0  0  0  0
   35.8960   31.0840   31.0080 H   0  0  0  0  0  0  0  0  0  0  0  0
   37.3280   29.9810   29.2520 H   0  0  0  0  0  0  0  0  0  0  0  0
   35.6690   21.8270   31.2360 C   0  0  0  0  0  3  0  0  0  0  0  0
   35.1720   21.5090   32.6040 C   0  0  0  0  0  2  0  0  0  0  0  0
   35.4650   20.0850   33.0130 C   0  0  0  0  0  2  0  0  0  0  0  0
   35.3400   19.1630   31.8210 C   0  0  0  0  0  2  0  0  0  0  0  0
   36.2300   19.5230   30.6770 C   0  0  0  0  0  2  0  0  0  0  0  0
   36.7950   20.9170   30.8740 C   0  0  0  0  0  2  0  0  0  0  0  0
  1  2  2  0  0  0  0
  1  5  1  0  0  0  0
  2  3  1  0  0  0  0
  3  7  1  0  0  0  0
  3  4  2  0  0  0  0
  4 17  1  0  0  0  0
  5  4  1  0  0  0  0
  6  2  1  0  0  0  0
  8 13  1  0  0  0  0
  8 14  1  0  0  0  0
  9 15  1  0  0  0  0
  9  8  2  0  0  0  0
 10 11  2  0  0  0  0
 10  9  1  0  0  0  0
 11 12  1  0  0  0  0
 12  1  1  0  0  0  0
 12 13  2  0  0  0  0
 16 10  1  0  0  0  0
 17 18  1  0  0  0  0
 18 19  1  0  0  0  0
 20 19  1  0  0  0  0
 21 22  1  0  0  0  0
 21 20  1  0  0  0  0
 22 17  1  0  0  0  0
M  END
>  <minimizedAffinity>
-4.98374796

$$$$

 OpenBabel03262522493D

 22 24  0  0  0  0  0  0  0  0999 V2000
   36.9660   27.2540   33.3190 C   0  0  0  0  0  0  0  0  0  0  0  0
   37.2710   26.0200   32.9070 C   0  0  0  0  0  0  0  0  0  0  0  0
   37.8500   25.1200   33.7500 C   0  0  0  0  0  0  0  0  0  0  0  0
   38.0890   25.5670   35.0210 C   0  0  0  0  0  0  0  0  0  0  0  0
   37.4710   27.2910   34.9770 S   0  0  0  0  0  0  0  0  0  0  0  0
   37.0420   25.7400   31.8630 H   0  0  0  0  0  0  0  0  0  0  0  0
   38.1350   24.1040   33.5230 H   0  0  0  0  0  0  0  0  0  0  0  0
   36.3590   29.7060   30.6930 C   0  0  0  0  0  0  0  0  0  0  0  0
   35.2420   30.4250   31.1960 C   0  0  0  0  0  0  0  0  0  0  0  0
   34.7090   30.0520   32.4440 C   0  0  0  0  0  0  0  0  0  0  0  0
   35.2980   29.0150   33.1060 N   0  0  0  0  0  0  0  0  0  0  0  0
   36.3490   28.3660   32.5940 C   0  0  0  0  0  0  0  0  0  0  0  0
   36.8900   28.6870   31.4070 N   0  0  0  0  0  0  0  0  0  0  0  0
   36.8090   29.9450   29.7440 H   0  0  0  0  0  0  0  0  0  0  0  0
   34.8570   31.2200   30.5980 H   0  0  0  0  0  0  0  0  0  0  0  0
   33.8590   30.5980   32.8270 H   0  0  0  0  0  0  0  0  0  0  0  0
   38.6970   24.8840   36.1970 C   0  0  0  0  0  3  0  0  0  0  0  0
   39.6350   23.8160   35.7490 C   0  0  0  0  0  2  0  0  0  0  0  0
   39.6150   22.6080   36.6550 C   0  0  0  0  0  2  0  0  0  0  0  0
   39.4300   23.0360   38.0930 C   0  0  0  0  0  2  0  0  0  0  0  0
   38.1900   23.8330   38.3370 C   0  0  0  0  0  2  0  0  0  0  0  0
   37.5980   24.2930   37.0170 C   0  0  0  0  0  2  0  0  0  0  0  0
  1  5  1  0  0  0  0
  2  1  2  0  0  0  0
  2  3  1  0  0  0  0
  3  4  2  0  0  0  0
  4 17  1  0  0  0  0
  5  4  1  0  0  0  0
  6  2  1  0  0  0  0
  7  3  1  0  0  0  0
  8  9  2  0  0  0  0
  8 13  1  0  0  0  0
  9 10  1  0  0  0  0
 10 16  1  0  0  0  0
 10 11  2  0  0  0  0
 12 11  1  0  0  0  0
 12  1  1  0  0  0  0
 13 12  2  0  0  0  0
 14  8  1  0  0  0  0
 15  9  1  0  0  0  0
 17 22  1  0  0  0  0
 18 17  1  0  0  0  0
 18 19  1  0  0  0  0
 19 20  1  0  0  0  0
 20 21  1  0  0  0  0
 22 21  1  0  0  0  0
M  END
>  <minimizedAffinity>
-4.86608362

$$$$

 OpenBabel03262522493D

 22 24  0  0  0  0  0  0  0  0999 V2000
   37.2870   27.3080   34.0230 C   0  0  0  0  0  0  0  0  0  0  0  0
   37.7190   27.4820   35.2750 C   0  0  0  0  0  0  0  0  0  0  0  0
   38.3100   26.4650   35.9640 C   0  0  0  0  0  0  0  0  0  0  0  0
   38.4230   25.2810   35.2890 C   0  0  0  0  0  0  0  0  0  0  0  0
   37.6690   25.6560   33.6620 S   0  0  0  0  0  0  0  0  0  0  0  0
   37.5900   28.4740   35.7460 H   0  0  0  0  0  0  0  0  0  0  0  0
   38.6930   26.4980   36.9730 H   0  0  0  0  0  0  0  0  0  0  0  0
   36.5090   29.1160   30.9570 C   0  0  0  0  0  0  0  0  0  0  0  0
   35.4540   29.9750   31.3660 C   0  0  0  0  0  0  0  0  0  0  0  0
   35.0220   29.9200   32.7040 C   0  0  0  0  0  0  0  0  0  0  0  0
   35.6440   29.0390   33.5400 N   0  0  0  0  0  0  0  0  0  0  0  0
   36.6340   28.2480   33.1110 C   0  0  0  0  0  0  0  0  0  0  0  0
   37.0780   28.2670   31.8430 N   0  0  0  0  0  0  0  0  0  0  0  0
   36.8810   29.1140   29.9470 H   0  0  0  0  0  0  0  0  0  0  0  0
   35.0370   30.6270   30.6320 H   0  0  0  0  0  0  0  0  0  0  0  0
   34.2200   30.5730   33.0160 H   0  0  0  0  0  0  0  0  0  0  0  0
   38.9990   23.9720   35.7070 C   0  0  0  0  0  3  0  0  0  0  0  0
   38.6460   23.6770   37.1240 C   0  0  0  0  0  2  0  0  0  0  0  0
   39.7530   22.9650   37.8630 C   0  0  0  0  0  2  0  0  0  0  0  0
   40.4620   22.0010   36.9400 C   0  0  0  0  0  2  0  0  0  0  0  0
   41.0390   22.6390   35.7190 C   0  0  0  0  0  2  0  0  0  0  0  0
   40.4830   24.0400   35.5500 C   0  0  0  0  0  2  0  0  0  0  0  0
  1  2  2  0  0  0  0
  2  6  1  0  0  0  0
  2  3  1  0  0  0  0
  3  7  1  0  0  0  0
  4 17  1  0  0  0  0
  4  3  2  0  0  0  0
  5  1  1  0  0  0  0
  5  4  1  0  0  0  0
  8  9  2  0  0  0  0
  8 13  1  0  0  0  0
  9 10  1  0  0  0  0
 10 16  1  0  0  0  0
 10 11  2  0  0  0  0
 12 11  1  0  0  0  0
 12  1  1  0  0  0  0
 13 12  2  0  0  0  0
 14  8  1  0  0  0  0
 15  9  1  0  0  0  0
 17 18  1  0  0  0  0
 18 19  1  0  0  0  0
 20 19  1  0  0  0  0
 21 20  1  0  0  0  0
 22 17  1  0  0  0  0
 22 21  1  0  0  0  0
M  END
>  <minimizedAffinity>
-4.85132885

$$$$

 OpenBabel03262522493D

 22 24  0  0  0  0  0  0  0  0999 V2000
   38.5540   25.5190   35.5250 C   0  0  0  0  0  0  0  0  0  0  0  0
   38.3520   26.7490   36.0050 C   0  0  0  0  0  0  0  0  0  0  0  0
   37.6430   27.6730   35.2990 C   0  0  0  0  0  0  0  0  0  0  0  0
   37.1640   27.2530   34.0880 C   0  0  0  0  0  0  0  0  0  0  0  0
   37.7510   25.5200   33.9890 S   0  0  0  0  0  0  0  0  0  0  0  0
   38.7730   27.0070   36.9950 H   0  0  0  0  0  0  0  0  0  0  0  0
   37.4210   28.6890   35.5920 H   0  0  0  0  0  0  0  0  0  0  0  0
   39.4310   22.8530   37.8480 C   0  0  0  0  0  0  0  0  0  0  0  0
   40.5740   22.2740   37.2350 C   0  0  0  0  0  0  0  0  0  0  0  0
   41.0320   22.8160   36.0190 C   0  0  0  0  0  0  0  0  0  0  0  0
   40.3480   23.8730   35.4940 N   0  0  0  0  0  0  0  0  0  0  0  0
   39.2750   24.3860   36.1060 C   0  0  0  0  0  0  0  0  0  0  0  0
   38.8040   23.9000   37.2670 N   0  0  0  0  0  0  0  0  0  0  0  0
   39.0350   22.4800   38.7780 H   0  0  0  0  0  0  0  0  0  0  0  0
   41.0350   21.4490   37.7300 H   0  0  0  0  0  0  0  0  0  0  0  0
   41.9010   22.3770   35.5520 H   0  0  0  0  0  0  0  0  0  0  0  0
   36.3620   27.9670   33.0550 C   0  0  0  0  0  3  0  0  0  0  0  0
   37.2120   28.2990   31.8770 C   0  0  0  0  0  2  0  0  0  0  0  0
   36.8510   29.6270   31.2560 C   0  0  0  0  0  2  0  0  0  0  0  0
   35.3570   29.8460   31.3220 C   0  0  0  0  0  2  0  0  0  0  0  0
   34.7950   29.8000   32.7060 C   0  0  0  0  0  2  0  0  0  0  0  0
   35.8160   29.2160   33.6640 C   0  0  0  0  0  2  0  0  0  0  0  0
  1  2  2  0  0  0  0
  1 12  1  0  0  0  0
  2  6  1  0  0  0  0
  3  7  1  0  0  0  0
  3  2  1  0  0  0  0
  4  3  2  0  0  0  0
  5  4  1  0  0  0  0
  5  1  1  0  0  0  0
  8 14  1  0  0  0  0
  9 15  1  0  0  0  0
  9  8  2  0  0  0  0
 10  9  1  0  0  0  0
 11 10  2  0  0  0  0
 11 12  1  0  0  0  0
 12 13  2  0  0  0  0
 13  8  1  0  0  0  0
 16 10  1  0  0  0  0
 17 22  1  0  0  0  0
 17  4  1  0  0  0  0
 18 17  1  0  0  0  0
 19 20  1  0  0  0  0
 19 18  1  0  0  0  0
 20 21  1  0  0  0  0
 21 22  1  0  0  0  0
M  END
>  <minimizedAffinity>
-4.83169794

$$$$

 OpenBabel03262522493D

 22 24  0  0  0  0  0  0  0  0999 V2000
   35.9500   26.0200   31.2740 C   0  0  0  0  0  0  0  0  0  0  0  0
   34.8900   25.2880   30.9200 C   0  0  0  0  0  0  0  0  0  0  0  0
   34.8740   23.9380   31.1030 C   0  0  0  0  0  0  0  0  0  0  0  0
   36.0000   23.4030   31.6660 C   0  0  0  0  0  0  0  0  0  0  0  0
   37.0720   24.8670   31.9220 S   0  0  0  0  0  0  0  0  0  0  0  0
   34.0190   25.8010   30.4720 H   0  0  0  0  0  0  0  0  0  0  0  0
   34.0750   23.2560   30.8550 H   0  0  0  0  0  0  0  0  0  0  0  0
   37.3660   29.1840   30.1540 C   0  0  0  0  0  0  0  0  0  0  0  0
   36.6480   30.1340   30.9300 C   0  0  0  0  0  0  0  0  0  0  0  0
   35.6780   29.6670   31.8360 C   0  0  0  0  0  0  0  0  0  0  0  0
   35.4800   28.3200   31.9210 N   0  0  0  0  0  0  0  0  0  0  0  0
   36.1790   27.4610   31.1700 C   0  0  0  0  0  0  0  0  0  0  0  0
   37.1140   27.8630   30.2920 N   0  0  0  0  0  0  0  0  0  0  0  0
   38.1190   29.4830   29.4450 H   0  0  0  0  0  0  0  0  0  0  0  0
   36.8810   31.1650   30.7870 H   0  0  0  0  0  0  0  0  0  0  0  0
   35.1320   30.3880   32.4260 H   0  0  0  0  0  0  0  0  0  0  0  0
   36.3430   21.9950   32.0120 C   0  0  0  0  0  3  0  0  0  0  0  0
   36.8020   21.2590   30.8000 C   0  0  0  0  0  2  0  0  0  0  0  0
   36.3600   19.8160   30.7950 C   0  0  0  0  0  2  0  0  0  0  0  0
   36.3890   19.2540   32.1980 C   0  0  0  0  0  2  0  0  0  0  0  0
   35.5430   20.0070   33.1730 C   0  0  0  0  0  2  0  0  0  0  0  0
   35.1270   21.3410   32.5810 C   0  0  0  0  0  2  0  0  0  0  0  0
  1  5  1  0  0  0  0
  2  3  1  0  0  0  0
  2  1  2  0  0  0  0
  3  4  2  0  0  0  0
  4  5  1  0  0  0  0
  4 17  1  0  0  0  0
  6  2  1  0  0  0  0
  7  3  1  0  0  0  0
  8 13  2  0  0  0  0
  8  9  1  0  0  0  0
  9 10  2  0  0  0  0
 10 11  1  0  0  0  0
 10 16  1  0  0  0  0
 12  1  1  0  0  0  0
 12 11  2  0  0  0  0
 13 12  1  0  0  0  0
 14  8  1  0  0  0  0
 15  9  1  0  0  0  0
 17 22  1  0  0  0  0
 18 17  1  0  0  0  0
 19 18  1  0  0  0  0
 19 20  1  0  0  0  0
 20 21  1  0  0  0  0
 22 21  1  0  0  0  0
M  END
>  <minimizedAffinity>
-4.80696774

$$$$

 OpenBabel03262522493D

 22 24  0  0  0  0  0  0  0  0999 V2000
   38.0060   25.6780   35.0540 C   0  0  0  0  0  0  0  0  0  0  0  0
   37.2980   26.8040   35.1790 C   0  0  0  0  0  0  0  0  0  0  0  0
   36.9680   27.5540   34.0900 C   0  0  0  0  0  0  0  0  0  0  0  0
   37.4080   27.0740   32.8870 C   0  0  0  0  0  0  0  0  0  0  0  0
   38.2960   25.5410   33.3500 S   0  0  0  0  0  0  0  0  0  0  0  0
   36.9800   27.1190   36.1900 H   0  0  0  0  0  0  0  0  0  0  0  0
   36.4030   28.4730   34.0780 H   0  0  0  0  0  0  0  0  0  0  0  0
   39.9500   23.0350   36.6380 C   0  0  0  0  0  0  0  0  0  0  0  0
   39.3640   22.9550   37.9300 C   0  0  0  0  0  0  0  0  0  0  0  0
   38.2970   23.8190   38.2390 C   0  0  0  0  0  0  0  0  0  0  0  0
   37.8820   24.6920   37.2770 N   0  0  0  0  0  0  0  0  0  0  0  0
   38.4650   24.7330   36.0730 C   0  0  0  0  0  0  0  0  0  0  0  0
   39.4850   23.9270   35.7340 N   0  0  0  0  0  0  0  0  0  0  0  0
   40.7680   22.4000   36.3440 H   0  0  0  0  0  0  0  0  0  0  0  0
   39.7640   22.2360   38.6090 H   0  0  0  0  0  0  0  0  0  0  0  0
   37.8510   23.7590   39.2210 H   0  0  0  0  0  0  0  0  0  0  0  0
   37.2450   27.6090   31.5060 C   0  0  0  0  0  3  0  0  0  0  0  0
   38.5190   27.4740   30.7440 C   0  0  0  0  0  2  0  0  0  0  0  0
   38.7590   28.6300   29.8030 C   0  0  0  0  0  2  0  0  0  0  0  0
   37.4520   29.1000   29.2070 C   0  0  0  0  0  2  0  0  0  0  0  0
   36.4340   29.5140   30.2200 C   0  0  0  0  0  2  0  0  0  0  0  0
   36.8540   29.0470   31.6010 C   0  0  0  0  0  2  0  0  0  0  0  0
  1  2  2  0  0  0  0
  1 12  1  0  0  0  0
  2  6  1  0  0  0  0
  3  2  1  0  0  0  0
  4  5  1  0  0  0  0
  4  3  2  0  0  0  0
  5  1  1  0  0  0  0
  7  3  1  0  0  0  0
  8  9  1  0  0  0  0
  9 10  2  0  0  0  0
  9 15  1  0  0  0  0
 10 16  1  0  0  0  0
 11 10  1  0  0  0  0
 12 11  2  0  0  0  0
 13 12  1  0  0  0  0
 13  8  2  0  0  0  0
 14  8  1  0  0  0  0
 17 22  1  0  0  0  0
 17  4  1  0  0  0  0
 18 17  1  0  0  0  0
 19 18  1  0  0  0  0
 20 19  1  0  0  0  0
 20 21  1  0  0  0  0
 21 22  1  0  0  0  0
M  END
>  <minimizedAffinity>
-4.76390457

$$$$

 OpenBabel03262522493D

 22 24  0  0  0  0  0  0  0  0999 V2000
   38.1190   25.2350   34.9320 C   0  0  0  0  0  0  0  0  0  0  0  0
   37.7650   24.8420   33.7050 C   0  0  0  0  0  0  0  0  0  0  0  0
   37.3940   25.7460   32.7550 C   0  0  0  0  0  0  0  0  0  0  0  0
   37.4120   27.0560   33.1470 C   0  0  0  0  0  0  0  0  0  0  0  0
   37.9670   26.9620   34.8900 S   0  0  0  0  0  0  0  0  0  0  0  0
   37.7800   23.7610   33.4710 H   0  0  0  0  0  0  0  0  0  0  0  0
   37.0930   25.5380   31.7400 H   0  0  0  0  0  0  0  0  0  0  0  0
   38.1700   23.8760   38.3120 C   0  0  0  0  0  0  0  0  0  0  0  0
   39.2910   23.0040   38.2760 C   0  0  0  0  0  0  0  0  0  0  0  0
   40.0210   22.8960   37.0770 C   0  0  0  0  0  0  0  0  0  0  0  0
   39.6090   23.6390   36.0100 N   0  0  0  0  0  0  0  0  0  0  0  0
   38.5460   24.4470   36.0890 C   0  0  0  0  0  0  0  0  0  0  0  0
   37.8210   24.5810   37.2120 N   0  0  0  0  0  0  0  0  0  0  0  0
   37.5740   23.9980   39.2000 H   0  0  0  0  0  0  0  0  0  0  0  0
   39.5280   22.4680   39.1670 H   0  0  0  0  0  0  0  0  0  0  0  0
   40.8730   22.2340   37.0490 H   0  0  0  0  0  0  0  0  0  0  0  0
   37.0770   28.3020   32.4010 C   0  0  0  0  0  3  0  0  0  0  0  0
   35.9310   29.0020   33.0480 C   0  0  0  0  0  2  0  0  0  0  0  0
   35.0150   29.6650   32.0470 C   0  0  0  0  0  2  0  0  0  0  0  0
   35.8170   30.2220   30.8930 C   0  0  0  0  0  2  0  0  0  0  0  0
   36.6450   29.2040   30.1790 C   0  0  0  0  0  2  0  0  0  0  0  0
   36.7260   27.9300   30.9980 C   0  0  0  0  0  2  0  0  0  0  0  0
  1 12  1  0  0  0  0
  2  1  2  0  0  0  0
  3  4  2  0  0  0  0
  3  2  1  0  0  0  0
  4  5  1  0  0  0  0
  5  1  1  0  0  0  0
  6  2  1  0  0  0  0
  7  3  1  0  0  0  0
  8 14  1  0  0  0  0
  9  8  1  0  0  0  0
  9 15  1  0  0  0  0
 10  9  2  0  0  0  0
 11 12  2  0  0  0  0
 11 10  1  0  0  0  0
 12 13  1  0  0  0  0
 13  8  2  0  0  0  0
 16 10  1  0  0  0  0
 17 18  1  0  0  0  0
 17  4  1  0  0  0  0
 19 18  1  0  0  0  0
 20 19  1  0  0  0  0
 21 20  1  0  0  0  0
 21 22  1  0  0  0  0
 22 17  1  0  0  0  0
M  END
>  <minimizedAffinity>
-4.69754219

$$$$

 OpenBabel03262522493D

 22 24  0  0  0  0  0  0  0  0999 V2000
   37.8170   27.2170   32.8390 C   0  0  0  0  0  0  0  0  0  0  0  0
   36.9850   27.3900   33.8690 C   0  0  0  0  0  0  0  0  0  0  0  0
   37.1890   26.7490   35.0550 C   0  0  0  0  0  0  0  0  0  0  0  0
   38.2860   25.9340   35.1050 C   0  0  0  0  0  0  0  0  0  0  0  0
   39.0100   26.1060   33.4310 S   0  0  0  0  0  0  0  0  0  0  0  0
   36.1210   28.0690   33.7440 H   0  0  0  0  0  0  0  0  0  0  0  0
   36.5830   26.8180   35.9450 H   0  0  0  0  0  0  0  0  0  0  0  0
   38.7160   27.8370   29.3630 C   0  0  0  0  0  0  0  0  0  0  0  0
   37.7830   28.8360   28.9770 C   0  0  0  0  0  0  0  0  0  0  0  0
   36.8480   29.2870   29.9290 C   0  0  0  0  0  0  0  0  0  0  0  0
   36.8910   28.7360   31.1760 N   0  0  0  0  0  0  0  0  0  0  0  0
   37.7880   27.7960   31.4950 C   0  0  0  0  0  0  0  0  0  0  0  0
   38.6980   27.3370   30.6190 N   0  0  0  0  0  0  0  0  0  0  0  0
   39.4540   27.4540   28.6780 H   0  0  0  0  0  0  0  0  0  0  0  0
   37.8350   29.2000   27.9760 H   0  0  0  0  0  0  0  0  0  0  0  0
   36.1380   30.0460   29.6360 H   0  0  0  0  0  0  0  0  0  0  0  0
   38.8220   25.0870   36.2080 C   0  0  0  0  0  3  0  0  0  0  0  0
   39.7670   24.0690   35.6680 C   0  0  0  0  0  2  0  0  0  0  0  0
   39.6830   22.7520   36.4010 C   0  0  0  0  0  2  0  0  0  0  0  0
   39.4280   22.9870   37.8720 C   0  0  0  0  0  2  0  0  0  0  0  0
   38.1890   23.7710   38.1580 C   0  0  0  0  0  2  0  0  0  0  0  0
   37.6740   24.4150   36.8850 C   0  0  0  0  0  2  0  0  0  0  0  0
  1  5  1  0  0  0  0
  1  2  2  0  0  0  0
  2  3  1  0  0  0  0
  3  4  2  0  0  0  0
  3  7  1  0  0  0  0
  4 17  1  0  0  0  0
  5  4  1  0  0  0  0
  6  2  1  0  0  0  0
  8 13  1  0  0  0  0
  9  8  2  0  0  0  0
  9 10  1  0  0  0  0
 10 11  2  0  0  0  0
 11 12  1  0  0  0  0
 12  1  1  0  0  0  0
 13 12  2  0  0  0  0
 14  8  1  0  0  0  0
 15  9  1  0  0  0  0
 16 10  1  0  0  0  0
 17 22  1  0  0  0  0
 18 17  1  0  0  0  0
 18 19  1  0  0  0  0
 19 20  1  0  0  0  0
 20 21  1  0  0  0  0
 22 21  1  0  0  0  0
M  END
>  <minimizedAffinity>
-4.65646029

$$$$

 OpenBabel03262522493D

 22 24  0  0  0  0  0  0  0  0999 V2000
   36.7920   27.0100   32.9090 C   0  0  0  0  0  0  0  0  0  0  0  0
   37.0580   27.1840   34.2060 C   0  0  0  0  0  0  0  0  0  0  0  0
   36.6070   28.2810   34.8770 C   0  0  0  0  0  0  0  0  0  0  0  0
   35.8760   29.1680   34.1350 C   0  0  0  0  0  0  0  0  0  0  0  0
   35.8540   28.4010   32.4720 S   0  0  0  0  0  0  0  0  0  0  0  0
   37.6560   26.4160   34.7310 H   0  0  0  0  0  0  0  0  0  0  0  0
   36.7630   28.5180   35.9180 H   0  0  0  0  0  0  0  0  0  0  0  0
   38.6950   25.1210   30.4410 C   0  0  0  0  0  0  0  0  0  0  0  0
   37.9290   23.9320   30.3070 C   0  0  0  0  0  0  0  0  0  0  0  0
   36.7570   23.7970   31.0740 C   0  0  0  0  0  0  0  0  0  0  0  0
   36.4190   24.8210   31.9100 N   0  0  0  0  0  0  0  0  0  0  0  0
   37.1710   25.9230   32.0050 C   0  0  0  0  0  0  0  0  0  0  0  0
   38.2960   26.0940   31.2920 N   0  0  0  0  0  0  0  0  0  0  0  0
   39.6000   25.2810   29.8800 H   0  0  0  0  0  0  0  0  0  0  0  0
   38.2820   23.1930   29.6240 H   0  0  0  0  0  0  0  0  0  0  0  0
   36.1740   22.8930   30.9730 H   0  0  0  0  0  0  0  0  0  0  0  0
   35.2310   30.4570   34.5140 C   0  0  0  0  0  3  0  0  0  0  0  0
   36.0040   31.1250   35.5990 C   0  0  0  0  0  2  0  0  0  0  0  0
   35.1170   31.8500   36.5830 C   0  0  0  0  0  2  0  0  0  0  0  0
   33.9380   32.4680   35.8670 C   0  0  0  0  0  2  0  0  0  0  0  0
   33.1040   31.4880   35.1080 C   0  0  0  0  0  2  0  0  0  0  0  0
   33.8410   30.1680   34.9770 C   0  0  0  0  0  2  0  0  0  0  0  0
  1  2  2  0  0  0  0
  2  6  1  0  0  0  0
  2  3  1  0  0  0  0
  3  7  1  0  0  0  0
  4 17  1  0  0  0  0
  4  3  2  0  0  0  0
  5  1  1  0  0  0  0
  5  4  1  0  0  0  0
  8 13  1  0  0  0  0
  9  8  2  0  0  0  0
  9 10  1  0  0  0  0
 10 11  2  0  0  0  0
 11 12  1  0  0  0  0
 12  1  1  0  0  0  0
 13 12  2  0  0  0  0
 14  8  1  0  0  0  0
 15  9  1  0  0  0  0
 16 10  1  0  0  0  0
 17 22  1  0  0  0  0
 17 18  1  0  0  0  0
 18 19  1  0  0  0  0
 20 19  1  0  0  0  0
 21 20  1  0  0  0  0
 22 21  1  0  0  0  0
M  END
>  <minimizedAffinity>
-4.61201334

$$$$
