
 OpenBabel03272506523D

 31 33  0  0  1  0  0  0  0  0999 V2000
   34.6750   30.4530   48.7430 C   0  0  1  0  0  0  0  0  0  0  0  0
   33.8660   30.3270   47.5250 C   0  0  0  0  0  0  0  0  0  0  0  0
   33.7960   28.9650   46.8930 C   0  0  0  0  0  0  0  0  0  0  0  0
   33.7100   27.8480   47.8550 C   0  0  2  0  0  0  0  0  0  0  0  0
   34.5520   27.9370   49.0870 C   0  0  0  0  0  0  0  0  0  0  0  0
   34.4990   29.3080   49.6930 C   0  0  0  0  0  0  0  0  0  0  0  0
   34.2740   31.3420   49.3320 H   0  0  0  0  0  0  0  0  0  0  0  0
   32.7920   30.4800   47.8750 H   0  0  0  0  0  0  0  0  0  0  0  0
   33.9950   31.1170   46.7990 H   0  0  0  0  0  0  0  0  0  0  0  0
   32.9180   28.9240   46.2240 H   0  0  0  0  0  0  0  0  0  0  0  0
   34.7240   28.8550   46.2870 H   0  0  0  0  0  0  0  0  0  0  0  0
   32.6500   27.8090   48.2150 H   0  0  0  0  0  0  0  0  0  0  0  0
   34.1310   27.2440   49.8470 H   0  0  0  0  0  0  0  0  0  0  0  0
   35.6020   27.6660   48.9760 H   0  0  0  0  0  0  0  0  0  0  0  0
   33.4420   29.3900   50.1100 H   0  0  0  0  0  0  0  0  0  0  0  0
   35.1350   29.3450   50.5680 H   0  0  0  0  0  0  0  0  0  0  0  0
   36.7660   30.6360   47.3300 C   0  0  0  0  0  0  0  0  0  0  0  0
   36.0950   30.8270   48.5390 C   0  0  0  0  0  0  0  0  0  0  0  0
   36.8150   31.4010   49.5660 C   0  0  0  0  0  0  0  0  0  0  0  0
   38.1140   31.7500   49.3680 N   0  0  0  0  0  0  0  0  0  0  0  0
   38.7250   31.5480   48.1740 C   0  0  0  0  0  0  0  0  0  0  0  0
   38.0490   30.9830   47.1370 N   0  0  0  0  0  0  0  0  0  0  0  0
   36.2740   30.1920   46.4770 H   0  0  0  0  0  0  0  0  0  0  0  0
   36.4820   31.6300   50.5550 H   0  0  0  0  0  0  0  0  0  0  0  0
   39.7600   31.8350   48.0460 H   0  0  0  0  0  0  0  0  0  0  0  0
   33.9750   26.5400   47.1400 C   0  0  0  0  0  0  0  0  0  0  0  0
   33.8750   26.6490   45.6470 C   0  0  0  0  0  0  0  0  0  0  0  0
   34.4590   25.3810   45.0540 C   0  0  0  0  0  0  0  0  0  0  0  0
   34.5310   24.2440   46.0190 C   0  0  0  0  0  0  0  0  0  0  0  0
   33.2660   24.1860   46.8630 C   0  0  0  0  0  0  0  0  0  0  0  0
   33.1050   25.4300   47.6700 C   0  0  0  0  0  0  0  0  0  0  0  0
  1  7  1  1  0  0  0
  1  6  1  0  0  0  0
  2  8  1  0  0  0  0
  2  1  1  0  0  0  0
  3  2  1  0  0  0  0
  3  4  1  0  0  0  0
  4 12  1  1  0  0  0
  4  5  1  0  0  0  0
  5  6  1  0  0  0  0
  5 13  1  0  0  0  0
  6 15  1  0  0  0  0
  6 16  1  0  0  0  0
  9  2  1  0  0  0  0
 10  3  1  0  0  0  0
 11  3  1  0  0  0  0
 14  5  1  0  0  0  0
 17 18  1  0  0  0  0
 18  1  1  0  0  0  0
 18 19  2  0  0  0  0
 19 24  1  0  0  0  0
 20 19  1  0  0  0  0
 21 20  2  0  0  0  0
 22 17  2  0  0  0  0
 22 21  1  0  0  0  0
 23 17  1  0  0  0  0
 25 21  1  0  0  0  0
 26 31  1  0  0  0  0
 26  4  1  0  0  0  0
 27 26  1  0  0  0  0
 28 27  1  0  0  0  0
 28 29  1  0  0  0  0
 29 30  1  0  0  0  0
 30 31  1  0  0  0  0
M  END
>  <minimizedAffinity>
-5.00699234

>  <minimizedRMSD>
1.65603173

$$$$
