
 OpenBabel03272504283D

 39 42  0  0  0  0  0  0  0  0999 V2000
   34.2320   28.8470   48.0150 C   0  0  0  0  0  0  0  0  0  0  0  0
   34.1980   27.5210   48.2650 C   0  0  0  0  0  0  0  0  0  0  0  0
   33.2050   26.7570   47.7900 C   0  0  0  0  0  0  0  0  0  0  0  0
   32.2250   27.3350   47.0490 N   0  0  0  0  0  0  0  0  0  0  0  0
   32.2670   28.6400   46.8090 C   0  0  0  0  0  0  0  0  0  0  0  0
   33.2570   29.4080   47.2810 N   0  0  0  0  0  0  0  0  0  0  0  0
   35.0200   27.1430   48.8640 H   0  0  0  0  0  0  0  0  0  0  0  0
   33.2030   25.6950   48.0060 H   0  0  0  0  0  0  0  0  0  0  0  0
   29.8770   29.1000   46.4750 C   0  0  0  0  0  0  0  0  0  0  0  0
   31.1870   29.1410   45.9920 C   0  0  0  0  0  0  0  0  0  0  0  0
   31.5360   29.6170   44.7440 C   0  0  0  0  0  0  0  0  0  0  0  0
   30.5520   30.0850   43.9030 C   0  0  0  0  0  0  0  0  0  0  0  0
   29.2310   30.0810   44.2930 C   0  0  0  0  0  0  0  0  0  0  0  0
   28.9800   29.5960   45.5360 C   0  0  0  0  0  0  0  0  0  0  0  0
   32.5640   29.6310   44.4110 H   0  0  0  0  0  0  0  0  0  0  0  0
   30.8330   30.4540   42.9310 H   0  0  0  0  0  0  0  0  0  0  0  0
   28.4610   30.4390   43.6530 H   0  0  0  0  0  0  0  0  0  0  0  0
   27.9220   29.5990   45.8370 H   0  0  0  0  0  0  0  0  0  0  0  0
   29.4200   28.5560   47.9800 S   0  0  0  0  0  0  0  0  0  0  0  0
   28.8320   27.1850   47.5130 O   0  0  0  0  0  0  0  0  0  0  0  0
   28.2820   29.4310   48.4430 O   0  0  0  0  0  0  0  0  0  0  0  0
   29.7250   27.8830   49.3950 C   0  0  0  0  0  0  0  0  0  0  0  0
   29.1860   26.6530   49.8380 F   0  0  0  0  0  0  0  0  0  0  0  0
   28.9670   28.5760   50.4470 F   0  0  0  0  0  0  0  0  0  0  0  0
   30.8910   28.2000   50.1410 F   0  0  0  0  0  0  0  0  0  0  0  0
   36.5200   30.6970   50.2200 C   0  0  0  0  0  0  0  0  0  0  0  0
   37.3350   31.3780   49.2960 C   0  0  0  0  0  0  0  0  0  0  0  0
   37.0860   31.1930   47.9420 C   0  0  0  0  0  0  0  0  0  0  0  0
   36.0700   30.3620   47.6050 N   0  0  0  0  0  0  0  0  0  0  0  0
   35.2930   29.7130   48.5100 C   0  0  0  0  0  0  0  0  0  0  0  0
   35.5300   29.8890   49.8120 N   0  0  0  0  0  0  0  0  0  0  0  0
   36.6950   30.8270   51.2790 H   0  0  0  0  0  0  0  0  0  0  0  0
   38.1290   32.0270   49.5890 H   0  0  0  0  0  0  0  0  0  0  0  0
   37.8680   31.8490   46.8600 C   0  0  0  0  0  0  0  0  0  0  0  0
   39.0910   32.5510   47.3970 C   0  0  0  0  0  0  0  0  0  0  0  0
   39.9060   33.0620   46.2290 C   0  0  0  0  0  0  0  0  0  0  0  0
   40.2690   31.9410   45.2750 C   0  0  0  0  0  0  0  0  0  0  0  0
   39.7060   30.6250   45.8270 C   0  0  0  0  0  0  0  0  0  0  0  0
   38.1940   30.7850   45.8390 C   0  0  0  0  0  0  0  0  0  0  0  0
  1  2  1  0  0  0  0
  1 30  1  0  0  0  0
  2  7  1  0  0  0  0
  3  8  1  0  0  0  0
  3  2  2  0  0  0  0
  4  3  1  0  0  0  0
  5  4  2  0  0  0  0
  5  6  1  0  0  0  0
  6  1  2  0  0  0  0
  9 19  1  0  0  0  0
 10  9  1  0  0  0  0
 10  5  1  0  0  0  0
 11 10  2  0  0  0  0
 12 13  2  0  0  0  0
 12 11  1  0  0  0  0
 13 14  1  0  0  0  0
 14 18  1  0  0  0  0
 14  9  2  0  0  0  0
 15 11  1  0  0  0  0
 16 12  1  0  0  0  0
 17 13  1  0  0  0  0
 19 21  2  0  0  0  0
 19 22  1  0  0  0  0
 20 19  2  0  0  0  0
 22 23  1  0  0  0  0
 22 25  1  0  0  0  0
 22 24  1  0  0  0  0
 26 32  1  0  0  0  0
 27 33  1  0  0  0  0
 27 26  2  0  0  0  0
 28 27  1  0  0  0  0
 29 28  2  0  0  0  0
 29 30  1  0  0  0  0
 30 31  2  0  0  0  0
 31 26  1  0  0  0  0
 34 35  1  0  0  0  0
 34 28  1  0  0  0  0
 36 35  1  0  0  0  0
 37 38  1  0  0  0  0
 37 36  1  0  0  0  0
 38 39  1  0  0  0  0
 39 34  1  0  0  0  0
M  END
>  <minimizedAffinity>
-6.96107435

>  <minimizedRMSD>
2.23978424

$$$$
