
 OpenBabel03272503203D

 32 35  0  0  0  0  0  0  0  0999 V2000
   37.8860   31.1730   47.5140 C   0  0  0  0  0  0  0  0  0  0  0  0
   38.8550   32.0890   47.3620 C   0  0  0  0  0  0  0  0  0  0  0  0
   39.1940   32.5030   46.1370 C   0  0  0  0  0  0  0  0  0  0  0  0
   38.5190   31.9580   45.0620 C   0  0  0  0  0  0  0  0  0  0  0  0
   37.3610   30.8120   45.8850 S   0  0  0  0  0  0  0  0  0  0  0  0
   39.3420   32.4730   48.2610 H   0  0  0  0  0  0  0  0  0  0  0  0
   39.9490   33.2300   45.8640 H   0  0  0  0  0  0  0  0  0  0  0  0
   40.9090   30.5950   43.7300 Cl  0  0  0  0  0  0  0  0  0  0  0  0
   39.6450   31.5500   42.9680 C   0  0  0  0  0  0  0  0  0  0  0  0
   38.5910   32.1370   43.6390 C   0  0  0  0  0  0  0  0  0  0  0  0
   37.6120   32.8700   43.0870 C   0  0  0  0  0  0  0  0  0  0  0  0
   37.6230   33.0800   41.7110 C   0  0  0  0  0  0  0  0  0  0  0  0
   38.6490   32.5210   40.9660 C   0  0  0  0  0  0  0  0  0  0  0  0
   38.7530   32.7280   39.2300 Cl  0  0  0  0  0  0  0  0  0  0  0  0
   39.6550   31.7620   41.5840 C   0  0  0  0  0  0  0  0  0  0  0  0
   36.7970   33.3190   43.6410 H   0  0  0  0  0  0  0  0  0  0  0  0
   36.8660   33.6590   41.2000 H   0  0  0  0  0  0  0  0  0  0  0  0
   40.4500   31.3320   40.9860 H   0  0  0  0  0  0  0  0  0  0  0  0
   37.1990   30.1960   51.0900 C   0  0  0  0  0  0  0  0  0  0  0  0
   37.8150   30.8470   49.9920 C   0  0  0  0  0  0  0  0  0  0  0  0
   37.3220   30.5540   48.7190 C   0  0  0  0  0  0  0  0  0  0  0  0
   36.3060   29.6870   48.5780 N   0  0  0  0  0  0  0  0  0  0  0  0
   35.7450   29.0860   49.6540 C   0  0  0  0  0  0  0  0  0  0  0  0
   36.1890   29.3410   50.8860 N   0  0  0  0  0  0  0  0  0  0  0  0
   37.5760   30.4170   52.0850 H   0  0  0  0  0  0  0  0  0  0  0  0
   38.6260   31.5390   50.0930 H   0  0  0  0  0  0  0  0  0  0  0  0
   34.6160   28.1330   49.3970 C   0  0  0  0  0  0  0  0  0  0  0  0
   33.3120   28.7740   49.7860 C   0  0  0  0  0  0  0  0  0  0  0  0
   32.1170   28.1300   49.1580 C   0  0  0  0  0  0  0  0  0  0  0  0
   32.1750   28.0420   47.6670 C   0  0  0  0  0  0  0  0  0  0  0  0
   33.5200   28.5870   47.2300 C   0  0  0  0  0  0  0  0  0  0  0  0
   34.5600   27.7350   47.9400 C   0  0  0  0  0  0  0  0  0  0  0  0
  1 21  1  0  0  0  0
  2  1  2  0  0  0  0
  2  6  1  0  0  0  0
  3  2  1  0  0  0  0
  4  5  1  0  0  0  0
  4  3  2  0  0  0  0
  5  1  1  0  0  0  0
  7  3  1  0  0  0  0
  9 10  1  0  0  0  0
  9  8  1  0  0  0  0
 10  4  1  0  0  0  0
 11 10  2  0  0  0  0
 11 16  1  0  0  0  0
 12 11  1  0  0  0  0
 13 15  1  0  0  0  0
 13 12  2  0  0  0  0
 14 13  1  0  0  0  0
 15  9  2  0  0  0  0
 17 12  1  0  0  0  0
 18 15  1  0  0  0  0
 19 25  1  0  0  0  0
 20 26  1  0  0  0  0
 20 19  2  0  0  0  0
 21 20  1  0  0  0  0
 22 21  2  0  0  0  0
 22 23  1  0  0  0  0
 23 24  2  0  0  0  0
 24 19  1  0  0  0  0
 27 23  1  0  0  0  0
 27 28  1  0  0  0  0
 29 28  1  0  0  0  0
 30 29  1  0  0  0  0
 31 30  1  0  0  0  0
 31 32  1  0  0  0  0
 32 27  1  0  0  0  0
M  END
>  <minimizedAffinity>
-6.11856365

>  <minimizedRMSD>
1.12454426

$$$$
