
 OpenBabel03272508063D

 32 35  0  0  0  0  0  0  0  0999 V2000
   38.8870   30.8820   45.7630 C   0  0  0  0  0  0  0  0  0  0  0  0
   40.1260   31.4210   46.0540 C   0  0  0  0  0  0  0  0  0  0  0  0
   40.9520   31.4020   44.9240 C   0  0  0  0  0  0  0  0  0  0  0  0
   40.1640   30.8450   43.9900 N   0  0  0  0  0  0  0  0  0  0  0  0
   38.9620   30.5410   44.4730 N   0  0  0  0  0  0  0  0  0  0  0  0
   40.4600   31.8190   47.0180 H   0  0  0  0  0  0  0  0  0  0  0  0
   41.9600   31.7300   44.7700 H   0  0  0  0  0  0  0  0  0  0  0  0
   37.7750   30.7360   46.6830 C   0  0  0  0  0  0  0  0  0  0  0  0
   37.9970   30.9610   48.0560 C   0  0  0  0  0  0  0  0  0  0  0  0
   36.9180   30.8180   48.9220 C   0  0  0  0  0  0  0  0  0  0  0  0
   35.7070   30.4690   48.3920 N   0  0  0  0  0  0  0  0  0  0  0  0
   35.5160   30.2580   47.0670 C   0  0  0  0  0  0  0  0  0  0  0  0
   36.5600   30.3960   46.2230 N   0  0  0  0  0  0  0  0  0  0  0  0
   38.9660   31.2350   48.4460 H   0  0  0  0  0  0  0  0  0  0  0  0
   34.5330   29.9860   46.7160 H   0  0  0  0  0  0  0  0  0  0  0  0
   37.1210   31.0470   50.3750 C   0  0  0  0  0  0  0  0  0  0  0  0
   36.6050   32.2920   50.6350 F   0  0  0  0  0  0  0  0  0  0  0  0
   36.4580   30.1090   51.1660 F   0  0  0  0  0  0  0  0  0  0  0  0
   38.4730   31.0620   50.7080 F   0  0  0  0  0  0  0  0  0  0  0  0
   40.4730   30.5600   42.5830 C   0  0  0  0  0  0  0  0  0  0  0  0
   39.9790   31.3610   41.5410 C   0  0  0  0  0  0  0  0  0  0  0  0
   40.2790   31.0610   40.2720 C   0  0  0  0  0  0  0  0  0  0  0  0
   41.1010   29.9270   39.9930 C   0  0  0  0  0  0  0  0  0  0  0  0
   41.4380   29.2830   41.7120 S   0  0  0  0  0  0  0  0  0  0  0  0
   39.3490   32.2330   41.7300 H   0  0  0  0  0  0  0  0  0  0  0  0
   39.9870   31.5630   39.3610 H   0  0  0  0  0  0  0  0  0  0  0  0
   41.6130   29.3180   38.8310 C   0  0  0  0  0  3  0  0  0  0  0  0
   42.1830   30.3740   37.9430 C   0  0  0  0  0  2  0  0  0  0  0  0
   43.7130   30.3530   37.9660 C   0  0  0  0  0  2  0  0  0  0  0  0
   44.1070   29.0350   37.2920 C   0  0  0  0  0  2  0  0  0  0  0  0
   43.4960   27.8640   38.0250 C   0  0  0  0  0  2  0  0  0  0  0  0
   42.6640   28.2940   39.2030 C   0  0  0  0  0  2  0  0  0  0  0  0
  1  2  1  0  0  0  0
  1  8  1  0  0  0  0
  2  6  1  0  0  0  0
  3  2  2  0  0  0  0
  4  5  1  0  0  0  0
  4  3  1  0  0  0  0
  5  1  2  0  0  0  0
  7  3  1  0  0  0  0
  8  9  1  0  0  0  0
  9 14  1  0  0  0  0
  9 10  2  0  0  0  0
 10 16  1  0  0  0  0
 11 10  1  0  0  0  0
 12 11  2  0  0  0  0
 13  8  2  0  0  0  0
 13 12  1  0  0  0  0
 15 12  1  0  0  0  0
 16 17  1  0  0  0  0
 16 19  1  0  0  0  0
 16 18  1  0  0  0  0
 20  4  1  0  0  0  0
 21 25  1  0  0  0  0
 21 20  2  0  0  0  0
 22 21  1  0  0  0  0
 23 22  2  0  0  0  0
 23 24  1  0  0  0  0
 24 20  1  0  0  0  0
 26 22  1  0  0  0  0
 27 32  1  0  0  0  0
 27 23  1  0  0  0  0
 28 29  1  0  0  0  0
 28 27  1  0  0  0  0
 30 29  1  0  0  0  0
 30 31  1  0  0  0  0
 31 32  1  0  0  0  0
M  END
>  <minimizedAffinity>
-6.25604391

>  <minimizedRMSD>
0.307221174

$$$$
