
 OpenBabel03272510273D

 42 46  0  0  1  0  0  0  0  0999 V2000
   35.9480   30.1210   46.9470 C   0  0  0  0  0  0  0  0  0  0  0  0
   36.8880   30.6980   47.7970 C   0  0  0  0  0  0  0  0  0  0  0  0
   37.8620   31.5750   47.3170 C   0  0  0  0  0  0  0  0  0  0  0  0
   37.8330   31.8310   45.9530 C   0  0  0  0  0  0  0  0  0  0  0  0
   38.6780   32.6470   45.2510 N   0  0  0  0  0  0  0  0  0  0  0  0
   38.2750   32.5830   43.9690 C   0  0  0  0  0  0  0  0  0  0  0  0
   37.2410   31.7810   43.8480 N   0  0  0  0  0  0  0  0  0  0  0  0
   36.9230   31.2820   45.0730 C   0  0  0  0  0  0  0  0  0  0  0  0
   35.9590   30.4070   45.5870 C   0  0  0  0  0  0  0  0  0  0  0  0
   35.2030   29.4510   47.3100 H   0  0  0  0  0  0  0  0  0  0  0  0
   38.5740   32.0090   47.9870 H   0  0  0  0  0  0  0  0  0  0  0  0
   39.4690   33.1990   45.6490 H   0  0  0  0  0  0  0  0  0  0  0  0
   35.2550   29.9860   44.8930 H   0  0  0  0  0  0  0  0  0  0  0  0
   37.5870   30.1880   51.4390 C   0  0  0  0  0  0  0  0  0  0  0  0
   37.7970   30.6090   50.1430 C   0  0  0  0  0  0  0  0  0  0  0  0
   36.8110   30.3300   49.2030 C   0  0  0  0  0  0  0  0  0  0  0  0
   35.7050   29.6610   49.6270 N   0  0  0  0  0  0  0  0  0  0  0  0
   35.5160   29.2570   50.8970 C   0  0  0  0  0  0  0  0  0  0  0  0
   36.4630   29.5270   51.7890 N   0  0  0  0  0  0  0  0  0  0  0  0
   38.3760   30.4210   52.1500 H   0  0  0  0  0  0  0  0  0  0  0  0
   38.6690   31.1360   49.8160 H   0  0  0  0  0  0  0  0  0  0  0  0
   34.6230   28.7320   51.1790 H   0  0  0  0  0  0  0  0  0  0  0  0
   38.9290   33.3090   42.9610 O   0  0  0  0  0  0  0  0  0  0  0  0
   39.5510   31.1580   42.5120 N   0  0  0  0  0  0  0  0  0  0  0  0
   39.6140   32.5370   41.9810 C   0  0  1  0  0  0  0  0  0  0  0  0
   38.9410   32.5670   40.6870 C   0  0  0  0  0  0  0  0  0  0  0  0
   39.6690   31.7680   39.7860 O   0  0  0  0  0  0  0  0  0  0  0  0
   39.8740   30.4800   40.1840 C   0  0  0  0  0  0  0  0  0  0  0  0
   40.3560   30.3670   41.6070 C   0  0  2  0  0  0  0  0  0  0  0  0
   40.0500   31.2170   43.4300 H   0  0  0  0  0  0  0  0  0  0  0  0
   40.6610   32.8550   41.8610 H   0  0  0  0  0  0  0  0  0  0  0  0
   37.9360   32.3070   40.5090 H   0  0  0  0  0  0  0  0  0  0  0  0
   39.0840   33.6100   40.2660 H   0  0  0  0  0  0  0  0  0  0  0  0
   40.6570   30.0600   39.5230 H   0  0  0  0  0  0  0  0  0  0  0  0
   38.9790   29.8230   40.0320 H   0  0  0  0  0  0  0  0  0  0  0  0
   41.3930   30.7280   41.7000 H   0  0  0  0  0  0  0  0  0  0  0  0
   40.2310   28.9190   42.0450 C   0  0  0  0  0  3  0  0  0  0  0  0
   39.3310   28.7600   43.2410 C   0  0  0  0  0  2  0  0  0  0  0  0
   38.2120   27.7720   43.0330 C   0  0  0  0  0  2  0  0  0  0  0  0
   38.7090   26.4180   42.5860 C   0  0  0  0  0  2  0  0  0  0  0  0
   39.6910   26.6180   41.4550 C   0  0  0  0  0  2  0  0  0  0  0  0
   39.6720   28.0480   40.9530 C   0  0  0  0  0  2  0  0  0  0  0  0
  1 10  1  0  0  0  0
  1  2  1  0  0  0  0
  2 16  1  0  0  0  0
  3  2  2  0  0  0  0
  3 11  1  0  0  0  0
  4  3  1  0  0  0  0
  5 12  1  0  0  0  0
  5  4  1  0  0  0  0
  6  5  1  0  0  0  0
  7  6  2  0  0  0  0
  7  8  1  0  0  0  0
  8  9  1  0  0  0  0
  8  4  2  0  0  0  0
  9  1  2  0  0  0  0
 13  9  1  0  0  0  0
 14 19  1  0  0  0  0
 14 20  1  0  0  0  0
 15 14  2  0  0  0  0
 16 17  2  0  0  0  0
 16 15  1  0  0  0  0
 17 18  1  0  0  0  0
 18 22  1  0  0  0  0
 18 19  2  0  0  0  0
 21 15  1  0  0  0  0
 23  6  1  0  0  0  0
 24 30  1  0  0  0  0
 25 31  1  6  0  0  0
 25 24  1  0  0  0  0
 25 23  1  0  0  0  0
 26 25  1  0  0  0  0
 27 28  1  0  0  0  0
 27 26  1  0  0  0  0
 28 29  1  0  0  0  0
 29 36  1  1  0  0  0
 29 37  1  0  0  0  0
 29 24  1  0  0  0  0
 32 26  1  0  0  0  0
 33 26  1  0  0  0  0
 34 28  1  0  0  0  0
 35 28  1  0  0  0  0
 37 38  1  0  0  0  0
 39 38  1  0  0  0  0
 40 39  1  0  0  0  0
 41 40  1  0  0  0  0
 42 41  1  0  0  0  0
 42 37  1  0  0  0  0
M  END
>  <minimizedAffinity>
-6.01598978

>  <minimizedRMSD>
1.39016306

$$$$
