
 OpenBabel03272506243D

 28 30  0  0  0  0  0  0  0  0999 V2000
   40.1820   23.7580   35.2950 C   0  0  0  0  0  0  0  0  0  0  0  0
   41.3460   23.1100   35.5930 C   0  0  0  0  0  0  0  0  0  0  0  0
   42.5990   23.6940   35.5900 C   0  0  0  0  0  0  0  0  0  0  0  0
   42.6950   25.0540   35.2590 C   0  0  0  0  0  0  0  0  0  0  0  0
   41.4970   25.7250   34.9510 C   0  0  0  0  0  0  0  0  0  0  0  0
   40.2630   25.1140   34.9620 C   0  0  0  0  0  0  0  0  0  0  0  0
   41.3620   22.0590   35.8590 H   0  0  0  0  0  0  0  0  0  0  0  0
   43.5050   23.1870   35.8230 H   0  0  0  0  0  0  0  0  0  0  0  0
   43.6320   25.5810   35.2340 H   0  0  0  0  0  0  0  0  0  0  0  0
   41.6050   26.7540   34.7050 H   0  0  0  0  0  0  0  0  0  0  0  0
   38.5630   22.3290   34.1480 C   0  0  0  0  0  0  0  0  0  0  0  0
   38.9660   22.9850   35.3490 C   0  0  0  0  0  0  0  0  0  0  0  0
   38.1500   22.8220   36.4650 C   0  0  0  0  0  0  0  0  0  0  0  0
   37.0320   22.0590   36.3550 N   0  0  0  0  0  0  0  0  0  0  0  0
   36.6760   21.4450   35.1890 C   0  0  0  0  0  0  0  0  0  0  0  0
   37.4510   21.5870   34.0860 N   0  0  0  0  0  0  0  0  0  0  0  0
   39.1300   22.4000   33.2320 H   0  0  0  0  0  0  0  0  0  0  0  0
   35.7610   20.8520   35.1940 H   0  0  0  0  0  0  0  0  0  0  0  0
   38.4420   23.4400   37.7670 C   0  0  0  0  0  0  0  0  0  0  0  0
   37.4850   23.0620   38.7150 F   0  0  0  0  0  0  0  0  0  0  0  0
   39.6800   23.2370   38.2780 F   0  0  0  0  0  0  0  0  0  0  0  0
   38.2420   24.8360   37.6900 F   0  0  0  0  0  0  0  0  0  0  0  0
   39.0230   25.8210   34.6370 C   0  0  0  0  0  3  0  0  0  0  0  0
   38.9910   26.2750   33.1750 C   0  0  0  0  0  2  0  0  0  0  0  0
   37.9690   27.3360   32.9690 C   0  0  0  0  0  2  0  0  0  0  0  0
   37.0190   27.5600   34.1150 C   0  0  0  0  0  2  0  0  0  0  0  0
   37.6970   27.7330   35.4310 C   0  0  0  0  0  2  0  0  0  0  0  0
   39.0700   27.1180   35.4510 C   0  0  0  0  0  2  0  0  0  0  0  0
  1 12  1  0  0  0  0
  1  2  1  0  0  0  0
  2  7  1  0  0  0  0
  3  2  2  0  0  0  0
  3  8  1  0  0  0  0
  4  3  1  0  0  0  0
  5  6  1  0  0  0  0
  5  4  2  0  0  0  0
  6  1  2  0  0  0  0
  9  4  1  0  0  0  0
 10  5  1  0  0  0  0
 11 12  1  0  0  0  0
 12 13  2  0  0  0  0
 13 19  1  0  0  0  0
 14 13  1  0  0  0  0
 15 18  1  0  0  0  0
 15 14  2  0  0  0  0
 16 11  2  0  0  0  0
 16 15  1  0  0  0  0
 17 11  1  0  0  0  0
 19 21  1  0  0  0  0
 19 20  1  0  0  0  0
 22 19  1  0  0  0  0
 23  6  1  0  0  0  0
 23 28  1  0  0  0  0
 24 23  1  0  0  0  0
 25 24  1  0  0  0  0
 25 26  1  0  0  0  0
 26 27  1  0  0  0  0
 27 28  1  0  0  0  0
M  END
>  <minimizedAffinity>
-5.89656162

$$$$

 OpenBabel03272506243D

 28 30  0  0  0  0  0  0  0  0999 V2000
   39.2490   26.1270   32.8770 C   0  0  0  0  0  0  0  0  0  0  0  0
   40.0640   26.9330   32.1350 C   0  0  0  0  0  0  0  0  0  0  0  0
   41.2630   27.4640   32.5740 C   0  0  0  0  0  0  0  0  0  0  0  0
   41.6860   27.1580   33.8760 C   0  0  0  0  0  0  0  0  0  0  0  0
   40.8490   26.3270   34.6430 C   0  0  0  0  0  0  0  0  0  0  0  0
   39.6580   25.8140   34.1770 C   0  0  0  0  0  0  0  0  0  0  0  0
   39.8130   27.2190   31.1200 H   0  0  0  0  0  0  0  0  0  0  0  0
   41.8960   28.0920   31.9940 H   0  0  0  0  0  0  0  0  0  0  0  0
   42.6050   27.5310   34.2910 H   0  0  0  0  0  0  0  0  0  0  0  0
   41.1980   26.1140   35.6250 H   0  0  0  0  0  0  0  0  0  0  0  0
   38.0820   24.3990   31.6010 C   0  0  0  0  0  0  0  0  0  0  0  0
   38.0330   25.6660   32.2530 C   0  0  0  0  0  0  0  0  0  0  0  0
   36.8180   26.3460   32.2290 C   0  0  0  0  0  0  0  0  0  0  0  0
   35.7600   25.7760   31.5970 N   0  0  0  0  0  0  0  0  0  0  0  0
   35.8420   24.5600   30.9830 C   0  0  0  0  0  0  0  0  0  0  0  0
   37.0120   23.8760   30.9900 N   0  0  0  0  0  0  0  0  0  0  0  0
   38.9800   23.8010   31.5650 H   0  0  0  0  0  0  0  0  0  0  0  0
   34.9400   24.1810   30.5000 H   0  0  0  0  0  0  0  0  0  0  0  0
   36.6240   27.6600   32.8580 C   0  0  0  0  0  0  0  0  0  0  0  0
   35.3140   28.1100   32.6620 F   0  0  0  0  0  0  0  0  0  0  0  0
   36.9370   27.7630   34.1730 F   0  0  0  0  0  0  0  0  0  0  0  0
   37.3760   28.6370   32.1700 F   0  0  0  0  0  0  0  0  0  0  0  0
   38.7930   24.9530   34.9850 C   0  0  0  0  0  3  0  0  0  0  0  0
   38.3910   25.6220   36.3030 C   0  0  0  0  0  2  0  0  0  0  0  0
   37.8960   24.6180   37.2810 C   0  0  0  0  0  2  0  0  0  0  0  0
   37.6380   23.2400   36.7320 C   0  0  0  0  0  2  0  0  0  0  0  0
   38.7750   22.6880   35.9410 C   0  0  0  0  0  2  0  0  0  0  0  0
   39.6710   23.7680   35.3980 C   0  0  0  0  0  2  0  0  0  0  0  0
  1  6  1  0  0  0  0
  2  3  1  0  0  0  0
  2  1  2  0  0  0  0
  3  4  2  0  0  0  0
  4  9  1  0  0  0  0
  4  5  1  0  0  0  0
  5 10  1  0  0  0  0
  6  5  2  0  0  0  0
  6 23  1  0  0  0  0
  7  2  1  0  0  0  0
  8  3  1  0  0  0  0
 11 12  1  0  0  0  0
 12  1  1  0  0  0  0
 13 12  2  0  0  0  0
 13 19  1  0  0  0  0
 14 13  1  0  0  0  0
 15 16  1  0  0  0  0
 15 14  2  0  0  0  0
 16 11  2  0  0  0  0
 17 11  1  0  0  0  0
 18 15  1  0  0  0  0
 19 21  1  0  0  0  0
 20 19  1  0  0  0  0
 22 19  1  0  0  0  0
 23 28  1  0  0  0  0
 23 24  1  0  0  0  0
 24 25  1  0  0  0  0
 26 25  1  0  0  0  0
 27 26  1  0  0  0  0
 28 27  1  0  0  0  0
M  END
>  <minimizedAffinity>
-5.4433732

$$$$

 OpenBabel03272506243D

 28 30  0  0  0  0  0  0  0  0999 V2000
   39.3660   24.5340   34.9860 C   0  0  0  0  0  0  0  0  0  0  0  0
   38.8520   25.7620   34.6840 C   0  0  0  0  0  0  0  0  0  0  0  0
   39.6040   26.9020   34.4680 C   0  0  0  0  0  0  0  0  0  0  0  0
   41.0000   26.8020   34.5630 C   0  0  0  0  0  0  0  0  0  0  0  0
   41.5330   25.5380   34.8740 C   0  0  0  0  0  0  0  0  0  0  0  0
   40.7560   24.4200   35.0840 C   0  0  0  0  0  0  0  0  0  0  0  0
   37.7850   25.9270   34.5930 H   0  0  0  0  0  0  0  0  0  0  0  0
   39.2010   27.8580   34.2330 H   0  0  0  0  0  0  0  0  0  0  0  0
   41.6540   27.6420   34.4090 H   0  0  0  0  0  0  0  0  0  0  0  0
   42.5940   25.4970   34.9380 H   0  0  0  0  0  0  0  0  0  0  0  0
   38.0120   22.7450   34.0140 C   0  0  0  0  0  0  0  0  0  0  0  0
   38.4260   23.4560   35.1790 C   0  0  0  0  0  0  0  0  0  0  0  0
   37.8880   23.0490   36.3960 C   0  0  0  0  0  0  0  0  0  0  0  0
   37.0110   22.0120   36.4120 N   0  0  0  0  0  0  0  0  0  0  0  0
   36.6370   21.3530   35.2770 C   0  0  0  0  0  0  0  0  0  0  0  0
   37.1440   21.7280   34.0780 N   0  0  0  0  0  0  0  0  0  0  0  0
   38.3740   22.9900   33.0270 H   0  0  0  0  0  0  0  0  0  0  0  0
   35.9270   20.5310   35.3860 H   0  0  0  0  0  0  0  0  0  0  0  0
   38.2240   23.6920   37.6750 C   0  0  0  0  0  0  0  0  0  0  0  0
   39.5170   23.3400   38.0760 F   0  0  0  0  0  0  0  0  0  0  0  0
   38.0890   25.0390   37.7380 F   0  0  0  0  0  0  0  0  0  0  0  0
   37.4360   23.1420   38.7100 F   0  0  0  0  0  0  0  0  0  0  0  0
   41.3210   23.1100   35.4110 C   0  0  0  0  0  3  0  0  0  0  0  0
   42.4750   23.2180   36.4120 C   0  0  0  0  0  2  0  0  0  0  0  0
   43.3040   21.9840   36.4050 C   0  0  0  0  0  2  0  0  0  0  0  0
   42.7280   20.8120   35.6560 C   0  0  0  0  0  2  0  0  0  0  0  0
   42.2740   21.1470   34.2760 C   0  0  0  0  0  2  0  0  0  0  0  0
   41.9700   22.6130   34.1150 C   0  0  0  0  0  2  0  0  0  0  0  0
  1  6  1  0  0  0  0
  1 12  1  0  0  0  0
  2  1  2  0  0  0  0
  3  4  2  0  0  0  0
  3  2  1  0  0  0  0
  4  5  1  0  0  0  0
  5 10  1  0  0  0  0
  5  6  2  0  0  0  0
  6 23  1  0  0  0  0
  7  2  1  0  0  0  0
  8  3  1  0  0  0  0
  9  4  1  0  0  0  0
 11 16  2  0  0  0  0
 11 12  1  0  0  0  0
 12 13  2  0  0  0  0
 13 14  1  0  0  0  0
 13 19  1  0  0  0  0
 15 18  1  0  0  0  0
 15 14  2  0  0  0  0
 16 15  1  0  0  0  0
 17 11  1  0  0  0  0
 19 21  1  0  0  0  0
 19 20  1  0  0  0  0
 19 22  1  0  0  0  0
 23 24  1  0  0  0  0
 25 24  1  0  0  0  0
 26 25  1  0  0  0  0
 27 26  1  0  0  0  0
 28 27  1  0  0  0  0
 28 23  1  0  0  0  0
M  END
>  <minimizedAffinity>
-5.34802198

$$$$

 OpenBabel03272506243D

 28 30  0  0  0  0  0  0  0  0999 V2000
   37.4540   25.7680   32.2660 C   0  0  0  0  0  0  0  0  0  0  0  0
   37.2820   24.4140   32.2830 C   0  0  0  0  0  0  0  0  0  0  0  0
   36.1930   23.7490   31.7490 C   0  0  0  0  0  0  0  0  0  0  0  0
   35.1840   24.5120   31.1420 C   0  0  0  0  0  0  0  0  0  0  0  0
   35.3580   25.9080   31.1230 C   0  0  0  0  0  0  0  0  0  0  0  0
   36.4550   26.5400   31.6650 C   0  0  0  0  0  0  0  0  0  0  0  0
   38.0120   23.7520   32.7320 H   0  0  0  0  0  0  0  0  0  0  0  0
   36.0610   22.6940   31.7630 H   0  0  0  0  0  0  0  0  0  0  0  0
   34.3070   24.0700   30.7050 H   0  0  0  0  0  0  0  0  0  0  0  0
   34.5760   26.4560   30.6560 H   0  0  0  0  0  0  0  0  0  0  0  0
   39.7980   26.4210   32.0300 C   0  0  0  0  0  0  0  0  0  0  0  0
   38.6550   26.2870   32.8730 C   0  0  0  0  0  0  0  0  0  0  0  0
   38.8010   26.6670   34.2040 C   0  0  0  0  0  0  0  0  0  0  0  0
   40.0030   27.1380   34.6250 N   0  0  0  0  0  0  0  0  0  0  0  0
   41.0760   27.2540   33.7900 C   0  0  0  0  0  0  0  0  0  0  0  0
   40.9640   26.8910   32.4900 N   0  0  0  0  0  0  0  0  0  0  0  0
   39.7820   26.1490   30.9850 H   0  0  0  0  0  0  0  0  0  0  0  0
   42.0020   27.6430   34.2160 H   0  0  0  0  0  0  0  0  0  0  0  0
   37.7080   26.5810   35.1850 C   0  0  0  0  0  0  0  0  0  0  0  0
   38.1360   27.0350   36.4370 F   0  0  0  0  0  0  0  0  0  0  0  0
   36.5450   27.1970   34.8620 F   0  0  0  0  0  0  0  0  0  0  0  0
   37.4070   25.2280   35.4500 F   0  0  0  0  0  0  0  0  0  0  0  0
   36.6250   27.9940   31.6430 C   0  0  0  0  0  3  0  0  0  0  0  0
   35.3740   28.7240   32.1420 C   0  0  0  0  0  2  0  0  0  0  0  0
   35.3840   30.1490   31.7200 C   0  0  0  0  0  2  0  0  0  0  0  0
   36.6810   30.6530   31.1450 C   0  0  0  0  0  2  0  0  0  0  0  0
   37.2390   29.7830   30.0710 C   0  0  0  0  0  2  0  0  0  0  0  0
   36.7320   28.3680   30.1610 C   0  0  0  0  0  2  0  0  0  0  0  0
  1  2  1  0  0  0  0
  1 12  1  0  0  0  0
  2  7  1  0  0  0  0
  3  8  1  0  0  0  0
  3  2  2  0  0  0  0
  4  3  1  0  0  0  0
  5  4  2  0  0  0  0
  5  6  1  0  0  0  0
  6  1  2  0  0  0  0
  9  4  1  0  0  0  0
 10  5  1  0  0  0  0
 11 16  2  0  0  0  0
 11 12  1  0  0  0  0
 12 13  2  0  0  0  0
 13 14  1  0  0  0  0
 13 19  1  0  0  0  0
 15 18  1  0  0  0  0
 15 14  2  0  0  0  0
 16 15  1  0  0  0  0
 17 11  1  0  0  0  0
 19 22  1  0  0  0  0
 19 20  1  0  0  0  0
 21 19  1  0  0  0  0
 23  6  1  0  0  0  0
 23 24  1  0  0  0  0
 25 24  1  0  0  0  0
 26 25  1  0  0  0  0
 27 28  1  0  0  0  0
 27 26  1  0  0  0  0
 28 23  1  0  0  0  0
M  END
>  <minimizedAffinity>
-5.34769535

$$$$

 OpenBabel03272506243D

 28 30  0  0  0  0  0  0  0  0999 V2000
   39.3750   24.0200   35.4500 C   0  0  0  0  0  0  0  0  0  0  0  0
   38.8050   23.3380   36.4860 C   0  0  0  0  0  0  0  0  0  0  0  0
   39.5040   22.6350   37.4500 C   0  0  0  0  0  0  0  0  0  0  0  0
   40.9040   22.6150   37.3690 C   0  0  0  0  0  0  0  0  0  0  0  0
   41.4960   23.3170   36.3030 C   0  0  0  0  0  0  0  0  0  0  0  0
   40.7700   24.0070   35.3570 C   0  0  0  0  0  0  0  0  0  0  0  0
   37.7310   23.3020   36.6220 H   0  0  0  0  0  0  0  0  0  0  0  0
   39.0570   22.1040   38.2560 H   0  0  0  0  0  0  0  0  0  0  0  0
   41.5200   22.0920   38.0790 H   0  0  0  0  0  0  0  0  0  0  0  0
   42.5580   23.2810   36.2700 H   0  0  0  0  0  0  0  0  0  0  0  0
   38.0180   23.9480   33.4170 C   0  0  0  0  0  0  0  0  0  0  0  0
   38.4860   24.6970   34.5380 C   0  0  0  0  0  0  0  0  0  0  0  0
   38.0440   26.0110   34.6520 C   0  0  0  0  0  0  0  0  0  0  0  0
   37.2040   26.5060   33.7070 N   0  0  0  0  0  0  0  0  0  0  0  0
   36.7750   25.7610   32.6460 C   0  0  0  0  0  0  0  0  0  0  0  0
   37.1900   24.4780   32.5090 N   0  0  0  0  0  0  0  0  0  0  0  0
   38.3090   22.9230   33.2440 H   0  0  0  0  0  0  0  0  0  0  0  0
   36.1010   26.2420   31.9360 H   0  0  0  0  0  0  0  0  0  0  0  0
   38.4460   26.8980   35.7540 C   0  0  0  0  0  0  0  0  0  0  0  0
   37.8220   28.1440   35.6340 F   0  0  0  0  0  0  0  0  0  0  0  0
   38.2660   26.4300   37.0140 F   0  0  0  0  0  0  0  0  0  0  0  0
   39.8090   27.2390   35.6220 F   0  0  0  0  0  0  0  0  0  0  0  0
   41.3960   24.7320   34.2490 C   0  0  0  0  0  3  0  0  0  0  0  0
   42.0900   23.7850   33.2660 C   0  0  0  0  0  2  0  0  0  0  0  0
   43.0630   24.5200   32.4150 C   0  0  0  0  0  2  0  0  0  0  0  0
   42.9900   26.0220   32.4850 C   0  0  0  0  0  2  0  0  0  0  0  0
   43.0000   26.5580   33.8760 C   0  0  0  0  0  2  0  0  0  0  0  0
   42.5320   25.5420   34.8830 C   0  0  0  0  0  2  0  0  0  0  0  0
  1  2  1  0  0  0  0
  2  7  1  0  0  0  0
  2  3  2  0  0  0  0
  3  8  1  0  0  0  0
  4  3  1  0  0  0  0
  4  9  1  0  0  0  0
  5  4  2  0  0  0  0
  6  1  2  0  0  0  0
  6  5  1  0  0  0  0
 10  5  1  0  0  0  0
 11 12  1  0  0  0  0
 12 13  2  0  0  0  0
 12  1  1  0  0  0  0
 13 19  1  0  0  0  0
 14 13  1  0  0  0  0
 15 14  2  0  0  0  0
 16 15  1  0  0  0  0
 16 11  2  0  0  0  0
 17 11  1  0  0  0  0
 18 15  1  0  0  0  0
 19 21  1  0  0  0  0
 20 19  1  0  0  0  0
 22 19  1  0  0  0  0
 23 28  1  0  0  0  0
 23  6  1  0  0  0  0
 24 23  1  0  0  0  0
 25 26  1  0  0  0  0
 25 24  1  0  0  0  0
 26 27  1  0  0  0  0
 27 28  1  0  0  0  0
M  END
>  <minimizedAffinity>
-5.31999969

$$$$

 OpenBabel03272506243D

 28 30  0  0  0  0  0  0  0  0999 V2000
   39.2210   23.9470   35.7420 C   0  0  0  0  0  0  0  0  0  0  0  0
   38.0870   24.2920   36.4190 C   0  0  0  0  0  0  0  0  0  0  0  0
   37.8530   24.0290   37.7560 C   0  0  0  0  0  0  0  0  0  0  0  0
   38.8480   23.3580   38.4820 C   0  0  0  0  0  0  0  0  0  0  0  0
   40.0180   23.0000   37.7880 C   0  0  0  0  0  0  0  0  0  0  0  0
   40.2210   23.2770   36.4540 C   0  0  0  0  0  0  0  0  0  0  0  0
   37.2690   24.8120   35.9330 H   0  0  0  0  0  0  0  0  0  0  0  0
   36.9680   24.2990   38.2810 H   0  0  0  0  0  0  0  0  0  0  0  0
   38.7420   23.1160   39.5250 H   0  0  0  0  0  0  0  0  0  0  0  0
   40.7520   22.4940   38.3670 H   0  0  0  0  0  0  0  0  0  0  0  0
   38.7660   23.3620   33.4120 C   0  0  0  0  0  0  0  0  0  0  0  0
   39.2900   24.3040   34.3460 C   0  0  0  0  0  0  0  0  0  0  0  0
   39.8200   25.4820   33.8290 C   0  0  0  0  0  0  0  0  0  0  0  0
   39.8120   25.6710   32.4840 N   0  0  0  0  0  0  0  0  0  0  0  0
   39.3020   24.7480   31.6180 C   0  0  0  0  0  0  0  0  0  0  0  0
   38.7790   23.5920   32.0930 N   0  0  0  0  0  0  0  0  0  0  0  0
   38.3370   22.4200   33.7190 H   0  0  0  0  0  0  0  0  0  0  0  0
   39.3380   24.9860   30.5540 H   0  0  0  0  0  0  0  0  0  0  0  0
   40.3950   26.5390   34.6740 C   0  0  0  0  0  0  0  0  0  0  0  0
   40.8110   27.6210   33.8910 F   0  0  0  0  0  0  0  0  0  0  0  0
   39.6260   26.9970   35.6920 F   0  0  0  0  0  0  0  0  0  0  0  0
   41.6130   26.0970   35.2340 F   0  0  0  0  0  0  0  0  0  0  0  0
   41.4410   22.8970   35.7400 C   0  0  0  0  0  3  0  0  0  0  0  0
   41.5950   21.3760   35.6400 C   0  0  0  0  0  2  0  0  0  0  0  0
   42.9980   21.0030   35.3180 C   0  0  0  0  0  2  0  0  0  0  0  0
   43.8980   22.1360   34.9020 C   0  0  0  0  0  2  0  0  0  0  0  0
   43.8650   23.3000   35.8330 C   0  0  0  0  0  2  0  0  0  0  0  0
   42.5960   23.3500   36.6400 C   0  0  0  0  0  2  0  0  0  0  0  0
  1  2  2  0  0  0  0
  1  6  1  0  0  0  0
  2  3  1  0  0  0  0
  3  8  1  0  0  0  0
  3  4  2  0  0  0  0
  4  9  1  0  0  0  0
  5 10  1  0  0  0  0
  5  4  1  0  0  0  0
  6  5  2  0  0  0  0
  7  2  1  0  0  0  0
 11 17  1  0  0  0  0
 11 12  1  0  0  0  0
 12  1  1  0  0  0  0
 13 12  2  0  0  0  0
 13 19  1  0  0  0  0
 14 13  1  0  0  0  0
 15 16  1  0  0  0  0
 15 14  2  0  0  0  0
 16 11  2  0  0  0  0
 18 15  1  0  0  0  0
 19 22  1  0  0  0  0
 19 21  1  0  0  0  0
 20 19  1  0  0  0  0
 23  6  1  0  0  0  0
 23 28  1  0  0  0  0
 24 23  1  0  0  0  0
 25 24  1  0  0  0  0
 26 25  1  0  0  0  0
 26 27  1  0  0  0  0
 27 28  1  0  0  0  0
M  END
>  <minimizedAffinity>
-5.23276281

$$$$

 OpenBabel03272506243D

 28 30  0  0  0  0  0  0  0  0999 V2000
   38.9460   24.8930   35.1230 C   0  0  0  0  0  0  0  0  0  0  0  0
   38.9160   26.1990   35.5210 C   0  0  0  0  0  0  0  0  0  0  0  0
   38.2020   27.2010   34.8910 C   0  0  0  0  0  0  0  0  0  0  0  0
   37.4490   26.8640   33.7560 C   0  0  0  0  0  0  0  0  0  0  0  0
   37.4780   25.5200   33.3420 C   0  0  0  0  0  0  0  0  0  0  0  0
   38.2000   24.5440   33.9930 C   0  0  0  0  0  0  0  0  0  0  0  0
   39.4690   26.5440   36.3870 H   0  0  0  0  0  0  0  0  0  0  0  0
   38.1800   28.2180   35.2030 H   0  0  0  0  0  0  0  0  0  0  0  0
   36.8680   27.5850   33.2100 H   0  0  0  0  0  0  0  0  0  0  0  0
   36.8970   25.2980   32.4800 H   0  0  0  0  0  0  0  0  0  0  0  0
   41.0830   23.7520   35.4570 C   0  0  0  0  0  0  0  0  0  0  0  0
   39.7480   23.9840   35.9050 C   0  0  0  0  0  0  0  0  0  0  0  0
   39.3390   23.3150   37.0540 C   0  0  0  0  0  0  0  0  0  0  0  0
   40.2160   22.4880   37.6800 N   0  0  0  0  0  0  0  0  0  0  0  0
   41.4870   22.2890   37.2240 C   0  0  0  0  0  0  0  0  0  0  0  0
   41.9130   22.9280   36.1080 N   0  0  0  0  0  0  0  0  0  0  0  0
   41.4880   24.2250   34.5750 H   0  0  0  0  0  0  0  0  0  0  0  0
   42.1220   21.6070   37.7920 H   0  0  0  0  0  0  0  0  0  0  0  0
   37.9930   23.4580   37.6270 C   0  0  0  0  0  0  0  0  0  0  0  0
   37.7910   24.7640   38.0860 F   0  0  0  0  0  0  0  0  0  0  0  0
   36.9500   23.0970   36.8400 F   0  0  0  0  0  0  0  0  0  0  0  0
   37.8970   22.7110   38.8210 F   0  0  0  0  0  0  0  0  0  0  0  0
   38.2260   23.1480   33.5520 C   0  0  0  0  0  3  0  0  0  0  0  0
   39.2160   22.9290   32.4030 C   0  0  0  0  0  2  0  0  0  0  0  0
   38.9300   21.6570   31.6900 C   0  0  0  0  0  2  0  0  0  0  0  0
   37.9480   20.7350   32.3610 C   0  0  0  0  0  2  0  0  0  0  0  0
   36.6790   21.4050   32.7680 C   0  0  0  0  0  2  0  0  0  0  0  0
   36.8470   22.8910   32.9370 C   0  0  0  0  0  2  0  0  0  0  0  0
  1  2  1  0  0  0  0
  1 12  1  0  0  0  0
  2  7  1  0  0  0  0
  3  8  1  0  0  0  0
  3  2  2  0  0  0  0
  4  3  1  0  0  0  0
  5  4  2  0  0  0  0
  5  6  1  0  0  0  0
  6  1  2  0  0  0  0
  9  4  1  0  0  0  0
 10  5  1  0  0  0  0
 11 12  2  0  0  0  0
 11 16  1  0  0  0  0
 12 13  1  0  0  0  0
 13 19  1  0  0  0  0
 13 14  2  0  0  0  0
 15 14  1  0  0  0  0
 15 18  1  0  0  0  0
 16 15  2  0  0  0  0
 17 11  1  0  0  0  0
 19 20  1  0  0  0  0
 19 22  1  0  0  0  0
 21 19  1  0  0  0  0
 23  6  1  0  0  0  0
 24 23  1  0  0  0  0
 25 26  1  0  0  0  0
 25 24  1  0  0  0  0
 26 27  1  0  0  0  0
 27 28  1  0  0  0  0
 28 23  1  0  0  0  0
M  END
>  <minimizedAffinity>
-5.21744347

$$$$

 OpenBabel03272506243D

 28 30  0  0  0  0  0  0  0  0999 V2000
   37.3390   26.8920   32.3360 C   0  0  0  0  0  0  0  0  0  0  0  0
   36.4630   27.8470   31.9050 C   0  0  0  0  0  0  0  0  0  0  0  0
   35.7870   28.7280   32.7280 C   0  0  0  0  0  0  0  0  0  0  0  0
   36.0090   28.6460   34.1100 C   0  0  0  0  0  0  0  0  0  0  0  0
   36.9110   27.6630   34.5580 C   0  0  0  0  0  0  0  0  0  0  0  0
   37.5690   26.7990   33.7120 C   0  0  0  0  0  0  0  0  0  0  0  0
   36.2340   27.9780   30.8540 H   0  0  0  0  0  0  0  0  0  0  0  0
   35.1050   29.4720   32.3890 H   0  0  0  0  0  0  0  0  0  0  0  0
   35.5220   29.2950   34.8160 H   0  0  0  0  0  0  0  0  0  0  0  0
   37.0560   27.6280   35.6110 H   0  0  0  0  0  0  0  0  0  0  0  0
   39.1120   26.5780   30.6820 C   0  0  0  0  0  0  0  0  0  0  0  0
   37.9520   26.0590   31.3300 C   0  0  0  0  0  0  0  0  0  0  0  0
   37.5160   24.7980   30.9360 C   0  0  0  0  0  0  0  0  0  0  0  0
   38.2060   24.1370   29.9700 N   0  0  0  0  0  0  0  0  0  0  0  0
   39.3130   24.6640   29.3710 C   0  0  0  0  0  0  0  0  0  0  0  0
   39.7600   25.8900   29.7350 N   0  0  0  0  0  0  0  0  0  0  0  0
   39.5230   27.5480   30.9200 H   0  0  0  0  0  0  0  0  0  0  0  0
   39.8030   24.0600   28.6050 H   0  0  0  0  0  0  0  0  0  0  0  0
   36.3350   24.1420   31.5170 C   0  0  0  0  0  0  0  0  0  0  0  0
   36.6390   23.6090   32.7740 F   0  0  0  0  0  0  0  0  0  0  0  0
   35.2050   24.8830   31.6090 F   0  0  0  0  0  0  0  0  0  0  0  0
   36.0180   22.9820   30.7760 F   0  0  0  0  0  0  0  0  0  0  0  0
   38.5030   25.7770   34.1890 C   0  0  0  0  0  3  0  0  0  0  0  0
   38.0020   25.0970   35.4660 C   0  0  0  0  0  2  0  0  0  0  0  0
   39.1120   24.4000   36.1680 C   0  0  0  0  0  2  0  0  0  0  0  0
   40.3960   24.2670   35.3940 C   0  0  0  0  0  2  0  0  0  0  0  0
   40.8730   25.5490   34.8010 C   0  0  0  0  0  2  0  0  0  0  0  0
   39.7590   26.5430   34.6170 C   0  0  0  0  0  2  0  0  0  0  0  0
  1  6  1  0  0  0  0
  2  1  2  0  0  0  0
  2  3  1  0  0  0  0
  3  4  2  0  0  0  0
  4  5  1  0  0  0  0
  4  9  1  0  0  0  0
  5 10  1  0  0  0  0
  6 23  1  0  0  0  0
  6  5  2  0  0  0  0
  7  2  1  0  0  0  0
  8  3  1  0  0  0  0
 11 17  1  0  0  0  0
 11 12  1  0  0  0  0
 12  1  1  0  0  0  0
 13 12  2  0  0  0  0
 13 19  1  0  0  0  0
 14 13  1  0  0  0  0
 15 16  1  0  0  0  0
 15 14  2  0  0  0  0
 16 11  2  0  0  0  0
 18 15  1  0  0  0  0
 19 21  1  0  0  0  0
 19 20  1  0  0  0  0
 22 19  1  0  0  0  0
 23 28  1  0  0  0  0
 23 24  1  0  0  0  0
 24 25  1  0  0  0  0
 26 25  1  0  0  0  0
 27 26  1  0  0  0  0
 28 27  1  0  0  0  0
M  END
>  <minimizedAffinity>
-5.1683712

$$$$

 OpenBabel03272506243D

 28 30  0  0  0  0  0  0  0  0999 V2000
   35.9730   26.9350   31.8620 C   0  0  0  0  0  0  0  0  0  0  0  0
   35.0430   26.4110   31.0110 C   0  0  0  0  0  0  0  0  0  0  0  0
   34.9150   25.0670   30.7110 C   0  0  0  0  0  0  0  0  0  0  0  0
   35.8010   24.1650   31.3190 C   0  0  0  0  0  0  0  0  0  0  0  0
   36.7610   24.7020   32.1970 C   0  0  0  0  0  0  0  0  0  0  0  0
   36.8630   26.0470   32.4750 C   0  0  0  0  0  0  0  0  0  0  0  0
   34.3220   27.0360   30.4990 H   0  0  0  0  0  0  0  0  0  0  0  0
   34.1900   24.6610   30.0470 H   0  0  0  0  0  0  0  0  0  0  0  0
   35.7670   23.1060   31.1370 H   0  0  0  0  0  0  0  0  0  0  0  0
   37.4160   23.9920   32.6410 H   0  0  0  0  0  0  0  0  0  0  0  0
   35.1500   28.8630   33.1200 C   0  0  0  0  0  0  0  0  0  0  0  0
   35.9570   28.3640   32.0550 C   0  0  0  0  0  0  0  0  0  0  0  0
   36.6570   29.2990   31.2980 C   0  0  0  0  0  0  0  0  0  0  0  0
   36.5370   30.6160   31.6070 N   0  0  0  0  0  0  0  0  0  0  0  0
   35.7550   31.0590   32.6340 C   0  0  0  0  0  0  0  0  0  0  0  0
   35.0620   30.1720   33.3870 N   0  0  0  0  0  0  0  0  0  0  0  0
   34.5690   28.2150   33.7590 H   0  0  0  0  0  0  0  0  0  0  0  0
   35.7190   32.1360   32.8080 H   0  0  0  0  0  0  0  0  0  0  0  0
   37.5250   28.9280   30.1710 C   0  0  0  0  0  0  0  0  0  0  0  0
   38.6100   28.1660   30.6170 F   0  0  0  0  0  0  0  0  0  0  0  0
   36.9370   28.2950   29.1260 F   0  0  0  0  0  0  0  0  0  0  0  0
   38.1650   30.0780   29.6590 F   0  0  0  0  0  0  0  0  0  0  0  0
   37.8680   26.5960   33.3880 C   0  0  0  0  0  3  0  0  0  0  0  0
   39.1960   25.8400   33.2960 C   0  0  0  0  0  2  0  0  0  0  0  0
   40.0420   26.1030   34.4900 C   0  0  0  0  0  2  0  0  0  0  0  0
   39.5780   27.2170   35.3890 C   0  0  0  0  0  2  0  0  0  0  0  0
   38.1410   27.1170   35.7750 C   0  0  0  0  0  2  0  0  0  0  0  0
   37.3430   26.2990   34.7960 C   0  0  0  0  0  2  0  0  0  0  0  0
  1 12  1  0  0  0  0
  1  6  1  0  0  0  0
  2  1  2  0  0  0  0
  3  2  1  0  0  0  0
  3  4  2  0  0  0  0
  4  5  1  0  0  0  0
  5  6  2  0  0  0  0
  5 10  1  0  0  0  0
  6 23  1  0  0  0  0
  7  2  1  0  0  0  0
  8  3  1  0  0  0  0
  9  4  1  0  0  0  0
 11 16  1  0  0  0  0
 11 17  1  0  0  0  0
 12 11  2  0  0  0  0
 13 14  2  0  0  0  0
 13 12  1  0  0  0  0
 14 15  1  0  0  0  0
 15 18  1  0  0  0  0
 15 16  2  0  0  0  0
 19 20  1  0  0  0  0
 19 13  1  0  0  0  0
 21 19  1  0  0  0  0
 22 19  1  0  0  0  0
 23 28  1  0  0  0  0
 24 23  1  0  0  0  0
 24 25  1  0  0  0  0
 25 26  1  0  0  0  0
 26 27  1  0  0  0  0
 28 27  1  0  0  0  0
M  END
>  <minimizedAffinity>
-5.13562059

$$$$
