
 OpenBabel03272501513D

 27 29  0  0  0  0  0  0  0  0999 V2000
   33.4020   30.7170   35.8580 C   0  0  0  0  0  0  0  0  0  0  0  0
   33.1590   31.6220   36.8820 C   0  0  0  0  0  0  0  0  0  0  0  0
   34.2080   32.5160   37.1940 C   0  0  0  0  0  0  0  0  0  0  0  0
   35.4200   32.4990   36.5180 C   0  0  0  0  0  0  0  0  0  0  0  0
   35.6290   31.5790   35.4990 C   0  0  0  0  0  0  0  0  0  0  0  0
   34.6150   30.7080   35.1910 C   0  0  0  0  0  0  0  0  0  0  0  0
   32.2250   31.6520   37.4210 H   0  0  0  0  0  0  0  0  0  0  0  0
   34.0480   33.2380   37.9920 H   0  0  0  0  0  0  0  0  0  0  0  0
   36.1820   33.2300   36.8260 H   0  0  0  0  0  0  0  0  0  0  0  0
   36.6030   31.6640   35.0520 H   0  0  0  0  0  0  0  0  0  0  0  0
   30.3820   29.0560   34.3100 C   0  0  0  0  0  0  0  0  0  0  0  0
   31.3750   30.0310   34.5110 C   0  0  0  0  0  0  0  0  0  0  0  0
   32.3190   29.8030   35.5390 C   0  0  0  0  0  0  0  0  0  0  0  0
   32.1920   28.6630   36.2440 N   0  0  0  0  0  0  0  0  0  0  0  0
   31.2330   27.7460   36.0310 C   0  0  0  0  0  0  0  0  0  0  0  0
   30.3240   27.9350   35.0640 N   0  0  0  0  0  0  0  0  0  0  0  0
   31.2600   26.6130   36.8750 N   0  0  0  0  0  0  0  0  0  0  0  0
   29.6900   29.2920   33.5070 H   0  0  0  0  0  0  0  0  0  0  0  0
   31.4800   30.9320   33.9590 H   0  0  0  0  0  0  0  0  0  0  0  0
   31.3480   26.6650   37.9200 H   0  0  0  0  0  0  0  0  0  0  0  0
   31.1770   25.7560   36.2660 H   0  0  0  0  0  0  0  0  0  0  0  0
   34.9570   29.7880   34.0850 C   0  0  0  0  0  3  0  0  0  0  0  0
   35.2680   30.6170   32.8650 C   0  0  0  0  0  2  0  0  0  0  0  0
   35.5740   29.7540   31.6620 C   0  0  0  0  0  2  0  0  0  0  0  0
   36.6380   28.7320   32.0170 C   0  0  0  0  0  2  0  0  0  0  0  0
   36.2540   27.9410   33.2340 C   0  0  0  0  0  2  0  0  0  0  0  0
   36.1940   28.9280   34.4100 C   0  0  0  0  0  2  0  0  0  0  0  0
  1  2  1  0  0  0  0
  2  3  2  0  0  0  0
  2  7  1  0  0  0  0
  3  8  1  0  0  0  0
  4  9  1  0  0  0  0
  4  3  1  0  0  0  0
  5  4  2  0  0  0  0
  6  5  1  0  0  0  0
  6  1  2  0  0  0  0
 10  5  1  0  0  0  0
 11 12  2  0  0  0  0
 11 16  1  0  0  0  0
 12 13  1  0  0  0  0
 13  1  1  0  0  0  0
 13 14  2  0  0  0  0
 15 14  1  0  0  0  0
 15 17  1  0  0  0  0
 16 15  2  0  0  0  0
 17 20  1  0  0  0  0
 18 11  1  0  0  0  0
 19 12  1  0  0  0  0
 21 17  1  0  0  0  0
 22 27  1  0  0  0  0
 22  6  1  0  0  0  0
 23 22  1  0  0  0  0
 24 25  1  0  0  0  0
 24 23  1  0  0  0  0
 25 26  1  0  0  0  0
 26 27  1  0  0  0  0
M  END
>  <minimizedAffinity>
-5.71030664

$$$$

 OpenBabel03272501513D

 27 29  0  0  0  0  0  0  0  0999 V2000
   38.8940   25.4820   33.0800 C   0  0  0  0  0  0  0  0  0  0  0  0
   39.4190   26.3930   32.1740 C   0  0  0  0  0  0  0  0  0  0  0  0
   40.4660   27.2160   32.6450 C   0  0  0  0  0  0  0  0  0  0  0  0
   40.9530   27.1260   33.9420 C   0  0  0  0  0  0  0  0  0  0  0  0
   40.4030   26.2030   34.8220 C   0  0  0  0  0  0  0  0  0  0  0  0
   39.3860   25.4010   34.3710 C   0  0  0  0  0  0  0  0  0  0  0  0
   39.0560   26.4800   31.1630 H   0  0  0  0  0  0  0  0  0  0  0  0
   40.9000   27.9400   31.9580 H   0  0  0  0  0  0  0  0  0  0  0  0
   41.7700   27.8050   34.2250 H   0  0  0  0  0  0  0  0  0  0  0  0
   40.8630   26.2270   35.7940 H   0  0  0  0  0  0  0  0  0  0  0  0
   36.7060   22.5330   32.1870 C   0  0  0  0  0  0  0  0  0  0  0  0
   37.8170   23.2260   32.7020 C   0  0  0  0  0  0  0  0  0  0  0  0
   37.8190   24.6360   32.5910 C   0  0  0  0  0  0  0  0  0  0  0  0
   36.7520   25.2050   32.0000 N   0  0  0  0  0  0  0  0  0  0  0  0
   35.7020   24.5190   31.5160 C   0  0  0  0  0  0  0  0  0  0  0  0
   35.6720   23.1820   31.6070 N   0  0  0  0  0  0  0  0  0  0  0  0
   34.6750   25.2920   30.9270 N   0  0  0  0  0  0  0  0  0  0  0  0
   36.7680   21.4560   32.3040 H   0  0  0  0  0  0  0  0  0  0  0  0
   38.6620   22.7830   33.1680 H   0  0  0  0  0  0  0  0  0  0  0  0
   34.8460   26.0480   30.2190 H   0  0  0  0  0  0  0  0  0  0  0  0
   33.7560   24.9640   31.3280 H   0  0  0  0  0  0  0  0  0  0  0  0
   38.8940   24.4560   35.3990 C   0  0  0  0  0  3  0  0  0  0  0  0
   40.0780   23.7030   35.9470 C   0  0  0  0  0  2  0  0  0  0  0  0
   39.6620   22.6680   36.9690 C   0  0  0  0  0  2  0  0  0  0  0  0
   38.7800   23.3090   38.0230 C   0  0  0  0  0  2  0  0  0  0  0  0
   37.6200   24.0320   37.4010 C   0  0  0  0  0  2  0  0  0  0  0  0
   38.2020   25.1830   36.5690 C   0  0  0  0  0  2  0  0  0  0  0  0
  1  6  1  0  0  0  0
  2  3  1  0  0  0  0
  2  1  2  0  0  0  0
  3  4  2  0  0  0  0
  4  9  1  0  0  0  0
  4  5  1  0  0  0  0
  5 10  1  0  0  0  0
  6  5  2  0  0  0  0
  6 22  1  0  0  0  0
  7  2  1  0  0  0  0
  8  3  1  0  0  0  0
 11 18  1  0  0  0  0
 11 12  1  0  0  0  0
 12 19  1  0  0  0  0
 13 12  2  0  0  0  0
 13  1  1  0  0  0  0
 14 13  1  0  0  0  0
 15 16  1  0  0  0  0
 15 14  2  0  0  0  0
 16 11  2  0  0  0  0
 17 21  1  0  0  0  0
 17 15  1  0  0  0  0
 20 17  1  0  0  0  0
 22 23  1  0  0  0  0
 22 27  1  0  0  0  0
 23 24  1  0  0  0  0
 24 25  1  0  0  0  0
 26 25  1  0  0  0  0
 27 26  1  0  0  0  0
M  END
>  <minimizedAffinity>
-5.51913452

$$$$

 OpenBabel03272501513D

 27 29  0  0  0  0  0  0  0  0999 V2000
   39.5320   25.5930   34.5440 C   0  0  0  0  0  0  0  0  0  0  0  0
   40.6060   26.4520   34.7350 C   0  0  0  0  0  0  0  0  0  0  0  0
   40.9970   27.2280   33.6210 C   0  0  0  0  0  0  0  0  0  0  0  0
   40.3500   27.1450   32.3970 C   0  0  0  0  0  0  0  0  0  0  0  0
   39.2790   26.2740   32.2400 C   0  0  0  0  0  0  0  0  0  0  0  0
   38.8940   25.5180   33.3180 C   0  0  0  0  0  0  0  0  0  0  0  0
   41.1240   26.5320   35.6780 H   0  0  0  0  0  0  0  0  0  0  0  0
   41.8360   27.9120   33.7400 H   0  0  0  0  0  0  0  0  0  0  0  0
   40.7200   27.7850   31.5830 H   0  0  0  0  0  0  0  0  0  0  0  0
   38.8610   26.3000   31.2500 H   0  0  0  0  0  0  0  0  0  0  0  0
   37.7900   24.2880   37.6320 C   0  0  0  0  0  0  0  0  0  0  0  0
   38.0720   25.1540   36.5610 C   0  0  0  0  0  0  0  0  0  0  0  0
   39.1310   24.8000   35.6930 C   0  0  0  0  0  0  0  0  0  0  0  0
   39.7860   23.6560   35.9620 N   0  0  0  0  0  0  0  0  0  0  0  0
   39.4950   22.8440   36.9930 C   0  0  0  0  0  0  0  0  0  0  0  0
   38.4980   23.1540   37.8330 N   0  0  0  0  0  0  0  0  0  0  0  0
   40.2970   21.6860   37.1150 N   0  0  0  0  0  0  0  0  0  0  0  0
   36.9680   24.6180   38.2590 H   0  0  0  0  0  0  0  0  0  0  0  0
   37.5600   26.0590   36.3440 H   0  0  0  0  0  0  0  0  0  0  0  0
   41.3450   21.6930   37.0720 H   0  0  0  0  0  0  0  0  0  0  0  0
   39.6520   20.8620   37.2510 H   0  0  0  0  0  0  0  0  0  0  0  0
   37.7390   24.6400   33.0270 C   0  0  0  0  0  3  0  0  0  0  0  0
   36.9310   25.2790   31.9270 C   0  0  0  0  0  2  0  0  0  0  0  0
   35.6920   24.4770   31.6000 C   0  0  0  0  0  2  0  0  0  0  0  0
   36.0670   23.0290   31.3460 C   0  0  0  0  0  2  0  0  0  0  0  0
   36.8610   22.4600   32.4860 C   0  0  0  0  0  2  0  0  0  0  0  0
   38.1810   23.2430   32.5480 C   0  0  0  0  0  2  0  0  0  0  0  0
  1  2  1  0  0  0  0
  1 13  1  0  0  0  0
  2  7  1  0  0  0  0
  3  8  1  0  0  0  0
  3  2  2  0  0  0  0
  4  3  1  0  0  0  0
  5  4  2  0  0  0  0
  5  6  1  0  0  0  0
  6  1  2  0  0  0  0
  9  4  1  0  0  0  0
 10  5  1  0  0  0  0
 11 16  1  0  0  0  0
 11 18  1  0  0  0  0
 12 11  2  0  0  0  0
 13 14  2  0  0  0  0
 13 12  1  0  0  0  0
 14 15  1  0  0  0  0
 15 17  1  0  0  0  0
 15 16  2  0  0  0  0
 17 21  1  0  0  0  0
 19 12  1  0  0  0  0
 20 17  1  0  0  0  0
 22  6  1  0  0  0  0
 23 22  1  0  0  0  0
 24 23  1  0  0  0  0
 25 24  1  0  0  0  0
 25 26  1  0  0  0  0
 26 27  1  0  0  0  0
 27 22  1  0  0  0  0
M  END
>  <minimizedAffinity>
-5.50041819

$$$$

 OpenBabel03272501513D

 27 29  0  0  0  0  0  0  0  0999 V2000
   35.0550   30.6390   35.0760 C   0  0  0  0  0  0  0  0  0  0  0  0
   35.8770   31.6680   35.5140 C   0  0  0  0  0  0  0  0  0  0  0  0
   35.3460   32.5170   36.5100 C   0  0  0  0  0  0  0  0  0  0  0  0
   34.0710   32.3410   37.0300 C   0  0  0  0  0  0  0  0  0  0  0  0
   33.2750   31.3020   36.5680 C   0  0  0  0  0  0  0  0  0  0  0  0
   33.7850   30.4730   35.6010 C   0  0  0  0  0  0  0  0  0  0  0  0
   36.8700   31.8230   35.1240 H   0  0  0  0  0  0  0  0  0  0  0  0
   35.9670   33.3330   36.8750 H   0  0  0  0  0  0  0  0  0  0  0  0
   33.7370   33.0490   37.8030 H   0  0  0  0  0  0  0  0  0  0  0  0
   32.3120   31.2680   37.0460 H   0  0  0  0  0  0  0  0  0  0  0  0
   36.7450   27.7990   33.2460 C   0  0  0  0  0  0  0  0  0  0  0  0
   36.2650   28.5460   34.3360 C   0  0  0  0  0  0  0  0  0  0  0  0
   35.6070   29.7660   34.0550 C   0  0  0  0  0  0  0  0  0  0  0  0
   35.4910   30.1150   32.7600 N   0  0  0  0  0  0  0  0  0  0  0  0
   35.9590   29.3810   31.7350 C   0  0  0  0  0  0  0  0  0  0  0  0
   36.5870   28.2210   31.9710 N   0  0  0  0  0  0  0  0  0  0  0  0
   35.7440   29.9120   30.4430 N   0  0  0  0  0  0  0  0  0  0  0  0
   37.2400   26.8760   33.5300 H   0  0  0  0  0  0  0  0  0  0  0  0
   36.3540   28.2770   35.3590 H   0  0  0  0  0  0  0  0  0  0  0  0
   35.9570   30.9050   30.1760 H   0  0  0  0  0  0  0  0  0  0  0  0
   35.3480   29.1420   29.8410 H   0  0  0  0  0  0  0  0  0  0  0  0
   32.8460   29.4020   35.2010 C   0  0  0  0  0  3  0  0  0  0  0  0
   32.0620   28.9870   36.4200 C   0  0  0  0  0  2  0  0  0  0  0  0
   31.1120   27.8500   36.1180 C   0  0  0  0  0  2  0  0  0  0  0  0
   30.2610   28.1960   34.9100 C   0  0  0  0  0  2  0  0  0  0  0  0
   31.1110   28.5900   33.7360 C   0  0  0  0  0  2  0  0  0  0  0  0
   31.8470   29.8790   34.1280 C   0  0  0  0  0  2  0  0  0  0  0  0
  1  2  2  0  0  0  0
  1  6  1  0  0  0  0
  2  3  1  0  0  0  0
  3  8  1  0  0  0  0
  3  4  2  0  0  0  0
  4  9  1  0  0  0  0
  5  4  1  0  0  0  0
  5 10  1  0  0  0  0
  6  5  2  0  0  0  0
  7  2  1  0  0  0  0
 11 18  1  0  0  0  0
 11 12  1  0  0  0  0
 12 19  1  0  0  0  0
 13 12  2  0  0  0  0
 13  1  1  0  0  0  0
 14 13  1  0  0  0  0
 15 16  1  0  0  0  0
 15 14  2  0  0  0  0
 16 11  2  0  0  0  0
 17 15  1  0  0  0  0
 20 17  1  0  0  0  0
 21 17  1  0  0  0  0
 22  6  1  0  0  0  0
 22 23  1  0  0  0  0
 24 23  1  0  0  0  0
 25 24  1  0  0  0  0
 26 27  1  0  0  0  0
 26 25  1  0  0  0  0
 27 22  1  0  0  0  0
M  END
>  <minimizedAffinity>
-5.45732594

$$$$

 OpenBabel03272501513D

 27 29  0  0  0  0  0  0  0  0999 V2000
   38.3580   25.5450   35.0590 C   0  0  0  0  0  0  0  0  0  0  0  0
   38.1780   26.7660   35.6940 C   0  0  0  0  0  0  0  0  0  0  0  0
   37.4320   27.7380   34.9900 C   0  0  0  0  0  0  0  0  0  0  0  0
   36.9010   27.4950   33.7310 C   0  0  0  0  0  0  0  0  0  0  0  0
   37.1010   26.2610   33.1250 C   0  0  0  0  0  0  0  0  0  0  0  0
   37.8250   25.3130   33.8030 C   0  0  0  0  0  0  0  0  0  0  0  0
   38.5820   26.9770   36.6710 H   0  0  0  0  0  0  0  0  0  0  0  0
   37.2740   28.7060   35.4620 H   0  0  0  0  0  0  0  0  0  0  0  0
   36.3330   28.3070   33.2550 H   0  0  0  0  0  0  0  0  0  0  0  0
   36.6420   26.1930   32.1550 H   0  0  0  0  0  0  0  0  0  0  0  0
   41.0330   23.1330   36.2010 C   0  0  0  0  0  0  0  0  0  0  0  0
   40.4050   24.1010   35.3960 C   0  0  0  0  0  0  0  0  0  0  0  0
   39.1230   24.5480   35.7880 C   0  0  0  0  0  0  0  0  0  0  0  0
   38.6030   24.0110   36.9070 N   0  0  0  0  0  0  0  0  0  0  0  0
   39.2240   23.0870   37.6610 C   0  0  0  0  0  0  0  0  0  0  0  0
   40.4400   22.6430   37.3140 N   0  0  0  0  0  0  0  0  0  0  0  0
   38.5180   22.6390   38.8000 N   0  0  0  0  0  0  0  0  0  0  0  0
   42.0130   22.8330   35.8450 H   0  0  0  0  0  0  0  0  0  0  0  0
   40.8100   24.5280   34.5120 H   0  0  0  0  0  0  0  0  0  0  0  0
   37.5140   22.3340   38.7830 H   0  0  0  0  0  0  0  0  0  0  0  0
   39.1780   22.6750   39.6220 H   0  0  0  0  0  0  0  0  0  0  0  0
   37.9580   24.0420   33.0570 C   0  0  0  0  0  3  0  0  0  0  0  0
   36.7060   23.8440   32.2430 C   0  0  0  0  0  2  0  0  0  0  0  0
   36.7280   22.5340   31.4870 C   0  0  0  0  0  2  0  0  0  0  0  0
   38.0180   22.4160   30.6980 C   0  0  0  0  0  2  0  0  0  0  0  0
   39.2190   22.6160   31.5770 C   0  0  0  0  0  2  0  0  0  0  0  0
   39.1610   24.0610   32.0930 C   0  0  0  0  0  2  0  0  0  0  0  0
  1  2  1  0  0  0  0
  1 13  1  0  0  0  0
  2  7  1  0  0  0  0
  3  8  1  0  0  0  0
  3  2  2  0  0  0  0
  4  3  1  0  0  0  0
  5  4  2  0  0  0  0
  5  6  1  0  0  0  0
  6  1  2  0  0  0  0
  9  4  1  0  0  0  0
 10  5  1  0  0  0  0
 11 16  1  0  0  0  0
 12 13  1  0  0  0  0
 12 11  2  0  0  0  0
 13 14  2  0  0  0  0
 14 15  1  0  0  0  0
 15 17  1  0  0  0  0
 16 15  2  0  0  0  0
 17 21  1  0  0  0  0
 18 11  1  0  0  0  0
 19 12  1  0  0  0  0
 20 17  1  0  0  0  0
 22  6  1  0  0  0  0
 23 22  1  0  0  0  0
 24 23  1  0  0  0  0
 25 24  1  0  0  0  0
 25 26  1  0  0  0  0
 26 27  1  0  0  0  0
 27 22  1  0  0  0  0
M  END
>  <minimizedAffinity>
-5.40336037

$$$$

 OpenBabel03272501513D

 27 29  0  0  0  0  0  0  0  0999 V2000
   37.2420   25.5380   32.4010 C   0  0  0  0  0  0  0  0  0  0  0  0
   37.0110   24.1690   32.3810 C   0  0  0  0  0  0  0  0  0  0  0  0
   35.9190   23.7270   31.6000 C   0  0  0  0  0  0  0  0  0  0  0  0
   35.1150   24.6050   30.8880 C   0  0  0  0  0  0  0  0  0  0  0  0
   35.3740   25.9690   30.9310 C   0  0  0  0  0  0  0  0  0  0  0  0
   36.4330   26.4050   31.6870 C   0  0  0  0  0  0  0  0  0  0  0  0
   37.6230   23.4690   32.9270 H   0  0  0  0  0  0  0  0  0  0  0  0
   35.7130   22.6590   31.5630 H   0  0  0  0  0  0  0  0  0  0  0  0
   34.2860   24.1750   30.3060 H   0  0  0  0  0  0  0  0  0  0  0  0
   34.6850   26.5440   30.3400 H   0  0  0  0  0  0  0  0  0  0  0  0
   40.7060   26.3340   33.6810 C   0  0  0  0  0  0  0  0  0  0  0  0
   39.7180   25.8470   32.8070 C   0  0  0  0  0  0  0  0  0  0  0  0
   38.3670   25.9870   33.2020 C   0  0  0  0  0  0  0  0  0  0  0  0
   38.1350   26.5800   34.3880 N   0  0  0  0  0  0  0  0  0  0  0  0
   39.0990   27.0380   35.2050 C   0  0  0  0  0  0  0  0  0  0  0  0
   40.3870   26.9180   34.8580 N   0  0  0  0  0  0  0  0  0  0  0  0
   38.6590   27.6290   36.4120 N   0  0  0  0  0  0  0  0  0  0  0  0
   41.7200   26.1950   33.3190 H   0  0  0  0  0  0  0  0  0  0  0  0
   39.8950   25.3780   31.8710 H   0  0  0  0  0  0  0  0  0  0  0  0
   37.9540   27.1910   37.0540 H   0  0  0  0  0  0  0  0  0  0  0  0
   39.1630   28.5490   36.5210 H   0  0  0  0  0  0  0  0  0  0  0  0
   36.6100   27.8730   31.6440 C   0  0  0  0  0  3  0  0  0  0  0  0
   36.7430   28.2860   30.2010 C   0  0  0  0  0  2  0  0  0  0  0  0
   36.9870   29.7720   30.0620 C   0  0  0  0  0  2  0  0  0  0  0  0
   35.9390   30.5420   30.8430 C   0  0  0  0  0  2  0  0  0  0  0  0
   35.8710   30.0810   32.2710 C   0  0  0  0  0  2  0  0  0  0  0  0
   35.4030   28.6190   32.2480 C   0  0  0  0  0  2  0  0  0  0  0  0
  1 13  1  0  0  0  0
  2  1  1  0  0  0  0
  2  7  1  0  0  0  0
  3  2  2  0  0  0  0
  4  5  2  0  0  0  0
  4  3  1  0  0  0  0
  5  6  1  0  0  0  0
  6  1  2  0  0  0  0
  8  3  1  0  0  0  0
  9  4  1  0  0  0  0
 10  5  1  0  0  0  0
 11 16  1  0  0  0  0
 12 13  1  0  0  0  0
 12 11  2  0  0  0  0
 13 14  2  0  0  0  0
 14 15  1  0  0  0  0
 15 17  1  0  0  0  0
 16 15  2  0  0  0  0
 17 21  1  0  0  0  0
 17 20  1  0  0  0  0
 18 11  1  0  0  0  0
 19 12  1  0  0  0  0
 22  6  1  0  0  0  0
 22 27  1  0  0  0  0
 23 22  1  0  0  0  0
 24 23  1  0  0  0  0
 24 25  1  0  0  0  0
 25 26  1  0  0  0  0
 27 26  1  0  0  0  0
M  END
>  <minimizedAffinity>
-5.38126326

$$$$

 OpenBabel03272501513D

 27 29  0  0  0  0  0  0  0  0999 V2000
   37.3960   23.7510   32.8120 C   0  0  0  0  0  0  0  0  0  0  0  0
   37.3510   25.1350   32.7170 C   0  0  0  0  0  0  0  0  0  0  0  0
   36.3750   25.6730   31.8490 C   0  0  0  0  0  0  0  0  0  0  0  0
   35.5020   24.8720   31.1280 C   0  0  0  0  0  0  0  0  0  0  0  0
   35.5750   23.4900   31.2480 C   0  0  0  0  0  0  0  0  0  0  0  0
   36.5210   22.9600   32.0880 C   0  0  0  0  0  0  0  0  0  0  0  0
   38.0200   25.7770   33.2670 H   0  0  0  0  0  0  0  0  0  0  0  0
   36.3140   26.7560   31.7520 H   0  0  0  0  0  0  0  0  0  0  0  0
   34.7730   25.3750   30.4760 H   0  0  0  0  0  0  0  0  0  0  0  0
   34.8490   22.9790   30.6420 H   0  0  0  0  0  0  0  0  0  0  0  0
   40.5530   22.2660   34.2660 C   0  0  0  0  0  0  0  0  0  0  0  0
   39.6800   22.7730   33.2870 C   0  0  0  0  0  0  0  0  0  0  0  0
   38.3990   23.2010   33.7080 C   0  0  0  0  0  0  0  0  0  0  0  0
   38.1180   23.0890   35.0200 N   0  0  0  0  0  0  0  0  0  0  0  0
   38.9720   22.6010   35.9360 C   0  0  0  0  0  0  0  0  0  0  0  0
   40.1910   22.1870   35.5660 N   0  0  0  0  0  0  0  0  0  0  0  0
   38.4960   22.5590   37.2670 N   0  0  0  0  0  0  0  0  0  0  0  0
   41.5170   21.9550   33.8760 H   0  0  0  0  0  0  0  0  0  0  0  0
   39.8950   22.8630   32.2510 H   0  0  0  0  0  0  0  0  0  0  0  0
   37.5610   22.1680   37.5410 H   0  0  0  0  0  0  0  0  0  0  0  0
   39.2380   22.9800   37.8860 H   0  0  0  0  0  0  0  0  0  0  0  0
   36.4910   21.4810   32.1360 C   0  0  0  0  0  3  0  0  0  0  0  0
   35.5480   21.0670   33.2360 C   0  0  0  0  0  2  0  0  0  0  0  0
   35.4980   19.5650   33.3970 C   0  0  0  0  0  2  0  0  0  0  0  0
   35.2260   18.9100   32.0550 C   0  0  0  0  0  2  0  0  0  0  0  0
   36.2090   19.3650   31.0150 C   0  0  0  0  0  2  0  0  0  0  0  0
   35.9850   20.8700   30.8140 C   0  0  0  0  0  2  0  0  0  0  0  0
  1 13  1  0  0  0  0
  2  1  1  0  0  0  0
  2  7  1  0  0  0  0
  3  2  2  0  0  0  0
  4  5  2  0  0  0  0
  4  3  1  0  0  0  0
  5  6  1  0  0  0  0
  6 22  1  0  0  0  0
  6  1  2  0  0  0  0
  8  3  1  0  0  0  0
  9  4  1  0  0  0  0
 10  5  1  0  0  0  0
 11 16  1  0  0  0  0
 12 13  1  0  0  0  0
 12 11  2  0  0  0  0
 13 14  2  0  0  0  0
 14 15  1  0  0  0  0
 15 17  1  0  0  0  0
 16 15  2  0  0  0  0
 17 20  1  0  0  0  0
 17 21  1  0  0  0  0
 18 11  1  0  0  0  0
 19 12  1  0  0  0  0
 22 23  1  0  0  0  0
 23 24  1  0  0  0  0
 25 24  1  0  0  0  0
 26 25  1  0  0  0  0
 27 26  1  0  0  0  0
 27 22  1  0  0  0  0
M  END
>  <minimizedAffinity>
-5.36816835

$$$$

 OpenBabel03272501513D

 27 29  0  0  0  0  0  0  0  0999 V2000
   40.2740   24.9870   34.6710 C   0  0  0  0  0  0  0  0  0  0  0  0
   41.6030   24.7070   34.9550 C   0  0  0  0  0  0  0  0  0  0  0  0
   42.5410   25.7110   34.6280 C   0  0  0  0  0  0  0  0  0  0  0  0
   42.1650   26.9180   34.0560 C   0  0  0  0  0  0  0  0  0  0  0  0
   40.8260   27.1650   33.7850 C   0  0  0  0  0  0  0  0  0  0  0  0
   39.9090   26.1940   34.1000 C   0  0  0  0  0  0  0  0  0  0  0  0
   41.9180   23.7760   35.3990 H   0  0  0  0  0  0  0  0  0  0  0  0
   43.5920   25.5210   34.8390 H   0  0  0  0  0  0  0  0  0  0  0  0
   42.9610   27.6440   33.8340 H   0  0  0  0  0  0  0  0  0  0  0  0
   40.6600   28.1310   33.3440 H   0  0  0  0  0  0  0  0  0  0  0  0
   37.8660   22.0780   34.5500 C   0  0  0  0  0  0  0  0  0  0  0  0
   38.7870   23.0310   34.0780 C   0  0  0  0  0  0  0  0  0  0  0  0
   39.3120   23.9530   35.0120 C   0  0  0  0  0  0  0  0  0  0  0  0
   38.8880   23.8440   36.2840 N   0  0  0  0  0  0  0  0  0  0  0  0
   38.0060   22.9230   36.7100 C   0  0  0  0  0  0  0  0  0  0  0  0
   37.4910   22.0360   35.8480 N   0  0  0  0  0  0  0  0  0  0  0  0
   37.6790   22.9670   38.0850 N   0  0  0  0  0  0  0  0  0  0  0  0
   37.5010   21.4020   33.7830 H   0  0  0  0  0  0  0  0  0  0  0  0
   39.1250   23.1220   33.0750 H   0  0  0  0  0  0  0  0  0  0  0  0
   37.4110   23.8450   38.5940 H   0  0  0  0  0  0  0  0  0  0  0  0
   37.7570   21.9860   38.4650 H   0  0  0  0  0  0  0  0  0  0  0  0
   38.5190   26.5810   33.7720 C   0  0  0  0  0  3  0  0  0  0  0  0
   38.0180   27.4940   34.8620 C   0  0  0  0  0  2  0  0  0  0  0  0
   36.5780   27.8970   34.6400 C   0  0  0  0  0  2  0  0  0  0  0  0
   36.4050   28.4400   33.2340 C   0  0  0  0  0  2  0  0  0  0  0  0
   36.9170   27.4730   32.2060 C   0  0  0  0  0  2  0  0  0  0  0  0
   38.4300   27.3380   32.4320 C   0  0  0  0  0  2  0  0  0  0  0  0
  1  2  1  0  0  0  0
  1 13  1  0  0  0  0
  2  7  1  0  0  0  0
  3  8  1  0  0  0  0
  3  2  2  0  0  0  0
  4  3  1  0  0  0  0
  5  4  2  0  0  0  0
  5  6  1  0  0  0  0
  6  1  2  0  0  0  0
  9  4  1  0  0  0  0
 10  5  1  0  0  0  0
 11 16  1  0  0  0  0
 12 11  2  0  0  0  0
 12 13  1  0  0  0  0
 13 14  2  0  0  0  0
 14 15  1  0  0  0  0
 15 17  1  0  0  0  0
 16 15  2  0  0  0  0
 17 21  1  0  0  0  0
 17 20  1  0  0  0  0
 18 11  1  0  0  0  0
 19 12  1  0  0  0  0
 22  6  1  0  0  0  0
 22 23  1  0  0  0  0
 24 23  1  0  0  0  0
 25 24  1  0  0  0  0
 26 27  1  0  0  0  0
 26 25  1  0  0  0  0
 27 22  1  0  0  0  0
M  END
>  <minimizedAffinity>
-5.35367393

$$$$

 OpenBabel03272501513D

 27 29  0  0  0  0  0  0  0  0999 V2000
   36.3640   20.6450   32.9990 C   0  0  0  0  0  0  0  0  0  0  0  0
   36.1300   19.2840   32.8630 C   0  0  0  0  0  0  0  0  0  0  0  0
   35.9900   18.7990   31.5430 C   0  0  0  0  0  0  0  0  0  0  0  0
   36.0800   19.6300   30.4350 C   0  0  0  0  0  0  0  0  0  0  0  0
   36.3140   20.9880   30.6080 C   0  0  0  0  0  0  0  0  0  0  0  0
   36.4520   21.4650   31.8880 C   0  0  0  0  0  0  0  0  0  0  0  0
   36.0550   18.6200   33.7090 H   0  0  0  0  0  0  0  0  0  0  0  0
   35.8060   17.7350   31.4030 H   0  0  0  0  0  0  0  0  0  0  0  0
   35.9580   19.1690   29.4440 H   0  0  0  0  0  0  0  0  0  0  0  0
   36.3640   21.5250   29.6790 H   0  0  0  0  0  0  0  0  0  0  0  0
   37.5740   22.3960   36.1210 C   0  0  0  0  0  0  0  0  0  0  0  0
   37.5590   21.9920   34.7740 C   0  0  0  0  0  0  0  0  0  0  0  0
   36.5110   21.1390   34.3570 C   0  0  0  0  0  0  0  0  0  0  0  0
   35.6070   20.7810   35.2880 N   0  0  0  0  0  0  0  0  0  0  0  0
   35.6430   21.1830   36.5700 C   0  0  0  0  0  0  0  0  0  0  0  0
   36.6240   21.9910   36.9940 N   0  0  0  0  0  0  0  0  0  0  0  0
   34.6060   20.7010   37.4010 N   0  0  0  0  0  0  0  0  0  0  0  0
   38.4040   23.0490   36.3750 H   0  0  0  0  0  0  0  0  0  0  0  0
   38.2700   22.2690   34.0360 H   0  0  0  0  0  0  0  0  0  0  0  0
   34.3150   19.6940   37.4470 H   0  0  0  0  0  0  0  0  0  0  0  0
   34.2120   21.5230   37.9310 H   0  0  0  0  0  0  0  0  0  0  0  0
   36.7070   22.9220   31.9380 C   0  0  0  0  0  3  0  0  0  0  0  0
   38.0090   23.1940   31.2290 C   0  0  0  0  0  2  0  0  0  0  0  0
   38.3820   24.6580   31.2810 C   0  0  0  0  0  2  0  0  0  0  0  0
   37.2170   25.5050   30.8040 C   0  0  0  0  0  2  0  0  0  0  0  0
   35.9610   25.1830   31.5610 C   0  0  0  0  0  2  0  0  0  0  0  0
   35.5980   23.7280   31.2330 C   0  0  0  0  0  2  0  0  0  0  0  0
  1 13  1  0  0  0  0
  2  1  1  0  0  0  0
  2  7  1  0  0  0  0
  3  2  2  0  0  0  0
  4  5  2  0  0  0  0
  4  3  1  0  0  0  0
  5  6  1  0  0  0  0
  6 22  1  0  0  0  0
  6  1  2  0  0  0  0
  8  3  1  0  0  0  0
  9  4  1  0  0  0  0
 10  5  1  0  0  0  0
 11 18  1  0  0  0  0
 11 16  1  0  0  0  0
 12 11  2  0  0  0  0
 13 12  1  0  0  0  0
 13 14  2  0  0  0  0
 14 15  1  0  0  0  0
 15 16  2  0  0  0  0
 15 17  1  0  0  0  0
 17 20  1  0  0  0  0
 17 21  1  0  0  0  0
 19 12  1  0  0  0  0
 23 24  1  0  0  0  0
 23 22  1  0  0  0  0
 25 24  1  0  0  0  0
 25 26  1  0  0  0  0
 27 26  1  0  0  0  0
 27 22  1  0  0  0  0
M  END
>  <minimizedAffinity>
-5.33398819

$$$$
