
 OpenBabel03272509053D

 30 32  0  0  0  0  0  0  0  0999 V2000
   35.3200   30.0930   48.4740 C   0  0  0  0  0  3  0  0  0  0  0  0
   34.6410   30.0970   47.3560 C   0  0  0  0  0  3  0  0  0  0  0  0
   37.8170   32.5390   49.5570 C   0  0  0  0  0  0  0  0  0  0  0  0
   38.7820   32.4310   48.5370 C   0  0  0  0  0  0  0  0  0  0  0  0
   38.5440   31.5110   47.4950 C   0  0  0  0  0  0  0  0  0  0  0  0
   37.4010   30.7850   47.5400 N   0  0  0  0  0  0  0  0  0  0  0  0
   36.4990   30.9140   48.5330 C   0  0  0  0  0  0  0  0  0  0  0  0
   36.7270   31.7970   49.5300 N   0  0  0  0  0  0  0  0  0  0  0  0
   38.0280   33.2520   50.3390 H   0  0  0  0  0  0  0  0  0  0  0  0
   39.6880   32.9820   48.4690 H   0  0  0  0  0  0  0  0  0  0  0  0
   39.4540   31.2700   46.3450 C   0  0  0  0  0  3  0  0  0  0  0  0
   38.7410   30.6110   45.1880 C   0  0  0  0  0  2  0  0  0  0  0  0
   39.7660   30.5690   44.0500 C   0  0  0  0  0  2  0  0  0  0  0  0
   40.0010   31.9470   43.4830 C   0  0  0  0  0  2  0  0  0  0  0  0
   39.4730   32.9520   44.4690 C   0  0  0  0  0  2  0  0  0  0  0  0
   40.0480   32.5760   45.8290 C   0  0  0  0  0  2  0  0  0  0  0  0
   33.4080   29.3470   47.0460 C   0  0  0  0  0  0  0  0  0  0  0  0
   32.9440   29.8130   46.1400 H   0  0  0  0  0  0  0  0  0  0  0  0
   32.6550   29.3840   47.8610 H   0  0  0  0  0  0  0  0  0  0  0  0
   33.6760   27.9150   46.7190 C   0  0  0  0  0  0  0  0  0  0  0  0
   33.7060   26.8930   47.6320 C   0  0  0  0  0  0  0  0  0  0  0  0
   33.9630   25.5990   47.2300 C   0  0  0  0  0  0  0  0  0  0  0  0
   34.2000   25.3010   45.8740 C   0  0  0  0  0  0  0  0  0  0  0  0
   34.1710   26.3150   44.9600 C   0  0  0  0  0  0  0  0  0  0  0  0
   33.9100   27.6090   45.3850 C   0  0  0  0  0  0  0  0  0  0  0  0
   33.5180   27.1710   48.6660 H   0  0  0  0  0  0  0  0  0  0  0  0
   33.9730   24.8470   47.9910 H   0  0  0  0  0  0  0  0  0  0  0  0
   34.3870   24.2610   45.6850 H   0  0  0  0  0  0  0  0  0  0  0  0
   34.3550   26.0630   43.9230 H   0  0  0  0  0  0  0  0  0  0  0  0
   33.9020   28.3710   44.6030 H   0  0  0  0  0  0  0  0  0  0  0  0
  1  7  1  0  0  0  0
  2  1  2  0  0  0  0
  3  9  1  0  0  0  0
  4  3  2  0  0  0  0
  5  6  2  0  0  0  0
  5  4  1  0  0  0  0
  6  7  1  0  0  0  0
  7  8  2  0  0  0  0
  8  3  1  0  0  0  0
 10  4  1  0  0  0  0
 11  5  1  0  0  0  0
 12 11  1  0  0  0  0
 13 12  1  0  0  0  0
 14 13  1  0  0  0  0
 14 15  1  0  0  0  0
 15 16  1  0  0  0  0
 16 11  1  0  0  0  0
 17  2  1  0  0  0  0
 17 19  1  0  0  0  0
 18 17  1  0  0  0  0
 20 17  1  0  0  0  0
 20 21  1  0  0  0  0
 21 26  1  0  0  0  0
 22 21  2  0  0  0  0
 22 27  1  0  0  0  0
 23 22  1  0  0  0  0
 24 25  1  0  0  0  0
 24 23  2  0  0  0  0
 25 20  2  0  0  0  0
 28 23  1  0  0  0  0
 29 24  1  0  0  0  0
 30 25  1  0  0  0  0
M  END
>  <minimizedAffinity>
-5.80252886

>  <minimizedRMSD>
2.20569324

$$$$
