
 OpenBabel03272509053D

 30 32  0  0  0  0  0  0  0  0999 V2000
   36.3240   29.1600   49.6620 C   0  0  0  0  0  3  0  0  0  0  0  0
   35.3140   28.8790   48.8800 C   0  0  0  0  0  3  0  0  0  0  0  0
   38.4010   32.1720   49.7330 C   0  0  0  0  0  0  0  0  0  0  0  0
   38.8240   32.2570   48.3910 C   0  0  0  0  0  0  0  0  0  0  0  0
   38.3790   31.2670   47.4930 C   0  0  0  0  0  0  0  0  0  0  0  0
   37.5710   30.2920   47.9740 N   0  0  0  0  0  0  0  0  0  0  0  0
   37.1870   30.2410   49.2650 C   0  0  0  0  0  0  0  0  0  0  0  0
   37.6130   31.1900   50.1260 N   0  0  0  0  0  0  0  0  0  0  0  0
   38.7590   32.9450   50.3950 H   0  0  0  0  0  0  0  0  0  0  0  0
   39.4560   33.0060   47.9790 H   0  0  0  0  0  0  0  0  0  0  0  0
   38.7280   31.2050   46.0490 C   0  0  0  0  0  3  0  0  0  0  0  0
   38.0690   32.3120   45.2610 C   0  0  0  0  0  2  0  0  0  0  0  0
   38.6390   32.1960   43.8430 C   0  0  0  0  0  2  0  0  0  0  0  0
   40.0790   32.6470   43.8020 C   0  0  0  0  0  2  0  0  0  0  0  0
   40.5970   32.6710   45.2140 C   0  0  0  0  0  2  0  0  0  0  0  0
   40.2330   31.3320   45.8400 C   0  0  0  0  0  2  0  0  0  0  0  0
   34.2960   27.8280   49.0630 C   0  0  0  0  0  0  0  0  0  0  0  0
   33.3750   28.3120   49.4780 H   0  0  0  0  0  0  0  0  0  0  0  0
   34.6050   27.0350   49.7770 H   0  0  0  0  0  0  0  0  0  0  0  0
   33.9090   27.1740   47.7770 C   0  0  0  0  0  0  0  0  0  0  0  0
   33.6460   25.8380   47.6220 C   0  0  0  0  0  0  0  0  0  0  0  0
   33.2960   25.3290   46.3890 C   0  0  0  0  0  0  0  0  0  0  0  0
   33.2020   26.1710   45.2640 C   0  0  0  0  0  0  0  0  0  0  0  0
   33.4620   27.5040   45.4120 C   0  0  0  0  0  0  0  0  0  0  0  0
   33.8120   27.9950   46.6600 C   0  0  0  0  0  0  0  0  0  0  0  0
   33.7330   25.2280   48.5180 H   0  0  0  0  0  0  0  0  0  0  0  0
   33.1040   24.2780   46.3340 H   0  0  0  0  0  0  0  0  0  0  0  0
   32.9210   25.6600   44.3630 H   0  0  0  0  0  0  0  0  0  0  0  0
   33.3830   28.1320   44.5340 H   0  0  0  0  0  0  0  0  0  0  0  0
   34.0070   29.0680   46.7080 H   0  0  0  0  0  0  0  0  0  0  0  0
  2 17  1  0  0  0  0
  2  1  2  0  0  0  0
  3  8  1  0  0  0  0
  3  9  1  0  0  0  0
  4  3  2  0  0  0  0
  5  6  2  0  0  0  0
  5  4  1  0  0  0  0
  6  7  1  0  0  0  0
  7  1  1  0  0  0  0
  7  8  2  0  0  0  0
 10  4  1  0  0  0  0
 11  5  1  0  0  0  0
 12 11  1  0  0  0  0
 13 12  1  0  0  0  0
 14 13  1  0  0  0  0
 14 15  1  0  0  0  0
 15 16  1  0  0  0  0
 16 11  1  0  0  0  0
 17 18  1  0  0  0  0
 17 19  1  0  0  0  0
 20 17  1  0  0  0  0
 21 20  1  0  0  0  0
 21 26  1  0  0  0  0
 22 21  2  0  0  0  0
 23 24  2  0  0  0  0
 23 22  1  0  0  0  0
 24 25  1  0  0  0  0
 25 30  1  0  0  0  0
 25 20  2  0  0  0  0
 27 22  1  0  0  0  0
 28 23  1  0  0  0  0
 29 24  1  0  0  0  0
M  END
>  <minimizedAffinity>
-6.12608433

>  <minimizedRMSD>
2.06105375

$$$$
