
 OpenBabel03272508123D

 31 33  0  0  0  0  0  0  0  0999 V2000
   36.6220   29.4460   44.0380 Cl  0  0  0  0  0  0  0  0  0  0  0  0
   38.2710   29.8330   43.4840 C   0  0  0  0  0  0  0  0  0  0  0  0
   39.2830   30.3100   44.3190 C   0  0  0  0  0  0  0  0  0  0  0  0
   40.5070   30.5640   43.7460 C   0  0  0  0  0  0  0  0  0  0  0  0
   40.7280   30.3580   42.4060 C   0  0  0  0  0  0  0  0  0  0  0  0
   39.7450   29.8910   41.5720 C   0  0  0  0  0  0  0  0  0  0  0  0
   38.5240   29.6320   42.1150 C   0  0  0  0  0  0  0  0  0  0  0  0
   41.2430   30.9300   44.4510 H   0  0  0  0  0  0  0  0  0  0  0  0
   41.7090   30.5760   42.0060 H   0  0  0  0  0  0  0  0  0  0  0  0
   39.9280   29.7310   40.5100 H   0  0  0  0  0  0  0  0  0  0  0  0
   37.4340   29.1200   41.2220 C   0  0  0  0  0  3  0  0  0  0  0  0
   37.9710   27.8140   40.6590 C   0  0  0  0  0  2  0  0  0  0  0  0
   36.9930   27.2840   39.6610 C   0  0  0  0  0  2  0  0  0  0  0  0
   35.6590   27.9880   39.7160 C   0  0  0  0  0  2  0  0  0  0  0  0
   35.7950   29.4800   39.4970 C   0  0  0  0  0  2  0  0  0  0  0  0
   37.0660   30.0430   40.1160 C   0  0  0  0  0  2  0  0  0  0  0  0
   38.8700   30.4470   45.6140 O   0  0  0  0  0  0  0  0  0  0  0  0
   39.4490   32.4850   47.0960 O   0  0  0  0  0  0  0  0  0  0  0  0
   38.3010   31.8260   46.4020 P   0  0  1  0  0  0  0  0  0  0  0  0
   37.7190   32.8480   45.1680 O   0  0  0  0  0  0  0  0  0  0  0  0
   37.4860   32.3630   44.3460 H   0  0  0  0  0  0  0  0  0  0  0  0
   37.0240   31.3980   47.4280 O   0  0  0  0  0  0  0  0  0  0  0  0
   37.6160   30.5330   50.9760 C   0  0  0  0  0  0  0  0  0  0  0  0
   37.7030   31.2930   49.8080 C   0  0  0  0  0  0  0  0  0  0  0  0
   37.0720   30.8350   48.6540 C   0  0  0  0  0  0  0  0  0  0  0  0
   36.3920   29.6440   48.7360 N   0  0  0  0  0  0  0  0  0  0  0  0
   36.3310   28.9400   49.8830 C   0  0  0  0  0  0  0  0  0  0  0  0
   36.9410   29.3860   50.9930 N   0  0  0  0  0  0  0  0  0  0  0  0
   38.1380   30.9630   51.8340 H   0  0  0  0  0  0  0  0  0  0  0  0
   38.2110   32.2270   49.6620 H   0  0  0  0  0  0  0  0  0  0  0  0
   35.7770   27.9890   49.9120 H   0  0  0  0  0  0  0  0  0  0  0  0
  2  1  1  0  0  0  0
  2  3  1  0  0  0  0
  3 17  1  0  0  0  0
  4  3  2  0  0  0  0
  4  8  1  0  0  0  0
  5  4  1  0  0  0  0
  6  7  1  0  0  0  0
  6  5  2  0  0  0  0
  7  2  2  0  0  0  0
  9  5  1  0  0  0  0
 10  6  1  0  0  0  0
 11  7  1  0  0  0  0
 12 11  1  0  0  0  0
 13 14  1  0  0  0  0
 13 12  1  0  0  0  0
 15 14  1  0  0  0  0
 15 16  1  0  0  0  0
 16 11  1  0  0  0  0
 17 19  1  0  0  0  0
 19 18  2  1  0  0  0
 19 22  1  0  0  0  0
 20 19  1  0  0  0  0
 21 20  1  0  0  0  0
 22 25  1  0  0  0  0
 23 28  1  0  0  0  0
 23 29  1  0  0  0  0
 24 23  2  0  0  0  0
 25 26  2  0  0  0  0
 25 24  1  0  0  0  0
 26 27  1  0  0  0  0
 27 31  1  0  0  0  0
 27 28  2  0  0  0  0
 30 24  1  0  0  0  0
M  END
>  <minimizedAffinity>
-4.8103385

>  <minimizedRMSD>
0.0133362338

$$$$
