
 OpenBabel03272509543D

 40 43  0  0  0  0  0  0  0  0999 V2000
   35.0470   28.3590   49.0600 O   0  0  0  0  0  0  0  0  0  0  0  0
   37.2530   30.1400   51.2920 C   0  0  0  0  0  0  0  0  0  0  0  0
   38.0290   30.8610   50.3520 C   0  0  0  0  0  0  0  0  0  0  0  0
   37.7410   30.6850   49.0090 C   0  0  0  0  0  0  0  0  0  0  0  0
   36.7250   29.8240   48.7100 N   0  0  0  0  0  0  0  0  0  0  0  0
   36.0050   29.1560   49.6150 C   0  0  0  0  0  0  0  0  0  0  0  0
   36.2830   29.3240   50.9230 N   0  0  0  0  0  0  0  0  0  0  0  0
   37.4850   30.2850   52.3350 H   0  0  0  0  0  0  0  0  0  0  0  0
   38.8160   31.5260   50.5960 H   0  0  0  0  0  0  0  0  0  0  0  0
   38.9330   33.3210   48.9470 F   0  0  0  0  0  0  0  0  0  0  0  0
   38.9870   32.5560   47.8540 C   0  0  0  0  0  0  0  0  0  0  0  0
   38.4230   31.3310   47.9130 C   0  0  0  0  0  0  0  0  0  0  0  0
   38.5320   30.6090   46.7190 C   0  0  0  0  0  0  0  0  0  0  0  0
   39.1590   31.1180   45.6060 C   0  0  0  0  0  0  0  0  0  0  0  0
   39.7130   32.3710   45.6090 C   0  0  0  0  0  0  0  0  0  0  0  0
   39.6180   33.0930   46.7610 C   0  0  0  0  0  0  0  0  0  0  0  0
   38.1290   29.6090   46.6060 H   0  0  0  0  0  0  0  0  0  0  0  0
   39.2360   30.5440   44.6830 H   0  0  0  0  0  0  0  0  0  0  0  0
   40.2000   32.7430   44.7160 H   0  0  0  0  0  0  0  0  0  0  0  0
   40.0490   34.0850   46.7880 H   0  0  0  0  0  0  0  0  0  0  0  0
   34.2830   28.8630   47.9730 C   0  0  0  0  0  0  0  0  0  0  0  0
   34.9570   29.3260   47.2280 H   0  0  0  0  0  0  0  0  0  0  0  0
   33.6440   29.6840   48.3710 H   0  0  0  0  0  0  0  0  0  0  0  0
   33.3870   27.7960   47.4150 C   0  0  0  0  0  0  0  0  0  0  0  0
   33.6910   26.7800   47.6850 H   0  0  0  0  0  0  0  0  0  0  0  0
   33.4150   27.8870   46.2890 H   0  0  0  0  0  0  0  0  0  0  0  0
   31.9590   28.0000   47.7810 C   0  0  0  0  0  0  0  0  0  0  0  0
   31.5570   27.5940   49.0540 C   0  0  0  0  0  0  0  0  0  0  0  0
   30.2650   27.7380   49.4900 C   0  0  0  0  0  0  0  0  0  0  0  0
   29.3700   28.2750   48.6860 N   0  0  0  0  0  0  0  0  0  0  0  0
   29.7660   28.6740   47.4340 C   0  0  0  0  0  0  0  0  0  0  0  0
   31.0270   28.5470   46.9760 N   0  0  0  0  0  0  0  0  0  0  0  0
   32.2720   27.1460   49.7450 H   0  0  0  0  0  0  0  0  0  0  0  0
   29.9980   27.4110   50.4800 H   0  0  0  0  0  0  0  0  0  0  0  0
   28.7810   29.2850   46.5010 C   0  0  0  0  0  0  0  0  0  0  0  0
   27.4300   29.2270   47.1800 C   0  0  0  0  0  0  0  0  0  0  0  0
   26.7080   27.9970   46.6770 C   0  0  0  0  0  0  0  0  0  0  0  0
   26.2980   28.2970   45.2490 C   0  0  0  0  0  0  0  0  0  0  0  0
   27.4690   28.7690   44.4490 C   0  0  0  0  0  0  0  0  0  0  0  0
   28.7960   28.6160   45.1500 C   0  0  0  0  0  0  0  0  0  0  0  0
  1  6  1  0  0  0  0
  2  8  1  0  0  0  0
  3  9  1  0  0  0  0
  3  2  2  0  0  0  0
  4  3  1  0  0  0  0
  5  4  2  0  0  0  0
  5  6  1  0  0  0  0
  6  7  2  0  0  0  0
  7  2  1  0  0  0  0
 11 12  1  0  0  0  0
 11 10  1  0  0  0  0
 12  4  1  0  0  0  0
 13 12  2  0  0  0  0
 14 15  2  0  0  0  0
 14 13  1  0  0  0  0
 15 16  1  0  0  0  0
 16 20  1  0  0  0  0
 16 11  2  0  0  0  0
 17 13  1  0  0  0  0
 18 14  1  0  0  0  0
 19 15  1  0  0  0  0
 21 23  1  0  0  0  0
 21  1  1  0  0  0  0
 22 21  1  0  0  0  0
 24 25  1  0  0  0  0
 24 27  1  0  0  0  0
 24 21  1  0  0  0  0
 26 24  1  0  0  0  0
 27 28  1  0  0  0  0
 28 29  2  0  0  0  0
 28 33  1  0  0  0  0
 29 34  1  0  0  0  0
 30 29  1  0  0  0  0
 31 30  2  0  0  0  0
 32 31  1  0  0  0  0
 32 27  2  0  0  0  0
 35 36  1  0  0  0  0
 35 31  1  0  0  0  0
 37 36  1  0  0  0  0
 38 37  1  0  0  0  0
 39 40  1  0  0  0  0
 39 38  1  0  0  0  0
 40 35  1  0  0  0  0
M  END
>  <minimizedAffinity>
-6.95394278

>  <minimizedRMSD>
0.733730018

$$$$
