
 OpenBabel03272509053D

 30 32  0  0  0  0  0  0  0  0999 V2000
   34.9080   28.3280   49.6280 C   0  0  0  0  0  3  0  0  0  0  0  0
   34.2940   28.3830   48.4740 C   0  0  0  0  0  3  0  0  0  0  0  0
   37.5400   30.2980   51.2360 C   0  0  0  0  0  0  0  0  0  0  0  0
   37.9970   31.0890   50.1640 C   0  0  0  0  0  0  0  0  0  0  0  0
   37.3820   30.9210   48.9070 C   0  0  0  0  0  0  0  0  0  0  0  0
   36.3880   30.0070   48.8060 N   0  0  0  0  0  0  0  0  0  0  0  0
   35.9750   29.2660   49.8530 C   0  0  0  0  0  0  0  0  0  0  0  0
   36.5640   29.4270   51.0580 N   0  0  0  0  0  0  0  0  0  0  0  0
   38.0310   30.4500   52.1850 H   0  0  0  0  0  0  0  0  0  0  0  0
   38.7740   31.8140   50.2070 H   0  0  0  0  0  0  0  0  0  0  0  0
   37.7410   31.6710   47.6750 C   0  0  0  0  0  3  0  0  0  0  0  0
   39.1470   32.2170   47.7350 C   0  0  0  0  0  2  0  0  0  0  0  0
   39.4060   32.8260   46.3530 C   0  0  0  0  0  2  0  0  0  0  0  0
   39.5710   31.7480   45.3090 C   0  0  0  0  0  2  0  0  0  0  0  0
   39.0320   30.4650   45.8790 C   0  0  0  0  0  2  0  0  0  0  0  0
   37.6510   30.7810   46.4420 C   0  0  0  0  0  2  0  0  0  0  0  0
   33.1790   27.5390   48.0040 C   0  0  0  0  0  0  0  0  0  0  0  0
   32.4590   28.1980   47.4540 H   0  0  0  0  0  0  0  0  0  0  0  0
   32.6190   27.0500   48.8290 H   0  0  0  0  0  0  0  0  0  0  0  0
   33.6250   26.4800   47.0500 C   0  0  0  0  0  0  0  0  0  0  0  0
   33.8450   25.1680   47.3790 C   0  0  0  0  0  0  0  0  0  0  0  0
   34.2570   24.2630   46.4220 C   0  0  0  0  0  0  0  0  0  0  0  0
   34.4610   24.6690   45.0890 C   0  0  0  0  0  0  0  0  0  0  0  0
   34.2430   25.9760   44.7550 C   0  0  0  0  0  0  0  0  0  0  0  0
   33.8280   26.8690   45.7310 C   0  0  0  0  0  0  0  0  0  0  0  0
   33.6750   24.9020   48.4190 H   0  0  0  0  0  0  0  0  0  0  0  0
   34.4110   23.2550   46.7430 H   0  0  0  0  0  0  0  0  0  0  0  0
   34.7790   23.8770   44.4390 H   0  0  0  0  0  0  0  0  0  0  0  0
   34.4050   26.2650   43.7250 H   0  0  0  0  0  0  0  0  0  0  0  0
   33.6730   27.8960   45.3970 H   0  0  0  0  0  0  0  0  0  0  0  0
  1  7  1  0  0  0  0
  2  1  2  0  0  0  0
  3  9  1  0  0  0  0
  4 10  1  0  0  0  0
  4  3  2  0  0  0  0
  5  4  1  0  0  0  0
  6  5  2  0  0  0  0
  6  7  1  0  0  0  0
  7  8  2  0  0  0  0
  8  3  1  0  0  0  0
 11 12  1  0  0  0  0
 11  5  1  0  0  0  0
 13 12  1  0  0  0  0
 14 15  1  0  0  0  0
 14 13  1  0  0  0  0
 15 16  1  0  0  0  0
 16 11  1  0  0  0  0
 17  2  1  0  0  0  0
 17 19  1  0  0  0  0
 18 17  1  0  0  0  0
 20 21  1  0  0  0  0
 20 17  1  0  0  0  0
 21 26  1  0  0  0  0
 22 27  1  0  0  0  0
 22 21  2  0  0  0  0
 23 22  1  0  0  0  0
 24 23  2  0  0  0  0
 24 25  1  0  0  0  0
 25 20  2  0  0  0  0
 28 23  1  0  0  0  0
 29 24  1  0  0  0  0
 30 25  1  0  0  0  0
M  END
>  <minimizedAffinity>
-6.04176092

>  <minimizedRMSD>
1.09379745

$$$$
