
 OpenBabel03272507333D

 33 36  0  0  1  0  0  0  0  0999 V2000
   35.7650   29.1430   49.8150 C   0  0  0  0  0  0  0  0  0  0  0  0
   34.6460   29.5880   50.4780 C   0  0  0  0  0  0  0  0  0  0  0  0
   33.5350   28.9480   49.9070 C   0  0  0  0  0  0  0  0  0  0  0  0
   34.0590   28.1430   48.9190 C   0  0  0  0  0  0  0  0  0  0  0  0
   35.3670   28.2900   48.9010 O   0  0  0  0  0  0  0  0  0  0  0  0
   34.5370   30.2960   51.2970 H   0  0  0  0  0  0  0  0  0  0  0  0
   32.4910   29.0280   50.1440 H   0  0  0  0  0  0  0  0  0  0  0  0
   37.1010   29.6040   50.1520 C   0  0  0  0  0  0  0  0  0  0  0  0
   37.6700   29.1400   51.1520 O   0  0  0  0  0  0  0  0  0  0  0  0
   37.6880   30.5870   49.2870 C   0  0  0  0  0  0  0  0  0  0  0  0
   38.0180   31.8070   49.8440 C   0  0  0  0  0  0  0  0  0  0  0  0
   38.5890   32.7870   49.0330 C   0  0  0  0  0  0  0  0  0  0  0  0
   38.7970   32.4870   47.7020 N   0  0  0  0  0  0  0  0  0  0  0  0
   38.4650   31.2930   47.1990 C   0  0  0  0  0  0  0  0  0  0  0  0
   37.9160   30.3500   47.9760 N   0  0  0  0  0  0  0  0  0  0  0  0
   37.8690   32.0840   50.8930 H   0  0  0  0  0  0  0  0  0  0  0  0
   38.8700   33.7560   49.3910 H   0  0  0  0  0  0  0  0  0  0  0  0
   38.6830   31.1880   46.1360 H   0  0  0  0  0  0  0  0  0  0  0  0
   33.2950   27.2650   48.0340 C   0  0  0  0  0  0  0  0  0  0  0  0
   32.0280   27.2200   48.1780 O   0  0  0  0  0  0  0  0  0  0  0  0
   33.9950   26.4360   46.9950 C   0  0  1  0  0  0  0  0  0  0  0  0
   33.7980   24.9020   47.3270 C   0  0  0  0  0  0  0  0  0  0  0  0
   33.2280   25.5580   46.1260 C   0  0  2  0  0  0  0  0  0  0  0  0
   35.0870   26.6390   46.9840 H   0  0  0  0  0  0  0  0  0  0  0  0
   33.1360   24.6510   48.1550 H   0  0  0  0  0  0  0  0  0  0  0  0
   34.6890   24.2820   47.2720 H   0  0  0  0  0  0  0  0  0  0  0  0
   32.1110   25.7420   46.1830 H   0  0  0  0  0  0  0  0  0  0  0  0
   33.6840   25.0250   44.8250 C   0  0  0  0  0  3  0  0  0  0  0  0
   33.7270   25.9770   43.6720 C   0  0  0  0  0  2  0  0  0  0  0  0
   35.0570   26.6310   43.4560 C   0  0  0  0  0  2  0  0  0  0  0  0
   36.1630   25.6370   43.1920 C   0  0  0  0  0  2  0  0  0  0  0  0
   35.8550   24.2790   43.7740 C   0  0  0  0  0  2  0  0  0  0  0  0
   35.0700   24.4490   45.0320 C   0  0  0  0  0  2  0  0  0  0  0  0
  1  8  1  0  0  0  0
  1  2  2  0  0  0  0
  2  6  1  0  0  0  0
  3  7  1  0  0  0  0
  3  2  1  0  0  0  0
  4  3  2  0  0  0  0
  5  4  1  0  0  0  0
  5  1  1  0  0  0  0
  8  9  2  0  0  0  0
 10 11  1  0  0  0  0
 10  8  1  0  0  0  0
 11 16  1  0  0  0  0
 12 17  1  0  0  0  0
 12 11  2  0  0  0  0
 13 12  1  0  0  0  0
 14 13  2  0  0  0  0
 14 15  1  0  0  0  0
 15 10  2  0  0  0  0
 18 14  1  0  0  0  0
 19 20  2  0  0  0  0
 19  4  1  0  0  0  0
 21 24  1  6  0  0  0
 21 22  1  0  0  0  0
 21 19  1  0  0  0  0
 22 25  1  0  0  0  0
 23 27  1  1  0  0  0
 23 21  1  0  0  0  0
 23 22  1  0  0  0  0
 26 22  1  0  0  0  0
 28 33  1  0  0  0  0
 28 23  1  0  0  0  0
 29 28  1  0  0  0  0
 30 29  1  0  0  0  0
 31 30  1  0  0  0  0
 31 32  1  0  0  0  0
 32 33  1  0  0  0  0
M  END
>  <minimizedAffinity>
-5.21313381

>  <minimizedRMSD>
0.741740942

$$$$
