
 OpenBabel03272509053D

 30 32  0  0  0  0  0  0  0  0999 V2000
   34.7130   28.4200   49.7010 C   0  0  0  0  0  3  0  0  0  0  0  0
   34.3890   27.9800   48.5130 C   0  0  0  0  0  3  0  0  0  0  0  0
   37.3790   30.5450   51.0310 C   0  0  0  0  0  0  0  0  0  0  0  0
   38.1010   30.8600   49.8630 C   0  0  0  0  0  0  0  0  0  0  0  0
   37.6460   30.3270   48.6400 C   0  0  0  0  0  0  0  0  0  0  0  0
   36.5410   29.5440   48.6620 N   0  0  0  0  0  0  0  0  0  0  0  0
   35.8750   29.2620   49.7990 C   0  0  0  0  0  0  0  0  0  0  0  0
   36.3100   29.7740   50.9720 N   0  0  0  0  0  0  0  0  0  0  0  0
   37.7520   30.9690   51.9510 H   0  0  0  0  0  0  0  0  0  0  0  0
   38.9700   31.4700   49.8080 H   0  0  0  0  0  0  0  0  0  0  0  0
   38.2860   30.5570   47.3190 C   0  0  0  0  0  3  0  0  0  0  0  0
   37.2760   30.9200   46.2560 C   0  0  0  0  0  2  0  0  0  0  0  0
   38.1010   31.2640   45.0110 C   0  0  0  0  0  2  0  0  0  0  0  0
   38.8120   32.5830   45.1810 C   0  0  0  0  0  2  0  0  0  0  0  0
   38.8080   32.9270   46.6450 C   0  0  0  0  0  2  0  0  0  0  0  0
   39.3010   31.6930   47.3870 C   0  0  0  0  0  2  0  0  0  0  0  0
   33.2540   27.1100   48.1510 C   0  0  0  0  0  0  0  0  0  0  0  0
   32.4560   27.7570   47.7040 H   0  0  0  0  0  0  0  0  0  0  0  0
   32.8070   26.5850   49.0210 H   0  0  0  0  0  0  0  0  0  0  0  0
   33.6200   26.0890   47.1250 C   0  0  0  0  0  0  0  0  0  0  0  0
   33.7780   24.7500   47.3710 C   0  0  0  0  0  0  0  0  0  0  0  0
   34.1180   23.8830   46.3530 C   0  0  0  0  0  0  0  0  0  0  0  0
   34.3100   24.3560   45.0400 C   0  0  0  0  0  0  0  0  0  0  0  0
   34.1530   25.6910   44.7890 C   0  0  0  0  0  0  0  0  0  0  0  0
   33.8110   26.5440   45.8260 C   0  0  0  0  0  0  0  0  0  0  0  0
   33.6210   24.4310   48.3980 H   0  0  0  0  0  0  0  0  0  0  0  0
   34.2270   22.8510   46.6100 H   0  0  0  0  0  0  0  0  0  0  0  0
   34.5700   23.5890   44.3360 H   0  0  0  0  0  0  0  0  0  0  0  0
   34.3050   26.0320   43.7730 H   0  0  0  0  0  0  0  0  0  0  0  0
   33.7020   27.5960   45.5560 H   0  0  0  0  0  0  0  0  0  0  0  0
  1  7  1  0  0  0  0
  2  1  2  0  0  0  0
  3  9  1  0  0  0  0
  4  3  2  0  0  0  0
  5  6  2  0  0  0  0
  5  4  1  0  0  0  0
  6  7  1  0  0  0  0
  7  8  2  0  0  0  0
  8  3  1  0  0  0  0
 10  4  1  0  0  0  0
 11 16  1  0  0  0  0
 11  5  1  0  0  0  0
 12 11  1  0  0  0  0
 13 14  1  0  0  0  0
 13 12  1  0  0  0  0
 14 15  1  0  0  0  0
 15 16  1  0  0  0  0
 17  2  1  0  0  0  0
 17 19  1  0  0  0  0
 18 17  1  0  0  0  0
 20 21  1  0  0  0  0
 20 17  1  0  0  0  0
 21 26  1  0  0  0  0
 22 27  1  0  0  0  0
 22 21  2  0  0  0  0
 23 22  1  0  0  0  0
 24 23  2  0  0  0  0
 24 25  1  0  0  0  0
 25 20  2  0  0  0  0
 28 23  1  0  0  0  0
 29 24  1  0  0  0  0
 30 25  1  0  0  0  0
M  END
>  <minimizedAffinity>
-5.5568471

>  <minimizedRMSD>
0.401123732

$$$$
