
 OpenBabel03272500273D

 31 33  0  0  0  0  0  0  0  0999 V2000
   39.7100   31.9620   46.7590 C   0  0  0  0  0  0  0  0  0  0  0  0
   39.9380   30.9320   47.1700 H   0  0  0  0  0  0  0  0  0  0  0  0
   40.6140   32.5520   47.0960 H   0  0  0  0  0  0  0  0  0  0  0  0
   39.7300   31.9180   45.3310 C   0  0  0  0  0  0  0  0  0  0  0  0
   39.5480   33.0540   44.6110 C   0  0  0  0  0  0  0  0  0  0  0  0
   39.5550   33.0770   43.2130 C   0  0  0  0  0  0  0  0  0  0  0  0
   39.7650   31.8250   42.6270 N   0  0  0  0  0  0  0  0  0  0  0  0
   39.9430   30.7120   43.3540 C   0  0  0  0  0  0  0  0  0  0  0  0
   39.9220   30.7830   44.7020 N   0  0  0  0  0  0  0  0  0  0  0  0
   39.3830   34.0520   44.9930 H   0  0  0  0  0  0  0  0  0  0  0  0
   39.4160   33.9400   42.5980 H   0  0  0  0  0  0  0  0  0  0  0  0
   40.1610   29.4180   42.6410 C   0  0  0  0  0  0  0  0  0  0  0  0
   39.0280   29.1400   41.7070 C   0  0  0  0  0  0  0  0  0  0  0  0
   39.3430   29.4110   40.2590 C   0  0  0  0  0  0  0  0  0  0  0  0
   40.5020   28.4570   39.9380 C   0  0  0  0  0  0  0  0  0  0  0  0
   41.6870   29.1150   40.6330 C   0  0  0  0  0  0  0  0  0  0  0  0
   41.5360   29.2730   42.0920 C   0  0  0  0  0  0  0  0  0  0  0  0
   38.5330   32.4410   47.4870 C   0  0  0  0  0  0  0  0  0  0  0  0
   38.7890   33.3010   48.1740 H   0  0  0  0  0  0  0  0  0  0  0  0
   37.7980   32.8810   46.7820 H   0  0  0  0  0  0  0  0  0  0  0  0
   37.8500   31.4270   48.3200 C   0  0  0  0  0  0  0  0  0  0  0  0
   36.8650   30.6180   47.7780 C   0  0  0  0  0  0  0  0  0  0  0  0
   36.4210   29.7920   48.7750 C   0  0  0  0  0  0  0  0  0  0  0  0
   37.1080   30.0890   49.8720 N   0  0  0  0  0  0  0  0  0  0  0  0
   37.9460   31.0580   49.5830 N   0  0  0  0  0  0  0  0  0  0  0  0
   36.4580   30.5770   46.7600 H   0  0  0  0  0  0  0  0  0  0  0  0
   35.6420   29.0150   48.7100 H   0  0  0  0  0  0  0  0  0  0  0  0
   36.9900   29.4780   51.1970 C   0  0  0  0  0  0  0  0  0  0  0  0
   37.8060   28.3850   51.2940 F   0  0  0  0  0  0  0  0  0  0  0  0
   35.6960   29.1070   51.4840 F   0  0  0  0  0  0  0  0  0  0  0  0
   37.4070   30.3730   52.1850 F   0  0  0  0  0  0  0  0  0  0  0  0
  1  3  1  0  0  0  0
  1  2  1  0  0  0  0
  1 18  1  0  0  0  0
  4  1  1  0  0  0  0
  5 10  1  0  0  0  0
  5  4  2  0  0  0  0
  6  5  1  0  0  0  0
  7  6  2  0  0  0  0
  7  8  1  0  0  0  0
  8  9  2  0  0  0  0
  9  4  1  0  0  0  0
 11  6  1  0  0  0  0
 12  8  1  0  0  0  0
 13 12  1  0  0  0  0
 14 13  1  0  0  0  0
 15 14  1  0  0  0  0
 15 16  1  0  0  0  0
 16 17  1  0  0  0  0
 17 12  1  0  0  0  0
 18 19  1  0  0  0  0
 18 21  1  0  0  0  0
 20 18  1  0  0  0  0
 21 25  2  0  0  0  0
 22 21  1  0  0  0  0
 22 23  2  0  0  0  0
 23 24  1  0  0  0  0
 24 28  1  0  0  0  0
 25 24  1  0  0  0  0
 26 22  1  0  0  0  0
 27 23  1  0  0  0  0
 28 29  1  0  0  0  0
 28 30  1  0  0  0  0
 28 31  1  0  0  0  0
M  END
>  <minimizedAffinity>
-6.07415771

>  <minimizedRMSD>
0.743228018

$$$$
