
 OpenBabel03272510023D

 18 19  0  0  0  0  0  0  0  0999 V2000
   37.8730   32.8640   49.3580 C   0  0  0  0  0  0  0  0  0  0  0  0
   38.4440   32.5320   48.1180 C   0  0  0  0  0  0  0  0  0  0  0  0
   38.1770   31.2840   47.5870 C   0  0  0  0  0  0  0  0  0  0  0  0
   37.3690   30.4280   48.2940 N   0  0  0  0  0  0  0  0  0  0  0  0
   36.8420   30.7900   49.4840 C   0  0  0  0  0  0  0  0  0  0  0  0
   37.0970   31.9960   49.9990 N   0  0  0  0  0  0  0  0  0  0  0  0
   38.0260   33.8150   49.8480 H   0  0  0  0  0  0  0  0  0  0  0  0
   39.0420   33.3030   47.7030 H   0  0  0  0  0  0  0  0  0  0  0  0
   38.7750   30.9560   46.3040 C   0  0  0  0  0  3  0  0  0  0  0  0
   37.9940   31.2610   45.0820 C   0  0  0  0  0  2  0  0  0  0  0  0
   38.5690   32.4110   44.2810 C   0  0  0  0  0  2  0  0  0  0  0  0
   39.9450   31.9840   43.8130 C   0  0  0  0  0  2  0  0  0  0  0  0
   40.7480   31.3310   44.9060 C   0  0  0  0  0  2  0  0  0  0  0  0
   40.1030   31.7200   46.2090 C   0  0  0  0  0  2  0  0  0  0  0  0
   35.9820   29.8070   50.1780 C   0  0  0  0  0  0  0  0  0  0  0  0
   36.2810   29.6830   51.5270 F   0  0  0  0  0  0  0  0  0  0  0  0
   34.6430   30.1720   50.1100 F   0  0  0  0  0  0  0  0  0  0  0  0
   36.0470   28.5410   49.6430 F   0  0  0  0  0  0  0  0  0  0  0  0
  1  7  1  0  0  0  0
  1  6  1  0  0  0  0
  2  1  2  0  0  0  0
  3  2  1  0  0  0  0
  3  4  2  0  0  0  0
  4  5  1  0  0  0  0
  5  6  2  0  0  0  0
  5 15  1  0  0  0  0
  8  2  1  0  0  0  0
  9  3  1  0  0  0  0
 10  9  1  0  0  0  0
 11 10  1  0  0  0  0
 12 11  1  0  0  0  0
 12 13  1  0  0  0  0
 13 14  1  0  0  0  0
 14  9  1  0  0  0  0
 15 16  1  0  0  0  0
 17 15  1  0  0  0  0
 18 15  1  0  0  0  0
M  END
>  <minimizedAffinity>
-5.82761765

>  <minimizedRMSD>
1.60427403

$$$$
