
 OpenBabel03272510273D

 42 46  0  0  1  0  0  0  0  0999 V2000
   36.2380   30.2110   46.9230 C   0  0  0  0  0  0  0  0  0  0  0  0
   37.0710   30.7820   47.8810 C   0  0  0  0  0  0  0  0  0  0  0  0
   38.0640   31.6980   47.5300 C   0  0  0  0  0  0  0  0  0  0  0  0
   38.1650   31.9980   46.1770 C   0  0  0  0  0  0  0  0  0  0  0  0
   39.0530   32.8560   45.5900 N   0  0  0  0  0  0  0  0  0  0  0  0
   38.7840   32.8250   44.2720 C   0  0  0  0  0  0  0  0  0  0  0  0
   37.7890   32.0030   44.0230 N   0  0  0  0  0  0  0  0  0  0  0  0
   37.3630   31.4560   45.1930 C   0  0  0  0  0  0  0  0  0  0  0  0
   36.3770   30.5420   45.5800 C   0  0  0  0  0  0  0  0  0  0  0  0
   35.4780   29.5110   47.1880 H   0  0  0  0  0  0  0  0  0  0  0  0
   38.6930   32.1260   48.2800 H   0  0  0  0  0  0  0  0  0  0  0  0
   39.7860   33.4140   46.0820 H   0  0  0  0  0  0  0  0  0  0  0  0
   35.7580   30.1270   44.8060 H   0  0  0  0  0  0  0  0  0  0  0  0
   37.4350   30.1300   51.5490 C   0  0  0  0  0  0  0  0  0  0  0  0
   37.7670   30.5930   50.2940 C   0  0  0  0  0  0  0  0  0  0  0  0
   36.8630   30.3660   49.2600 C   0  0  0  0  0  0  0  0  0  0  0  0
   35.7140   29.7030   49.5600 N   0  0  0  0  0  0  0  0  0  0  0  0
   35.4070   29.2580   50.7920 C   0  0  0  0  0  0  0  0  0  0  0  0
   36.2740   29.4780   51.7740 N   0  0  0  0  0  0  0  0  0  0  0  0
   38.1610   30.3230   52.3360 H   0  0  0  0  0  0  0  0  0  0  0  0
   38.6720   31.1150   50.0640 H   0  0  0  0  0  0  0  0  0  0  0  0
   34.4840   28.7400   50.9740 H   0  0  0  0  0  0  0  0  0  0  0  0
   39.5150   33.6000   43.3590 O   0  0  0  0  0  0  0  0  0  0  0  0
   39.6780   31.8730   41.8730 N   0  0  0  0  0  0  0  0  0  0  0  0
   39.3080   33.3010   41.9820 C   0  0  1  0  0  0  0  0  0  0  0  0
   37.9120   33.4500   41.5890 C   0  0  0  0  0  0  0  0  0  0  0  0
   37.7920   33.1190   40.2270 O   0  0  0  0  0  0  0  0  0  0  0  0
   38.2510   31.8810   39.8860 C   0  0  0  0  0  0  0  0  0  0  0  0
   39.6100   31.5710   40.4600 C   0  0  2  0  0  0  0  0  0  0  0  0
   40.6830   31.8480   42.1660 H   0  0  0  0  0  0  0  0  0  0  0  0
   39.9450   33.9140   41.3250 H   0  0  0  0  0  0  0  0  0  0  0  0
   37.0890   32.9740   42.0440 H   0  0  0  0  0  0  0  0  0  0  0  0
   37.6850   34.5610   41.5970 H   0  0  0  0  0  0  0  0  0  0  0  0
   38.3340   31.8620   38.7820 H   0  0  0  0  0  0  0  0  0  0  0  0
   37.5340   31.0590   40.1410 H   0  0  0  0  0  0  0  0  0  0  0  0
   40.3910   32.1710   39.9640 H   0  0  0  0  0  0  0  0  0  0  0  0
   39.8710   30.0840   40.3050 C   0  0  0  0  0  3  0  0  0  0  0  0
   41.0740   29.6330   41.0880 C   0  0  0  0  0  2  0  0  0  0  0  0
   40.7930   28.4900   42.0320 C   0  0  0  0  0  2  0  0  0  0  0  0
   40.1620   27.3070   41.3390 C   0  0  0  0  0  2  0  0  0  0  0  0
   39.0240   27.8050   40.4790 C   0  0  0  0  0  2  0  0  0  0  0  0
   38.7040   29.2570   40.7750 C   0  0  0  0  0  2  0  0  0  0  0  0
  1 10  1  0  0  0  0
  1  2  1  0  0  0  0
  2 16  1  0  0  0  0
  3  2  2  0  0  0  0
  3 11  1  0  0  0  0
  4  3  1  0  0  0  0
  5 12  1  0  0  0  0
  5  4  1  0  0  0  0
  6  5  1  0  0  0  0
  7  6  2  0  0  0  0
  7  8  1  0  0  0  0
  8  9  1  0  0  0  0
  8  4  2  0  0  0  0
  9  1  2  0  0  0  0
 13  9  1  0  0  0  0
 14 19  1  0  0  0  0
 14 20  1  0  0  0  0
 15 14  2  0  0  0  0
 16 17  2  0  0  0  0
 16 15  1  0  0  0  0
 17 18  1  0  0  0  0
 18 22  1  0  0  0  0
 18 19  2  0  0  0  0
 21 15  1  0  0  0  0
 23  6  1  0  0  0  0
 24 25  1  0  0  0  0
 24 30  1  0  0  0  0
 25 31  1  6  0  0  0
 25 23  1  0  0  0  0
 26 33  1  0  0  0  0
 26 25  1  0  0  0  0
 26 32  1  0  0  0  0
 27 26  1  0  0  0  0
 28 35  1  0  0  0  0
 28 27  1  0  0  0  0
 28 29  1  0  0  0  0
 29 36  1  6  0  0  0
 29 24  1  0  0  0  0
 34 28  1  0  0  0  0
 37 29  1  0  0  0  0
 37 42  1  0  0  0  0
 37 38  1  0  0  0  0
 38 39  1  0  0  0  0
 40 39  1  0  0  0  0
 41 42  1  0  0  0  0
 41 40  1  0  0  0  0
M  END
>  <minimizedAffinity>
-6.20503426

>  <minimizedRMSD>
0.459173203

$$$$
