
 OpenBabel03272510303D

 25 27  0  0  0  0  0  0  0  0999 V2000
   37.4480   31.4750   49.1350 C   0  0  0  0  0  0  0  0  0  0  0  0
   38.2190   32.5840   49.5150 C   0  0  0  0  0  0  0  0  0  0  0  0
   38.9800   33.1760   48.5080 C   0  0  0  0  0  0  0  0  0  0  0  0
   38.9350   32.6620   47.2480 N   0  0  0  0  0  0  0  0  0  0  0  0
   38.1720   31.5870   46.9300 C   0  0  0  0  0  0  0  0  0  0  0  0
   37.4080   30.9750   47.8980 N   0  0  0  0  0  0  0  0  0  0  0  0
   38.2280   32.9610   50.5190 H   0  0  0  0  0  0  0  0  0  0  0  0
   39.5980   34.0330   48.7250 H   0  0  0  0  0  0  0  0  0  0  0  0
   36.5850   30.8470   50.1800 C   0  0  0  0  0  0  0  0  0  0  0  0
   36.2080   29.4550   50.1670 C   0  0  0  0  0  0  0  0  0  0  0  0
   37.3420   29.8710   51.0860 C   0  0  0  0  0  0  0  0  0  0  0  0
   35.9380   31.5900   50.7110 H   0  0  0  0  0  0  0  0  0  0  0  0
   36.5230   28.7200   49.4020 H   0  0  0  0  0  0  0  0  0  0  0  0
   35.2310   29.1740   50.6170 H   0  0  0  0  0  0  0  0  0  0  0  0
   38.3790   29.6110   50.8520 H   0  0  0  0  0  0  0  0  0  0  0  0
   37.1210   30.0210   52.1590 H   0  0  0  0  0  0  0  0  0  0  0  0
   38.0950   31.0410   45.5820 C   0  0  0  0  0  0  0  0  0  0  0  0
   37.8520   31.9050   44.9000 H   0  0  0  0  0  0  0  0  0  0  0  0
   37.2670   30.3090   45.4410 H   0  0  0  0  0  0  0  0  0  0  0  0
   39.3330   30.3930   45.0560 C   0  0  0  0  0  0  0  0  0  0  0  0
   38.8670   29.2580   44.1500 C   0  0  0  0  0  0  0  0  0  0  0  0
   38.4490   29.7790   42.7860 C   0  0  0  0  0  0  0  0  0  0  0  0
   39.7170   30.1460   42.0410 C   0  0  0  0  0  0  0  0  0  0  0  0
   40.7580   30.5200   43.0540 C   0  0  0  0  0  0  0  0  0  0  0  0
   40.2040   31.2950   44.2330 C   0  0  0  0  0  0  0  0  0  0  0  0
  1  2  1  0  0  0  0
  1  9  1  0  0  0  0
  2  7  1  0  0  0  0
  3  8  1  0  0  0  0
  3  2  2  0  0  0  0
  4  3  1  0  0  0  0
  5  4  2  0  0  0  0
  5  6  1  0  0  0  0
  6  1  2  0  0  0  0
  9 12  1  0  0  0  0
  9 11  1  0  0  0  0
 10  9  1  0  0  0  0
 10 14  1  0  0  0  0
 10 11  1  0  0  0  0
 11 16  1  0  0  0  0
 13 10  1  0  0  0  0
 15 11  1  0  0  0  0
 17  5  1  0  0  0  0
 18 17  1  0  0  0  0
 19 17  1  0  0  0  0
 20 17  1  0  0  0  0
 21 20  1  0  0  0  0
 22 21  1  0  0  0  0
 23 22  1  0  0  0  0
 23 24  1  0  0  0  0
 24 25  1  0  0  0  0
 25 20  1  0  0  0  0
M  END
>  <minimizedAffinity>
-5.25651979

>  <minimizedRMSD>
1.50304484

$$$$
