
 OpenBabel03272500313D

 25 27  0  0  0  0  0  0  0  0999 V2000
   38.1550   24.0140   33.6220 Cl  0  0  0  0  0  0  0  0  0  0  0  0
   36.9570   24.6970   32.5320 C   0  0  0  0  0  0  0  0  0  0  0  0
   36.2610   23.7980   31.7700 C   0  0  0  0  0  0  0  0  0  0  0  0
   35.2990   24.3050   30.8890 C   0  0  0  0  0  0  0  0  0  0  0  0
   35.0990   25.6700   30.8320 C   0  0  0  0  0  0  0  0  0  0  0  0
   35.8450   26.5040   31.6350 C   0  0  0  0  0  0  0  0  0  0  0  0
   36.7940   26.0630   32.5100 C   0  0  0  0  0  0  0  0  0  0  0  0
   34.7330   23.6140   30.2740 H   0  0  0  0  0  0  0  0  0  0  0  0
   34.3380   26.0080   30.1300 H   0  0  0  0  0  0  0  0  0  0  0  0
   35.6190   27.5530   31.5200 H   0  0  0  0  0  0  0  0  0  0  0  0
   37.6530   20.4920   31.1220 C   0  0  0  0  0  0  0  0  0  0  0  0
   36.9760   19.6440   31.9980 C   0  0  0  0  0  0  0  0  0  0  0  0
   36.0200   20.2370   32.8250 C   0  0  0  0  0  0  0  0  0  0  0  0
   35.8100   21.5830   32.7300 N   0  0  0  0  0  0  0  0  0  0  0  0
   36.5000   22.3570   31.8590 C   0  0  0  0  0  0  0  0  0  0  0  0
   37.4250   21.8090   31.0520 N   0  0  0  0  0  0  0  0  0  0  0  0
   38.3980   20.0310   30.4770 H   0  0  0  0  0  0  0  0  0  0  0  0
   37.1800   18.5810   32.0350 H   0  0  0  0  0  0  0  0  0  0  0  0
   35.4580   19.6300   33.5310 H   0  0  0  0  0  0  0  0  0  0  0  0
   37.5800   26.9990   33.3610 C   0  0  0  0  0  3  0  0  0  0  0  0
   37.4330   26.5870   34.7970 C   0  0  0  0  0  2  0  0  0  0  0  0
   38.4040   27.4500   35.5830 C   0  0  0  0  0  2  0  0  0  0  0  0
   39.7600   26.8410   35.2590 C   0  0  0  0  0  2  0  0  0  0  0  0
   40.0680   26.8570   33.8070 C   0  0  0  0  0  2  0  0  0  0  0  0
   38.9550   27.1620   32.8720 C   0  0  0  0  0  2  0  0  0  0  0  0
  2  1  1  0  0  0  0
  3 15  1  0  0  0  0
  3  2  2  0  0  0  0
  4  3  1  0  0  0  0
  5  4  2  0  0  0  0
  5  6  1  0  0  0  0
  6  7  2  0  0  0  0
  7  2  1  0  0  0  0
  7 20  1  0  0  0  0
  8  4  1  0  0  0  0
  9  5  1  0  0  0  0
 10  6  1  0  0  0  0
 11 12  1  0  0  0  0
 12 18  1  0  0  0  0
 12 13  2  0  0  0  0
 13 19  1  0  0  0  0
 14 13  1  0  0  0  0
 15 14  2  0  0  0  0
 16 11  2  0  0  0  0
 16 15  1  0  0  0  0
 17 11  1  0  0  0  0
 20 21  1  0  0  0  0
 21 22  1  0  0  0  0
 23 22  1  0  0  0  0
 24 23  1  0  0  0  0
 25 20  1  0  0  0  0
 25 24  1  0  0  0  0
M  END
>  <minimizedAffinity>
-5.44796848

$$$$

 OpenBabel03272500313D

 25 27  0  0  0  0  0  0  0  0999 V2000
   38.4090   21.8700   33.7790 Cl  0  0  0  0  0  0  0  0  0  0  0  0
   37.3940   22.9920   32.8850 C   0  0  0  0  0  0  0  0  0  0  0  0
   36.4580   22.4260   32.0620 C   0  0  0  0  0  0  0  0  0  0  0  0
   35.6310   23.2890   31.3330 C   0  0  0  0  0  0  0  0  0  0  0  0
   35.7960   24.6530   31.4780 C   0  0  0  0  0  0  0  0  0  0  0  0
   36.7640   25.1370   32.3290 C   0  0  0  0  0  0  0  0  0  0  0  0
   37.5960   24.3420   33.0610 C   0  0  0  0  0  0  0  0  0  0  0  0
   34.8810   22.8660   30.6740 H   0  0  0  0  0  0  0  0  0  0  0  0
   35.1250   25.2760   30.8870 H   0  0  0  0  0  0  0  0  0  0  0  0
   36.8190   26.2140   32.3750 H   0  0  0  0  0  0  0  0  0  0  0  0
   36.7950   19.0310   30.7810 C   0  0  0  0  0  0  0  0  0  0  0  0
   36.0580   18.2430   31.6650 C   0  0  0  0  0  0  0  0  0  0  0  0
   35.4360   18.9090   32.7220 C   0  0  0  0  0  0  0  0  0  0  0  0
   35.5820   20.2630   32.8270 N   0  0  0  0  0  0  0  0  0  0  0  0
   36.3120   20.9760   31.9360 C   0  0  0  0  0  0  0  0  0  0  0  0
   36.9200   20.3570   30.9090 N   0  0  0  0  0  0  0  0  0  0  0  0
   37.2800   18.5130   29.9580 H   0  0  0  0  0  0  0  0  0  0  0  0
   35.9720   17.1710   31.5390 H   0  0  0  0  0  0  0  0  0  0  0  0
   34.8460   18.3520   33.4470 H   0  0  0  0  0  0  0  0  0  0  0  0
   38.6310   24.9070   33.9710 C   0  0  0  0  0  3  0  0  0  0  0  0
   39.0580   26.2470   33.4470 C   0  0  0  0  0  2  0  0  0  0  0  0
   39.9570   26.8480   34.5120 C   0  0  0  0  0  2  0  0  0  0  0  0
   38.9820   27.2750   35.5980 C   0  0  0  0  0  2  0  0  0  0  0  0
   38.1810   26.1460   36.1330 C   0  0  0  0  0  2  0  0  0  0  0  0
   38.2060   24.8680   35.3770 C   0  0  0  0  0  2  0  0  0  0  0  0
  2  7  1  0  0  0  0
  2  1  1  0  0  0  0
  3  2  2  0  0  0  0
  4  5  2  0  0  0  0
  4  3  1  0  0  0  0
  5  6  1  0  0  0  0
  6 10  1  0  0  0  0
  6  7  2  0  0  0  0
  7 20  1  0  0  0  0
  8  4  1  0  0  0  0
  9  5  1  0  0  0  0
 11 16  2  0  0  0  0
 11 12  1  0  0  0  0
 12 13  2  0  0  0  0
 13 14  1  0  0  0  0
 13 19  1  0  0  0  0
 15  3  1  0  0  0  0
 15 14  2  0  0  0  0
 16 15  1  0  0  0  0
 17 11  1  0  0  0  0
 18 12  1  0  0  0  0
 20 25  1  0  0  0  0
 21 20  1  0  0  0  0
 21 22  1  0  0  0  0
 22 23  1  0  0  0  0
 23 24  1  0  0  0  0
 25 24  1  0  0  0  0
M  END
>  <minimizedAffinity>
-5.28305769

$$$$

 OpenBabel03272500313D

 25 27  0  0  0  0  0  0  0  0999 V2000
   37.3780   21.8510   35.3370 Cl  0  0  0  0  0  0  0  0  0  0  0  0
   37.8700   22.9700   34.0750 C   0  0  0  0  0  0  0  0  0  0  0  0
   37.5000   22.6340   32.8010 C   0  0  0  0  0  0  0  0  0  0  0  0
   37.8750   23.5000   31.7680 C   0  0  0  0  0  0  0  0  0  0  0  0
   38.5910   24.6400   32.0790 C   0  0  0  0  0  0  0  0  0  0  0  0
   38.9220   24.9010   33.3900 C   0  0  0  0  0  0  0  0  0  0  0  0
   38.5830   24.0910   34.4330 C   0  0  0  0  0  0  0  0  0  0  0  0
   37.5940   23.2580   30.7490 H   0  0  0  0  0  0  0  0  0  0  0  0
   38.8550   25.2780   31.2370 H   0  0  0  0  0  0  0  0  0  0  0  0
   39.4820   25.8120   33.5350 H   0  0  0  0  0  0  0  0  0  0  0  0
   34.6910   20.3900   32.1980 C   0  0  0  0  0  0  0  0  0  0  0  0
   35.2750   19.1460   31.9610 C   0  0  0  0  0  0  0  0  0  0  0  0
   36.6690   19.0920   32.0140 C   0  0  0  0  0  0  0  0  0  0  0  0
   37.3640   20.2360   32.2880 N   0  0  0  0  0  0  0  0  0  0  0  0
   36.7400   21.4170   32.5090 C   0  0  0  0  0  0  0  0  0  0  0  0
   35.3990   21.4940   32.4640 N   0  0  0  0  0  0  0  0  0  0  0  0
   33.6050   20.4330   32.1570 H   0  0  0  0  0  0  0  0  0  0  0  0
   34.6790   18.2670   31.7480 H   0  0  0  0  0  0  0  0  0  0  0  0
   37.1860   18.1510   31.8380 H   0  0  0  0  0  0  0  0  0  0  0  0
   38.9610   24.4110   35.8380 C   0  0  0  0  0  3  0  0  0  0  0  0
   37.7190   24.4430   36.6790 C   0  0  0  0  0  2  0  0  0  0  0  0
   38.1880   24.5760   38.1170 C   0  0  0  0  0  2  0  0  0  0  0  0
   38.7090   23.1860   38.4490 C   0  0  0  0  0  2  0  0  0  0  0  0
   39.8100   22.7530   37.5530 C   0  0  0  0  0  2  0  0  0  0  0  0
   40.0480   23.5490   36.3220 C   0  0  0  0  0  2  0  0  0  0  0  0
  2  7  1  0  0  0  0
  2  1  1  0  0  0  0
  3  2  2  0  0  0  0
  4  5  2  0  0  0  0
  4  3  1  0  0  0  0
  5  6  1  0  0  0  0
  6 10  1  0  0  0  0
  6  7  2  0  0  0  0
  7 20  1  0  0  0  0
  8  4  1  0  0  0  0
  9  5  1  0  0  0  0
 11 16  1  0  0  0  0
 12 13  1  0  0  0  0
 12 11  2  0  0  0  0
 13 14  2  0  0  0  0
 14 15  1  0  0  0  0
 15  3  1  0  0  0  0
 16 15  2  0  0  0  0
 17 11  1  0  0  0  0
 18 12  1  0  0  0  0
 19 13  1  0  0  0  0
 20 25  1  0  0  0  0
 20 21  1  0  0  0  0
 21 22  1  0  0  0  0
 22 23  1  0  0  0  0
 24 23  1  0  0  0  0
 25 24  1  0  0  0  0
M  END
>  <minimizedAffinity>
-5.15756798

$$$$

 OpenBabel03272500313D

 25 27  0  0  0  0  0  0  0  0999 V2000
   38.6490   26.6720   35.2930 Cl  0  0  0  0  0  0  0  0  0  0  0  0
   38.1790   25.4220   34.1500 C   0  0  0  0  0  0  0  0  0  0  0  0
   38.1430   24.1460   34.6430 C   0  0  0  0  0  0  0  0  0  0  0  0
   37.7740   23.1220   33.7620 C   0  0  0  0  0  0  0  0  0  0  0  0
   37.4660   23.4460   32.4540 C   0  0  0  0  0  0  0  0  0  0  0  0
   37.5290   24.7580   32.0430 C   0  0  0  0  0  0  0  0  0  0  0  0
   37.8820   25.7920   32.8590 C   0  0  0  0  0  0  0  0  0  0  0  0
   37.7370   22.1020   34.1260 H   0  0  0  0  0  0  0  0  0  0  0  0
   37.1850   22.6110   31.8140 H   0  0  0  0  0  0  0  0  0  0  0  0
   37.2720   24.9130   31.0060 H   0  0  0  0  0  0  0  0  0  0  0  0
   37.8540   23.8380   38.2630 C   0  0  0  0  0  0  0  0  0  0  0  0
   39.0660   23.2800   38.6700 C   0  0  0  0  0  0  0  0  0  0  0  0
   39.9950   23.0090   37.6640 C   0  0  0  0  0  0  0  0  0  0  0  0
   39.6710   23.2990   36.3690 N   0  0  0  0  0  0  0  0  0  0  0  0
   38.4750   23.8410   36.0350 C   0  0  0  0  0  0  0  0  0  0  0  0
   37.5640   24.1110   36.9860 N   0  0  0  0  0  0  0  0  0  0  0  0
   37.1290   24.0480   39.0460 H   0  0  0  0  0  0  0  0  0  0  0  0
   39.2760   23.0680   39.7110 H   0  0  0  0  0  0  0  0  0  0  0  0
   40.9600   22.5730   37.9150 H   0  0  0  0  0  0  0  0  0  0  0  0
   37.9380   27.1990   32.3730 C   0  0  0  0  0  3  0  0  0  0  0  0
   38.3080   27.1960   30.9190 C   0  0  0  0  0  2  0  0  0  0  0  0
   38.1560   28.6290   30.4430 C   0  0  0  0  0  2  0  0  0  0  0  0
   36.6490   28.8100   30.3430 C   0  0  0  0  0  2  0  0  0  0  0  0
   35.9530   28.5870   31.6350 C   0  0  0  0  0  2  0  0  0  0  0  0
   36.7270   27.9500   32.7310 C   0  0  0  0  0  2  0  0  0  0  0  0
  2  3  1  0  0  0  0
  2  1  1  0  0  0  0
  3 15  1  0  0  0  0
  4  8  1  0  0  0  0
  4  3  2  0  0  0  0
  5  4  1  0  0  0  0
  6  5  2  0  0  0  0
  6  7  1  0  0  0  0
  7  2  2  0  0  0  0
  9  5  1  0  0  0  0
 10  6  1  0  0  0  0
 11 12  1  0  0  0  0
 11 17  1  0  0  0  0
 12 18  1  0  0  0  0
 13 19  1  0  0  0  0
 13 12  2  0  0  0  0
 14 13  1  0  0  0  0
 15 14  2  0  0  0  0
 15 16  1  0  0  0  0
 16 11  2  0  0  0  0
 20 25  1  0  0  0  0
 20  7  1  0  0  0  0
 21 20  1  0  0  0  0
 22 21  1  0  0  0  0
 23 22  1  0  0  0  0
 23 24  1  0  0  0  0
 24 25  1  0  0  0  0
M  END
>  <minimizedAffinity>
-5.10860634

$$$$

 OpenBabel03272500313D

 25 27  0  0  0  0  0  0  0  0999 V2000
   35.0660   24.8180   30.7270 Cl  0  0  0  0  0  0  0  0  0  0  0  0
   36.4380   24.5490   31.7920 C   0  0  0  0  0  0  0  0  0  0  0  0
   37.0990   25.6720   32.2100 C   0  0  0  0  0  0  0  0  0  0  0  0
   38.1980   25.4980   33.0590 C   0  0  0  0  0  0  0  0  0  0  0  0
   38.5580   24.2180   33.4310 C   0  0  0  0  0  0  0  0  0  0  0  0
   37.8370   23.1420   32.9630 C   0  0  0  0  0  0  0  0  0  0  0  0
   36.7590   23.2550   32.1350 C   0  0  0  0  0  0  0  0  0  0  0  0
   38.7390   26.3720   33.4060 H   0  0  0  0  0  0  0  0  0  0  0  0
   39.4200   24.1420   34.0930 H   0  0  0  0  0  0  0  0  0  0  0  0
   38.1930   22.1830   33.3060 H   0  0  0  0  0  0  0  0  0  0  0  0
   36.7650   28.7120   30.2270 C   0  0  0  0  0  0  0  0  0  0  0  0
   35.9330   29.5390   30.9820 C   0  0  0  0  0  0  0  0  0  0  0  0
   35.4840   29.0250   32.2000 C   0  0  0  0  0  0  0  0  0  0  0  0
   35.8760   27.7710   32.5720 N   0  0  0  0  0  0  0  0  0  0  0  0
   36.6870   27.0140   31.7950 C   0  0  0  0  0  0  0  0  0  0  0  0
   37.1330   27.4870   30.6190 N   0  0  0  0  0  0  0  0  0  0  0  0
   37.1150   29.1120   29.2780 H   0  0  0  0  0  0  0  0  0  0  0  0
   35.6500   30.5280   30.6420 H   0  0  0  0  0  0  0  0  0  0  0  0
   34.8310   29.6190   32.8350 H   0  0  0  0  0  0  0  0  0  0  0  0
   36.0050   22.0660   31.6510 C   0  0  0  0  0  3  0  0  0  0  0  0
   36.9500   21.1580   30.9190 C   0  0  0  0  0  2  0  0  0  0  0  0
   36.1720   19.8880   30.6270 C   0  0  0  0  0  2  0  0  0  0  0  0
   36.1120   19.1920   31.9790 C   0  0  0  0  0  2  0  0  0  0  0  0
   35.4470   20.0120   33.0220 C   0  0  0  0  0  2  0  0  0  0  0  0
   35.2120   21.4470   32.7210 C   0  0  0  0  0  2  0  0  0  0  0  0
  1  2  1  0  0  0  0
  2  7  2  0  0  0  0
  2  3  1  0  0  0  0
  3  4  2  0  0  0  0
  4  8  1  0  0  0  0
  4  5  1  0  0  0  0
  5  9  1  0  0  0  0
  6 10  1  0  0  0  0
  6  5  2  0  0  0  0
  7  6  1  0  0  0  0
 11 16  2  0  0  0  0
 11 12  1  0  0  0  0
 12 13  2  0  0  0  0
 13 14  1  0  0  0  0
 13 19  1  0  0  0  0
 15  3  1  0  0  0  0
 15 14  2  0  0  0  0
 16 15  1  0  0  0  0
 17 11  1  0  0  0  0
 18 12  1  0  0  0  0
 20  7  1  0  0  0  0
 20 25  1  0  0  0  0
 21 20  1  0  0  0  0
 22 21  1  0  0  0  0
 22 23  1  0  0  0  0
 23 24  1  0  0  0  0
 25 24  1  0  0  0  0
M  END
>  <minimizedAffinity>
-5.03837824

$$$$

 OpenBabel03272500313D

 25 27  0  0  0  0  0  0  0  0999 V2000
   38.9770   26.6540   35.2520 Cl  0  0  0  0  0  0  0  0  0  0  0  0
   38.2090   25.5920   34.0810 C   0  0  0  0  0  0  0  0  0  0  0  0
   38.3440   24.2500   34.3140 C   0  0  0  0  0  0  0  0  0  0  0  0
   37.7460   23.3710   33.4020 C   0  0  0  0  0  0  0  0  0  0  0  0
   37.0570   23.8950   32.3250 C   0  0  0  0  0  0  0  0  0  0  0  0
   36.9720   25.2600   32.1670 C   0  0  0  0  0  0  0  0  0  0  0  0
   37.5350   26.1590   33.0240 C   0  0  0  0  0  0  0  0  0  0  0  0
   37.8370   22.3030   33.5630 H   0  0  0  0  0  0  0  0  0  0  0  0
   36.6130   23.1660   31.6480 H   0  0  0  0  0  0  0  0  0  0  0  0
   36.4160   25.5740   31.2970 H   0  0  0  0  0  0  0  0  0  0  0  0
   39.0860   23.1070   37.6940 C   0  0  0  0  0  0  0  0  0  0  0  0
   40.4360   22.7580   37.6630 C   0  0  0  0  0  0  0  0  0  0  0  0
   41.0940   22.9260   36.4430 C   0  0  0  0  0  0  0  0  0  0  0  0
   40.3930   23.4100   35.3760 N   0  0  0  0  0  0  0  0  0  0  0  0
   39.0800   23.7320   35.4680 C   0  0  0  0  0  0  0  0  0  0  0  0
   38.4250   23.5790   36.6310 N   0  0  0  0  0  0  0  0  0  0  0  0
   38.5730   22.9760   38.6440 H   0  0  0  0  0  0  0  0  0  0  0  0
   40.9490   22.3770   38.5380 H   0  0  0  0  0  0  0  0  0  0  0  0
   42.1480   22.6720   36.3520 H   0  0  0  0  0  0  0  0  0  0  0  0
   37.4190   27.6290   32.8170 C   0  0  0  0  0  3  0  0  0  0  0  0
   37.3580   27.9070   31.3430 C   0  0  0  0  0  2  0  0  0  0  0  0
   37.0460   29.3860   31.2080 C   0  0  0  0  0  2  0  0  0  0  0  0
   35.5690   29.4700   31.5650 C   0  0  0  0  0  2  0  0  0  0  0  0
   35.2770   28.9730   32.9320 C   0  0  0  0  0  2  0  0  0  0  0  0
   36.3450   28.2140   33.6310 C   0  0  0  0  0  2  0  0  0  0  0  0
  2  3  1  0  0  0  0
  2  1  1  0  0  0  0
  3 15  1  0  0  0  0
  4  8  1  0  0  0  0
  4  3  2  0  0  0  0
  5  4  1  0  0  0  0
  6  5  2  0  0  0  0
  6  7  1  0  0  0  0
  7  2  2  0  0  0  0
  9  5  1  0  0  0  0
 10  6  1  0  0  0  0
 11 17  1  0  0  0  0
 12 11  1  0  0  0  0
 12 18  1  0  0  0  0
 13 12  2  0  0  0  0
 14 15  2  0  0  0  0
 14 13  1  0  0  0  0
 15 16  1  0  0  0  0
 16 11  2  0  0  0  0
 19 13  1  0  0  0  0
 20  7  1  0  0  0  0
 20 25  1  0  0  0  0
 21 20  1  0  0  0  0
 22 21  1  0  0  0  0
 22 23  1  0  0  0  0
 23 24  1  0  0  0  0
 24 25  1  0  0  0  0
M  END
>  <minimizedAffinity>
-4.98635674

$$$$

 OpenBabel03272500313D

 25 27  0  0  0  0  0  0  0  0999 V2000
   38.6240   27.0190   34.6840 Cl  0  0  0  0  0  0  0  0  0  0  0  0
   38.1290   25.5100   33.9310 C   0  0  0  0  0  0  0  0  0  0  0  0
   37.4390   25.6270   32.7550 C   0  0  0  0  0  0  0  0  0  0  0  0
   37.0270   24.4460   32.1260 C   0  0  0  0  0  0  0  0  0  0  0  0
   37.3330   23.2350   32.7140 C   0  0  0  0  0  0  0  0  0  0  0  0
   38.0320   23.2090   33.9000 C   0  0  0  0  0  0  0  0  0  0  0  0
   38.4560   24.3280   34.5550 C   0  0  0  0  0  0  0  0  0  0  0  0
   36.4790   24.5110   31.1920 H   0  0  0  0  0  0  0  0  0  0  0  0
   36.9890   22.3500   32.1820 H   0  0  0  0  0  0  0  0  0  0  0  0
   38.2230   22.2180   34.2840 H   0  0  0  0  0  0  0  0  0  0  0  0
   37.7280   28.6340   30.7150 C   0  0  0  0  0  0  0  0  0  0  0  0
   36.5900   29.3810   31.0200 C   0  0  0  0  0  0  0  0  0  0  0  0
   35.7120   28.8250   31.9520 C   0  0  0  0  0  0  0  0  0  0  0  0
   36.0110   27.6090   32.4980 N   0  0  0  0  0  0  0  0  0  0  0  0
   37.1330   26.9300   32.1610 C   0  0  0  0  0  0  0  0  0  0  0  0
   37.9940   27.4440   31.2660 N   0  0  0  0  0  0  0  0  0  0  0  0
   38.4120   29.0660   29.9880 H   0  0  0  0  0  0  0  0  0  0  0  0
   36.3970   30.3420   30.5600 H   0  0  0  0  0  0  0  0  0  0  0  0
   34.8060   29.3570   32.2330 H   0  0  0  0  0  0  0  0  0  0  0  0
   39.2100   24.2560   35.8370 C   0  0  0  0  0  3  0  0  0  0  0  0
   38.5050   23.3060   36.7610 C   0  0  0  0  0  2  0  0  0  0  0  0
   39.4190   23.1290   37.9600 C   0  0  0  0  0  2  0  0  0  0  0  0
   40.5260   22.2290   37.4300 C   0  0  0  0  0  2  0  0  0  0  0  0
   41.2470   22.8180   36.2750 C   0  0  0  0  0  2  0  0  0  0  0  0
   40.6410   24.0040   35.6190 C   0  0  0  0  0  2  0  0  0  0  0  0
  2  7  1  0  0  0  0
  2  1  1  0  0  0  0
  3  2  2  0  0  0  0
  4  5  2  0  0  0  0
  4  3  1  0  0  0  0
  5  6  1  0  0  0  0
  6 10  1  0  0  0  0
  6  7  2  0  0  0  0
  7 20  1  0  0  0  0
  8  4  1  0  0  0  0
  9  5  1  0  0  0  0
 11 12  2  0  0  0  0
 11 16  1  0  0  0  0
 12 13  1  0  0  0  0
 13 19  1  0  0  0  0
 13 14  2  0  0  0  0
 15 14  1  0  0  0  0
 15  3  1  0  0  0  0
 16 15  2  0  0  0  0
 17 11  1  0  0  0  0
 18 12  1  0  0  0  0
 20 21  1  0  0  0  0
 21 22  1  0  0  0  0
 23 22  1  0  0  0  0
 24 23  1  0  0  0  0
 25 20  1  0  0  0  0
 25 24  1  0  0  0  0
M  END
>  <minimizedAffinity>
-4.89629745

$$$$

 OpenBabel03272500313D

 25 27  0  0  0  0  0  0  0  0999 V2000
   39.0460   22.8270   33.6090 Cl  0  0  0  0  0  0  0  0  0  0  0  0
   37.6950   23.5110   32.7160 C   0  0  0  0  0  0  0  0  0  0  0  0
   37.7260   24.8670   32.5330 C   0  0  0  0  0  0  0  0  0  0  0  0
   36.6660   25.4480   31.8260 C   0  0  0  0  0  0  0  0  0  0  0  0
   35.6540   24.6360   31.3540 C   0  0  0  0  0  0  0  0  0  0  0  0
   35.7030   23.2800   31.5850 C   0  0  0  0  0  0  0  0  0  0  0  0
   36.7100   22.6620   32.2660 C   0  0  0  0  0  0  0  0  0  0  0  0
   36.6660   26.5210   31.6660 H   0  0  0  0  0  0  0  0  0  0  0  0
   34.8560   25.1420   30.8120 H   0  0  0  0  0  0  0  0  0  0  0  0
   34.8680   22.7280   31.1790 H   0  0  0  0  0  0  0  0  0  0  0  0
   39.7200   26.9210   34.7890 C   0  0  0  0  0  0  0  0  0  0  0  0
   40.8550   27.2600   34.0510 C   0  0  0  0  0  0  0  0  0  0  0  0
   40.9210   26.7640   32.7470 C   0  0  0  0  0  0  0  0  0  0  0  0
   39.8950   25.9920   32.2820 N   0  0  0  0  0  0  0  0  0  0  0  0
   38.8170   25.6950   33.0470 C   0  0  0  0  0  0  0  0  0  0  0  0
   38.7300   26.1620   34.3050 N   0  0  0  0  0  0  0  0  0  0  0  0
   39.6680   27.3060   35.8040 H   0  0  0  0  0  0  0  0  0  0  0  0
   41.6420   27.8770   34.4660 H   0  0  0  0  0  0  0  0  0  0  0  0
   41.7790   26.9920   32.1200 H   0  0  0  0  0  0  0  0  0  0  0  0
   36.7250   21.1910   32.4940 C   0  0  0  0  0  3  0  0  0  0  0  0
   35.4790   20.8020   33.2350 C   0  0  0  0  0  2  0  0  0  0  0  0
   35.4610   19.2850   33.2610 C   0  0  0  0  0  2  0  0  0  0  0  0
   35.0640   18.9120   31.8410 C   0  0  0  0  0  2  0  0  0  0  0  0
   36.0110   19.4290   30.8220 C   0  0  0  0  0  2  0  0  0  0  0  0
   37.0010   20.4470   31.2570 C   0  0  0  0  0  2  0  0  0  0  0  0
  2  1  1  0  0  0  0
  3  2  1  0  0  0  0
  3 15  1  0  0  0  0
  4  3  2  0  0  0  0
  5  6  2  0  0  0  0
  5  4  1  0  0  0  0
  6  7  1  0  0  0  0
  7 20  1  0  0  0  0
  7  2  2  0  0  0  0
  8  4  1  0  0  0  0
  9  5  1  0  0  0  0
 10  6  1  0  0  0  0
 11 17  1  0  0  0  0
 12 18  1  0  0  0  0
 12 11  2  0  0  0  0
 13 12  1  0  0  0  0
 14 13  2  0  0  0  0
 14 15  1  0  0  0  0
 15 16  2  0  0  0  0
 16 11  1  0  0  0  0
 19 13  1  0  0  0  0
 20 21  1  0  0  0  0
 21 22  1  0  0  0  0
 23 22  1  0  0  0  0
 24 25  1  0  0  0  0
 24 23  1  0  0  0  0
 25 20  1  0  0  0  0
M  END
>  <minimizedAffinity>
-4.84524393

$$$$

 OpenBabel03272500313D

 25 27  0  0  0  0  0  0  0  0999 V2000
   36.6480   27.7590   34.5440 Cl  0  0  0  0  0  0  0  0  0  0  0  0
   36.2230   28.8870   33.2650 C   0  0  0  0  0  0  0  0  0  0  0  0
   36.6300   28.5420   32.0050 C   0  0  0  0  0  0  0  0  0  0  0  0
   36.3110   29.4160   30.9600 C   0  0  0  0  0  0  0  0  0  0  0  0
   35.6070   30.5700   31.2460 C   0  0  0  0  0  0  0  0  0  0  0  0
   35.2370   30.8390   32.5450 C   0  0  0  0  0  0  0  0  0  0  0  0
   35.5220   30.0230   33.5990 C   0  0  0  0  0  0  0  0  0  0  0  0
   36.6210   29.1670   29.9510 H   0  0  0  0  0  0  0  0  0  0  0  0
   35.3850   31.2130   30.3950 H   0  0  0  0  0  0  0  0  0  0  0  0
   34.6920   31.7630   32.6710 H   0  0  0  0  0  0  0  0  0  0  0  0
   37.3510   25.0680   31.1700 C   0  0  0  0  0  0  0  0  0  0  0  0
   38.7410   24.9690   31.2310 C   0  0  0  0  0  0  0  0  0  0  0  0
   39.4330   26.1320   31.5700 C   0  0  0  0  0  0  0  0  0  0  0  0
   38.7260   27.2750   31.8150 N   0  0  0  0  0  0  0  0  0  0  0  0
   37.3740   27.3090   31.7390 C   0  0  0  0  0  0  0  0  0  0  0  0
   36.6840   26.2020   31.4160 N   0  0  0  0  0  0  0  0  0  0  0  0
   36.8100   24.1620   30.9060 H   0  0  0  0  0  0  0  0  0  0  0  0
   39.2570   24.0380   31.0280 H   0  0  0  0  0  0  0  0  0  0  0  0
   40.5190   26.1220   31.6350 H   0  0  0  0  0  0  0  0  0  0  0  0
   35.1030   30.3510   34.9900 C   0  0  0  0  0  3  0  0  0  0  0  0
   35.7640   31.6330   35.4060 C   0  0  0  0  0  2  0  0  0  0  0  0
   35.1490   32.0090   36.7410 C   0  0  0  0  0  2  0  0  0  0  0  0
   33.7680   32.5230   36.3610 C   0  0  0  0  0  2  0  0  0  0  0  0
   32.9500   31.5090   35.6500 C   0  0  0  0  0  2  0  0  0  0  0  0
   33.6440   30.2950   35.1500 C   0  0  0  0  0  2  0  0  0  0  0  0
  2  7  1  0  0  0  0
  2  1  1  0  0  0  0
  3  2  2  0  0  0  0
  4  5  2  0  0  0  0
  4  3  1  0  0  0  0
  5  6  1  0  0  0  0
  6 10  1  0  0  0  0
  6  7  2  0  0  0  0
  7 20  1  0  0  0  0
  8  4  1  0  0  0  0
  9  5  1  0  0  0  0
 11 12  2  0  0  0  0
 11 16  1  0  0  0  0
 12 13  1  0  0  0  0
 13 19  1  0  0  0  0
 13 14  2  0  0  0  0
 15 14  1  0  0  0  0
 15  3  1  0  0  0  0
 16 15  2  0  0  0  0
 17 11  1  0  0  0  0
 18 12  1  0  0  0  0
 20 25  1  0  0  0  0
 20 21  1  0  0  0  0
 21 22  1  0  0  0  0
 23 22  1  0  0  0  0
 24 23  1  0  0  0  0
 25 24  1  0  0  0  0
M  END
>  <minimizedAffinity>
-4.84200382

$$$$
