
 OpenBabel03272507333D

 33 36  0  0  1  0  0  0  0  0999 V2000
   35.8910   29.2050   49.8350 C   0  0  0  0  0  0  0  0  0  0  0  0
   34.9410   29.6930   50.7020 C   0  0  0  0  0  0  0  0  0  0  0  0
   33.6940   29.2130   50.2740 C   0  0  0  0  0  0  0  0  0  0  0  0
   33.9700   28.4530   49.1590 C   0  0  0  0  0  0  0  0  0  0  0  0
   35.2680   28.4780   48.9390 O   0  0  0  0  0  0  0  0  0  0  0  0
   35.0360   30.3320   51.5770 H   0  0  0  0  0  0  0  0  0  0  0  0
   32.7130   29.3690   50.6820 H   0  0  0  0  0  0  0  0  0  0  0  0
   37.3040   29.5070   49.9830 C   0  0  0  0  0  0  0  0  0  0  0  0
   37.9840   28.8540   50.7900 O   0  0  0  0  0  0  0  0  0  0  0  0
   37.8330   30.5640   49.1690 C   0  0  0  0  0  0  0  0  0  0  0  0
   38.1720   31.7440   49.8020 C   0  0  0  0  0  0  0  0  0  0  0  0
   38.6870   32.7930   49.0420 C   0  0  0  0  0  0  0  0  0  0  0  0
   38.8340   32.5990   47.6830 N   0  0  0  0  0  0  0  0  0  0  0  0
   38.4940   31.4420   47.1060 C   0  0  0  0  0  0  0  0  0  0  0  0
   37.9990   30.4320   47.8340 N   0  0  0  0  0  0  0  0  0  0  0  0
   38.0720   31.9370   50.8750 H   0  0  0  0  0  0  0  0  0  0  0  0
   38.9720   33.7370   49.4600 H   0  0  0  0  0  0  0  0  0  0  0  0
   38.6610   31.4210   46.0290 H   0  0  0  0  0  0  0  0  0  0  0  0
   32.9890   27.7320   48.3480 C   0  0  0  0  0  0  0  0  0  0  0  0
   31.7820   27.6900   48.7600 O   0  0  0  0  0  0  0  0  0  0  0  0
   33.4060   27.0560   47.0730 C   0  0  1  0  0  0  0  0  0  0  0  0
   33.7530   25.5420   47.3710 C   0  0  0  0  0  0  0  0  0  0  0  0
   32.6080   25.9670   46.5320 C   0  0  2  0  0  0  0  0  0  0  0  0
   34.3130   27.5290   46.6420 H   0  0  0  0  0  0  0  0  0  0  0  0
   33.5610   25.1730   48.3780 H   0  0  0  0  0  0  0  0  0  0  0  0
   34.6750   25.1670   46.9340 H   0  0  0  0  0  0  0  0  0  0  0  0
   31.5980   25.8640   47.0360 H   0  0  0  0  0  0  0  0  0  0  0  0
   32.6300   25.5010   45.1300 C   0  0  0  0  0  3  0  0  0  0  0  0
   32.2260   24.0830   44.8730 C   0  0  0  0  0  2  0  0  0  0  0  0
   30.7800   23.9020   44.5270 C   0  0  0  0  0  2  0  0  0  0  0  0
   30.3750   24.6620   43.2860 C   0  0  0  0  0  2  0  0  0  0  0  0
   31.2720   25.8480   43.0290 C   0  0  0  0  0  2  0  0  0  0  0  0
   31.7220   26.4180   44.3330 C   0  0  0  0  0  2  0  0  0  0  0  0
  1  8  1  0  0  0  0
  1  2  2  0  0  0  0
  2  6  1  0  0  0  0
  3  7  1  0  0  0  0
  3  2  1  0  0  0  0
  4  3  2  0  0  0  0
  5  4  1  0  0  0  0
  5  1  1  0  0  0  0
  8  9  2  0  0  0  0
 10 11  1  0  0  0  0
 10  8  1  0  0  0  0
 11 16  1  0  0  0  0
 12 17  1  0  0  0  0
 12 11  2  0  0  0  0
 13 12  1  0  0  0  0
 14 13  2  0  0  0  0
 14 15  1  0  0  0  0
 15 10  2  0  0  0  0
 18 14  1  0  0  0  0
 19 20  2  0  0  0  0
 19  4  1  0  0  0  0
 21 24  1  6  0  0  0
 21 22  1  0  0  0  0
 21 19  1  0  0  0  0
 22 25  1  0  0  0  0
 23 27  1  1  0  0  0
 23 21  1  0  0  0  0
 23 22  1  0  0  0  0
 26 22  1  0  0  0  0
 28 23  1  0  0  0  0
 29 28  1  0  0  0  0
 30 29  1  0  0  0  0
 31 30  1  0  0  0  0
 32 31  1  0  0  0  0
 32 33  1  0  0  0  0
 33 28  1  0  0  0  0
M  END
>  <minimizedAffinity>
-4.87578917

>  <minimizedRMSD>
0.311094314

$$$$
