
 OpenBabel03272508123D

 31 33  0  0  0  0  0  0  0  0999 V2000
   36.7110   29.4070   43.9780 Cl  0  0  0  0  0  0  0  0  0  0  0  0
   38.3770   29.8140   43.4940 C   0  0  0  0  0  0  0  0  0  0  0  0
   39.3430   30.3120   44.3690 C   0  0  0  0  0  0  0  0  0  0  0  0
   40.5880   30.5810   43.8490 C   0  0  0  0  0  0  0  0  0  0  0  0
   40.8710   30.3680   42.5220 C   0  0  0  0  0  0  0  0  0  0  0  0
   39.9330   29.8810   41.6490 C   0  0  0  0  0  0  0  0  0  0  0  0
   38.6930   29.6080   42.1390 C   0  0  0  0  0  0  0  0  0  0  0  0
   41.2860   30.9630   44.5830 H   0  0  0  0  0  0  0  0  0  0  0  0
   41.8660   30.5970   42.1640 H   0  0  0  0  0  0  0  0  0  0  0  0
   40.1650   29.7160   40.5980 H   0  0  0  0  0  0  0  0  0  0  0  0
   37.6510   29.0730   41.2030 C   0  0  0  0  0  3  0  0  0  0  0  0
   38.2270   27.7670   40.6810 C   0  0  0  0  0  2  0  0  0  0  0  0
   37.3030   27.2140   39.6450 C   0  0  0  0  0  2  0  0  0  0  0  0
   35.9600   27.9030   39.6310 C   0  0  0  0  0  2  0  0  0  0  0  0
   36.0900   29.3950   39.4010 C   0  0  0  0  0  2  0  0  0  0  0  0
   37.3240   29.9790   40.0710 C   0  0  0  0  0  2  0  0  0  0  0  0
   38.8720   30.4540   45.6440 O   0  0  0  0  0  0  0  0  0  0  0  0
   39.4290   32.5220   47.0920 O   0  0  0  0  0  0  0  0  0  0  0  0
   38.2880   31.8390   46.4080 P   0  0  1  0  0  0  0  0  0  0  0  0
   37.6970   32.8340   45.1570 O   0  0  0  0  0  0  0  0  0  0  0  0
   37.4690   32.3330   44.3430 H   0  0  0  0  0  0  0  0  0  0  0  0
   37.0150   31.4150   47.4410 O   0  0  0  0  0  0  0  0  0  0  0  0
   37.6170   30.5280   50.9820 C   0  0  0  0  0  0  0  0  0  0  0  0
   37.7000   31.2960   49.8180 C   0  0  0  0  0  0  0  0  0  0  0  0
   37.0670   30.8450   48.6620 C   0  0  0  0  0  0  0  0  0  0  0  0
   36.3900   29.6510   48.7390 N   0  0  0  0  0  0  0  0  0  0  0  0
   36.3330   28.9390   49.8810 C   0  0  0  0  0  0  0  0  0  0  0  0
   36.9450   29.3800   50.9920 N   0  0  0  0  0  0  0  0  0  0  0  0
   38.1400   30.9540   51.8410 H   0  0  0  0  0  0  0  0  0  0  0  0
   38.2060   32.2320   49.6770 H   0  0  0  0  0  0  0  0  0  0  0  0
   35.7810   27.9880   49.9050 H   0  0  0  0  0  0  0  0  0  0  0  0
  2  1  1  0  0  0  0
  2  3  1  0  0  0  0
  3 17  1  0  0  0  0
  4  3  2  0  0  0  0
  4  8  1  0  0  0  0
  5  4  1  0  0  0  0
  6  7  1  0  0  0  0
  6  5  2  0  0  0  0
  7  2  2  0  0  0  0
  9  5  1  0  0  0  0
 10  6  1  0  0  0  0
 11  7  1  0  0  0  0
 12 11  1  0  0  0  0
 13 12  1  0  0  0  0
 14 13  1  0  0  0  0
 15 14  1  0  0  0  0
 15 16  1  0  0  0  0
 16 11  1  0  0  0  0
 17 19  1  0  0  0  0
 19 18  2  1  0  0  0
 19 22  1  0  0  0  0
 20 19  1  0  0  0  0
 21 20  1  0  0  0  0
 22 25  1  0  0  0  0
 23 28  1  0  0  0  0
 23 29  1  0  0  0  0
 24 23  2  0  0  0  0
 25 26  2  0  0  0  0
 25 24  1  0  0  0  0
 26 27  1  0  0  0  0
 27 31  1  0  0  0  0
 27 28  2  0  0  0  0
 30 24  1  0  0  0  0
M  END
>  <minimizedAffinity>
-4.82151413

>  <minimizedRMSD>
0.980412066

$$$$
