
 OpenBabel03272510023D

 18 19  0  0  0  0  0  0  0  0999 V2000
   38.3300   31.5340   50.2340 C   0  0  0  0  0  0  0  0  0  0  0  0
   38.6090   31.7520   48.8750 C   0  0  0  0  0  0  0  0  0  0  0  0
   37.7780   31.1710   47.9350 C   0  0  0  0  0  0  0  0  0  0  0  0
   36.7230   30.4090   48.3710 N   0  0  0  0  0  0  0  0  0  0  0  0
   36.4930   30.2260   49.6900 C   0  0  0  0  0  0  0  0  0  0  0  0
   37.2940   30.7870   50.6010 N   0  0  0  0  0  0  0  0  0  0  0  0
   38.9230   31.9490   51.0370 H   0  0  0  0  0  0  0  0  0  0  0  0
   39.4580   32.3630   48.7060 H   0  0  0  0  0  0  0  0  0  0  0  0
   38.0800   31.4060   46.5330 C   0  0  0  0  0  3  0  0  0  0  0  0
   38.7330   32.6860   46.1750 C   0  0  0  0  0  2  0  0  0  0  0  0
   40.1770   32.5170   45.7470 C   0  0  0  0  0  2  0  0  0  0  0  0
   40.1730   31.6730   44.4890 C   0  0  0  0  0  2  0  0  0  0  0  0
   39.2590   30.4810   44.5980 C   0  0  0  0  0  2  0  0  0  0  0  0
   38.9980   30.2680   46.0650 C   0  0  0  0  0  2  0  0  0  0  0  0
   35.3340   29.3910   50.0730 C   0  0  0  0  0  0  0  0  0  0  0  0
   35.3050   29.0930   51.4270 F   0  0  0  0  0  0  0  0  0  0  0  0
   34.1350   30.0360   49.7930 F   0  0  0  0  0  0  0  0  0  0  0  0
   35.2730   28.1910   49.4040 F   0  0  0  0  0  0  0  0  0  0  0  0
  1  6  1  0  0  0  0
  1  7  1  0  0  0  0
  2  1  2  0  0  0  0
  3  4  2  0  0  0  0
  3  2  1  0  0  0  0
  4  5  1  0  0  0  0
  5 15  1  0  0  0  0
  5  6  2  0  0  0  0
  8  2  1  0  0  0  0
  9  3  1  0  0  0  0
 10  9  1  0  0  0  0
 11 10  1  0  0  0  0
 12 13  1  0  0  0  0
 12 11  1  0  0  0  0
 13 14  1  0  0  0  0
 14  9  1  0  0  0  0
 15 16  1  0  0  0  0
 17 15  1  0  0  0  0
 18 15  1  0  0  0  0
M  END
>  <minimizedAffinity>
-5.41891575

>  <minimizedRMSD>
0.810623586

$$$$
