
 OpenBabel03272506473D

 39 42  0  0  1  0  0  0  0  0999 V2000
   32.3230   28.4160   47.4760 C   0  0  2  0  0  0  0  0  0  0  0  0
   33.5420   28.3750   48.3500 C   0  0  1  0  0  0  0  0  0  0  0  0
   34.0150   27.0970   48.3530 O   0  0  0  0  0  0  0  0  0  0  0  0
   33.3960   26.3790   47.3360 C   0  0  0  0  0  0  0  0  0  0  0  0
   32.7610   27.3720   46.4000 C   0  0  1  0  0  0  0  0  0  0  0  0
   31.4000   28.0650   47.9230 H   0  0  0  0  0  0  0  0  0  0  0  0
   33.2810   28.7690   49.3540 H   0  0  0  0  0  0  0  0  0  0  0  0
   32.7450   25.6520   47.7920 H   0  0  0  0  0  0  0  0  0  0  0  0
   34.2090   25.8320   46.7830 H   0  0  0  0  0  0  0  0  0  0  0  0
   33.4620   27.8900   45.7530 H   0  0  0  0  0  0  0  0  0  0  0  0
   32.1940   29.6790   46.8600 O   0  0  0  0  0  0  0  0  0  0  0  0
   32.8770   29.7330   46.1550 H   0  0  0  0  0  0  0  0  0  0  0  0
   34.8140   29.4540   47.5770 S   0  0  0  0  0  0  0  0  0  0  0  0
   37.3240   29.3130   50.6400 C   0  0  0  0  0  0  0  0  0  0  0  0
   37.8080   30.6170   50.7680 C   0  0  0  0  0  0  0  0  0  0  0  0
   37.3420   31.5770   49.8730 C   0  0  0  0  0  0  0  0  0  0  0  0
   36.4400   31.2040   48.9210 N   0  0  0  0  0  0  0  0  0  0  0  0
   35.9970   29.9310   48.8310 C   0  0  0  0  0  0  0  0  0  0  0  0
   36.4320   28.9700   49.6860 N   0  0  0  0  0  0  0  0  0  0  0  0
   37.7120   28.6140   51.3470 H   0  0  0  0  0  0  0  0  0  0  0  0
   38.5290   30.8670   51.5460 H   0  0  0  0  0  0  0  0  0  0  0  0
   37.7010   32.5910   49.9540 H   0  0  0  0  0  0  0  0  0  0  0  0
   31.6680   26.7900   45.8040 O   0  0  0  0  0  0  0  0  0  0  0  0
   30.5490   28.7630   43.9260 Cl  0  0  0  0  0  0  0  0  0  0  0  0
   29.7620   27.9690   45.2690 C   0  0  0  0  0  0  0  0  0  0  0  0
   30.3920   27.0490   46.0750 C   0  0  0  0  0  0  0  0  0  0  0  0
   29.6510   26.4610   47.1030 C   0  0  0  0  0  0  0  0  0  0  0  0
   28.3280   26.7990   47.2960 C   0  0  0  0  0  0  0  0  0  0  0  0
   27.6870   27.7230   46.4910 C   0  0  0  0  0  0  0  0  0  0  0  0
   28.4260   28.3020   45.4760 C   0  0  0  0  0  0  0  0  0  0  0  0
   30.0630   25.7290   47.7760 H   0  0  0  0  0  0  0  0  0  0  0  0
   27.7180   26.3690   48.0770 H   0  0  0  0  0  0  0  0  0  0  0  0
   26.6490   27.9790   46.6550 H   0  0  0  0  0  0  0  0  0  0  0  0
   27.7410   29.2960   44.6080 C   0  0  0  0  0  3  0  0  0  0  0  0
   27.7190   30.6770   45.1970 C   0  0  0  0  0  2  0  0  0  0  0  0
   26.4800   31.4530   44.7480 C   0  0  0  0  0  2  0  0  0  0  0  0
   26.1110   31.1540   43.3230 C   0  0  0  0  0  2  0  0  0  0  0  0
   25.7080   29.6970   43.2370 C   0  0  0  0  0  2  0  0  0  0  0  0
   26.3100   28.8900   44.3580 C   0  0  0  0  0  2  0  0  0  0  0  0
  1  6  1  1  0  0  0
  1  2  1  0  0  0  0
  2  3  1  0  0  0  0
  2  7  1  1  0  0  0
  4  8  1  0  0  0  0
  4  3  1  0  0  0  0
  5 10  1  6  0  0  0
  5  4  1  0  0  0  0
  5  1  1  0  0  0  0
  9  4  1  0  0  0  0
 11  1  1  0  0  0  0
 12 11  1  0  0  0  0
 13  2  1  0  0  0  0
 13 18  1  0  0  0  0
 14 15  1  0  0  0  0
 14 20  1  0  0  0  0
 15 21  1  0  0  0  0
 16 22  1  0  0  0  0
 16 15  2  0  0  0  0
 17 16  1  0  0  0  0
 18 17  2  0  0  0  0
 18 19  1  0  0  0  0
 19 14  2  0  0  0  0
 23 26  1  0  0  0  0
 23  5  1  0  0  0  0
 24 25  1  0  0  0  0
 25 30  2  0  0  0  0
 25 26  1  0  0  0  0
 26 27  2  0  0  0  0
 27 28  1  0  0  0  0
 27 31  1  0  0  0  0
 28 32  1  0  0  0  0
 29 33  1  0  0  0  0
 29 28  2  0  0  0  0
 30 29  1  0  0  0  0
 34 35  1  0  0  0  0
 34 30  1  0  0  0  0
 36 35  1  0  0  0  0
 37 36  1  0  0  0  0
 38 37  1  0  0  0  0
 38 39  1  0  0  0  0
 39 34  1  0  0  0  0
M  END
>  <minimizedAffinity>
-5.18861055

>  <minimizedRMSD>
0.638708115

$$$$
