
 OpenBabel03272505393D

 28 30  0  0  0  0  0  0  0  0999 V2000
   37.7630   23.4350   33.3240 C   0  0  0  0  0  0  0  0  0  0  0  0
   37.8580   24.7140   32.7890 C   0  0  0  0  0  0  0  0  0  0  0  0
   37.2060   25.0610   31.6340 C   0  0  0  0  0  0  0  0  0  0  0  0
   36.4160   24.1280   30.9480 C   0  0  0  0  0  0  0  0  0  0  0  0
   36.3120   22.8620   31.4640 C   0  0  0  0  0  0  0  0  0  0  0  0
   36.9840   22.5500   32.6320 C   0  0  0  0  0  0  0  0  0  0  0  0
   38.4840   25.4270   33.3470 H   0  0  0  0  0  0  0  0  0  0  0  0
   37.3640   26.0860   31.3280 H   0  0  0  0  0  0  0  0  0  0  0  0
   35.9730   24.5300   30.0710 H   0  0  0  0  0  0  0  0  0  0  0  0
   35.6930   22.2170   30.8790 H   0  0  0  0  0  0  0  0  0  0  0  0
   38.7750   23.1840   36.8220 C   0  0  0  0  0  0  0  0  0  0  0  0
   39.9760   22.4760   36.7520 C   0  0  0  0  0  0  0  0  0  0  0  0
   40.4180   22.0800   35.4800 C   0  0  0  0  0  0  0  0  0  0  0  0
   39.6390   22.4210   34.4270 N   0  0  0  0  0  0  0  0  0  0  0  0
   38.4920   23.1010   34.5290 C   0  0  0  0  0  0  0  0  0  0  0  0
   38.0630   23.4810   35.7290 N   0  0  0  0  0  0  0  0  0  0  0  0
   40.5640   22.2280   37.6300 H   0  0  0  0  0  0  0  0  0  0  0  0
   41.3470   21.5280   35.3710 H   0  0  0  0  0  0  0  0  0  0  0  0
   38.3070   23.6180   38.1950 C   0  0  0  0  0  0  0  0  0  0  0  0
   38.0030   24.9830   38.1590 F   0  0  0  0  0  0  0  0  0  0  0  0
   37.2480   22.8600   38.5350 F   0  0  0  0  0  0  0  0  0  0  0  0
   39.3660   23.4840   39.0670 F   0  0  0  0  0  0  0  0  0  0  0  0
   36.7680   21.1370   33.0480 C   0  0  0  0  0  3  0  0  0  0  0  0
   37.4330   20.2860   32.0120 C   0  0  0  0  0  2  0  0  0  0  0  0
   36.9590   18.8700   31.9220 C   0  0  0  0  0  2  0  0  0  0  0  0
   35.6420   18.6050   32.6110 C   0  0  0  0  0  2  0  0  0  0  0  0
   34.7900   19.8260   32.2380 C   0  0  0  0  0  2  0  0  0  0  0  0
   35.2650   20.9350   33.1090 C   0  0  0  0  0  2  0  0  0  0  0  0
  1 15  1  0  0  0  0
  2  1  1  0  0  0  0
  2  7  1  0  0  0  0
  3  2  2  0  0  0  0
  4  5  2  0  0  0  0
  4  3  1  0  0  0  0
  5  6  1  0  0  0  0
  6 23  1  0  0  0  0
  6  1  2  0  0  0  0
  8  3  1  0  0  0  0
  9  4  1  0  0  0  0
 10  5  1  0  0  0  0
 11 19  1  0  0  0  0
 12 11  1  0  0  0  0
 12 17  1  0  0  0  0
 13 12  2  0  0  0  0
 14 15  2  0  0  0  0
 14 13  1  0  0  0  0
 15 16  1  0  0  0  0
 16 11  2  0  0  0  0
 18 13  1  0  0  0  0
 19 21  1  0  0  0  0
 19 22  1  0  0  0  0
 20 19  1  0  0  0  0
 23 28  1  0  0  0  0
 24 23  1  0  0  0  0
 25 24  1  0  0  0  0
 25 26  1  0  0  0  0
 27 26  1  0  0  0  0
 27 28  1  0  0  0  0
M  END
>  <minimizedAffinity>
-6.20710135

$$$$

 OpenBabel03272505393D

 28 30  0  0  0  0  0  0  0  0999 V2000
   37.5420   22.5250   33.6970 C   0  0  0  0  0  0  0  0  0  0  0  0
   36.7660   21.3990   33.4470 C   0  0  0  0  0  0  0  0  0  0  0  0
   35.9170   21.3350   32.3720 C   0  0  0  0  0  0  0  0  0  0  0  0
   35.8030   22.4110   31.4810 C   0  0  0  0  0  0  0  0  0  0  0  0
   36.5640   23.5280   31.7140 C   0  0  0  0  0  0  0  0  0  0  0  0
   37.4090   23.5560   32.8080 C   0  0  0  0  0  0  0  0  0  0  0  0
   36.8740   20.5690   34.1610 H   0  0  0  0  0  0  0  0  0  0  0  0
   35.3730   20.4040   32.2950 H   0  0  0  0  0  0  0  0  0  0  0  0
   35.1110   22.2260   30.6990 H   0  0  0  0  0  0  0  0  0  0  0  0
   36.4150   24.2990   30.9890 H   0  0  0  0  0  0  0  0  0  0  0  0
   38.7990   23.0880   37.0770 C   0  0  0  0  0  0  0  0  0  0  0  0
   40.1250   22.6590   36.9950 C   0  0  0  0  0  0  0  0  0  0  0  0
   40.5680   22.1640   35.7580 C   0  0  0  0  0  0  0  0  0  0  0  0
   39.6670   22.1450   34.7470 N   0  0  0  0  0  0  0  0  0  0  0  0
   38.4020   22.5650   34.8600 C   0  0  0  0  0  0  0  0  0  0  0  0
   37.9720   23.0360   36.0270 N   0  0  0  0  0  0  0  0  0  0  0  0
   40.8080   22.6950   37.8380 H   0  0  0  0  0  0  0  0  0  0  0  0
   41.5900   21.8180   35.6410 H   0  0  0  0  0  0  0  0  0  0  0  0
   38.3290   23.6310   38.4090 C   0  0  0  0  0  0  0  0  0  0  0  0
   37.9620   24.9710   38.2480 F   0  0  0  0  0  0  0  0  0  0  0  0
   37.3110   22.8630   38.8390 F   0  0  0  0  0  0  0  0  0  0  0  0
   39.4040   23.6290   39.2720 F   0  0  0  0  0  0  0  0  0  0  0  0
   38.1540   24.8410   32.9150 C   0  0  0  0  0  3  0  0  0  0  0  0
   37.1220   25.9200   33.0110 C   0  0  0  0  0  2  0  0  0  0  0  0
   37.5740   27.2960   32.6400 C   0  0  0  0  0  2  0  0  0  0  0  0
   38.8720   27.3440   31.8710 C   0  0  0  0  0  2  0  0  0  0  0  0
   38.7440   26.1800   30.8790 C   0  0  0  0  0  2  0  0  0  0  0  0
   39.0080   24.9440   31.6650 C   0  0  0  0  0  2  0  0  0  0  0  0
  1 15  1  0  0  0  0
  2  1  1  0  0  0  0
  2  7  1  0  0  0  0
  3  2  2  0  0  0  0
  4  5  2  0  0  0  0
  4  3  1  0  0  0  0
  5  6  1  0  0  0  0
  6 23  1  0  0  0  0
  6  1  2  0  0  0  0
  8  3  1  0  0  0  0
  9  4  1  0  0  0  0
 10  5  1  0  0  0  0
 11 19  1  0  0  0  0
 12 11  1  0  0  0  0
 12 17  1  0  0  0  0
 13 12  2  0  0  0  0
 14 15  2  0  0  0  0
 14 13  1  0  0  0  0
 15 16  1  0  0  0  0
 16 11  2  0  0  0  0
 18 13  1  0  0  0  0
 19 21  1  0  0  0  0
 19 22  1  0  0  0  0
 20 19  1  0  0  0  0
 23 24  1  0  0  0  0
 25 24  1  0  0  0  0
 26 25  1  0  0  0  0
 27 28  1  0  0  0  0
 27 26  1  0  0  0  0
 28 23  1  0  0  0  0
M  END
>  <minimizedAffinity>
-5.97043657

$$$$

 OpenBabel03272505393D

 28 30  0  0  0  0  0  0  0  0999 V2000
   38.6850   25.8700   33.0090 C   0  0  0  0  0  0  0  0  0  0  0  0
   39.5460   26.6690   32.2650 C   0  0  0  0  0  0  0  0  0  0  0  0
   40.6810   27.2090   32.8140 C   0  0  0  0  0  0  0  0  0  0  0  0
   41.0120   26.9740   34.1550 C   0  0  0  0  0  0  0  0  0  0  0  0
   40.1720   26.1870   34.9020 C   0  0  0  0  0  0  0  0  0  0  0  0
   39.0380   25.6590   34.3140 C   0  0  0  0  0  0  0  0  0  0  0  0
   39.2640   26.8380   31.2150 H   0  0  0  0  0  0  0  0  0  0  0  0
   41.2610   27.8080   32.1260 H   0  0  0  0  0  0  0  0  0  0  0  0
   41.9120   27.4530   34.4470 H   0  0  0  0  0  0  0  0  0  0  0  0
   40.4990   26.0610   35.9120 H   0  0  0  0  0  0  0  0  0  0  0  0
   36.1390   23.5800   31.7480 C   0  0  0  0  0  0  0  0  0  0  0  0
   35.2030   24.4380   31.1680 C   0  0  0  0  0  0  0  0  0  0  0  0
   35.4630   25.8160   31.2340 C   0  0  0  0  0  0  0  0  0  0  0  0
   36.6050   26.1950   31.8550 N   0  0  0  0  0  0  0  0  0  0  0  0
   37.4830   25.3450   32.4000 C   0  0  0  0  0  0  0  0  0  0  0  0
   37.2450   24.0380   32.3440 N   0  0  0  0  0  0  0  0  0  0  0  0
   34.3010   24.0820   30.6810 H   0  0  0  0  0  0  0  0  0  0  0  0
   34.7670   26.5260   30.7990 H   0  0  0  0  0  0  0  0  0  0  0  0
   35.8590   22.0940   31.6650 C   0  0  0  0  0  0  0  0  0  0  0  0
   35.2150   21.8220   30.4540 F   0  0  0  0  0  0  0  0  0  0  0  0
   37.0300   21.4410   31.7890 F   0  0  0  0  0  0  0  0  0  0  0  0
   34.9590   21.7750   32.6590 F   0  0  0  0  0  0  0  0  0  0  0  0
   38.2380   24.8380   35.2630 C   0  0  0  0  0  3  0  0  0  0  0  0
   38.2160   25.5910   36.5560 C   0  0  0  0  0  2  0  0  0  0  0  0
   37.9130   24.7870   37.7800 C   0  0  0  0  0  2  0  0  0  0  0  0
   38.0460   23.2940   37.5980 C   0  0  0  0  0  2  0  0  0  0  0  0
   39.3260   23.1470   36.7620 C   0  0  0  0  0  2  0  0  0  0  0  0
   38.9420   23.4980   35.3670 C   0  0  0  0  0  2  0  0  0  0  0  0
  1  6  1  0  0  0  0
  2  3  1  0  0  0  0
  2  1  2  0  0  0  0
  3  4  2  0  0  0  0
  4  9  1  0  0  0  0
  4  5  1  0  0  0  0
  5 10  1  0  0  0  0
  6  5  2  0  0  0  0
  6 23  1  0  0  0  0
  7  2  1  0  0  0  0
  8  3  1  0  0  0  0
 11 16  1  0  0  0  0
 12 13  1  0  0  0  0
 12 11  2  0  0  0  0
 13 14  2  0  0  0  0
 14 15  1  0  0  0  0
 15  1  1  0  0  0  0
 16 15  2  0  0  0  0
 17 12  1  0  0  0  0
 18 13  1  0  0  0  0
 19 11  1  0  0  0  0
 19 21  1  0  0  0  0
 19 22  1  0  0  0  0
 20 19  1  0  0  0  0
 23 28  1  0  0  0  0
 23 24  1  0  0  0  0
 24 25  1  0  0  0  0
 26 25  1  0  0  0  0
 27 26  1  0  0  0  0
 28 27  1  0  0  0  0
M  END
>  <minimizedAffinity>
-5.95469999

$$$$

 OpenBabel03272505393D

 28 30  0  0  0  0  0  0  0  0999 V2000
   38.4080   23.1570   36.2890 C   0  0  0  0  0  0  0  0  0  0  0  0
   37.4610   23.7920   37.0840 C   0  0  0  0  0  0  0  0  0  0  0  0
   37.7140   24.1020   38.3960 C   0  0  0  0  0  0  0  0  0  0  0  0
   38.9470   23.7850   38.9830 C   0  0  0  0  0  0  0  0  0  0  0  0
   39.8920   23.1590   38.2110 C   0  0  0  0  0  0  0  0  0  0  0  0
   39.6000   22.8640   36.8920 C   0  0  0  0  0  0  0  0  0  0  0  0
   36.5020   24.0310   36.6000 H   0  0  0  0  0  0  0  0  0  0  0  0
   36.8940   24.5950   38.8990 H   0  0  0  0  0  0  0  0  0  0  0  0
   39.0050   24.0800   40.0010 H   0  0  0  0  0  0  0  0  0  0  0  0
   40.7990   22.9540   38.7370 H   0  0  0  0  0  0  0  0  0  0  0  0
   37.0240   21.5040   33.3440 C   0  0  0  0  0  0  0  0  0  0  0  0
   37.5940   22.2170   32.2870 C   0  0  0  0  0  0  0  0  0  0  0  0
   38.4500   23.2800   32.6120 C   0  0  0  0  0  0  0  0  0  0  0  0
   38.6510   23.5240   33.9290 N   0  0  0  0  0  0  0  0  0  0  0  0
   38.0890   22.8210   34.9180 C   0  0  0  0  0  0  0  0  0  0  0  0
   37.2760   21.8110   34.6210 N   0  0  0  0  0  0  0  0  0  0  0  0
   37.3990   21.9790   31.2460 H   0  0  0  0  0  0  0  0  0  0  0  0
   38.9190   23.8660   31.8270 H   0  0  0  0  0  0  0  0  0  0  0  0
   36.1100   20.3520   32.9880 C   0  0  0  0  0  0  0  0  0  0  0  0
   35.0740   20.8280   32.1780 F   0  0  0  0  0  0  0  0  0  0  0  0
   36.8490   19.4040   32.3810 F   0  0  0  0  0  0  0  0  0  0  0  0
   35.5150   19.9060   34.1490 F   0  0  0  0  0  0  0  0  0  0  0  0
   40.7300   22.1830   36.2020 C   0  0  0  0  0  3  0  0  0  0  0  0
   41.3350   21.2510   37.2050 C   0  0  0  0  0  2  0  0  0  0  0  0
   42.7440   20.8250   36.9380 C   0  0  0  0  0  2  0  0  0  0  0  0
   43.4740   21.6730   35.9250 C   0  0  0  0  0  2  0  0  0  0  0  0
   43.0590   23.1050   36.2900 C   0  0  0  0  0  2  0  0  0  0  0  0
   41.6800   23.2770   35.7560 C   0  0  0  0  0  2  0  0  0  0  0  0
  1  6  2  0  0  0  0
  1  2  1  0  0  0  0
  2  3  2  0  0  0  0
  3  8  1  0  0  0  0
  3  4  1  0  0  0  0
  4  9  1  0  0  0  0
  5 10  1  0  0  0  0
  5  4  2  0  0  0  0
  6  5  1  0  0  0  0
  7  2  1  0  0  0  0
 11 16  1  0  0  0  0
 12 13  1  0  0  0  0
 12 11  2  0  0  0  0
 13 14  2  0  0  0  0
 14 15  1  0  0  0  0
 15  1  1  0  0  0  0
 16 15  2  0  0  0  0
 17 12  1  0  0  0  0
 18 13  1  0  0  0  0
 19 11  1  0  0  0  0
 19 22  1  0  0  0  0
 20 19  1  0  0  0  0
 21 19  1  0  0  0  0
 23  6  1  0  0  0  0
 23 24  1  0  0  0  0
 25 24  1  0  0  0  0
 26 27  1  0  0  0  0
 26 25  1  0  0  0  0
 28 23  1  0  0  0  0
 28 27  1  0  0  0  0
M  END
>  <minimizedAffinity>
-5.8865099

$$$$

 OpenBabel03272505393D

 28 30  0  0  0  0  0  0  0  0999 V2000
   37.8030   24.5270   33.5760 C   0  0  0  0  0  0  0  0  0  0  0  0
   37.3970   25.7420   33.0360 C   0  0  0  0  0  0  0  0  0  0  0  0
   37.5660   26.9220   33.7120 C   0  0  0  0  0  0  0  0  0  0  0  0
   38.1600   26.9440   34.9820 C   0  0  0  0  0  0  0  0  0  0  0  0
   38.5670   25.7520   35.5270 C   0  0  0  0  0  0  0  0  0  0  0  0
   38.3800   24.5830   34.8150 C   0  0  0  0  0  0  0  0  0  0  0  0
   36.9350   25.6980   32.0380 H   0  0  0  0  0  0  0  0  0  0  0  0
   37.2080   27.7920   33.1790 H   0  0  0  0  0  0  0  0  0  0  0  0
   38.2260   27.9210   35.3890 H   0  0  0  0  0  0  0  0  0  0  0  0
   39.0070   25.8600   36.4960 H   0  0  0  0  0  0  0  0  0  0  0  0
   36.5280   21.2590   32.5710 C   0  0  0  0  0  0  0  0  0  0  0  0
   37.2650   20.9740   31.4190 C   0  0  0  0  0  0  0  0  0  0  0  0
   38.1950   21.9350   30.9940 C   0  0  0  0  0  0  0  0  0  0  0  0
   38.2990   23.0600   31.7420 N   0  0  0  0  0  0  0  0  0  0  0  0
   37.5780   23.3010   32.8420 C   0  0  0  0  0  0  0  0  0  0  0  0
   36.6930   22.3970   33.2530 N   0  0  0  0  0  0  0  0  0  0  0  0
   37.1410   20.0550   30.8550 H   0  0  0  0  0  0  0  0  0  0  0  0
   38.7930   21.7630   30.1050 H   0  0  0  0  0  0  0  0  0  0  0  0
   35.5340   20.2140   33.0310 C   0  0  0  0  0  0  0  0  0  0  0  0
   35.3980   20.2990   34.4200 F   0  0  0  0  0  0  0  0  0  0  0  0
   34.3740   20.4270   32.3820 F   0  0  0  0  0  0  0  0  0  0  0  0
   36.0720   18.9710   32.7730 F   0  0  0  0  0  0  0  0  0  0  0  0
   38.8720   23.3870   35.5520 C   0  0  0  0  0  3  0  0  0  0  0  0
   38.7370   23.7050   37.0080 C   0  0  0  0  0  2  0  0  0  0  0  0
   39.5910   22.9020   37.9370 C   0  0  0  0  0  2  0  0  0  0  0  0
   40.7240   22.1630   37.2670 C   0  0  0  0  0  2  0  0  0  0  0  0
   41.2690   23.1830   36.2560 C   0  0  0  0  0  2  0  0  0  0  0  0
   40.3100   23.1790   35.1180 C   0  0  0  0  0  2  0  0  0  0  0  0
  1  6  1  0  0  0  0
  2  1  2  0  0  0  0
  2  3  1  0  0  0  0
  3  4  2  0  0  0  0
  4  9  1  0  0  0  0
  4  5  1  0  0  0  0
  5 10  1  0  0  0  0
  6  5  2  0  0  0  0
  6 23  1  0  0  0  0
  7  2  1  0  0  0  0
  8  3  1  0  0  0  0
 11 19  1  0  0  0  0
 11 16  1  0  0  0  0
 12 11  2  0  0  0  0
 13 12  1  0  0  0  0
 13 14  2  0  0  0  0
 14 15  1  0  0  0  0
 15 16  2  0  0  0  0
 15  1  1  0  0  0  0
 17 12  1  0  0  0  0
 18 13  1  0  0  0  0
 19 20  1  0  0  0  0
 21 19  1  0  0  0  0
 22 19  1  0  0  0  0
 23 24  1  0  0  0  0
 24 25  1  0  0  0  0
 26 25  1  0  0  0  0
 27 26  1  0  0  0  0
 28 23  1  0  0  0  0
 28 27  1  0  0  0  0
M  END
>  <minimizedAffinity>
-5.66803694

$$$$

 OpenBabel03272505393D

 28 30  0  0  0  0  0  0  0  0999 V2000
   34.7550   30.8220   35.2280 C   0  0  0  0  0  0  0  0  0  0  0  0
   35.5310   31.7750   35.8780 C   0  0  0  0  0  0  0  0  0  0  0  0
   35.0120   32.5750   36.8630 C   0  0  0  0  0  0  0  0  0  0  0  0
   33.6690   32.4580   37.2500 C   0  0  0  0  0  0  0  0  0  0  0  0
   32.8920   31.5220   36.6170 C   0  0  0  0  0  0  0  0  0  0  0  0
   33.4510   30.7330   35.6290 C   0  0  0  0  0  0  0  0  0  0  0  0
   36.5810   31.8460   35.5560 H   0  0  0  0  0  0  0  0  0  0  0  0
   35.7220   33.2720   37.2860 H   0  0  0  0  0  0  0  0  0  0  0  0
   33.4030   33.1380   38.0190 H   0  0  0  0  0  0  0  0  0  0  0  0
   31.8840   31.5010   36.9720 H   0  0  0  0  0  0  0  0  0  0  0  0
   36.4380   28.1280   33.4300 C   0  0  0  0  0  0  0  0  0  0  0  0
   36.4640   28.5960   32.1150 C   0  0  0  0  0  0  0  0  0  0  0  0
   35.8810   29.8480   31.8640 C   0  0  0  0  0  0  0  0  0  0  0  0
   35.3420   30.4960   32.9230 N   0  0  0  0  0  0  0  0  0  0  0  0
   35.3340   30.0190   34.1720 C   0  0  0  0  0  0  0  0  0  0  0  0
   35.8840   28.8340   34.4220 N   0  0  0  0  0  0  0  0  0  0  0  0
   36.9100   28.0350   31.3000 H   0  0  0  0  0  0  0  0  0  0  0  0
   35.8750   30.2570   30.8580 H   0  0  0  0  0  0  0  0  0  0  0  0
   37.0780   26.7830   33.6980 C   0  0  0  0  0  0  0  0  0  0  0  0
   36.8460   26.4280   35.0300 F   0  0  0  0  0  0  0  0  0  0  0  0
   36.5640   25.8940   32.8270 F   0  0  0  0  0  0  0  0  0  0  0  0
   38.4430   26.9280   33.5720 F   0  0  0  0  0  0  0  0  0  0  0  0
   32.4700   29.7770   35.0460 C   0  0  0  0  0  3  0  0  0  0  0  0
   31.2500   30.5760   34.7130 C   0  0  0  0  0  2  0  0  0  0  0  0
   29.9750   29.8050   34.5800 C   0  0  0  0  0  2  0  0  0  0  0  0
   30.0210   28.4130   35.1620 C   0  0  0  0  0  2  0  0  0  0  0  0
   30.7830   28.6000   36.4810 C   0  0  0  0  0  2  0  0  0  0  0  0
   32.2190   28.7220   36.1070 C   0  0  0  0  0  2  0  0  0  0  0  0
  1  6  2  0  0  0  0
  1  2  1  0  0  0  0
  2  3  2  0  0  0  0
  3  4  1  0  0  0  0
  3  8  1  0  0  0  0
  4  9  1  0  0  0  0
  5 10  1  0  0  0  0
  5  4  2  0  0  0  0
  6  5  1  0  0  0  0
  7  2  1  0  0  0  0
 11 19  1  0  0  0  0
 11 16  1  0  0  0  0
 12 11  2  0  0  0  0
 13 12  1  0  0  0  0
 13 14  2  0  0  0  0
 14 15  1  0  0  0  0
 15 16  2  0  0  0  0
 15  1  1  0  0  0  0
 17 12  1  0  0  0  0
 18 13  1  0  0  0  0
 19 20  1  0  0  0  0
 21 19  1  0  0  0  0
 22 19  1  0  0  0  0
 23  6  1  0  0  0  0
 23 28  1  0  0  0  0
 24 23  1  0  0  0  0
 25 24  1  0  0  0  0
 25 26  1  0  0  0  0
 26 27  1  0  0  0  0
 28 27  1  0  0  0  0
M  END
>  <minimizedAffinity>
-5.62013245

$$$$

 OpenBabel03272505393D

 28 30  0  0  0  0  0  0  0  0999 V2000
   38.7880   23.9590   36.0560 C   0  0  0  0  0  0  0  0  0  0  0  0
   37.7660   24.3990   36.8890 C   0  0  0  0  0  0  0  0  0  0  0  0
   37.7650   24.1260   38.2320 C   0  0  0  0  0  0  0  0  0  0  0  0
   38.8040   23.3870   38.8150 C   0  0  0  0  0  0  0  0  0  0  0  0
   39.8200   22.9460   38.0060 C   0  0  0  0  0  0  0  0  0  0  0  0
   39.7860   23.2410   36.6560 C   0  0  0  0  0  0  0  0  0  0  0  0
   36.9640   24.9770   36.4070 H   0  0  0  0  0  0  0  0  0  0  0  0
   36.9140   24.5270   38.7640 H   0  0  0  0  0  0  0  0  0  0  0  0
   38.6750   23.2490   39.8600 H   0  0  0  0  0  0  0  0  0  0  0  0
   40.5670   22.3910   38.5310 H   0  0  0  0  0  0  0  0  0  0  0  0
   39.0660   25.6480   32.8320 C   0  0  0  0  0  0  0  0  0  0  0  0
   38.5350   24.7130   31.9410 C   0  0  0  0  0  0  0  0  0  0  0  0
   38.0940   23.4920   32.4730 C   0  0  0  0  0  0  0  0  0  0  0  0
   38.2210   23.3250   33.8110 N   0  0  0  0  0  0  0  0  0  0  0  0
   38.7350   24.2420   34.6380 C   0  0  0  0  0  0  0  0  0  0  0  0
   39.1560   25.4030   34.1440 N   0  0  0  0  0  0  0  0  0  0  0  0
   38.4560   24.8980   30.8740 H   0  0  0  0  0  0  0  0  0  0  0  0
   37.6730   22.7310   31.8230 H   0  0  0  0  0  0  0  0  0  0  0  0
   39.5310   26.9680   32.2550 C   0  0  0  0  0  0  0  0  0  0  0  0
   40.4990   27.5170   33.1010 F   0  0  0  0  0  0  0  0  0  0  0  0
   39.9970   26.7400   31.0130 F   0  0  0  0  0  0  0  0  0  0  0  0
   38.4640   27.8400   32.2760 F   0  0  0  0  0  0  0  0  0  0  0  0
   40.9580   22.6850   35.9260 C   0  0  0  0  0  3  0  0  0  0  0  0
   41.4110   21.4900   36.7050 C   0  0  0  0  0  2  0  0  0  0  0  0
   42.8230   21.0530   36.4750 C   0  0  0  0  0  2  0  0  0  0  0  0
   43.6940   22.0810   35.7950 C   0  0  0  0  0  2  0  0  0  0  0  0
   43.2980   23.3960   36.4790 C   0  0  0  0  0  2  0  0  0  0  0  0
   41.9950   23.7910   35.8760 C   0  0  0  0  0  2  0  0  0  0  0  0
  1  6  2  0  0  0  0
  1  2  1  0  0  0  0
  2  3  2  0  0  0  0
  3  8  1  0  0  0  0
  3  4  1  0  0  0  0
  4  9  1  0  0  0  0
  5 10  1  0  0  0  0
  5  4  2  0  0  0  0
  6  5  1  0  0  0  0
  7  2  1  0  0  0  0
 11 16  1  0  0  0  0
 12 13  1  0  0  0  0
 12 11  2  0  0  0  0
 13 14  2  0  0  0  0
 14 15  1  0  0  0  0
 15  1  1  0  0  0  0
 16 15  2  0  0  0  0
 17 12  1  0  0  0  0
 18 13  1  0  0  0  0
 19 22  1  0  0  0  0
 19 11  1  0  0  0  0
 19 20  1  0  0  0  0
 21 19  1  0  0  0  0
 23  6  1  0  0  0  0
 23 24  1  0  0  0  0
 25 24  1  0  0  0  0
 26 25  1  0  0  0  0
 26 27  1  0  0  0  0
 28 23  1  0  0  0  0
 28 27  1  0  0  0  0
M  END
>  <minimizedAffinity>
-5.57331944

$$$$

 OpenBabel03272505393D

 28 30  0  0  0  0  0  0  0  0999 V2000
   38.8310   23.9890   36.0390 C   0  0  0  0  0  0  0  0  0  0  0  0
   37.8330   24.4790   36.8750 C   0  0  0  0  0  0  0  0  0  0  0  0
   37.8390   24.2300   38.2230 C   0  0  0  0  0  0  0  0  0  0  0  0
   38.8590   23.4670   38.8090 C   0  0  0  0  0  0  0  0  0  0  0  0
   39.8500   22.9780   37.9970 C   0  0  0  0  0  0  0  0  0  0  0  0
   39.8110   23.2500   36.6420 C   0  0  0  0  0  0  0  0  0  0  0  0
   37.0450   25.0750   36.3910 H   0  0  0  0  0  0  0  0  0  0  0  0
   37.0070   24.6690   38.7570 H   0  0  0  0  0  0  0  0  0  0  0  0
   38.7370   23.3530   39.8570 H   0  0  0  0  0  0  0  0  0  0  0  0
   40.5850   22.4080   38.5240 H   0  0  0  0  0  0  0  0  0  0  0  0
   38.0140   23.7490   32.4900 C   0  0  0  0  0  0  0  0  0  0  0  0
   38.7700   24.7760   31.9230 C   0  0  0  0  0  0  0  0  0  0  0  0
   39.5520   25.5550   32.7890 C   0  0  0  0  0  0  0  0  0  0  0  0
   39.5070   25.2410   34.1060 N   0  0  0  0  0  0  0  0  0  0  0  0
   38.7710   24.2490   34.6170 C   0  0  0  0  0  0  0  0  0  0  0  0
   38.0250   23.5040   33.8050 N   0  0  0  0  0  0  0  0  0  0  0  0
   38.7710   24.9870   30.8580 H   0  0  0  0  0  0  0  0  0  0  0  0
   40.1590   26.3670   32.3990 H   0  0  0  0  0  0  0  0  0  0  0  0
   37.1800   22.9050   31.5510 C   0  0  0  0  0  0  0  0  0  0  0  0
   37.9720   21.8660   31.0520 F   0  0  0  0  0  0  0  0  0  0  0  0
   36.1070   22.4590   32.2300 F   0  0  0  0  0  0  0  0  0  0  0  0
   36.8410   23.6840   30.4650 F   0  0  0  0  0  0  0  0  0  0  0  0
   40.9560   22.6420   35.9100 C   0  0  0  0  0  3  0  0  0  0  0  0
   41.3320   21.4080   36.6680 C   0  0  0  0  0  2  0  0  0  0  0  0
   42.7180   20.8950   36.4400 C   0  0  0  0  0  2  0  0  0  0  0  0
   43.6540   21.8840   35.7870 C   0  0  0  0  0  2  0  0  0  0  0  0
   43.3270   23.2060   36.4950 C   0  0  0  0  0  2  0  0  0  0  0  0
   42.0550   23.6870   35.8900 C   0  0  0  0  0  2  0  0  0  0  0  0
  1  6  2  0  0  0  0
  1  2  1  0  0  0  0
  2  3  2  0  0  0  0
  3  8  1  0  0  0  0
  3  4  1  0  0  0  0
  4  9  1  0  0  0  0
  5 10  1  0  0  0  0
  5  4  2  0  0  0  0
  6  5  1  0  0  0  0
  7  2  1  0  0  0  0
 11 16  1  0  0  0  0
 12 11  2  0  0  0  0
 12 13  1  0  0  0  0
 13 14  2  0  0  0  0
 14 15  1  0  0  0  0
 15  1  1  0  0  0  0
 16 15  2  0  0  0  0
 17 12  1  0  0  0  0
 18 13  1  0  0  0  0
 19 21  1  0  0  0  0
 19 11  1  0  0  0  0
 20 19  1  0  0  0  0
 22 19  1  0  0  0  0
 23  6  1  0  0  0  0
 23 24  1  0  0  0  0
 25 24  1  0  0  0  0
 26 25  1  0  0  0  0
 26 27  1  0  0  0  0
 28 23  1  0  0  0  0
 28 27  1  0  0  0  0
M  END
>  <minimizedAffinity>
-5.5337925

$$$$

 OpenBabel03272505393D

 28 30  0  0  0  0  0  0  0  0999 V2000
   36.0720   26.5030   31.5590 C   0  0  0  0  0  0  0  0  0  0  0  0
   35.3020   25.6020   30.8310 C   0  0  0  0  0  0  0  0  0  0  0  0
   35.4270   24.2470   31.0030 C   0  0  0  0  0  0  0  0  0  0  0  0
   36.3420   23.7210   31.9250 C   0  0  0  0  0  0  0  0  0  0  0  0
   37.1080   24.5980   32.6510 C   0  0  0  0  0  0  0  0  0  0  0  0
   36.9540   25.9570   32.4500 C   0  0  0  0  0  0  0  0  0  0  0  0
   34.5910   26.0400   30.1150 H   0  0  0  0  0  0  0  0  0  0  0  0
   34.7690   23.6610   30.3760 H   0  0  0  0  0  0  0  0  0  0  0  0
   36.3340   22.6610   31.9530 H   0  0  0  0  0  0  0  0  0  0  0  0
   37.7780   24.1130   33.3270 H   0  0  0  0  0  0  0  0  0  0  0  0
   36.4990   29.8650   30.2040 C   0  0  0  0  0  0  0  0  0  0  0  0
   35.6460   30.6350   30.9980 C   0  0  0  0  0  0  0  0  0  0  0  0
   34.9170   29.9680   31.9950 C   0  0  0  0  0  0  0  0  0  0  0  0
   35.1050   28.6320   32.1020 N   0  0  0  0  0  0  0  0  0  0  0  0
   35.9320   27.9240   31.3250 C   0  0  0  0  0  0  0  0  0  0  0  0
   36.6270   28.5450   30.3770 N   0  0  0  0  0  0  0  0  0  0  0  0
   35.5320   31.7060   30.8690 H   0  0  0  0  0  0  0  0  0  0  0  0
   34.2390   30.5210   32.6390 H   0  0  0  0  0  0  0  0  0  0  0  0
   37.2920   30.5890   29.1380 C   0  0  0  0  0  0  0  0  0  0  0  0
   38.4680   31.0870   29.7070 F   0  0  0  0  0  0  0  0  0  0  0  0
   37.5280   29.7250   28.1330 F   0  0  0  0  0  0  0  0  0  0  0  0
   36.5630   31.6890   28.7390 F   0  0  0  0  0  0  0  0  0  0  0  0
   37.8620   26.7620   33.3120 C   0  0  0  0  0  3  0  0  0  0  0  0
   39.1500   26.0040   33.3890 C   0  0  0  0  0  2  0  0  0  0  0  0
   40.0350   26.3290   34.5520 C   0  0  0  0  0  2  0  0  0  0  0  0
   39.3510   27.0800   35.6680 C   0  0  0  0  0  2  0  0  0  0  0  0
   37.9880   26.3840   35.7870 C   0  0  0  0  0  2  0  0  0  0  0  0
   37.1700   26.8970   34.6550 C   0  0  0  0  0  2  0  0  0  0  0  0
  1  6  1  0  0  0  0
  2  3  1  0  0  0  0
  2  1  2  0  0  0  0
  3  4  2  0  0  0  0
  4  9  1  0  0  0  0
  4  5  1  0  0  0  0
  5 10  1  0  0  0  0
  6  5  2  0  0  0  0
  6 23  1  0  0  0  0
  7  2  1  0  0  0  0
  8  3  1  0  0  0  0
 11 16  2  0  0  0  0
 11 12  1  0  0  0  0
 12 13  2  0  0  0  0
 13 14  1  0  0  0  0
 13 18  1  0  0  0  0
 15  1  1  0  0  0  0
 15 14  2  0  0  0  0
 16 15  1  0  0  0  0
 17 12  1  0  0  0  0
 19 20  1  0  0  0  0
 19 11  1  0  0  0  0
 21 19  1  0  0  0  0
 22 19  1  0  0  0  0
 23 24  1  0  0  0  0
 23 28  1  0  0  0  0
 24 25  1  0  0  0  0
 25 26  1  0  0  0  0
 26 27  1  0  0  0  0
 28 27  1  0  0  0  0
M  END
>  <minimizedAffinity>
-5.50065374

$$$$
