
 OpenBabel03272507513D

 25 27  0  0  0  0  0  0  0  0999 V2000
   37.8280   24.3120   33.4130 C   0  0  0  0  0  0  0  0  0  0  0  0
   38.0960   22.9280   33.6170 C   0  0  0  0  0  0  0  0  0  0  0  0
   37.4230   21.9910   32.8220 C   0  0  0  0  0  0  0  0  0  0  0  0
   36.5440   22.4490   31.8930 N   0  0  0  0  0  0  0  0  0  0  0  0
   36.2980   23.7700   31.7110 C   0  0  0  0  0  0  0  0  0  0  0  0
   36.9370   24.6980   32.4660 N   0  0  0  0  0  0  0  0  0  0  0  0
   37.6340   20.9450   32.9840 H   0  0  0  0  0  0  0  0  0  0  0  0
   35.5730   23.9620   30.9320 H   0  0  0  0  0  0  0  0  0  0  0  0
   39.0400   22.5870   34.6160 N   0  0  0  0  0  0  0  0  0  0  0  0
   40.3760   22.6280   34.3790 C   0  0  0  0  0  0  0  0  0  0  0  0
   41.2710   22.2870   35.3900 C   0  0  0  0  0  0  0  0  0  0  0  0
   40.6720   21.9280   36.5750 C   0  0  0  0  0  0  0  0  0  0  0  0
   41.4950   21.6160   37.4990 O   0  0  0  0  0  0  0  0  0  0  0  0
   39.3500   21.8750   36.8500 N   0  0  0  0  0  0  0  0  0  0  0  0
   38.5430   22.2180   35.8230 C   0  0  0  0  0  0  0  0  0  0  0  0
   37.3110   22.1770   36.0530 O   0  0  0  0  0  0  0  0  0  0  0  0
   40.7700   22.9190   33.4140 H   0  0  0  0  0  0  0  0  0  0  0  0
   42.3210   22.3050   35.2510 H   0  0  0  0  0  0  0  0  0  0  0  0
   39.0080   21.5860   37.7900 H   0  0  0  0  0  0  0  0  0  0  0  0
   38.4310   25.4130   34.1580 C   0  0  0  0  0  3  0  0  0  0  0  0
   37.7630   25.6190   35.5250 C   0  0  0  0  0  2  0  0  0  0  0  0
   38.3330   26.9310   36.0470 C   0  0  0  0  0  2  0  0  0  0  0  0
   37.5830   28.0430   35.3120 C   0  0  0  0  0  2  0  0  0  0  0  0
   37.2970   27.6250   33.8940 C   0  0  0  0  0  2  0  0  0  0  0  0
   38.3630   26.6940   33.3520 C   0  0  0  0  0  2  0  0  0  0  0  0
  1  2  1  0  0  0  0
  1 20  1  0  0  0  0
  2  9  1  0  0  0  0
  3  7  1  0  0  0  0
  3  2  2  0  0  0  0
  4  3  1  0  0  0  0
  5  4  2  0  0  0  0
  5  6  1  0  0  0  0
  6  1  2  0  0  0  0
  8  5  1  0  0  0  0
  9 15  1  0  0  0  0
 10  9  1  0  0  0  0
 10 11  2  0  0  0  0
 11 12  1  0  0  0  0
 12 14  1  0  0  0  0
 12 13  2  0  0  0  0
 14 19  1  0  0  0  0
 15 16  2  0  0  0  0
 15 14  1  0  0  0  0
 17 10  1  0  0  0  0
 18 11  1  0  0  0  0
 20 21  1  0  0  0  0
 21 22  1  0  0  0  0
 23 22  1  0  0  0  0
 24 23  1  0  0  0  0
 25 24  1  0  0  0  0
 25 20  1  0  0  0  0
M  END
>  <minimizedAffinity>
-5.28225374

$$$$

 OpenBabel03272507513D

 25 27  0  0  0  0  0  0  0  0999 V2000
   38.1510   24.6760   33.9890 C   0  0  0  0  0  0  0  0  0  0  0  0
   38.6220   24.9830   35.2980 C   0  0  0  0  0  0  0  0  0  0  0  0
   38.2540   26.2070   35.8720 C   0  0  0  0  0  0  0  0  0  0  0  0
   37.4640   27.0440   35.1510 N   0  0  0  0  0  0  0  0  0  0  0  0
   37.0240   26.7380   33.9060 C   0  0  0  0  0  0  0  0  0  0  0  0
   37.3640   25.5600   33.3260 N   0  0  0  0  0  0  0  0  0  0  0  0
   38.6160   26.4300   36.8640 H   0  0  0  0  0  0  0  0  0  0  0  0
   36.4050   27.5130   33.4740 H   0  0  0  0  0  0  0  0  0  0  0  0
   39.4360   24.0190   35.9410 N   0  0  0  0  0  0  0  0  0  0  0  0
   40.7600   23.9070   35.6670 C   0  0  0  0  0  0  0  0  0  0  0  0
   41.5260   22.9450   36.3230 C   0  0  0  0  0  0  0  0  0  0  0  0
   40.8180   22.1780   37.2190 C   0  0  0  0  0  0  0  0  0  0  0  0
   41.5240   21.2990   37.8190 O   0  0  0  0  0  0  0  0  0  0  0  0
   39.5030   22.2590   37.5190 N   0  0  0  0  0  0  0  0  0  0  0  0
   38.8260   23.2120   36.8450 C   0  0  0  0  0  0  0  0  0  0  0  0
   37.6030   23.3080   37.1060 O   0  0  0  0  0  0  0  0  0  0  0  0
   41.2440   24.5480   34.9420 H   0  0  0  0  0  0  0  0  0  0  0  0
   42.5620   22.8210   36.1420 H   0  0  0  0  0  0  0  0  0  0  0  0
   39.0720   21.6210   38.2200 H   0  0  0  0  0  0  0  0  0  0  0  0
   38.4470   23.4560   33.2430 C   0  0  0  0  0  3  0  0  0  0  0  0
   38.5400   23.7120   31.7320 C   0  0  0  0  0  2  0  0  0  0  0  0
   38.6030   22.3260   31.1030 C   0  0  0  0  0  2  0  0  0  0  0  0
   37.1700   21.7930   31.1060 C   0  0  0  0  0  2  0  0  0  0  0  0
   36.4520   22.2430   32.3510 C   0  0  0  0  0  2  0  0  0  0  0  0
   37.3990   22.4000   33.5250 C   0  0  0  0  0  2  0  0  0  0  0  0
  1  2  1  0  0  0  0
  2  3  2  0  0  0  0
  2  9  1  0  0  0  0
  3  7  1  0  0  0  0
  4  3  1  0  0  0  0
  5  4  2  0  0  0  0
  6  5  1  0  0  0  0
  6  1  2  0  0  0  0
  8  5  1  0  0  0  0
  9 15  1  0  0  0  0
 10  9  1  0  0  0  0
 10 11  2  0  0  0  0
 11 12  1  0  0  0  0
 12 14  1  0  0  0  0
 12 13  2  0  0  0  0
 14 19  1  0  0  0  0
 15 16  2  0  0  0  0
 15 14  1  0  0  0  0
 17 10  1  0  0  0  0
 18 11  1  0  0  0  0
 20 25  1  0  0  0  0
 20  1  1  0  0  0  0
 21 20  1  0  0  0  0
 22 23  1  0  0  0  0
 22 21  1  0  0  0  0
 23 24  1  0  0  0  0
 24 25  1  0  0  0  0
M  END
>  <minimizedAffinity>
-5.0825758

$$$$

 OpenBabel03272507513D

 25 27  0  0  0  0  0  0  0  0999 V2000
   37.0980   26.1550   32.2500 C   0  0  0  0  0  0  0  0  0  0  0  0
   35.9530   26.6390   31.5520 C   0  0  0  0  0  0  0  0  0  0  0  0
   35.0670   25.7100   30.9940 C   0  0  0  0  0  0  0  0  0  0  0  0
   35.3410   24.3880   31.1440 N   0  0  0  0  0  0  0  0  0  0  0  0
   36.4340   23.9420   31.8100 C   0  0  0  0  0  0  0  0  0  0  0  0
   37.3090   24.8200   32.3610 N   0  0  0  0  0  0  0  0  0  0  0  0
   34.2020   26.0870   30.4680 H   0  0  0  0  0  0  0  0  0  0  0  0
   36.5020   22.8630   31.8370 H   0  0  0  0  0  0  0  0  0  0  0  0
   35.7840   28.0430   31.4740 N   0  0  0  0  0  0  0  0  0  0  0  0
   35.0610   28.7270   32.3970 C   0  0  0  0  0  0  0  0  0  0  0  0
   34.9200   30.1080   32.2850 C   0  0  0  0  0  0  0  0  0  0  0  0
   35.5610   30.6520   31.1950 C   0  0  0  0  0  0  0  0  0  0  0  0
   35.4300   31.9180   31.0960 O   0  0  0  0  0  0  0  0  0  0  0  0
   36.2880   30.0070   30.2570 N   0  0  0  0  0  0  0  0  0  0  0  0
   36.3810   28.6720   30.4300 C   0  0  0  0  0  0  0  0  0  0  0  0
   37.0510   28.0490   29.5720 O   0  0  0  0  0  0  0  0  0  0  0  0
   34.5830   28.2230   33.2260 H   0  0  0  0  0  0  0  0  0  0  0  0
   34.3670   30.6830   32.9800 H   0  0  0  0  0  0  0  0  0  0  0  0
   36.7310   30.5260   29.4700 H   0  0  0  0  0  0  0  0  0  0  0  0
   38.1230   26.9830   32.8790 C   0  0  0  0  0  3  0  0  0  0  0  0
   39.5280   26.3890   32.7080 C   0  0  0  0  0  2  0  0  0  0  0  0
   40.4210   27.2250   33.6160 C   0  0  0  0  0  2  0  0  0  0  0  0
   40.1810   26.7120   35.0360 C   0  0  0  0  0  2  0  0  0  0  0  0
   38.7360   26.3270   35.2120 C   0  0  0  0  0  2  0  0  0  0  0  0
   37.8170   27.1710   34.3500 C   0  0  0  0  0  2  0  0  0  0  0  0
  1  6  1  0  0  0  0
  1 20  1  0  0  0  0
  2  1  2  0  0  0  0
  3  4  2  0  0  0  0
  3  2  1  0  0  0  0
  4  5  1  0  0  0  0
  5  8  1  0  0  0  0
  5  6  2  0  0  0  0
  7  3  1  0  0  0  0
  9  2  1  0  0  0  0
  9 10  1  0  0  0  0
 10 17  1  0  0  0  0
 11 10  2  0  0  0  0
 11 18  1  0  0  0  0
 12 11  1  0  0  0  0
 13 12  2  0  0  0  0
 14 15  1  0  0  0  0
 14 12  1  0  0  0  0
 15  9  1  0  0  0  0
 16 15  2  0  0  0  0
 19 14  1  0  0  0  0
 20 25  1  0  0  0  0
 21 20  1  0  0  0  0
 21 22  1  0  0  0  0
 22 23  1  0  0  0  0
 23 24  1  0  0  0  0
 25 24  1  0  0  0  0
M  END
>  <minimizedAffinity>
-5.08242989

$$$$

 OpenBabel03272507513D

 25 27  0  0  0  0  0  0  0  0999 V2000
   37.4760   22.8760   33.1200 C   0  0  0  0  0  0  0  0  0  0  0  0
   38.2640   23.7220   33.9540 C   0  0  0  0  0  0  0  0  0  0  0  0
   38.1540   25.1100   33.7930 C   0  0  0  0  0  0  0  0  0  0  0  0
   37.3010   25.5820   32.8480 N   0  0  0  0  0  0  0  0  0  0  0  0
   36.5590   24.7640   32.0620 C   0  0  0  0  0  0  0  0  0  0  0  0
   36.6440   23.4170   32.1960 N   0  0  0  0  0  0  0  0  0  0  0  0
   38.7540   25.7420   34.4300 H   0  0  0  0  0  0  0  0  0  0  0  0
   35.9330   25.3020   31.3630 H   0  0  0  0  0  0  0  0  0  0  0  0
   39.1090   23.0990   34.9030 N   0  0  0  0  0  0  0  0  0  0  0  0
   40.3670   22.6990   34.5830 C   0  0  0  0  0  0  0  0  0  0  0  0
   41.1680   22.0910   35.5470 C   0  0  0  0  0  0  0  0  0  0  0  0
   40.5650   21.9560   36.7770 C   0  0  0  0  0  0  0  0  0  0  0  0
   41.3020   21.3990   37.6570 O   0  0  0  0  0  0  0  0  0  0  0  0
   39.3190   22.3400   37.1330 N   0  0  0  0  0  0  0  0  0  0  0  0
   38.6020   22.9210   36.1480 C   0  0  0  0  0  0  0  0  0  0  0  0
   37.4410   23.2870   36.4540 O   0  0  0  0  0  0  0  0  0  0  0  0
   40.7680   22.8380   33.5890 H   0  0  0  0  0  0  0  0  0  0  0  0
   42.1540   21.7630   35.3450 H   0  0  0  0  0  0  0  0  0  0  0  0
   38.9660   22.1860   38.1000 H   0  0  0  0  0  0  0  0  0  0  0  0
   37.4770   21.4160   33.1490 C   0  0  0  0  0  3  0  0  0  0  0  0
   37.4730   20.8120   31.7380 C   0  0  0  0  0  2  0  0  0  0  0  0
   37.2270   19.3230   31.9500 C   0  0  0  0  0  2  0  0  0  0  0  0
   35.7280   19.1750   32.2130 C   0  0  0  0  0  2  0  0  0  0  0  0
   35.2220   20.3470   33.0110 C   0  0  0  0  0  2  0  0  0  0  0  0
   36.2870   20.9050   33.9340 C   0  0  0  0  0  2  0  0  0  0  0  0
  1 20  1  0  0  0  0
  1  2  1  0  0  0  0
  2  9  1  0  0  0  0
  3  2  2  0  0  0  0
  3  7  1  0  0  0  0
  4  3  1  0  0  0  0
  5  6  1  0  0  0  0
  5  4  2  0  0  0  0
  6  1  2  0  0  0  0
  8  5  1  0  0  0  0
  9 15  1  0  0  0  0
 10  9  1  0  0  0  0
 10 11  2  0  0  0  0
 11 12  1  0  0  0  0
 12 14  1  0  0  0  0
 12 13  2  0  0  0  0
 14 19  1  0  0  0  0
 15 16  2  0  0  0  0
 15 14  1  0  0  0  0
 17 10  1  0  0  0  0
 18 11  1  0  0  0  0
 20 25  1  0  0  0  0
 21 22  1  0  0  0  0
 21 20  1  0  0  0  0
 22 23  1  0  0  0  0
 23 24  1  0  0  0  0
 24 25  1  0  0  0  0
M  END
>  <minimizedAffinity>
-5.08219481

$$$$

 OpenBabel03272507513D

 25 27  0  0  0  0  0  0  0  0999 V2000
   39.3570   25.4080   34.4740 C   0  0  0  0  0  0  0  0  0  0  0  0
   39.6930   24.1500   35.0540 C   0  0  0  0  0  0  0  0  0  0  0  0
   41.0280   23.9100   35.4050 C   0  0  0  0  0  0  0  0  0  0  0  0
   41.9400   24.8890   35.1750 N   0  0  0  0  0  0  0  0  0  0  0  0
   41.6060   26.0810   34.6220 C   0  0  0  0  0  0  0  0  0  0  0  0
   40.3210   26.3410   34.2730 N   0  0  0  0  0  0  0  0  0  0  0  0
   41.2720   22.9540   35.8440 H   0  0  0  0  0  0  0  0  0  0  0  0
   42.4510   26.7470   34.5080 H   0  0  0  0  0  0  0  0  0  0  0  0
   38.6430   23.2190   35.2440 N   0  0  0  0  0  0  0  0  0  0  0  0
   38.1900   22.4390   34.2300 C   0  0  0  0  0  0  0  0  0  0  0  0
   37.1560   21.5340   34.4590 C   0  0  0  0  0  0  0  0  0  0  0  0
   36.6860   21.5320   35.7520 C   0  0  0  0  0  0  0  0  0  0  0  0
   35.7400   20.7000   35.9580 O   0  0  0  0  0  0  0  0  0  0  0  0
   37.1110   22.2900   36.7870 N   0  0  0  0  0  0  0  0  0  0  0  0
   38.1130   23.1430   36.4900 C   0  0  0  0  0  0  0  0  0  0  0  0
   38.5250   23.8590   37.4350 O   0  0  0  0  0  0  0  0  0  0  0  0
   38.6120   22.5040   33.2350 H   0  0  0  0  0  0  0  0  0  0  0  0
   36.7700   20.9060   33.6990 H   0  0  0  0  0  0  0  0  0  0  0  0
   36.6770   22.2020   37.7300 H   0  0  0  0  0  0  0  0  0  0  0  0
   38.0240   25.8160   34.0430 C   0  0  0  0  0  3  0  0  0  0  0  0
   38.0720   26.7590   32.8330 C   0  0  0  0  0  2  0  0  0  0  0  0
   36.6470   27.2710   32.6770 C   0  0  0  0  0  2  0  0  0  0  0  0
   36.4660   28.3550   33.7410 C   0  0  0  0  0  2  0  0  0  0  0  0
   37.2130   27.9810   34.9940 C   0  0  0  0  0  2  0  0  0  0  0  0
   37.2810   26.4780   35.1850 C   0  0  0  0  0  2  0  0  0  0  0  0
  1  2  1  0  0  0  0
  2  9  1  0  0  0  0
  2  3  2  0  0  0  0
  3  7  1  0  0  0  0
  4  3  1  0  0  0  0
  5  4  2  0  0  0  0
  6  1  2  0  0  0  0
  6  5  1  0  0  0  0
  8  5  1  0  0  0  0
  9 15  1  0  0  0  0
 10 11  2  0  0  0  0
 10  9  1  0  0  0  0
 11 12  1  0  0  0  0
 12 13  2  0  0  0  0
 12 14  1  0  0  0  0
 14 19  1  0  0  0  0
 15 14  1  0  0  0  0
 15 16  2  0  0  0  0
 17 10  1  0  0  0  0
 18 11  1  0  0  0  0
 20  1  1  0  0  0  0
 20 25  1  0  0  0  0
 21 20  1  0  0  0  0
 22 21  1  0  0  0  0
 22 23  1  0  0  0  0
 23 24  1  0  0  0  0
 24 25  1  0  0  0  0
M  END
>  <minimizedAffinity>
-5.07943201

$$$$

 OpenBabel03272507513D

 25 27  0  0  0  0  0  0  0  0999 V2000
   38.0930   23.2460   32.5230 C   0  0  0  0  0  0  0  0  0  0  0  0
   39.0800   23.7800   33.4020 C   0  0  0  0  0  0  0  0  0  0  0  0
   40.2200   24.3760   32.8460 C   0  0  0  0  0  0  0  0  0  0  0  0
   40.3290   24.4170   31.4930 N   0  0  0  0  0  0  0  0  0  0  0  0
   39.3830   23.9040   30.6700 C   0  0  0  0  0  0  0  0  0  0  0  0
   38.2690   23.3220   31.1800 N   0  0  0  0  0  0  0  0  0  0  0  0
   40.9600   24.7780   33.5210 H   0  0  0  0  0  0  0  0  0  0  0  0
   39.6260   24.0190   29.6220 H   0  0  0  0  0  0  0  0  0  0  0  0
   38.8380   23.6760   34.7930 N   0  0  0  0  0  0  0  0  0  0  0  0
   38.0640   24.5760   35.4510 C   0  0  0  0  0  0  0  0  0  0  0  0
   37.8490   24.4370   36.8210 C   0  0  0  0  0  0  0  0  0  0  0  0
   38.4770   23.3490   37.3810 C   0  0  0  0  0  0  0  0  0  0  0  0
   38.2770   23.2240   38.6360 O   0  0  0  0  0  0  0  0  0  0  0  0
   39.2530   22.4330   36.7610 N   0  0  0  0  0  0  0  0  0  0  0  0
   39.4170   22.6320   35.4370 C   0  0  0  0  0  0  0  0  0  0  0  0
   40.1340   21.7940   34.8380 O   0  0  0  0  0  0  0  0  0  0  0  0
   37.6060   25.4110   34.9370 H   0  0  0  0  0  0  0  0  0  0  0  0
   37.2530   25.1140   37.3750 H   0  0  0  0  0  0  0  0  0  0  0  0
   39.6810   21.6440   37.2910 H   0  0  0  0  0  0  0  0  0  0  0  0
   36.8580   22.5850   32.9330 C   0  0  0  0  0  3  0  0  0  0  0  0
   37.0610   21.0830   33.1740 C   0  0  0  0  0  2  0  0  0  0  0  0
   35.6560   20.5200   33.3460 C   0  0  0  0  0  2  0  0  0  0  0  0
   35.0720   20.3980   31.9380 C   0  0  0  0  0  2  0  0  0  0  0  0
   35.5420   21.5440   31.0810 C   0  0  0  0  0  2  0  0  0  0  0  0
   35.7760   22.8010   31.8960 C   0  0  0  0  0  2  0  0  0  0  0  0
  1 20  1  0  0  0  0
  1  2  1  0  0  0  0
  2  9  1  0  0  0  0
  3  2  2  0  0  0  0
  3  7  1  0  0  0  0
  4  3  1  0  0  0  0
  5  6  1  0  0  0  0
  5  4  2  0  0  0  0
  6  1  2  0  0  0  0
  8  5  1  0  0  0  0
  9 15  1  0  0  0  0
  9 10  1  0  0  0  0
 10 11  2  0  0  0  0
 11 18  1  0  0  0  0
 11 12  1  0  0  0  0
 12 13  2  0  0  0  0
 14 19  1  0  0  0  0
 14 12  1  0  0  0  0
 15 14  1  0  0  0  0
 16 15  2  0  0  0  0
 17 10  1  0  0  0  0
 20 21  1  0  0  0  0
 21 22  1  0  0  0  0
 23 22  1  0  0  0  0
 24 25  1  0  0  0  0
 24 23  1  0  0  0  0
 25 20  1  0  0  0  0
M  END
>  <minimizedAffinity>
-4.98030567

$$$$

 OpenBabel03272507513D

 25 27  0  0  0  0  0  0  0  0999 V2000
   39.6060   22.9540   36.9030 C   0  0  0  0  0  0  0  0  0  0  0  0
   38.3510   23.3460   36.3520 C   0  0  0  0  0  0  0  0  0  0  0  0
   37.3960   23.9180   37.2030 C   0  0  0  0  0  0  0  0  0  0  0  0
   37.7120   24.0700   38.5150 N   0  0  0  0  0  0  0  0  0  0  0  0
   38.9100   23.6910   39.0250 C   0  0  0  0  0  0  0  0  0  0  0  0
   39.8530   23.1360   38.2240 N   0  0  0  0  0  0  0  0  0  0  0  0
   36.4500   24.2120   36.7750 H   0  0  0  0  0  0  0  0  0  0  0  0
   38.9980   23.8830   40.0860 H   0  0  0  0  0  0  0  0  0  0  0  0
   38.1540   23.1360   34.9660 N   0  0  0  0  0  0  0  0  0  0  0  0
   37.7580   21.9330   34.4770 C   0  0  0  0  0  0  0  0  0  0  0  0
   37.5730   21.7680   33.1060 C   0  0  0  0  0  0  0  0  0  0  0  0
   37.8250   22.8980   32.3640 C   0  0  0  0  0  0  0  0  0  0  0  0
   37.6540   22.7430   31.1090 O   0  0  0  0  0  0  0  0  0  0  0  0
   38.2190   24.1100   32.8130 N   0  0  0  0  0  0  0  0  0  0  0  0
   38.3780   24.1960   34.1500 C   0  0  0  0  0  0  0  0  0  0  0  0
   38.7440   25.3110   34.5920 O   0  0  0  0  0  0  0  0  0  0  0  0
   37.5830   21.0880   35.1290 H   0  0  0  0  0  0  0  0  0  0  0  0
   37.2650   20.8490   32.6800 H   0  0  0  0  0  0  0  0  0  0  0  0
   38.3820   24.9000   32.1530 H   0  0  0  0  0  0  0  0  0  0  0  0
   40.7030   22.3370   36.1630 C   0  0  0  0  0  3  0  0  0  0  0  0
   41.5250   21.3830   37.0410 C   0  0  0  0  0  2  0  0  0  0  0  0
   42.7450   21.0300   36.2010 C   0  0  0  0  0  2  0  0  0  0  0  0
   43.6910   22.2270   36.3030 C   0  0  0  0  0  2  0  0  0  0  0  0
   42.9030   23.5090   36.3470 C   0  0  0  0  0  2  0  0  0  0  0  0
   41.6040   23.4010   35.5730 C   0  0  0  0  0  2  0  0  0  0  0  0
  1  6  1  0  0  0  0
  2  1  2  0  0  0  0
  2  3  1  0  0  0  0
  3  4  2  0  0  0  0
  4  5  1  0  0  0  0
  5  8  1  0  0  0  0
  6  5  2  0  0  0  0
  7  3  1  0  0  0  0
  9  2  1  0  0  0  0
 10  9  1  0  0  0  0
 10 17  1  0  0  0  0
 11 10  2  0  0  0  0
 12 14  1  0  0  0  0
 12 11  1  0  0  0  0
 13 12  2  0  0  0  0
 14 15  1  0  0  0  0
 15 16  2  0  0  0  0
 15  9  1  0  0  0  0
 18 11  1  0  0  0  0
 19 14  1  0  0  0  0
 20  1  1  0  0  0  0
 20 21  1  0  0  0  0
 22 23  1  0  0  0  0
 22 21  1  0  0  0  0
 23 24  1  0  0  0  0
 25 20  1  0  0  0  0
 25 24  1  0  0  0  0
M  END
>  <minimizedAffinity>
-4.95597982

$$$$

 OpenBabel03272507513D

 25 27  0  0  0  0  0  0  0  0999 V2000
   39.3000   25.0530   34.4480 C   0  0  0  0  0  0  0  0  0  0  0  0
   39.1460   25.0600   33.0310 C   0  0  0  0  0  0  0  0  0  0  0  0
   39.9410   25.9320   32.2760 C   0  0  0  0  0  0  0  0  0  0  0  0
   40.8230   26.7300   32.9320 N   0  0  0  0  0  0  0  0  0  0  0  0
   40.9580   26.7130   34.2800 C   0  0  0  0  0  0  0  0  0  0  0  0
   40.2010   25.8780   35.0360 N   0  0  0  0  0  0  0  0  0  0  0  0
   39.8170   25.9290   31.2030 H   0  0  0  0  0  0  0  0  0  0  0  0
   41.7030   27.4090   34.6400 H   0  0  0  0  0  0  0  0  0  0  0  0
   38.1930   24.1730   32.4740 N   0  0  0  0  0  0  0  0  0  0  0  0
   38.5140   22.8940   32.1510 C   0  0  0  0  0  0  0  0  0  0  0  0
   37.5460   22.0520   31.6070 C   0  0  0  0  0  0  0  0  0  0  0  0
   36.3130   22.6400   31.4500 C   0  0  0  0  0  0  0  0  0  0  0  0
   35.4290   21.8660   30.9520 O   0  0  0  0  0  0  0  0  0  0  0  0
   35.9550   23.9060   31.7590 N   0  0  0  0  0  0  0  0  0  0  0  0
   36.9430   24.6630   32.2810 C   0  0  0  0  0  0  0  0  0  0  0  0
   36.6370   25.8430   32.5760 O   0  0  0  0  0  0  0  0  0  0  0  0
   39.5130   22.5060   32.3020 H   0  0  0  0  0  0  0  0  0  0  0  0
   37.7500   21.0480   31.3400 H   0  0  0  0  0  0  0  0  0  0  0  0
   34.9840   24.2450   31.5950 H   0  0  0  0  0  0  0  0  0  0  0  0
   38.5470   24.2190   35.3800 C   0  0  0  0  0  3  0  0  0  0  0  0
   38.1650   24.9810   36.6560 C   0  0  0  0  0  2  0  0  0  0  0  0
   37.6180   23.9180   37.6000 C   0  0  0  0  0  2  0  0  0  0  0  0
   38.8370   23.1980   38.1790 C   0  0  0  0  0  2  0  0  0  0  0  0
   39.9160   23.0830   37.1360 C   0  0  0  0  0  2  0  0  0  0  0  0
   39.3420   22.9800   35.7370 C   0  0  0  0  0  2  0  0  0  0  0  0
  1  6  1  0  0  0  0
  1 20  1  0  0  0  0
  2  1  2  0  0  0  0
  3  4  2  0  0  0  0
  3  2  1  0  0  0  0
  4  5  1  0  0  0  0
  5  8  1  0  0  0  0
  5  6  2  0  0  0  0
  7  3  1  0  0  0  0
  9  2  1  0  0  0  0
 10 17  1  0  0  0  0
 10  9  1  0  0  0  0
 11 10  2  0  0  0  0
 12 11  1  0  0  0  0
 12 14  1  0  0  0  0
 13 12  2  0  0  0  0
 14 15  1  0  0  0  0
 15  9  1  0  0  0  0
 15 16  2  0  0  0  0
 18 11  1  0  0  0  0
 19 14  1  0  0  0  0
 20 25  1  0  0  0  0
 20 21  1  0  0  0  0
 21 22  1  0  0  0  0
 22 23  1  0  0  0  0
 24 23  1  0  0  0  0
 25 24  1  0  0  0  0
M  END
>  <minimizedAffinity>
-4.9387784

$$$$

 OpenBabel03272507513D

 25 27  0  0  0  0  0  0  0  0999 V2000
   39.3540   25.8310   34.1400 C   0  0  0  0  0  0  0  0  0  0  0  0
   39.1290   26.3320   32.8250 C   0  0  0  0  0  0  0  0  0  0  0  0
   40.1190   27.1290   32.2340 C   0  0  0  0  0  0  0  0  0  0  0  0
   41.2470   27.3850   32.9440 N   0  0  0  0  0  0  0  0  0  0  0  0
   41.4470   26.9020   34.1950 C   0  0  0  0  0  0  0  0  0  0  0  0
   40.5060   26.1280   34.7910 N   0  0  0  0  0  0  0  0  0  0  0  0
   39.9380   27.5020   31.2370 H   0  0  0  0  0  0  0  0  0  0  0  0
   42.3970   27.2000   34.6170 H   0  0  0  0  0  0  0  0  0  0  0  0
   37.9100   25.9840   32.1950 N   0  0  0  0  0  0  0  0  0  0  0  0
   37.7580   24.8060   31.5380 C   0  0  0  0  0  0  0  0  0  0  0  0
   36.5410   24.5010   30.9320 C   0  0  0  0  0  0  0  0  0  0  0  0
   35.5810   25.4760   31.0740 C   0  0  0  0  0  0  0  0  0  0  0  0
   34.4680   25.1920   30.5190 O   0  0  0  0  0  0  0  0  0  0  0  0
   35.6940   26.6580   31.7190 N   0  0  0  0  0  0  0  0  0  0  0  0
   36.9000   26.8850   32.2810 C   0  0  0  0  0  0  0  0  0  0  0  0
   37.0300   27.9770   32.8850 O   0  0  0  0  0  0  0  0  0  0  0  0
   38.5660   24.0900   31.4670 H   0  0  0  0  0  0  0  0  0  0  0  0
   36.3770   23.5950   30.4100 H   0  0  0  0  0  0  0  0  0  0  0  0
   34.8940   27.3240   31.7630 H   0  0  0  0  0  0  0  0  0  0  0  0
   38.4270   25.0000   34.9030 C   0  0  0  0  0  3  0  0  0  0  0  0
   38.3220   25.4490   36.3670 C   0  0  0  0  0  2  0  0  0  0  0  0
   37.5270   24.3490   37.0590 C   0  0  0  0  0  2  0  0  0  0  0  0
   38.5100   23.2010   37.2940 C   0  0  0  0  0  2  0  0  0  0  0  0
   39.4750   23.1000   36.1430 C   0  0  0  0  0  2  0  0  0  0  0  0
   38.8480   23.5470   34.8370 C   0  0  0  0  0  2  0  0  0  0  0  0
  1  6  1  0  0  0  0
  1 20  1  0  0  0  0
  2  1  2  0  0  0  0
  3  2  1  0  0  0  0
  3  4  2  0  0  0  0
  4  5  1  0  0  0  0
  5  8  1  0  0  0  0
  5  6  2  0  0  0  0
  7  3  1  0  0  0  0
  9 15  1  0  0  0  0
  9  2  1  0  0  0  0
 10  9  1  0  0  0  0
 11 12  1  0  0  0  0
 11 10  2  0  0  0  0
 12 14  1  0  0  0  0
 13 12  2  0  0  0  0
 14 19  1  0  0  0  0
 14 15  1  0  0  0  0
 15 16  2  0  0  0  0
 17 10  1  0  0  0  0
 18 11  1  0  0  0  0
 20 21  1  0  0  0  0
 21 22  1  0  0  0  0
 22 23  1  0  0  0  0
 24 23  1  0  0  0  0
 25 20  1  0  0  0  0
 25 24  1  0  0  0  0
M  END
>  <minimizedAffinity>
-4.9380188

$$$$
