
 OpenBabel03272510023D

 18 19  0  0  0  0  0  0  0  0999 V2000
   38.3290   31.2380   50.4100 C   0  0  0  0  0  0  0  0  0  0  0  0
   38.4850   31.5690   49.0540 C   0  0  0  0  0  0  0  0  0  0  0  0
   37.5100   31.1580   48.1640 C   0  0  0  0  0  0  0  0  0  0  0  0
   36.4390   30.4470   48.6440 N   0  0  0  0  0  0  0  0  0  0  0  0
   36.3310   30.1510   49.9580 C   0  0  0  0  0  0  0  0  0  0  0  0
   37.2710   30.5470   50.8210 N   0  0  0  0  0  0  0  0  0  0  0  0
   39.0390   31.5180   51.1760 H   0  0  0  0  0  0  0  0  0  0  0  0
   39.3650   32.1210   48.8470 H   0  0  0  0  0  0  0  0  0  0  0  0
   37.6850   31.5090   46.7640 C   0  0  0  0  0  3  0  0  0  0  0  0
   39.0510   31.4210   46.1990 C   0  0  0  0  0  2  0  0  0  0  0  0
   39.2170   30.2760   45.2210 C   0  0  0  0  0  2  0  0  0  0  0  0
   38.2890   30.5460   44.0550 C   0  0  0  0  0  2  0  0  0  0  0  0
   36.9190   30.9850   44.5000 C   0  0  0  0  0  2  0  0  0  0  0  0
   36.7810   30.5780   45.9430 C   0  0  0  0  0  2  0  0  0  0  0  0
   35.1440   29.3810   50.3900 C   0  0  0  0  0  0  0  0  0  0  0  0
   35.1580   29.0790   51.7440 F   0  0  0  0  0  0  0  0  0  0  0  0
   33.9720   30.0930   50.1640 F   0  0  0  0  0  0  0  0  0  0  0  0
   34.9860   28.1890   49.7230 F   0  0  0  0  0  0  0  0  0  0  0  0
  1  6  1  0  0  0  0
  1  7  1  0  0  0  0
  2  1  2  0  0  0  0
  3  4  2  0  0  0  0
  3  2  1  0  0  0  0
  4  5  1  0  0  0  0
  5 15  1  0  0  0  0
  5  6  2  0  0  0  0
  8  2  1  0  0  0  0
  9  3  1  0  0  0  0
 10  9  1  0  0  0  0
 11 10  1  0  0  0  0
 12 13  1  0  0  0  0
 12 11  1  0  0  0  0
 13 14  1  0  0  0  0
 14  9  1  0  0  0  0
 15 16  1  0  0  0  0
 17 15  1  0  0  0  0
 18 15  1  0  0  0  0
M  END
>  <minimizedAffinity>
-5.51094961

>  <minimizedRMSD>
0.392302275

$$$$
