
 OpenBabel03272505523D

 41 44  0  0  1  0  0  0  0  0999 V2000
   37.2430   29.2260   50.5380 C   0  0  0  0  0  0  0  0  0  0  0  0
   37.3880   30.5960   50.8920 C   0  0  0  0  0  0  0  0  0  0  0  0
   36.6460   31.5180   50.1630 C   0  0  0  0  0  0  0  0  0  0  0  0
   35.8400   31.0530   49.1700 N   0  0  0  0  0  0  0  0  0  0  0  0
   35.7360   29.7620   48.8750 C   0  0  0  0  0  0  0  0  0  0  0  0
   36.4310   28.8520   49.5510 N   0  0  0  0  0  0  0  0  0  0  0  0
   34.8730   29.3560   47.8260 N   0  0  0  0  0  0  0  0  0  0  0  0
   34.2350   28.0360   47.8220 C   0  0  0  0  0  0  0  0  0  0  0  0
   32.7680   28.1890   47.6750 C   0  0  0  0  0  0  0  0  0  0  0  0
   32.3020   29.3990   47.2180 N   0  0  0  0  0  0  0  0  0  0  0  0
   33.1470   30.3170   46.4940 C   0  0  0  0  0  0  0  0  0  0  0  0
   34.5710   30.2250   46.6950 C   0  0  2  0  0  0  0  0  0  0  0  0
   37.7820   28.4330   51.0500 H   0  0  0  0  0  0  0  0  0  0  0  0
   38.0590   30.8530   51.7000 H   0  0  0  0  0  0  0  0  0  0  0  0
   36.7350   32.5670   50.4100 H   0  0  0  0  0  0  0  0  0  0  0  0
   34.7360   27.3440   47.1300 H   0  0  0  0  0  0  0  0  0  0  0  0
   34.4430   27.5920   48.8210 H   0  0  0  0  0  0  0  0  0  0  0  0
   32.2270   27.9460   48.6180 H   0  0  0  0  0  0  0  0  0  0  0  0
   32.4340   27.3500   46.9920 H   0  0  0  0  0  0  0  0  0  0  0  0
   31.4160   29.7670   47.5620 H   0  0  0  0  0  0  0  0  0  0  0  0
   32.6480   30.4140   45.5490 H   0  0  0  0  0  0  0  0  0  0  0  0
   32.8300   31.3060   46.9780 H   0  0  0  0  0  0  0  0  0  0  0  0
   35.0600   31.2170   46.9350 H   0  0  0  0  0  0  0  0  0  0  0  0
   35.3130   29.7100   45.5650 N   0  0  2  0  0  0  0  0  0  0  0  0
   36.5690   30.4280   45.3570 C   0  0  0  0  0  0  0  0  0  0  0  0
   36.7890   30.5980   43.8900 C   0  0  0  0  0  0  0  0  0  0  0  0
   35.7100   29.7450   43.2930 C   0  0  0  0  0  0  0  0  0  0  0  0
   34.6180   29.7440   44.3380 C   0  0  1  0  0  0  0  0  0  0  0  0
   36.4030   31.4430   45.7870 H   0  0  0  0  0  0  0  0  0  0  0  0
   37.3850   29.8850   45.8600 H   0  0  0  0  0  0  0  0  0  0  0  0
   36.7320   31.6710   43.5670 H   0  0  0  0  0  0  0  0  0  0  0  0
   37.7620   30.2100   43.5430 H   0  0  0  0  0  0  0  0  0  0  0  0
   36.0650   28.7800   42.9720 H   0  0  0  0  0  0  0  0  0  0  0  0
   35.4320   30.2910   42.3430 H   0  0  0  0  0  0  0  0  0  0  0  0
   34.1240   30.6950   44.0810 H   0  0  0  0  0  0  0  0  0  0  0  0
   33.7880   28.5250   43.9920 C   0  0  2  0  0  0  0  0  0  0  0  0
   34.4390   27.2530   44.3580 C   0  0  0  0  0  0  0  0  0  0  0  0
   34.8380   26.2700   43.3590 C   0  0  0  0  0  0  0  0  0  0  0  0
   34.2920   26.4450   41.9710 C   0  0  0  0  0  0  0  0  0  0  0  0
   32.9890   27.2330   42.1040 C   0  0  0  0  0  0  0  0  0  0  0  0
   33.4610   28.6200   42.4930 C   0  0  0  0  0  0  0  0  0  0  0  0
  1  2  1  0  0  0  0
  1 13  1  0  0  0  0
  2 14  1  0  0  0  0
  3 15  1  0  0  0  0
  3  2  2  0  0  0  0
  4  3  1  0  0  0  0
  5  4  2  0  0  0  0
  5  6  1  0  0  0  0
  6  1  2  0  0  0  0
  7  5  1  0  0  0  0
  8  7  1  0  0  0  0
  8 17  1  0  0  0  0
  9  8  1  0  0  0  0
  9 18  1  0  0  0  0
 10 20  1  0  0  0  0
 10  9  1  0  0  0  0
 11 12  1  0  0  0  0
 11 22  1  0  0  0  0
 11 10  1  0  0  0  0
 12 23  1  1  0  0  0
 12  7  1  0  0  0  0
 16  8  1  0  0  0  0
 19  9  1  0  0  0  0
 21 11  1  0  0  0  0
 24 25  1  6  0  0  0
 24 12  1  0  0  0  0
 25 29  1  0  0  0  0
 25 30  1  0  0  0  0
 26 25  1  0  0  0  0
 27 26  1  0  0  0  0
 27 28  1  0  0  0  0
 28 35  1  6  0  0  0
 28 24  1  0  0  0  0
 31 26  1  0  0  0  0
 32 26  1  0  0  0  0
 33 27  1  0  0  0  0
 34 27  1  0  0  0  0
 36 41  1  6  0  0  0
 36 28  1  0  0  0  0
 36 37  1  0  0  0  0
 38 37  2  0  0  0  0
 39 40  1  0  0  0  0
 39 38  1  0  0  0  0
 40 41  1  0  0  0  0
M  END
>  <minimizedAffinity>
-4.6343832

>  <minimizedRMSD>
0.947938859

$$$$
