
 OpenBabel03272508053D

 32 35  0  0  0  0  0  0  0  0999 V2000
   38.9030   30.8480   45.6920 C   0  0  0  0  0  0  0  0  0  0  0  0
   40.1460   31.3970   45.9500 C   0  0  0  0  0  0  0  0  0  0  0  0
   40.9560   31.3430   44.8090 C   0  0  0  0  0  0  0  0  0  0  0  0
   40.1560   30.7560   43.9040 N   0  0  0  0  0  0  0  0  0  0  0  0
   38.9610   30.4660   44.4130 N   0  0  0  0  0  0  0  0  0  0  0  0
   40.4930   31.8250   46.8950 H   0  0  0  0  0  0  0  0  0  0  0  0
   41.9610   31.6650   44.6310 H   0  0  0  0  0  0  0  0  0  0  0  0
   37.8040   30.7310   46.6320 C   0  0  0  0  0  0  0  0  0  0  0  0
   38.0470   30.9890   47.9960 C   0  0  0  0  0  0  0  0  0  0  0  0
   36.9800   30.8740   48.8810 C   0  0  0  0  0  0  0  0  0  0  0  0
   35.7600   30.5170   48.3770 N   0  0  0  0  0  0  0  0  0  0  0  0
   35.5490   30.2740   47.0610 C   0  0  0  0  0  0  0  0  0  0  0  0
   36.5810   30.3850   46.1990 N   0  0  0  0  0  0  0  0  0  0  0  0
   39.0230   31.2690   48.3640 H   0  0  0  0  0  0  0  0  0  0  0  0
   34.5600   29.9970   46.7310 H   0  0  0  0  0  0  0  0  0  0  0  0
   37.2060   31.1380   50.3240 C   0  0  0  0  0  0  0  0  0  0  0  0
   36.6950   32.3900   50.5610 F   0  0  0  0  0  0  0  0  0  0  0  0
   36.5540   30.2210   51.1480 F   0  0  0  0  0  0  0  0  0  0  0  0
   38.5630   31.1590   50.6360 F   0  0  0  0  0  0  0  0  0  0  0  0
   40.4450   30.4260   42.5030 C   0  0  0  0  0  0  0  0  0  0  0  0
   40.0980   31.2920   41.4530 C   0  0  0  0  0  0  0  0  0  0  0  0
   40.3740   30.9500   40.1900 C   0  0  0  0  0  0  0  0  0  0  0  0
   41.0210   29.7040   39.9240 C   0  0  0  0  0  0  0  0  0  0  0  0
   41.2240   29.0180   41.6470 S   0  0  0  0  0  0  0  0  0  0  0  0
   39.6030   32.2490   41.6320 H   0  0  0  0  0  0  0  0  0  0  0  0
   40.1790   31.4890   39.2750 H   0  0  0  0  0  0  0  0  0  0  0  0
   41.4580   29.0240   38.7700 C   0  0  0  0  0  3  0  0  0  0  0  0
   42.8010   29.5480   38.3800 C   0  0  0  0  0  2  0  0  0  0  0  0
   43.9090   28.5490   38.7230 C   0  0  0  0  0  2  0  0  0  0  0  0
   43.6770   27.3570   37.7870 C   0  0  0  0  0  2  0  0  0  0  0  0
   42.2920   26.7880   37.9900 C   0  0  0  0  0  2  0  0  0  0  0  0
   41.5110   27.5370   39.0360 C   0  0  0  0  0  2  0  0  0  0  0  0
  1  2  1  0  0  0  0
  1  8  1  0  0  0  0
  2  6  1  0  0  0  0
  3  2  2  0  0  0  0
  4  5  1  0  0  0  0
  4  3  1  0  0  0  0
  5  1  2  0  0  0  0
  7  3  1  0  0  0  0
  8  9  1  0  0  0  0
  9 14  1  0  0  0  0
  9 10  2  0  0  0  0
 10 16  1  0  0  0  0
 11 10  1  0  0  0  0
 12 11  2  0  0  0  0
 13  8  2  0  0  0  0
 13 12  1  0  0  0  0
 15 12  1  0  0  0  0
 16 17  1  0  0  0  0
 16 19  1  0  0  0  0
 16 18  1  0  0  0  0
 20  4  1  0  0  0  0
 21 25  1  0  0  0  0
 21 20  2  0  0  0  0
 22 21  1  0  0  0  0
 23 22  2  0  0  0  0
 23 24  1  0  0  0  0
 24 20  1  0  0  0  0
 26 22  1  0  0  0  0
 27 32  1  0  0  0  0
 27 23  1  0  0  0  0
 28 29  1  0  0  0  0
 28 27  1  0  0  0  0
 30 31  1  0  0  0  0
 30 29  1  0  0  0  0
 31 32  1  0  0  0  0
M  END
>  <minimizedAffinity>
-6.26972628

>  <minimizedRMSD>
0.275533408

$$$$
