
 OpenBabel03272509053D

 30 32  0  0  0  0  0  0  0  0999 V2000
   35.8820   28.7690   49.2840 C   0  0  0  0  0  3  0  0  0  0  0  0
   34.6890   29.0380   48.8200 C   0  0  0  0  0  3  0  0  0  0  0  0
   38.1900   31.3380   50.4960 C   0  0  0  0  0  0  0  0  0  0  0  0
   38.6330   31.9140   49.2890 C   0  0  0  0  0  0  0  0  0  0  0  0
   38.1210   31.3980   48.0820 C   0  0  0  0  0  0  0  0  0  0  0  0
   37.2330   30.3780   48.1550 N   0  0  0  0  0  0  0  0  0  0  0  0
   36.8320   29.8490   49.3280 C   0  0  0  0  0  0  0  0  0  0  0  0
   37.3220   30.3450   50.4860 N   0  0  0  0  0  0  0  0  0  0  0  0
   38.6000   31.7560   51.4020 H   0  0  0  0  0  0  0  0  0  0  0  0
   39.3270   32.7140   49.1940 H   0  0  0  0  0  0  0  0  0  0  0  0
   38.4800   31.8870   46.7250 C   0  0  0  0  0  3  0  0  0  0  0  0
   39.5040   32.9960   46.7760 C   0  0  0  0  0  2  0  0  0  0  0  0
   39.8670   33.2810   45.3150 C   0  0  0  0  0  2  0  0  0  0  0  0
   40.7000   32.1620   44.7380 C   0  0  0  0  0  2  0  0  0  0  0  0
   40.5570   30.9660   45.6380 C   0  0  0  0  0  2  0  0  0  0  0  0
   39.0660   30.7680   45.8720 C   0  0  0  0  0  2  0  0  0  0  0  0
   33.5490   28.1130   48.6730 C   0  0  0  0  0  0  0  0  0  0  0  0
   32.6260   28.7290   48.5220 H   0  0  0  0  0  0  0  0  0  0  0  0
   33.3810   27.4760   49.5660 H   0  0  0  0  0  0  0  0  0  0  0  0
   33.6840   27.2230   47.4810 C   0  0  0  0  0  0  0  0  0  0  0  0
   33.7060   25.8530   47.5220 C   0  0  0  0  0  0  0  0  0  0  0  0
   33.8350   25.1170   46.3630 C   0  0  0  0  0  0  0  0  0  0  0  0
   33.9470   25.7570   45.1130 C   0  0  0  0  0  0  0  0  0  0  0  0
   33.9260   27.1230   45.0660 C   0  0  0  0  0  0  0  0  0  0  0  0
   33.7950   27.8430   46.2430 C   0  0  0  0  0  0  0  0  0  0  0  0
   33.6170   25.4030   48.5080 H   0  0  0  0  0  0  0  0  0  0  0  0
   33.8450   24.0520   46.4620 H   0  0  0  0  0  0  0  0  0  0  0  0
   34.0410   25.0800   44.2860 H   0  0  0  0  0  0  0  0  0  0  0  0
   34.0130   27.5930   44.0950 H   0  0  0  0  0  0  0  0  0  0  0  0
   33.7850   28.9290   46.1340 H   0  0  0  0  0  0  0  0  0  0  0  0
  1  7  1  0  0  0  0
  2  1  2  0  0  0  0
  3  9  1  0  0  0  0
  4  3  2  0  0  0  0
  5  6  2  0  0  0  0
  5  4  1  0  0  0  0
  6  7  1  0  0  0  0
  7  8  2  0  0  0  0
  8  3  1  0  0  0  0
 10  4  1  0  0  0  0
 11 12  1  0  0  0  0
 11  5  1  0  0  0  0
 13 12  1  0  0  0  0
 14 13  1  0  0  0  0
 14 15  1  0  0  0  0
 15 16  1  0  0  0  0
 16 11  1  0  0  0  0
 17  2  1  0  0  0  0
 17 19  1  0  0  0  0
 18 17  1  0  0  0  0
 20 21  1  0  0  0  0
 20 17  1  0  0  0  0
 21 26  1  0  0  0  0
 22 27  1  0  0  0  0
 22 21  2  0  0  0  0
 23 22  1  0  0  0  0
 24 23  2  0  0  0  0
 24 25  1  0  0  0  0
 25 20  2  0  0  0  0
 28 23  1  0  0  0  0
 29 24  1  0  0  0  0
 30 25  1  0  0  0  0
M  END
>  <minimizedAffinity>
-6.19095802

>  <minimizedRMSD>
1.93107557

$$$$
