
 OpenBabel03262520453D

 25 27  0  0  1  0  0  0  0  0999 V2000
   35.6380   28.8750   33.7580 C   0  0  1  0  0  0  0  0  0  0  0  0
   35.6520   28.2600   32.3590 C   0  0  0  0  0  0  0  0  0  0  0  0
   36.8400   28.1930   33.2410 C   0  0  2  0  0  0  0  0  0  0  0  0
   35.0830   28.3810   34.5670 H   0  0  0  0  0  0  0  0  0  0  0  0
   35.6210   28.9120   31.4820 H   0  0  0  0  0  0  0  0  0  0  0  0
   35.0680   27.3080   32.2450 H   0  0  0  0  0  0  0  0  0  0  0  0
   37.6580   28.9160   32.9520 H   0  0  0  0  0  0  0  0  0  0  0  0
   37.2600   26.8560   33.7980 C   0  0  0  0  0  3  0  0  0  0  0  0
   38.4860   26.3940   33.0440 C   0  0  0  0  0  2  0  0  0  0  0  0
   39.6580   27.2060   33.5220 C   0  0  0  0  0  2  0  0  0  0  0  0
   39.9050   26.7330   34.9440 C   0  0  0  0  0  2  0  0  0  0  0  0
   38.7500   27.0450   35.8500 C   0  0  0  0  0  2  0  0  0  0  0  0
   37.4090   26.8370   35.2760 C   0  0  0  0  0  2  0  0  0  0  0  0
   35.5020   30.3690   33.7400 C   0  0  0  0  0  0  0  0  0  0  0  0
   36.4660   30.8780   33.5540 H   0  0  0  0  0  0  0  0  0  0  0  0
   34.8530   30.6250   32.8690 H   0  0  0  0  0  0  0  0  0  0  0  0
   34.9350   32.2100   36.9580 C   0  0  0  0  0  0  0  0  0  0  0  0
   35.5610   31.7100   35.7850 C   0  0  0  0  0  0  0  0  0  0  0  0
   34.8200   30.8710   34.9510 C   0  0  0  0  0  0  0  0  0  0  0  0
   33.5590   30.5780   35.2950 N   0  0  0  0  0  0  0  0  0  0  0  0
   32.9830   31.0660   36.4190 C   0  0  0  0  0  0  0  0  0  0  0  0
   33.6860   31.8840   37.2420 N   0  0  0  0  0  0  0  0  0  0  0  0
   35.4670   32.8640   37.6360 H   0  0  0  0  0  0  0  0  0  0  0  0
   36.5860   32.0260   35.6260 H   0  0  0  0  0  0  0  0  0  0  0  0
   31.9670   30.8150   36.6730 H   0  0  0  0  0  0  0  0  0  0  0  0
  1  4  1  1  0  0  0
  2  3  1  0  0  0  0
  2  1  1  0  0  0  0
  3  7  1  6  0  0  0
  3  1  1  0  0  0  0
  3  8  1  0  0  0  0
  5  2  1  0  0  0  0
  6  2  1  0  0  0  0
  8 13  1  0  0  0  0
  9 10  1  0  0  0  0
  9  8  1  0  0  0  0
 10 11  1  0  0  0  0
 11 12  1  0  0  0  0
 13 12  1  0  0  0  0
 14  1  1  0  0  0  0
 14 19  1  0  0  0  0
 15 14  1  0  0  0  0
 16 14  1  0  0  0  0
 17 22  1  0  0  0  0
 17 23  1  0  0  0  0
 18 17  2  0  0  0  0
 19 20  2  0  0  0  0
 19 18  1  0  0  0  0
 20 21  1  0  0  0  0
 21 25  1  0  0  0  0
 21 22  2  0  0  0  0
 24 18  1  0  0  0  0
M  END
>  <minimizedAffinity>
-4.82682419

$$$$

 OpenBabel03262520453D

 25 27  0  0  1  0  0  0  0  0999 V2000
   37.3440   27.4190   33.4980 C   0  0  1  0  0  0  0  0  0  0  0  0
   36.6110   28.2590   34.5430 C   0  0  0  0  0  0  0  0  0  0  0  0
   37.0650   26.8820   34.8430 C   0  0  2  0  0  0  0  0  0  0  0  0
   38.3910   27.6470   33.2500 H   0  0  0  0  0  0  0  0  0  0  0  0
   35.5550   28.4990   34.3990 H   0  0  0  0  0  0  0  0  0  0  0  0
   37.2120   29.0880   35.0050 H   0  0  0  0  0  0  0  0  0  0  0  0
   36.2290   26.1210   34.8400 H   0  0  0  0  0  0  0  0  0  0  0  0
   38.1830   26.6810   35.8350 C   0  0  0  0  0  3  0  0  0  0  0  0
   38.0490   25.2950   36.4240 C   0  0  0  0  0  2  0  0  0  0  0  0
   38.5010   24.3040   35.3860 C   0  0  0  0  0  2  0  0  0  0  0  0
   40.0020   24.5120   35.2770 C   0  0  0  0  0  2  0  0  0  0  0  0
   40.3450   25.8790   34.7650 C   0  0  0  0  0  2  0  0  0  0  0  0
   39.5320   26.9880   35.2950 C   0  0  0  0  0  2  0  0  0  0  0  0
   36.4890   27.0820   32.3130 C   0  0  0  0  0  0  0  0  0  0  0  0
   35.4260   27.3440   32.4720 H   0  0  0  0  0  0  0  0  0  0  0  0
   36.8350   27.7270   31.4700 H   0  0  0  0  0  0  0  0  0  0  0  0
   38.1920   23.8590   31.4310 C   0  0  0  0  0  0  0  0  0  0  0  0
   37.9830   25.2040   31.8360 C   0  0  0  0  0  0  0  0  0  0  0  0
   36.6710   25.6780   31.8880 C   0  0  0  0  0  0  0  0  0  0  0  0
   35.6760   24.8460   31.5540 N   0  0  0  0  0  0  0  0  0  0  0  0
   35.8990   23.5670   31.1700 C   0  0  0  0  0  0  0  0  0  0  0  0
   37.1670   23.0870   31.1140 N   0  0  0  0  0  0  0  0  0  0  0  0
   39.1900   23.4440   31.3740 H   0  0  0  0  0  0  0  0  0  0  0  0
   38.8760   25.7680   32.0780 H   0  0  0  0  0  0  0  0  0  0  0  0
   35.0810   22.9190   30.9070 H   0  0  0  0  0  0  0  0  0  0  0  0
  1  4  1  6  0  0  0
  1  2  1  0  0  0  0
  1  3  1  0  0  0  0
  2  3  1  0  0  0  0
  2  6  1  0  0  0  0
  3  7  1  1  0  0  0
  3  8  1  0  0  0  0
  5  2  1  0  0  0  0
  8  9  1  0  0  0  0
 10  9  1  0  0  0  0
 11 10  1  0  0  0  0
 12 11  1  0  0  0  0
 12 13  1  0  0  0  0
 13  8  1  0  0  0  0
 14 15  1  0  0  0  0
 14  1  1  0  0  0  0
 16 14  1  0  0  0  0
 17 18  1  0  0  0  0
 18 19  2  0  0  0  0
 18 24  1  0  0  0  0
 19 14  1  0  0  0  0
 20 19  1  0  0  0  0
 21 20  2  0  0  0  0
 22 21  1  0  0  0  0
 22 17  2  0  0  0  0
 23 17  1  0  0  0  0
 25 21  1  0  0  0  0
M  END
>  <minimizedAffinity>
-4.51661491

$$$$

 OpenBabel03262520453D

 25 27  0  0  1  0  0  0  0  0999 V2000
   37.8630   23.0590   33.4680 C   0  0  1  0  0  0  0  0  0  0  0  0
   37.9090   23.1730   31.9450 C   0  0  0  0  0  0  0  0  0  0  0  0
   37.4070   21.9490   32.6110 C   0  0  2  0  0  0  0  0  0  0  0  0
   37.0990   23.6090   34.0350 H   0  0  0  0  0  0  0  0  0  0  0  0
   38.8750   23.1970   31.4340 H   0  0  0  0  0  0  0  0  0  0  0  0
   37.1310   23.8410   31.4880 H   0  0  0  0  0  0  0  0  0  0  0  0
   38.1400   21.0900   32.5880 H   0  0  0  0  0  0  0  0  0  0  0  0
   35.9400   21.6130   32.5090 C   0  0  0  0  0  3  0  0  0  0  0  0
   35.6420   21.2280   31.0780 C   0  0  0  0  0  2  0  0  0  0  0  0
   36.1960   19.8500   30.8430 C   0  0  0  0  0  2  0  0  0  0  0  0
   35.3090   18.9280   31.6620 C   0  0  0  0  0  2  0  0  0  0  0  0
   35.4150   19.2050   33.1320 C   0  0  0  0  0  2  0  0  0  0  0  0
   35.4750   20.6260   33.5180 C   0  0  0  0  0  2  0  0  0  0  0  0
   39.2240   23.0710   34.0990 C   0  0  0  0  0  0  0  0  0  0  0  0
   39.8630   22.2430   33.7360 H   0  0  0  0  0  0  0  0  0  0  0  0
   39.7280   24.0090   33.7650 H   0  0  0  0  0  0  0  0  0  0  0  0
   40.2130   22.6900   37.6960 C   0  0  0  0  0  0  0  0  0  0  0  0
   40.2570   22.6550   36.2770 C   0  0  0  0  0  0  0  0  0  0  0  0
   39.1450   23.1220   35.5740 C   0  0  0  0  0  0  0  0  0  0  0  0
   38.0940   23.5780   36.2670 N   0  0  0  0  0  0  0  0  0  0  0  0
   38.0740   23.6020   37.6200 C   0  0  0  0  0  0  0  0  0  0  0  0
   39.1450   23.1530   38.3220 N   0  0  0  0  0  0  0  0  0  0  0  0
   41.0490   22.3400   38.2870 H   0  0  0  0  0  0  0  0  0  0  0  0
   41.1690   22.2610   35.8430 H   0  0  0  0  0  0  0  0  0  0  0  0
   37.2160   23.9730   38.1540 H   0  0  0  0  0  0  0  0  0  0  0  0
  1  4  1  1  0  0  0
  1 14  1  0  0  0  0
  2  3  1  0  0  0  0
  2  1  1  0  0  0  0
  3  7  1  6  0  0  0
  3  1  1  0  0  0  0
  5  2  1  0  0  0  0
  6  2  1  0  0  0  0
  8  3  1  0  0  0  0
  8 13  1  0  0  0  0
  9  8  1  0  0  0  0
 10  9  1  0  0  0  0
 10 11  1  0  0  0  0
 11 12  1  0  0  0  0
 12 13  1  0  0  0  0
 14 19  1  0  0  0  0
 15 14  1  0  0  0  0
 16 14  1  0  0  0  0
 17 23  1  0  0  0  0
 17 22  1  0  0  0  0
 18 17  2  0  0  0  0
 19 20  2  0  0  0  0
 19 18  1  0  0  0  0
 20 21  1  0  0  0  0
 21 25  1  0  0  0  0
 21 22  2  0  0  0  0
 24 18  1  0  0  0  0
M  END
>  <minimizedAffinity>
-4.4978528

$$$$

 OpenBabel03262520453D

 25 27  0  0  1  0  0  0  0  0999 V2000
   38.7400   23.5430   36.7850 C   0  0  1  0  0  0  0  0  0  0  0  0
   37.3540   23.8250   37.3640 C   0  0  0  0  0  0  0  0  0  0  0  0
   38.2140   24.9200   36.8590 C   0  0  2  0  0  0  0  0  0  0  0  0
   38.8330   23.0890   35.7880 H   0  0  0  0  0  0  0  0  0  0  0  0
   37.1750   23.6790   38.4320 H   0  0  0  0  0  0  0  0  0  0  0  0
   36.4890   23.5350   36.7100 H   0  0  0  0  0  0  0  0  0  0  0  0
   38.7020   25.5250   37.6790 H   0  0  0  0  0  0  0  0  0  0  0  0
   37.8040   25.6510   35.6060 C   0  0  0  0  0  3  0  0  0  0  0  0
   38.4760   27.0050   35.6070 C   0  0  0  0  0  2  0  0  0  0  0  0
   39.9280   26.8030   35.2730 C   0  0  0  0  0  2  0  0  0  0  0  0
   39.9390   26.3910   33.8110 C   0  0  0  0  0  2  0  0  0  0  0  0
   39.2450   25.0800   33.5900 C   0  0  0  0  0  2  0  0  0  0  0  0
   38.0040   24.8710   34.3570 C   0  0  0  0  0  2  0  0  0  0  0  0
   39.7010   23.0020   37.8010 C   0  0  0  0  0  0  0  0  0  0  0  0
   39.9190   23.7320   38.6040 H   0  0  0  0  0  0  0  0  0  0  0  0
   39.1930   22.1440   38.3030 H   0  0  0  0  0  0  0  0  0  0  0  0
   42.6230   22.7190   35.4680 C   0  0  0  0  0  0  0  0  0  0  0  0
   41.4460   23.2020   36.0990 C   0  0  0  0  0  0  0  0  0  0  0  0
   40.9270   22.4710   37.1690 C   0  0  0  0  0  0  0  0  0  0  0  0
   41.5590   21.3540   37.5480 N   0  0  0  0  0  0  0  0  0  0  0  0
   42.6800   20.9110   36.9310 C   0  0  0  0  0  0  0  0  0  0  0  0
   43.2020   21.6080   35.8890 N   0  0  0  0  0  0  0  0  0  0  0  0
   43.0650   23.2490   34.6350 H   0  0  0  0  0  0  0  0  0  0  0  0
   41.0350   24.1200   35.6920 H   0  0  0  0  0  0  0  0  0  0  0  0
   43.1700   20.0090   37.2550 H   0  0  0  0  0  0  0  0  0  0  0  0
  1  4  1  6  0  0  0
  1  3  1  0  0  0  0
  1  2  1  0  0  0  0
  1 14  1  0  0  0  0
  2  5  1  0  0  0  0
  3  2  1  0  0  0  0
  3  7  1  1  0  0  0
  6  2  1  0  0  0  0
  8  9  1  0  0  0  0
  8  3  1  0  0  0  0
 10  9  1  0  0  0  0
 11 10  1  0  0  0  0
 12 11  1  0  0  0  0
 12 13  1  0  0  0  0
 13  8  1  0  0  0  0
 14 16  1  0  0  0  0
 14 15  1  0  0  0  0
 17 22  2  0  0  0  0
 17 18  1  0  0  0  0
 18 19  2  0  0  0  0
 19 20  1  0  0  0  0
 19 14  1  0  0  0  0
 21 25  1  0  0  0  0
 21 20  2  0  0  0  0
 22 21  1  0  0  0  0
 23 17  1  0  0  0  0
 24 18  1  0  0  0  0
M  END
>  <minimizedAffinity>
-4.46372938

$$$$

 OpenBabel03262520453D

 25 27  0  0  1  0  0  0  0  0999 V2000
   38.0010   26.9010   34.7080 C   0  0  1  0  0  0  0  0  0  0  0  0
   38.6420   27.2380   36.0540 C   0  0  0  0  0  0  0  0  0  0  0  0
   38.0640   25.9000   35.7890 C   0  0  2  0  0  0  0  0  0  0  0  0
   38.6370   26.7370   33.8260 H   0  0  0  0  0  0  0  0  0  0  0  0
   38.1550   27.9540   36.7200 H   0  0  0  0  0  0  0  0  0  0  0  0
   39.7630   27.3000   36.0520 H   0  0  0  0  0  0  0  0  0  0  0  0
   37.0630   25.7350   36.2850 H   0  0  0  0  0  0  0  0  0  0  0  0
   38.9890   24.7140   35.6800 C   0  0  0  0  0  3  0  0  0  0  0  0
   38.8100   23.8600   36.9150 C   0  0  0  0  0  2  0  0  0  0  0  0
   37.5030   23.1270   36.7870 C   0  0  0  0  0  2  0  0  0  0  0  0
   37.7300   22.1180   35.6740 C   0  0  0  0  0  2  0  0  0  0  0  0
   37.9980   22.7820   34.3570 C   0  0  0  0  0  2  0  0  0  0  0  0
   38.8710   23.9690   34.4000 C   0  0  0  0  0  2  0  0  0  0  0  0
   36.7610   27.7000   34.4330 C   0  0  0  0  0  0  0  0  0  0  0  0
   35.8480   27.2020   34.8110 H   0  0  0  0  0  0  0  0  0  0  0  0
   36.8500   28.6470   35.0160 H   0  0  0  0  0  0  0  0  0  0  0  0
   37.2710   27.6120   30.7190 C   0  0  0  0  0  0  0  0  0  0  0  0
   37.3510   27.2780   32.0970 C   0  0  0  0  0  0  0  0  0  0  0  0
   36.6560   28.0750   33.0080 C   0  0  0  0  0  0  0  0  0  0  0  0
   35.9490   29.1130   32.5420 N   0  0  0  0  0  0  0  0  0  0  0  0
   35.8870   29.4130   31.2230 C   0  0  0  0  0  0  0  0  0  0  0  0
   36.5550   28.6500   30.3210 N   0  0  0  0  0  0  0  0  0  0  0  0
   37.7910   27.0260   29.9730 H   0  0  0  0  0  0  0  0  0  0  0  0
   37.9580   26.4130   32.3380 H   0  0  0  0  0  0  0  0  0  0  0  0
   35.3110   30.2530   30.8740 H   0  0  0  0  0  0  0  0  0  0  0  0
  1  4  1  6  0  0  0
  1  3  1  0  0  0  0
  1  2  1  0  0  0  0
  2  5  1  0  0  0  0
  3  2  1  0  0  0  0
  3  7  1  1  0  0  0
  6  2  1  0  0  0  0
  8  3  1  0  0  0  0
  8  9  1  0  0  0  0
 10  9  1  0  0  0  0
 11 10  1  0  0  0  0
 12 13  1  0  0  0  0
 12 11  1  0  0  0  0
 13  8  1  0  0  0  0
 14  1  1  0  0  0  0
 14 15  1  0  0  0  0
 14 16  1  0  0  0  0
 17 18  1  0  0  0  0
 18 24  1  0  0  0  0
 18 19  2  0  0  0  0
 19 14  1  0  0  0  0
 20 19  1  0  0  0  0
 21 20  2  0  0  0  0
 22 17  2  0  0  0  0
 22 21  1  0  0  0  0
 23 17  1  0  0  0  0
 25 21  1  0  0  0  0
M  END
>  <minimizedAffinity>
-4.4494648

$$$$

 OpenBabel03262520453D

 25 27  0  0  1  0  0  0  0  0999 V2000
   37.1130   26.8050   34.7290 C   0  0  1  0  0  0  0  0  0  0  0  0
   36.4970   28.1920   34.5460 C   0  0  0  0  0  0  0  0  0  0  0  0
   37.3490   27.5830   33.4980 C   0  0  2  0  0  0  0  0  0  0  0  0
   36.4780   25.9100   34.6490 H   0  0  0  0  0  0  0  0  0  0  0  0
   36.8470   29.0230   35.1620 H   0  0  0  0  0  0  0  0  0  0  0  0
   35.3940   28.2060   34.3380 H   0  0  0  0  0  0  0  0  0  0  0  0
   38.3900   28.0180   33.4550 H   0  0  0  0  0  0  0  0  0  0  0  0
   36.7160   27.1650   32.1950 C   0  0  0  0  0  3  0  0  0  0  0  0
   35.8040   28.2790   31.7330 C   0  0  0  0  0  2  0  0  0  0  0  0
   36.6650   29.3950   31.2070 C   0  0  0  0  0  2  0  0  0  0  0  0
   37.2610   28.8540   29.9190 C   0  0  0  0  0  2  0  0  0  0  0  0
   38.1590   27.6780   30.1650 C   0  0  0  0  0  2  0  0  0  0  0  0
   37.6890   26.7070   31.1690 C   0  0  0  0  0  2  0  0  0  0  0  0
   38.1170   26.7510   35.8420 C   0  0  0  0  0  0  0  0  0  0  0  0
   39.0060   27.3770   35.6370 H   0  0  0  0  0  0  0  0  0  0  0  0
   37.6300   27.2040   36.7390 H   0  0  0  0  0  0  0  0  0  0  0  0
   39.6970   23.3570   35.6380 C   0  0  0  0  0  0  0  0  0  0  0  0
   39.3380   24.6950   35.3280 C   0  0  0  0  0  0  0  0  0  0  0  0
   38.4700   25.3600   36.1950 C   0  0  0  0  0  0  0  0  0  0  0  0
   38.0180   24.7080   37.2740 N   0  0  0  0  0  0  0  0  0  0  0  0
   38.3730   23.4310   37.5500 C   0  0  0  0  0  0  0  0  0  0  0  0
   39.2170   22.7670   36.7190 N   0  0  0  0  0  0  0  0  0  0  0  0
   40.3670   22.7980   34.9980 H   0  0  0  0  0  0  0  0  0  0  0  0
   39.7750   25.1030   34.4230 H   0  0  0  0  0  0  0  0  0  0  0  0
   37.9960   22.9290   38.4240 H   0  0  0  0  0  0  0  0  0  0  0  0
  1  4  1  6  0  0  0
  1 14  1  0  0  0  0
  2  1  1  0  0  0  0
  2  5  1  0  0  0  0
  3  7  1  6  0  0  0
  3  2  1  0  0  0  0
  3  1  1  0  0  0  0
  6  2  1  0  0  0  0
  8  3  1  0  0  0  0
  9  8  1  0  0  0  0
 10  9  1  0  0  0  0
 11 12  1  0  0  0  0
 11 10  1  0  0  0  0
 12 13  1  0  0  0  0
 13  8  1  0  0  0  0
 14 19  1  0  0  0  0
 14 16  1  0  0  0  0
 15 14  1  0  0  0  0
 17 22  1  0  0  0  0
 18 17  2  0  0  0  0
 18 19  1  0  0  0  0
 19 20  2  0  0  0  0
 20 21  1  0  0  0  0
 21 25  1  0  0  0  0
 22 21  2  0  0  0  0
 23 17  1  0  0  0  0
 24 18  1  0  0  0  0
M  END
>  <minimizedAffinity>
-4.40616179

$$$$

 OpenBabel03262520453D

 25 27  0  0  1  0  0  0  0  0999 V2000
   37.3080   27.6700   33.4420 C   0  0  1  0  0  0  0  0  0  0  0  0
   36.4140   28.2740   34.5240 C   0  0  0  0  0  0  0  0  0  0  0  0
   37.0020   26.9230   34.6760 C   0  0  2  0  0  0  0  0  0  0  0  0
   38.3360   28.0390   33.3140 H   0  0  0  0  0  0  0  0  0  0  0  0
   35.3490   28.4200   34.3260 H   0  0  0  0  0  0  0  0  0  0  0  0
   36.8830   29.0870   35.1390 H   0  0  0  0  0  0  0  0  0  0  0  0
   36.2620   26.0870   34.5030 H   0  0  0  0  0  0  0  0  0  0  0  0
   38.0660   26.7030   35.7220 C   0  0  0  0  0  3  0  0  0  0  0  0
   37.9960   25.2620   36.1720 C   0  0  0  0  0  2  0  0  0  0  0  0
   38.5840   24.4070   35.0840 C   0  0  0  0  0  2  0  0  0  0  0  0
   40.0700   24.7230   35.1000 C   0  0  0  0  0  2  0  0  0  0  0  0
   40.3450   26.1520   34.7390 C   0  0  0  0  0  2  0  0  0  0  0  0
   39.4220   27.1500   35.3090 C   0  0  0  0  0  2  0  0  0  0  0  0
   36.5810   27.4150   32.1550 C   0  0  0  0  0  0  0  0  0  0  0  0
   36.2320   26.3680   32.0700 H   0  0  0  0  0  0  0  0  0  0  0  0
   35.6560   28.0400   32.1760 H   0  0  0  0  0  0  0  0  0  0  0  0
   39.5400   28.0610   29.9440 C   0  0  0  0  0  0  0  0  0  0  0  0
   38.7510   27.6560   31.0530 C   0  0  0  0  0  0  0  0  0  0  0  0
   37.3700   27.8480   30.9840 C   0  0  0  0  0  0  0  0  0  0  0  0
   36.8560   28.4040   29.8790 N   0  0  0  0  0  0  0  0  0  0  0  0
   37.6270   28.7840   28.8330 C   0  0  0  0  0  0  0  0  0  0  0  0
   38.9720   28.6050   28.8810 N   0  0  0  0  0  0  0  0  0  0  0  0
   40.6140   27.9340   29.9490 H   0  0  0  0  0  0  0  0  0  0  0  0
   39.2950   27.2190   31.8840 H   0  0  0  0  0  0  0  0  0  0  0  0
   37.1890   29.2290   27.9560 H   0  0  0  0  0  0  0  0  0  0  0  0
  1  4  1  6  0  0  0
  1  2  1  0  0  0  0
  1  3  1  0  0  0  0
  2  3  1  0  0  0  0
  2  6  1  0  0  0  0
  3  7  1  6  0  0  0
  3  8  1  0  0  0  0
  5  2  1  0  0  0  0
  8  9  1  0  0  0  0
 10 11  1  0  0  0  0
 10  9  1  0  0  0  0
 12 11  1  0  0  0  0
 12 13  1  0  0  0  0
 13  8  1  0  0  0  0
 14 16  1  0  0  0  0
 14  1  1  0  0  0  0
 15 14  1  0  0  0  0
 17 23  1  0  0  0  0
 17 18  1  0  0  0  0
 18 24  1  0  0  0  0
 19 18  2  0  0  0  0
 19 14  1  0  0  0  0
 20 19  1  0  0  0  0
 21 22  1  0  0  0  0
 21 20  2  0  0  0  0
 22 17  2  0  0  0  0
 25 21  1  0  0  0  0
M  END
>  <minimizedAffinity>
-4.37552881

$$$$

 OpenBabel03262520453D

 25 27  0  0  1  0  0  0  0  0999 V2000
   38.8830   23.4990   33.5310 C   0  0  1  0  0  0  0  0  0  0  0  0
   38.1090   23.4850   32.2130 C   0  0  0  0  0  0  0  0  0  0  0  0
   37.8210   24.4870   33.2660 C   0  0  2  0  0  0  0  0  0  0  0  0
   39.9200   23.8630   33.5520 H   0  0  0  0  0  0  0  0  0  0  0  0
   37.4240   22.6620   31.9980 H   0  0  0  0  0  0  0  0  0  0  0  0
   38.6740   23.8590   31.3180 H   0  0  0  0  0  0  0  0  0  0  0  0
   36.8750   24.2720   33.8460 H   0  0  0  0  0  0  0  0  0  0  0  0
   38.1660   25.9330   33.0110 C   0  0  0  0  0  3  0  0  0  0  0  0
   37.0350   26.7880   33.5370 C   0  0  0  0  0  2  0  0  0  0  0  0
   37.1260   26.8060   35.0380 C   0  0  0  0  0  2  0  0  0  0  0  0
   38.3720   27.6190   35.3440 C   0  0  0  0  0  2  0  0  0  0  0  0
   39.6160   26.9570   34.8310 C   0  0  0  0  0  2  0  0  0  0  0  0
   39.5110   26.3290   33.5020 C   0  0  0  0  0  2  0  0  0  0  0  0
   38.6430   22.2760   34.3650 C   0  0  0  0  0  0  0  0  0  0  0  0
   37.6270   21.8610   34.2210 H   0  0  0  0  0  0  0  0  0  0  0  0
   39.3430   21.4890   33.9960 H   0  0  0  0  0  0  0  0  0  0  0  0
   38.2600   23.3830   37.9280 C   0  0  0  0  0  0  0  0  0  0  0  0
   37.9830   23.1410   36.5550 C   0  0  0  0  0  0  0  0  0  0  0  0
   38.9640   22.5110   35.7880 C   0  0  0  0  0  0  0  0  0  0  0  0
   40.1150   22.1650   36.3790 N   0  0  0  0  0  0  0  0  0  0  0  0
   40.3580   22.4050   37.6890 C   0  0  0  0  0  0  0  0  0  0  0  0
   39.4170   23.0170   38.4520 N   0  0  0  0  0  0  0  0  0  0  0  0
   37.5330   23.8680   38.5650 H   0  0  0  0  0  0  0  0  0  0  0  0
   37.0120   23.4720   36.2050 H   0  0  0  0  0  0  0  0  0  0  0  0
   41.2920   22.1170   38.1400 H   0  0  0  0  0  0  0  0  0  0  0  0
  1  4  1  6  0  0  0
  1 14  1  0  0  0  0
  2  3  1  0  0  0  0
  2  1  1  0  0  0  0
  3  1  1  0  0  0  0
  3  7  1  1  0  0  0
  5  2  1  0  0  0  0
  6  2  1  0  0  0  0
  8  3  1  0  0  0  0
  8 13  1  0  0  0  0
  8  9  1  0  0  0  0
  9 10  1  0  0  0  0
 10 11  1  0  0  0  0
 12 11  1  0  0  0  0
 13 12  1  0  0  0  0
 14 19  1  0  0  0  0
 15 14  1  0  0  0  0
 16 14  1  0  0  0  0
 17 22  1  0  0  0  0
 17 23  1  0  0  0  0
 18 17  2  0  0  0  0
 19 20  2  0  0  0  0
 19 18  1  0  0  0  0
 20 21  1  0  0  0  0
 21 25  1  0  0  0  0
 21 22  2  0  0  0  0
 24 18  1  0  0  0  0
M  END
>  <minimizedAffinity>
-4.33712053

$$$$

 OpenBabel03262520453D

 25 27  0  0  1  0  0  0  0  0999 V2000
   36.8200   24.0200   31.6990 C   0  0  1  0  0  0  0  0  0  0  0  0
   36.7350   25.4650   31.2090 C   0  0  0  0  0  0  0  0  0  0  0  0
   36.9130   25.1480   32.6450 C   0  0  2  0  0  0  0  0  0  0  0  0
   37.7330   23.4340   31.5180 H   0  0  0  0  0  0  0  0  0  0  0  0
   35.7890   25.8460   30.8160 H   0  0  0  0  0  0  0  0  0  0  0  0
   37.6430   25.8460   30.6720 H   0  0  0  0  0  0  0  0  0  0  0  0
   35.9710   25.2790   33.2560 H   0  0  0  0  0  0  0  0  0  0  0  0
   38.2240   25.4850   33.3090 C   0  0  0  0  0  3  0  0  0  0  0  0
   38.3540   26.9900   33.3610 C   0  0  0  0  0  2  0  0  0  0  0  0
   37.4320   27.4990   34.4340 C   0  0  0  0  0  2  0  0  0  0  0  0
   38.0560   27.0330   35.7390 C   0  0  0  0  0  2  0  0  0  0  0  0
   38.0820   25.5370   35.8470 C   0  0  0  0  0  2  0  0  0  0  0  0
   38.4310   24.8080   34.6150 C   0  0  0  0  0  2  0  0  0  0  0  0
   35.5460   23.2550   31.4950 C   0  0  0  0  0  0  0  0  0  0  0  0
   34.7170   23.6450   32.1140 H   0  0  0  0  0  0  0  0  0  0  0  0
   35.2350   23.4210   30.4360 H   0  0  0  0  0  0  0  0  0  0  0  0
   35.5910   19.8680   33.1060 C   0  0  0  0  0  0  0  0  0  0  0  0
   35.4100   21.2640   32.9080 C   0  0  0  0  0  0  0  0  0  0  0  0
   35.7470   21.8010   31.6650 C   0  0  0  0  0  0  0  0  0  0  0  0
   36.2240   20.9800   30.7200 N   0  0  0  0  0  0  0  0  0  0  0  0
   36.3890   19.6520   30.9300 C   0  0  0  0  0  0  0  0  0  0  0  0
   36.0660   19.1100   32.1320 N   0  0  0  0  0  0  0  0  0  0  0  0
   35.3450   19.4040   34.0510 H   0  0  0  0  0  0  0  0  0  0  0  0
   35.0160   21.8120   33.7570 H   0  0  0  0  0  0  0  0  0  0  0  0
   36.7740   19.0130   30.1540 H   0  0  0  0  0  0  0  0  0  0  0  0
  1  4  1  6  0  0  0
  1  3  1  0  0  0  0
  2  1  1  0  0  0  0
  2  3  1  0  0  0  0
  3  7  1  1  0  0  0
  3  8  1  0  0  0  0
  5  2  1  0  0  0  0
  6  2  1  0  0  0  0
  8  9  1  0  0  0  0
  8 13  1  0  0  0  0
  9 10  1  0  0  0  0
 10 11  1  0  0  0  0
 11 12  1  0  0  0  0
 13 12  1  0  0  0  0
 14 19  1  0  0  0  0
 14  1  1  0  0  0  0
 14 15  1  0  0  0  0
 16 14  1  0  0  0  0
 17 23  1  0  0  0  0
 18 17  1  0  0  0  0
 18 24  1  0  0  0  0
 19 18  2  0  0  0  0
 20 21  2  0  0  0  0
 20 19  1  0  0  0  0
 21 22  1  0  0  0  0
 22 17  2  0  0  0  0
 25 21  1  0  0  0  0
M  END
>  <minimizedAffinity>
-4.31732512

$$$$
