
 OpenBabel03272510303D

 25 27  0  0  0  0  0  0  0  0999 V2000
   37.2140   31.2230   49.1160 C   0  0  0  0  0  0  0  0  0  0  0  0
   37.9320   32.3100   49.6360 C   0  0  0  0  0  0  0  0  0  0  0  0
   38.7250   33.0120   48.7290 C   0  0  0  0  0  0  0  0  0  0  0  0
   38.7580   32.6150   47.4270 N   0  0  0  0  0  0  0  0  0  0  0  0
   38.0450   31.5560   46.9720 C   0  0  0  0  0  0  0  0  0  0  0  0
   37.2520   30.8380   47.8380 N   0  0  0  0  0  0  0  0  0  0  0  0
   37.8790   32.5930   50.6700 H   0  0  0  0  0  0  0  0  0  0  0  0
   39.3050   33.8600   49.0550 H   0  0  0  0  0  0  0  0  0  0  0  0
   36.3190   30.4800   50.0530 C   0  0  0  0  0  0  0  0  0  0  0  0
   35.9560   29.0950   49.8740 C   0  0  0  0  0  0  0  0  0  0  0  0
   37.0510   29.4140   50.8760 C   0  0  0  0  0  0  0  0  0  0  0  0
   35.6460   31.1560   50.6360 H   0  0  0  0  0  0  0  0  0  0  0  0
   36.3070   28.4500   49.0460 H   0  0  0  0  0  0  0  0  0  0  0  0
   34.9660   28.7600   50.2530 H   0  0  0  0  0  0  0  0  0  0  0  0
   38.0980   29.1870   50.6550 H   0  0  0  0  0  0  0  0  0  0  0  0
   36.7880   29.4450   51.9490 H   0  0  0  0  0  0  0  0  0  0  0  0
   38.0520   31.1360   45.5780 C   0  0  0  0  0  0  0  0  0  0  0  0
   37.9020   32.0670   44.9620 H   0  0  0  0  0  0  0  0  0  0  0  0
   37.2060   30.4620   45.3080 H   0  0  0  0  0  0  0  0  0  0  0  0
   39.2980   30.4740   45.0900 C   0  0  0  0  0  3  0  0  0  0  0  0
   38.8460   29.3290   44.1870 C   0  0  0  0  0  2  0  0  0  0  0  0
   38.4630   29.8350   42.8080 C   0  0  0  0  0  2  0  0  0  0  0  0
   39.7490   30.1860   42.0880 C   0  0  0  0  0  2  0  0  0  0  0  0
   40.7690   30.5680   43.1200 C   0  0  0  0  0  2  0  0  0  0  0  0
   40.1940   31.3610   44.2750 C   0  0  0  0  0  2  0  0  0  0  0  0
  1  2  1  0  0  0  0
  1  9  1  0  0  0  0
  2  7  1  0  0  0  0
  3  8  1  0  0  0  0
  3  2  2  0  0  0  0
  4  3  1  0  0  0  0
  5  4  2  0  0  0  0
  5  6  1  0  0  0  0
  6  1  2  0  0  0  0
  9 12  1  0  0  0  0
  9 11  1  0  0  0  0
 10  9  1  0  0  0  0
 10 14  1  0  0  0  0
 10 11  1  0  0  0  0
 11 16  1  0  0  0  0
 13 10  1  0  0  0  0
 15 11  1  0  0  0  0
 17  5  1  0  0  0  0
 18 17  1  0  0  0  0
 19 17  1  0  0  0  0
 20 17  1  0  0  0  0
 21 20  1  0  0  0  0
 22 21  1  0  0  0  0
 23 22  1  0  0  0  0
 23 24  1  0  0  0  0
 24 25  1  0  0  0  0
 25 20  1  0  0  0  0
M  END
>  <minimizedAffinity>
-5.23136568

>  <minimizedRMSD>
2.05552411

$$$$
