
 OpenBabel03272506563D

 17 18  0  0  0  0  0  0  0  0999 V2000
   38.1700   33.3280   49.3440 C   0  0  0  0  0  0  0  0  0  0  0  0
   39.0640   33.3780   48.2500 C   0  0  0  0  0  0  0  0  0  0  0  0
   39.0850   32.2580   47.3990 C   0  0  0  0  0  0  0  0  0  0  0  0
   38.2670   31.2150   47.6660 N   0  0  0  0  0  0  0  0  0  0  0  0
   37.4320   31.2060   48.7150 C   0  0  0  0  0  0  0  0  0  0  0  0
   37.3750   32.2630   49.5660 N   0  0  0  0  0  0  0  0  0  0  0  0
   38.1070   34.1570   50.0330 H   0  0  0  0  0  0  0  0  0  0  0  0
   39.7710   32.3090   46.5680 H   0  0  0  0  0  0  0  0  0  0  0  0
   36.6010   30.0170   48.8910 C   0  0  0  0  0  0  0  0  0  0  0  0
   36.5180   29.4930   50.2810 C   0  0  0  0  0  0  0  0  0  0  0  0
   35.0820   29.0910   50.5670 C   0  0  0  0  0  0  0  0  0  0  0  0
   34.5110   28.2350   49.4630 C   0  0  0  0  0  0  0  0  0  0  0  0
   34.6470   28.8500   48.0930 C   0  0  0  0  0  0  0  0  0  0  0  0
   35.2050   30.2480   48.3180 C   0  0  0  0  0  0  0  0  0  0  0  0
   39.8890   34.5300   48.0540 N   0  0  0  0  0  0  0  0  0  0  0  0
   40.8220   34.3630   47.6190 H   0  0  0  0  0  0  0  0  0  0  0  0
   39.5160   35.4570   48.3550 H   0  0  0  0  0  0  0  0  0  0  0  0
  1  6  1  0  0  0  0
  1  7  1  0  0  0  0
  2  1  2  0  0  0  0
  3  4  2  0  0  0  0
  3  2  1  0  0  0  0
  4  5  1  0  0  0  0
  5  9  1  0  0  0  0
  5  6  2  0  0  0  0
  8  3  1  0  0  0  0
  9 10  1  0  0  0  0
 10 11  1  0  0  0  0
 12 11  1  0  0  0  0
 13 14  1  0  0  0  0
 13 12  1  0  0  0  0
 14  9  1  0  0  0  0
 15  2  1  0  0  0  0
 15 17  1  0  0  0  0
 16 15  1  0  0  0  0
M  END
>  <minimizedAffinity>
-5.60872984

>  <minimizedRMSD>
3.95753121

$$$$
