
 OpenBabel03262521033D

 15 16  0  0  0  0  0  0  0  0999 V2000
   37.2370   24.8300   32.6290 C   0  0  0  0  0  0  0  0  0  0  0  0
   36.8380   26.1430   32.3000 C   0  0  0  0  0  0  0  0  0  0  0  0
   35.7820   26.2980   31.4020 C   0  0  0  0  0  0  0  0  0  0  0  0
   35.1970   25.1730   30.8940 N   0  0  0  0  0  0  0  0  0  0  0  0
   35.6050   23.9330   31.2310 C   0  0  0  0  0  0  0  0  0  0  0  0
   36.6260   23.7640   32.0980 N   0  0  0  0  0  0  0  0  0  0  0  0
   38.0530   24.6940   33.3230 H   0  0  0  0  0  0  0  0  0  0  0  0
   35.4250   27.2700   31.1070 H   0  0  0  0  0  0  0  0  0  0  0  0
   35.0660   23.1170   30.7640 H   0  0  0  0  0  0  0  0  0  0  0  0
   37.5140   27.3490   32.8870 C   0  0  0  0  0  3  0  0  0  0  0  0
   37.0000   27.7510   34.2050 C   0  0  0  0  0  2  0  0  0  0  0  0
   37.7330   27.2520   35.3980 C   0  0  0  0  0  2  0  0  0  0  0  0
   39.1870   27.0530   35.2580 C   0  0  0  0  0  2  0  0  0  0  0  0
   39.6950   26.6120   33.9340 C   0  0  0  0  0  2  0  0  0  0  0  0
   39.0050   27.2520   32.7760 C   0  0  0  0  0  2  0  0  0  0  0  0
  1  7  1  0  0  0  0
  2  1  1  0  0  0  0
  2 10  1  0  0  0  0
  3  2  2  0  0  0  0
  4  5  2  0  0  0  0
  4  3  1  0  0  0  0
  5  6  1  0  0  0  0
  6  1  2  0  0  0  0
  8  3  1  0  0  0  0
  9  5  1  0  0  0  0
 10 11  1  0  0  0  0
 11 12  1  0  0  0  0
 13 12  1  0  0  0  0
 14 13  1  0  0  0  0
 15 10  1  0  0  0  0
 15 14  1  0  0  0  0
M  END
>  <minimizedAffinity>
-4.05496359

$$$$

 OpenBabel03262521033D

 15 16  0  0  0  0  0  0  0  0999 V2000
   38.1500   24.8880   36.6700 C   0  0  0  0  0  0  0  0  0  0  0  0
   39.0370   25.3060   35.6550 C   0  0  0  0  0  0  0  0  0  0  0  0
   39.8250   24.3350   35.0370 C   0  0  0  0  0  0  0  0  0  0  0  0
   39.6930   23.0390   35.4480 N   0  0  0  0  0  0  0  0  0  0  0  0
   38.8340   22.6750   36.4220 C   0  0  0  0  0  0  0  0  0  0  0  0
   38.0640   23.6010   37.0320 N   0  0  0  0  0  0  0  0  0  0  0  0
   37.5330   25.6270   37.1580 H   0  0  0  0  0  0  0  0  0  0  0  0
   40.5220   24.5830   34.2550 H   0  0  0  0  0  0  0  0  0  0  0  0
   38.8160   21.6190   36.6630 H   0  0  0  0  0  0  0  0  0  0  0  0
   39.1450   26.7450   35.2390 C   0  0  0  0  0  3  0  0  0  0  0  0
   39.6550   26.9450   33.8750 C   0  0  0  0  0  2  0  0  0  0  0  0
   38.6500   27.1210   32.7940 C   0  0  0  0  0  2  0  0  0  0  0  0
   37.3820   27.7800   33.1590 C   0  0  0  0  0  2  0  0  0  0  0  0
   36.8540   27.5440   34.5260 C   0  0  0  0  0  2  0  0  0  0  0  0
   37.9050   27.5110   35.5850 C   0  0  0  0  0  2  0  0  0  0  0  0
  1  6  1  0  0  0  0
  1  7  1  0  0  0  0
  2  1  2  0  0  0  0
  3  4  2  0  0  0  0
  3  2  1  0  0  0  0
  4  5  1  0  0  0  0
  5  9  1  0  0  0  0
  5  6  2  0  0  0  0
  8  3  1  0  0  0  0
 10 15  1  0  0  0  0
 10  2  1  0  0  0  0
 11 10  1  0  0  0  0
 12 13  1  0  0  0  0
 12 11  1  0  0  0  0
 13 14  1  0  0  0  0
 14 15  1  0  0  0  0
M  END
>  <minimizedAffinity>
-3.97641587

$$$$

 OpenBabel03262521033D

 15 16  0  0  0  0  0  0  0  0999 V2000
   37.7460   22.1710   34.9370 C   0  0  0  0  0  0  0  0  0  0  0  0
   38.2200   23.4750   34.6790 C   0  0  0  0  0  0  0  0  0  0  0  0
   37.9740   24.0210   33.4190 C   0  0  0  0  0  0  0  0  0  0  0  0
   37.2910   23.2650   32.5100 N   0  0  0  0  0  0  0  0  0  0  0  0
   36.8520   22.0200   32.7910 C   0  0  0  0  0  0  0  0  0  0  0  0
   37.0810   21.4750   34.0050 N   0  0  0  0  0  0  0  0  0  0  0  0
   37.9280   21.7340   35.9070 H   0  0  0  0  0  0  0  0  0  0  0  0
   38.3070   25.0100   33.1540 H   0  0  0  0  0  0  0  0  0  0  0  0
   36.3220   21.5170   31.9910 H   0  0  0  0  0  0  0  0  0  0  0  0
   38.9670   24.2660   35.7140 C   0  0  0  0  0  3  0  0  0  0  0  0
   38.1110   24.8940   36.7310 C   0  0  0  0  0  2  0  0  0  0  0  0
   37.9230   24.1550   38.0070 C   0  0  0  0  0  2  0  0  0  0  0  0
   39.0470   23.3210   38.4720 C   0  0  0  0  0  2  0  0  0  0  0  0
   39.8850   22.6610   37.4400 C   0  0  0  0  0  2  0  0  0  0  0  0
   40.1480   23.5080   36.2390 C   0  0  0  0  0  2  0  0  0  0  0  0
  1  7  1  0  0  0  0
  2  1  1  0  0  0  0
  2 10  1  0  0  0  0
  3  2  2  0  0  0  0
  4  5  2  0  0  0  0
  4  3  1  0  0  0  0
  5  6  1  0  0  0  0
  6  1  2  0  0  0  0
  8  3  1  0  0  0  0
  9  5  1  0  0  0  0
 10 15  1  0  0  0  0
 10 11  1  0  0  0  0
 11 12  1  0  0  0  0
 12 13  1  0  0  0  0
 14 13  1  0  0  0  0
 15 14  1  0  0  0  0
M  END
>  <minimizedAffinity>
-3.92594385

$$$$

 OpenBabel03262521033D

 15 16  0  0  0  0  0  0  0  0999 V2000
   39.2660   26.0580   34.7010 C   0  0  0  0  0  0  0  0  0  0  0  0
   39.8570   24.8460   35.1190 C   0  0  0  0  0  0  0  0  0  0  0  0
   41.2420   24.7230   35.0090 C   0  0  0  0  0  0  0  0  0  0  0  0
   41.9450   25.7800   34.5060 N   0  0  0  0  0  0  0  0  0  0  0  0
   41.3480   26.9250   34.1160 C   0  0  0  0  0  0  0  0  0  0  0  0
   40.0080   27.0610   34.2140 N   0  0  0  0  0  0  0  0  0  0  0  0
   38.1950   26.1680   34.7800 H   0  0  0  0  0  0  0  0  0  0  0  0
   41.7590   23.8280   35.3100 H   0  0  0  0  0  0  0  0  0  0  0  0
   42.0080   27.6930   33.7330 H   0  0  0  0  0  0  0  0  0  0  0  0
   39.0390   23.7120   35.6660 C   0  0  0  0  0  3  0  0  0  0  0  0
   39.8230   22.6690   36.3430 C   0  0  0  0  0  2  0  0  0  0  0  0
   39.9500   22.7670   37.8210 C   0  0  0  0  0  2  0  0  0  0  0  0
   38.8140   23.3580   38.5530 C   0  0  0  0  0  2  0  0  0  0  0  0
   38.0480   24.4360   37.8790 C   0  0  0  0  0  2  0  0  0  0  0  0
   37.8420   24.2100   36.4180 C   0  0  0  0  0  2  0  0  0  0  0  0
  1  7  1  0  0  0  0
  1  2  1  0  0  0  0
  2 10  1  0  0  0  0
  3  2  2  0  0  0  0
  3  8  1  0  0  0  0
  4  3  1  0  0  0  0
  5  6  1  0  0  0  0
  5  4  2  0  0  0  0
  6  1  2  0  0  0  0
  9  5  1  0  0  0  0
 10 11  1  0  0  0  0
 10 15  1  0  0  0  0
 11 12  1  0  0  0  0
 12 13  1  0  0  0  0
 14 13  1  0  0  0  0
 15 14  1  0  0  0  0
M  END
>  <minimizedAffinity>
-3.87056661

$$$$

 OpenBabel03262521033D

 15 16  0  0  0  0  0  0  0  0999 V2000
   36.9310   28.6500   31.8110 C   0  0  0  0  0  0  0  0  0  0  0  0
   36.6580   28.1570   33.1050 C   0  0  0  0  0  0  0  0  0  0  0  0
   35.8130   28.9060   33.9240 C   0  0  0  0  0  0  0  0  0  0  0  0
   35.3010   30.0710   33.4280 N   0  0  0  0  0  0  0  0  0  0  0  0
   35.5840   30.5130   32.1860 C   0  0  0  0  0  0  0  0  0  0  0  0
   36.4000   29.8010   31.3790 N   0  0  0  0  0  0  0  0  0  0  0  0
   37.5830   28.0810   31.1660 H   0  0  0  0  0  0  0  0  0  0  0  0
   35.5610   28.5890   34.9220 H   0  0  0  0  0  0  0  0  0  0  0  0
   35.1200   31.4500   31.9030 H   0  0  0  0  0  0  0  0  0  0  0  0
   37.2460   26.8680   33.6030 C   0  0  0  0  0  3  0  0  0  0  0  0
   38.4960   26.4750   32.9370 C   0  0  0  0  0  2  0  0  0  0  0  0
   39.7690   26.8530   33.6060 C   0  0  0  0  0  2  0  0  0  0  0  0
   39.7620   26.9070   35.0800 C   0  0  0  0  0  2  0  0  0  0  0  0
   38.5070   27.3400   35.7450 C   0  0  0  0  0  2  0  0  0  0  0  0
   37.2670   26.8150   35.1010 C   0  0  0  0  0  2  0  0  0  0  0  0
  1  2  1  0  0  0  0
  2 10  1  0  0  0  0
  2  3  2  0  0  0  0
  3  8  1  0  0  0  0
  4  3  1  0  0  0  0
  5  4  2  0  0  0  0
  6  1  2  0  0  0  0
  6  5  1  0  0  0  0
  7  1  1  0  0  0  0
  9  5  1  0  0  0  0
 10 15  1  0  0  0  0
 11 10  1  0  0  0  0
 11 12  1  0  0  0  0
 12 13  1  0  0  0  0
 13 14  1  0  0  0  0
 15 14  1  0  0  0  0
M  END
>  <minimizedAffinity>
-3.81234026

$$$$

 OpenBabel03262521033D

 15 16  0  0  0  0  0  0  0  0999 V2000
   35.4120   24.2120   30.9310 C   0  0  0  0  0  0  0  0  0  0  0  0
   36.4990   23.7840   31.7220 C   0  0  0  0  0  0  0  0  0  0  0  0
   37.1890   24.7470   32.4580 C   0  0  0  0  0  0  0  0  0  0  0  0
   36.7740   26.0450   32.3710 N   0  0  0  0  0  0  0  0  0  0  0  0
   35.7290   26.4190   31.6040 C   0  0  0  0  0  0  0  0  0  0  0  0
   35.0500   25.5010   30.8840 N   0  0  0  0  0  0  0  0  0  0  0  0
   34.8680   23.4780   30.3550 H   0  0  0  0  0  0  0  0  0  0  0  0
   38.0280   24.4910   33.0830 H   0  0  0  0  0  0  0  0  0  0  0  0
   35.4930   27.4760   31.6150 H   0  0  0  0  0  0  0  0  0  0  0  0
   36.9170   22.3430   31.7830 C   0  0  0  0  0  3  0  0  0  0  0  0
   37.5330   21.9440   33.0570 C   0  0  0  0  0  2  0  0  0  0  0  0
   36.6460   21.3170   34.0720 C   0  0  0  0  0  2  0  0  0  0  0  0
   35.5180   20.5110   33.5710 C   0  0  0  0  0  2  0  0  0  0  0  0
   34.8760   20.9410   32.3030 C   0  0  0  0  0  2  0  0  0  0  0  0
   35.8380   21.4350   31.2750 C   0  0  0  0  0  2  0  0  0  0  0  0
  1  2  1  0  0  0  0
  2 10  1  0  0  0  0
  2  3  2  0  0  0  0
  3  8  1  0  0  0  0
  4  3  1  0  0  0  0
  5  9  1  0  0  0  0
  5  4  2  0  0  0  0
  6  1  2  0  0  0  0
  6  5  1  0  0  0  0
  7  1  1  0  0  0  0
 10 11  1  0  0  0  0
 11 12  1  0  0  0  0
 13 12  1  0  0  0  0
 14 13  1  0  0  0  0
 15 10  1  0  0  0  0
 15 14  1  0  0  0  0
M  END
>  <minimizedAffinity>
-3.78501654

$$$$

 OpenBabel03262521033D

 15 16  0  0  0  0  0  0  0  0999 V2000
   38.1210   24.6660   36.8440 C   0  0  0  0  0  0  0  0  0  0  0  0
   39.1820   24.1210   36.0880 C   0  0  0  0  0  0  0  0  0  0  0  0
   39.9830   23.1530   36.6920 C   0  0  0  0  0  0  0  0  0  0  0  0
   39.6960   22.7880   37.9760 N   0  0  0  0  0  0  0  0  0  0  0  0
   38.6740   23.3290   38.6700 C   0  0  0  0  0  0  0  0  0  0  0  0
   37.8880   24.2690   38.1020 N   0  0  0  0  0  0  0  0  0  0  0  0
   37.4920   25.4160   36.3910 H   0  0  0  0  0  0  0  0  0  0  0  0
   40.8080   22.6940   36.1740 H   0  0  0  0  0  0  0  0  0  0  0  0
   38.5440   22.9610   39.6810 H   0  0  0  0  0  0  0  0  0  0  0  0
   39.4550   24.5570   34.6770 C   0  0  0  0  0  3  0  0  0  0  0  0
   38.8050   25.8190   34.2960 C   0  0  0  0  0  2  0  0  0  0  0  0
   39.6140   27.0610   34.4140 C   0  0  0  0  0  2  0  0  0  0  0  0
   41.0670   26.9380   34.1890 C   0  0  0  0  0  2  0  0  0  0  0  0
   41.7230   25.6750   34.6100 C   0  0  0  0  0  2  0  0  0  0  0  0
   40.9110   24.4520   34.3410 C   0  0  0  0  0  2  0  0  0  0  0  0
  1  6  1  0  0  0  0
  2  3  1  0  0  0  0
  2  1  2  0  0  0  0
  3  4  2  0  0  0  0
  4  5  1  0  0  0  0
  5  9  1  0  0  0  0
  6  5  2  0  0  0  0
  7  1  1  0  0  0  0
  8  3  1  0  0  0  0
 10  2  1  0  0  0  0
 11 12  1  0  0  0  0
 11 10  1  0  0  0  0
 13 12  1  0  0  0  0
 13 14  1  0  0  0  0
 15 14  1  0  0  0  0
 15 10  1  0  0  0  0
M  END
>  <minimizedAffinity>
-3.78494811

$$$$

 OpenBabel03262521033D

 15 16  0  0  0  0  0  0  0  0999 V2000
   41.5690   23.4610   35.4490 C   0  0  0  0  0  0  0  0  0  0  0  0
   40.1980   23.5000   35.7810 C   0  0  0  0  0  0  0  0  0  0  0  0
   39.7630   22.7170   36.8500 C   0  0  0  0  0  0  0  0  0  0  0  0
   40.6860   21.9610   37.5130 N   0  0  0  0  0  0  0  0  0  0  0  0
   41.9900   21.9480   37.1680 C   0  0  0  0  0  0  0  0  0  0  0  0
   42.4290   22.6980   36.1350 N   0  0  0  0  0  0  0  0  0  0  0  0
   41.9210   24.0610   34.6230 H   0  0  0  0  0  0  0  0  0  0  0  0
   38.7320   22.6990   37.1590 H   0  0  0  0  0  0  0  0  0  0  0  0
   42.6280   21.3080   37.7670 H   0  0  0  0  0  0  0  0  0  0  0  0
   39.2210   24.3500   35.0200 C   0  0  0  0  0  3  0  0  0  0  0  0
   38.0850   24.8310   35.8190 C   0  0  0  0  0  2  0  0  0  0  0  0
   38.1980   26.1900   36.4100 C   0  0  0  0  0  2  0  0  0  0  0  0
   38.9790   27.1870   35.6540 C   0  0  0  0  0  2  0  0  0  0  0  0
   40.1470   26.7000   34.8790 C   0  0  0  0  0  2  0  0  0  0  0  0
   39.9210   25.3910   34.1990 C   0  0  0  0  0  2  0  0  0  0  0  0
  1  2  2  0  0  0  0
  1  6  1  0  0  0  0
  2  3  1  0  0  0  0
  3  8  1  0  0  0  0
  3  4  2  0  0  0  0
  5  4  1  0  0  0  0
  5  9  1  0  0  0  0
  6  5  2  0  0  0  0
  7  1  1  0  0  0  0
 10  2  1  0  0  0  0
 10 11  1  0  0  0  0
 11 12  1  0  0  0  0
 13 12  1  0  0  0  0
 14 13  1  0  0  0  0
 15 14  1  0  0  0  0
 15 10  1  0  0  0  0
M  END
>  <minimizedAffinity>
-3.73869753

$$$$

 OpenBabel03262521033D

 15 16  0  0  0  0  0  0  0  0999 V2000
   37.2270   21.9310   33.3050 C   0  0  0  0  0  0  0  0  0  0  0  0
   36.1040   21.0850   33.4200 C   0  0  0  0  0  0  0  0  0  0  0  0
   35.6900   20.7210   34.7020 C   0  0  0  0  0  0  0  0  0  0  0  0
   36.3930   21.2040   35.7680 N   0  0  0  0  0  0  0  0  0  0  0  0
   37.4640   22.0110   35.6200 C   0  0  0  0  0  0  0  0  0  0  0  0
   37.8790   22.3730   34.3880 N   0  0  0  0  0  0  0  0  0  0  0  0
   37.5600   22.2220   32.3200 H   0  0  0  0  0  0  0  0  0  0  0  0
   34.8410   20.0800   34.8640 H   0  0  0  0  0  0  0  0  0  0  0  0
   37.9420   22.3310   36.5390 H   0  0  0  0  0  0  0  0  0  0  0  0
   35.3630   20.5810   32.2150 C   0  0  0  0  0  3  0  0  0  0  0  0
   35.9870   20.9300   30.9300 C   0  0  0  0  0  2  0  0  0  0  0  0
   36.8790   19.9150   30.3120 C   0  0  0  0  0  2  0  0  0  0  0  0
   36.5530   18.4980   30.5570 C   0  0  0  0  0  2  0  0  0  0  0  0
   35.9570   18.1470   31.8700 C   0  0  0  0  0  2  0  0  0  0  0  0
   34.9680   19.1440   32.3730 C   0  0  0  0  0  2  0  0  0  0  0  0
  1  2  2  0  0  0  0
  1  6  1  0  0  0  0
  2  3  1  0  0  0  0
  3  8  1  0  0  0  0
  3  4  2  0  0  0  0
  5  4  1  0  0  0  0
  5  9  1  0  0  0  0
  6  5  2  0  0  0  0
  7  1  1  0  0  0  0
 10 15  1  0  0  0  0
 10  2  1  0  0  0  0
 11 10  1  0  0  0  0
 12 13  1  0  0  0  0
 12 11  1  0  0  0  0
 13 14  1  0  0  0  0
 14 15  1  0  0  0  0
M  END
>  <minimizedAffinity>
-3.72345304

$$$$
