
 OpenBabel03272500533D

 25 27  0  0  0  0  0  0  0  0999 V2000
   37.7120   31.4730   46.1750 C   0  0  0  0  0  0  0  0  0  0  0  0
   38.5630   32.0780   45.2560 C   0  0  0  0  0  0  0  0  0  0  0  0
   39.5990   32.9190   45.6000 C   0  0  0  0  0  0  0  0  0  0  0  0
   39.8240   33.1940   46.9440 C   0  0  0  0  0  0  0  0  0  0  0  0
   38.9780   32.5920   47.8460 C   0  0  0  0  0  0  0  0  0  0  0  0
   37.9270   31.7420   47.5250 C   0  0  0  0  0  0  0  0  0  0  0  0
   38.4580   31.9180   44.1820 H   0  0  0  0  0  0  0  0  0  0  0  0
   40.2440   33.3740   44.8590 H   0  0  0  0  0  0  0  0  0  0  0  0
   40.6280   33.8490   47.2540 H   0  0  0  0  0  0  0  0  0  0  0  0
   39.1850   32.8330   48.8780 H   0  0  0  0  0  0  0  0  0  0  0  0
   36.9620   30.0360   44.3650 C   0  0  0  0  0  0  0  0  0  0  0  0
   36.6880   30.6150   45.6220 C   0  0  0  0  0  0  0  0  0  0  0  0
   35.4570   30.3030   46.2070 C   0  0  0  0  0  0  0  0  0  0  0  0
   34.6150   29.4700   45.5330 N   0  0  0  0  0  0  0  0  0  0  0  0
   34.9140   28.9340   44.3290 C   0  0  0  0  0  0  0  0  0  0  0  0
   36.1030   29.2210   43.7370 N   0  0  0  0  0  0  0  0  0  0  0  0
   37.8560   30.1710   43.7710 H   0  0  0  0  0  0  0  0  0  0  0  0
   35.2690   30.7460   47.1510 H   0  0  0  0  0  0  0  0  0  0  0  0
   34.1600   28.2990   43.9150 H   0  0  0  0  0  0  0  0  0  0  0  0
   37.0240   31.1240   48.5090 C   0  0  0  0  0  0  0  0  0  0  0  0
   37.5890   29.7510   48.8640 C   0  0  0  0  0  0  0  0  0  0  0  0
   36.6860   28.9830   49.8050 C   0  0  0  0  0  0  0  0  0  0  0  0
   36.2360   29.8890   50.9260 C   0  0  0  0  0  0  0  0  0  0  0  0
   37.2110   31.0330   51.0250 C   0  0  0  0  0  0  0  0  0  0  0  0
   36.9860   31.9100   49.8120 C   0  0  0  0  0  0  0  0  0  0  0  0
  1  6  1  0  0  0  0
  2  3  1  0  0  0  0
  2  1  2  0  0  0  0
  3  4  2  0  0  0  0
  4  9  1  0  0  0  0
  4  5  1  0  0  0  0
  5 10  1  0  0  0  0
  6  5  2  0  0  0  0
  6 20  1  0  0  0  0
  7  2  1  0  0  0  0
  8  3  1  0  0  0  0
 11 12  1  0  0  0  0
 12  1  1  0  0  0  0
 12 13  2  0  0  0  0
 13 18  1  0  0  0  0
 14 13  1  0  0  0  0
 15 14  2  0  0  0  0
 16 15  1  0  0  0  0
 16 11  2  0  0  0  0
 17 11  1  0  0  0  0
 19 15  1  0  0  0  0
 20 21  1  0  0  0  0
 20 25  1  0  0  0  0
 21 22  1  0  0  0  0
 22 23  1  0  0  0  0
 23 24  1  0  0  0  0
 25 24  1  0  0  0  0
M  END
>  <minimizedAffinity>
-5.43095875

>  <minimizedRMSD>
4.33009338

$$$$
