
 OpenBabel03272508463D

 24 26  0  0  0  0  0  0  0  0999 V2000
   37.9930   25.4920   35.8510 C   0  0  0  0  0  0  0  0  0  0  0  0
   38.3350   26.7270   36.3820 C   0  0  0  0  0  0  0  0  0  0  0  0
   37.9470   27.6150   35.3890 C   0  0  0  0  0  0  0  0  0  0  0  0
   37.4100   26.9090   34.3420 C   0  0  0  0  0  0  0  0  0  0  0  0
   37.4510   25.6270   34.6500 O   0  0  0  0  0  0  0  0  0  0  0  0
   38.7860   26.9690   37.3220 H   0  0  0  0  0  0  0  0  0  0  0  0
   38.0440   28.7080   35.4110 H   0  0  0  0  0  0  0  0  0  0  0  0
   36.8640   27.4300   33.0640 C   0  0  0  0  0  3  0  0  0  0  0  0
   37.9770   27.7140   32.0820 C   0  0  0  0  0  2  0  0  0  0  0  0
   37.3630   28.0250   30.7390 C   0  0  0  0  0  2  0  0  0  0  0  0
   36.3510   29.1350   30.8030 C   0  0  0  0  0  2  0  0  0  0  0  0
   35.4650   29.1030   31.9960 C   0  0  0  0  0  2  0  0  0  0  0  0
   36.1480   28.7480   33.2850 C   0  0  0  0  0  2  0  0  0  0  0  0
   38.2140   24.2140   36.5530 C   0  0  0  0  0  0  0  0  0  0  0  0
   37.2560   23.7040   37.1720 O   0  0  0  0  0  0  0  0  0  0  0  0
   40.9960   22.0420   37.4230 C   0  0  0  0  0  0  0  0  0  0  0  0
   41.9790   22.3770   36.4740 C   0  0  0  0  0  0  0  0  0  0  0  0
   41.6920   23.3530   35.5270 C   0  0  0  0  0  0  0  0  0  0  0  0
   40.4600   23.9210   35.5910 N   0  0  0  0  0  0  0  0  0  0  0  0
   39.5380   23.5850   36.5050 C   0  0  0  0  0  0  0  0  0  0  0  0
   39.8110   22.6480   37.4160 N   0  0  0  0  0  0  0  0  0  0  0  0
   41.1550   21.2930   38.1850 H   0  0  0  0  0  0  0  0  0  0  0  0
   42.9090   21.8650   36.5210 H   0  0  0  0  0  0  0  0  0  0  0  0
   42.4300   23.6270   34.7890 H   0  0  0  0  0  0  0  0  0  0  0  0
  1  2  2  0  0  0  0
  1 14  1  0  0  0  0
  2  6  1  0  0  0  0
  3  7  1  0  0  0  0
  3  2  1  0  0  0  0
  4  5  1  0  0  0  0
  4  3  2  0  0  0  0
  5  1  1  0  0  0  0
  8 13  1  0  0  0  0
  8  4  1  0  0  0  0
  9  8  1  0  0  0  0
 10 11  1  0  0  0  0
 10  9  1  0  0  0  0
 11 12  1  0  0  0  0
 12 13  1  0  0  0  0
 14 15  2  0  0  0  0
 16 22  1  0  0  0  0
 17 23  1  0  0  0  0
 17 16  2  0  0  0  0
 18 19  2  0  0  0  0
 18 17  1  0  0  0  0
 19 20  1  0  0  0  0
 20 14  1  0  0  0  0
 20 21  2  0  0  0  0
 21 16  1  0  0  0  0
 24 18  1  0  0  0  0
M  END
>  <minimizedAffinity>
-5.39788103

$$$$

 OpenBabel03272508463D

 24 26  0  0  0  0  0  0  0  0999 V2000
   37.7540   24.7490   33.4250 C   0  0  0  0  0  0  0  0  0  0  0  0
   37.0400   25.5630   32.5590 C   0  0  0  0  0  0  0  0  0  0  0  0
   36.3500   24.6550   31.7690 C   0  0  0  0  0  0  0  0  0  0  0  0
   36.6640   23.3820   32.1730 C   0  0  0  0  0  0  0  0  0  0  0  0
   37.5140   23.4700   33.1770 O   0  0  0  0  0  0  0  0  0  0  0  0
   37.0060   26.6310   32.4910 H   0  0  0  0  0  0  0  0  0  0  0  0
   35.6610   24.8900   30.9470 H   0  0  0  0  0  0  0  0  0  0  0  0
   36.1710   22.0940   31.6240 C   0  0  0  0  0  3  0  0  0  0  0  0
   35.4740   21.2860   32.6940 C   0  0  0  0  0  2  0  0  0  0  0  0
   34.8030   20.1030   32.0410 C   0  0  0  0  0  2  0  0  0  0  0  0
   35.7520   19.2760   31.2170 C   0  0  0  0  0  2  0  0  0  0  0  0
   36.7330   20.0600   30.4240 C   0  0  0  0  0  2  0  0  0  0  0  0
   37.3250   21.2430   31.1340 C   0  0  0  0  0  2  0  0  0  0  0  0
   38.6520   25.2660   34.4740 C   0  0  0  0  0  0  0  0  0  0  0  0
   39.2910   26.3150   34.2430 O   0  0  0  0  0  0  0  0  0  0  0  0
   37.9950   24.2610   37.9050 C   0  0  0  0  0  0  0  0  0  0  0  0
   38.9350   23.2390   38.1300 C   0  0  0  0  0  0  0  0  0  0  0  0
   39.8020   22.8870   37.1020 C   0  0  0  0  0  0  0  0  0  0  0  0
   39.6740   23.5710   35.9350 N   0  0  0  0  0  0  0  0  0  0  0  0
   38.7690   24.5420   35.7440 C   0  0  0  0  0  0  0  0  0  0  0  0
   37.9350   24.8820   36.7300 N   0  0  0  0  0  0  0  0  0  0  0  0
   37.2920   24.5820   38.6610 H   0  0  0  0  0  0  0  0  0  0  0  0
   38.9430   22.7730   39.0850 H   0  0  0  0  0  0  0  0  0  0  0  0
   40.5320   22.1060   37.2510 H   0  0  0  0  0  0  0  0  0  0  0  0
  1 14  1  0  0  0  0
  2  1  2  0  0  0  0
  3  4  2  0  0  0  0
  3  2  1  0  0  0  0
  4  5  1  0  0  0  0
  5  1  1  0  0  0  0
  6  2  1  0  0  0  0
  7  3  1  0  0  0  0
  8  4  1  0  0  0  0
  8  9  1  0  0  0  0
 10  9  1  0  0  0  0
 11 10  1  0  0  0  0
 12 13  1  0  0  0  0
 12 11  1  0  0  0  0
 13  8  1  0  0  0  0
 14 20  1  0  0  0  0
 15 14  2  0  0  0  0
 16 17  1  0  0  0  0
 16 22  1  0  0  0  0
 17 23  1  0  0  0  0
 18 24  1  0  0  0  0
 18 17  2  0  0  0  0
 19 18  1  0  0  0  0
 20 19  2  0  0  0  0
 20 21  1  0  0  0  0
 21 16  2  0  0  0  0
M  END
>  <minimizedAffinity>
-5.19867325

$$$$

 OpenBabel03272508463D

 24 26  0  0  0  0  0  0  0  0999 V2000
   36.3440   27.9790   32.5150 C   0  0  0  0  0  0  0  0  0  0  0  0
   36.9100   27.4840   33.6810 C   0  0  0  0  0  0  0  0  0  0  0  0
   36.5260   28.4130   34.6370 C   0  0  0  0  0  0  0  0  0  0  0  0
   35.7760   29.3920   34.0350 C   0  0  0  0  0  0  0  0  0  0  0  0
   35.6820   29.1030   32.7520 O   0  0  0  0  0  0  0  0  0  0  0  0
   37.5000   26.6050   33.8370 H   0  0  0  0  0  0  0  0  0  0  0  0
   36.7700   28.3930   35.7070 H   0  0  0  0  0  0  0  0  0  0  0  0
   35.1530   30.5870   34.6560 C   0  0  0  0  0  3  0  0  0  0  0  0
   35.9920   31.0920   35.8070 C   0  0  0  0  0  2  0  0  0  0  0  0
   35.4390   32.4220   36.2550 C   0  0  0  0  0  2  0  0  0  0  0  0
   33.9740   32.3630   36.5890 C   0  0  0  0  0  2  0  0  0  0  0  0
   33.1580   31.5320   35.6670 C   0  0  0  0  0  2  0  0  0  0  0  0
   33.7970   30.2430   35.2390 C   0  0  0  0  0  2  0  0  0  0  0  0
   36.4770   27.3220   31.2020 C   0  0  0  0  0  0  0  0  0  0  0  0
   36.4970   28.0410   30.1790 O   0  0  0  0  0  0  0  0  0  0  0  0
   35.5100   23.8200   31.3200 C   0  0  0  0  0  0  0  0  0  0  0  0
   36.7060   23.1420   31.0240 C   0  0  0  0  0  0  0  0  0  0  0  0
   37.8560   23.8860   30.7810 C   0  0  0  0  0  0  0  0  0  0  0  0
   37.7340   25.2370   30.8510 N   0  0  0  0  0  0  0  0  0  0  0  0
   36.5810   25.8610   31.1340 C   0  0  0  0  0  0  0  0  0  0  0  0
   35.4760   25.1500   31.3680 N   0  0  0  0  0  0  0  0  0  0  0  0
   34.5820   23.3020   31.5180 H   0  0  0  0  0  0  0  0  0  0  0  0
   36.6820   22.0800   30.9980 H   0  0  0  0  0  0  0  0  0  0  0  0
   38.7860   23.3890   30.5530 H   0  0  0  0  0  0  0  0  0  0  0  0
  1  5  1  0  0  0  0
  1  2  2  0  0  0  0
  2  6  1  0  0  0  0
  2  3  1  0  0  0  0
  3  7  1  0  0  0  0
  4  3  2  0  0  0  0
  4  8  1  0  0  0  0
  5  4  1  0  0  0  0
  8 13  1  0  0  0  0
  8  9  1  0  0  0  0
  9 10  1  0  0  0  0
 10 11  1  0  0  0  0
 12 11  1  0  0  0  0
 13 12  1  0  0  0  0
 14  1  1  0  0  0  0
 15 14  2  0  0  0  0
 16 21  1  0  0  0  0
 16 22  1  0  0  0  0
 17 16  2  0  0  0  0
 18 19  2  0  0  0  0
 18 17  1  0  0  0  0
 19 20  1  0  0  0  0
 20 14  1  0  0  0  0
 20 21  2  0  0  0  0
 23 17  1  0  0  0  0
 24 18  1  0  0  0  0
M  END
>  <minimizedAffinity>
-5.06711626

$$$$

 OpenBabel03272508463D

 24 26  0  0  0  0  0  0  0  0999 V2000
   36.6500   28.5720   32.6960 C   0  0  0  0  0  0  0  0  0  0  0  0
   36.3230   29.6410   31.8740 C   0  0  0  0  0  0  0  0  0  0  0  0
   35.6110   30.4810   32.7180 C   0  0  0  0  0  0  0  0  0  0  0  0
   35.5380   29.9080   33.9630 C   0  0  0  0  0  0  0  0  0  0  0  0
   36.1760   28.7550   33.9200 O   0  0  0  0  0  0  0  0  0  0  0  0
   36.5510   29.8080   30.8420 H   0  0  0  0  0  0  0  0  0  0  0  0
   35.1660   31.4500   32.4570 H   0  0  0  0  0  0  0  0  0  0  0  0
   34.8770   30.4370   35.1820 C   0  0  0  0  0  3  0  0  0  0  0  0
   33.4220   30.7430   34.9130 C   0  0  0  0  0  2  0  0  0  0  0  0
   32.7490   31.0610   36.2250 C   0  0  0  0  0  2  0  0  0  0  0  0
   33.4400   32.1600   36.9850 C   0  0  0  0  0  2  0  0  0  0  0  0
   34.9250   32.1050   36.9450 C   0  0  0  0  0  2  0  0  0  0  0  0
   35.5130   31.7440   35.6130 C   0  0  0  0  0  2  0  0  0  0  0  0
   37.4230   27.4020   32.2410 C   0  0  0  0  0  0  0  0  0  0  0  0
   38.6660   27.5060   32.1680 O   0  0  0  0  0  0  0  0  0  0  0  0
   36.6990   23.8520   31.9480 C   0  0  0  0  0  0  0  0  0  0  0  0
   35.4650   23.8260   31.2740 C   0  0  0  0  0  0  0  0  0  0  0  0
   34.8730   25.0310   30.9140 C   0  0  0  0  0  0  0  0  0  0  0  0
   35.5430   26.1640   31.2480 N   0  0  0  0  0  0  0  0  0  0  0  0
   36.7190   26.1640   31.8930 C   0  0  0  0  0  0  0  0  0  0  0  0
   37.2910   25.0080   32.2390 N   0  0  0  0  0  0  0  0  0  0  0  0
   37.2130   22.9520   32.2560 H   0  0  0  0  0  0  0  0  0  0  0  0
   35.0340   22.8780   31.0650 H   0  0  0  0  0  0  0  0  0  0  0  0
   33.9270   25.0370   30.3950 H   0  0  0  0  0  0  0  0  0  0  0  0
  1  5  1  0  0  0  0
  2  1  2  0  0  0  0
  2  3  1  0  0  0  0
  3  4  2  0  0  0  0
  4  8  1  0  0  0  0
  5  4  1  0  0  0  0
  6  2  1  0  0  0  0
  7  3  1  0  0  0  0
  8 13  1  0  0  0  0
  9  8  1  0  0  0  0
  9 10  1  0  0  0  0
 10 11  1  0  0  0  0
 12 11  1  0  0  0  0
 13 12  1  0  0  0  0
 14  1  1  0  0  0  0
 15 14  2  0  0  0  0
 16 21  1  0  0  0  0
 16 22  1  0  0  0  0
 17 16  2  0  0  0  0
 18 19  2  0  0  0  0
 18 17  1  0  0  0  0
 19 20  1  0  0  0  0
 20 21  2  0  0  0  0
 20 14  1  0  0  0  0
 23 17  1  0  0  0  0
 24 18  1  0  0  0  0
M  END
>  <minimizedAffinity>
-5.05437851

$$$$

 OpenBabel03272508463D

 24 26  0  0  0  0  0  0  0  0999 V2000
   36.5650   25.9660   31.4770 C   0  0  0  0  0  0  0  0  0  0  0  0
   35.2690   26.1000   31.0010 C   0  0  0  0  0  0  0  0  0  0  0  0
   34.8800   24.7890   30.7740 C   0  0  0  0  0  0  0  0  0  0  0  0
   35.9140   23.9500   31.1060 C   0  0  0  0  0  0  0  0  0  0  0  0
   36.9200   24.6910   31.5290 O   0  0  0  0  0  0  0  0  0  0  0  0
   34.6850   26.9830   30.8400 H   0  0  0  0  0  0  0  0  0  0  0  0
   33.9090   24.4490   30.3890 H   0  0  0  0  0  0  0  0  0  0  0  0
   35.9590   22.4690   31.0290 C   0  0  0  0  0  3  0  0  0  0  0  0
   35.2910   21.8480   32.2340 C   0  0  0  0  0  2  0  0  0  0  0  0
   35.1660   20.3630   32.0010 C   0  0  0  0  0  2  0  0  0  0  0  0
   36.4810   19.7120   31.6680 C   0  0  0  0  0  2  0  0  0  0  0  0
   37.3540   20.5000   30.7610 C   0  0  0  0  0  2  0  0  0  0  0  0
   37.3920   21.9750   31.0370 C   0  0  0  0  0  2  0  0  0  0  0  0
   37.4120   27.1090   31.8660 C   0  0  0  0  0  0  0  0  0  0  0  0
   37.5640   28.0400   31.0460 O   0  0  0  0  0  0  0  0  0  0  0  0
   37.8050   27.4760   35.4610 C   0  0  0  0  0  0  0  0  0  0  0  0
   39.1590   27.1620   35.6740 C   0  0  0  0  0  0  0  0  0  0  0  0
   39.9480   26.8210   34.5810 C   0  0  0  0  0  0  0  0  0  0  0  0
   39.3400   26.8180   33.3670 N   0  0  0  0  0  0  0  0  0  0  0  0
   38.0450   27.1200   33.1890 C   0  0  0  0  0  0  0  0  0  0  0  0
   37.2850   27.4480   34.2360 N   0  0  0  0  0  0  0  0  0  0  0  0
   37.1370   27.7480   36.2660 H   0  0  0  0  0  0  0  0  0  0  0  0
   39.5260   27.1990   36.6710 H   0  0  0  0  0  0  0  0  0  0  0  0
   40.9900   26.5770   34.7190 H   0  0  0  0  0  0  0  0  0  0  0  0
  1  5  1  0  0  0  0
  1 14  1  0  0  0  0
  2  1  2  0  0  0  0
  3  2  1  0  0  0  0
  3  4  2  0  0  0  0
  4  5  1  0  0  0  0
  6  2  1  0  0  0  0
  7  3  1  0  0  0  0
  8 13  1  0  0  0  0
  8  4  1  0  0  0  0
  8  9  1  0  0  0  0
 10  9  1  0  0  0  0
 11 10  1  0  0  0  0
 12 13  1  0  0  0  0
 12 11  1  0  0  0  0
 14 20  1  0  0  0  0
 15 14  2  0  0  0  0
 16 17  1  0  0  0  0
 16 22  1  0  0  0  0
 17 23  1  0  0  0  0
 18 24  1  0  0  0  0
 18 17  2  0  0  0  0
 19 18  1  0  0  0  0
 20 19  2  0  0  0  0
 20 21  1  0  0  0  0
 21 16  2  0  0  0  0
M  END
>  <minimizedAffinity>
-5.04014015

$$$$

 OpenBabel03272508463D

 24 26  0  0  0  0  0  0  0  0999 V2000
   37.3640   24.4030   32.6520 C   0  0  0  0  0  0  0  0  0  0  0  0
   38.0400   25.6090   32.5360 C   0  0  0  0  0  0  0  0  0  0  0  0
   38.6530   25.7480   33.7720 C   0  0  0  0  0  0  0  0  0  0  0  0
   38.3350   24.6650   34.5540 C   0  0  0  0  0  0  0  0  0  0  0  0
   37.5540   23.8690   33.8500 O   0  0  0  0  0  0  0  0  0  0  0  0
   38.0960   26.2870   31.7090 H   0  0  0  0  0  0  0  0  0  0  0  0
   39.2920   26.5780   34.0980 H   0  0  0  0  0  0  0  0  0  0  0  0
   38.7580   24.3800   35.9470 C   0  0  0  0  0  3  0  0  0  0  0  0
   39.3050   22.9770   36.0650 C   0  0  0  0  0  2  0  0  0  0  0  0
   39.9210   22.8150   37.4330 C   0  0  0  0  0  2  0  0  0  0  0  0
   38.9710   23.1610   38.5460 C   0  0  0  0  0  2  0  0  0  0  0  0
   38.1180   24.3510   38.2890 C   0  0  0  0  0  2  0  0  0  0  0  0
   37.5760   24.4550   36.8930 C   0  0  0  0  0  2  0  0  0  0  0  0
   36.5500   23.8180   31.5720 C   0  0  0  0  0  0  0  0  0  0  0  0
   36.1060   24.5800   30.6850 O   0  0  0  0  0  0  0  0  0  0  0  0
   34.9070   20.6440   32.2350 C   0  0  0  0  0  0  0  0  0  0  0  0
   35.7400   19.7070   31.5970 C   0  0  0  0  0  0  0  0  0  0  0  0
   36.8740   20.1610   30.9330 C   0  0  0  0  0  0  0  0  0  0  0  0
   37.0960   21.5010   30.9520 N   0  0  0  0  0  0  0  0  0  0  0  0
   36.2870   22.3760   31.5670 C   0  0  0  0  0  0  0  0  0  0  0  0
   35.1970   21.9430   32.2050 N   0  0  0  0  0  0  0  0  0  0  0  0
   34.0100   20.3580   32.7670 H   0  0  0  0  0  0  0  0  0  0  0  0
   35.4650   18.6820   31.6490 H   0  0  0  0  0  0  0  0  0  0  0  0
   37.5290   19.4620   30.4370 H   0  0  0  0  0  0  0  0  0  0  0  0
  1  5  1  0  0  0  0
  2  1  2  0  0  0  0
  2  3  1  0  0  0  0
  3  7  1  0  0  0  0
  3  4  2  0  0  0  0
  4  8  1  0  0  0  0
  5  4  1  0  0  0  0
  6  2  1  0  0  0  0
  8  9  1  0  0  0  0
  8 13  1  0  0  0  0
  9 10  1  0  0  0  0
 10 11  1  0  0  0  0
 12 11  1  0  0  0  0
 13 12  1  0  0  0  0
 14  1  1  0  0  0  0
 15 14  2  0  0  0  0
 16 22  1  0  0  0  0
 17 23  1  0  0  0  0
 17 16  2  0  0  0  0
 18 19  2  0  0  0  0
 18 17  1  0  0  0  0
 19 20  1  0  0  0  0
 20 14  1  0  0  0  0
 20 21  2  0  0  0  0
 21 16  1  0  0  0  0
 24 18  1  0  0  0  0
M  END
>  <minimizedAffinity>
-5.0355835

$$$$

 OpenBabel03272508463D

 24 26  0  0  0  0  0  0  0  0999 V2000
   36.4460   25.7330   31.9330 C   0  0  0  0  0  0  0  0  0  0  0  0
   35.2970   25.9850   31.1980 C   0  0  0  0  0  0  0  0  0  0  0  0
   34.8820   24.7160   30.8180 C   0  0  0  0  0  0  0  0  0  0  0  0
   35.7610   23.7890   31.3180 C   0  0  0  0  0  0  0  0  0  0  0  0
   36.6970   24.4340   31.9880 O   0  0  0  0  0  0  0  0  0  0  0  0
   34.8210   26.9150   30.9640 H   0  0  0  0  0  0  0  0  0  0  0  0
   33.9990   24.4680   30.2160 H   0  0  0  0  0  0  0  0  0  0  0  0
   35.7260   22.3130   31.1700 C   0  0  0  0  0  3  0  0  0  0  0  0
   35.0700   21.6690   32.3690 C   0  0  0  0  0  2  0  0  0  0  0  0
   34.8590   20.2050   32.0710 C   0  0  0  0  0  2  0  0  0  0  0  0
   36.1240   19.5050   31.6580 C   0  0  0  0  0  2  0  0  0  0  0  0
   37.0040   20.2910   30.7550 C   0  0  0  0  0  2  0  0  0  0  0  0
   37.1300   21.7470   31.0990 C   0  0  0  0  0  2  0  0  0  0  0  0
   37.2600   26.7910   32.5580 C   0  0  0  0  0  0  0  0  0  0  0  0
   38.4580   26.5440   32.8140 O   0  0  0  0  0  0  0  0  0  0  0  0
   36.1090   30.2100   32.1110 C   0  0  0  0  0  0  0  0  0  0  0  0
   35.5280   30.5230   33.3530 C   0  0  0  0  0  0  0  0  0  0  0  0
   35.5290   29.5600   34.3550 C   0  0  0  0  0  0  0  0  0  0  0  0
   36.1010   28.3650   34.0520 N   0  0  0  0  0  0  0  0  0  0  0  0
   36.6480   28.0900   32.8590 C   0  0  0  0  0  0  0  0  0  0  0  0
   36.6490   29.0130   31.8950 N   0  0  0  0  0  0  0  0  0  0  0  0
   36.1410   30.9130   31.2900 H   0  0  0  0  0  0  0  0  0  0  0  0
   35.1100   31.4920   33.4750 H   0  0  0  0  0  0  0  0  0  0  0  0
   35.0900   29.7760   35.3170 H   0  0  0  0  0  0  0  0  0  0  0  0
  1  5  1  0  0  0  0
  1 14  1  0  0  0  0
  2  1  2  0  0  0  0
  3  2  1  0  0  0  0
  3  4  2  0  0  0  0
  4  5  1  0  0  0  0
  6  2  1  0  0  0  0
  7  3  1  0  0  0  0
  8  4  1  0  0  0  0
  8  9  1  0  0  0  0
 10  9  1  0  0  0  0
 11 10  1  0  0  0  0
 12 13  1  0  0  0  0
 12 11  1  0  0  0  0
 13  8  1  0  0  0  0
 14 15  2  0  0  0  0
 14 20  1  0  0  0  0
 16 17  1  0  0  0  0
 17 23  1  0  0  0  0
 17 18  2  0  0  0  0
 18 24  1  0  0  0  0
 19 18  1  0  0  0  0
 20 19  2  0  0  0  0
 21 16  2  0  0  0  0
 21 20  1  0  0  0  0
 22 16  1  0  0  0  0
M  END
>  <minimizedAffinity>
-5.03217649

$$$$

 OpenBabel03272508463D

 24 26  0  0  0  0  0  0  0  0999 V2000
   37.5190   22.4470   36.1210 C   0  0  0  0  0  0  0  0  0  0  0  0
   36.5270   21.7230   36.7670 C   0  0  0  0  0  0  0  0  0  0  0  0
   35.9150   21.0330   35.7300 C   0  0  0  0  0  0  0  0  0  0  0  0
   36.5350   21.3560   34.5500 C   0  0  0  0  0  0  0  0  0  0  0  0
   37.5010   22.2120   34.8170 O   0  0  0  0  0  0  0  0  0  0  0  0
   36.2720   21.6830   37.8060 H   0  0  0  0  0  0  0  0  0  0  0  0
   35.0690   20.3380   35.8130 H   0  0  0  0  0  0  0  0  0  0  0  0
   36.2250   20.8670   33.1830 C   0  0  0  0  0  3  0  0  0  0  0  0
   35.5250   19.5290   33.2390 C   0  0  0  0  0  2  0  0  0  0  0  0
   35.0370   19.1840   31.8530 C   0  0  0  0  0  2  0  0  0  0  0  0
   36.1320   19.2230   30.8230 C   0  0  0  0  0  2  0  0  0  0  0  0
   37.0930   20.3460   30.9770 C   0  0  0  0  0  2  0  0  0  0  0  0
   37.4980   20.6470   32.3900 C   0  0  0  0  0  2  0  0  0  0  0  0
   38.4530   23.3480   36.8180 C   0  0  0  0  0  0  0  0  0  0  0  0
   38.8660   23.0140   37.9500 O   0  0  0  0  0  0  0  0  0  0  0  0
   38.4940   26.8610   35.8860 C   0  0  0  0  0  0  0  0  0  0  0  0
   39.5850   26.9520   35.0040 C   0  0  0  0  0  0  0  0  0  0  0  0
   40.3170   25.8030   34.7230 C   0  0  0  0  0  0  0  0  0  0  0  0
   39.9130   24.6580   35.3330 N   0  0  0  0  0  0  0  0  0  0  0  0
   38.8680   24.5980   36.1720 C   0  0  0  0  0  0  0  0  0  0  0  0
   38.1640   25.6990   36.4430 N   0  0  0  0  0  0  0  0  0  0  0  0
   37.8850   27.7160   36.1470 H   0  0  0  0  0  0  0  0  0  0  0  0
   39.8080   27.9020   34.5840 H   0  0  0  0  0  0  0  0  0  0  0  0
   41.1580   25.8460   34.0490 H   0  0  0  0  0  0  0  0  0  0  0  0
  1  2  2  0  0  0  0
  1 14  1  0  0  0  0
  2  6  1  0  0  0  0
  3  7  1  0  0  0  0
  3  2  1  0  0  0  0
  4  5  1  0  0  0  0
  4  3  2  0  0  0  0
  5  1  1  0  0  0  0
  8  9  1  0  0  0  0
  8  4  1  0  0  0  0
 10  9  1  0  0  0  0
 11 12  1  0  0  0  0
 11 10  1  0  0  0  0
 12 13  1  0  0  0  0
 13  8  1  0  0  0  0
 14 15  2  0  0  0  0
 16 22  1  0  0  0  0
 16 21  1  0  0  0  0
 17 16  2  0  0  0  0
 18 17  1  0  0  0  0
 18 19  2  0  0  0  0
 19 20  1  0  0  0  0
 20 21  2  0  0  0  0
 20 14  1  0  0  0  0
 23 17  1  0  0  0  0
 24 18  1  0  0  0  0
M  END
>  <minimizedAffinity>
-4.97835779

$$$$

 OpenBabel03272508463D

 24 26  0  0  0  0  0  0  0  0999 V2000
   37.0390   26.4450   33.1630 C   0  0  0  0  0  0  0  0  0  0  0  0
   37.2030   27.4540   34.1000 C   0  0  0  0  0  0  0  0  0  0  0  0
   37.7100   26.7810   35.2030 C   0  0  0  0  0  0  0  0  0  0  0  0
   37.8260   25.4480   34.8990 C   0  0  0  0  0  0  0  0  0  0  0  0
   37.4140   25.2740   33.6590 O   0  0  0  0  0  0  0  0  0  0  0  0
   36.9990   28.5020   34.0230 H   0  0  0  0  0  0  0  0  0  0  0  0
   37.9800   27.2200   36.1720 H   0  0  0  0  0  0  0  0  0  0  0  0
   38.3190   24.3470   35.7640 C   0  0  0  0  0  3  0  0  0  0  0  0
   38.0910   24.6680   37.2230 C   0  0  0  0  0  2  0  0  0  0  0  0
   38.4000   23.4370   38.0380 C   0  0  0  0  0  2  0  0  0  0  0  0
   39.7760   22.8920   37.7740 C   0  0  0  0  0  2  0  0  0  0  0  0
   40.1940   22.9200   36.3480 C   0  0  0  0  0  2  0  0  0  0  0  0
   39.8140   24.1640   35.5990 C   0  0  0  0  0  2  0  0  0  0  0  0
   36.5170   26.6730   31.8030 C   0  0  0  0  0  0  0  0  0  0  0  0
   35.6260   25.9080   31.3750 O   0  0  0  0  0  0  0  0  0  0  0  0
   38.8500   28.6480   29.8360 C   0  0  0  0  0  0  0  0  0  0  0  0
   38.1070   29.7960   29.5060 C   0  0  0  0  0  0  0  0  0  0  0  0
   36.7960   29.8990   29.9600 C   0  0  0  0  0  0  0  0  0  0  0  0
   36.3240   28.8640   30.7010 N   0  0  0  0  0  0  0  0  0  0  0  0
   37.0520   27.7780   31.0010 C   0  0  0  0  0  0  0  0  0  0  0  0
   38.3110   27.6760   30.5680 N   0  0  0  0  0  0  0  0  0  0  0  0
   39.8720   28.5050   29.5150 H   0  0  0  0  0  0  0  0  0  0  0  0
   38.5820   30.5440   28.9200 H   0  0  0  0  0  0  0  0  0  0  0  0
   36.2060   30.7700   29.7200 H   0  0  0  0  0  0  0  0  0  0  0  0
  1  5  1  0  0  0  0
  1  2  2  0  0  0  0
  2  3  1  0  0  0  0
  3  7  1  0  0  0  0
  4  3  2  0  0  0  0
  4  8  1  0  0  0  0
  5  4  1  0  0  0  0
  6  2  1  0  0  0  0
  8  9  1  0  0  0  0
  9 10  1  0  0  0  0
 11 10  1  0  0  0  0
 12 11  1  0  0  0  0
 13  8  1  0  0  0  0
 13 12  1  0  0  0  0
 14  1  1  0  0  0  0
 15 14  2  0  0  0  0
 16 21  1  0  0  0  0
 17 16  2  0  0  0  0
 17 18  1  0  0  0  0
 18 19  2  0  0  0  0
 19 20  1  0  0  0  0
 20 14  1  0  0  0  0
 21 20  2  0  0  0  0
 22 16  1  0  0  0  0
 23 17  1  0  0  0  0
 24 18  1  0  0  0  0
M  END
>  <minimizedAffinity>
-4.96981812

$$$$
