
 OpenBabel03272509053D

 30 32  0  0  0  0  0  0  0  0999 V2000
   34.9620   28.4980   49.6040 C   0  0  0  0  0  3  0  0  0  0  0  0
   34.4980   28.1340   48.4370 C   0  0  0  0  0  3  0  0  0  0  0  0
   37.6000   30.7700   50.7300 C   0  0  0  0  0  0  0  0  0  0  0  0
   38.2550   31.0670   49.5190 C   0  0  0  0  0  0  0  0  0  0  0  0
   37.7660   30.4720   48.3380 C   0  0  0  0  0  0  0  0  0  0  0  0
   36.6950   29.6490   48.4410 N   0  0  0  0  0  0  0  0  0  0  0  0
   36.0930   29.3860   49.6170 C   0  0  0  0  0  0  0  0  0  0  0  0
   36.5610   29.9570   50.7490 N   0  0  0  0  0  0  0  0  0  0  0  0
   37.9980   31.2420   51.6150 H   0  0  0  0  0  0  0  0  0  0  0  0
   39.0960   31.7070   49.4010 H   0  0  0  0  0  0  0  0  0  0  0  0
   38.3360   30.6760   46.9810 C   0  0  0  0  0  3  0  0  0  0  0  0
   37.3560   31.3520   46.0520 C   0  0  0  0  0  2  0  0  0  0  0  0
   38.1380   31.6180   44.7600 C   0  0  0  0  0  2  0  0  0  0  0  0
   39.1450   32.7240   44.9560 C   0  0  0  0  0  2  0  0  0  0  0  0
   39.3360   32.9220   46.4350 C   0  0  0  0  0  2  0  0  0  0  0  0
   39.5870   31.5440   47.0330 C   0  0  0  0  0  2  0  0  0  0  0  0
   33.3580   27.2390   48.1570 C   0  0  0  0  0  0  0  0  0  0  0  0
   32.5240   27.8650   47.7490 H   0  0  0  0  0  0  0  0  0  0  0  0
   32.9730   26.7210   49.0610 H   0  0  0  0  0  0  0  0  0  0  0  0
   33.6810   26.2060   47.1270 C   0  0  0  0  0  0  0  0  0  0  0  0
   33.8400   24.8680   47.3800 C   0  0  0  0  0  0  0  0  0  0  0  0
   34.1380   23.9910   46.3580 C   0  0  0  0  0  0  0  0  0  0  0  0
   34.2840   24.4510   45.0350 C   0  0  0  0  0  0  0  0  0  0  0  0
   34.1260   25.7840   44.7770 C   0  0  0  0  0  0  0  0  0  0  0  0
   33.8270   26.6490   45.8190 C   0  0  0  0  0  0  0  0  0  0  0  0
   33.7180   24.5600   48.4150 H   0  0  0  0  0  0  0  0  0  0  0  0
   34.2500   22.9600   46.6190 H   0  0  0  0  0  0  0  0  0  0  0  0
   34.5140   23.6770   44.3290 H   0  0  0  0  0  0  0  0  0  0  0  0
   34.2430   26.1160   43.7530 H   0  0  0  0  0  0  0  0  0  0  0  0
   33.7140   27.6990   45.5440 H   0  0  0  0  0  0  0  0  0  0  0  0
  1  7  1  0  0  0  0
  2  1  2  0  0  0  0
  3  8  1  0  0  0  0
  3  9  1  0  0  0  0
  4  3  2  0  0  0  0
  5  6  2  0  0  0  0
  5  4  1  0  0  0  0
  6  7  1  0  0  0  0
  7  8  2  0  0  0  0
 10  4  1  0  0  0  0
 11 16  1  0  0  0  0
 11  5  1  0  0  0  0
 12 11  1  0  0  0  0
 13 14  1  0  0  0  0
 13 12  1  0  0  0  0
 14 15  1  0  0  0  0
 15 16  1  0  0  0  0
 17  2  1  0  0  0  0
 17 19  1  0  0  0  0
 18 17  1  0  0  0  0
 20 21  1  0  0  0  0
 20 17  1  0  0  0  0
 21 26  1  0  0  0  0
 22 27  1  0  0  0  0
 22 21  2  0  0  0  0
 23 22  1  0  0  0  0
 24 23  2  0  0  0  0
 24 25  1  0  0  0  0
 25 20  2  0  0  0  0
 28 23  1  0  0  0  0
 29 24  1  0  0  0  0
 30 25  1  0  0  0  0
M  END
>  <minimizedAffinity>
-5.58047056

>  <minimizedRMSD>
0.907037318

$$$$
