
 OpenBabel03272506483D

 39 42  0  0  1  0  0  0  0  0999 V2000
   32.2550   28.2990   47.4340 C   0  0  2  0  0  0  0  0  0  0  0  0
   33.4770   28.2520   48.3030 C   0  0  1  0  0  0  0  0  0  0  0  0
   33.9890   26.9900   48.2410 O   0  0  0  0  0  0  0  0  0  0  0  0
   33.3900   26.3060   47.1890 C   0  0  0  0  0  0  0  0  0  0  0  0
   32.7220   27.3260   46.3050 C   0  0  1  0  0  0  0  0  0  0  0  0
   31.3440   27.8980   47.8640 H   0  0  0  0  0  0  0  0  0  0  0  0
   33.2070   28.5850   49.3270 H   0  0  0  0  0  0  0  0  0  0  0  0
   32.7620   25.5370   47.6080 H   0  0  0  0  0  0  0  0  0  0  0  0
   34.2180   25.8140   46.6070 H   0  0  0  0  0  0  0  0  0  0  0  0
   33.4050   27.8980   45.6860 H   0  0  0  0  0  0  0  0  0  0  0  0
   32.0860   29.5880   46.8840 O   0  0  0  0  0  0  0  0  0  0  0  0
   32.7660   29.6990   46.1820 H   0  0  0  0  0  0  0  0  0  0  0  0
   34.7140   29.4060   47.5870 S   0  0  0  0  0  0  0  0  0  0  0  0
   37.2080   29.2490   50.6610 C   0  0  0  0  0  0  0  0  0  0  0  0
   37.6250   30.5680   50.8530 C   0  0  0  0  0  0  0  0  0  0  0  0
   37.1170   31.5440   50.0000 C   0  0  0  0  0  0  0  0  0  0  0  0
   36.2410   31.1710   49.0230 N   0  0  0  0  0  0  0  0  0  0  0  0
   35.8640   29.8830   48.8710 C   0  0  0  0  0  0  0  0  0  0  0  0
   36.3400   28.9070   49.6850 N   0  0  0  0  0  0  0  0  0  0  0  0
   37.6250   28.5390   51.3390 H   0  0  0  0  0  0  0  0  0  0  0  0
   38.3280   30.8180   51.6490 H   0  0  0  0  0  0  0  0  0  0  0  0
   37.4240   32.5700   50.1290 H   0  0  0  0  0  0  0  0  0  0  0  0
   31.6460   26.7430   45.6820 O   0  0  0  0  0  0  0  0  0  0  0  0
   30.5290   28.7730   43.8650 Cl  0  0  0  0  0  0  0  0  0  0  0  0
   29.7330   27.9170   45.1640 C   0  0  0  0  0  0  0  0  0  0  0  0
   30.3630   26.9740   45.9430 C   0  0  0  0  0  0  0  0  0  0  0  0
   29.6150   26.3370   46.9360 C   0  0  0  0  0  0  0  0  0  0  0  0
   28.2850   26.6510   47.1220 C   0  0  0  0  0  0  0  0  0  0  0  0
   27.6440   27.5970   46.3440 C   0  0  0  0  0  0  0  0  0  0  0  0
   28.3890   28.2250   45.3640 C   0  0  0  0  0  0  0  0  0  0  0  0
   30.0270   25.5850   47.5860 H   0  0  0  0  0  0  0  0  0  0  0  0
   27.6700   26.1830   47.8770 H   0  0  0  0  0  0  0  0  0  0  0  0
   26.6000   27.8330   46.5020 H   0  0  0  0  0  0  0  0  0  0  0  0
   27.7040   29.2440   44.5250 C   0  0  0  0  0  3  0  0  0  0  0  0
   27.7000   30.6110   45.1440 C   0  0  0  0  0  2  0  0  0  0  0  0
   26.4630   31.4070   44.7250 C   0  0  0  0  0  2  0  0  0  0  0  0
   26.0770   31.1420   43.2980 C   0  0  0  0  0  2  0  0  0  0  0  0
   25.6610   29.6910   43.1850 C   0  0  0  0  0  2  0  0  0  0  0  0
   26.2670   28.8550   44.2800 C   0  0  0  0  0  2  0  0  0  0  0  0
  1  6  1  1  0  0  0
  1  2  1  0  0  0  0
  2  7  1  1  0  0  0
  3  2  1  0  0  0  0
  4  8  1  0  0  0  0
  4  3  1  0  0  0  0
  5 10  1  6  0  0  0
  5  4  1  0  0  0  0
  5  1  1  0  0  0  0
  9  4  1  0  0  0  0
 11  1  1  0  0  0  0
 12 11  1  0  0  0  0
 13  2  1  0  0  0  0
 13 18  1  0  0  0  0
 14 15  1  0  0  0  0
 14 20  1  0  0  0  0
 15 21  1  0  0  0  0
 16 22  1  0  0  0  0
 16 15  2  0  0  0  0
 17 16  1  0  0  0  0
 18 17  2  0  0  0  0
 18 19  1  0  0  0  0
 19 14  2  0  0  0  0
 23 26  1  0  0  0  0
 23  5  1  0  0  0  0
 24 25  1  0  0  0  0
 25 30  2  0  0  0  0
 25 26  1  0  0  0  0
 26 27  2  0  0  0  0
 27 28  1  0  0  0  0
 27 31  1  0  0  0  0
 28 32  1  0  0  0  0
 29 33  1  0  0  0  0
 29 28  2  0  0  0  0
 30 29  1  0  0  0  0
 34 35  1  0  0  0  0
 34 30  1  0  0  0  0
 36 35  1  0  0  0  0
 37 36  1  0  0  0  0
 38 37  1  0  0  0  0
 38 39  1  0  0  0  0
 39 34  1  0  0  0  0
M  END
>  <minimizedAffinity>
-5.18258142

>  <minimizedRMSD>
0.827840388

$$$$
