
 OpenBabel03272509123D

 25 27  0  0  1  0  0  0  0  0999 V2000
   37.6950   23.2540   32.4220 C   0  0  0  0  0  0  0  0  0  0  0  0
   38.2310   23.5350   33.7080 C   0  0  0  0  0  0  0  0  0  0  0  0
   37.8860   22.6680   34.7490 C   0  0  0  0  0  0  0  0  0  0  0  0
   37.0600   21.5980   34.5200 N   0  0  0  0  0  0  0  0  0  0  0  0
   36.5730   21.3820   33.2520 C   0  0  0  0  0  0  0  0  0  0  0  0
   36.8990   22.2110   32.2300 N   0  0  0  0  0  0  0  0  0  0  0  0
   37.8820   23.8360   31.5370 H   0  0  0  0  0  0  0  0  0  0  0  0
   35.9340   20.5090   33.1960 H   0  0  0  0  0  0  0  0  0  0  0  0
   38.3770   22.8620   36.0900 C   0  0  0  0  0  0  0  0  0  0  0  0
   37.5470   23.4420   37.0050 C   0  0  0  0  0  0  0  0  0  0  0  0
   37.9700   23.6590   38.3250 C   0  0  0  0  0  0  0  0  0  0  0  0
   39.2630   23.2630   38.6650 C   0  0  0  0  0  0  0  0  0  0  0  0
   40.1520   22.6670   37.7680 C   0  0  0  0  0  0  0  0  0  0  0  0
   39.6450   22.4960   36.4970 C   0  0  0  0  0  0  0  0  0  0  0  0
   36.5490   23.8320   36.9390 H   0  0  0  0  0  0  0  0  0  0  0  0
   37.4090   24.1030   39.1330 H   0  0  0  0  0  0  0  0  0  0  0  0
   39.6700   23.3950   39.6750 H   0  0  0  0  0  0  0  0  0  0  0  0
   41.1430   22.3740   38.0660 H   0  0  0  0  0  0  0  0  0  0  0  0
   40.2970   22.0350   35.7600 H   0  0  0  0  0  0  0  0  0  0  0  0
   39.0720   24.7320   33.7210 C   0  0  1  0  0  3  0  0  0  0  0  0
   39.4320   25.2540   32.3530 C   0  0  0  0  0  2  0  0  0  0  0  0
   40.4480   26.3410   32.4260 C   0  0  0  0  0  2  0  0  0  0  0  0
   40.4080   27.1970   33.6330 C   0  0  0  0  0  3  0  0  0  0  0  0
   39.3970   26.9300   34.6690 C   0  0  0  0  0  3  0  0  0  0  0  0
   38.3150   25.9400   34.3150 C   0  0  0  0  0  2  0  0  0  0  0  0
  1  2  1  0  0  0  0
  2  3  2  0  0  0  0
  3  9  1  0  0  0  0
  4  3  1  0  0  0  0
  5  4  2  0  0  0  0
  6  1  2  0  0  0  0
  6  5  1  0  0  0  0
  7  1  1  0  0  0  0
  8  5  1  0  0  0  0
  9 14  2  0  0  0  0
  9 10  1  0  0  0  0
 10 11  2  0  0  0  0
 11 12  1  0  0  0  0
 11 16  1  0  0  0  0
 12 17  1  0  0  0  0
 13 18  1  0  0  0  0
 13 12  2  0  0  0  0
 14 13  1  0  0  0  0
 15 10  1  0  0  0  0
 19 14  1  0  0  0  0
 20  2  1  6  0  0  0
 20 25  1  0  0  0  0
 21 22  1  0  0  0  0
 21 20  1  0  0  0  0
 22 23  1  0  0  0  0
 23 24  2  0  0  0  0
 25 24  1  0  0  0  0
M  END
>  <minimizedAffinity>
-4.96787691

$$$$

 OpenBabel03272509123D

 25 27  0  0  1  0  0  0  0  0999 V2000
   43.1870   25.0780   34.8010 C   0  0  0  0  0  0  0  0  0  0  0  0
   41.7870   25.3220   34.8620 C   0  0  0  0  0  0  0  0  0  0  0  0
   41.3220   26.5160   34.3060 C   0  0  0  0  0  0  0  0  0  0  0  0
   42.1940   27.4050   33.7310 N   0  0  0  0  0  0  0  0  0  0  0  0
   43.5370   27.1100   33.7060 C   0  0  0  0  0  0  0  0  0  0  0  0
   44.0070   25.9550   34.2390 N   0  0  0  0  0  0  0  0  0  0  0  0
   43.6740   24.2000   35.1870 H   0  0  0  0  0  0  0  0  0  0  0  0
   44.1240   27.8850   33.2280 H   0  0  0  0  0  0  0  0  0  0  0  0
   39.9220   26.8600   34.3130 C   0  0  0  0  0  0  0  0  0  0  0  0
   39.2640   26.9200   33.1190 C   0  0  0  0  0  0  0  0  0  0  0  0
   37.9020   27.2510   33.0630 C   0  0  0  0  0  0  0  0  0  0  0  0
   37.2500   27.5160   34.2660 C   0  0  0  0  0  0  0  0  0  0  0  0
   37.8750   27.4690   35.5140 C   0  0  0  0  0  0  0  0  0  0  0  0
   39.2110   27.1350   35.4650 C   0  0  0  0  0  0  0  0  0  0  0  0
   39.5840   26.7800   32.1030 H   0  0  0  0  0  0  0  0  0  0  0  0
   37.2780   27.3290   32.1860 H   0  0  0  0  0  0  0  0  0  0  0  0
   36.1860   27.7810   34.3110 H   0  0  0  0  0  0  0  0  0  0  0  0
   37.3390   27.6800   36.4220 H   0  0  0  0  0  0  0  0  0  0  0  0
   39.7460   27.0830   36.4100 H   0  0  0  0  0  0  0  0  0  0  0  0
   41.0540   24.2470   35.5320 C   0  0  1  0  0  3  0  0  0  0  0  0
   40.3530   23.2960   34.5970 C   0  0  0  0  0  2  0  0  0  0  0  0
   39.4620   22.3540   35.3310 C   0  0  0  0  0  2  0  0  0  0  0  0
   39.8910   21.9770   36.6980 C   0  0  0  0  0  3  0  0  0  0  0  0
   41.1370   22.5420   37.2410 C   0  0  0  0  0  3  0  0  0  0  0  0
   42.0170   23.2910   36.2700 C   0  0  0  0  0  2  0  0  0  0  0  0
  1  2  1  0  0  0  0
  1  7  1  0  0  0  0
  3  9  1  0  0  0  0
  3  2  2  0  0  0  0
  4  3  1  0  0  0  0
  5  4  2  0  0  0  0
  5  6  1  0  0  0  0
  6  1  2  0  0  0  0
  8  5  1  0  0  0  0
  9 14  1  0  0  0  0
 10  9  2  0  0  0  0
 11 10  1  0  0  0  0
 11 12  2  0  0  0  0
 12 17  1  0  0  0  0
 12 13  1  0  0  0  0
 13 18  1  0  0  0  0
 14 13  2  0  0  0  0
 14 19  1  0  0  0  0
 15 10  1  0  0  0  0
 16 11  1  0  0  0  0
 20  2  1  6  0  0  0
 20 25  1  0  0  0  0
 21 22  1  0  0  0  0
 21 20  1  0  0  0  0
 22 23  1  0  0  0  0
 23 24  2  0  0  0  0
 25 24  1  0  0  0  0
M  END
>  <minimizedAffinity>
-4.92409229

$$$$

 OpenBabel03272509123D

 25 27  0  0  1  0  0  0  0  0999 V2000
   35.7340   29.5640   31.5770 C   0  0  0  0  0  0  0  0  0  0  0  0
   36.0710   28.9240   32.8010 C   0  0  0  0  0  0  0  0  0  0  0  0
   37.0530   27.9300   32.7530 C   0  0  0  0  0  0  0  0  0  0  0  0
   37.6510   27.5960   31.5650 N   0  0  0  0  0  0  0  0  0  0  0  0
   37.2780   28.2530   30.4160 C   0  0  0  0  0  0  0  0  0  0  0  0
   36.3300   29.2220   30.4430 N   0  0  0  0  0  0  0  0  0  0  0  0
   35.0010   30.3440   31.4740 H   0  0  0  0  0  0  0  0  0  0  0  0
   37.8190   27.9040   29.5440 H   0  0  0  0  0  0  0  0  0  0  0  0
   37.4700   27.2210   33.9370 C   0  0  0  0  0  0  0  0  0  0  0  0
   37.4100   25.8570   33.9290 C   0  0  0  0  0  0  0  0  0  0  0  0
   37.8010   25.1130   35.0520 C   0  0  0  0  0  0  0  0  0  0  0  0
   38.2490   25.8140   36.1700 C   0  0  0  0  0  0  0  0  0  0  0  0
   38.3290   27.2070   36.2320 C   0  0  0  0  0  0  0  0  0  0  0  0
   37.9240   27.8480   35.0810 C   0  0  0  0  0  0  0  0  0  0  0  0
   37.0790   25.1470   33.1950 H   0  0  0  0  0  0  0  0  0  0  0  0
   37.8010   24.0400   35.1640 H   0  0  0  0  0  0  0  0  0  0  0  0
   38.5740   25.3090   37.0880 H   0  0  0  0  0  0  0  0  0  0  0  0
   38.6790   27.7140   37.1130 H   0  0  0  0  0  0  0  0  0  0  0  0
   37.9670   28.9340   35.0750 H   0  0  0  0  0  0  0  0  0  0  0  0
   35.2970   29.4280   33.9350 C   0  0  1  0  0  3  0  0  0  0  0  0
   35.6100   30.8510   34.3190 C   0  0  0  0  0  2  0  0  0  0  0  0
   34.9470   31.2380   35.5960 C   0  0  0  0  0  3  0  0  0  0  0  0
   33.6480   30.5900   35.8830 C   0  0  0  0  0  3  0  0  0  0  0  0
   33.0990   29.6210   34.9190 C   0  0  0  0  0  2  0  0  0  0  0  0
   33.7960   29.5320   33.5840 C   0  0  0  0  0  2  0  0  0  0  0  0
  1  2  1  0  0  0  0
  3  2  2  0  0  0  0
  3  9  1  0  0  0  0
  4  3  1  0  0  0  0
  5  6  1  0  0  0  0
  5  4  2  0  0  0  0
  6  1  2  0  0  0  0
  7  1  1  0  0  0  0
  8  5  1  0  0  0  0
  9 14  1  0  0  0  0
 10  9  2  0  0  0  0
 10 11  1  0  0  0  0
 11 16  1  0  0  0  0
 11 12  2  0  0  0  0
 12 13  1  0  0  0  0
 12 17  1  0  0  0  0
 13 18  1  0  0  0  0
 14 13  2  0  0  0  0
 15 10  1  0  0  0  0
 19 14  1  0  0  0  0
 20  2  1  6  0  0  0
 20 21  1  0  0  0  0
 21 22  1  0  0  0  0
 22 23  2  0  0  0  0
 24 23  1  0  0  0  0
 25 20  1  0  0  0  0
 25 24  1  0  0  0  0
M  END
>  <minimizedAffinity>
-4.91060209

$$$$

 OpenBabel03272509123D

 25 27  0  0  1  0  0  0  0  0999 V2000
   36.9550   24.4320   32.3440 C   0  0  0  0  0  0  0  0  0  0  0  0
   37.0720   25.8480   32.4100 C   0  0  0  0  0  0  0  0  0  0  0  0
   36.1230   26.6010   31.7130 C   0  0  0  0  0  0  0  0  0  0  0  0
   35.1290   25.9830   30.9980 N   0  0  0  0  0  0  0  0  0  0  0  0
   35.0720   24.6090   30.9740 C   0  0  0  0  0  0  0  0  0  0  0  0
   35.9820   23.8610   31.6460 N   0  0  0  0  0  0  0  0  0  0  0  0
   37.6140   23.7380   32.8340 H   0  0  0  0  0  0  0  0  0  0  0  0
   34.2470   24.2380   30.3790 H   0  0  0  0  0  0  0  0  0  0  0  0
   36.1510   28.0420   31.7160 C   0  0  0  0  0  0  0  0  0  0  0  0
   36.6970   28.6810   30.6400 C   0  0  0  0  0  0  0  0  0  0  0  0
   36.7540   30.0820   30.5870 C   0  0  0  0  0  0  0  0  0  0  0  0
   36.2350   30.7920   31.6680 C   0  0  0  0  0  0  0  0  0  0  0  0
   35.6670   30.1900   32.7920 C   0  0  0  0  0  0  0  0  0  0  0  0
   35.6570   28.8120   32.7510 C   0  0  0  0  0  0  0  0  0  0  0  0
   37.1620   28.3240   29.7400 H   0  0  0  0  0  0  0  0  0  0  0  0
   37.1570   30.6950   29.7960 H   0  0  0  0  0  0  0  0  0  0  0  0
   36.2400   31.8890   31.7050 H   0  0  0  0  0  0  0  0  0  0  0  0
   35.2770   30.7720   33.6080 H   0  0  0  0  0  0  0  0  0  0  0  0
   35.2240   28.2920   33.6020 H   0  0  0  0  0  0  0  0  0  0  0  0
   38.2130   26.2840   33.2140 C   0  0  1  0  0  3  0  0  0  0  0  0
   37.8960   26.5160   34.6690 C   0  0  0  0  0  2  0  0  0  0  0  0
   39.0360   27.1500   35.3890 C   0  0  0  0  0  3  0  0  0  0  0  0
   40.3920   26.8100   34.9010 C   0  0  0  0  0  3  0  0  0  0  0  0
   40.5340   25.8920   33.7580 C   0  0  0  0  0  2  0  0  0  0  0  0
   39.2840   25.1750   33.3110 C   0  0  0  0  0  2  0  0  0  0  0  0
  1  2  1  0  0  0  0
  1  7  1  0  0  0  0
  3  9  1  0  0  0  0
  3  2  2  0  0  0  0
  4  3  1  0  0  0  0
  5  4  2  0  0  0  0
  5  6  1  0  0  0  0
  6  1  2  0  0  0  0
  8  5  1  0  0  0  0
  9 14  1  0  0  0  0
 10  9  2  0  0  0  0
 11 10  1  0  0  0  0
 11 12  2  0  0  0  0
 12 17  1  0  0  0  0
 12 13  1  0  0  0  0
 13 18  1  0  0  0  0
 14 13  2  0  0  0  0
 14 19  1  0  0  0  0
 15 10  1  0  0  0  0
 16 11  1  0  0  0  0
 20  2  1  6  0  0  0
 20 25  1  0  0  0  0
 20 21  1  0  0  0  0
 21 22  1  0  0  0  0
 23 22  2  0  0  0  0
 24 23  1  0  0  0  0
 25 24  1  0  0  0  0
M  END
>  <minimizedAffinity>
-4.89762306

$$$$

 OpenBabel03272509123D

 25 27  0  0  1  0  0  0  0  0999 V2000
   33.2260   31.4040   36.7720 C   0  0  0  0  0  0  0  0  0  0  0  0
   33.6940   30.5480   35.7390 C   0  0  0  0  0  0  0  0  0  0  0  0
   34.9540   30.8240   35.2010 C   0  0  0  0  0  0  0  0  0  0  0  0
   35.6920   31.8850   35.6610 N   0  0  0  0  0  0  0  0  0  0  0  0
   35.1810   32.6760   36.6640 C   0  0  0  0  0  0  0  0  0  0  0  0
   33.9610   32.4220   37.1990 N   0  0  0  0  0  0  0  0  0  0  0  0
   32.2790   31.3020   37.2730 H   0  0  0  0  0  0  0  0  0  0  0  0
   35.8530   33.4790   36.9420 H   0  0  0  0  0  0  0  0  0  0  0  0
   35.5230   30.0170   34.1510 C   0  0  0  0  0  0  0  0  0  0  0  0
   35.4870   30.4980   32.8740 C   0  0  0  0  0  0  0  0  0  0  0  0
   36.0220   29.7560   31.8100 C   0  0  0  0  0  0  0  0  0  0  0  0
   36.5890   28.5170   32.1050 C   0  0  0  0  0  0  0  0  0  0  0  0
   36.6510   27.9790   33.3910 C   0  0  0  0  0  0  0  0  0  0  0  0
   36.0990   28.7810   34.3680 C   0  0  0  0  0  0  0  0  0  0  0  0
   35.0820   31.3950   32.4450 H   0  0  0  0  0  0  0  0  0  0  0  0
   36.0540   30.0290   30.7670 H   0  0  0  0  0  0  0  0  0  0  0  0
   37.0300   27.8750   31.3320 H   0  0  0  0  0  0  0  0  0  0  0  0
   37.0960   27.0180   33.5810 H   0  0  0  0  0  0  0  0  0  0  0  0
   36.1220   28.4090   35.3890 H   0  0  0  0  0  0  0  0  0  0  0  0
   32.7360   29.4960   35.3980 C   0  0  1  0  0  3  0  0  0  0  0  0
   31.8080   29.1130   36.5220 C   0  0  0  0  0  2  0  0  0  0  0  0
   31.0000   27.9070   36.1860 C   0  0  0  0  0  3  0  0  0  0  0  0
   30.6600   27.7220   34.7570 C   0  0  0  0  0  3  0  0  0  0  0  0
   31.1300   28.7120   33.7730 C   0  0  0  0  0  2  0  0  0  0  0  0
   31.7330   29.9790   34.3280 C   0  0  0  0  0  2  0  0  0  0  0  0
  1  6  1  0  0  0  0
  1  7  1  0  0  0  0
  2  1  2  0  0  0  0
  3  4  2  0  0  0  0
  3  2  1  0  0  0  0
  4  5  1  0  0  0  0
  5  8  1  0  0  0  0
  5  6  2  0  0  0  0
  9 14  1  0  0  0  0
  9  3  1  0  0  0  0
 10  9  2  0  0  0  0
 11 12  2  0  0  0  0
 11 10  1  0  0  0  0
 12 13  1  0  0  0  0
 13 18  1  0  0  0  0
 13 14  2  0  0  0  0
 14 19  1  0  0  0  0
 15 10  1  0  0  0  0
 16 11  1  0  0  0  0
 17 12  1  0  0  0  0
 20  2  1  1  0  0  0
 20 21  1  0  0  0  0
 22 21  1  0  0  0  0
 23 22  2  0  0  0  0
 24 25  1  0  0  0  0
 24 23  1  0  0  0  0
 25 20  1  0  0  0  0
M  END
>  <minimizedAffinity>
-4.89753246

$$$$

 OpenBabel03272509123D

 25 27  0  0  1  0  0  0  0  0999 V2000
   38.9350   25.7720   32.4040 C   0  0  0  0  0  0  0  0  0  0  0  0
   38.6910   24.9660   33.5500 C   0  0  0  0  0  0  0  0  0  0  0  0
   39.3270   25.3360   34.7390 C   0  0  0  0  0  0  0  0  0  0  0  0
   40.1500   26.4320   34.7790 N   0  0  0  0  0  0  0  0  0  0  0  0
   40.3440   27.1700   33.6340 C   0  0  0  0  0  0  0  0  0  0  0  0
   39.7350   26.8280   32.4720 N   0  0  0  0  0  0  0  0  0  0  0  0
   38.5080   25.6020   31.4320 H   0  0  0  0  0  0  0  0  0  0  0  0
   41.0120   28.0090   33.7890 H   0  0  0  0  0  0  0  0  0  0  0  0
   39.1460   24.5880   35.9580 C   0  0  0  0  0  0  0  0  0  0  0  0
   38.1280   24.9470   36.7920 C   0  0  0  0  0  0  0  0  0  0  0  0
   37.9040   24.2580   37.9940 C   0  0  0  0  0  0  0  0  0  0  0  0
   38.7570   23.1990   38.3010 C   0  0  0  0  0  0  0  0  0  0  0  0
   39.8130   22.7910   37.4850 C   0  0  0  0  0  0  0  0  0  0  0  0
   39.9520   23.5290   36.3280 C   0  0  0  0  0  0  0  0  0  0  0  0
   37.3940   25.7300   36.7510 H   0  0  0  0  0  0  0  0  0  0  0  0
   37.1370   24.4460   38.7290 H   0  0  0  0  0  0  0  0  0  0  0  0
   38.6500   22.6080   39.2200 H   0  0  0  0  0  0  0  0  0  0  0  0
   40.4510   21.9690   37.7550 H   0  0  0  0  0  0  0  0  0  0  0  0
   40.7590   23.2520   35.6550 H   0  0  0  0  0  0  0  0  0  0  0  0
   37.7960   23.8430   33.2720 C   0  0  1  0  0  3  0  0  0  0  0  0
   37.0110   23.9770   31.9920 C   0  0  0  0  0  2  0  0  0  0  0  0
   35.9750   22.9140   31.8660 C   0  0  0  0  0  2  0  0  0  0  0  0
   36.2950   21.6080   32.4860 C   0  0  0  0  0  3  0  0  0  0  0  0
   37.5830   21.4390   33.1790 C   0  0  0  0  0  3  0  0  0  0  0  0
   38.5920   22.5470   33.0040 C   0  0  0  0  0  2  0  0  0  0  0  0
  1  6  2  0  0  0  0
  1  2  1  0  0  0  0
  2  3  2  0  0  0  0
  3  4  1  0  0  0  0
  3  9  1  0  0  0  0
  5  8  1  0  0  0  0
  5  4  2  0  0  0  0
  6  5  1  0  0  0  0
  7  1  1  0  0  0  0
  9 14  2  0  0  0  0
  9 10  1  0  0  0  0
 10 11  2  0  0  0  0
 11 12  1  0  0  0  0
 11 16  1  0  0  0  0
 12 17  1  0  0  0  0
 13 18  1  0  0  0  0
 13 12  2  0  0  0  0
 14 13  1  0  0  0  0
 15 10  1  0  0  0  0
 19 14  1  0  0  0  0
 20  2  1  6  0  0  0
 21 20  1  0  0  0  0
 22 21  1  0  0  0  0
 22 23  1  0  0  0  0
 23 24  2  0  0  0  0
 25 24  1  0  0  0  0
 25 20  1  0  0  0  0
M  END
>  <minimizedAffinity>
-4.83661222

$$$$

 OpenBabel03272509123D

 25 27  0  0  1  0  0  0  0  0999 V2000
   35.1190   32.0280   35.7220 C   0  0  0  0  0  0  0  0  0  0  0  0
   34.3260   30.9210   35.3130 C   0  0  0  0  0  0  0  0  0  0  0  0
   33.1500   30.6780   36.0280 C   0  0  0  0  0  0  0  0  0  0  0  0
   32.7930   31.4840   37.0790 N   0  0  0  0  0  0  0  0  0  0  0  0
   33.6050   32.5380   37.4250 C   0  0  0  0  0  0  0  0  0  0  0  0
   34.7490   32.7900   36.7420 N   0  0  0  0  0  0  0  0  0  0  0  0
   36.0430   32.3260   35.2590 H   0  0  0  0  0  0  0  0  0  0  0  0
   33.2200   33.1000   38.2680 H   0  0  0  0  0  0  0  0  0  0  0  0
   32.2730   29.5840   35.6940 C   0  0  0  0  0  0  0  0  0  0  0  0
   31.7930   29.5060   34.4190 C   0  0  0  0  0  0  0  0  0  0  0  0
   30.9340   28.4640   34.0350 C   0  0  0  0  0  0  0  0  0  0  0  0
   30.5920   27.5180   35.0000 C   0  0  0  0  0  0  0  0  0  0  0  0
   31.0550   27.5510   36.3170 C   0  0  0  0  0  0  0  0  0  0  0  0
   31.8910   28.6110   36.5970 C   0  0  0  0  0  0  0  0  0  0  0  0
   31.9120   30.1330   33.5550 H   0  0  0  0  0  0  0  0  0  0  0  0
   30.4940   28.2970   33.0650 H   0  0  0  0  0  0  0  0  0  0  0  0
   29.9280   26.6720   34.7820 H   0  0  0  0  0  0  0  0  0  0  0  0
   30.7690   26.8030   37.0350 H   0  0  0  0  0  0  0  0  0  0  0  0
   32.2810   28.6830   37.6080 H   0  0  0  0  0  0  0  0  0  0  0  0
   34.9070   30.1960   34.1830 C   0  0  1  0  0  3  0  0  0  0  0  0
   35.6210   31.0700   33.1850 C   0  0  0  0  0  2  0  0  0  0  0  0
   36.0090   30.3110   31.9630 C   0  0  0  0  0  2  0  0  0  0  0  0
   36.3250   28.8770   32.1540 C   0  0  0  0  0  3  0  0  0  0  0  0
   36.2350   28.2960   33.5040 C   0  0  0  0  0  3  0  0  0  0  0  0
   36.0510   29.2670   34.6440 C   0  0  0  0  0  2  0  0  0  0  0  0
  1  6  1  0  0  0  0
  2  1  2  0  0  0  0
  2  3  1  0  0  0  0
  3  4  2  0  0  0  0
  4  5  1  0  0  0  0
  5  8  1  0  0  0  0
  6  5  2  0  0  0  0
  7  1  1  0  0  0  0
  9  3  1  0  0  0  0
  9 14  1  0  0  0  0
 10  9  2  0  0  0  0
 11 10  1  0  0  0  0
 11 12  2  0  0  0  0
 12 13  1  0  0  0  0
 13 14  2  0  0  0  0
 13 18  1  0  0  0  0
 14 19  1  0  0  0  0
 15 10  1  0  0  0  0
 16 11  1  0  0  0  0
 17 12  1  0  0  0  0
 20 25  1  0  0  0  0
 20  2  1  1  0  0  0
 21 20  1  0  0  0  0
 22 23  1  0  0  0  0
 22 21  1  0  0  0  0
 23 24  2  0  0  0  0
 24 25  1  0  0  0  0
M  END
>  <minimizedAffinity>
-4.8129735

$$$$

 OpenBabel03272509123D

 25 27  0  0  1  0  0  0  0  0999 V2000
   37.3330   25.4890   32.8110 C   0  0  0  0  0  0  0  0  0  0  0  0
   37.2070   24.0740   32.7410 C   0  0  0  0  0  0  0  0  0  0  0  0
   36.2980   23.5590   31.8140 C   0  0  0  0  0  0  0  0  0  0  0  0
   35.5620   24.3980   31.0160 N   0  0  0  0  0  0  0  0  0  0  0  0
   35.7300   25.7580   31.1350 C   0  0  0  0  0  0  0  0  0  0  0  0
   36.6100   26.2770   32.0270 N   0  0  0  0  0  0  0  0  0  0  0  0
   37.9950   26.0150   33.4760 H   0  0  0  0  0  0  0  0  0  0  0  0
   35.0980   26.3150   30.4540 H   0  0  0  0  0  0  0  0  0  0  0  0
   36.0950   22.1400   31.6610 C   0  0  0  0  0  0  0  0  0  0  0  0
   36.9690   21.4430   30.8770 C   0  0  0  0  0  0  0  0  0  0  0  0
   36.8220   20.0600   30.6890 C   0  0  0  0  0  0  0  0  0  0  0  0
   35.7560   19.4290   31.3280 C   0  0  0  0  0  0  0  0  0  0  0  0
   34.8340   20.0940   32.1390 C   0  0  0  0  0  0  0  0  0  0  0  0
   35.0620   21.4480   32.2620 C   0  0  0  0  0  0  0  0  0  0  0  0
   37.8190   21.7400   30.2920 H   0  0  0  0  0  0  0  0  0  0  0  0
   37.4440   19.4060   30.0990 H   0  0  0  0  0  0  0  0  0  0  0  0
   35.5710   18.3520   31.2340 H   0  0  0  0  0  0  0  0  0  0  0  0
   34.0230   19.5730   32.6160 H   0  0  0  0  0  0  0  0  0  0  0  0
   34.3740   22.0140   32.8840 H   0  0  0  0  0  0  0  0  0  0  0  0
   38.0750   23.3820   33.6940 C   0  0  1  0  0  3  0  0  0  0  0  0
   39.4760   23.1390   33.1950 C   0  0  0  0  0  2  0  0  0  0  0  0
   40.2450   22.2560   34.1170 C   0  0  0  0  0  2  0  0  0  0  0  0
   39.9020   22.3510   35.5540 C   0  0  0  0  0  3  0  0  0  0  0  0
   38.8460   23.2830   35.9810 C   0  0  0  0  0  3  0  0  0  0  0  0
   38.3430   24.2530   34.9400 C   0  0  0  0  0  2  0  0  0  0  0  0
  1  7  1  0  0  0  0
  2  1  1  0  0  0  0
  3  2  2  0  0  0  0
  4  5  2  0  0  0  0
  4  3  1  0  0  0  0
  5  6  1  0  0  0  0
  6  1  2  0  0  0  0
  8  5  1  0  0  0  0
  9  3  1  0  0  0  0
  9 14  1  0  0  0  0
 10  9  2  0  0  0  0
 11 10  1  0  0  0  0
 11 12  2  0  0  0  0
 12 13  1  0  0  0  0
 13 14  2  0  0  0  0
 13 18  1  0  0  0  0
 14 19  1  0  0  0  0
 15 10  1  0  0  0  0
 16 11  1  0  0  0  0
 17 12  1  0  0  0  0
 20  2  1  6  0  0  0
 20 25  1  0  0  0  0
 21 20  1  0  0  0  0
 21 22  1  0  0  0  0
 22 23  1  0  0  0  0
 23 24  2  0  0  0  0
 25 24  1  0  0  0  0
M  END
>  <minimizedAffinity>
-4.7793293

$$$$

 OpenBabel03272509123D

 25 27  0  0  1  0  0  0  0  0999 V2000
   35.6520   23.6350   31.3390 C   0  0  0  0  0  0  0  0  0  0  0  0
   36.5690   22.9930   32.2160 C   0  0  0  0  0  0  0  0  0  0  0  0
   37.4310   23.8120   32.9510 C   0  0  0  0  0  0  0  0  0  0  0  0
   37.3820   25.1760   32.8160 N   0  0  0  0  0  0  0  0  0  0  0  0
   36.4720   25.7350   31.9490 C   0  0  0  0  0  0  0  0  0  0  0  0
   35.6260   24.9560   31.2290 N   0  0  0  0  0  0  0  0  0  0  0  0
   34.9340   23.1260   30.7210 H   0  0  0  0  0  0  0  0  0  0  0  0
   36.5280   26.8160   31.9280 H   0  0  0  0  0  0  0  0  0  0  0  0
   38.3970   23.2630   33.8700 C   0  0  0  0  0  0  0  0  0  0  0  0
   39.6620   23.0290   33.4140 C   0  0  0  0  0  0  0  0  0  0  0  0
   40.6440   22.4940   34.2610 C   0  0  0  0  0  0  0  0  0  0  0  0
   40.2810   22.2110   35.5770 C   0  0  0  0  0  0  0  0  0  0  0  0
   39.0030   22.4300   36.0930 C   0  0  0  0  0  0  0  0  0  0  0  0
   38.1090   22.9580   35.1850 C   0  0  0  0  0  0  0  0  0  0  0  0
   40.1240   23.1510   32.4520 H   0  0  0  0  0  0  0  0  0  0  0  0
   41.6710   22.2680   34.0190 H   0  0  0  0  0  0  0  0  0  0  0  0
   40.9890   21.7920   36.3030 H   0  0  0  0  0  0  0  0  0  0  0  0
   38.7590   22.1990   37.1140 H   0  0  0  0  0  0  0  0  0  0  0  0
   37.0980   23.1490   35.5360 H   0  0  0  0  0  0  0  0  0  0  0  0
   36.4540   21.5350   32.1860 C   0  0  1  0  0  3  0  0  0  0  0  0
   35.4780   20.9680   33.1850 C   0  0  0  0  0  2  0  0  0  0  0  0
   35.5550   19.4810   33.2500 C   0  0  0  0  0  3  0  0  0  0  0  0
   35.9230   18.7880   31.9950 C   0  0  0  0  0  3  0  0  0  0  0  0
   36.1900   19.5850   30.7860 C   0  0  0  0  0  2  0  0  0  0  0  0
   35.8390   21.0510   30.8550 C   0  0  0  0  0  2  0  0  0  0  0  0
  1  2  1  0  0  0  0
  2  3  2  0  0  0  0
  3  9  1  0  0  0  0
  4  3  1  0  0  0  0
  5  4  2  0  0  0  0
  6  1  2  0  0  0  0
  6  5  1  0  0  0  0
  7  1  1  0  0  0  0
  8  5  1  0  0  0  0
  9 14  1  0  0  0  0
 10  9  2  0  0  0  0
 10 11  1  0  0  0  0
 11 12  2  0  0  0  0
 12 13  1  0  0  0  0
 12 17  1  0  0  0  0
 13 18  1  0  0  0  0
 14 19  1  0  0  0  0
 14 13  2  0  0  0  0
 15 10  1  0  0  0  0
 16 11  1  0  0  0  0
 20  2  1  6  0  0  0
 20 21  1  0  0  0  0
 21 22  1  0  0  0  0
 23 22  2  0  0  0  0
 24 25  1  0  0  0  0
 24 23  1  0  0  0  0
 25 20  1  0  0  0  0
M  END
>  <minimizedAffinity>
-4.70576334

$$$$
