
 OpenBabel03262522543D

 25 27  0  0  0  0  0  0  0  0999 V2000
   35.3320   29.0440   50.7780 C   0  0  0  0  0  0  0  0  0  0  0  0
   36.3050   29.8280   50.1430 C   0  0  0  0  0  0  0  0  0  0  0  0
   36.3320   29.9950   48.7680 C   0  0  0  0  0  0  0  0  0  0  0  0
   35.3590   29.3530   48.0610 N   0  0  0  0  0  0  0  0  0  0  0  0
   34.4300   28.6020   48.6870 C   0  0  0  0  0  0  0  0  0  0  0  0
   34.4140   28.4490   50.0210 N   0  0  0  0  0  0  0  0  0  0  0  0
   35.4090   28.9850   51.8560 H   0  0  0  0  0  0  0  0  0  0  0  0
   37.0650   30.3230   50.7460 H   0  0  0  0  0  0  0  0  0  0  0  0
   36.8600   32.5580   50.1370 Cl  0  0  0  0  0  0  0  0  0  0  0  0
   37.6580   32.0380   48.6680 C   0  0  0  0  0  0  0  0  0  0  0  0
   37.3440   30.8120   48.0940 C   0  0  0  0  0  0  0  0  0  0  0  0
   38.0060   30.4620   46.9440 C   0  0  0  0  0  0  0  0  0  0  0  0
   38.9540   31.2800   46.3540 C   0  0  0  0  0  0  0  0  0  0  0  0
   39.2340   32.5100   46.9770 C   0  0  0  0  0  0  0  0  0  0  0  0
   40.4450   33.5090   46.1880 Cl  0  0  0  0  0  0  0  0  0  0  0  0
   38.5960   32.9030   48.1310 C   0  0  0  0  0  0  0  0  0  0  0  0
   37.7310   29.5020   46.5320 H   0  0  0  0  0  0  0  0  0  0  0  0
   39.4430   30.9520   45.4460 H   0  0  0  0  0  0  0  0  0  0  0  0
   38.8350   33.8410   48.5710 H   0  0  0  0  0  0  0  0  0  0  0  0
   33.3740   27.9110   47.8920 C   0  0  0  0  0  0  0  0  0  0  0  0
   33.7540   26.5130   47.5270 C   0  0  0  0  0  0  0  0  0  0  0  0
   32.7620   26.0130   46.4990 C   0  0  0  0  0  0  0  0  0  0  0  0
   31.3690   26.0980   47.0330 C   0  0  0  0  0  0  0  0  0  0  0  0
   31.3370   26.5550   48.4810 C   0  0  0  0  0  0  0  0  0  0  0  0
   32.0530   27.8790   48.6270 C   0  0  0  0  0  0  0  0  0  0  0  0
  1  7  1  0  0  0  0
  2  8  1  0  0  0  0
  2  1  1  0  0  0  0
  3  2  2  0  0  0  0
  4  5  2  0  0  0  0
  4  3  1  0  0  0  0
  5  6  1  0  0  0  0
  6  1  2  0  0  0  0
 10  9  1  0  0  0  0
 11 10  2  0  0  0  0
 11  3  1  0  0  0  0
 12 11  1  0  0  0  0
 13 12  2  0  0  0  0
 13 14  1  0  0  0  0
 14 16  2  0  0  0  0
 15 14  1  0  0  0  0
 16 19  1  0  0  0  0
 16 10  1  0  0  0  0
 17 12  1  0  0  0  0
 18 13  1  0  0  0  0
 20 25  1  0  0  0  0
 20  5  1  0  0  0  0
 21 20  1  0  0  0  0
 22 23  1  0  0  0  0
 22 21  1  0  0  0  0
 23 24  1  0  0  0  0
 24 25  1  0  0  0  0
M  END
>  <minimizedAffinity>
-6.19935656

>  <minimizedRMSD>
2.48271585

$$$$
