
 OpenBabel03262520173D

 15 16  0  0  0  0  0  0  0  0999 V2000
   37.2850   30.1890   51.4430 C   0  0  0  0  0  0  0  0  0  0  0  0
   37.9920   30.6180   50.2980 C   0  0  0  0  0  0  0  0  0  0  0  0
   37.4830   30.2410   49.0470 C   0  0  0  0  0  0  0  0  0  0  0  0
   36.3440   29.4900   49.0070 N   0  0  0  0  0  0  0  0  0  0  0  0
   35.6980   29.0990   50.1220 C   0  0  0  0  0  0  0  0  0  0  0  0
   36.1670   29.4480   51.3420 N   0  0  0  0  0  0  0  0  0  0  0  0
   37.7000   30.4940   52.3990 H   0  0  0  0  0  0  0  0  0  0  0  0
   38.8830   31.2100   50.3870 H   0  0  0  0  0  0  0  0  0  0  0  0
   34.8070   28.5070   49.9970 H   0  0  0  0  0  0  0  0  0  0  0  0
   38.1870   30.6680   47.8360 C   0  0  0  0  0  0  0  0  0  0  0  0
   37.3600   30.8050   46.6090 C   0  0  0  0  0  0  0  0  0  0  0  0
   38.3270   30.8740   45.4420 C   0  0  0  0  0  0  0  0  0  0  0  0
   39.4980   31.7320   45.7470 C   0  0  0  0  0  0  0  0  0  0  0  0
   39.3600   32.6740   46.8950 C   0  0  0  0  0  0  0  0  0  0  0  0
   38.7320   32.0740   48.1220 C   0  0  0  0  0  0  0  0  0  0  0  0
  1  7  1  0  0  0  0
  2  8  1  0  0  0  0
  2  1  2  0  0  0  0
  3  2  1  0  0  0  0
  4  3  2  0  0  0  0
  4  5  1  0  0  0  0
  5  6  2  0  0  0  0
  6  1  1  0  0  0  0
  9  5  1  0  0  0  0
 10 15  1  0  0  0  0
 10  3  1  0  0  0  0
 11 10  1  0  0  0  0
 12 13  1  0  0  0  0
 12 11  1  0  0  0  0
 13 14  1  0  0  0  0
 14 15  1  0  0  0  0
M  END
>  <minimizedAffinity>
-4.92339611

>  <minimizedRMSD>
0.926277101

$$$$
