
 OpenBabel03272510273D

 42 46  0  0  1  0  0  0  0  0999 V2000
   36.2520   30.1820   46.9300 C   0  0  0  0  0  0  0  0  0  0  0  0
   37.0730   30.7730   47.8880 C   0  0  0  0  0  0  0  0  0  0  0  0
   38.0510   31.7030   47.5340 C   0  0  0  0  0  0  0  0  0  0  0  0
   38.1520   31.9970   46.1810 C   0  0  0  0  0  0  0  0  0  0  0  0
   39.0280   32.8670   45.5920 N   0  0  0  0  0  0  0  0  0  0  0  0
   38.7630   32.8240   44.2730 C   0  0  0  0  0  0  0  0  0  0  0  0
   37.7830   31.9840   44.0250 N   0  0  0  0  0  0  0  0  0  0  0  0
   37.3630   31.4370   45.1970 C   0  0  0  0  0  0  0  0  0  0  0  0
   36.3910   30.5080   45.5860 C   0  0  0  0  0  0  0  0  0  0  0  0
   35.5040   29.4710   47.1960 H   0  0  0  0  0  0  0  0  0  0  0  0
   38.6700   32.1460   48.2850 H   0  0  0  0  0  0  0  0  0  0  0  0
   39.7490   33.4400   46.0830 H   0  0  0  0  0  0  0  0  0  0  0  0
   35.7820   30.0790   44.8120 H   0  0  0  0  0  0  0  0  0  0  0  0
   37.4420   30.1340   51.5580 C   0  0  0  0  0  0  0  0  0  0  0  0
   37.7710   30.5930   50.3000 C   0  0  0  0  0  0  0  0  0  0  0  0
   36.8670   30.3610   49.2690 C   0  0  0  0  0  0  0  0  0  0  0  0
   35.7190   29.6970   49.5720 N   0  0  0  0  0  0  0  0  0  0  0  0
   35.4140   29.2560   50.8060 C   0  0  0  0  0  0  0  0  0  0  0  0
   36.2820   29.4810   51.7860 N   0  0  0  0  0  0  0  0  0  0  0  0
   38.1680   30.3310   52.3430 H   0  0  0  0  0  0  0  0  0  0  0  0
   38.6760   31.1160   50.0680 H   0  0  0  0  0  0  0  0  0  0  0  0
   34.4920   28.7370   50.9910 H   0  0  0  0  0  0  0  0  0  0  0  0
   39.4850   33.6060   43.3580 O   0  0  0  0  0  0  0  0  0  0  0  0
   39.6960   31.9110   41.8410 N   0  0  0  0  0  0  0  0  0  0  0  0
   39.2620   33.3180   41.9810 C   0  0  1  0  0  0  0  0  0  0  0  0
   37.8520   33.4080   41.6200 C   0  0  0  0  0  0  0  0  0  0  0  0
   37.7190   33.0920   40.2560 O   0  0  0  0  0  0  0  0  0  0  0  0
   38.2270   31.8820   39.8860 C   0  0  0  0  0  0  0  0  0  0  0  0
   39.6110   31.6270   40.4250 C   0  0  2  0  0  0  0  0  0  0  0  0
   40.7060   31.9290   42.1140 H   0  0  0  0  0  0  0  0  0  0  0  0
   39.8560   33.9700   41.3210 H   0  0  0  0  0  0  0  0  0  0  0  0
   37.0630   32.8860   42.0840 H   0  0  0  0  0  0  0  0  0  0  0  0
   37.5740   34.5070   41.6500 H   0  0  0  0  0  0  0  0  0  0  0  0
   38.2870   31.8830   38.7790 H   0  0  0  0  0  0  0  0  0  0  0  0
   37.5540   31.0230   40.1420 H   0  0  0  0  0  0  0  0  0  0  0  0
   40.3520   32.2710   39.9240 H   0  0  0  0  0  0  0  0  0  0  0  0
   39.9370   30.1570   40.2420 C   0  0  0  0  0  3  0  0  0  0  0  0
   39.6200   29.6710   38.8530 C   0  0  0  0  0  2  0  0  0  0  0  0
   40.7850   29.0100   38.1590 C   0  0  0  0  0  2  0  0  0  0  0  0
   41.3800   27.8840   38.9710 C   0  0  0  0  0  2  0  0  0  0  0  0
   41.5890   28.3710   40.3850 C   0  0  0  0  0  2  0  0  0  0  0  0
   41.3940   29.8700   40.4880 C   0  0  0  0  0  2  0  0  0  0  0  0
  1 10  1  0  0  0  0
  1  2  1  0  0  0  0
  2 16  1  0  0  0  0
  3  2  2  0  0  0  0
  3 11  1  0  0  0  0
  4  3  1  0  0  0  0
  5 12  1  0  0  0  0
  5  4  1  0  0  0  0
  6  5  1  0  0  0  0
  7  6  2  0  0  0  0
  7  8  1  0  0  0  0
  8  9  1  0  0  0  0
  8  4  2  0  0  0  0
  9  1  2  0  0  0  0
 13  9  1  0  0  0  0
 14 19  1  0  0  0  0
 14 20  1  0  0  0  0
 15 14  2  0  0  0  0
 16 17  2  0  0  0  0
 16 15  1  0  0  0  0
 17 18  1  0  0  0  0
 18 22  1  0  0  0  0
 18 19  2  0  0  0  0
 21 15  1  0  0  0  0
 23  6  1  0  0  0  0
 24 25  1  0  0  0  0
 24 30  1  0  0  0  0
 25 31  1  6  0  0  0
 25 23  1  0  0  0  0
 26 33  1  0  0  0  0
 26 25  1  0  0  0  0
 26 32  1  0  0  0  0
 27 26  1  0  0  0  0
 28 35  1  0  0  0  0
 28 27  1  0  0  0  0
 28 29  1  0  0  0  0
 29 36  1  6  0  0  0
 29 24  1  0  0  0  0
 34 28  1  0  0  0  0
 37 29  1  0  0  0  0
 37 42  1  0  0  0  0
 38 37  1  0  0  0  0
 39 38  1  0  0  0  0
 39 40  1  0  0  0  0
 40 41  1  0  0  0  0
 41 42  1  0  0  0  0
M  END
>  <minimizedAffinity>
-6.02142191

>  <minimizedRMSD>
0.218044356

$$$$
