
 OpenBabel03272509233D

 43 47  0  0  0  0  0  0  0  0999 V2000
   36.0300   28.9910   33.6930 C   0  0  0  0  0  0  0  0  0  0  0  0
   34.9660   29.8740   33.6740 C   0  0  0  0  0  0  0  0  0  0  0  0
   34.6470   30.3610   32.4030 C   0  0  0  0  0  0  0  0  0  0  0  0
   35.3480   29.9810   31.2600 C   0  0  0  0  0  0  0  0  0  0  0  0
   36.4260   29.0680   31.3890 C   0  0  0  0  0  0  0  0  0  0  0  0
   36.7560   28.5760   32.6360 C   0  0  0  0  0  0  0  0  0  0  0  0
   33.8170   31.0570   32.3430 H   0  0  0  0  0  0  0  0  0  0  0  0
   35.0960   30.3590   30.2910 H   0  0  0  0  0  0  0  0  0  0  0  0
   36.9760   28.7670   30.5050 H   0  0  0  0  0  0  0  0  0  0  0  0
   33.0280   29.6490   35.1510 C   0  0  0  0  0  0  0  0  0  0  0  0
   34.2370   30.2740   34.8380 C   0  0  0  0  0  0  0  0  0  0  0  0
   34.6840   31.2800   35.6980 C   0  0  0  0  0  0  0  0  0  0  0  0
   33.9450   31.6020   36.7750 N   0  0  0  0  0  0  0  0  0  0  0  0
   32.7640   30.9630   37.0440 C   0  0  0  0  0  0  0  0  0  0  0  0
   32.3150   29.9930   36.2320 N   0  0  0  0  0  0  0  0  0  0  0  0
   32.6190   28.8620   34.5310 H   0  0  0  0  0  0  0  0  0  0  0  0
   32.2840   31.3250   37.9360 H   0  0  0  0  0  0  0  0  0  0  0  0
   35.9640   31.9760   35.4110 C   0  0  0  0  0  0  0  0  0  0  0  0
   36.3780   32.2790   36.3790 H   0  0  0  0  0  0  0  0  0  0  0  0
   35.8480   32.8100   34.6930 H   0  0  0  0  0  0  0  0  0  0  0  0
   36.6520   31.1860   35.0230 H   0  0  0  0  0  0  0  0  0  0  0  0
   36.4280   28.4470   34.9180 O   0  0  0  0  0  0  0  0  0  0  0  0
   35.9980   27.6560   35.3390 H   0  0  0  0  0  0  0  0  0  0  0  0
   37.8130   27.6940   32.6820 O   0  0  0  0  0  0  0  0  0  0  0  0
   38.0630   25.6350   34.0620 C   0  0  0  0  0  0  0  0  0  0  0  0
   37.7550   26.3550   32.9260 C   0  0  0  0  0  0  0  0  0  0  0  0
   37.3020   25.6590   31.7980 C   0  0  0  0  0  0  0  0  0  0  0  0
   37.1690   24.2660   31.8340 C   0  0  0  0  0  0  0  0  0  0  0  0
   36.7700   23.3300   30.9410 N   0  0  0  0  0  0  0  0  0  0  0  0
   36.8280   22.1040   31.4920 C   0  0  0  0  0  0  0  0  0  0  0  0
   37.2770   22.2790   32.7680 N   0  0  0  0  0  0  0  0  0  0  0  0
   37.4870   23.5890   32.9850 C   0  0  0  0  0  0  0  0  0  0  0  0
   37.9300   24.2540   34.0970 C   0  0  0  0  0  0  0  0  0  0  0  0
   38.4050   26.2670   34.8810 H   0  0  0  0  0  0  0  0  0  0  0  0
   37.0250   26.0780   30.8460 H   0  0  0  0  0  0  0  0  0  0  0  0
   36.4590   23.5260   29.9570 H   0  0  0  0  0  0  0  0  0  0  0  0
   36.5890   21.1360   31.0840 H   0  0  0  0  0  0  0  0  0  0  0  0
   38.2940   23.6010   35.3740 C   0  0  0  0  0  3  0  0  0  0  0  0
   39.7850   23.2870   35.4080 C   0  0  0  0  0  2  0  0  0  0  0  0
   39.9970   22.3670   36.5880 C   0  0  0  0  0  2  0  0  0  0  0  0
   39.5760   23.0100   37.8880 C   0  0  0  0  0  2  0  0  0  0  0  0
   38.1800   23.5830   37.8090 C   0  0  0  0  0  2  0  0  0  0  0  0
   38.0200   24.4640   36.5880 C   0  0  0  0  0  2  0  0  0  0  0  0
  1 22  1  0  0  0  0
  2  1  1  0  0  0  0
  2 11  1  0  0  0  0
  3  2  2  0  0  0  0
  4  5  2  0  0  0  0
  4  3  1  0  0  0  0
  5  6  1  0  0  0  0
  6 24  1  0  0  0  0
  6  1  2  0  0  0  0
  7  3  1  0  0  0  0
  8  4  1  0  0  0  0
  9  5  1  0  0  0  0
 10 15  1  0  0  0  0
 11 10  2  0  0  0  0
 11 12  1  0  0  0  0
 12 13  2  0  0  0  0
 13 14  1  0  0  0  0
 14 17  1  0  0  0  0
 15 14  2  0  0  0  0
 16 10  1  0  0  0  0
 18 12  1  0  0  0  0
 18 19  1  0  0  0  0
 20 18  1  0  0  0  0
 21 18  1  0  0  0  0
 22 23  1  0  0  0  0
 24 26  1  0  0  0  0
 25 33  1  0  0  0  0
 25 34  1  0  0  0  0
 26 25  2  0  0  0  0
 27 28  2  0  0  0  0
 27 26  1  0  0  0  0
 28 32  1  0  0  0  0
 29 30  1  0  0  0  0
 29 28  1  0  0  0  0
 30 31  2  0  0  0  0
 31 32  1  0  0  0  0
 32 33  2  0  0  0  0
 33 38  1  0  0  0  0
 35 27  1  0  0  0  0
 36 29  1  0  0  0  0
 37 30  1  0  0  0  0
 38 39  1  0  0  0  0
 38 43  1  0  0  0  0
 39 40  1  0  0  0  0
 40 41  1  0  0  0  0
 42 41  1  0  0  0  0
 43 42  1  0  0  0  0
M  END
>  <minimizedAffinity>
-6.77641249

$$$$

 OpenBabel03272509233D

 43 47  0  0  0  0  0  0  0  0999 V2000
   36.3450   28.4730   33.6550 C   0  0  0  0  0  0  0  0  0  0  0  0
   35.7130   29.7010   33.5710 C   0  0  0  0  0  0  0  0  0  0  0  0
   35.6840   30.2440   32.2840 C   0  0  0  0  0  0  0  0  0  0  0  0
   36.2460   29.5950   31.1860 C   0  0  0  0  0  0  0  0  0  0  0  0
   36.8720   28.3370   31.3810 C   0  0  0  0  0  0  0  0  0  0  0  0
   36.9120   27.7840   32.6440 C   0  0  0  0  0  0  0  0  0  0  0  0
   35.1960   31.2060   32.1730 H   0  0  0  0  0  0  0  0  0  0  0  0
   36.2180   30.0190   30.2040 H   0  0  0  0  0  0  0  0  0  0  0  0
   37.3120   27.8250   30.5320 H   0  0  0  0  0  0  0  0  0  0  0  0
   35.9220   31.2000   35.4940 C   0  0  0  0  0  0  0  0  0  0  0  0
   35.1310   30.3790   34.6870 C   0  0  0  0  0  0  0  0  0  0  0  0
   33.7780   30.2610   35.0190 C   0  0  0  0  0  0  0  0  0  0  0  0
   33.3010   30.9300   36.0840 N   0  0  0  0  0  0  0  0  0  0  0  0
   34.1140   31.7240   36.8480 C   0  0  0  0  0  0  0  0  0  0  0  0
   35.4150   31.8530   36.5480 N   0  0  0  0  0  0  0  0  0  0  0  0
   36.9780   31.3390   35.2980 H   0  0  0  0  0  0  0  0  0  0  0  0
   33.5940   32.1950   37.6640 H   0  0  0  0  0  0  0  0  0  0  0  0
   32.8930   29.4020   34.1940 C   0  0  0  0  0  0  0  0  0  0  0  0
   31.8900   29.8390   34.2520 H   0  0  0  0  0  0  0  0  0  0  0  0
   32.9340   28.3350   34.4880 H   0  0  0  0  0  0  0  0  0  0  0  0
   33.2280   29.5540   33.1390 H   0  0  0  0  0  0  0  0  0  0  0  0
   36.4280   27.8460   34.9010 O   0  0  0  0  0  0  0  0  0  0  0  0
   35.6990   27.2940   35.2940 H   0  0  0  0  0  0  0  0  0  0  0  0
   37.5350   26.5620   32.7550 O   0  0  0  0  0  0  0  0  0  0  0  0
   39.1330   25.3730   34.2520 C   0  0  0  0  0  0  0  0  0  0  0  0
   38.7530   26.3080   33.3110 C   0  0  0  0  0  0  0  0  0  0  0  0
   39.7290   27.1710   32.7980 C   0  0  0  0  0  0  0  0  0  0  0  0
   41.0540   27.0800   33.2370 C   0  0  0  0  0  0  0  0  0  0  0  0
   42.1960   27.7470   32.9450 N   0  0  0  0  0  0  0  0  0  0  0  0
   43.2210   27.2540   33.6640 C   0  0  0  0  0  0  0  0  0  0  0  0
   42.7050   26.2490   34.4280 N   0  0  0  0  0  0  0  0  0  0  0  0
   41.3900   26.1360   34.1750 C   0  0  0  0  0  0  0  0  0  0  0  0
   40.4480   25.2830   34.6870 C   0  0  0  0  0  0  0  0  0  0  0  0
   38.3040   24.7510   34.5870 H   0  0  0  0  0  0  0  0  0  0  0  0
   39.5870   27.9470   32.0640 H   0  0  0  0  0  0  0  0  0  0  0  0
   42.2780   28.5370   32.2580 H   0  0  0  0  0  0  0  0  0  0  0  0
   44.2610   27.5330   33.6930 H   0  0  0  0  0  0  0  0  0  0  0  0
   40.7240   24.2390   35.6990 C   0  0  0  0  0  3  0  0  0  0  0  0
   39.4210   23.6810   36.2600 C   0  0  0  0  0  2  0  0  0  0  0  0
   39.7980   22.8670   37.4770 C   0  0  0  0  0  2  0  0  0  0  0  0
   40.7360   21.7360   37.1290 C   0  0  0  0  0  2  0  0  0  0  0  0
   41.9240   22.2120   36.3260 C   0  0  0  0  0  2  0  0  0  0  0  0
   41.4840   23.0520   35.1460 C   0  0  0  0  0  2  0  0  0  0  0  0
  1 22  1  0  0  0  0
  2  1  1  0  0  0  0
  2 11  1  0  0  0  0
  3  2  2  0  0  0  0
  4  5  2  0  0  0  0
  4  3  1  0  0  0  0
  5  6  1  0  0  0  0
  6 24  1  0  0  0  0
  6  1  2  0  0  0  0
  7  3  1  0  0  0  0
  8  4  1  0  0  0  0
  9  5  1  0  0  0  0
 10 15  1  0  0  0  0
 11 12  1  0  0  0  0
 11 10  2  0  0  0  0
 12 13  2  0  0  0  0
 13 14  1  0  0  0  0
 14 17  1  0  0  0  0
 15 14  2  0  0  0  0
 16 10  1  0  0  0  0
 18 19  1  0  0  0  0
 18 20  1  0  0  0  0
 18 12  1  0  0  0  0
 21 18  1  0  0  0  0
 22 23  1  0  0  0  0
 24 26  1  0  0  0  0
 25 34  1  0  0  0  0
 25 33  1  0  0  0  0
 26 25  2  0  0  0  0
 27 28  2  0  0  0  0
 27 26  1  0  0  0  0
 28 32  1  0  0  0  0
 29 28  1  0  0  0  0
 29 30  1  0  0  0  0
 30 37  1  0  0  0  0
 30 31  2  0  0  0  0
 32 31  1  0  0  0  0
 32 33  2  0  0  0  0
 33 38  1  0  0  0  0
 35 27  1  0  0  0  0
 36 29  1  0  0  0  0
 38 39  1  0  0  0  0
 39 40  1  0  0  0  0
 41 40  1  0  0  0  0
 42 41  1  0  0  0  0
 43 38  1  0  0  0  0
 43 42  1  0  0  0  0
M  END
>  <minimizedAffinity>
-6.67876625

$$$$

 OpenBabel03272509233D

 43 47  0  0  0  0  0  0  0  0999 V2000
   36.1410   25.0520   31.6890 C   0  0  0  0  0  0  0  0  0  0  0  0
   36.8210   23.9640   32.2080 C   0  0  0  0  0  0  0  0  0  0  0  0
   37.7430   24.2880   33.2060 C   0  0  0  0  0  0  0  0  0  0  0  0
   37.9520   25.5970   33.6350 C   0  0  0  0  0  0  0  0  0  0  0  0
   37.2010   26.6410   33.0370 C   0  0  0  0  0  0  0  0  0  0  0  0
   36.2850   26.3430   32.0490 C   0  0  0  0  0  0  0  0  0  0  0  0
   38.2980   23.4630   33.6410 H   0  0  0  0  0  0  0  0  0  0  0  0
   38.6600   25.8340   34.4020 H   0  0  0  0  0  0  0  0  0  0  0  0
   37.3570   27.6630   33.3650 H   0  0  0  0  0  0  0  0  0  0  0  0
   35.5520   21.8730   32.2900 C   0  0  0  0  0  0  0  0  0  0  0  0
   36.6190   22.6150   31.7780 C   0  0  0  0  0  0  0  0  0  0  0  0
   37.4520   21.9880   30.8480 C   0  0  0  0  0  0  0  0  0  0  0  0
   37.2000   20.7160   30.4900 N   0  0  0  0  0  0  0  0  0  0  0  0
   36.1420   20.0250   31.0190 C   0  0  0  0  0  0  0  0  0  0  0  0
   35.3280   20.6070   31.9130 N   0  0  0  0  0  0  0  0  0  0  0  0
   34.8660   22.2930   33.0140 H   0  0  0  0  0  0  0  0  0  0  0  0
   36.0650   19.0210   30.6400 H   0  0  0  0  0  0  0  0  0  0  0  0
   38.6000   22.7330   30.2710 C   0  0  0  0  0  0  0  0  0  0  0  0
   38.7620   22.3280   29.2660 H   0  0  0  0  0  0  0  0  0  0  0  0
   39.4990   22.7030   30.9160 H   0  0  0  0  0  0  0  0  0  0  0  0
   38.2330   23.7770   30.1200 H   0  0  0  0  0  0  0  0  0  0  0  0
   35.1960   24.8340   30.6830 O   0  0  0  0  0  0  0  0  0  0  0  0
   34.2560   24.5580   30.8550 H   0  0  0  0  0  0  0  0  0  0  0  0
   35.5950   27.4080   31.5160 O   0  0  0  0  0  0  0  0  0  0  0  0
   35.2240   29.3990   32.9670 C   0  0  0  0  0  0  0  0  0  0  0  0
   35.7080   28.7190   31.8680 C   0  0  0  0  0  0  0  0  0  0  0  0
   36.4470   29.4320   30.9160 C   0  0  0  0  0  0  0  0  0  0  0  0
   36.6820   30.8010   31.0850 C   0  0  0  0  0  0  0  0  0  0  0  0
   37.3380   31.7450   30.3680 N   0  0  0  0  0  0  0  0  0  0  0  0
   37.2630   32.9370   30.9870 C   0  0  0  0  0  0  0  0  0  0  0  0
   36.5400   32.7330   32.1250 N   0  0  0  0  0  0  0  0  0  0  0  0
   36.1820   31.4390   32.1930 C   0  0  0  0  0  0  0  0  0  0  0  0
   35.4580   30.7570   33.1340 C   0  0  0  0  0  0  0  0  0  0  0  0
   34.6650   28.7570   33.6470 H   0  0  0  0  0  0  0  0  0  0  0  0
   36.8860   29.0440   30.0120 H   0  0  0  0  0  0  0  0  0  0  0  0
   37.8350   31.5770   29.4580 H   0  0  0  0  0  0  0  0  0  0  0  0
   37.6620   33.9000   30.7130 H   0  0  0  0  0  0  0  0  0  0  0  0
   34.8850   31.3660   34.3540 C   0  0  0  0  0  3  0  0  0  0  0  0
   33.6950   30.5510   34.8500 C   0  0  0  0  0  2  0  0  0  0  0  0
   33.0030   31.4020   35.8900 C   0  0  0  0  0  2  0  0  0  0  0  0
   33.9180   31.7350   37.0450 C   0  0  0  0  0  2  0  0  0  0  0  0
   35.2370   32.3030   36.5770 C   0  0  0  0  0  2  0  0  0  0  0  0
   35.8600   31.4280   35.5100 C   0  0  0  0  0  2  0  0  0  0  0  0
  1  6  2  0  0  0  0
  1  2  1  0  0  0  0
  2  3  2  0  0  0  0
  3  4  1  0  0  0  0
  3  7  1  0  0  0  0
  4  8  1  0  0  0  0
  5  9  1  0  0  0  0
  5  4  2  0  0  0  0
  6  5  1  0  0  0  0
 10 16  1  0  0  0  0
 11  2  1  0  0  0  0
 11 10  2  0  0  0  0
 12 11  1  0  0  0  0
 13 12  2  0  0  0  0
 13 14  1  0  0  0  0
 14 15  2  0  0  0  0
 15 10  1  0  0  0  0
 17 14  1  0  0  0  0
 18 12  1  0  0  0  0
 18 20  1  0  0  0  0
 19 18  1  0  0  0  0
 21 18  1  0  0  0  0
 22 23  1  0  0  0  0
 22  1  1  0  0  0  0
 24 26  1  0  0  0  0
 24  6  1  0  0  0  0
 25 33  1  0  0  0  0
 25 34  1  0  0  0  0
 26 25  2  0  0  0  0
 27 28  2  0  0  0  0
 27 26  1  0  0  0  0
 28 32  1  0  0  0  0
 29 30  1  0  0  0  0
 29 28  1  0  0  0  0
 30 31  2  0  0  0  0
 31 32  1  0  0  0  0
 32 33  2  0  0  0  0
 33 38  1  0  0  0  0
 35 27  1  0  0  0  0
 36 29  1  0  0  0  0
 37 30  1  0  0  0  0
 38 39  1  0  0  0  0
 38 43  1  0  0  0  0
 39 40  1  0  0  0  0
 40 41  1  0  0  0  0
 42 41  1  0  0  0  0
 43 42  1  0  0  0  0
M  END
>  <minimizedAffinity>
-6.62717485

$$$$

 OpenBabel03272509233D

 43 47  0  0  0  0  0  0  0  0999 V2000
   36.0090   28.3930   32.2560 C   0  0  0  0  0  0  0  0  0  0  0  0
   35.3840   29.4800   32.8410 C   0  0  0  0  0  0  0  0  0  0  0  0
   35.6320   29.6170   34.2080 C   0  0  0  0  0  0  0  0  0  0  0  0
   36.4430   28.7300   34.9140 C   0  0  0  0  0  0  0  0  0  0  0  0
   37.0390   27.6460   34.2180 C   0  0  0  0  0  0  0  0  0  0  0  0
   36.8050   27.4930   32.8670 C   0  0  0  0  0  0  0  0  0  0  0  0
   35.1610   30.4580   34.7070 H   0  0  0  0  0  0  0  0  0  0  0  0
   36.6280   28.8440   35.9610 H   0  0  0  0  0  0  0  0  0  0  0  0
   37.6710   26.9510   34.7590 H   0  0  0  0  0  0  0  0  0  0  0  0
   33.1610   30.2490   32.1650 C   0  0  0  0  0  0  0  0  0  0  0  0
   34.5490   30.3990   32.1310 C   0  0  0  0  0  0  0  0  0  0  0  0
   35.0640   31.4660   31.3890 C   0  0  0  0  0  0  0  0  0  0  0  0
   34.2170   32.2910   30.7480 N   0  0  0  0  0  0  0  0  0  0  0  0
   32.8610   32.1060   30.8080 C   0  0  0  0  0  0  0  0  0  0  0  0
   32.3440   31.0890   31.5150 N   0  0  0  0  0  0  0  0  0  0  0  0
   32.6910   29.4470   32.7190 H   0  0  0  0  0  0  0  0  0  0  0  0
   32.3120   32.8420   30.2480 H   0  0  0  0  0  0  0  0  0  0  0  0
   36.5320   31.6710   31.3210 C   0  0  0  0  0  0  0  0  0  0  0  0
   36.6920   32.7470   31.1950 H   0  0  0  0  0  0  0  0  0  0  0  0
   37.0160   31.0530   30.5400 H   0  0  0  0  0  0  0  0  0  0  0  0
   36.9160   31.4260   32.3410 H   0  0  0  0  0  0  0  0  0  0  0  0
   35.8230   28.1680   30.8890 O   0  0  0  0  0  0  0  0  0  0  0  0
   36.3450   28.6220   30.1760 H   0  0  0  0  0  0  0  0  0  0  0  0
   37.4170   26.4180   32.2610 O   0  0  0  0  0  0  0  0  0  0  0  0
   38.0520   24.6140   33.8570 C   0  0  0  0  0  0  0  0  0  0  0  0
   37.4700   25.1370   32.7200 C   0  0  0  0  0  0  0  0  0  0  0  0
   36.8070   24.2640   31.8490 C   0  0  0  0  0  0  0  0  0  0  0  0
   36.7430   22.8950   32.1340 C   0  0  0  0  0  0  0  0  0  0  0  0
   36.1940   21.8240   31.5140 N   0  0  0  0  0  0  0  0  0  0  0  0
   36.4240   20.7050   32.2250 C   0  0  0  0  0  0  0  0  0  0  0  0
   37.1370   21.0880   33.3220 N   0  0  0  0  0  0  0  0  0  0  0  0
   37.3360   22.4160   33.2760 C   0  0  0  0  0  0  0  0  0  0  0  0
   37.9880   23.2570   34.1390 C   0  0  0  0  0  0  0  0  0  0  0  0
   38.5410   25.3730   34.4670 H   0  0  0  0  0  0  0  0  0  0  0  0
   36.3080   24.5200   30.9290 H   0  0  0  0  0  0  0  0  0  0  0  0
   35.6640   21.8540   30.6080 H   0  0  0  0  0  0  0  0  0  0  0  0
   36.1400   19.6820   32.0400 H   0  0  0  0  0  0  0  0  0  0  0  0
   38.6520   22.8240   35.3880 C   0  0  0  0  0  3  0  0  0  0  0  0
   40.1480   22.6340   35.1590 C   0  0  0  0  0  2  0  0  0  0  0  0
   40.6740   21.9100   36.3770 C   0  0  0  0  0  2  0  0  0  0  0  0
   40.4420   22.6990   37.6450 C   0  0  0  0  0  2  0  0  0  0  0  0
   39.0050   23.1450   37.7780 C   0  0  0  0  0  2  0  0  0  0  0  0
   38.5250   23.8270   36.5150 C   0  0  0  0  0  2  0  0  0  0  0  0
  1  2  2  0  0  0  0
  1  6  1  0  0  0  0
  2  3  1  0  0  0  0
  3  7  1  0  0  0  0
  3  4  2  0  0  0  0
  4  8  1  0  0  0  0
  5  9  1  0  0  0  0
  5  4  1  0  0  0  0
  6  5  2  0  0  0  0
 10 16  1  0  0  0  0
 11 10  1  0  0  0  0
 11  2  1  0  0  0  0
 12 11  2  0  0  0  0
 13 14  2  0  0  0  0
 13 12  1  0  0  0  0
 14 15  1  0  0  0  0
 15 10  2  0  0  0  0
 17 14  1  0  0  0  0
 18 12  1  0  0  0  0
 18 21  1  0  0  0  0
 19 18  1  0  0  0  0
 20 18  1  0  0  0  0
 22  1  1  0  0  0  0
 23 22  1  0  0  0  0
 24 26  1  0  0  0  0
 24  6  1  0  0  0  0
 25 33  1  0  0  0  0
 25 34  1  0  0  0  0
 26 25  2  0  0  0  0
 27 28  2  0  0  0  0
 27 26  1  0  0  0  0
 28 32  1  0  0  0  0
 29 28  1  0  0  0  0
 29 30  1  0  0  0  0
 30 31  2  0  0  0  0
 32 31  1  0  0  0  0
 32 33  2  0  0  0  0
 33 38  1  0  0  0  0
 35 27  1  0  0  0  0
 36 29  1  0  0  0  0
 37 30  1  0  0  0  0
 38 43  1  0  0  0  0
 39 38  1  0  0  0  0
 39 40  1  0  0  0  0
 40 41  1  0  0  0  0
 41 42  1  0  0  0  0
 43 42  1  0  0  0  0
M  END
>  <minimizedAffinity>
-6.34584522

$$$$

 OpenBabel03272509233D

 43 47  0  0  0  0  0  0  0  0999 V2000
   37.9410   26.0980   33.1570 C   0  0  0  0  0  0  0  0  0  0  0  0
   37.9320   24.7470   33.4550 C   0  0  0  0  0  0  0  0  0  0  0  0
   37.1050   23.9830   32.6280 C   0  0  0  0  0  0  0  0  0  0  0  0
   36.3580   24.5440   31.5940 C   0  0  0  0  0  0  0  0  0  0  0  0
   36.4390   25.9430   31.3720 C   0  0  0  0  0  0  0  0  0  0  0  0
   37.2500   26.7150   32.1770 C   0  0  0  0  0  0  0  0  0  0  0  0
   37.0690   22.9170   32.8270 H   0  0  0  0  0  0  0  0  0  0  0  0
   35.7280   23.9500   30.9650 H   0  0  0  0  0  0  0  0  0  0  0  0
   35.8610   26.3880   30.5690 H   0  0  0  0  0  0  0  0  0  0  0  0
   38.1310   24.0220   35.7840 C   0  0  0  0  0  0  0  0  0  0  0  0
   38.6930   24.1560   34.5120 C   0  0  0  0  0  0  0  0  0  0  0  0
   39.9990   23.6940   34.3320 C   0  0  0  0  0  0  0  0  0  0  0  0
   40.6540   23.1490   35.3740 N   0  0  0  0  0  0  0  0  0  0  0  0
   40.0640   23.0380   36.6050 C   0  0  0  0  0  0  0  0  0  0  0  0
   38.8100   23.4740   36.8000 N   0  0  0  0  0  0  0  0  0  0  0  0
   37.1250   24.3580   35.9970 H   0  0  0  0  0  0  0  0  0  0  0  0
   40.7060   22.5820   37.3380 H   0  0  0  0  0  0  0  0  0  0  0  0
   40.6430   23.8120   33.0000 C   0  0  0  0  0  0  0  0  0  0  0  0
   41.3510   22.9800   32.9200 H   0  0  0  0  0  0  0  0  0  0  0  0
   41.1000   24.8060   32.8310 H   0  0  0  0  0  0  0  0  0  0  0  0
   39.8360   23.5950   32.2590 H   0  0  0  0  0  0  0  0  0  0  0  0
   38.7380   26.9490   33.9280 O   0  0  0  0  0  0  0  0  0  0  0  0
   39.7090   27.0930   33.7710 H   0  0  0  0  0  0  0  0  0  0  0  0
   37.2770   28.0640   31.9020 O   0  0  0  0  0  0  0  0  0  0  0  0
   35.8520   29.3360   33.5000 C   0  0  0  0  0  0  0  0  0  0  0  0
   36.3480   28.9940   32.2590 C   0  0  0  0  0  0  0  0  0  0  0  0
   35.8630   29.6760   31.1370 C   0  0  0  0  0  0  0  0  0  0  0  0
   34.8980   30.6780   31.2820 C   0  0  0  0  0  0  0  0  0  0  0  0
   34.2460   31.4970   30.4220 N   0  0  0  0  0  0  0  0  0  0  0  0
   33.3970   32.2980   31.0920 C   0  0  0  0  0  0  0  0  0  0  0  0
   33.5220   31.9690   32.4100 N   0  0  0  0  0  0  0  0  0  0  0  0
   34.4300   30.9870   32.5350 C   0  0  0  0  0  0  0  0  0  0  0  0
   34.8950   30.3310   33.6440 C   0  0  0  0  0  0  0  0  0  0  0  0
   36.2920   28.7500   34.3060 H   0  0  0  0  0  0  0  0  0  0  0  0
   36.1520   29.5230   30.1100 H   0  0  0  0  0  0  0  0  0  0  0  0
   34.3800   31.5110   29.3800 H   0  0  0  0  0  0  0  0  0  0  0  0
   32.7250   33.0630   30.7410 H   0  0  0  0  0  0  0  0  0  0  0  0
   34.4450   30.6010   35.0270 C   0  0  0  0  0  3  0  0  0  0  0  0
   34.9380   31.9670   35.4910 C   0  0  0  0  0  2  0  0  0  0  0  0
   34.7000   32.0190   36.9830 C   0  0  0  0  0  2  0  0  0  0  0  0
   33.2380   31.8540   37.3260 C   0  0  0  0  0  2  0  0  0  0  0  0
   32.6330   30.6420   36.6580 C   0  0  0  0  0  2  0  0  0  0  0  0
   32.9380   30.6280   35.1750 C   0  0  0  0  0  2  0  0  0  0  0  0
  1  2  1  0  0  0  0
  1 22  1  0  0  0  0
  2 11  1  0  0  0  0
  3  7  1  0  0  0  0
  3  2  2  0  0  0  0
  4  3  1  0  0  0  0
  5  4  2  0  0  0  0
  5  6  1  0  0  0  0
  6  1  2  0  0  0  0
  8  4  1  0  0  0  0
  9  5  1  0  0  0  0
 10 16  1  0  0  0  0
 10 15  1  0  0  0  0
 11 10  2  0  0  0  0
 12 11  1  0  0  0  0
 12 13  2  0  0  0  0
 13 14  1  0  0  0  0
 14 15  2  0  0  0  0
 14 17  1  0  0  0  0
 18 12  1  0  0  0  0
 19 18  1  0  0  0  0
 20 18  1  0  0  0  0
 21 18  1  0  0  0  0
 23 22  1  0  0  0  0
 24  6  1  0  0  0  0
 24 26  1  0  0  0  0
 25 33  1  0  0  0  0
 25 34  1  0  0  0  0
 26 25  2  0  0  0  0
 27 28  2  0  0  0  0
 27 26  1  0  0  0  0
 28 32  1  0  0  0  0
 29 30  1  0  0  0  0
 29 28  1  0  0  0  0
 30 31  2  0  0  0  0
 31 32  1  0  0  0  0
 32 33  2  0  0  0  0
 33 38  1  0  0  0  0
 35 27  1  0  0  0  0
 36 29  1  0  0  0  0
 37 30  1  0  0  0  0
 38 43  1  0  0  0  0
 38 39  1  0  0  0  0
 39 40  1  0  0  0  0
 40 41  1  0  0  0  0
 42 41  1  0  0  0  0
 43 42  1  0  0  0  0
M  END
>  <minimizedAffinity>
-6.33203745

$$$$

 OpenBabel03272509233D

 43 47  0  0  0  0  0  0  0  0999 V2000
   37.5230   24.8650   32.0090 C   0  0  0  0  0  0  0  0  0  0  0  0
   37.0640   23.6740   31.4760 C   0  0  0  0  0  0  0  0  0  0  0  0
   35.7530   23.7290   30.9940 C   0  0  0  0  0  0  0  0  0  0  0  0
   34.9840   24.8900   31.0510 C   0  0  0  0  0  0  0  0  0  0  0  0
   35.5510   26.0590   31.6190 C   0  0  0  0  0  0  0  0  0  0  0  0
   36.8440   26.0260   32.1010 C   0  0  0  0  0  0  0  0  0  0  0  0
   35.3540   22.8150   30.5660 H   0  0  0  0  0  0  0  0  0  0  0  0
   33.9810   24.9210   30.6790 H   0  0  0  0  0  0  0  0  0  0  0  0
   34.9600   26.9670   31.6670 H   0  0  0  0  0  0  0  0  0  0  0  0
   38.6540   22.2310   30.3020 C   0  0  0  0  0  0  0  0  0  0  0  0
   37.8400   22.4750   31.4110 C   0  0  0  0  0  0  0  0  0  0  0  0
   37.8270   21.5130   32.4240 C   0  0  0  0  0  0  0  0  0  0  0  0
   38.5840   20.4080   32.2940 N   0  0  0  0  0  0  0  0  0  0  0  0
   39.3680   20.2100   31.1890 C   0  0  0  0  0  0  0  0  0  0  0  0
   39.3970   21.1210   30.2040 N   0  0  0  0  0  0  0  0  0  0  0  0
   38.7150   22.9310   29.4790 H   0  0  0  0  0  0  0  0  0  0  0  0
   39.9170   19.2850   31.2240 H   0  0  0  0  0  0  0  0  0  0  0  0
   36.9790   21.7230   33.6250 C   0  0  0  0  0  0  0  0  0  0  0  0
   37.4820   21.2150   34.4550 H   0  0  0  0  0  0  0  0  0  0  0  0
   35.9310   21.4010   33.4720 H   0  0  0  0  0  0  0  0  0  0  0  0
   37.0490   22.8140   33.8520 H   0  0  0  0  0  0  0  0  0  0  0  0
   38.8230   24.9140   32.5190 O   0  0  0  0  0  0  0  0  0  0  0  0
   39.6330   25.0610   31.9610 H   0  0  0  0  0  0  0  0  0  0  0  0
   37.3250   27.1990   32.6370 O   0  0  0  0  0  0  0  0  0  0  0  0
   36.1040   29.1550   33.5790 C   0  0  0  0  0  0  0  0  0  0  0  0
   36.7350   28.4260   32.5920 C   0  0  0  0  0  0  0  0  0  0  0  0
   36.8210   28.9780   31.3080 C   0  0  0  0  0  0  0  0  0  0  0  0
   36.2760   30.2390   31.0430 C   0  0  0  0  0  0  0  0  0  0  0  0
   36.1970   31.0230   29.9420 N   0  0  0  0  0  0  0  0  0  0  0  0
   35.5540   32.1700   30.2320 C   0  0  0  0  0  0  0  0  0  0  0  0
   35.2210   32.0990   31.5520 N   0  0  0  0  0  0  0  0  0  0  0  0
   35.6550   30.9300   32.0530 C   0  0  0  0  0  0  0  0  0  0  0  0
   35.5630   30.4060   33.3150 C   0  0  0  0  0  0  0  0  0  0  0  0
   36.0900   28.6410   34.5390 H   0  0  0  0  0  0  0  0  0  0  0  0
   37.2800   28.5330   30.4410 H   0  0  0  0  0  0  0  0  0  0  0  0
   36.5800   30.7790   28.9950 H   0  0  0  0  0  0  0  0  0  0  0  0
   35.3100   33.0170   29.6120 H   0  0  0  0  0  0  0  0  0  0  0  0
   34.9120   31.0830   34.4590 C   0  0  0  0  0  3  0  0  0  0  0  0
   33.7030   30.2850   34.9340 C   0  0  0  0  0  2  0  0  0  0  0  0
   32.9430   31.1900   35.8760 C   0  0  0  0  0  2  0  0  0  0  0  0
   33.7840   31.6060   37.0600 C   0  0  0  0  0  2  0  0  0  0  0  0
   35.1230   32.1620   36.6340 C   0  0  0  0  0  2  0  0  0  0  0  0
   35.8170   31.2300   35.6640 C   0  0  0  0  0  2  0  0  0  0  0  0
  1  6  1  0  0  0  0
  1 22  1  0  0  0  0
  2  1  2  0  0  0  0
  3  4  2  0  0  0  0
  3  2  1  0  0  0  0
  4  5  1  0  0  0  0
  5  9  1  0  0  0  0
  5  6  2  0  0  0  0
  6 24  1  0  0  0  0
  7  3  1  0  0  0  0
  8  4  1  0  0  0  0
 10 11  1  0  0  0  0
 11  2  1  0  0  0  0
 11 12  2  0  0  0  0
 12 18  1  0  0  0  0
 13 12  1  0  0  0  0
 14 17  1  0  0  0  0
 14 13  2  0  0  0  0
 15 10  2  0  0  0  0
 15 14  1  0  0  0  0
 16 10  1  0  0  0  0
 18 21  1  0  0  0  0
 18 19  1  0  0  0  0
 20 18  1  0  0  0  0
 23 22  1  0  0  0  0
 25 34  1  0  0  0  0
 26 24  1  0  0  0  0
 26 25  2  0  0  0  0
 27 26  1  0  0  0  0
 28 27  2  0  0  0  0
 28 32  1  0  0  0  0
 29 30  1  0  0  0  0
 29 28  1  0  0  0  0
 30 31  2  0  0  0  0
 31 32  1  0  0  0  0
 32 33  2  0  0  0  0
 33 25  1  0  0  0  0
 33 38  1  0  0  0  0
 35 27  1  0  0  0  0
 36 29  1  0  0  0  0
 37 30  1  0  0  0  0
 38 39  1  0  0  0  0
 38 43  1  0  0  0  0
 39 40  1  0  0  0  0
 40 41  1  0  0  0  0
 42 41  1  0  0  0  0
 43 42  1  0  0  0  0
M  END
>  <minimizedAffinity>
-6.32948542

$$$$

 OpenBabel03272509233D

 43 47  0  0  0  0  0  0  0  0999 V2000
   35.9680   28.9640   33.6600 C   0  0  0  0  0  0  0  0  0  0  0  0
   34.8930   29.8340   33.6460 C   0  0  0  0  0  0  0  0  0  0  0  0
   34.5940   30.3560   32.3850 C   0  0  0  0  0  0  0  0  0  0  0  0
   35.3230   30.0210   31.2450 C   0  0  0  0  0  0  0  0  0  0  0  0
   36.4100   29.1180   31.3690 C   0  0  0  0  0  0  0  0  0  0  0  0
   36.7220   28.5920   32.6060 C   0  0  0  0  0  0  0  0  0  0  0  0
   33.7550   31.0420   32.3290 H   0  0  0  0  0  0  0  0  0  0  0  0
   35.0850   30.4260   30.2840 H   0  0  0  0  0  0  0  0  0  0  0  0
   36.9830   28.8520   30.4880 H   0  0  0  0  0  0  0  0  0  0  0  0
   32.9350   29.5270   35.0830 C   0  0  0  0  0  0  0  0  0  0  0  0
   34.1340   30.1870   34.8060 C   0  0  0  0  0  0  0  0  0  0  0  0
   34.5430   31.1820   35.6990 C   0  0  0  0  0  0  0  0  0  0  0  0
   33.7780   31.4600   36.7700 N   0  0  0  0  0  0  0  0  0  0  0  0
   32.6080   30.7870   37.0020 C   0  0  0  0  0  0  0  0  0  0  0  0
   32.1960   29.8280   36.1590 N   0  0  0  0  0  0  0  0  0  0  0  0
   32.5560   28.7460   34.4360 H   0  0  0  0  0  0  0  0  0  0  0  0
   32.1050   31.1160   37.8940 H   0  0  0  0  0  0  0  0  0  0  0  0
   35.8110   31.9140   35.4520 C   0  0  0  0  0  0  0  0  0  0  0  0
   36.2010   32.2030   36.4340 H   0  0  0  0  0  0  0  0  0  0  0  0
   35.6870   32.7630   34.7520 H   0  0  0  0  0  0  0  0  0  0  0  0
   36.5240   31.1510   35.0560 H   0  0  0  0  0  0  0  0  0  0  0  0
   36.3490   28.3880   34.8760 O   0  0  0  0  0  0  0  0  0  0  0  0
   35.9210   27.5790   35.2640 H   0  0  0  0  0  0  0  0  0  0  0  0
   37.7890   27.7230   32.6480 O   0  0  0  0  0  0  0  0  0  0  0  0
   37.4280   25.2950   32.2240 C   0  0  0  0  0  0  0  0  0  0  0  0
   37.9250   26.5550   31.9600 C   0  0  0  0  0  0  0  0  0  0  0  0
   38.7040   26.7360   30.8110 C   0  0  0  0  0  0  0  0  0  0  0  0
   38.9680   25.6580   29.9590 C   0  0  0  0  0  0  0  0  0  0  0  0
   39.6650   25.5110   28.8070 N   0  0  0  0  0  0  0  0  0  0  0  0
   39.6030   24.2340   28.3850 C   0  0  0  0  0  0  0  0  0  0  0  0
   38.8460   23.5650   29.3000 N   0  0  0  0  0  0  0  0  0  0  0  0
   38.4560   24.4210   30.2590 C   0  0  0  0  0  0  0  0  0  0  0  0
   37.6900   24.2260   31.3780 C   0  0  0  0  0  0  0  0  0  0  0  0
   36.8350   25.2580   33.1370 H   0  0  0  0  0  0  0  0  0  0  0  0
   39.1580   27.6530   30.4740 H   0  0  0  0  0  0  0  0  0  0  0  0
   40.1820   26.2770   28.3090 H   0  0  0  0  0  0  0  0  0  0  0  0
   40.0310   23.7570   27.5190 H   0  0  0  0  0  0  0  0  0  0  0  0
   37.1010   22.9280   31.7750 C   0  0  0  0  0  3  0  0  0  0  0  0
   37.3760   22.6440   33.2470 C   0  0  0  0  0  2  0  0  0  0  0  0
   37.0150   21.1940   33.4740 C   0  0  0  0  0  2  0  0  0  0  0  0
   35.5640   20.9180   33.1570 C   0  0  0  0  0  2  0  0  0  0  0  0
   35.1750   21.4330   31.7910 C   0  0  0  0  0  2  0  0  0  0  0  0
   35.5970   22.8770   31.6120 C   0  0  0  0  0  2  0  0  0  0  0  0
  1 22  1  0  0  0  0
  2  1  1  0  0  0  0
  2 11  1  0  0  0  0
  3  2  2  0  0  0  0
  4  5  2  0  0  0  0
  4  3  1  0  0  0  0
  5  6  1  0  0  0  0
  6 24  1  0  0  0  0
  6  1  2  0  0  0  0
  7  3  1  0  0  0  0
  8  4  1  0  0  0  0
  9  5  1  0  0  0  0
 10 15  1  0  0  0  0
 11 10  2  0  0  0  0
 11 12  1  0  0  0  0
 12 13  2  0  0  0  0
 13 14  1  0  0  0  0
 14 17  1  0  0  0  0
 15 14  2  0  0  0  0
 16 10  1  0  0  0  0
 18 12  1  0  0  0  0
 18 19  1  0  0  0  0
 20 18  1  0  0  0  0
 21 18  1  0  0  0  0
 22 23  1  0  0  0  0
 25 34  1  0  0  0  0
 26 25  1  0  0  0  0
 26 24  1  0  0  0  0
 27 26  2  0  0  0  0
 28 32  2  0  0  0  0
 28 27  1  0  0  0  0
 29 28  1  0  0  0  0
 30 29  1  0  0  0  0
 30 31  2  0  0  0  0
 31 32  1  0  0  0  0
 32 33  1  0  0  0  0
 33 38  1  0  0  0  0
 33 25  2  0  0  0  0
 35 27  1  0  0  0  0
 36 29  1  0  0  0  0
 37 30  1  0  0  0  0
 38 39  1  0  0  0  0
 39 40  1  0  0  0  0
 41 40  1  0  0  0  0
 42 41  1  0  0  0  0
 43 38  1  0  0  0  0
 43 42  1  0  0  0  0
M  END
>  <minimizedAffinity>
-6.31286097

$$$$

 OpenBabel03272509233D

 43 47  0  0  0  0  0  0  0  0999 V2000
   35.9910   28.4270   32.2520 C   0  0  0  0  0  0  0  0  0  0  0  0
   35.3190   29.4770   32.8530 C   0  0  0  0  0  0  0  0  0  0  0  0
   35.5680   29.6080   34.2210 C   0  0  0  0  0  0  0  0  0  0  0  0
   36.4230   28.7500   34.9110 C   0  0  0  0  0  0  0  0  0  0  0  0
   37.0630   27.7040   34.1990 C   0  0  0  0  0  0  0  0  0  0  0  0
   36.8300   27.5570   32.8470 C   0  0  0  0  0  0  0  0  0  0  0  0
   35.0620   30.4200   34.7320 H   0  0  0  0  0  0  0  0  0  0  0  0
   36.6080   28.8600   35.9600 H   0  0  0  0  0  0  0  0  0  0  0  0
   37.7300   27.0320   34.7280 H   0  0  0  0  0  0  0  0  0  0  0  0
   34.9630   31.4310   31.4230 C   0  0  0  0  0  0  0  0  0  0  0  0
   34.4390   30.3660   32.1590 C   0  0  0  0  0  0  0  0  0  0  0  0
   33.0500   30.2170   32.1790 C   0  0  0  0  0  0  0  0  0  0  0  0
   32.2850   31.0930   31.5010 N   0  0  0  0  0  0  0  0  0  0  0  0
   32.8410   32.1240   30.7930 C   0  0  0  0  0  0  0  0  0  0  0  0
   34.1730   32.2850   30.7590 N   0  0  0  0  0  0  0  0  0  0  0  0
   36.0290   31.6080   31.3620 H   0  0  0  0  0  0  0  0  0  0  0  0
   32.1080   32.7400   30.3030 H   0  0  0  0  0  0  0  0  0  0  0  0
   32.4410   29.1010   32.9450 C   0  0  0  0  0  0  0  0  0  0  0  0
   31.5090   28.8420   32.4320 H   0  0  0  0  0  0  0  0  0  0  0  0
   32.3100   29.3380   34.0190 H   0  0  0  0  0  0  0  0  0  0  0  0
   33.1230   28.2290   32.7940 H   0  0  0  0  0  0  0  0  0  0  0  0
   35.8070   28.2110   30.8830 O   0  0  0  0  0  0  0  0  0  0  0  0
   36.3040   28.6970   30.1730 H   0  0  0  0  0  0  0  0  0  0  0  0
   37.4870   26.5190   32.2250 O   0  0  0  0  0  0  0  0  0  0  0  0
   37.1570   24.0570   32.4150 C   0  0  0  0  0  0  0  0  0  0  0  0
   37.7230   25.2760   32.7290 C   0  0  0  0  0  0  0  0  0  0  0  0
   38.7110   25.3160   33.7200 C   0  0  0  0  0  0  0  0  0  0  0  0
   39.1070   24.1420   34.3710 C   0  0  0  0  0  0  0  0  0  0  0  0
   40.0070   23.8550   35.3420 N   0  0  0  0  0  0  0  0  0  0  0  0
   39.9970   22.5370   35.6120 C   0  0  0  0  0  0  0  0  0  0  0  0
   39.0630   21.9840   34.7860 N   0  0  0  0  0  0  0  0  0  0  0  0
   38.5180   22.9500   34.0280 C   0  0  0  0  0  0  0  0  0  0  0  0
   37.5500   22.8930   33.0610 C   0  0  0  0  0  0  0  0  0  0  0  0
   36.4020   24.1320   31.6340 H   0  0  0  0  0  0  0  0  0  0  0  0
   39.2420   26.1850   34.0720 H   0  0  0  0  0  0  0  0  0  0  0  0
   40.6260   24.5560   35.8190 H   0  0  0  0  0  0  0  0  0  0  0  0
   40.5710   21.9580   36.3160 H   0  0  0  0  0  0  0  0  0  0  0  0
   36.8660   21.6530   32.6320 C   0  0  0  0  0  3  0  0  0  0  0  0
   35.9500   21.1400   33.7380 C   0  0  0  0  0  2  0  0  0  0  0  0
   35.5450   19.7400   33.3370 C   0  0  0  0  0  2  0  0  0  0  0  0
   34.8170   19.7220   32.0140 C   0  0  0  0  0  2  0  0  0  0  0  0
   35.5770   20.4640   30.9400 C   0  0  0  0  0  2  0  0  0  0  0  0
   35.9870   21.8420   31.4150 C   0  0  0  0  0  2  0  0  0  0  0  0
  1  6  2  0  0  0  0
  1  2  1  0  0  0  0
  2  3  2  0  0  0  0
  3  7  1  0  0  0  0
  3  4  1  0  0  0  0
  4  8  1  0  0  0  0
  5  9  1  0  0  0  0
  5  4  2  0  0  0  0
  6  5  1  0  0  0  0
 10 11  1  0  0  0  0
 11 12  2  0  0  0  0
 11  2  1  0  0  0  0
 12 18  1  0  0  0  0
 13 12  1  0  0  0  0
 14 13  2  0  0  0  0
 15 14  1  0  0  0  0
 15 10  2  0  0  0  0
 16 10  1  0  0  0  0
 17 14  1  0  0  0  0
 18 20  1  0  0  0  0
 19 18  1  0  0  0  0
 21 18  1  0  0  0  0
 22  1  1  0  0  0  0
 23 22  1  0  0  0  0
 24 26  1  0  0  0  0
 24  6  1  0  0  0  0
 25 26  2  0  0  0  0
 25 33  1  0  0  0  0
 26 27  1  0  0  0  0
 27 35  1  0  0  0  0
 27 28  2  0  0  0  0
 28 29  1  0  0  0  0
 29 30  1  0  0  0  0
 29 36  1  0  0  0  0
 30 37  1  0  0  0  0
 31 30  2  0  0  0  0
 32 28  1  0  0  0  0
 32 31  1  0  0  0  0
 33 32  2  0  0  0  0
 34 25  1  0  0  0  0
 38 33  1  0  0  0  0
 38 39  1  0  0  0  0
 40 39  1  0  0  0  0
 41 40  1  0  0  0  0
 42 43  1  0  0  0  0
 42 41  1  0  0  0  0
 43 38  1  0  0  0  0
M  END
>  <minimizedAffinity>
-6.31078339

$$$$

 OpenBabel03272509233D

 43 47  0  0  0  0  0  0  0  0999 V2000
   36.6300   27.4950   33.3950 C   0  0  0  0  0  0  0  0  0  0  0  0
   35.8650   27.7590   32.2730 C   0  0  0  0  0  0  0  0  0  0  0  0
   35.8640   26.7330   31.3260 C   0  0  0  0  0  0  0  0  0  0  0  0
   36.5750   25.5480   31.5060 C   0  0  0  0  0  0  0  0  0  0  0  0
   37.3290   25.3770   32.6960 C   0  0  0  0  0  0  0  0  0  0  0  0
   37.3440   26.3790   33.6440 C   0  0  0  0  0  0  0  0  0  0  0  0
   35.2760   26.8990   30.4290 H   0  0  0  0  0  0  0  0  0  0  0  0
   36.5670   24.7670   30.7750 H   0  0  0  0  0  0  0  0  0  0  0  0
   37.8850   24.4580   32.8450 H   0  0  0  0  0  0  0  0  0  0  0  0
   33.8870   29.1400   32.6850 C   0  0  0  0  0  0  0  0  0  0  0  0
   35.1300   28.9700   32.0730 C   0  0  0  0  0  0  0  0  0  0  0  0
   35.6050   30.0160   31.2770 C   0  0  0  0  0  0  0  0  0  0  0  0
   34.8580   31.1260   31.1350 N   0  0  0  0  0  0  0  0  0  0  0  0
   33.6430   31.2500   31.7550 C   0  0  0  0  0  0  0  0  0  0  0  0
   33.1680   30.2580   32.5230 N   0  0  0  0  0  0  0  0  0  0  0  0
   33.4560   28.3720   33.3150 H   0  0  0  0  0  0  0  0  0  0  0  0
   33.1610   32.1900   31.5500 H   0  0  0  0  0  0  0  0  0  0  0  0
   36.9220   29.8880   30.6040 C   0  0  0  0  0  0  0  0  0  0  0  0
   37.3280   30.9010   30.5160 H   0  0  0  0  0  0  0  0  0  0  0  0
   36.8600   29.3450   29.6410 H   0  0  0  0  0  0  0  0  0  0  0  0
   37.5810   29.3600   31.3360 H   0  0  0  0  0  0  0  0  0  0  0  0
   36.6970   28.4620   34.4030 O   0  0  0  0  0  0  0  0  0  0  0  0
   36.0120   28.5670   35.1170 H   0  0  0  0  0  0  0  0  0  0  0  0
   38.0970   26.1410   34.7710 O   0  0  0  0  0  0  0  0  0  0  0  0
   40.0700   24.7170   35.3040 C   0  0  0  0  0  0  0  0  0  0  0  0
   39.4250   25.8370   34.8230 C   0  0  0  0  0  0  0  0  0  0  0  0
   40.1980   26.8730   34.2850 C   0  0  0  0  0  0  0  0  0  0  0  0
   41.5920   26.7640   34.2410 C   0  0  0  0  0  0  0  0  0  0  0  0
   42.5910   27.5640   33.7980 N   0  0  0  0  0  0  0  0  0  0  0  0
   43.7840   26.9730   33.9940 C   0  0  0  0  0  0  0  0  0  0  0  0
   43.5230   25.7680   34.5770 N   0  0  0  0  0  0  0  0  0  0  0  0
   42.1950   25.6320   34.7310 C   0  0  0  0  0  0  0  0  0  0  0  0
   41.4530   24.6090   35.2600 C   0  0  0  0  0  0  0  0  0  0  0  0
   39.3820   23.9710   35.7000 H   0  0  0  0  0  0  0  0  0  0  0  0
   39.8410   27.8020   33.8740 H   0  0  0  0  0  0  0  0  0  0  0  0
   42.4610   28.5110   33.3630 H   0  0  0  0  0  0  0  0  0  0  0  0
   44.7830   27.3090   33.7680 H   0  0  0  0  0  0  0  0  0  0  0  0
   42.0230   23.3580   35.8080 C   0  0  0  0  0  3  0  0  0  0  0  0
   40.9370   22.5300   36.4860 C   0  0  0  0  0  2  0  0  0  0  0  0
   41.6520   21.4500   37.2650 C   0  0  0  0  0  2  0  0  0  0  0  0
   42.4890   20.5680   36.3680 C   0  0  0  0  0  2  0  0  0  0  0  0
   43.4000   21.3750   35.4730 C   0  0  0  0  0  2  0  0  0  0  0  0
   42.6330   22.4620   34.7510 C   0  0  0  0  0  2  0  0  0  0  0  0
  1  6  1  0  0  0  0
  1 22  1  0  0  0  0
  2  1  2  0  0  0  0
  3  4  2  0  0  0  0
  3  2  1  0  0  0  0
  4  5  1  0  0  0  0
  5  9  1  0  0  0  0
  5  6  2  0  0  0  0
  6 24  1  0  0  0  0
  7  3  1  0  0  0  0
  8  4  1  0  0  0  0
 10 16  1  0  0  0  0
 11  2  1  0  0  0  0
 11 10  2  0  0  0  0
 12 11  1  0  0  0  0
 13 12  2  0  0  0  0
 13 14  1  0  0  0  0
 14 15  2  0  0  0  0
 15 10  1  0  0  0  0
 17 14  1  0  0  0  0
 18 12  1  0  0  0  0
 18 21  1  0  0  0  0
 19 18  1  0  0  0  0
 20 18  1  0  0  0  0
 22 23  1  0  0  0  0
 24 26  1  0  0  0  0
 25 34  1  0  0  0  0
 26 25  2  0  0  0  0
 27 26  1  0  0  0  0
 28 27  2  0  0  0  0
 28 32  1  0  0  0  0
 29 30  1  0  0  0  0
 29 28  1  0  0  0  0
 30 31  2  0  0  0  0
 31 32  1  0  0  0  0
 32 33  2  0  0  0  0
 33 25  1  0  0  0  0
 33 38  1  0  0  0  0
 35 27  1  0  0  0  0
 36 29  1  0  0  0  0
 37 30  1  0  0  0  0
 38 39  1  0  0  0  0
 39 40  1  0  0  0  0
 41 40  1  0  0  0  0
 42 41  1  0  0  0  0
 43 42  1  0  0  0  0
 43 38  1  0  0  0  0
M  END
>  <minimizedAffinity>
-6.28471899

$$$$
