
 OpenBabel03272508123D

 31 33  0  0  0  0  0  0  0  0999 V2000
   36.6720   29.4340   44.0070 Cl  0  0  0  0  0  0  0  0  0  0  0  0
   38.3300   29.8320   43.4870 C   0  0  0  0  0  0  0  0  0  0  0  0
   39.3200   30.3180   44.3430 C   0  0  0  0  0  0  0  0  0  0  0  0
   40.5550   30.5800   43.7960 C   0  0  0  0  0  0  0  0  0  0  0  0
   40.8050   30.3730   42.4610 C   0  0  0  0  0  0  0  0  0  0  0  0
   39.8440   29.8980   41.6070 C   0  0  0  0  0  0  0  0  0  0  0  0
   38.6140   29.6310   42.1250 C   0  0  0  0  0  0  0  0  0  0  0  0
   41.2720   30.9530   44.5160 H   0  0  0  0  0  0  0  0  0  0  0  0
   41.7940   30.5970   42.0820 H   0  0  0  0  0  0  0  0  0  0  0  0
   40.0510   29.7370   40.5510 H   0  0  0  0  0  0  0  0  0  0  0  0
   37.5460   29.1090   41.2100 C   0  0  0  0  0  3  0  0  0  0  0  0
   38.2280   28.0240   40.3930 C   0  0  0  0  0  2  0  0  0  0  0  0
   37.2660   27.5210   39.3650 C   0  0  0  0  0  2  0  0  0  0  0  0
   35.8500   27.9790   39.6150 C   0  0  0  0  0  2  0  0  0  0  0  0
   35.7420   29.4880   39.6650 C   0  0  0  0  0  2  0  0  0  0  0  0
   36.9570   30.1360   40.3110 C   0  0  0  0  0  2  0  0  0  0  0  0
   38.8790   30.4550   45.6290 O   0  0  0  0  0  0  0  0  0  0  0  0
   39.4360   32.5080   47.0980 O   0  0  0  0  0  0  0  0  0  0  0  0
   38.2960   31.8340   46.4060 P   0  0  1  0  0  0  0  0  0  0  0  0
   37.7090   32.8430   45.1630 O   0  0  0  0  0  0  0  0  0  0  0  0
   37.4820   32.3500   44.3440 H   0  0  0  0  0  0  0  0  0  0  0  0
   37.0200   31.4020   47.4310 O   0  0  0  0  0  0  0  0  0  0  0  0
   37.6150   30.5310   50.9780 C   0  0  0  0  0  0  0  0  0  0  0  0
   37.7000   31.2930   49.8110 C   0  0  0  0  0  0  0  0  0  0  0  0
   37.0690   30.8370   48.6560 C   0  0  0  0  0  0  0  0  0  0  0  0
   36.3900   29.6450   48.7370 N   0  0  0  0  0  0  0  0  0  0  0  0
   36.3310   28.9390   49.8820 C   0  0  0  0  0  0  0  0  0  0  0  0
   36.9410   29.3840   50.9930 N   0  0  0  0  0  0  0  0  0  0  0  0
   38.1360   30.9600   51.8360 H   0  0  0  0  0  0  0  0  0  0  0  0
   38.2080   32.2290   49.6660 H   0  0  0  0  0  0  0  0  0  0  0  0
   35.7780   27.9880   49.9100 H   0  0  0  0  0  0  0  0  0  0  0  0
  2  1  1  0  0  0  0
  2  3  1  0  0  0  0
  3 17  1  0  0  0  0
  4  3  2  0  0  0  0
  4  8  1  0  0  0  0
  5  4  1  0  0  0  0
  6  7  1  0  0  0  0
  6  5  2  0  0  0  0
  7  2  2  0  0  0  0
  9  5  1  0  0  0  0
 10  6  1  0  0  0  0
 11  7  1  0  0  0  0
 12 11  1  0  0  0  0
 13 14  1  0  0  0  0
 13 12  1  0  0  0  0
 14 15  1  0  0  0  0
 15 16  1  0  0  0  0
 16 11  1  0  0  0  0
 17 19  1  0  0  0  0
 19 18  2  1  0  0  0
 19 22  1  0  0  0  0
 20 19  1  0  0  0  0
 21 20  1  0  0  0  0
 22 25  1  0  0  0  0
 23 28  1  0  0  0  0
 23 29  1  0  0  0  0
 24 23  2  0  0  0  0
 25 26  2  0  0  0  0
 25 24  1  0  0  0  0
 26 27  1  0  0  0  0
 27 31  1  0  0  0  0
 27 28  2  0  0  0  0
 30 24  1  0  0  0  0
M  END
>  <minimizedAffinity>
-4.81796265

>  <minimizedRMSD>
0.337275267

$$$$
