
 OpenBabel03272509113D

 25 27  0  0  1  0  0  0  0  0999 V2000
   36.5740   31.2250   49.2470 C   0  0  0  0  0  0  0  0  0  0  0  0
   37.1710   31.4360   47.9740 C   0  0  0  0  0  0  0  0  0  0  0  0
   36.7900   30.5770   46.9390 C   0  0  0  0  0  0  0  0  0  0  0  0
   35.8780   29.5770   47.1620 N   0  0  0  0  0  0  0  0  0  0  0  0
   35.3390   29.4260   48.4180 C   0  0  0  0  0  0  0  0  0  0  0  0
   35.6950   30.2500   49.4340 N   0  0  0  0  0  0  0  0  0  0  0  0
   36.7760   31.8130   50.1250 H   0  0  0  0  0  0  0  0  0  0  0  0
   34.6340   28.6050   48.4710 H   0  0  0  0  0  0  0  0  0  0  0  0
   37.3330   30.7060   45.6100 C   0  0  0  0  0  0  0  0  0  0  0  0
   36.7500   31.5970   44.7560 C   0  0  0  0  0  0  0  0  0  0  0  0
   37.2340   31.7640   43.4500 C   0  0  0  0  0  0  0  0  0  0  0  0
   38.3250   30.9900   43.0590 C   0  0  0  0  0  0  0  0  0  0  0  0
   38.9570   30.0640   43.8910 C   0  0  0  0  0  0  0  0  0  0  0  0
   38.4110   29.9720   45.1540 C   0  0  0  0  0  0  0  0  0  0  0  0
   35.9050   32.2530   44.8530 H   0  0  0  0  0  0  0  0  0  0  0  0
   36.8600   32.4320   42.6900 H   0  0  0  0  0  0  0  0  0  0  0  0
   38.7640   31.0600   42.0560 H   0  0  0  0  0  0  0  0  0  0  0  0
   39.7970   29.4840   43.5540 H   0  0  0  0  0  0  0  0  0  0  0  0
   38.8660   29.2660   45.8430 H   0  0  0  0  0  0  0  0  0  0  0  0
   38.1230   32.5460   47.9720 C   0  0  1  0  0  0  0  0  0  0  0  0
   38.6290   32.9330   49.3380 C   0  0  0  0  0  0  0  0  0  0  0  0
   39.4280   34.1910   49.2960 C   0  0  0  0  0  0  0  0  0  0  0  0
   40.1860   34.4450   48.0510 C   0  0  0  0  0  0  0  0  0  0  0  0
   40.1080   33.4700   46.9500 C   0  0  0  0  0  0  0  0  0  0  0  0
   39.4380   32.1540   47.2630 C   0  0  0  0  0  0  0  0  0  0  0  0
  1  6  1  0  0  0  0
  1  7  1  0  0  0  0
  2  1  2  0  0  0  0
  3  4  2  0  0  0  0
  3  2  1  0  0  0  0
  4  5  1  0  0  0  0
  5  8  1  0  0  0  0
  5  6  2  0  0  0  0
  9  3  1  0  0  0  0
 10 15  1  0  0  0  0
 10  9  2  0  0  0  0
 11 10  1  0  0  0  0
 12 11  2  0  0  0  0
 12 13  1  0  0  0  0
 13 14  2  0  0  0  0
 14  9  1  0  0  0  0
 14 19  1  0  0  0  0
 16 11  1  0  0  0  0
 17 12  1  0  0  0  0
 18 13  1  0  0  0  0
 20  2  1  1  0  0  0
 20 21  1  0  0  0  0
 22 21  1  0  0  0  0
 23 22  2  0  0  0  0
 24 25  1  0  0  0  0
 24 23  1  0  0  0  0
 25 20  1  0  0  0  0
M  END
>  <minimizedAffinity>
-4.56370974

>  <minimizedRMSD>
3.2540946

$$$$
