
 OpenBabel03272501423D

 28 31  0  0  0  0  0  0  0  0999 V2000
   37.9230   31.4510   47.8590 C   0  0  0  0  0  0  0  0  0  0  0  0
   37.1250   31.0730   46.7920 C   0  0  0  0  0  0  0  0  0  0  0  0
   37.4960   31.5590   45.5630 C   0  0  0  0  0  0  0  0  0  0  0  0
   38.6180   32.3800   45.4430 C   0  0  0  0  0  0  0  0  0  0  0  0
   39.1940   32.9810   44.3810 N   0  0  0  0  0  0  0  0  0  0  0  0
   40.2670   33.6730   44.7870 C   0  0  0  0  0  0  0  0  0  0  0  0
   40.3920   33.5190   46.1390 N   0  0  0  0  0  0  0  0  0  0  0  0
   39.3810   32.7270   46.5390 C   0  0  0  0  0  0  0  0  0  0  0  0
   39.0320   32.2590   47.7610 C   0  0  0  0  0  0  0  0  0  0  0  0
   37.6720   31.0920   48.8630 H   0  0  0  0  0  0  0  0  0  0  0  0
   36.8950   31.2830   44.7180 H   0  0  0  0  0  0  0  0  0  0  0  0
   38.8200   32.8930   43.3930 H   0  0  0  0  0  0  0  0  0  0  0  0
   40.8670   34.2290   44.0690 H   0  0  0  0  0  0  0  0  0  0  0  0
   39.6250   32.5290   48.6120 H   0  0  0  0  0  0  0  0  0  0  0  0
   35.9150   29.7120   48.3630 C   0  0  0  0  0  0  0  0  0  0  0  0
   35.9900   30.2180   47.0490 C   0  0  0  0  0  0  0  0  0  0  0  0
   34.9870   29.8430   46.1730 C   0  0  0  0  0  0  0  0  0  0  0  0
   34.0010   29.0250   46.6140 N   0  0  0  0  0  0  0  0  0  0  0  0
   33.9520   28.5540   47.8780 C   0  0  0  0  0  0  0  0  0  0  0  0
   34.9110   28.9050   48.7370 N   0  0  0  0  0  0  0  0  0  0  0  0
   36.6530   29.9420   49.1420 H   0  0  0  0  0  0  0  0  0  0  0  0
   35.0780   30.2500   45.1760 H   0  0  0  0  0  0  0  0  0  0  0  0
   32.8500   27.6590   48.3140 C   0  0  0  0  0  0  0  0  0  0  0  0
   31.4990   28.1320   47.8210 C   0  0  0  0  0  0  0  0  0  0  0  0
   30.4480   27.2930   48.5140 C   0  0  0  0  0  0  0  0  0  0  0  0
   30.7780   25.8120   48.4290 C   0  0  0  0  0  0  0  0  0  0  0  0
   31.8020   25.6020   47.3310 C   0  0  0  0  0  0  0  0  0  0  0  0
   33.1000   26.2920   47.6840 C   0  0  0  0  0  0  0  0  0  0  0  0
  1 10  1  0  0  0  0
  2 16  1  0  0  0  0
  2  1  2  0  0  0  0
  3  2  1  0  0  0  0
  4  3  2  0  0  0  0
  4  8  1  0  0  0  0
  5  6  1  0  0  0  0
  5  4  1  0  0  0  0
  6  7  2  0  0  0  0
  7  8  1  0  0  0  0
  8  9  2  0  0  0  0
  9  1  1  0  0  0  0
  9 14  1  0  0  0  0
 11  3  1  0  0  0  0
 12  5  1  0  0  0  0
 13  6  1  0  0  0  0
 15 20  1  0  0  0  0
 15 21  1  0  0  0  0
 16 15  2  0  0  0  0
 17 18  2  0  0  0  0
 17 16  1  0  0  0  0
 18 19  1  0  0  0  0
 19 23  1  0  0  0  0
 19 20  2  0  0  0  0
 22 17  1  0  0  0  0
 24 23  1  0  0  0  0
 24 25  1  0  0  0  0
 26 25  1  0  0  0  0
 27 28  1  0  0  0  0
 27 26  1  0  0  0  0
 28 23  1  0  0  0  0
M  END
>  <minimizedAffinity>
-5.21226645

>  <minimizedRMSD>
1.42973423

$$$$
