
 OpenBabel03272507333D

 33 36  0  0  1  0  0  0  0  0999 V2000
   35.8140   29.1130   49.7860 C   0  0  0  0  0  0  0  0  0  0  0  0
   34.7890   29.6300   50.5430 C   0  0  0  0  0  0  0  0  0  0  0  0
   33.5900   29.0860   50.0570 C   0  0  0  0  0  0  0  0  0  0  0  0
   33.9700   28.2620   49.0200 C   0  0  0  0  0  0  0  0  0  0  0  0
   35.2800   28.3100   48.8980 O   0  0  0  0  0  0  0  0  0  0  0  0
   34.8010   30.3290   51.3760 H   0  0  0  0  0  0  0  0  0  0  0  0
   32.5780   29.2410   50.3780 H   0  0  0  0  0  0  0  0  0  0  0  0
   37.2040   29.4660   50.0180 C   0  0  0  0  0  0  0  0  0  0  0  0
   37.8470   28.8590   50.8890 O   0  0  0  0  0  0  0  0  0  0  0  0
   37.7540   30.5160   49.2090 C   0  0  0  0  0  0  0  0  0  0  0  0
   38.0980   31.6930   49.8440 C   0  0  0  0  0  0  0  0  0  0  0  0
   38.6340   32.7350   49.0880 C   0  0  0  0  0  0  0  0  0  0  0  0
   38.7940   32.5370   47.7320 N   0  0  0  0  0  0  0  0  0  0  0  0
   38.4490   31.3820   47.1530 C   0  0  0  0  0  0  0  0  0  0  0  0
   37.9340   30.3790   47.8760 N   0  0  0  0  0  0  0  0  0  0  0  0
   37.9870   31.8890   50.9150 H   0  0  0  0  0  0  0  0  0  0  0  0
   38.9240   33.6760   49.5080 H   0  0  0  0  0  0  0  0  0  0  0  0
   38.6290   31.3580   46.0780 H   0  0  0  0  0  0  0  0  0  0  0  0
   33.0720   27.4590   48.1890 C   0  0  0  0  0  0  0  0  0  0  0  0
   31.8370   27.4160   48.5080 O   0  0  0  0  0  0  0  0  0  0  0  0
   33.6030   26.7060   47.0040 C   0  0  1  0  0  0  0  0  0  0  0  0
   33.7460   25.1750   47.3770 C   0  0  0  0  0  0  0  0  0  0  0  0
   32.7880   25.6840   46.3670 C   0  0  2  0  0  0  0  0  0  0  0  0
   34.6080   27.0730   46.7080 H   0  0  0  0  0  0  0  0  0  0  0  0
   33.3690   24.8600   48.3490 H   0  0  0  0  0  0  0  0  0  0  0  0
   34.6800   24.6970   47.0910 H   0  0  0  0  0  0  0  0  0  0  0  0
   31.7090   25.6950   46.7140 H   0  0  0  0  0  0  0  0  0  0  0  0
   32.9710   25.1730   44.9920 C   0  0  0  0  0  3  0  0  0  0  0  0
   34.0810   25.7650   44.1820 C   0  0  0  0  0  2  0  0  0  0  0  0
   35.3700   25.0060   44.2450 C   0  0  0  0  0  2  0  0  0  0  0  0
   35.2360   23.5830   43.7550 C   0  0  0  0  0  2  0  0  0  0  0  0
   33.8230   23.0700   43.8840 C   0  0  0  0  0  2  0  0  0  0  0  0
   33.1870   23.6750   45.0910 C   0  0  0  0  0  2  0  0  0  0  0  0
  1  8  1  0  0  0  0
  1  2  2  0  0  0  0
  2  6  1  0  0  0  0
  3  7  1  0  0  0  0
  3  2  1  0  0  0  0
  4  3  2  0  0  0  0
  5  4  1  0  0  0  0
  5  1  1  0  0  0  0
  8  9  2  0  0  0  0
 10 11  1  0  0  0  0
 10  8  1  0  0  0  0
 11 16  1  0  0  0  0
 12 17  1  0  0  0  0
 12 11  2  0  0  0  0
 13 12  1  0  0  0  0
 14 13  2  0  0  0  0
 14 15  1  0  0  0  0
 15 10  2  0  0  0  0
 18 14  1  0  0  0  0
 19 20  2  0  0  0  0
 19  4  1  0  0  0  0
 21 24  1  6  0  0  0
 21 22  1  0  0  0  0
 21 19  1  0  0  0  0
 22 25  1  0  0  0  0
 23 27  1  1  0  0  0
 23 21  1  0  0  0  0
 23 22  1  0  0  0  0
 26 22  1  0  0  0  0
 28 33  1  0  0  0  0
 28 23  1  0  0  0  0
 29 30  1  0  0  0  0
 29 28  1  0  0  0  0
 31 32  1  0  0  0  0
 31 30  1  0  0  0  0
 32 33  1  0  0  0  0
M  END
>  <minimizedAffinity>
-5.02049017

>  <minimizedRMSD>
0.107352845

$$$$
