
 OpenBabel03262523203D

 28 30  0  0  1  0  0  0  0  0999 V2000
   39.6870   27.1240   33.9180 C   0  0  0  0  0  0  0  0  0  0  0  0
   39.2910   27.0640   35.2680 C   0  0  0  0  0  0  0  0  0  0  0  0
   38.0830   26.4360   35.5800 C   0  0  0  0  0  0  0  0  0  0  0  0
   37.3660   25.9220   34.5540 N   0  0  0  0  0  0  0  0  0  0  0  0
   37.7550   25.9850   33.2770 C   0  0  0  0  0  0  0  0  0  0  0  0
   38.9080   26.5820   32.9450 N   0  0  0  0  0  0  0  0  0  0  0  0
   36.9290   25.4110   32.2490 N   0  0  0  0  0  0  0  0  0  0  0  0
   36.5400   24.0110   32.2530 C   0  0  0  0  0  0  0  0  0  0  0  0
   35.5060   23.8870   31.1950 C   0  0  0  0  0  0  0  0  0  0  0  0
   35.1050   25.3130   30.8570 C   0  0  0  0  0  0  0  0  0  0  0  0
   36.3760   26.0740   31.1060 C   0  0  1  0  0  0  0  0  0  0  0  0
   40.6170   27.6170   33.7610 H   0  0  0  0  0  0  0  0  0  0  0  0
   39.8810   27.4830   36.0730 H   0  0  0  0  0  0  0  0  0  0  0  0
   37.7170   26.3550   36.6010 H   0  0  0  0  0  0  0  0  0  0  0  0
   37.4280   23.3530   32.1320 H   0  0  0  0  0  0  0  0  0  0  0  0
   36.1500   23.7970   33.2640 H   0  0  0  0  0  0  0  0  0  0  0  0
   34.6350   23.2540   31.4600 H   0  0  0  0  0  0  0  0  0  0  0  0
   35.9090   23.4670   30.2290 H   0  0  0  0  0  0  0  0  0  0  0  0
   34.3770   25.6630   31.6170 H   0  0  0  0  0  0  0  0  0  0  0  0
   34.7250   25.4470   29.8460 H   0  0  0  0  0  0  0  0  0  0  0  0
   37.0050   25.9020   30.1850 H   0  0  0  0  0  0  0  0  0  0  0  0
   36.1630   27.5180   31.2400 C   0  0  0  0  0  0  0  0  0  0  0  0
   36.8370   28.4470   30.4760 C   0  0  0  0  0  3  0  0  0  0  0  0
   36.6490   29.8120   30.5890 C   0  0  0  0  0  0  0  0  0  0  0  0
   37.1540   30.5590   30.0140 H   0  0  0  0  0  0  0  0  0  0  0  0
   35.7500   30.2820   31.5030 N   0  0  0  0  0  0  0  0  0  0  0  0
   35.0820   29.3630   32.2600 C   0  0  0  0  0  3  0  0  0  0  0  0
   35.2760   28.0360   32.1400 N   0  0  0  0  0  0  0  0  0  0  0  0
  1  2  1  0  0  0  0
  2  3  2  0  0  0  0
  2 13  1  0  0  0  0
  3 14  1  0  0  0  0
  4  3  1  0  0  0  0
  5  4  2  0  0  0  0
  6  5  1  0  0  0  0
  6  1  2  0  0  0  0
  7  8  1  0  0  0  0
  7  5  1  0  0  0  0
  8 16  1  0  0  0  0
  9 17  1  0  0  0  0
  9  8  1  0  0  0  0
 10 11  1  0  0  0  0
 10  9  1  0  0  0  0
 10 19  1  0  0  0  0
 11 21  1  6  0  0  0
 11 22  1  0  0  0  0
 11  7  1  0  0  0  0
 12  1  1  0  0  0  0
 15  8  1  0  0  0  0
 18  9  1  0  0  0  0
 20 10  1  0  0  0  0
 22 28  1  0  0  0  0
 23 24  1  0  0  0  0
 23 22  2  0  0  0  0
 24 26  2  0  0  0  0
 25 24  1  0  0  0  0
 26 27  1  0  0  0  0
 28 27  2  0  0  0  0
M  END
>  <minimizedAffinity>
-4.68663883

$$$$

 OpenBabel03262523203D

 28 30  0  0  1  0  0  0  0  0999 V2000
   30.9800   29.0060   33.9150 C   0  0  0  0  0  0  0  0  0  0  0  0
   30.6720   27.9730   34.8220 C   0  0  0  0  0  0  0  0  0  0  0  0
   31.3730   27.9190   36.0290 C   0  0  0  0  0  0  0  0  0  0  0  0
   32.3080   28.8710   36.2500 N   0  0  0  0  0  0  0  0  0  0  0  0
   32.5880   29.8460   35.3800 C   0  0  0  0  0  0  0  0  0  0  0  0
   31.9350   29.9250   34.2130 N   0  0  0  0  0  0  0  0  0  0  0  0
   33.5990   30.8180   35.6980 N   0  0  0  0  0  0  0  0  0  0  0  0
   33.5380   31.6470   36.8890 C   0  0  0  0  0  0  0  0  0  0  0  0
   34.8630   32.3100   36.9770 C   0  0  0  0  0  0  0  0  0  0  0  0
   35.7520   31.5590   36.0010 C   0  0  0  0  0  0  0  0  0  0  0  0
   34.7770   31.1250   34.9420 C   0  0  1  0  0  0  0  0  0  0  0  0
   30.4060   28.9810   33.0190 H   0  0  0  0  0  0  0  0  0  0  0  0
   29.9200   27.2220   34.6230 H   0  0  0  0  0  0  0  0  0  0  0  0
   31.1860   27.1480   36.7740 H   0  0  0  0  0  0  0  0  0  0  0  0
   32.6630   32.3330   36.8490 H   0  0  0  0  0  0  0  0  0  0  0  0
   33.3390   30.9650   37.7360 H   0  0  0  0  0  0  0  0  0  0  0  0
   35.2990   32.3570   37.9960 H   0  0  0  0  0  0  0  0  0  0  0  0
   34.8540   33.3710   36.5970 H   0  0  0  0  0  0  0  0  0  0  0  0
   36.1120   30.6320   36.4920 H   0  0  0  0  0  0  0  0  0  0  0  0
   36.5770   32.1450   35.5990 H   0  0  0  0  0  0  0  0  0  0  0  0
   34.6260   32.0370   34.2940 H   0  0  0  0  0  0  0  0  0  0  0  0
   35.2950   30.0510   34.0910 C   0  0  0  0  0  0  0  0  0  0  0  0
   35.1130   30.0270   32.7240 C   0  0  0  0  0  3  0  0  0  0  0  0
   35.5940   29.0210   31.9060 C   0  0  0  0  0  0  0  0  0  0  0  0
   35.4710   28.9710   30.8450 H   0  0  0  0  0  0  0  0  0  0  0  0
   36.2890   27.9880   32.4670 N   0  0  0  0  0  0  0  0  0  0  0  0
   36.4700   28.0120   33.8190 C   0  0  0  0  0  3  0  0  0  0  0  0
   35.9950   28.9970   34.6040 N   0  0  0  0  0  0  0  0  0  0  0  0
  1  6  2  0  0  0  0
  1  2  1  0  0  0  0
  2  3  2  0  0  0  0
  3  4  1  0  0  0  0
  3 14  1  0  0  0  0
  5  7  1  0  0  0  0
  5  4  2  0  0  0  0
  6  5  1  0  0  0  0
  7  8  1  0  0  0  0
  8  9  1  0  0  0  0
  8 16  1  0  0  0  0
  9 17  1  0  0  0  0
 10 19  1  0  0  0  0
 10  9  1  0  0  0  0
 11 21  1  6  0  0  0
 11  7  1  0  0  0  0
 11 10  1  0  0  0  0
 12  1  1  0  0  0  0
 13  2  1  0  0  0  0
 15  8  1  0  0  0  0
 18  9  1  0  0  0  0
 20 10  1  0  0  0  0
 22 28  1  0  0  0  0
 22 11  1  0  0  0  0
 23 22  2  0  0  0  0
 24 26  2  0  0  0  0
 24 23  1  0  0  0  0
 25 24  1  0  0  0  0
 26 27  1  0  0  0  0
 27 28  2  0  0  0  0
M  END
>  <minimizedAffinity>
-4.63354445

$$$$

 OpenBabel03262523203D

 28 30  0  0  1  0  0  0  0  0999 V2000
   37.9550   23.2580   36.5530 C   0  0  0  0  0  0  0  0  0  0  0  0
   37.8010   22.1840   35.6550 C   0  0  0  0  0  0  0  0  0  0  0  0
   38.6330   22.1290   34.5350 C   0  0  0  0  0  0  0  0  0  0  0  0
   39.5420   23.1200   34.3850 N   0  0  0  0  0  0  0  0  0  0  0  0
   39.6770   24.1340   35.2460 C   0  0  0  0  0  0  0  0  0  0  0  0
   38.8930   24.2150   36.3300 N   0  0  0  0  0  0  0  0  0  0  0  0
   40.6710   25.1460   35.0080 N   0  0  0  0  0  0  0  0  0  0  0  0
   42.0820   24.8350   34.8680 C   0  0  0  0  0  0  0  0  0  0  0  0
   42.7170   26.0880   34.3860 C   0  0  0  0  0  0  0  0  0  0  0  0
   41.5650   26.9760   33.9470 C   0  0  0  0  0  0  0  0  0  0  0  0
   40.4600   26.5570   34.8760 C   0  0  1  0  0  0  0  0  0  0  0  0
   37.2850   23.2310   37.3790 H   0  0  0  0  0  0  0  0  0  0  0  0
   37.0670   21.4020   35.7950 H   0  0  0  0  0  0  0  0  0  0  0  0
   38.5680   21.3280   33.8020 H   0  0  0  0  0  0  0  0  0  0  0  0
   42.4940   24.4260   35.8160 H   0  0  0  0  0  0  0  0  0  0  0  0
   42.1500   24.0090   34.1370 H   0  0  0  0  0  0  0  0  0  0  0  0
   43.4760   25.9550   33.5890 H   0  0  0  0  0  0  0  0  0  0  0  0
   43.2290   26.6680   35.2060 H   0  0  0  0  0  0  0  0  0  0  0  0
   41.2510   26.6690   32.9290 H   0  0  0  0  0  0  0  0  0  0  0  0
   41.7740   28.0430   33.9970 H   0  0  0  0  0  0  0  0  0  0  0  0
   40.6710   27.0980   35.8430 H   0  0  0  0  0  0  0  0  0  0  0  0
   39.1330   26.9690   34.4110 C   0  0  0  0  0  0  0  0  0  0  0  0
   38.1590   27.4490   35.2610 C   0  0  0  0  0  3  0  0  0  0  0  0
   36.9020   27.8420   34.8400 C   0  0  0  0  0  0  0  0  0  0  0  0
   36.1250   28.2180   35.4710 H   0  0  0  0  0  0  0  0  0  0  0  0
   36.5920   27.7560   33.5130 N   0  0  0  0  0  0  0  0  0  0  0  0
   37.5560   27.2810   32.6710 C   0  0  0  0  0  3  0  0  0  0  0  0
   38.7750   26.9010   33.0950 N   0  0  0  0  0  0  0  0  0  0  0  0
  1 12  1  0  0  0  0
  2 13  1  0  0  0  0
  2  1  2  0  0  0  0
  3  2  1  0  0  0  0
  4  3  2  0  0  0  0
  4  5  1  0  0  0  0
  5  6  2  0  0  0  0
  6  1  1  0  0  0  0
  7  5  1  0  0  0  0
  8  7  1  0  0  0  0
  8 15  1  0  0  0  0
  9  8  1  0  0  0  0
  9 18  1  0  0  0  0
 10 20  1  0  0  0  0
 10  9  1  0  0  0  0
 10 11  1  0  0  0  0
 11  7  1  0  0  0  0
 11 21  1  1  0  0  0
 14  3  1  0  0  0  0
 16  8  1  0  0  0  0
 17  9  1  0  0  0  0
 19 10  1  0  0  0  0
 22 11  1  0  0  0  0
 22 23  1  0  0  0  0
 24 23  2  0  0  0  0
 24 25  1  0  0  0  0
 26 24  1  0  0  0  0
 27 28  1  0  0  0  0
 27 26  2  0  0  0  0
 28 22  2  0  0  0  0
M  END
>  <minimizedAffinity>
-4.51919651

$$$$

 OpenBabel03262523203D

 28 30  0  0  1  0  0  0  0  0999 V2000
   36.9350   23.6320   31.2590 C   0  0  0  0  0  0  0  0  0  0  0  0
   35.7980   24.4560   31.1550 C   0  0  0  0  0  0  0  0  0  0  0  0
   35.8670   25.7520   31.6730 C   0  0  0  0  0  0  0  0  0  0  0  0
   37.0330   26.1330   32.2440 N   0  0  0  0  0  0  0  0  0  0  0  0
   38.1040   25.3390   32.3340 C   0  0  0  0  0  0  0  0  0  0  0  0
   38.0700   24.0910   31.8480 N   0  0  0  0  0  0  0  0  0  0  0  0
   39.3050   25.8280   32.9580 N   0  0  0  0  0  0  0  0  0  0  0  0
   39.9960   27.0180   32.4940 C   0  0  0  0  0  0  0  0  0  0  0  0
   41.0080   27.3180   33.5380 C   0  0  0  0  0  0  0  0  0  0  0  0
   40.6170   26.4640   34.7320 C   0  0  0  0  0  0  0  0  0  0  0  0
   39.9920   25.2620   34.0810 C   0  0  1  0  0  0  0  0  0  0  0  0
   36.8050   22.6610   30.8430 H   0  0  0  0  0  0  0  0  0  0  0  0
   34.8760   24.1300   30.6940 H   0  0  0  0  0  0  0  0  0  0  0  0
   35.0270   26.4410   31.6260 H   0  0  0  0  0  0  0  0  0  0  0  0
   40.3990   26.8680   31.4690 H   0  0  0  0  0  0  0  0  0  0  0  0
   39.2300   27.8080   32.3970 H   0  0  0  0  0  0  0  0  0  0  0  0
   41.1110   28.3910   33.8010 H   0  0  0  0  0  0  0  0  0  0  0  0
   42.0440   26.9680   33.2640 H   0  0  0  0  0  0  0  0  0  0  0  0
   39.8040   26.9790   35.2820 H   0  0  0  0  0  0  0  0  0  0  0  0
   41.4440   26.2030   35.3900 H   0  0  0  0  0  0  0  0  0  0  0  0
   40.8630   24.6230   33.7520 H   0  0  0  0  0  0  0  0  0  0  0  0
   39.1760   24.4690   35.0030 C   0  0  0  0  0  0  0  0  0  0  0  0
   38.3970   25.0360   35.9890 C   0  0  0  0  0  3  0  0  0  0  0  0
   37.6210   24.3030   36.8680 C   0  0  0  0  0  0  0  0  0  0  0  0
   37.0070   24.7090   37.6430 H   0  0  0  0  0  0  0  0  0  0  0  0
   37.6150   22.9410   36.7670 N   0  0  0  0  0  0  0  0  0  0  0  0
   38.3860   22.3790   35.7910 C   0  0  0  0  0  3  0  0  0  0  0  0
   39.1380   23.1050   34.9420 N   0  0  0  0  0  0  0  0  0  0  0  0
  1  6  1  0  0  0  0
  2  1  2  0  0  0  0
  2  3  1  0  0  0  0
  3  4  2  0  0  0  0
  4  5  1  0  0  0  0
  5  7  1  0  0  0  0
  6  5  2  0  0  0  0
  7 11  1  0  0  0  0
  8  7  1  0  0  0  0
  8  9  1  0  0  0  0
  9 17  1  0  0  0  0
  9 10  1  0  0  0  0
 10 19  1  0  0  0  0
 10 20  1  0  0  0  0
 11 21  1  6  0  0  0
 11 10  1  0  0  0  0
 11 22  1  0  0  0  0
 12  1  1  0  0  0  0
 13  2  1  0  0  0  0
 14  3  1  0  0  0  0
 15  8  1  0  0  0  0
 16  8  1  0  0  0  0
 18  9  1  0  0  0  0
 22 23  1  0  0  0  0
 23 24  2  0  0  0  0
 24 25  1  0  0  0  0
 26 24  1  0  0  0  0
 27 26  2  0  0  0  0
 28 22  2  0  0  0  0
 28 27  1  0  0  0  0
M  END
>  <minimizedAffinity>
-4.44367027

$$$$

 OpenBabel03262523203D

 28 30  0  0  1  0  0  0  0  0999 V2000
   35.7930   29.8540   32.3070 C   0  0  0  0  0  0  0  0  0  0  0  0
   36.2780   30.3900   31.0990 C   0  0  0  0  0  0  0  0  0  0  0  0
   36.6790   29.5080   30.0930 C   0  0  0  0  0  0  0  0  0  0  0  0
   36.5720   28.1840   30.3470 N   0  0  0  0  0  0  0  0  0  0  0  0
   36.1090   27.6890   31.4990 C   0  0  0  0  0  0  0  0  0  0  0  0
   35.7180   28.5090   32.4850 N   0  0  0  0  0  0  0  0  0  0  0  0
   36.0300   26.2650   31.6850 N   0  0  0  0  0  0  0  0  0  0  0  0
   35.2700   25.4030   30.7960 C   0  0  0  0  0  0  0  0  0  0  0  0
   35.6490   24.0170   31.1700 C   0  0  0  0  0  0  0  0  0  0  0  0
   36.8820   24.1620   32.0460 C   0  0  0  0  0  0  0  0  0  0  0  0
   36.6490   25.4870   32.7170 C   0  0  1  0  0  0  0  0  0  0  0  0
   35.5090   30.5870   33.0240 H   0  0  0  0  0  0  0  0  0  0  0  0
   36.3550   31.4540   30.9170 H   0  0  0  0  0  0  0  0  0  0  0  0
   37.0630   29.8540   29.1360 H   0  0  0  0  0  0  0  0  0  0  0  0
   34.1840   25.6330   30.8550 H   0  0  0  0  0  0  0  0  0  0  0  0
   35.5710   25.6700   29.7670 H   0  0  0  0  0  0  0  0  0  0  0  0
   35.8150   23.3280   30.3170 H   0  0  0  0  0  0  0  0  0  0  0  0
   34.8870   23.5130   31.8300 H   0  0  0  0  0  0  0  0  0  0  0  0
   37.7660   24.2960   31.3910 H   0  0  0  0  0  0  0  0  0  0  0  0
   37.0280   23.3510   32.7560 H   0  0  0  0  0  0  0  0  0  0  0  0
   35.9270   25.2660   33.5560 H   0  0  0  0  0  0  0  0  0  0  0  0
   37.8640   26.0520   33.3080 C   0  0  0  0  0  0  0  0  0  0  0  0
   37.9160   26.5260   34.6020 C   0  0  0  0  0  3  0  0  0  0  0  0
   39.0540   27.0630   35.1760 C   0  0  0  0  0  0  0  0  0  0  0  0
   39.1280   27.4390   36.1740 H   0  0  0  0  0  0  0  0  0  0  0  0
   40.1980   27.1340   34.4330 N   0  0  0  0  0  0  0  0  0  0  0  0
   40.1470   26.6650   33.1530 C   0  0  0  0  0  3  0  0  0  0  0  0
   39.0320   26.1460   32.6060 N   0  0  0  0  0  0  0  0  0  0  0  0
  1  6  1  0  0  0  0
  1 12  1  0  0  0  0
  2  1  2  0  0  0  0
  3  4  2  0  0  0  0
  3  2  1  0  0  0  0
  4  5  1  0  0  0  0
  5  7  1  0  0  0  0
  5  6  2  0  0  0  0
  7 11  1  0  0  0  0
  8 15  1  0  0  0  0
  8  9  1  0  0  0  0
  8  7  1  0  0  0  0
  9 18  1  0  0  0  0
  9 10  1  0  0  0  0
 10 11  1  0  0  0  0
 10 20  1  0  0  0  0
 11 22  1  0  0  0  0
 11 21  1  1  0  0  0
 13  2  1  0  0  0  0
 14  3  1  0  0  0  0
 16  8  1  0  0  0  0
 17  9  1  0  0  0  0
 19 10  1  0  0  0  0
 22 23  1  0  0  0  0
 23 24  2  0  0  0  0
 24 25  1  0  0  0  0
 26 24  1  0  0  0  0
 27 26  2  0  0  0  0
 28 27  1  0  0  0  0
 28 22  2  0  0  0  0
M  END
>  <minimizedAffinity>
-4.35463524

$$$$

 OpenBabel03262523203D

 28 30  0  0  1  0  0  0  0  0999 V2000
   40.0260   22.8320   37.6510 C   0  0  0  0  0  0  0  0  0  0  0  0
   39.0440   23.2420   38.5740 C   0  0  0  0  0  0  0  0  0  0  0  0
   37.7370   23.4260   38.1170 C   0  0  0  0  0  0  0  0  0  0  0  0
   37.4970   23.1930   36.8060 N   0  0  0  0  0  0  0  0  0  0  0  0
   38.4390   22.8030   35.9410 C   0  0  0  0  0  0  0  0  0  0  0  0
   39.7030   22.6200   36.3480 N   0  0  0  0  0  0  0  0  0  0  0  0
   38.0960   22.5790   34.5630 N   0  0  0  0  0  0  0  0  0  0  0  0
   37.0720   21.6310   34.1590 C   0  0  0  0  0  0  0  0  0  0  0  0
   36.8490   21.8840   32.7130 C   0  0  0  0  0  0  0  0  0  0  0  0
   37.5280   23.2130   32.4300 C   0  0  0  0  0  0  0  0  0  0  0  0
   38.6670   23.2100   33.4110 C   0  0  1  0  0  0  0  0  0  0  0  0
   40.9950   22.7150   38.0730 H   0  0  0  0  0  0  0  0  0  0  0  0
   39.2590   23.4230   39.6180 H   0  0  0  0  0  0  0  0  0  0  0  0
   36.9310   23.7420   38.7750 H   0  0  0  0  0  0  0  0  0  0  0  0
   37.3680   20.5920   34.4210 H   0  0  0  0  0  0  0  0  0  0  0  0
   36.1820   21.8490   34.7770 H   0  0  0  0  0  0  0  0  0  0  0  0
   35.7870   21.8740   32.3910 H   0  0  0  0  0  0  0  0  0  0  0  0
   37.3790   21.1440   32.0470 H   0  0  0  0  0  0  0  0  0  0  0  0
   36.8480   24.0300   32.7430 H   0  0  0  0  0  0  0  0  0  0  0  0
   37.8600   23.3390   31.4010 H   0  0  0  0  0  0  0  0  0  0  0  0
   39.4600   22.5630   32.9360 H   0  0  0  0  0  0  0  0  0  0  0  0
   39.2420   24.5400   33.6250 C   0  0  0  0  0  0  0  0  0  0  0  0
   38.4740   25.6810   33.7220 C   0  0  0  0  0  3  0  0  0  0  0  0
   39.0000   26.9440   33.9230 C   0  0  0  0  0  0  0  0  0  0  0  0
   38.4350   27.8480   34.0030 H   0  0  0  0  0  0  0  0  0  0  0  0
   40.3540   27.0860   34.0340 N   0  0  0  0  0  0  0  0  0  0  0  0
   41.1150   25.9570   33.9380 C   0  0  0  0  0  3  0  0  0  0  0  0
   40.5900   24.7340   33.7410 N   0  0  0  0  0  0  0  0  0  0  0  0
  1 12  1  0  0  0  0
  1  2  1  0  0  0  0
  2 13  1  0  0  0  0
  3  2  2  0  0  0  0
  3 14  1  0  0  0  0
  4  3  1  0  0  0  0
  5  6  1  0  0  0  0
  5  4  2  0  0  0  0
  6  1  2  0  0  0  0
  7  5  1  0  0  0  0
  8 15  1  0  0  0  0
  8  7  1  0  0  0  0
  8 16  1  0  0  0  0
  9  8  1  0  0  0  0
 10  9  1  0  0  0  0
 10 19  1  0  0  0  0
 10 11  1  0  0  0  0
 11 21  1  6  0  0  0
 11 22  1  0  0  0  0
 11  7  1  0  0  0  0
 17  9  1  0  0  0  0
 18  9  1  0  0  0  0
 20 10  1  0  0  0  0
 22 23  2  0  0  0  0
 22 28  1  0  0  0  0
 23 24  1  0  0  0  0
 24 25  1  0  0  0  0
 24 26  2  0  0  0  0
 27 26  1  0  0  0  0
 28 27  2  0  0  0  0
M  END
>  <minimizedAffinity>
-4.31515551

$$$$

 OpenBabel03262523203D

 28 30  0  0  1  0  0  0  0  0999 V2000
   39.4230   25.4340   32.7770 C   0  0  0  0  0  0  0  0  0  0  0  0
   39.4960   26.7710   33.2140 C   0  0  0  0  0  0  0  0  0  0  0  0
   40.3010   27.0670   34.3160 C   0  0  0  0  0  0  0  0  0  0  0  0
   40.9660   26.0410   34.8960 N   0  0  0  0  0  0  0  0  0  0  0  0
   40.8880   24.7770   34.4690 C   0  0  0  0  0  0  0  0  0  0  0  0
   40.1230   24.4600   33.4150 N   0  0  0  0  0  0  0  0  0  0  0  0
   41.6290   23.7470   35.1460 N   0  0  0  0  0  0  0  0  0  0  0  0
   43.0730   23.8000   35.3010 C   0  0  0  0  0  0  0  0  0  0  0  0
   43.4070   22.7130   36.2560 C   0  0  0  0  0  0  0  0  0  0  0  0
   42.0800   22.2980   36.8700 C   0  0  0  0  0  0  0  0  0  0  0  0
   41.1100   22.5570   35.7510 C   0  0  1  0  0  0  0  0  0  0  0  0
   38.7900   25.2880   31.9350 H   0  0  0  0  0  0  0  0  0  0  0  0
   38.9550   27.5760   32.7350 H   0  0  0  0  0  0  0  0  0  0  0  0
   40.4030   28.0780   34.7060 H   0  0  0  0  0  0  0  0  0  0  0  0
   43.5800   23.7400   34.3140 H   0  0  0  0  0  0  0  0  0  0  0  0
   43.3100   24.8050   35.6930 H   0  0  0  0  0  0  0  0  0  0  0  0
   44.1640   22.9760   37.0230 H   0  0  0  0  0  0  0  0  0  0  0  0
   43.7910   21.7820   35.7500 H   0  0  0  0  0  0  0  0  0  0  0  0
   41.8250   23.0150   37.6760 H   0  0  0  0  0  0  0  0  0  0  0  0
   42.0490   21.2690   37.2230 H   0  0  0  0  0  0  0  0  0  0  0  0
   41.2120   21.6670   35.0650 H   0  0  0  0  0  0  0  0  0  0  0  0
   39.7180   22.6190   36.2020 C   0  0  0  0  0  0  0  0  0  0  0  0
   39.3400   23.2240   37.3820 C   0  0  0  0  0  3  0  0  0  0  0  0
   38.0310   23.2910   37.8230 C   0  0  0  0  0  0  0  0  0  0  0  0
   37.7040   23.7510   38.7310 H   0  0  0  0  0  0  0  0  0  0  0  0
   37.0460   22.7310   37.0590 N   0  0  0  0  0  0  0  0  0  0  0  0
   37.4200   22.1330   35.8910 C   0  0  0  0  0  3  0  0  0  0  0  0
   38.6980   22.0740   35.4740 N   0  0  0  0  0  0  0  0  0  0  0  0
  1  2  2  0  0  0  0
  1  6  1  0  0  0  0
  2  3  1  0  0  0  0
  3 14  1  0  0  0  0
  3  4  2  0  0  0  0
  5  4  1  0  0  0  0
  5  7  1  0  0  0  0
  6  5  2  0  0  0  0
  7  8  1  0  0  0  0
  7 11  1  0  0  0  0
  8 16  1  0  0  0  0
  8  9  1  0  0  0  0
  9 10  1  0  0  0  0
  9 17  1  0  0  0  0
 10 20  1  0  0  0  0
 10 19  1  0  0  0  0
 11 21  1  6  0  0  0
 11 22  1  0  0  0  0
 11 10  1  0  0  0  0
 12  1  1  0  0  0  0
 13  2  1  0  0  0  0
 15  8  1  0  0  0  0
 18  9  1  0  0  0  0
 22 23  1  0  0  0  0
 23 24  2  0  0  0  0
 24 25  1  0  0  0  0
 26 24  1  0  0  0  0
 27 26  2  0  0  0  0
 28 27  1  0  0  0  0
 28 22  2  0  0  0  0
M  END
>  <minimizedAffinity>
-4.24678707

$$$$

 OpenBabel03262523203D

 28 30  0  0  1  0  0  0  0  0999 V2000
   40.1330   22.4100   35.5220 C   0  0  0  0  0  0  0  0  0  0  0  0
   39.6420   22.9340   36.7340 C   0  0  0  0  0  0  0  0  0  0  0  0
   38.2600   23.0610   36.8930 C   0  0  0  0  0  0  0  0  0  0  0  0
   37.4760   22.6660   35.8630 N   0  0  0  0  0  0  0  0  0  0  0  0
   37.9560   22.1700   34.7190 C   0  0  0  0  0  0  0  0  0  0  0  0
   39.2770   22.0370   34.5350 N   0  0  0  0  0  0  0  0  0  0  0  0
   37.0490   21.7750   33.6750 N   0  0  0  0  0  0  0  0  0  0  0  0
   36.0050   20.7860   33.8820 C   0  0  0  0  0  0  0  0  0  0  0  0
   35.1500   20.8560   32.6710 C   0  0  0  0  0  0  0  0  0  0  0  0
   35.5580   22.1380   31.9660 C   0  0  0  0  0  0  0  0  0  0  0  0
   37.0130   22.2570   32.3260 C   0  0  1  0  0  0  0  0  0  0  0  0
   41.1940   22.3460   35.4760 H   0  0  0  0  0  0  0  0  0  0  0  0
   40.2890   23.2440   37.5440 H   0  0  0  0  0  0  0  0  0  0  0  0
   37.8150   23.4580   37.8020 H   0  0  0  0  0  0  0  0  0  0  0  0
   36.4440   19.7870   34.0990 H   0  0  0  0  0  0  0  0  0  0  0  0
   35.4720   21.0800   34.8040 H   0  0  0  0  0  0  0  0  0  0  0  0
   34.0580   20.8080   32.8620 H   0  0  0  0  0  0  0  0  0  0  0  0
   35.3680   20.0380   31.9260 H   0  0  0  0  0  0  0  0  0  0  0  0
   35.0440   22.9890   32.4560 H   0  0  0  0  0  0  0  0  0  0  0  0
   35.3910   22.1340   30.8900 H   0  0  0  0  0  0  0  0  0  0  0  0
   37.5460   21.5540   31.6230 H   0  0  0  0  0  0  0  0  0  0  0  0
   37.5490   23.6020   32.1090 C   0  0  0  0  0  0  0  0  0  0  0  0
   38.7470   23.8350   31.4660 C   0  0  0  0  0  3  0  0  0  0  0  0
   39.2690   25.0970   31.2530 C   0  0  0  0  0  0  0  0  0  0  0  0
   40.1930   25.3130   30.7600 H   0  0  0  0  0  0  0  0  0  0  0  0
   38.5720   26.1850   31.6960 N   0  0  0  0  0  0  0  0  0  0  0  0
   37.3860   25.9550   32.3310 C   0  0  0  0  0  3  0  0  0  0  0  0
   36.8900   24.7200   32.5340 N   0  0  0  0  0  0  0  0  0  0  0  0
  1  2  1  0  0  0  0
  2  3  2  0  0  0  0
  2 13  1  0  0  0  0
  3 14  1  0  0  0  0
  4  3  1  0  0  0  0
  5  4  2  0  0  0  0
  6  5  1  0  0  0  0
  6  1  2  0  0  0  0
  7  8  1  0  0  0  0
  7  5  1  0  0  0  0
  8 15  1  0  0  0  0
  8 16  1  0  0  0  0
  9 17  1  0  0  0  0
  9  8  1  0  0  0  0
 10 11  1  0  0  0  0
 10 19  1  0  0  0  0
 10  9  1  0  0  0  0
 11 21  1  6  0  0  0
 11  7  1  0  0  0  0
 12  1  1  0  0  0  0
 18  9  1  0  0  0  0
 20 10  1  0  0  0  0
 22 11  1  0  0  0  0
 22 28  1  0  0  0  0
 23 22  2  0  0  0  0
 24 23  1  0  0  0  0
 24 26  2  0  0  0  0
 25 24  1  0  0  0  0
 26 27  1  0  0  0  0
 27 28  2  0  0  0  0
M  END
>  <minimizedAffinity>
-4.22088718

$$$$

 OpenBabel03262523203D

 28 30  0  0  1  0  0  0  0  0999 V2000
   41.5190   22.3700   33.5280 C   0  0  0  0  0  0  0  0  0  0  0  0
   42.8030   22.8780   33.8050 C   0  0  0  0  0  0  0  0  0  0  0  0
   43.0100   23.5350   35.0200 C   0  0  0  0  0  0  0  0  0  0  0  0
   41.9550   23.6390   35.8600 N   0  0  0  0  0  0  0  0  0  0  0  0
   40.7410   23.1500   35.5840 C   0  0  0  0  0  0  0  0  0  0  0  0
   40.5100   22.5160   34.4260 N   0  0  0  0  0  0  0  0  0  0  0  0
   39.6750   23.3060   36.5360 N   0  0  0  0  0  0  0  0  0  0  0  0
   39.7660   22.8100   37.8980 C   0  0  0  0  0  0  0  0  0  0  0  0
   38.5970   23.3870   38.6070 C   0  0  0  0  0  0  0  0  0  0  0  0
   38.0670   24.4730   37.6870 C   0  0  0  0  0  0  0  0  0  0  0  0
   38.4070   23.9380   36.3240 C   0  0  1  0  0  0  0  0  0  0  0  0
   41.4400   21.8850   32.5840 H   0  0  0  0  0  0  0  0  0  0  0  0
   43.6330   22.7840   33.1180 H   0  0  0  0  0  0  0  0  0  0  0  0
   43.9760   23.9520   35.2970 H   0  0  0  0  0  0  0  0  0  0  0  0
   39.8330   21.7000   37.9120 H   0  0  0  0  0  0  0  0  0  0  0  0
   40.7330   23.1680   38.2970 H   0  0  0  0  0  0  0  0  0  0  0  0
   38.8050   23.7630   39.6300 H   0  0  0  0  0  0  0  0  0  0  0  0
   37.7420   22.6600   38.7150 H   0  0  0  0  0  0  0  0  0  0  0  0
   38.6820   25.3850   37.8270 H   0  0  0  0  0  0  0  0  0  0  0  0
   37.0050   24.6840   37.8030 H   0  0  0  0  0  0  0  0  0  0  0  0
   37.6000   23.1810   36.0990 H   0  0  0  0  0  0  0  0  0  0  0  0
   38.3650   24.9630   35.2790 C   0  0  0  0  0  0  0  0  0  0  0  0
   38.7970   26.2570   35.4810 C   0  0  0  0  0  3  0  0  0  0  0  0
   38.7650   27.2370   34.5070 C   0  0  0  0  0  0  0  0  0  0  0  0
   39.0910   28.2470   34.6300 H   0  0  0  0  0  0  0  0  0  0  0  0
   38.2800   26.9220   33.2690 N   0  0  0  0  0  0  0  0  0  0  0  0
   37.8520   25.6420   33.0680 C   0  0  0  0  0  3  0  0  0  0  0  0
   37.8890   24.6980   34.0260 N   0  0  0  0  0  0  0  0  0  0  0  0
  1  2  2  0  0  0  0
  1  6  1  0  0  0  0
  2  3  1  0  0  0  0
  3 14  1  0  0  0  0
  3  4  2  0  0  0  0
  5  4  1  0  0  0  0
  5  7  1  0  0  0  0
  6  5  2  0  0  0  0
  7  8  1  0  0  0  0
  8 15  1  0  0  0  0
  8 16  1  0  0  0  0
  8  9  1  0  0  0  0
  9 18  1  0  0  0  0
  9 17  1  0  0  0  0
 10 20  1  0  0  0  0
 10 19  1  0  0  0  0
 10  9  1  0  0  0  0
 11 21  1  6  0  0  0
 11  7  1  0  0  0  0
 11 10  1  0  0  0  0
 12  1  1  0  0  0  0
 13  2  1  0  0  0  0
 22 23  1  0  0  0  0
 22 11  1  0  0  0  0
 24 25  1  0  0  0  0
 24 23  2  0  0  0  0
 26 24  1  0  0  0  0
 27 26  2  0  0  0  0
 27 28  1  0  0  0  0
 28 22  2  0  0  0  0
M  END
>  <minimizedAffinity>
-4.20908022

$$$$
