
 OpenBabel03272506553D

 18 19  0  0  0  0  0  0  0  0999 V2000
   35.7500   30.0440   48.0630 C   0  0  0  0  0  0  0  0  0  0  0  0
   36.2200   29.8050   49.3550 C   0  0  0  0  0  0  0  0  0  0  0  0
   37.5630   30.1670   49.5890 C   0  0  0  0  0  0  0  0  0  0  0  0
   38.3030   30.7060   48.5910 N   0  0  0  0  0  0  0  0  0  0  0  0
   37.7840   30.9080   47.3670 C   0  0  0  0  0  0  0  0  0  0  0  0
   36.4960   30.5840   47.0660 N   0  0  0  0  0  0  0  0  0  0  0  0
   34.7040   29.7550   47.9040 H   0  0  0  0  0  0  0  0  0  0  0  0
   37.9780   30.0080   50.5560 H   0  0  0  0  0  0  0  0  0  0  0  0
   38.5600   31.4870   46.2750 C   0  0  0  0  0  0  0  0  0  0  0  0
   39.8920   31.1890   46.0970 C   0  0  0  0  0  0  0  0  0  0  0  0
   40.7290   31.6640   45.1160 C   0  0  0  0  0  0  0  0  0  0  0  0
   41.7660   31.3670   45.0650 H   0  0  0  0  0  0  0  0  0  0  0  0
   40.1480   32.5230   44.2400 N   0  0  0  0  0  0  0  0  0  0  0  0
   38.8310   32.8490   44.3730 C   0  0  0  0  0  0  0  0  0  0  0  0
   38.0530   32.3460   45.3650 N   0  0  0  0  0  0  0  0  0  0  0  0
   35.3930   29.2380   50.3530 N   0  0  0  0  0  0  0  0  0  0  0  0
   35.5300   28.2070   50.3350 H   0  0  0  0  0  0  0  0  0  0  0  0
   34.8890   30.0490   50.8080 H   0  0  0  0  0  0  0  0  0  0  0  0
  1  2  1  0  0  0  0
  2  3  2  0  0  0  0
  2 16  1  0  0  0  0
  3  8  1  0  0  0  0
  4  3  1  0  0  0  0
  5  4  2  0  0  0  0
  6  5  1  0  0  0  0
  6  1  2  0  0  0  0
  7  1  1  0  0  0  0
  9  5  1  0  0  0  0
 10  9  1  0  0  0  0
 11 10  2  0  0  0  0
 12 11  1  0  0  0  0
 13 14  2  0  0  0  0
 13 11  1  0  0  0  0
 14 15  1  0  0  0  0
 15  9  2  0  0  0  0
 16 18  1  0  0  0  0
 17 16  1  0  0  0  0
M  END
>  <minimizedAffinity>
-4.27629375

>  <minimizedRMSD>
7.02715063

$$$$
