
 OpenBabel03272500313D

 26 28  0  0  0  0  0  0  0  0999 V2000
   37.7670   23.0340   33.4610 Cl  0  0  0  0  0  0  0  0  0  0  0  0
   36.7510   24.0140   32.4290 C   0  0  0  0  0  0  0  0  0  0  0  0
   36.8790   25.3700   32.5760 C   0  0  0  0  0  0  0  0  0  0  0  0
   36.0730   26.1840   31.7570 C   0  0  0  0  0  0  0  0  0  0  0  0
   35.2130   25.5870   30.8660 C   0  0  0  0  0  0  0  0  0  0  0  0
   35.1440   24.2320   30.7780 C   0  0  0  0  0  0  0  0  0  0  0  0
   35.8960   23.3890   31.5410 C   0  0  0  0  0  0  0  0  0  0  0  0
   36.1590   27.2560   31.8600 H   0  0  0  0  0  0  0  0  0  0  0  0
   34.5830   26.2060   30.2260 H   0  0  0  0  0  0  0  0  0  0  0  0
   34.4510   23.7840   30.0610 H   0  0  0  0  0  0  0  0  0  0  0  0
   38.1530   26.7480   35.7030 C   0  0  0  0  0  0  0  0  0  0  0  0
   39.4940   27.0750   35.4060 C   0  0  0  0  0  0  0  0  0  0  0  0
   39.9420   26.8110   34.1120 C   0  0  0  0  0  0  0  0  0  0  0  0
   39.0710   26.2580   33.2180 N   0  0  0  0  0  0  0  0  0  0  0  0
   37.8110   25.9640   33.5410 C   0  0  0  0  0  0  0  0  0  0  0  0
   37.3570   26.2100   34.7810 N   0  0  0  0  0  0  0  0  0  0  0  0
   37.7190   26.9200   36.6900 H   0  0  0  0  0  0  0  0  0  0  0  0
   40.0830   27.5090   36.2050 H   0  0  0  0  0  0  0  0  0  0  0  0
   40.9490   27.0560   33.8900 H   0  0  0  0  0  0  0  0  0  0  0  0
   35.8690   21.9470   31.4970 C   0  0  0  0  0  0  0  0  0  0  0  0
   34.9620   21.2000   32.2160 C   0  0  0  0  0  3  0  0  0  0  0  0
   34.9670   19.8030   32.1480 C   0  0  0  0  0  0  0  0  0  0  0  0
   34.2330   19.2360   32.7310 H   0  0  0  0  0  0  0  0  0  0  0  0
   35.8580   19.1380   31.3770 N   0  0  0  0  0  0  0  0  0  0  0  0
   36.7360   19.9060   30.6830 C   0  0  0  0  0  3  0  0  0  0  0  0
   36.7230   21.2450   30.7550 N   0  0  0  0  0  0  0  0  0  0  0  0
  2  3  1  0  0  0  0
  2  1  1  0  0  0  0
  3 15  1  0  0  0  0
  4  8  1  0  0  0  0
  4  3  2  0  0  0  0
  5  4  1  0  0  0  0
  6  5  2  0  0  0  0
  6  7  1  0  0  0  0
  7  2  2  0  0  0  0
  9  5  1  0  0  0  0
 10  6  1  0  0  0  0
 11 17  1  0  0  0  0
 12 11  1  0  0  0  0
 12 18  1  0  0  0  0
 13 12  2  0  0  0  0
 14 15  2  0  0  0  0
 14 13  1  0  0  0  0
 15 16  1  0  0  0  0
 16 11  2  0  0  0  0
 19 13  1  0  0  0  0
 20  7  1  0  0  0  0
 20 21  1  0  0  0  0
 22 21  2  0  0  0  0
 22 23  1  0  0  0  0
 24 22  1  0  0  0  0
 25 26  1  0  0  0  0
 25 24  2  0  0  0  0
 26 20  2  0  0  0  0
M  END
>  <minimizedAffinity>
-5.0551877

$$$$

 OpenBabel03272500313D

 26 28  0  0  0  0  0  0  0  0999 V2000
   37.7860   23.1400   33.5180 Cl  0  0  0  0  0  0  0  0  0  0  0  0
   36.8030   24.1640   32.4970 C   0  0  0  0  0  0  0  0  0  0  0  0
   35.9760   23.5160   31.6170 C   0  0  0  0  0  0  0  0  0  0  0  0
   35.1720   24.3160   30.7830 C   0  0  0  0  0  0  0  0  0  0  0  0
   35.2560   25.6840   30.8900 C   0  0  0  0  0  0  0  0  0  0  0  0
   36.1010   26.2530   31.7900 C   0  0  0  0  0  0  0  0  0  0  0  0
   36.9050   25.5370   32.6260 C   0  0  0  0  0  0  0  0  0  0  0  0
   34.5150   23.8220   30.0820 H   0  0  0  0  0  0  0  0  0  0  0  0
   34.6390   26.3150   30.2500 H   0  0  0  0  0  0  0  0  0  0  0  0
   36.1470   27.3440   31.8550 H   0  0  0  0  0  0  0  0  0  0  0  0
   34.8710   20.0930   32.2190 C   0  0  0  0  0  0  0  0  0  0  0  0
   35.7490   19.3120   31.4370 C   0  0  0  0  0  0  0  0  0  0  0  0
   36.7230   19.9910   30.7040 C   0  0  0  0  0  0  0  0  0  0  0  0
   36.7710   21.3530   30.7830 N   0  0  0  0  0  0  0  0  0  0  0  0
   35.9200   22.0520   31.5360 C   0  0  0  0  0  0  0  0  0  0  0  0
   34.9750   21.4200   32.2500 N   0  0  0  0  0  0  0  0  0  0  0  0
   34.0800   19.6460   32.8240 H   0  0  0  0  0  0  0  0  0  0  0  0
   35.6060   18.2390   31.4590 H   0  0  0  0  0  0  0  0  0  0  0  0
   37.3810   19.4040   30.1160 H   0  0  0  0  0  0  0  0  0  0  0  0
   37.8220   26.0790   33.5990 C   0  0  0  0  0  0  0  0  0  0  0  0
   37.4390   26.3950   34.8840 C   0  0  0  0  0  3  0  0  0  0  0  0
   38.3560   26.9180   35.8000 C   0  0  0  0  0  0  0  0  0  0  0  0
   38.0210   27.1610   36.8150 H   0  0  0  0  0  0  0  0  0  0  0  0
   39.6490   27.1310   35.4600 N   0  0  0  0  0  0  0  0  0  0  0  0
   39.9900   26.8070   34.1870 C   0  0  0  0  0  3  0  0  0  0  0  0
   39.1040   26.3060   33.3160 N   0  0  0  0  0  0  0  0  0  0  0  0
  2  7  1  0  0  0  0
  2  1  1  0  0  0  0
  3  2  2  0  0  0  0
  4  5  2  0  0  0  0
  4  3  1  0  0  0  0
  5  6  1  0  0  0  0
  6 10  1  0  0  0  0
  6  7  2  0  0  0  0
  7 20  1  0  0  0  0
  8  4  1  0  0  0  0
  9  5  1  0  0  0  0
 11 16  1  0  0  0  0
 11 17  1  0  0  0  0
 12 18  1  0  0  0  0
 12 11  2  0  0  0  0
 13 14  2  0  0  0  0
 13 12  1  0  0  0  0
 14 15  1  0  0  0  0
 15  3  1  0  0  0  0
 15 16  2  0  0  0  0
 19 13  1  0  0  0  0
 20 21  1  0  0  0  0
 21 22  2  0  0  0  0
 22 23  1  0  0  0  0
 24 22  1  0  0  0  0
 25 24  2  0  0  0  0
 26 20  2  0  0  0  0
 26 25  1  0  0  0  0
M  END
>  <minimizedAffinity>
-4.93140173

$$$$

 OpenBabel03272500313D

 26 28  0  0  0  0  0  0  0  0999 V2000
   40.5670   24.5090   34.3140 Cl  0  0  0  0  0  0  0  0  0  0  0  0
   39.8440   24.0290   35.8330 C   0  0  0  0  0  0  0  0  0  0  0  0
   38.6590   24.6400   36.1510 C   0  0  0  0  0  0  0  0  0  0  0  0
   38.0540   24.2720   37.3680 C   0  0  0  0  0  0  0  0  0  0  0  0
   38.6710   23.3350   38.1630 C   0  0  0  0  0  0  0  0  0  0  0  0
   39.8470   22.7730   37.7770 C   0  0  0  0  0  0  0  0  0  0  0  0
   40.4850   23.0840   36.6120 C   0  0  0  0  0  0  0  0  0  0  0  0
   37.1200   24.7450   37.6370 H   0  0  0  0  0  0  0  0  0  0  0  0
   38.2130   23.0420   39.1080 H   0  0  0  0  0  0  0  0  0  0  0  0
   40.3160   22.0300   38.4270 H   0  0  0  0  0  0  0  0  0  0  0  0
   37.0560   26.0890   33.2140 C   0  0  0  0  0  0  0  0  0  0  0  0
   36.8590   27.4410   33.5700 C   0  0  0  0  0  0  0  0  0  0  0  0
   37.2900   27.8350   34.8370 C   0  0  0  0  0  0  0  0  0  0  0  0
   37.8690   26.9040   35.6500 N   0  0  0  0  0  0  0  0  0  0  0  0
   38.0360   25.6360   35.2730 C   0  0  0  0  0  0  0  0  0  0  0  0
   37.6290   25.2340   34.0580 N   0  0  0  0  0  0  0  0  0  0  0  0
   36.7500   25.6950   32.2430 H   0  0  0  0  0  0  0  0  0  0  0  0
   36.3870   28.0800   32.8330 H   0  0  0  0  0  0  0  0  0  0  0  0
   37.1410   28.8500   35.1030 H   0  0  0  0  0  0  0  0  0  0  0  0
   41.7310   22.5260   36.1460 C   0  0  0  0  0  0  0  0  0  0  0  0
   42.9550   23.0540   36.4930 C   0  0  0  0  0  3  0  0  0  0  0  0
   44.1420   22.4850   36.0220 C   0  0  0  0  0  0  0  0  0  0  0  0
   45.1010   22.9280   36.3140 H   0  0  0  0  0  0  0  0  0  0  0  0
   44.1320   21.4000   35.2130 N   0  0  0  0  0  0  0  0  0  0  0  0
   42.9090   20.9070   34.8930 C   0  0  0  0  0  3  0  0  0  0  0  0
   41.7760   21.4590   35.3500 N   0  0  0  0  0  0  0  0  0  0  0  0
  1  2  1  0  0  0  0
  2  3  2  0  0  0  0
  2  7  1  0  0  0  0
  3  4  1  0  0  0  0
  4  8  1  0  0  0  0
  4  5  2  0  0  0  0
  5  9  1  0  0  0  0
  6  5  1  0  0  0  0
  6 10  1  0  0  0  0
  7  6  2  0  0  0  0
 11 12  2  0  0  0  0
 11 16  1  0  0  0  0
 12 13  1  0  0  0  0
 13 19  1  0  0  0  0
 13 14  2  0  0  0  0
 15 14  1  0  0  0  0
 15  3  1  0  0  0  0
 16 15  2  0  0  0  0
 17 11  1  0  0  0  0
 18 12  1  0  0  0  0
 20 21  1  0  0  0  0
 20  7  1  0  0  0  0
 22 23  1  0  0  0  0
 22 21  2  0  0  0  0
 24 22  1  0  0  0  0
 25 24  2  0  0  0  0
 25 26  1  0  0  0  0
 26 20  2  0  0  0  0
M  END
>  <minimizedAffinity>
-4.87326431

$$$$

 OpenBabel03272500313D

 26 28  0  0  0  0  0  0  0  0999 V2000
   38.0870   27.0920   33.4250 Cl  0  0  0  0  0  0  0  0  0  0  0  0
   37.1420   25.9010   32.5600 C   0  0  0  0  0  0  0  0  0  0  0  0
   37.4400   24.5910   32.8270 C   0  0  0  0  0  0  0  0  0  0  0  0
   36.6950   23.6100   32.1440 C   0  0  0  0  0  0  0  0  0  0  0  0
   35.7210   24.0100   31.2600 C   0  0  0  0  0  0  0  0  0  0  0  0
   35.4830   25.3320   31.0490 C   0  0  0  0  0  0  0  0  0  0  0  0
   36.1680   26.3300   31.6770 C   0  0  0  0  0  0  0  0  0  0  0  0
   36.9170   22.5720   32.3410 H   0  0  0  0  0  0  0  0  0  0  0  0
   35.1360   23.2610   30.7250 H   0  0  0  0  0  0  0  0  0  0  0  0
   34.7020   25.6220   30.3410 H   0  0  0  0  0  0  0  0  0  0  0  0
   39.0440   23.6950   35.9770 C   0  0  0  0  0  0  0  0  0  0  0  0
   40.3960   23.4950   35.6230 C   0  0  0  0  0  0  0  0  0  0  0  0
   40.7360   23.6760   34.2820 C   0  0  0  0  0  0  0  0  0  0  0  0
   39.7560   24.0310   33.4000 N   0  0  0  0  0  0  0  0  0  0  0  0
   38.4890   24.2100   33.7790 C   0  0  0  0  0  0  0  0  0  0  0  0
   38.1390   24.0410   35.0640 N   0  0  0  0  0  0  0  0  0  0  0  0
   38.6900   23.5750   37.0020 H   0  0  0  0  0  0  0  0  0  0  0  0
   41.0770   23.2150   36.4170 H   0  0  0  0  0  0  0  0  0  0  0  0
   41.7510   23.5250   34.0170 H   0  0  0  0  0  0  0  0  0  0  0  0
   35.9650   27.7470   31.4980 C   0  0  0  0  0  0  0  0  0  0  0  0
   36.6060   28.4700   30.5160 C   0  0  0  0  0  3  0  0  0  0  0  0
   36.3840   29.8420   30.3730 C   0  0  0  0  0  0  0  0  0  0  0  0
   36.9080   30.3900   29.5820 H   0  0  0  0  0  0  0  0  0  0  0  0
   35.5350   30.5090   31.1890 N   0  0  0  0  0  0  0  0  0  0  0  0
   34.9210   29.7650   32.1440 C   0  0  0  0  0  3  0  0  0  0  0  0
   35.1410   28.4490   32.2740 N   0  0  0  0  0  0  0  0  0  0  0  0
  2  3  1  0  0  0  0
  2  1  1  0  0  0  0
  3 15  1  0  0  0  0
  4  8  1  0  0  0  0
  4  3  2  0  0  0  0
  5  4  1  0  0  0  0
  6  5  2  0  0  0  0
  6  7  1  0  0  0  0
  7  2  2  0  0  0  0
  9  5  1  0  0  0  0
 10  6  1  0  0  0  0
 11 17  1  0  0  0  0
 12 11  1  0  0  0  0
 12 18  1  0  0  0  0
 13 12  2  0  0  0  0
 14 15  2  0  0  0  0
 14 13  1  0  0  0  0
 15 16  1  0  0  0  0
 16 11  2  0  0  0  0
 19 13  1  0  0  0  0
 20  7  1  0  0  0  0
 20 26  1  0  0  0  0
 21 20  2  0  0  0  0
 22 21  1  0  0  0  0
 22 24  2  0  0  0  0
 23 22  1  0  0  0  0
 24 25  1  0  0  0  0
 25 26  2  0  0  0  0
M  END
>  <minimizedAffinity>
-4.65962553

$$$$

 OpenBabel03272500313D

 26 28  0  0  0  0  0  0  0  0999 V2000
   36.3410   28.1170   34.6810 Cl  0  0  0  0  0  0  0  0  0  0  0  0
   36.1530   28.9450   33.1530 C   0  0  0  0  0  0  0  0  0  0  0  0
   35.5450   30.1720   33.2080 C   0  0  0  0  0  0  0  0  0  0  0  0
   35.3810   30.8620   31.9910 C   0  0  0  0  0  0  0  0  0  0  0  0
   35.8310   30.2800   30.8290 C   0  0  0  0  0  0  0  0  0  0  0  0
   36.4260   29.0580   30.8570 C   0  0  0  0  0  0  0  0  0  0  0  0
   36.6150   28.3380   32.0000 C   0  0  0  0  0  0  0  0  0  0  0  0
   34.9020   31.8300   32.0150 H   0  0  0  0  0  0  0  0  0  0  0  0
   35.7100   30.8040   29.8810 H   0  0  0  0  0  0  0  0  0  0  0  0
   36.7740   28.6190   29.9190 H   0  0  0  0  0  0  0  0  0  0  0  0
   33.3370   30.9930   35.9920 C   0  0  0  0  0  0  0  0  0  0  0  0
   34.1340   31.8080   36.8250 C   0  0  0  0  0  0  0  0  0  0  0  0
   35.4390   32.0650   36.4050 C   0  0  0  0  0  0  0  0  0  0  0  0
   35.8670   31.5200   35.2290 N   0  0  0  0  0  0  0  0  0  0  0  0
   35.0800   30.7540   34.4710 C   0  0  0  0  0  0  0  0  0  0  0  0
   33.8200   30.4940   34.8550 N   0  0  0  0  0  0  0  0  0  0  0  0
   32.3050   30.7420   36.2420 H   0  0  0  0  0  0  0  0  0  0  0  0
   33.6760   32.1790   37.7330 H   0  0  0  0  0  0  0  0  0  0  0  0
   36.0360   32.6760   37.0320 H   0  0  0  0  0  0  0  0  0  0  0  0
   37.2360   27.0400   32.0970 C   0  0  0  0  0  0  0  0  0  0  0  0
   38.6020   26.8750   32.1680 C   0  0  0  0  0  3  0  0  0  0  0  0
   39.1680   25.6000   32.2610 C   0  0  0  0  0  0  0  0  0  0  0  0
   40.2580   25.5000   32.3170 H   0  0  0  0  0  0  0  0  0  0  0  0
   38.3990   24.4870   32.2860 N   0  0  0  0  0  0  0  0  0  0  0  0
   37.0580   24.6880   32.2140 C   0  0  0  0  0  3  0  0  0  0  0  0
   36.5250   25.9140   32.1250 N   0  0  0  0  0  0  0  0  0  0  0  0
  2  3  1  0  0  0  0
  2  1  1  0  0  0  0
  3 15  1  0  0  0  0
  4  8  1  0  0  0  0
  4  3  2  0  0  0  0
  5  6  2  0  0  0  0
  5  4  1  0  0  0  0
  6  7  1  0  0  0  0
  7 20  1  0  0  0  0
  7  2  2  0  0  0  0
  9  5  1  0  0  0  0
 10  6  1  0  0  0  0
 11 17  1  0  0  0  0
 11 12  1  0  0  0  0
 12 18  1  0  0  0  0
 13 12  2  0  0  0  0
 13 19  1  0  0  0  0
 14 13  1  0  0  0  0
 15 16  1  0  0  0  0
 15 14  2  0  0  0  0
 16 11  2  0  0  0  0
 20 26  2  0  0  0  0
 20 21  1  0  0  0  0
 21 22  2  0  0  0  0
 22 24  1  0  0  0  0
 22 23  1  0  0  0  0
 25 24  2  0  0  0  0
 26 25  1  0  0  0  0
M  END
>  <minimizedAffinity>
-4.65066099

$$$$

 OpenBabel03272500313D

 26 28  0  0  0  0  0  0  0  0999 V2000
   38.0580   27.0290   33.3840 Cl  0  0  0  0  0  0  0  0  0  0  0  0
   37.1050   25.8360   32.5310 C   0  0  0  0  0  0  0  0  0  0  0  0
   36.1540   26.3280   31.6770 C   0  0  0  0  0  0  0  0  0  0  0  0
   35.3720   25.3900   30.9770 C   0  0  0  0  0  0  0  0  0  0  0  0
   35.5970   24.0490   31.1820 C   0  0  0  0  0  0  0  0  0  0  0  0
   36.5610   23.6380   32.0480 C   0  0  0  0  0  0  0  0  0  0  0  0
   37.3530   24.4940   32.7560 C   0  0  0  0  0  0  0  0  0  0  0  0
   34.6160   25.7600   30.2990 H   0  0  0  0  0  0  0  0  0  0  0  0
   34.9980   23.3120   30.6470 H   0  0  0  0  0  0  0  0  0  0  0  0
   36.7200   22.5660   32.1920 H   0  0  0  0  0  0  0  0  0  0  0  0
   36.4870   29.6820   30.2830 C   0  0  0  0  0  0  0  0  0  0  0  0
   35.6150   30.4630   31.0720 C   0  0  0  0  0  0  0  0  0  0  0  0
   34.9160   29.8090   32.0870 C   0  0  0  0  0  0  0  0  0  0  0  0
   35.1120   28.4690   32.2570 N   0  0  0  0  0  0  0  0  0  0  0  0
   35.9480   27.7680   31.4880 C   0  0  0  0  0  0  0  0  0  0  0  0
   36.6310   28.3770   30.5060 N   0  0  0  0  0  0  0  0  0  0  0  0
   37.0730   30.1110   29.4690 H   0  0  0  0  0  0  0  0  0  0  0  0
   35.5480   31.5180   30.8340 H   0  0  0  0  0  0  0  0  0  0  0  0
   34.2610   30.3960   32.6770 H   0  0  0  0  0  0  0  0  0  0  0  0
   38.3900   24.1240   33.6880 C   0  0  0  0  0  0  0  0  0  0  0  0
   39.6860   23.8730   33.2940 C   0  0  0  0  0  3  0  0  0  0  0  0
   40.6640   23.5160   34.2260 C   0  0  0  0  0  0  0  0  0  0  0  0
   41.6870   23.3230   33.8820 H   0  0  0  0  0  0  0  0  0  0  0  0
   40.3760   23.4060   35.5440 N   0  0  0  0  0  0  0  0  0  0  0  0
   39.0900   23.6600   35.8950 C   0  0  0  0  0  3  0  0  0  0  0  0
   38.1590   24.0020   34.9940 N   0  0  0  0  0  0  0  0  0  0  0  0
  2  7  1  0  0  0  0
  2  1  1  0  0  0  0
  3  2  2  0  0  0  0
  4  5  2  0  0  0  0
  4  3  1  0  0  0  0
  5  6  1  0  0  0  0
  6 10  1  0  0  0  0
  6  7  2  0  0  0  0
  7 20  1  0  0  0  0
  8  4  1  0  0  0  0
  9  5  1  0  0  0  0
 11 16  2  0  0  0  0
 11 12  1  0  0  0  0
 12 13  2  0  0  0  0
 13 14  1  0  0  0  0
 13 19  1  0  0  0  0
 15  3  1  0  0  0  0
 15 14  2  0  0  0  0
 16 15  1  0  0  0  0
 17 11  1  0  0  0  0
 18 12  1  0  0  0  0
 20 26  1  0  0  0  0
 21 20  2  0  0  0  0
 21 22  1  0  0  0  0
 22 24  2  0  0  0  0
 23 22  1  0  0  0  0
 24 25  1  0  0  0  0
 26 25  2  0  0  0  0
M  END
>  <minimizedAffinity>
-4.63777208

$$$$

 OpenBabel03272500313D

 26 28  0  0  0  0  0  0  0  0999 V2000
   36.2770   28.1340   34.6240 Cl  0  0  0  0  0  0  0  0  0  0  0  0
   36.1050   29.0580   33.1490 C   0  0  0  0  0  0  0  0  0  0  0  0
   36.6040   28.4750   32.0150 C   0  0  0  0  0  0  0  0  0  0  0  0
   36.4790   29.1970   30.8120 C   0  0  0  0  0  0  0  0  0  0  0  0
   35.8730   30.4300   30.8370 C   0  0  0  0  0  0  0  0  0  0  0  0
   35.4010   30.9430   32.0050 C   0  0  0  0  0  0  0  0  0  0  0  0
   35.4900   30.2950   33.2010 C   0  0  0  0  0  0  0  0  0  0  0  0
   36.8690   28.7530   29.9080 H   0  0  0  0  0  0  0  0  0  0  0  0
   35.7690   31.0000   29.9130 H   0  0  0  0  0  0  0  0  0  0  0  0
   34.9220   31.9250   31.9950 H   0  0  0  0  0  0  0  0  0  0  0  0
   36.9820   24.8490   31.9010 C   0  0  0  0  0  0  0  0  0  0  0  0
   38.3700   24.6490   32.0620 C   0  0  0  0  0  0  0  0  0  0  0  0
   39.1640   25.7870   32.2100 C   0  0  0  0  0  0  0  0  0  0  0  0
   38.5620   27.0120   32.1900 N   0  0  0  0  0  0  0  0  0  0  0  0
   37.2450   27.1550   32.0350 C   0  0  0  0  0  0  0  0  0  0  0  0
   36.4610   26.0750   31.8920 N   0  0  0  0  0  0  0  0  0  0  0  0
   36.2870   24.0170   31.7800 H   0  0  0  0  0  0  0  0  0  0  0  0
   38.7230   23.6250   32.0600 H   0  0  0  0  0  0  0  0  0  0  0  0
   40.2060   25.6350   32.3300 H   0  0  0  0  0  0  0  0  0  0  0  0
   35.0120   30.7830   34.4720 C   0  0  0  0  0  0  0  0  0  0  0  0
   35.8010   31.5190   35.3290 C   0  0  0  0  0  3  0  0  0  0  0  0
   35.3020   31.9740   36.5530 C   0  0  0  0  0  0  0  0  0  0  0  0
   35.9540   32.5580   37.2130 H   0  0  0  0  0  0  0  0  0  0  0  0
   34.0320   31.7110   36.9390 N   0  0  0  0  0  0  0  0  0  0  0  0
   33.2850   30.9840   36.0700 C   0  0  0  0  0  3  0  0  0  0  0  0
   33.7710   30.5520   34.8980 N   0  0  0  0  0  0  0  0  0  0  0  0
  2  7  1  0  0  0  0
  2  1  1  0  0  0  0
  3 15  1  0  0  0  0
  3  2  2  0  0  0  0
  4  5  2  0  0  0  0
  4  3  1  0  0  0  0
  5  6  1  0  0  0  0
  6  7  2  0  0  0  0
  7 20  1  0  0  0  0
  8  4  1  0  0  0  0
  9  5  1  0  0  0  0
 10  6  1  0  0  0  0
 11 12  1  0  0  0  0
 12 13  2  0  0  0  0
 13 19  1  0  0  0  0
 14 13  1  0  0  0  0
 15 14  2  0  0  0  0
 16 11  2  0  0  0  0
 16 15  1  0  0  0  0
 17 11  1  0  0  0  0
 18 12  1  0  0  0  0
 20 26  2  0  0  0  0
 20 21  1  0  0  0  0
 21 22  2  0  0  0  0
 22 24  1  0  0  0  0
 22 23  1  0  0  0  0
 25 24  2  0  0  0  0
 26 25  1  0  0  0  0
M  END
>  <minimizedAffinity>
-4.61936855

$$$$

 OpenBabel03272500313D

 26 28  0  0  0  0  0  0  0  0999 V2000
   38.5300   25.5990   34.4100 Cl  0  0  0  0  0  0  0  0  0  0  0  0
   37.8840   24.1450   33.6850 C   0  0  0  0  0  0  0  0  0  0  0  0
   37.3760   24.2810   32.4200 C   0  0  0  0  0  0  0  0  0  0  0  0
   36.8490   23.1250   31.8110 C   0  0  0  0  0  0  0  0  0  0  0  0
   36.8720   21.9380   32.5050 C   0  0  0  0  0  0  0  0  0  0  0  0
   37.3950   21.8830   33.7590 C   0  0  0  0  0  0  0  0  0  0  0  0
   37.9200   22.9640   34.4040 C   0  0  0  0  0  0  0  0  0  0  0  0
   36.4430   23.2140   30.8150 H   0  0  0  0  0  0  0  0  0  0  0  0
   36.4680   21.0360   32.0450 H   0  0  0  0  0  0  0  0  0  0  0  0
   37.4010   20.9270   34.2870 H   0  0  0  0  0  0  0  0  0  0  0  0
   36.2080   27.5150   31.2050 C   0  0  0  0  0  0  0  0  0  0  0  0
   37.2870   27.9940   30.4300 C   0  0  0  0  0  0  0  0  0  0  0  0
   38.4160   27.1800   30.3390 C   0  0  0  0  0  0  0  0  0  0  0  0
   38.4140   25.9830   30.9950 N   0  0  0  0  0  0  0  0  0  0  0  0
   37.3720   25.5680   31.7170 C   0  0  0  0  0  0  0  0  0  0  0  0
   36.2740   26.3350   31.8190 N   0  0  0  0  0  0  0  0  0  0  0  0
   35.2860   28.0860   31.3310 H   0  0  0  0  0  0  0  0  0  0  0  0
   37.1630   28.9620   29.9600 H   0  0  0  0  0  0  0  0  0  0  0  0
   39.2250   27.5410   29.7580 H   0  0  0  0  0  0  0  0  0  0  0  0
   38.4880   22.9730   35.7300 C   0  0  0  0  0  0  0  0  0  0  0  0
   39.7860   22.5850   35.9830 C   0  0  0  0  0  3  0  0  0  0  0  0
   40.3020   22.6070   37.2820 C   0  0  0  0  0  0  0  0  0  0  0  0
   41.3380   22.2920   37.4530 H   0  0  0  0  0  0  0  0  0  0  0  0
   39.5500   23.0090   38.3330 N   0  0  0  0  0  0  0  0  0  0  0  0
   38.2780   23.3840   38.0460 C   0  0  0  0  0  3  0  0  0  0  0  0
   37.7920   23.3600   36.7970 N   0  0  0  0  0  0  0  0  0  0  0  0
  2  7  1  0  0  0  0
  2  1  1  0  0  0  0
  3  2  2  0  0  0  0
  4  3  1  0  0  0  0
  4  5  2  0  0  0  0
  5  6  1  0  0  0  0
  6 10  1  0  0  0  0
  6  7  2  0  0  0  0
  7 20  1  0  0  0  0
  8  4  1  0  0  0  0
  9  5  1  0  0  0  0
 11 17  1  0  0  0  0
 11 16  1  0  0  0  0
 12 11  2  0  0  0  0
 13 12  1  0  0  0  0
 13 14  2  0  0  0  0
 14 15  1  0  0  0  0
 15 16  2  0  0  0  0
 15  3  1  0  0  0  0
 18 12  1  0  0  0  0
 19 13  1  0  0  0  0
 20 21  2  0  0  0  0
 20 26  1  0  0  0  0
 21 22  1  0  0  0  0
 22 23  1  0  0  0  0
 22 24  2  0  0  0  0
 25 24  1  0  0  0  0
 26 25  2  0  0  0  0
M  END
>  <minimizedAffinity>
-4.58659744

$$$$

 OpenBabel03272500313D

 26 28  0  0  0  0  0  0  0  0999 V2000
   38.4140   25.5760   34.3680 Cl  0  0  0  0  0  0  0  0  0  0  0  0
   37.8320   24.0970   33.6400 C   0  0  0  0  0  0  0  0  0  0  0  0
   37.8830   22.9790   34.4310 C   0  0  0  0  0  0  0  0  0  0  0  0
   37.4200   21.7740   33.8700 C   0  0  0  0  0  0  0  0  0  0  0  0
   36.9480   21.7780   32.5780 C   0  0  0  0  0  0  0  0  0  0  0  0
   36.9280   22.9300   31.8570 C   0  0  0  0  0  0  0  0  0  0  0  0
   37.3610   24.1290   32.3400 C   0  0  0  0  0  0  0  0  0  0  0  0
   37.4540   20.8820   34.4780 H   0  0  0  0  0  0  0  0  0  0  0  0
   36.5860   20.8510   32.1320 H   0  0  0  0  0  0  0  0  0  0  0  0
   36.5470   22.9050   30.8330 H   0  0  0  0  0  0  0  0  0  0  0  0
   37.9560   23.4570   38.0460 C   0  0  0  0  0  0  0  0  0  0  0  0
   39.2810   23.1230   38.4030 C   0  0  0  0  0  0  0  0  0  0  0  0
   40.1390   22.7330   37.3740 C   0  0  0  0  0  0  0  0  0  0  0  0
   39.6560   22.6960   36.0980 N   0  0  0  0  0  0  0  0  0  0  0  0
   38.3960   23.0210   35.8040 C   0  0  0  0  0  0  0  0  0  0  0  0
   37.5520   23.3990   36.7780 N   0  0  0  0  0  0  0  0  0  0  0  0
   37.2180   23.7730   38.7850 H   0  0  0  0  0  0  0  0  0  0  0  0
   39.5400   23.1930   39.4520 H   0  0  0  0  0  0  0  0  0  0  0  0
   41.1320   22.4810   37.6440 H   0  0  0  0  0  0  0  0  0  0  0  0
   37.3680   25.3840   31.6280 C   0  0  0  0  0  0  0  0  0  0  0  0
   36.2590   26.1970   31.5480 C   0  0  0  0  0  3  0  0  0  0  0  0
   36.3030   27.4070   30.8490 C   0  0  0  0  0  0  0  0  0  0  0  0
   35.4050   28.0330   30.8030 H   0  0  0  0  0  0  0  0  0  0  0  0
   37.4320   27.8210   30.2280 N   0  0  0  0  0  0  0  0  0  0  0  0
   38.5040   26.9950   30.3280 C   0  0  0  0  0  3  0  0  0  0  0  0
   38.4520   25.8370   31.0010 N   0  0  0  0  0  0  0  0  0  0  0  0
  2  1  1  0  0  0  0
  2  3  1  0  0  0  0
  3 15  1  0  0  0  0
  4  3  2  0  0  0  0
  4  8  1  0  0  0  0
  5  4  1  0  0  0  0
  6  7  1  0  0  0  0
  6  5  2  0  0  0  0
  7  2  2  0  0  0  0
  9  5  1  0  0  0  0
 10  6  1  0  0  0  0
 11 12  1  0  0  0  0
 11 17  1  0  0  0  0
 12 18  1  0  0  0  0
 13 19  1  0  0  0  0
 13 12  2  0  0  0  0
 14 13  1  0  0  0  0
 15 14  2  0  0  0  0
 15 16  1  0  0  0  0
 16 11  2  0  0  0  0
 20  7  1  0  0  0  0
 21 20  1  0  0  0  0
 22 21  2  0  0  0  0
 23 22  1  0  0  0  0
 24 25  2  0  0  0  0
 24 22  1  0  0  0  0
 25 26  1  0  0  0  0
 26 20  2  0  0  0  0
M  END
>  <minimizedAffinity>
-4.58445692

$$$$
