
 OpenBabel03272508083D

 22 23  0  0  0  0  0  0  0  0999 V2000
   39.0820   32.7650   48.1350 O   0  0  0  0  0  0  0  0  0  0  0  0
   38.6440   31.7260   47.1390 P   0  0  2  0  0  0  0  0  0  0  0  0
   37.4970   32.4090   46.0800 O   0  0  0  0  0  0  0  0  0  0  0  0
   37.4010   33.3770   46.2620 H   0  0  0  0  0  0  0  0  0  0  0  0
   38.0520   30.3040   47.8190 O   0  0  0  0  0  0  0  0  0  0  0  0
   37.3050   30.2170   51.4350 C   0  0  0  0  0  0  0  0  0  0  0  0
   38.0330   30.5320   50.2950 C   0  0  0  0  0  0  0  0  0  0  0  0
   37.5350   30.1230   49.0680 C   0  0  0  0  0  0  0  0  0  0  0  0
   36.3610   29.4320   49.0470 N   0  0  0  0  0  0  0  0  0  0  0  0
   35.6830   29.1460   50.1880 C   0  0  0  0  0  0  0  0  0  0  0  0
   36.1590   29.5380   51.3740 N   0  0  0  0  0  0  0  0  0  0  0  0
   37.7720   30.5770   52.3400 H   0  0  0  0  0  0  0  0  0  0  0  0
   38.9580   31.0680   50.2260 H   0  0  0  0  0  0  0  0  0  0  0  0
   34.7430   28.5920   50.1650 H   0  0  0  0  0  0  0  0  0  0  0  0
   39.9870   31.3500   46.1710 O   0  0  0  0  0  0  0  0  0  0  0  0
   39.9480   30.8370   44.8980 C   0  0  0  0  0  0  0  0  0  0  0  0
   40.6490   31.2270   43.7820 C   0  0  0  0  0  3  0  0  0  0  0  0
   40.4770   30.5830   42.5690 C   0  0  0  0  0  0  0  0  0  0  0  0
   41.0580   30.9310   41.7130 H   0  0  0  0  0  0  0  0  0  0  0  0
   39.6030   29.5500   42.4730 N   0  0  0  0  0  0  0  0  0  0  0  0
   38.9300   29.1890   43.5730 C   0  0  0  0  0  3  0  0  0  0  0  0
   39.0810   29.8030   44.7750 N   0  0  0  0  0  0  0  0  0  0  0  0
  2  5  1  0  0  0  0
  2  1  2  1  0  0  0
  3  4  1  0  0  0  0
  3  2  1  0  0  0  0
  5  8  1  0  0  0  0
  6 12  1  0  0  0  0
  7  6  2  0  0  0  0
  8  7  1  0  0  0  0
  9  8  2  0  0  0  0
  9 10  1  0  0  0  0
 10 11  2  0  0  0  0
 11  6  1  0  0  0  0
 13  7  1  0  0  0  0
 14 10  1  0  0  0  0
 15  2  1  0  0  0  0
 16 15  1  0  0  0  0
 17 16  2  0  0  0  0
 18 17  1  0  0  0  0
 19 18  1  0  0  0  0
 20 18  2  0  0  0  0
 20 21  1  0  0  0  0
 21 22  2  0  0  0  0
 22 16  1  0  0  0  0
M  END
>  <minimizedAffinity>
-5.1510253

>  <minimizedRMSD>
1.27820194

$$$$
