
 OpenBabel03272508453D

 25 27  0  0  0  0  0  0  0  0999 V2000
   35.8520   30.1700   49.9140 C   0  0  0  0  0  0  0  0  0  0  0  0
   36.7320   29.8990   50.9370 C   0  0  0  0  0  0  0  0  0  0  0  0
   37.8380   30.6890   50.6290 C   0  0  0  0  0  0  0  0  0  0  0  0
   37.5800   31.3760   49.4700 C   0  0  0  0  0  0  0  0  0  0  0  0
   36.3750   31.0500   49.0550 O   0  0  0  0  0  0  0  0  0  0  0  0
   36.6200   29.2430   51.7800 H   0  0  0  0  0  0  0  0  0  0  0  0
   38.7650   30.7570   51.2080 H   0  0  0  0  0  0  0  0  0  0  0  0
   38.4500   32.3180   48.7750 C   0  0  0  0  0  0  0  0  0  0  0  0
   38.8440   33.4750   49.4180 C   0  0  0  0  0  0  0  0  0  0  0  0
   39.6780   34.3460   48.7130 C   0  0  0  0  0  0  0  0  0  0  0  0
   39.9650   35.2480   49.2600 H   0  0  0  0  0  0  0  0  0  0  0  0
   40.0690   34.0510   47.4590 N   0  0  0  0  0  0  0  0  0  0  0  0
   39.6720   32.9140   46.8500 C   0  0  0  0  0  0  0  0  0  0  0  0
   38.8580   32.0400   47.5060 N   0  0  0  0  0  0  0  0  0  0  0  0
   34.5130   29.5730   49.7810 C   0  0  0  0  0  0  0  0  0  0  0  0
   33.7170   29.7080   50.7500 O   0  0  0  0  0  0  0  0  0  0  0  0
   33.8260   26.8220   47.5190 C   0  0  0  0  0  0  0  0  0  0  0  0
   33.4750   27.4510   46.3310 C   0  0  0  0  0  0  0  0  0  0  0  0
   33.4710   28.8420   46.2910 C   0  0  0  0  0  0  0  0  0  0  0  0
   33.8120   29.4960   47.4280 N   0  0  0  0  0  0  0  0  0  0  0  0
   34.1480   28.8610   48.5670 C   0  0  0  0  0  0  0  0  0  0  0  0
   34.1510   27.5260   48.6000 N   0  0  0  0  0  0  0  0  0  0  0  0
   33.8420   25.7400   47.5920 H   0  0  0  0  0  0  0  0  0  0  0  0
   33.2160   26.8280   45.4710 H   0  0  0  0  0  0  0  0  0  0  0  0
   33.1980   29.3450   45.3700 H   0  0  0  0  0  0  0  0  0  0  0  0
  1  2  2  0  0  0  0
  2  6  1  0  0  0  0
  3  2  1  0  0  0  0
  3  7  1  0  0  0  0
  4  3  2  0  0  0  0
  5  4  1  0  0  0  0
  5  1  1  0  0  0  0
  8  9  1  0  0  0  0
  8  4  1  0  0  0  0
 10 11  1  0  0  0  0
 10  9  2  0  0  0  0
 12 10  1  0  0  0  0
 13 12  2  0  0  0  0
 13 14  1  0  0  0  0
 14  8  2  0  0  0  0
 15  1  1  0  0  0  0
 15 16  2  0  0  0  0
 17 23  1  0  0  0  0
 17 22  1  0  0  0  0
 18 17  2  0  0  0  0
 19 18  1  0  0  0  0
 19 20  2  0  0  0  0
 20 21  1  0  0  0  0
 21 22  2  0  0  0  0
 21 15  1  0  0  0  0
 24 18  1  0  0  0  0
 25 19  1  0  0  0  0
M  END
>  <minimizedAffinity>
-5.50093174

>  <minimizedRMSD>
2.06767511

$$$$
