
 OpenBabel03272510273D

 43 47  0  0  1  0  0  0  0  0999 V2000
   36.1630   30.2290   46.8690 C   0  0  0  0  0  0  0  0  0  0  0  0
   37.0570   30.7730   47.7910 C   0  0  0  0  0  0  0  0  0  0  0  0
   38.0650   31.6430   47.3890 C   0  0  0  0  0  0  0  0  0  0  0  0
   38.1270   31.9330   46.0310 C   0  0  0  0  0  0  0  0  0  0  0  0
   39.0210   32.7480   45.3990 N   0  0  0  0  0  0  0  0  0  0  0  0
   38.7030   32.7250   44.0970 C   0  0  0  0  0  0  0  0  0  0  0  0
   37.6650   31.9410   43.9000 N   0  0  0  0  0  0  0  0  0  0  0  0
   37.2680   31.4220   45.0880 C   0  0  0  0  0  0  0  0  0  0  0  0
   36.2620   30.5480   45.5190 C   0  0  0  0  0  0  0  0  0  0  0  0
   35.3740   29.5550   47.1500 H   0  0  0  0  0  0  0  0  0  0  0  0
   38.7490   32.0560   48.1140 H   0  0  0  0  0  0  0  0  0  0  0  0
   39.8030   33.2820   45.8700 H   0  0  0  0  0  0  0  0  0  0  0  0
   35.5970   30.1590   44.7580 H   0  0  0  0  0  0  0  0  0  0  0  0
   37.5490   30.1910   51.4650 C   0  0  0  0  0  0  0  0  0  0  0  0
   37.8090   30.6200   50.1780 C   0  0  0  0  0  0  0  0  0  0  0  0
   36.8810   30.3720   49.1730 C   0  0  0  0  0  0  0  0  0  0  0  0
   35.7360   29.7060   49.5120 N   0  0  0  0  0  0  0  0  0  0  0  0
   35.4950   29.2910   50.7810 C   0  0  0  0  0  0  0  0  0  0  0  0
   36.3790   29.5290   51.7260 N   0  0  0  0  0  0  0  0  0  0  0  0
   38.2510   30.3740   52.2420 H   0  0  0  0  0  0  0  0  0  0  0  0
   38.7170   31.1490   49.9130 H   0  0  0  0  0  0  0  0  0  0  0  0
   34.5510   28.7590   50.9740 H   0  0  0  0  0  0  0  0  0  0  0  0
   39.4270   33.4620   43.1450 O   0  0  0  0  0  0  0  0  0  0  0  0
   38.9290   31.6560   41.8400 N   0  0  0  0  0  0  0  0  0  0  0  0
   39.2050   33.1040   41.7880 C   0  0  1  0  0  0  0  0  0  0  0  0
   38.0490   33.7840   41.2180 C   0  0  0  0  0  0  0  0  0  0  0  0
   37.8970   33.3700   39.8820 O   0  0  0  0  0  0  0  0  0  0  0  0
   37.7990   32.0180   39.7030 C   0  0  0  0  0  0  0  0  0  0  0  0
   38.8280   31.2360   40.4570 C   0  0  1  0  0  0  0  0  0  0  0  0
   39.7920   31.2310   42.2500 H   0  0  0  0  0  0  0  0  0  0  0  0
   40.0910   33.3150   41.1790 H   0  0  0  0  0  0  0  0  0  0  0  0
   37.0660   33.7500   41.6020 H   0  0  0  0  0  0  0  0  0  0  0  0
   38.3170   34.8790   41.1130 H   0  0  0  0  0  0  0  0  0  0  0  0
   36.7960   31.7120   40.0950 H   0  0  0  0  0  0  0  0  0  0  0  0
   37.8980   31.8160   38.6250 H   0  0  0  0  0  0  0  0  0  0  0  0
   38.4170   30.1840   40.5170 H   0  0  0  0  0  0  0  0  0  0  0  0
   40.1320   31.1120   39.8040 C   0  0  0  0  0  0  0  0  0  0  0  0
   41.2950   30.5210   40.2050 C   0  0  0  0  0  3  0  0  0  0  0  0
   42.4230   30.5270   39.4110 C   0  0  0  0  0  0  0  0  0  0  0  0
   43.2850   30.0220   39.8440 H   0  0  0  0  0  0  0  0  0  0  0  0
   42.4240   31.1250   38.1860 N   0  0  0  0  0  0  0  0  0  0  0  0
   41.2640   31.7000   37.8170 C   0  0  0  0  0  3  0  0  0  0  0  0
   40.1290   31.7130   38.5760 N   0  0  0  0  0  0  0  0  0  0  0  0
  1 10  1  0  0  0  0
  1  2  1  0  0  0  0
  2 16  1  0  0  0  0
  3  2  2  0  0  0  0
  3 11  1  0  0  0  0
  4  3  1  0  0  0  0
  5 12  1  0  0  0  0
  5  4  1  0  0  0  0
  6  5  1  0  0  0  0
  7  6  2  0  0  0  0
  7  8  1  0  0  0  0
  8  9  1  0  0  0  0
  8  4  2  0  0  0  0
  9  1  2  0  0  0  0
 13  9  1  0  0  0  0
 14 19  1  0  0  0  0
 14 20  1  0  0  0  0
 15 14  2  0  0  0  0
 16 17  2  0  0  0  0
 16 15  1  0  0  0  0
 17 18  1  0  0  0  0
 18 22  1  0  0  0  0
 18 19  2  0  0  0  0
 21 15  1  0  0  0  0
 23  6  1  0  0  0  0
 24 30  1  0  0  0  0
 25 31  1  6  0  0  0
 25 24  1  0  0  0  0
 25 23  1  0  0  0  0
 26 32  1  0  0  0  0
 26 25  1  0  0  0  0
 27 26  1  0  0  0  0
 28 27  1  0  0  0  0
 28 34  1  0  0  0  0
 28 29  1  0  0  0  0
 29 36  1  1  0  0  0
 29 24  1  0  0  0  0
 33 26  1  0  0  0  0
 35 28  1  0  0  0  0
 37 38  1  0  0  0  0
 37 29  1  0  0  0  0
 39 40  1  0  0  0  0
 39 38  2  0  0  0  0
 41 39  1  0  0  0  0
 42 41  2  0  0  0  0
 42 43  1  0  0  0  0
 43 37  2  0  0  0  0
M  END
>  <minimizedAffinity>
-5.9772234

>  <minimizedRMSD>
0.900012374

$$$$
