
 OpenBabel03272507243D

 28 30  0  0  1  0  0  0  0  0999 V2000
   37.2990   29.7490   51.4460 C   0  0  0  0  0  0  0  0  0  0  0  0
   37.9370   30.3030   50.3200 C   0  0  0  0  0  0  0  0  0  0  0  0
   37.1960   30.3970   49.1460 C   0  0  0  0  0  0  0  0  0  0  0  0
   35.9310   29.9490   49.1830 N   0  0  0  0  0  0  0  0  0  0  0  0
   35.3190   29.4200   50.2570 C   0  0  0  0  0  0  0  0  0  0  0  0
   36.0170   29.3220   51.3950 N   0  0  0  0  0  0  0  0  0  0  0  0
   37.7370   30.9370   47.9460 N   0  0  0  0  0  0  0  0  0  0  0  0
   38.7410   31.9980   47.9310 C   0  0  0  0  0  0  0  0  0  0  0  0
   38.9440   32.2990   46.4610 C   0  0  0  0  0  0  0  0  0  0  0  0
   37.6030   31.9210   45.9060 C   0  0  0  0  0  0  0  0  0  0  0  0
   37.4190   30.5680   46.6190 C   0  0  2  0  0  0  0  0  0  0  0  0
   37.9390   29.7060   52.3350 H   0  0  0  0  0  0  0  0  0  0  0  0
   38.9590   30.6510   50.3370 H   0  0  0  0  0  0  0  0  0  0  0  0
   34.3110   29.0690   50.2700 H   0  0  0  0  0  0  0  0  0  0  0  0
   38.3510   32.9050   48.4110 H   0  0  0  0  0  0  0  0  0  0  0  0
   39.6720   31.6230   48.3900 H   0  0  0  0  0  0  0  0  0  0  0  0
   39.0860   33.3830   46.2770 H   0  0  0  0  0  0  0  0  0  0  0  0
   39.6900   31.6460   45.9810 H   0  0  0  0  0  0  0  0  0  0  0  0
   37.6770   31.6840   44.8210 H   0  0  0  0  0  0  0  0  0  0  0  0
   36.7850   32.6020   46.1590 H   0  0  0  0  0  0  0  0  0  0  0  0
   38.0890   29.8180   46.2040 H   0  0  0  0  0  0  0  0  0  0  0  0
   36.0000   30.1910   46.3890 C   0  0  0  0  0  0  0  0  0  0  0  0
   35.7020   29.2380   45.4140 C   0  0  0  0  0  0  0  0  0  0  0  0
   34.4080   28.8360   45.1370 C   0  0  0  0  0  0  0  0  0  0  0  0
   34.2330   28.0910   44.3690 H   0  0  0  0  0  0  0  0  0  0  0  0
   33.4200   29.3960   45.8450 N   0  0  0  0  0  0  0  0  0  0  0  0
   33.6830   30.3260   46.8010 C   0  0  0  0  0  0  0  0  0  0  0  0
   34.9620   30.7070   47.0560 N   0  0  0  0  0  0  0  0  0  0  0  0
  1 12  1  0  0  0  0
  2 13  1  0  0  0  0
  2  1  2  0  0  0  0
  3  4  2  0  0  0  0
  3  2  1  0  0  0  0
  4  5  1  0  0  0  0
  5 14  1  0  0  0  0
  5  6  2  0  0  0  0
  6  1  1  0  0  0  0
  7  3  1  0  0  0  0
  8  7  1  0  0  0  0
  8 16  1  0  0  0  0
  8 15  1  0  0  0  0
  9  8  1  0  0  0  0
 10 20  1  0  0  0  0
 10  9  1  0  0  0  0
 10 11  1  0  0  0  0
 11 21  1  6  0  0  0
 11  7  1  0  0  0  0
 17  9  1  0  0  0  0
 18  9  1  0  0  0  0
 19 10  1  0  0  0  0
 22 11  1  0  0  0  0
 22 28  1  0  0  0  0
 23 22  2  0  0  0  0
 24 23  1  0  0  0  0
 24 26  2  0  0  0  0
 25 24  1  0  0  0  0
 26 27  1  0  0  0  0
 27 28  2  0  0  0  0
M  END
>  <minimizedAffinity>
-4.03395176

>  <minimizedRMSD>
1.20909381

$$$$
