
 OpenBabel03272509463D

 23 24  0  0  0  0  0  0  0  0999 V2000
   34.1200   28.4600   48.5410 C   0  0  0  0  0  0  0  0  0  0  0  0
   34.6880   29.1180   47.8730 H   0  0  0  0  0  0  0  0  0  0  0  0
   33.1550   28.9610   48.7650 H   0  0  0  0  0  0  0  0  0  0  0  0
   33.8150   27.1150   47.9450 C   0  0  0  0  0  0  0  0  0  0  0  0
   33.2240   26.5260   48.6440 H   0  0  0  0  0  0  0  0  0  0  0  0
   34.7760   26.5800   47.7140 H   0  0  0  0  0  0  0  0  0  0  0  0
   33.1150   27.2200   46.6360 C   0  0  0  0  0  0  0  0  0  0  0  0
   32.1020   26.3140   46.3990 C   0  0  0  0  0  3  0  0  0  0  0  0
   31.3840   26.3150   45.2220 C   0  0  0  0  0  0  0  0  0  0  0  0
   30.5770   25.6340   44.9690 H   0  0  0  0  0  0  0  0  0  0  0  0
   31.6750   27.2180   44.2820 N   0  0  0  0  0  0  0  0  0  0  0  0
   32.6710   28.1060   44.5220 C   0  0  0  0  0  3  0  0  0  0  0  0
   33.3840   28.1220   45.6620 N   0  0  0  0  0  0  0  0  0  0  0  0
   34.7520   28.3000   49.8050 O   0  0  0  0  0  0  0  0  0  0  0  0
   37.3550   30.2410   51.4230 C   0  0  0  0  0  0  0  0  0  0  0  0
   38.0650   30.6750   50.2860 C   0  0  0  0  0  0  0  0  0  0  0  0
   37.6070   30.2760   49.0360 C   0  0  0  0  0  0  0  0  0  0  0  0
   36.4910   29.4830   48.9960 N   0  0  0  0  0  0  0  0  0  0  0  0
   35.8370   29.0870   50.0950 C   0  0  0  0  0  0  0  0  0  0  0  0
   36.2750   29.4700   51.3160 N   0  0  0  0  0  0  0  0  0  0  0  0
   37.6560   30.5160   52.4300 H   0  0  0  0  0  0  0  0  0  0  0  0
   38.9400   31.3030   50.4120 H   0  0  0  0  0  0  0  0  0  0  0  0
   38.1260   30.5880   48.1360 H   0  0  0  0  0  0  0  0  0  0  0  0
  1  3  1  0  0  0  0
  1 14  1  0  0  0  0
  2  1  1  0  0  0  0
  4  1  1  0  0  0  0
  4  5  1  0  0  0  0
  6  4  1  0  0  0  0
  7  4  1  0  0  0  0
  8  7  1  0  0  0  0
  9  8  2  0  0  0  0
 10  9  1  0  0  0  0
 11 12  2  0  0  0  0
 11  9  1  0  0  0  0
 12 13  1  0  0  0  0
 13  7  2  0  0  0  0
 14 19  1  0  0  0  0
 15 21  1  0  0  0  0
 16 22  1  0  0  0  0
 16 15  2  0  0  0  0
 17 16  1  0  0  0  0
 18 17  2  0  0  0  0
 18 19  1  0  0  0  0
 19 20  2  0  0  0  0
 20 15  1  0  0  0  0
 23 17  1  0  0  0  0
M  END
>  <minimizedAffinity>
-3.60037303

>  <minimizedRMSD>
0.208679453

$$$$
