
 OpenBabel03262522203D

 17 18  0  0  0  0  0  0  0  0999 V2000
   39.7810   22.2660   36.5270 C   0  0  0  0  0  0  0  0  0  0  0  0
   38.5290   22.3420   35.8870 C   0  0  0  0  0  0  0  0  0  0  0  0
   37.4900   22.9310   36.5860 C   0  0  0  0  0  0  0  0  0  0  0  0
   37.7100   23.4070   37.8410 N   0  0  0  0  0  0  0  0  0  0  0  0
   38.9310   23.3130   38.4200 C   0  0  0  0  0  0  0  0  0  0  0  0
   39.9730   22.7490   37.7820 N   0  0  0  0  0  0  0  0  0  0  0  0
   40.6530   21.8210   36.0570 H   0  0  0  0  0  0  0  0  0  0  0  0
   36.5730   22.9620   36.0600 H   0  0  0  0  0  0  0  0  0  0  0  0
   38.9840   23.7280   39.4230 H   0  0  0  0  0  0  0  0  0  0  0  0
   38.5130   21.8050   34.6230 O   0  0  0  0  0  0  0  0  0  0  0  0
   37.4430   21.9090   33.7320 C   0  0  0  0  0  0  0  0  0  0  0  0
   36.3640   21.0440   33.6510 C   0  0  0  0  0  3  0  0  0  0  0  0
   35.3780   21.2810   32.7110 C   0  0  0  0  0  0  0  0  0  0  0  0
   34.5410   20.5980   32.6570 H   0  0  0  0  0  0  0  0  0  0  0  0
   35.4610   22.3370   31.8830 N   0  0  0  0  0  0  0  0  0  0  0  0
   36.5330   23.1390   32.0120 C   0  0  0  0  0  3  0  0  0  0  0  0
   37.5280   22.9670   32.9040 N   0  0  0  0  0  0  0  0  0  0  0  0
  1  6  1  0  0  0  0
  2  1  2  0  0  0  0
  2  3  1  0  0  0  0
  3  4  2  0  0  0  0
  4  5  1  0  0  0  0
  5  9  1  0  0  0  0
  6  5  2  0  0  0  0
  7  1  1  0  0  0  0
  8  3  1  0  0  0  0
 10  2  1  0  0  0  0
 11 10  1  0  0  0  0
 12 11  1  0  0  0  0
 13 12  2  0  0  0  0
 14 13  1  0  0  0  0
 15 16  2  0  0  0  0
 15 13  1  0  0  0  0
 16 17  1  0  0  0  0
 17 11  2  0  0  0  0
M  END
>  <minimizedAffinity>
-3.79828119

$$$$

 OpenBabel03262522203D

 17 18  0  0  0  0  0  0  0  0999 V2000
   37.2500   25.4530   32.9240 C   0  0  0  0  0  0  0  0  0  0  0  0
   37.9080   24.3480   33.4980 C   0  0  0  0  0  0  0  0  0  0  0  0
   37.5520   23.0880   33.0460 C   0  0  0  0  0  0  0  0  0  0  0  0
   36.5990   22.9660   32.0840 N   0  0  0  0  0  0  0  0  0  0  0  0
   35.9910   24.0570   31.5590 C   0  0  0  0  0  0  0  0  0  0  0  0
   36.3020   25.3020   31.9640 N   0  0  0  0  0  0  0  0  0  0  0  0
   37.4640   26.4760   33.2160 H   0  0  0  0  0  0  0  0  0  0  0  0
   38.0760   22.2950   33.5100 H   0  0  0  0  0  0  0  0  0  0  0  0
   35.2470   23.8320   30.7980 H   0  0  0  0  0  0  0  0  0  0  0  0
   38.8360   24.6820   34.4520 O   0  0  0  0  0  0  0  0  0  0  0  0
   38.7930   24.2580   35.7820 C   0  0  0  0  0  0  0  0  0  0  0  0
   37.9080   24.7070   36.7510 C   0  0  0  0  0  3  0  0  0  0  0  0
   37.9900   24.1890   38.0310 C   0  0  0  0  0  0  0  0  0  0  0  0
   37.2950   24.5480   38.7770 H   0  0  0  0  0  0  0  0  0  0  0  0
   38.9150   23.2620   38.3370 N   0  0  0  0  0  0  0  0  0  0  0  0
   39.7430   22.8690   37.3530 C   0  0  0  0  0  3  0  0  0  0  0  0
   39.7190   23.3310   36.0870 N   0  0  0  0  0  0  0  0  0  0  0  0
  1  7  1  0  0  0  0
  1  2  1  0  0  0  0
  2 10  1  0  0  0  0
  3  2  2  0  0  0  0
  3  8  1  0  0  0  0
  4  3  1  0  0  0  0
  5  6  1  0  0  0  0
  5  4  2  0  0  0  0
  6  1  2  0  0  0  0
  9  5  1  0  0  0  0
 10 11  1  0  0  0  0
 11 17  2  0  0  0  0
 11 12  1  0  0  0  0
 12 13  2  0  0  0  0
 13 15  1  0  0  0  0
 13 14  1  0  0  0  0
 16 15  2  0  0  0  0
 17 16  1  0  0  0  0
M  END
>  <minimizedAffinity>
-3.65212989

$$$$

 OpenBabel03262522203D

 17 18  0  0  0  0  0  0  0  0999 V2000
   36.5100   23.9420   31.8570 C   0  0  0  0  0  0  0  0  0  0  0  0
   37.1750   25.0260   32.4630 C   0  0  0  0  0  0  0  0  0  0  0  0
   36.6760   26.2950   32.2200 C   0  0  0  0  0  0  0  0  0  0  0  0
   35.5850   26.4460   31.4240 N   0  0  0  0  0  0  0  0  0  0  0  0
   34.9760   25.3740   30.8610 C   0  0  0  0  0  0  0  0  0  0  0  0
   35.4220   24.1210   31.0660 N   0  0  0  0  0  0  0  0  0  0  0  0
   36.8290   22.9130   31.9900 H   0  0  0  0  0  0  0  0  0  0  0  0
   37.2120   27.0720   32.6980 H   0  0  0  0  0  0  0  0  0  0  0  0
   34.1150   25.6220   30.2450 H   0  0  0  0  0  0  0  0  0  0  0  0
   38.2540   24.6640   33.2290 O   0  0  0  0  0  0  0  0  0  0  0  0
   38.1810   24.2770   34.5690 C   0  0  0  0  0  0  0  0  0  0  0  0
   38.0160   25.1250   35.6530 C   0  0  0  0  0  3  0  0  0  0  0  0
   37.9610   24.5880   36.9270 C   0  0  0  0  0  0  0  0  0  0  0  0
   37.8330   25.2600   37.7640 H   0  0  0  0  0  0  0  0  0  0  0  0
   38.0660   23.2610   37.1160 N   0  0  0  0  0  0  0  0  0  0  0  0
   38.2240   22.4930   36.0230 C   0  0  0  0  0  3  0  0  0  0  0  0
   38.2860   22.9490   34.7560 N   0  0  0  0  0  0  0  0  0  0  0  0
  1  7  1  0  0  0  0
  1  2  1  0  0  0  0
  2 10  1  0  0  0  0
  3  2  2  0  0  0  0
  3  8  1  0  0  0  0
  4  3  1  0  0  0  0
  5  6  1  0  0  0  0
  5  4  2  0  0  0  0
  6  1  2  0  0  0  0
  9  5  1  0  0  0  0
 10 11  1  0  0  0  0
 11 17  2  0  0  0  0
 11 12  1  0  0  0  0
 12 13  2  0  0  0  0
 13 15  1  0  0  0  0
 13 14  1  0  0  0  0
 16 15  2  0  0  0  0
 17 16  1  0  0  0  0
M  END
>  <minimizedAffinity>
-3.60694194

$$$$

 OpenBabel03262522203D

 17 18  0  0  0  0  0  0  0  0999 V2000
   38.1280   25.2460   35.6910 C   0  0  0  0  0  0  0  0  0  0  0  0
   38.1720   24.2970   34.6510 C   0  0  0  0  0  0  0  0  0  0  0  0
   38.1240   22.9600   35.0050 C   0  0  0  0  0  0  0  0  0  0  0  0
   38.0350   22.6160   36.3180 N   0  0  0  0  0  0  0  0  0  0  0  0
   37.9960   23.5620   37.2870 C   0  0  0  0  0  0  0  0  0  0  0  0
   38.0400   24.8750   36.9940 N   0  0  0  0  0  0  0  0  0  0  0  0
   38.1610   26.3150   35.5080 H   0  0  0  0  0  0  0  0  0  0  0  0
   38.1600   22.2910   34.1870 H   0  0  0  0  0  0  0  0  0  0  0  0
   37.9250   23.1650   38.2970 H   0  0  0  0  0  0  0  0  0  0  0  0
   38.2610   24.8460   33.3960 O   0  0  0  0  0  0  0  0  0  0  0  0
   37.1830   25.0040   32.5220 C   0  0  0  0  0  0  0  0  0  0  0  0
   36.4910   23.9820   31.8910 C   0  0  0  0  0  3  0  0  0  0  0  0
   35.4400   24.2990   31.0490 C   0  0  0  0  0  0  0  0  0  0  0  0
   34.9090   23.4930   30.5620 H   0  0  0  0  0  0  0  0  0  0  0  0
   35.0910   25.5810   30.8420 N   0  0  0  0  0  0  0  0  0  0  0  0
   35.8020   26.5250   31.4840 C   0  0  0  0  0  3  0  0  0  0  0  0
   36.8350   26.2870   32.3160 N   0  0  0  0  0  0  0  0  0  0  0  0
  1  6  1  0  0  0  0
  2  3  1  0  0  0  0
  2  1  2  0  0  0  0
  3  4  2  0  0  0  0
  4  5  1  0  0  0  0
  5  9  1  0  0  0  0
  6  5  2  0  0  0  0
  7  1  1  0  0  0  0
  8  3  1  0  0  0  0
 10  2  1  0  0  0  0
 11 10  1  0  0  0  0
 12 11  2  0  0  0  0
 13 12  1  0  0  0  0
 14 13  1  0  0  0  0
 15 13  2  0  0  0  0
 15 16  1  0  0  0  0
 16 17  2  0  0  0  0
 17 11  1  0  0  0  0
M  END
>  <minimizedAffinity>
-3.58133602

$$$$

 OpenBabel03262522203D

 17 18  0  0  0  0  0  0  0  0999 V2000
   38.1300   23.0030   35.0650 C   0  0  0  0  0  0  0  0  0  0  0  0
   38.1680   24.3510   34.6590 C   0  0  0  0  0  0  0  0  0  0  0  0
   38.1200   25.3170   35.6490 C   0  0  0  0  0  0  0  0  0  0  0  0
   38.0420   24.9380   36.9530 N   0  0  0  0  0  0  0  0  0  0  0  0
   38.0070   23.6280   37.2990 C   0  0  0  0  0  0  0  0  0  0  0  0
   38.0510   22.6520   36.3740 N   0  0  0  0  0  0  0  0  0  0  0  0
   38.1620   22.1790   34.3590 H   0  0  0  0  0  0  0  0  0  0  0  0
   38.1520   26.3110   35.2900 H   0  0  0  0  0  0  0  0  0  0  0  0
   37.9440   23.4510   38.3700 H   0  0  0  0  0  0  0  0  0  0  0  0
   38.2480   24.5240   33.2990 O   0  0  0  0  0  0  0  0  0  0  0  0
   37.1880   24.9410   32.4900 C   0  0  0  0  0  0  0  0  0  0  0  0
   36.8370   26.2540   32.2210 C   0  0  0  0  0  3  0  0  0  0  0  0
   35.7560   26.5090   31.3960 C   0  0  0  0  0  0  0  0  0  0  0  0
   35.4930   27.5370   31.1950 H   0  0  0  0  0  0  0  0  0  0  0  0
   35.0520   25.4970   30.8590 N   0  0  0  0  0  0  0  0  0  0  0  0
   35.4430   24.2450   31.1590 C   0  0  0  0  0  3  0  0  0  0  0  0
   36.4840   23.9270   31.9540 N   0  0  0  0  0  0  0  0  0  0  0  0
  1  6  1  0  0  0  0
  2  1  2  0  0  0  0
  2  3  1  0  0  0  0
  3  4  2  0  0  0  0
  4  5  1  0  0  0  0
  5  9  1  0  0  0  0
  6  5  2  0  0  0  0
  7  1  1  0  0  0  0
  8  3  1  0  0  0  0
 10  2  1  0  0  0  0
 11 10  1  0  0  0  0
 12 11  1  0  0  0  0
 13 12  2  0  0  0  0
 14 13  1  0  0  0  0
 15 16  2  0  0  0  0
 15 13  1  0  0  0  0
 16 17  1  0  0  0  0
 17 11  2  0  0  0  0
M  END
>  <minimizedAffinity>
-3.54692626

$$$$

 OpenBabel03262522203D

 17 18  0  0  0  0  0  0  0  0999 V2000
   36.7540   26.2910   32.2690 C   0  0  0  0  0  0  0  0  0  0  0  0
   37.2370   24.9950   32.5320 C   0  0  0  0  0  0  0  0  0  0  0  0
   36.5560   23.9330   31.9630 C   0  0  0  0  0  0  0  0  0  0  0  0
   35.4670   24.1740   31.1850 N   0  0  0  0  0  0  0  0  0  0  0  0
   35.0360   25.4380   30.9580 C   0  0  0  0  0  0  0  0  0  0  0  0
   35.6640   26.5040   31.4890 N   0  0  0  0  0  0  0  0  0  0  0  0
   37.2240   27.1830   32.6730 H   0  0  0  0  0  0  0  0  0  0  0  0
   36.9600   22.9830   32.1920 H   0  0  0  0  0  0  0  0  0  0  0  0
   34.1570   25.5040   30.3220 H   0  0  0  0  0  0  0  0  0  0  0  0
   38.3470   24.9640   33.3400 O   0  0  0  0  0  0  0  0  0  0  0  0
   38.3670   24.4540   34.6400 C   0  0  0  0  0  0  0  0  0  0  0  0
   38.0760   25.1620   35.7960 C   0  0  0  0  0  3  0  0  0  0  0  0
   38.1390   24.5160   37.0170 C   0  0  0  0  0  0  0  0  0  0  0  0
   37.9100   25.0790   37.9110 H   0  0  0  0  0  0  0  0  0  0  0  0
   38.4770   23.2160   37.0870 N   0  0  0  0  0  0  0  0  0  0  0  0
   38.7480   22.5860   35.9300 C   0  0  0  0  0  3  0  0  0  0  0  0
   38.7060   23.1540   34.7090 N   0  0  0  0  0  0  0  0  0  0  0  0
  1  2  1  0  0  0  0
  1  7  1  0  0  0  0
  2 10  1  0  0  0  0
  3  8  1  0  0  0  0
  3  2  2  0  0  0  0
  4  3  1  0  0  0  0
  5  4  2  0  0  0  0
  5  6  1  0  0  0  0
  6  1  2  0  0  0  0
  9  5  1  0  0  0  0
 10 11  1  0  0  0  0
 11 17  2  0  0  0  0
 11 12  1  0  0  0  0
 12 13  2  0  0  0  0
 13 15  1  0  0  0  0
 13 14  1  0  0  0  0
 16 15  2  0  0  0  0
 17 16  1  0  0  0  0
M  END
>  <minimizedAffinity>
-3.51954985

$$$$

 OpenBabel03262522203D

 17 18  0  0  0  0  0  0  0  0999 V2000
   37.1030   25.2960   32.6030 C   0  0  0  0  0  0  0  0  0  0  0  0
   36.4600   24.1720   32.0490 C   0  0  0  0  0  0  0  0  0  0  0  0
   35.4540   24.4030   31.1260 C   0  0  0  0  0  0  0  0  0  0  0  0
   35.1300   25.6810   30.7940 N   0  0  0  0  0  0  0  0  0  0  0  0
   35.7740   26.7340   31.3520 C   0  0  0  0  0  0  0  0  0  0  0  0
   36.7590   26.5620   32.2530 N   0  0  0  0  0  0  0  0  0  0  0  0
   37.9020   25.2110   33.3330 H   0  0  0  0  0  0  0  0  0  0  0  0
   35.0060   23.5260   30.7420 H   0  0  0  0  0  0  0  0  0  0  0  0
   35.4270   27.7050   31.0080 H   0  0  0  0  0  0  0  0  0  0  0  0
   36.9330   22.9700   32.5140 O   0  0  0  0  0  0  0  0  0  0  0  0
   36.4340   21.7220   32.1350 C   0  0  0  0  0  0  0  0  0  0  0  0
   35.3600   21.0650   32.7150 C   0  0  0  0  0  3  0  0  0  0  0  0
   34.9820   19.8270   32.2260 C   0  0  0  0  0  0  0  0  0  0  0  0
   34.1430   19.3250   32.6870 H   0  0  0  0  0  0  0  0  0  0  0  0
   35.6460   19.2640   31.2010 N   0  0  0  0  0  0  0  0  0  0  0  0
   36.6790   19.9530   30.6830 C   0  0  0  0  0  3  0  0  0  0  0  0
   37.1000   21.1600   31.1100 N   0  0  0  0  0  0  0  0  0  0  0  0
  1  7  1  0  0  0  0
  2 10  1  0  0  0  0
  2  1  2  0  0  0  0
  3  2  1  0  0  0  0
  4  3  2  0  0  0  0
  4  5  1  0  0  0  0
  5  6  2  0  0  0  0
  6  1  1  0  0  0  0
  8  3  1  0  0  0  0
  9  5  1  0  0  0  0
 11 10  1  0  0  0  0
 11 12  1  0  0  0  0
 13 14  1  0  0  0  0
 13 12  2  0  0  0  0
 15 13  1  0  0  0  0
 16 17  1  0  0  0  0
 16 15  2  0  0  0  0
 17 11  2  0  0  0  0
M  END
>  <minimizedAffinity>
-3.48112774

$$$$

 OpenBabel03262522203D

 17 18  0  0  0  0  0  0  0  0999 V2000
   37.6730   24.2150   36.7570 C   0  0  0  0  0  0  0  0  0  0  0  0
   38.6050   23.6020   35.8970 C   0  0  0  0  0  0  0  0  0  0  0  0
   39.6470   22.9010   36.4820 C   0  0  0  0  0  0  0  0  0  0  0  0
   39.7300   22.8300   37.8370 N   0  0  0  0  0  0  0  0  0  0  0  0
   38.8100   23.4360   38.6270 C   0  0  0  0  0  0  0  0  0  0  0  0
   37.7800   24.1280   38.1070 N   0  0  0  0  0  0  0  0  0  0  0  0
   36.8250   24.7840   36.3880 H   0  0  0  0  0  0  0  0  0  0  0  0
   40.3170   22.4610   35.7920 H   0  0  0  0  0  0  0  0  0  0  0  0
   38.9830   23.3090   39.6930 H   0  0  0  0  0  0  0  0  0  0  0  0
   38.3450   23.7910   34.5630 O   0  0  0  0  0  0  0  0  0  0  0  0
   38.4300   25.0200   33.9050 C   0  0  0  0  0  0  0  0  0  0  0  0
   39.5440   25.8440   33.8610 C   0  0  0  0  0  3  0  0  0  0  0  0
   39.4740   27.0370   33.1650 C   0  0  0  0  0  0  0  0  0  0  0  0
   40.3490   27.6710   33.1390 H   0  0  0  0  0  0  0  0  0  0  0  0
   38.3410   27.3970   32.5370 N   0  0  0  0  0  0  0  0  0  0  0  0
   37.2960   26.5540   32.6170 C   0  0  0  0  0  3  0  0  0  0  0  0
   37.2960   25.3790   33.2770 N   0  0  0  0  0  0  0  0  0  0  0  0
  1  6  1  0  0  0  0
  2  3  1  0  0  0  0
  2  1  2  0  0  0  0
  3  4  2  0  0  0  0
  4  5  1  0  0  0  0
  5  9  1  0  0  0  0
  6  5  2  0  0  0  0
  7  1  1  0  0  0  0
  8  3  1  0  0  0  0
 10  2  1  0  0  0  0
 11 10  1  0  0  0  0
 12 11  1  0  0  0  0
 13 12  2  0  0  0  0
 14 13  1  0  0  0  0
 15 16  2  0  0  0  0
 15 13  1  0  0  0  0
 16 17  1  0  0  0  0
 17 11  2  0  0  0  0
M  END
>  <minimizedAffinity>
-3.47492123

$$$$

 OpenBabel03262522203D

 17 18  0  0  0  0  0  0  0  0999 V2000
   39.6540   25.4500   33.6780 C   0  0  0  0  0  0  0  0  0  0  0  0
   38.3570   24.9350   33.8630 C   0  0  0  0  0  0  0  0  0  0  0  0
   37.3050   25.6400   33.3040 C   0  0  0  0  0  0  0  0  0  0  0  0
   37.5560   26.7810   32.6090 N   0  0  0  0  0  0  0  0  0  0  0  0
   38.8210   27.2420   32.4560 C   0  0  0  0  0  0  0  0  0  0  0  0
   39.8770   26.5930   32.9790 N   0  0  0  0  0  0  0  0  0  0  0  0
   40.5390   24.9650   34.0800 H   0  0  0  0  0  0  0  0  0  0  0  0
   36.3540   25.2100   33.4730 H   0  0  0  0  0  0  0  0  0  0  0  0
   38.8950   28.1620   31.8820 H   0  0  0  0  0  0  0  0  0  0  0  0
   38.3150   23.7730   34.5930 O   0  0  0  0  0  0  0  0  0  0  0  0
   38.4680   23.7030   35.9800 C   0  0  0  0  0  0  0  0  0  0  0  0
   37.6640   24.3280   36.9200 C   0  0  0  0  0  3  0  0  0  0  0  0
   37.9440   24.1630   38.2640 C   0  0  0  0  0  0  0  0  0  0  0  0
   37.3100   24.6560   38.9870 H   0  0  0  0  0  0  0  0  0  0  0  0
   38.9820   23.4050   38.6590 N   0  0  0  0  0  0  0  0  0  0  0  0
   39.7240   22.8250   37.6980 C   0  0  0  0  0  3  0  0  0  0  0  0
   39.5070   22.9440   36.3730 N   0  0  0  0  0  0  0  0  0  0  0  0
  1  2  1  0  0  0  0
  1  7  1  0  0  0  0
  2 10  1  0  0  0  0
  3  8  1  0  0  0  0
  3  2  2  0  0  0  0
  4  3  1  0  0  0  0
  5  4  2  0  0  0  0
  5  6  1  0  0  0  0
  6  1  2  0  0  0  0
  9  5  1  0  0  0  0
 10 11  1  0  0  0  0
 11 17  2  0  0  0  0
 11 12  1  0  0  0  0
 12 13  2  0  0  0  0
 13 15  1  0  0  0  0
 13 14  1  0  0  0  0
 16 15  2  0  0  0  0
 17 16  1  0  0  0  0
M  END
>  <minimizedAffinity>
-3.45134878

$$$$
