
 OpenBabel03272508153D

 26 28  0  0  0  0  0  0  0  0999 V2000
   38.0520   23.0070   33.6600 Cl  0  0  0  0  0  0  0  0  0  0  0  0
   37.0490   24.0160   32.6550 C   0  0  0  0  0  0  0  0  0  0  0  0
   36.2310   23.3110   31.7930 C   0  0  0  0  0  0  0  0  0  0  0  0
   35.3870   24.0360   30.9440 C   0  0  0  0  0  0  0  0  0  0  0  0
   35.3560   25.3940   30.9480 C   0  0  0  0  0  0  0  0  0  0  0  0
   36.1760   26.0770   31.8100 C   0  0  0  0  0  0  0  0  0  0  0  0
   36.1610   27.8210   31.8430 Cl  0  0  0  0  0  0  0  0  0  0  0  0
   36.9990   25.3920   32.6400 C   0  0  0  0  0  0  0  0  0  0  0  0
   34.7100   23.5680   30.2340 H   0  0  0  0  0  0  0  0  0  0  0  0
   34.7080   25.9700   30.2960 H   0  0  0  0  0  0  0  0  0  0  0  0
   35.0400   21.2060   32.2850 C   0  0  0  0  0  0  0  0  0  0  0  0
   36.1010   21.8580   31.6200 C   0  0  0  0  0  0  0  0  0  0  0  0
   36.9590   21.0900   30.8420 C   0  0  0  0  0  0  0  0  0  0  0  0
   36.7440   19.7490   30.7530 N   0  0  0  0  0  0  0  0  0  0  0  0
   35.7030   19.1600   31.4150 C   0  0  0  0  0  0  0  0  0  0  0  0
   34.8500   19.8920   32.1830 N   0  0  0  0  0  0  0  0  0  0  0  0
   34.3750   21.7970   32.8870 H   0  0  0  0  0  0  0  0  0  0  0  0
   37.7520   21.5920   30.3480 H   0  0  0  0  0  0  0  0  0  0  0  0
   35.5150   18.0920   31.3560 H   0  0  0  0  0  0  0  0  0  0  0  0
   37.9100   26.0330   33.5960 C   0  0  0  0  0  0  0  0  0  0  0  0
   37.3880   26.2930   34.8480 C   0  0  0  0  0  3  0  0  0  0  0  0
   38.1830   26.9000   35.8180 C   0  0  0  0  0  0  0  0  0  0  0  0
   37.8440   27.1320   36.8150 H   0  0  0  0  0  0  0  0  0  0  0  0
   39.4560   27.2190   35.4960 N   0  0  0  0  0  0  0  0  0  0  0  0
   39.9060   26.9360   34.2470 C   0  0  0  0  0  3  0  0  0  0  0  0
   39.1840   26.3510   33.2730 N   0  0  0  0  0  0  0  0  0  0  0  0
  2  1  1  0  0  0  0
  3  2  2  0  0  0  0
  4  5  2  0  0  0  0
  4  3  1  0  0  0  0
  5  6  1  0  0  0  0
  6  7  1  0  0  0  0
  6  8  2  0  0  0  0
  8  2  1  0  0  0  0
  8 20  1  0  0  0  0
  9  4  1  0  0  0  0
 10  5  1  0  0  0  0
 11 17  1  0  0  0  0
 12  3  1  0  0  0  0
 12 11  2  0  0  0  0
 13 12  1  0  0  0  0
 14 13  2  0  0  0  0
 14 15  1  0  0  0  0
 15 16  2  0  0  0  0
 16 11  1  0  0  0  0
 18 13  1  0  0  0  0
 19 15  1  0  0  0  0
 20 21  1  0  0  0  0
 21 22  2  0  0  0  0
 22 23  1  0  0  0  0
 24 22  1  0  0  0  0
 25 24  2  0  0  0  0
 26 20  2  0  0  0  0
 26 25  1  0  0  0  0
M  END
>  <minimizedAffinity>
-5.23774242

$$$$

 OpenBabel03272508153D

 26 28  0  0  0  0  0  0  0  0999 V2000
   36.4900   27.9020   34.8230 Cl  0  0  0  0  0  0  0  0  0  0  0  0
   36.3080   28.7920   33.3370 C   0  0  0  0  0  0  0  0  0  0  0  0
   35.6660   30.0060   33.4860 C   0  0  0  0  0  0  0  0  0  0  0  0
   35.4720   30.7940   32.3450 C   0  0  0  0  0  0  0  0  0  0  0  0
   35.8940   30.3980   31.1170 C   0  0  0  0  0  0  0  0  0  0  0  0
   36.5290   29.1890   30.9870 C   0  0  0  0  0  0  0  0  0  0  0  0
   37.0850   28.6490   29.4250 Cl  0  0  0  0  0  0  0  0  0  0  0  0
   36.7260   28.4120   32.0810 C   0  0  0  0  0  0  0  0  0  0  0  0
   34.9780   31.7620   32.3670 H   0  0  0  0  0  0  0  0  0  0  0  0
   35.7520   30.9980   30.2240 H   0  0  0  0  0  0  0  0  0  0  0  0
   33.7680   30.4260   35.0060 C   0  0  0  0  0  0  0  0  0  0  0  0
   35.1310   30.6280   34.7050 C   0  0  0  0  0  0  0  0  0  0  0  0
   35.8900   31.4010   35.5770 C   0  0  0  0  0  0  0  0  0  0  0  0
   35.2900   31.9290   36.6780 N   0  0  0  0  0  0  0  0  0  0  0  0
   33.9640   31.7080   36.9300 C   0  0  0  0  0  0  0  0  0  0  0  0
   33.2030   30.9550   36.0900 N   0  0  0  0  0  0  0  0  0  0  0  0
   33.1790   29.8290   34.3340 H   0  0  0  0  0  0  0  0  0  0  0  0
   36.9130   31.5450   35.3390 H   0  0  0  0  0  0  0  0  0  0  0  0
   33.4680   32.1210   37.8030 H   0  0  0  0  0  0  0  0  0  0  0  0
   37.3940   27.1070   32.0430 C   0  0  0  0  0  0  0  0  0  0  0  0
   38.7690   27.1270   32.1780 C   0  0  0  0  0  3  0  0  0  0  0  0
   39.4850   25.9320   32.1530 C   0  0  0  0  0  0  0  0  0  0  0  0
   40.5570   25.8700   32.2530 H   0  0  0  0  0  0  0  0  0  0  0  0
   38.8010   24.7770   31.9950 N   0  0  0  0  0  0  0  0  0  0  0  0
   37.4510   24.8280   31.8680 C   0  0  0  0  0  3  0  0  0  0  0  0
   36.7080   25.9520   31.8850 N   0  0  0  0  0  0  0  0  0  0  0  0
  2  3  1  0  0  0  0
  2  1  1  0  0  0  0
  3 12  1  0  0  0  0
  4  9  1  0  0  0  0
  4  3  2  0  0  0  0
  5  4  1  0  0  0  0
  6  5  2  0  0  0  0
  6  8  1  0  0  0  0
  7  6  1  0  0  0  0
  8  2  2  0  0  0  0
 10  5  1  0  0  0  0
 11 16  1  0  0  0  0
 12 11  2  0  0  0  0
 12 13  1  0  0  0  0
 13 14  2  0  0  0  0
 14 15  1  0  0  0  0
 15 19  1  0  0  0  0
 16 15  2  0  0  0  0
 17 11  1  0  0  0  0
 18 13  1  0  0  0  0
 20  8  1  0  0  0  0
 20 21  1  0  0  0  0
 22 21  2  0  0  0  0
 22 23  1  0  0  0  0
 24 22  1  0  0  0  0
 25 26  1  0  0  0  0
 25 24  2  0  0  0  0
 26 20  2  0  0  0  0
M  END
>  <minimizedAffinity>
-4.89264154

$$$$

 OpenBabel03272508153D

 26 28  0  0  0  0  0  0  0  0999 V2000
   38.4510   26.4440   35.0790 Cl  0  0  0  0  0  0  0  0  0  0  0  0
   38.0310   25.0340   34.1470 C   0  0  0  0  0  0  0  0  0  0  0  0
   38.1310   23.8480   34.8490 C   0  0  0  0  0  0  0  0  0  0  0  0
   37.8130   22.6580   34.1840 C   0  0  0  0  0  0  0  0  0  0  0  0
   37.4160   22.6450   32.8850 C   0  0  0  0  0  0  0  0  0  0  0  0
   37.3230   23.8310   32.2030 C   0  0  0  0  0  0  0  0  0  0  0  0
   36.8160   23.8510   30.5350 Cl  0  0  0  0  0  0  0  0  0  0  0  0
   37.6260   24.9930   32.8320 C   0  0  0  0  0  0  0  0  0  0  0  0
   37.8620   21.6800   34.6550 H   0  0  0  0  0  0  0  0  0  0  0  0
   37.1670   21.7310   32.3560 H   0  0  0  0  0  0  0  0  0  0  0  0
   37.6350   24.0160   37.2610 C   0  0  0  0  0  0  0  0  0  0  0  0
   38.5340   23.6290   36.2460 C   0  0  0  0  0  0  0  0  0  0  0  0
   39.7480   23.0650   36.6210 C   0  0  0  0  0  0  0  0  0  0  0  0
   40.0180   22.9090   37.9460 N   0  0  0  0  0  0  0  0  0  0  0  0
   39.1160   23.2990   38.8970 C   0  0  0  0  0  0  0  0  0  0  0  0
   37.9220   23.8530   38.5520 N   0  0  0  0  0  0  0  0  0  0  0  0
   36.6960   24.4520   36.9730 H   0  0  0  0  0  0  0  0  0  0  0  0
   40.4150   22.7790   35.8480 H   0  0  0  0  0  0  0  0  0  0  0  0
   39.3140   23.1820   39.9580 H   0  0  0  0  0  0  0  0  0  0  0  0
   37.5570   26.3100   32.1880 C   0  0  0  0  0  0  0  0  0  0  0  0
   38.6880   26.7080   31.5010 C   0  0  0  0  0  3  0  0  0  0  0  0
   38.7100   27.9440   30.8610 C   0  0  0  0  0  0  0  0  0  0  0  0
   39.5560   28.3200   30.3060 H   0  0  0  0  0  0  0  0  0  0  0  0
   37.6090   28.7250   30.9320 N   0  0  0  0  0  0  0  0  0  0  0  0
   36.5310   28.2730   31.6230 C   0  0  0  0  0  3  0  0  0  0  0  0
   36.4540   27.0890   32.2610 N   0  0  0  0  0  0  0  0  0  0  0  0
  2  3  1  0  0  0  0
  2  1  1  0  0  0  0
  3 12  1  0  0  0  0
  4  9  1  0  0  0  0
  4  3  2  0  0  0  0
  5  4  1  0  0  0  0
  6  8  1  0  0  0  0
  6  5  2  0  0  0  0
  7  6  1  0  0  0  0
  8  2  2  0  0  0  0
 10  5  1  0  0  0  0
 11 16  1  0  0  0  0
 12 13  1  0  0  0  0
 12 11  2  0  0  0  0
 13 14  2  0  0  0  0
 14 15  1  0  0  0  0
 15 19  1  0  0  0  0
 16 15  2  0  0  0  0
 17 11  1  0  0  0  0
 18 13  1  0  0  0  0
 20 26  1  0  0  0  0
 20  8  1  0  0  0  0
 21 20  2  0  0  0  0
 22 24  2  0  0  0  0
 22 21  1  0  0  0  0
 23 22  1  0  0  0  0
 24 25  1  0  0  0  0
 25 26  2  0  0  0  0
M  END
>  <minimizedAffinity>
-4.74752808

$$$$

 OpenBabel03272508153D

 26 28  0  0  0  0  0  0  0  0999 V2000
   35.2700   24.6640   30.8220 Cl  0  0  0  0  0  0  0  0  0  0  0  0
   36.6000   24.6850   31.9470 C   0  0  0  0  0  0  0  0  0  0  0  0
   36.9820   23.4320   32.3860 C   0  0  0  0  0  0  0  0  0  0  0  0
   38.0430   23.3460   33.2950 C   0  0  0  0  0  0  0  0  0  0  0  0
   38.6940   24.4500   33.7470 C   0  0  0  0  0  0  0  0  0  0  0  0
   38.3000   25.6860   33.3010 C   0  0  0  0  0  0  0  0  0  0  0  0
   39.1130   27.1240   33.8590 Cl  0  0  0  0  0  0  0  0  0  0  0  0
   37.2750   25.7880   32.4200 C   0  0  0  0  0  0  0  0  0  0  0  0
   38.4120   22.4050   33.6930 H   0  0  0  0  0  0  0  0  0  0  0  0
   39.5180   24.4000   34.4510 H   0  0  0  0  0  0  0  0  0  0  0  0
   37.0860   21.3690   31.0360 C   0  0  0  0  0  0  0  0  0  0  0  0
   36.4270   22.1170   32.0340 C   0  0  0  0  0  0  0  0  0  0  0  0
   35.2940   21.5720   32.6250 C   0  0  0  0  0  0  0  0  0  0  0  0
   34.8680   20.3440   32.2210 N   0  0  0  0  0  0  0  0  0  0  0  0
   35.5380   19.6540   31.2490 C   0  0  0  0  0  0  0  0  0  0  0  0
   36.6490   20.1690   30.6560 N   0  0  0  0  0  0  0  0  0  0  0  0
   37.9620   21.7880   30.5770 H   0  0  0  0  0  0  0  0  0  0  0  0
   34.8080   22.1450   33.3740 H   0  0  0  0  0  0  0  0  0  0  0  0
   35.2130   18.6730   30.9130 H   0  0  0  0  0  0  0  0  0  0  0  0
   36.7830   27.0630   31.8870 C   0  0  0  0  0  0  0  0  0  0  0  0
   37.3210   27.4610   30.6780 C   0  0  0  0  0  3  0  0  0  0  0  0
   36.9110   28.6600   30.0990 C   0  0  0  0  0  0  0  0  0  0  0  0
   37.2870   29.0330   29.1590 H   0  0  0  0  0  0  0  0  0  0  0  0
   35.9880   29.4040   30.7470 N   0  0  0  0  0  0  0  0  0  0  0  0
   35.5000   28.9550   31.9310 C   0  0  0  0  0  3  0  0  0  0  0  0
   35.8590   27.8060   32.5370 N   0  0  0  0  0  0  0  0  0  0  0  0
  1  2  1  0  0  0  0
  2  3  2  0  0  0  0
  2  8  1  0  0  0  0
  3  4  1  0  0  0  0
  4  9  1  0  0  0  0
  4  5  2  0  0  0  0
  5 10  1  0  0  0  0
  6  5  1  0  0  0  0
  6  7  1  0  0  0  0
  8  6  2  0  0  0  0
 11 12  1  0  0  0  0
 12  3  1  0  0  0  0
 12 13  2  0  0  0  0
 13 18  1  0  0  0  0
 14 13  1  0  0  0  0
 15 14  2  0  0  0  0
 16 11  2  0  0  0  0
 16 15  1  0  0  0  0
 17 11  1  0  0  0  0
 19 15  1  0  0  0  0
 20  8  1  0  0  0  0
 20 26  1  0  0  0  0
 21 20  2  0  0  0  0
 22 21  1  0  0  0  0
 22 24  2  0  0  0  0
 23 22  1  0  0  0  0
 24 25  1  0  0  0  0
 25 26  2  0  0  0  0
M  END
>  <minimizedAffinity>
-4.72080898

$$$$

 OpenBabel03272508153D

 26 28  0  0  0  0  0  0  0  0999 V2000
   38.2650   27.1420   33.4200 Cl  0  0  0  0  0  0  0  0  0  0  0  0
   37.2760   25.9710   32.5930 C   0  0  0  0  0  0  0  0  0  0  0  0
   36.2830   26.5280   31.8120 C   0  0  0  0  0  0  0  0  0  0  0  0
   35.4340   25.6650   31.1070 C   0  0  0  0  0  0  0  0  0  0  0  0
   35.5650   24.3150   31.1760 C   0  0  0  0  0  0  0  0  0  0  0  0
   36.5560   23.7790   31.9570 C   0  0  0  0  0  0  0  0  0  0  0  0
   36.7530   22.0500   32.0670 Cl  0  0  0  0  0  0  0  0  0  0  0  0
   37.3870   24.5990   32.6460 C   0  0  0  0  0  0  0  0  0  0  0  0
   34.6270   26.0130   30.4690 H   0  0  0  0  0  0  0  0  0  0  0  0
   34.9150   23.6330   30.6360 H   0  0  0  0  0  0  0  0  0  0  0  0
   36.5880   28.6050   30.5130 C   0  0  0  0  0  0  0  0  0  0  0  0
   35.9620   27.9460   31.5920 C   0  0  0  0  0  0  0  0  0  0  0  0
   35.0800   28.6710   32.3840 C   0  0  0  0  0  0  0  0  0  0  0  0
   34.8570   29.9810   32.0890 N   0  0  0  0  0  0  0  0  0  0  0  0
   35.4870   30.5800   31.0330 C   0  0  0  0  0  0  0  0  0  0  0  0
   36.3540   29.8880   30.2440 N   0  0  0  0  0  0  0  0  0  0  0  0
   37.2700   28.0460   29.8990 H   0  0  0  0  0  0  0  0  0  0  0  0
   34.6160   28.1640   33.1920 H   0  0  0  0  0  0  0  0  0  0  0  0
   35.3210   31.6230   30.7820 H   0  0  0  0  0  0  0  0  0  0  0  0
   38.4750   24.1210   33.5060 C   0  0  0  0  0  0  0  0  0  0  0  0
   38.1480   23.9040   34.8310 C   0  0  0  0  0  3  0  0  0  0  0  0
   39.1210   23.4500   35.7180 C   0  0  0  0  0  0  0  0  0  0  0  0
   38.9390   23.2580   36.7640 H   0  0  0  0  0  0  0  0  0  0  0  0
   40.3700   23.2350   35.2480 N   0  0  0  0  0  0  0  0  0  0  0  0
   40.6240   23.4690   33.9360 C   0  0  0  0  0  3  0  0  0  0  0  0
   39.7240   23.9070   33.0340 N   0  0  0  0  0  0  0  0  0  0  0  0
  2  8  1  0  0  0  0
  2  1  1  0  0  0  0
  3  2  2  0  0  0  0
  4  5  2  0  0  0  0
  4  3  1  0  0  0  0
  5  6  1  0  0  0  0
  6  7  1  0  0  0  0
  6  8  2  0  0  0  0
  8 20  1  0  0  0  0
  9  4  1  0  0  0  0
 10  5  1  0  0  0  0
 11 12  1  0  0  0  0
 12  3  1  0  0  0  0
 12 13  2  0  0  0  0
 13 18  1  0  0  0  0
 14 13  1  0  0  0  0
 15 14  2  0  0  0  0
 16 11  2  0  0  0  0
 16 15  1  0  0  0  0
 17 11  1  0  0  0  0
 19 15  1  0  0  0  0
 20 21  1  0  0  0  0
 21 22  2  0  0  0  0
 22 23  1  0  0  0  0
 24 22  1  0  0  0  0
 25 24  2  0  0  0  0
 26 20  2  0  0  0  0
 26 25  1  0  0  0  0
M  END
>  <minimizedAffinity>
-4.67234325

$$$$

 OpenBabel03272508153D

 26 28  0  0  0  0  0  0  0  0999 V2000
   36.2900   28.0780   34.5340 Cl  0  0  0  0  0  0  0  0  0  0  0  0
   36.1030   29.1360   33.1630 C   0  0  0  0  0  0  0  0  0  0  0  0
   36.6640   28.6480   31.9990 C   0  0  0  0  0  0  0  0  0  0  0  0
   36.5660   29.4290   30.8410 C   0  0  0  0  0  0  0  0  0  0  0  0
   35.9410   30.6360   30.8380 C   0  0  0  0  0  0  0  0  0  0  0  0
   35.3910   31.1040   32.0030 C   0  0  0  0  0  0  0  0  0  0  0  0
   34.5810   32.6490   32.0360 Cl  0  0  0  0  0  0  0  0  0  0  0  0
   35.4770   30.3620   33.1340 C   0  0  0  0  0  0  0  0  0  0  0  0
   36.9760   29.1260   29.8810 H   0  0  0  0  0  0  0  0  0  0  0  0
   35.8570   31.2520   29.9490 H   0  0  0  0  0  0  0  0  0  0  0  0
   36.6290   26.2700   31.3400 C   0  0  0  0  0  0  0  0  0  0  0  0
   37.3790   27.3840   31.7730 C   0  0  0  0  0  0  0  0  0  0  0  0
   38.7470   27.2230   31.9610 C   0  0  0  0  0  0  0  0  0  0  0  0
   39.3040   26.0050   31.7220 N   0  0  0  0  0  0  0  0  0  0  0  0
   38.5380   24.9520   31.3040 C   0  0  0  0  0  0  0  0  0  0  0  0
   37.1970   25.0870   31.1130 N   0  0  0  0  0  0  0  0  0  0  0  0
   35.5710   26.3920   31.1940 H   0  0  0  0  0  0  0  0  0  0  0  0
   39.2990   28.0680   32.2870 H   0  0  0  0  0  0  0  0  0  0  0  0
   38.9650   23.9730   31.1070 H   0  0  0  0  0  0  0  0  0  0  0  0
   34.9200   30.7780   34.4260 C   0  0  0  0  0  0  0  0  0  0  0  0
   35.7670   31.4960   35.2470 C   0  0  0  0  0  3  0  0  0  0  0  0
   35.3210   31.9310   36.4930 C   0  0  0  0  0  0  0  0  0  0  0  0
   35.9250   32.4960   37.1860 H   0  0  0  0  0  0  0  0  0  0  0  0
   34.0560   31.6310   36.8630 N   0  0  0  0  0  0  0  0  0  0  0  0
   33.2760   30.9210   36.0080 C   0  0  0  0  0  3  0  0  0  0  0  0
   33.6540   30.4770   34.7940 N   0  0  0  0  0  0  0  0  0  0  0  0
  2  1  1  0  0  0  0
  3  2  2  0  0  0  0
  4  3  1  0  0  0  0
  5  4  2  0  0  0  0
  5  6  1  0  0  0  0
  6  7  1  0  0  0  0
  6  8  2  0  0  0  0
  8  2  1  0  0  0  0
  8 20  1  0  0  0  0
  9  4  1  0  0  0  0
 10  5  1  0  0  0  0
 11 12  1  0  0  0  0
 12 13  2  0  0  0  0
 12  3  1  0  0  0  0
 13 18  1  0  0  0  0
 14 13  1  0  0  0  0
 15 14  2  0  0  0  0
 16 15  1  0  0  0  0
 16 11  2  0  0  0  0
 17 11  1  0  0  0  0
 19 15  1  0  0  0  0
 20 26  2  0  0  0  0
 20 21  1  0  0  0  0
 21 22  2  0  0  0  0
 22 24  1  0  0  0  0
 22 23  1  0  0  0  0
 25 24  2  0  0  0  0
 26 25  1  0  0  0  0
M  END
>  <minimizedAffinity>
-4.65538549

$$$$

 OpenBabel03272508153D

 26 28  0  0  0  0  0  0  0  0999 V2000
   36.3100   28.1080   34.5220 Cl  0  0  0  0  0  0  0  0  0  0  0  0
   36.0890   29.1480   33.1430 C   0  0  0  0  0  0  0  0  0  0  0  0
   36.6280   28.6490   31.9730 C   0  0  0  0  0  0  0  0  0  0  0  0
   36.5010   29.4160   30.8080 C   0  0  0  0  0  0  0  0  0  0  0  0
   35.8700   30.6190   30.8040 C   0  0  0  0  0  0  0  0  0  0  0  0
   35.3420   31.0990   31.9750 C   0  0  0  0  0  0  0  0  0  0  0  0
   34.5250   32.6390   32.0070 Cl  0  0  0  0  0  0  0  0  0  0  0  0
   35.4550   30.3700   33.1130 C   0  0  0  0  0  0  0  0  0  0  0  0
   36.8930   29.1040   29.8440 H   0  0  0  0  0  0  0  0  0  0  0  0
   35.7640   31.2240   29.9100 H   0  0  0  0  0  0  0  0  0  0  0  0
   38.7470   27.3860   31.8990 C   0  0  0  0  0  0  0  0  0  0  0  0
   37.3440   27.3860   31.7470 C   0  0  0  0  0  0  0  0  0  0  0  0
   36.7210   26.1950   31.3940 C   0  0  0  0  0  0  0  0  0  0  0  0
   37.4840   25.0830   31.2100 N   0  0  0  0  0  0  0  0  0  0  0  0
   38.8420   25.1300   31.3670 C   0  0  0  0  0  0  0  0  0  0  0  0
   39.4730   26.2850   31.7130 N   0  0  0  0  0  0  0  0  0  0  0  0
   39.2310   28.3060   32.1720 H   0  0  0  0  0  0  0  0  0  0  0  0
   35.6660   26.2080   31.2830 H   0  0  0  0  0  0  0  0  0  0  0  0
   39.4670   24.2530   31.2250 H   0  0  0  0  0  0  0  0  0  0  0  0
   34.9220   30.7990   34.4110 C   0  0  0  0  0  0  0  0  0  0  0  0
   35.7900   31.5140   35.2140 C   0  0  0  0  0  3  0  0  0  0  0  0
   35.3680   31.9600   36.4640 C   0  0  0  0  0  0  0  0  0  0  0  0
   35.9880   32.5240   37.1440 H   0  0  0  0  0  0  0  0  0  0  0  0
   34.1060   31.6730   36.8560 N   0  0  0  0  0  0  0  0  0  0  0  0
   33.3060   30.9660   36.0180 C   0  0  0  0  0  3  0  0  0  0  0  0
   33.6600   30.5110   34.8010 N   0  0  0  0  0  0  0  0  0  0  0  0
  2  1  1  0  0  0  0
  3  2  2  0  0  0  0
  4  3  1  0  0  0  0
  5  4  2  0  0  0  0
  5  6  1  0  0  0  0
  6  7  1  0  0  0  0
  6  8  2  0  0  0  0
  8  2  1  0  0  0  0
  8 20  1  0  0  0  0
  9  4  1  0  0  0  0
 10  5  1  0  0  0  0
 11 17  1  0  0  0  0
 12 11  1  0  0  0  0
 12  3  1  0  0  0  0
 13 12  2  0  0  0  0
 14 15  2  0  0  0  0
 14 13  1  0  0  0  0
 15 16  1  0  0  0  0
 16 11  2  0  0  0  0
 18 13  1  0  0  0  0
 19 15  1  0  0  0  0
 20 26  2  0  0  0  0
 20 21  1  0  0  0  0
 21 22  2  0  0  0  0
 22 24  1  0  0  0  0
 22 23  1  0  0  0  0
 25 24  2  0  0  0  0
 26 25  1  0  0  0  0
M  END
>  <minimizedAffinity>
-4.62430143

$$$$

 OpenBabel03272508153D

 26 28  0  0  0  0  0  0  0  0999 V2000
   38.8350   27.0750   33.3380 Cl  0  0  0  0  0  0  0  0  0  0  0  0
   37.7790   25.8360   32.7190 C   0  0  0  0  0  0  0  0  0  0  0  0
   38.1050   24.5610   33.1380 C   0  0  0  0  0  0  0  0  0  0  0  0
   37.3140   23.4960   32.6920 C   0  0  0  0  0  0  0  0  0  0  0  0
   36.2500   23.6870   31.8680 C   0  0  0  0  0  0  0  0  0  0  0  0
   35.9420   24.9590   31.4610 C   0  0  0  0  0  0  0  0  0  0  0  0
   34.5830   25.2410   30.4050 Cl  0  0  0  0  0  0  0  0  0  0  0  0
   36.6970   26.0030   31.8840 C   0  0  0  0  0  0  0  0  0  0  0  0
   37.4950   22.4610   32.9700 H   0  0  0  0  0  0  0  0  0  0  0  0
   35.6280   22.8720   31.5140 H   0  0  0  0  0  0  0  0  0  0  0  0
   38.9110   23.9380   35.3870 C   0  0  0  0  0  0  0  0  0  0  0  0
   39.2000   24.1260   34.0180 C   0  0  0  0  0  0  0  0  0  0  0  0
   40.4980   23.8910   33.5810 C   0  0  0  0  0  0  0  0  0  0  0  0
   41.4330   23.4910   34.4860 N   0  0  0  0  0  0  0  0  0  0  0  0
   41.1090   23.3220   35.8030 C   0  0  0  0  0  0  0  0  0  0  0  0
   39.8440   23.5470   36.2530 N   0  0  0  0  0  0  0  0  0  0  0  0
   37.9080   24.1200   35.7270 H   0  0  0  0  0  0  0  0  0  0  0  0
   40.7010   24.0350   32.5510 H   0  0  0  0  0  0  0  0  0  0  0  0
   41.8410   23.0030   36.5390 H   0  0  0  0  0  0  0  0  0  0  0  0
   36.4450   27.3970   31.5040 C   0  0  0  0  0  0  0  0  0  0  0  0
   35.6810   28.1370   32.3870 C   0  0  0  0  0  3  0  0  0  0  0  0
   35.3930   29.4700   32.1040 C   0  0  0  0  0  0  0  0  0  0  0  0
   34.8050   30.1080   32.7460 H   0  0  0  0  0  0  0  0  0  0  0  0
   35.8770   30.0030   30.9600 N   0  0  0  0  0  0  0  0  0  0  0  0
   36.6200   29.2210   30.1370 C   0  0  0  0  0  3  0  0  0  0  0  0
   36.9300   27.9290   30.3590 N   0  0  0  0  0  0  0  0  0  0  0  0
  2  3  1  0  0  0  0
  2  1  1  0  0  0  0
  3 12  1  0  0  0  0
  4  9  1  0  0  0  0
  4  3  2  0  0  0  0
  5  4  1  0  0  0  0
  6  5  2  0  0  0  0
  6  8  1  0  0  0  0
  7  6  1  0  0  0  0
  8  2  2  0  0  0  0
 10  5  1  0  0  0  0
 11 17  1  0  0  0  0
 11 16  1  0  0  0  0
 12 11  2  0  0  0  0
 13 12  1  0  0  0  0
 13 14  2  0  0  0  0
 14 15  1  0  0  0  0
 15 16  2  0  0  0  0
 15 19  1  0  0  0  0
 18 13  1  0  0  0  0
 20  8  1  0  0  0  0
 20 21  1  0  0  0  0
 22 21  2  0  0  0  0
 22 23  1  0  0  0  0
 24 22  1  0  0  0  0
 25 26  1  0  0  0  0
 25 24  2  0  0  0  0
 26 20  2  0  0  0  0
M  END
>  <minimizedAffinity>
-4.55098438

$$$$

 OpenBabel03272508153D

 26 28  0  0  0  0  0  0  0  0999 V2000
   35.2660   24.5660   30.8110 Cl  0  0  0  0  0  0  0  0  0  0  0  0
   36.5770   24.5090   31.9570 C   0  0  0  0  0  0  0  0  0  0  0  0
   37.1110   25.7460   32.2590 C   0  0  0  0  0  0  0  0  0  0  0  0
   38.1720   25.8020   33.1710 C   0  0  0  0  0  0  0  0  0  0  0  0
   38.6790   24.6840   33.7540 C   0  0  0  0  0  0  0  0  0  0  0  0
   38.1370   23.4640   33.4410 C   0  0  0  0  0  0  0  0  0  0  0  0
   38.7620   22.0090   34.1710 Cl  0  0  0  0  0  0  0  0  0  0  0  0
   37.1090   23.3910   32.5600 C   0  0  0  0  0  0  0  0  0  0  0  0
   38.6540   26.7290   33.4690 H   0  0  0  0  0  0  0  0  0  0  0  0
   39.5000   24.7120   34.4630 H   0  0  0  0  0  0  0  0  0  0  0  0
   37.3120   27.5160   30.5510 C   0  0  0  0  0  0  0  0  0  0  0  0
   36.7250   27.0710   31.7540 C   0  0  0  0  0  0  0  0  0  0  0  0
   35.8170   27.9080   32.3920 C   0  0  0  0  0  0  0  0  0  0  0  0
   35.5330   29.1170   31.8340 N   0  0  0  0  0  0  0  0  0  0  0  0
   36.1270   29.5070   30.6660 C   0  0  0  0  0  0  0  0  0  0  0  0
   37.0180   28.7030   30.0240 N   0  0  0  0  0  0  0  0  0  0  0  0
   38.0140   26.8700   30.0560 H   0  0  0  0  0  0  0  0  0  0  0  0
   35.3830   27.5620   33.2960 H   0  0  0  0  0  0  0  0  0  0  0  0
   35.9120   30.4670   30.2050 H   0  0  0  0  0  0  0  0  0  0  0  0
   36.4640   22.1340   32.1630 C   0  0  0  0  0  0  0  0  0  0  0  0
   37.0300   21.4770   31.0870 C   0  0  0  0  0  3  0  0  0  0  0  0
   36.4810   20.2770   30.6420 C   0  0  0  0  0  0  0  0  0  0  0  0
   36.8690   19.7090   29.8110 H   0  0  0  0  0  0  0  0  0  0  0  0
   35.3980   19.7880   31.2860 N   0  0  0  0  0  0  0  0  0  0  0  0
   34.8920   20.4840   32.3360 C   0  0  0  0  0  3  0  0  0  0  0  0
   35.3810   21.6470   32.8090 N   0  0  0  0  0  0  0  0  0  0  0  0
  1  2  1  0  0  0  0
  2  3  2  0  0  0  0
  2  8  1  0  0  0  0
  3  4  1  0  0  0  0
  4  9  1  0  0  0  0
  4  5  2  0  0  0  0
  5 10  1  0  0  0  0
  6  5  1  0  0  0  0
  6  7  1  0  0  0  0
  8  6  2  0  0  0  0
 11 12  1  0  0  0  0
 12  3  1  0  0  0  0
 12 13  2  0  0  0  0
 13 18  1  0  0  0  0
 14 13  1  0  0  0  0
 15 14  2  0  0  0  0
 16 11  2  0  0  0  0
 16 15  1  0  0  0  0
 17 11  1  0  0  0  0
 19 15  1  0  0  0  0
 20  8  1  0  0  0  0
 20 26  1  0  0  0  0
 21 20  2  0  0  0  0
 22 21  1  0  0  0  0
 22 24  2  0  0  0  0
 23 22  1  0  0  0  0
 24 25  1  0  0  0  0
 25 26  2  0  0  0  0
M  END
>  <minimizedAffinity>
-4.55085182

$$$$
