
 OpenBabel03272510023D

 19 20  0  0  0  0  0  0  0  0999 V2000
   38.1830   32.7640   49.5030 C   0  0  0  0  0  0  0  0  0  0  0  0
   38.6140   32.6680   48.1680 C   0  0  0  0  0  0  0  0  0  0  0  0
   37.9800   31.7280   47.3700 C   0  0  0  0  0  0  0  0  0  0  0  0
   36.9960   30.9560   47.8910 N   0  0  0  0  0  0  0  0  0  0  0  0
   36.6120   31.0820   49.1820 C   0  0  0  0  0  0  0  0  0  0  0  0
   37.2020   31.9790   49.9800 N   0  0  0  0  0  0  0  0  0  0  0  0
   38.6510   33.4870   50.1610 H   0  0  0  0  0  0  0  0  0  0  0  0
   39.4050   33.3100   47.8030 H   0  0  0  0  0  0  0  0  0  0  0  0
   38.3790   31.5750   45.9740 C   0  0  0  0  0  0  0  0  0  0  0  0
   39.2160   30.5400   45.6090 C   0  0  0  0  0  3  0  0  0  0  0  0
   39.5510   30.4560   44.2720 C   0  0  0  0  0  0  0  0  0  0  0  0
   40.2000   29.6620   43.9620 H   0  0  0  0  0  0  0  0  0  0  0  0
   39.0600   31.3590   43.4100 N   0  0  0  0  0  0  0  0  0  0  0  0
   38.2490   32.3650   43.7500 C   0  0  0  0  0  3  0  0  0  0  0  0
   37.9180   32.4490   45.0630 N   0  0  0  0  0  0  0  0  0  0  0  0
   35.5260   30.1960   49.6710 C   0  0  0  0  0  0  0  0  0  0  0  0
   35.7630   29.7260   50.9560 F   0  0  0  0  0  0  0  0  0  0  0  0
   34.3150   30.8670   49.7110 F   0  0  0  0  0  0  0  0  0  0  0  0
   35.3190   29.1020   48.8650 F   0  0  0  0  0  0  0  0  0  0  0  0
  1  6  1  0  0  0  0
  1  7  1  0  0  0  0
  2  1  2  0  0  0  0
  3  4  2  0  0  0  0
  3  2  1  0  0  0  0
  4  5  1  0  0  0  0
  5 16  1  0  0  0  0
  5  6  2  0  0  0  0
  8  2  1  0  0  0  0
  9  3  1  0  0  0  0
 10  9  1  0  0  0  0
 11 10  2  0  0  0  0
 12 11  1  0  0  0  0
 13 14  2  0  0  0  0
 13 11  1  0  0  0  0
 14 15  1  0  0  0  0
 15  9  2  0  0  0  0
 16 18  1  0  0  0  0
 16 17  1  0  0  0  0
 19 16  1  0  0  0  0
M  END
>  <minimizedAffinity>
-5.31056309

>  <minimizedRMSD>
1.5856787

$$$$
