
 OpenBabel03272507583D

 30 32  0  0  0  0  0  0  0  0999 V2000
   36.8430   31.2200   48.5620 C   0  0  0  0  0  0  0  0  0  0  0  0
   37.1040   32.0980   49.5970 C   0  0  0  0  0  0  0  0  0  0  0  0
   38.0100   33.1310   49.4110 C   0  0  0  0  0  0  0  0  0  0  0  0
   38.6500   33.2780   48.1860 C   0  0  0  0  0  0  0  0  0  0  0  0
   38.3630   32.3840   47.1830 C   0  0  0  0  0  0  0  0  0  0  0  0
   37.4800   31.3850   47.3790 N   0  0  0  0  0  0  0  0  0  0  0  0
   36.6930   32.1230   50.6000 H   0  0  0  0  0  0  0  0  0  0  0  0
   38.2780   33.8660   50.1570 H   0  0  0  0  0  0  0  0  0  0  0  0
   39.3640   34.0690   47.9930 H   0  0  0  0  0  0  0  0  0  0  0  0
   35.1570   28.3700   50.3360 C   0  0  0  0  0  0  0  0  0  0  0  0
   36.1340   29.3520   50.0050 C   0  0  0  0  0  0  0  0  0  0  0  0
   35.8700   30.2010   48.9360 C   0  0  0  0  0  0  0  0  0  0  0  0
   34.6900   30.0530   48.2560 N   0  0  0  0  0  0  0  0  0  0  0  0
   33.7940   29.0940   48.6210 C   0  0  0  0  0  0  0  0  0  0  0  0
   34.0090   28.2650   49.6350 N   0  0  0  0  0  0  0  0  0  0  0  0
   32.6490   29.1180   47.7670 N   0  0  0  0  0  0  0  0  0  0  0  0
   35.3380   27.7000   51.1600 H   0  0  0  0  0  0  0  0  0  0  0  0
   32.0030   29.9400   47.8960 H   0  0  0  0  0  0  0  0  0  0  0  0
   32.5350   28.3310   47.0860 H   0  0  0  0  0  0  0  0  0  0  0  0
   37.3790   29.4220   50.8080 C   0  0  0  0  0  0  0  0  0  0  0  0
   38.4740   29.7760   50.0200 F   0  0  0  0  0  0  0  0  0  0  0  0
   37.2160   30.3680   51.7710 F   0  0  0  0  0  0  0  0  0  0  0  0
   37.6940   28.2270   51.4300 F   0  0  0  0  0  0  0  0  0  0  0  0
   39.0090   32.4980   45.8820 C   0  0  0  0  0  0  0  0  0  0  0  0
   40.3780   32.5170   45.7610 C   0  0  0  0  0  3  0  0  0  0  0  0
   40.8650   32.6280   44.4740 C   0  0  0  0  0  0  0  0  0  0  0  0
   41.9580   32.6470   44.3410 H   0  0  0  0  0  0  0  0  0  0  0  0
   40.0620   32.7120   43.4000 N   0  0  0  0  0  0  0  0  0  0  0  0
   38.7100   32.6900   43.5470 C   0  0  0  0  0  3  0  0  0  0  0  0
   38.2400   32.5830   44.7800 N   0  0  0  0  0  0  0  0  0  0  0  0
  1 12  1  0  0  0  0
  1  2  1  0  0  0  0
  2  7  1  0  0  0  0
  3  2  2  0  0  0  0
  3  8  1  0  0  0  0
  4  3  1  0  0  0  0
  5  6  1  0  0  0  0
  5  4  2  0  0  0  0
  6  1  2  0  0  0  0
  9  4  1  0  0  0  0
 10 17  1  0  0  0  0
 11 10  1  0  0  0  0
 11 20  1  0  0  0  0
 12 11  2  0  0  0  0
 13 14  2  0  0  0  0
 13 12  1  0  0  0  0
 14 15  1  0  0  0  0
 15 10  2  0  0  0  0
 16 18  1  0  0  0  0
 16 14  1  0  0  0  0
 19 16  1  0  0  0  0
 20 23  1  0  0  0  0
 20 22  1  0  0  0  0
 21 20  1  0  0  0  0
 24  5  1  0  0  0  0
 25 24  1  0  0  0  0
 26 25  2  0  0  0  0
 27 26  1  0  0  0  0
 28 29  2  0  0  0  0
 28 26  1  0  0  0  0
 29 30  1  0  0  0  0
 30 24  2  0  0  0  0
M  END
>  <minimizedAffinity>
-6.70866966

>  <minimizedRMSD>
1.06962097

$$$$
