
 OpenBabel03272507563D

 21 22  0  0  0  0  0  0  0  0999 V2000
   37.0400   27.3630   33.5600 C   0  0  0  0  0  0  0  0  0  0  0  0
   37.8680   26.5110   34.3370 C   0  0  0  0  0  0  0  0  0  0  0  0
   38.1080   25.2200   33.8680 C   0  0  0  0  0  0  0  0  0  0  0  0
   37.5410   24.8360   32.6920 N   0  0  0  0  0  0  0  0  0  0  0  0
   36.7500   25.6790   31.9720 C   0  0  0  0  0  0  0  0  0  0  0  0
   36.5020   26.9210   32.3950 N   0  0  0  0  0  0  0  0  0  0  0  0
   36.2550   25.0930   30.7830 N   0  0  0  0  0  0  0  0  0  0  0  0
   36.8220   28.3730   33.8800 H   0  0  0  0  0  0  0  0  0  0  0  0
   35.2230   25.3210   30.7250 H   0  0  0  0  0  0  0  0  0  0  0  0
   36.7990   24.5420   30.0950 H   0  0  0  0  0  0  0  0  0  0  0  0
   38.9520   24.3300   34.6420 C   0  0  0  0  0  0  0  0  0  0  0  0
   38.1970   23.3410   35.2670 C   0  0  0  0  0  3  0  0  0  0  0  0
   38.8050   22.3700   36.0700 C   0  0  0  0  0  0  0  0  0  0  0  0
   38.2550   21.5840   36.5720 H   0  0  0  0  0  0  0  0  0  0  0  0
   40.1490   22.4420   36.2040 N   0  0  0  0  0  0  0  0  0  0  0  0
   40.8720   23.4060   35.5950 C   0  0  0  0  0  3  0  0  0  0  0  0
   40.2830   24.3360   34.8250 N   0  0  0  0  0  0  0  0  0  0  0  0
   38.4390   27.0330   35.6090 C   0  0  0  0  0  0  0  0  0  0  0  0
   39.8020   27.2080   35.5200 F   0  0  0  0  0  0  0  0  0  0  0  0
   37.8470   28.2480   35.8650 F   0  0  0  0  0  0  0  0  0  0  0  0
   38.1810   26.2010   36.6790 F   0  0  0  0  0  0  0  0  0  0  0  0
  1  8  1  0  0  0  0
  1  2  1  0  0  0  0
  2 18  1  0  0  0  0
  3  2  2  0  0  0  0
  3 11  1  0  0  0  0
  4  3  1  0  0  0  0
  5  6  1  0  0  0  0
  5  4  2  0  0  0  0
  6  1  2  0  0  0  0
  7  5  1  0  0  0  0
  9  7  1  0  0  0  0
 10  7  1  0  0  0  0
 11 17  2  0  0  0  0
 11 12  1  0  0  0  0
 12 13  2  0  0  0  0
 13 15  1  0  0  0  0
 13 14  1  0  0  0  0
 16 15  2  0  0  0  0
 17 16  1  0  0  0  0
 18 20  1  0  0  0  0
 18 21  1  0  0  0  0
 19 18  1  0  0  0  0
M  END
>  <minimizedAffinity>
-4.72681856

$$$$

 OpenBabel03272507563D

 21 22  0  0  0  0  0  0  0  0999 V2000
   40.0540   22.5340   37.5730 C   0  0  0  0  0  0  0  0  0  0  0  0
   39.2340   23.6020   37.1240 C   0  0  0  0  0  0  0  0  0  0  0  0
   39.6290   24.3010   35.9840 C   0  0  0  0  0  0  0  0  0  0  0  0
   40.7780   23.9290   35.3550 N   0  0  0  0  0  0  0  0  0  0  0  0
   41.5410   22.8980   35.8130 C   0  0  0  0  0  0  0  0  0  0  0  0
   41.1880   22.2100   36.9020 N   0  0  0  0  0  0  0  0  0  0  0  0
   42.6920   22.6690   35.0230 N   0  0  0  0  0  0  0  0  0  0  0  0
   39.7920   21.9600   38.4520 H   0  0  0  0  0  0  0  0  0  0  0  0
   43.5100   22.5500   35.6850 H   0  0  0  0  0  0  0  0  0  0  0  0
   42.7320   22.6260   33.9890 H   0  0  0  0  0  0  0  0  0  0  0  0
   38.8090   25.3970   35.5050 C   0  0  0  0  0  0  0  0  0  0  0  0
   38.1220   25.0410   34.3480 C   0  0  0  0  0  3  0  0  0  0  0  0
   37.2690   25.9470   33.7090 C   0  0  0  0  0  0  0  0  0  0  0  0
   36.7160   25.7100   32.8090 H   0  0  0  0  0  0  0  0  0  0  0  0
   37.1490   27.1730   34.2690 N   0  0  0  0  0  0  0  0  0  0  0  0
   37.8200   27.5090   35.3910 C   0  0  0  0  0  3  0  0  0  0  0  0
   38.6390   26.6350   36.0010 N   0  0  0  0  0  0  0  0  0  0  0  0
   37.9980   23.9250   37.8880 C   0  0  0  0  0  0  0  0  0  0  0  0
   36.9000   24.0190   37.0630 F   0  0  0  0  0  0  0  0  0  0  0  0
   37.7910   22.9120   38.7960 F   0  0  0  0  0  0  0  0  0  0  0  0
   38.1100   25.1090   38.5900 F   0  0  0  0  0  0  0  0  0  0  0  0
  1  8  1  0  0  0  0
  2  1  1  0  0  0  0
  2 18  1  0  0  0  0
  3  2  2  0  0  0  0
  4  5  2  0  0  0  0
  4  3  1  0  0  0  0
  5  6  1  0  0  0  0
  6  1  2  0  0  0  0
  7  9  1  0  0  0  0
  7  5  1  0  0  0  0
 10  7  1  0  0  0  0
 11  3  1  0  0  0  0
 11 17  1  0  0  0  0
 12 11  2  0  0  0  0
 13 15  2  0  0  0  0
 13 12  1  0  0  0  0
 14 13  1  0  0  0  0
 15 16  1  0  0  0  0
 16 17  2  0  0  0  0
 18 21  1  0  0  0  0
 18 20  1  0  0  0  0
 19 18  1  0  0  0  0
M  END
>  <minimizedAffinity>
-4.69966698

$$$$

 OpenBabel03272507563D

 21 22  0  0  0  0  0  0  0  0999 V2000
   39.0090   27.1820   32.2600 C   0  0  0  0  0  0  0  0  0  0  0  0
   39.0370   26.4520   33.4770 C   0  0  0  0  0  0  0  0  0  0  0  0
   38.0630   25.4760   33.6820 C   0  0  0  0  0  0  0  0  0  0  0  0
   37.1320   25.2670   32.7100 N   0  0  0  0  0  0  0  0  0  0  0  0
   37.1340   25.9860   31.5540 C   0  0  0  0  0  0  0  0  0  0  0  0
   38.0550   26.9270   31.3290 N   0  0  0  0  0  0  0  0  0  0  0  0
   36.0880   25.6210   30.6740 N   0  0  0  0  0  0  0  0  0  0  0  0
   39.7420   27.9500   32.0520 H   0  0  0  0  0  0  0  0  0  0  0  0
   35.6460   26.5160   30.3220 H   0  0  0  0  0  0  0  0  0  0  0  0
   35.8040   24.6580   30.4210 H   0  0  0  0  0  0  0  0  0  0  0  0
   38.0700   24.7170   34.9170 C   0  0  0  0  0  0  0  0  0  0  0  0
   38.5030   23.4120   34.7010 C   0  0  0  0  0  3  0  0  0  0  0  0
   38.5890   22.4970   35.7570 C   0  0  0  0  0  0  0  0  0  0  0  0
   38.9220   21.4750   35.6310 H   0  0  0  0  0  0  0  0  0  0  0  0
   38.2330   22.9430   36.9830 N   0  0  0  0  0  0  0  0  0  0  0  0
   37.8120   24.2110   37.1820 C   0  0  0  0  0  3  0  0  0  0  0  0
   37.7320   25.0860   36.1650 N   0  0  0  0  0  0  0  0  0  0  0  0
   40.1000   26.7620   34.4720 C   0  0  0  0  0  0  0  0  0  0  0  0
   40.7980   25.6330   34.8390 F   0  0  0  0  0  0  0  0  0  0  0  0
   40.9690   27.6570   33.8910 F   0  0  0  0  0  0  0  0  0  0  0  0
   39.5930   27.3450   35.6160 F   0  0  0  0  0  0  0  0  0  0  0  0
  1  2  1  0  0  0  0
  2  3  2  0  0  0  0
  2 18  1  0  0  0  0
  3 11  1  0  0  0  0
  4  3  1  0  0  0  0
  5  4  2  0  0  0  0
  6  5  1  0  0  0  0
  6  1  2  0  0  0  0
  7  5  1  0  0  0  0
  8  1  1  0  0  0  0
  9  7  1  0  0  0  0
 10  7  1  0  0  0  0
 11 17  1  0  0  0  0
 12 11  2  0  0  0  0
 12 13  1  0  0  0  0
 13 15  2  0  0  0  0
 14 13  1  0  0  0  0
 15 16  1  0  0  0  0
 17 16  2  0  0  0  0
 18 19  1  0  0  0  0
 18 21  1  0  0  0  0
 20 18  1  0  0  0  0
M  END
>  <minimizedAffinity>
-4.5743947

$$$$

 OpenBabel03272507563D

 21 22  0  0  0  0  0  0  0  0999 V2000
   40.9920   23.0750   36.3470 C   0  0  0  0  0  0  0  0  0  0  0  0
   40.3130   24.0400   35.5590 C   0  0  0  0  0  0  0  0  0  0  0  0
   39.0550   24.4690   35.9820 C   0  0  0  0  0  0  0  0  0  0  0  0
   38.5380   23.9460   37.1270 N   0  0  0  0  0  0  0  0  0  0  0  0
   39.2170   23.0200   37.8600 C   0  0  0  0  0  0  0  0  0  0  0  0
   40.4220   22.5900   37.4800 N   0  0  0  0  0  0  0  0  0  0  0  0
   38.5100   22.6000   39.0110 N   0  0  0  0  0  0  0  0  0  0  0  0
   41.9690   22.7090   36.0630 H   0  0  0  0  0  0  0  0  0  0  0  0
   38.5730   21.5440   39.0520 H   0  0  0  0  0  0  0  0  0  0  0  0
   38.0210   23.2100   39.6910 H   0  0  0  0  0  0  0  0  0  0  0  0
   38.3410   25.4560   35.1950 C   0  0  0  0  0  0  0  0  0  0  0  0
   38.3270   26.6930   35.8330 C   0  0  0  0  0  3  0  0  0  0  0  0
   37.6900   27.7950   35.2530 C   0  0  0  0  0  0  0  0  0  0  0  0
   37.6570   28.7730   35.7150 H   0  0  0  0  0  0  0  0  0  0  0  0
   37.0970   27.5980   34.0530 N   0  0  0  0  0  0  0  0  0  0  0  0
   37.1150   26.3930   33.4430 C   0  0  0  0  0  3  0  0  0  0  0  0
   37.7280   25.3370   34.0040 N   0  0  0  0  0  0  0  0  0  0  0  0
   40.9720   24.5470   34.3240 C   0  0  0  0  0  0  0  0  0  0  0  0
   41.0070   25.9230   34.2940 F   0  0  0  0  0  0  0  0  0  0  0  0
   42.2610   24.0650   34.3090 F   0  0  0  0  0  0  0  0  0  0  0  0
   40.3420   24.1080   33.1760 F   0  0  0  0  0  0  0  0  0  0  0  0
  1  6  1  0  0  0  0
  2  3  1  0  0  0  0
  2  1  2  0  0  0  0
  3  4  2  0  0  0  0
  4  5  1  0  0  0  0
  5  7  1  0  0  0  0
  6  5  2  0  0  0  0
  7  9  1  0  0  0  0
  7 10  1  0  0  0  0
  8  1  1  0  0  0  0
 11 12  1  0  0  0  0
 11  3  1  0  0  0  0
 13 14  1  0  0  0  0
 13 12  2  0  0  0  0
 15 13  1  0  0  0  0
 16 17  1  0  0  0  0
 16 15  2  0  0  0  0
 17 11  2  0  0  0  0
 18  2  1  0  0  0  0
 19 18  1  0  0  0  0
 20 18  1  0  0  0  0
 21 18  1  0  0  0  0
M  END
>  <minimizedAffinity>
-4.57406235

$$$$

 OpenBabel03272507563D

 21 22  0  0  0  0  0  0  0  0999 V2000
   38.1660   24.9630   36.9580 C   0  0  0  0  0  0  0  0  0  0  0  0
   38.4390   25.4740   35.6620 C   0  0  0  0  0  0  0  0  0  0  0  0
   38.3430   24.6040   34.5770 C   0  0  0  0  0  0  0  0  0  0  0  0
   37.9930   23.3090   34.8070 N   0  0  0  0  0  0  0  0  0  0  0  0
   37.7380   22.8510   36.0640 C   0  0  0  0  0  0  0  0  0  0  0  0
   37.8210   23.6600   37.1220 N   0  0  0  0  0  0  0  0  0  0  0  0
   37.3940   21.4790   36.0930 N   0  0  0  0  0  0  0  0  0  0  0  0
   38.2270   25.5960   37.8330 H   0  0  0  0  0  0  0  0  0  0  0  0
   37.9460   21.0310   36.8770 H   0  0  0  0  0  0  0  0  0  0  0  0
   36.7250   20.9980   35.4640 H   0  0  0  0  0  0  0  0  0  0  0  0
   38.6170   25.1020   33.2430 C   0  0  0  0  0  0  0  0  0  0  0  0
   37.4390   25.2880   32.5250 C   0  0  0  0  0  3  0  0  0  0  0  0
   37.4640   25.7640   31.2090 C   0  0  0  0  0  0  0  0  0  0  0  0
   36.5720   25.9230   30.6180 H   0  0  0  0  0  0  0  0  0  0  0  0
   38.6800   26.0300   30.6790 N   0  0  0  0  0  0  0  0  0  0  0  0
   39.8170   25.8460   31.3830 C   0  0  0  0  0  3  0  0  0  0  0  0
   39.7880   25.3880   32.6470 N   0  0  0  0  0  0  0  0  0  0  0  0
   38.8130   26.9090   35.5240 C   0  0  0  0  0  0  0  0  0  0  0  0
   38.0390   27.5480   34.5820 F   0  0  0  0  0  0  0  0  0  0  0  0
   38.6210   27.5110   36.7460 F   0  0  0  0  0  0  0  0  0  0  0  0
   40.1390   27.0730   35.1740 F   0  0  0  0  0  0  0  0  0  0  0  0
  1  6  1  0  0  0  0
  1  8  1  0  0  0  0
  2  1  2  0  0  0  0
  3  4  2  0  0  0  0
  3  2  1  0  0  0  0
  4  5  1  0  0  0  0
  5  7  1  0  0  0  0
  5  6  2  0  0  0  0
  7  9  1  0  0  0  0
 10  7  1  0  0  0  0
 11  3  1  0  0  0  0
 12 11  2  0  0  0  0
 13 12  1  0  0  0  0
 14 13  1  0  0  0  0
 15 13  2  0  0  0  0
 15 16  1  0  0  0  0
 16 17  2  0  0  0  0
 17 11  1  0  0  0  0
 18  2  1  0  0  0  0
 18 20  1  0  0  0  0
 19 18  1  0  0  0  0
 21 18  1  0  0  0  0
M  END
>  <minimizedAffinity>
-4.45379925

$$$$

 OpenBabel03272507563D

 21 22  0  0  0  0  0  0  0  0999 V2000
   38.0490   24.3530   36.7740 C   0  0  0  0  0  0  0  0  0  0  0  0
   38.7670   24.9250   35.6920 C   0  0  0  0  0  0  0  0  0  0  0  0
   40.0280   24.4110   35.3930 C   0  0  0  0  0  0  0  0  0  0  0  0
   40.5120   23.3870   36.1490 N   0  0  0  0  0  0  0  0  0  0  0  0
   39.7970   22.8620   37.1810 C   0  0  0  0  0  0  0  0  0  0  0  0
   38.5860   23.3330   37.4910 N   0  0  0  0  0  0  0  0  0  0  0  0
   40.4720   21.8100   37.8430 N   0  0  0  0  0  0  0  0  0  0  0  0
   37.0670   24.7150   37.0470 H   0  0  0  0  0  0  0  0  0  0  0  0
   40.3810   21.9810   38.8830 H   0  0  0  0  0  0  0  0  0  0  0  0
   40.9670   21.0170   37.3950 H   0  0  0  0  0  0  0  0  0  0  0  0
   40.7820   24.9780   34.2910 C   0  0  0  0  0  0  0  0  0  0  0  0
   41.6810   25.9400   34.7410 C   0  0  0  0  0  3  0  0  0  0  0  0
   42.5150   26.6220   33.8480 C   0  0  0  0  0  0  0  0  0  0  0  0
   43.2270   27.3750   34.1570 H   0  0  0  0  0  0  0  0  0  0  0  0
   42.4020   26.2990   32.5390 N   0  0  0  0  0  0  0  0  0  0  0  0
   41.5250   25.3640   32.1120 C   0  0  0  0  0  3  0  0  0  0  0  0
   40.7260   24.7130   32.9750 N   0  0  0  0  0  0  0  0  0  0  0  0
   38.1420   26.0410   34.9300 C   0  0  0  0  0  0  0  0  0  0  0  0
   38.0140   25.7360   33.5940 F   0  0  0  0  0  0  0  0  0  0  0  0
   36.8920   26.2630   35.4610 F   0  0  0  0  0  0  0  0  0  0  0  0
   38.8620   27.2150   35.0360 F   0  0  0  0  0  0  0  0  0  0  0  0
  1  8  1  0  0  0  0
  1  6  1  0  0  0  0
  2  1  2  0  0  0  0
  3  2  1  0  0  0  0
  3  4  2  0  0  0  0
  4  5  1  0  0  0  0
  5  6  2  0  0  0  0
  5  7  1  0  0  0  0
  7  9  1  0  0  0  0
 10  7  1  0  0  0  0
 11 12  1  0  0  0  0
 11  3  1  0  0  0  0
 13 14  1  0  0  0  0
 13 12  2  0  0  0  0
 15 13  1  0  0  0  0
 16 15  2  0  0  0  0
 16 17  1  0  0  0  0
 17 11  2  0  0  0  0
 18 21  1  0  0  0  0
 18 20  1  0  0  0  0
 18  2  1  0  0  0  0
 19 18  1  0  0  0  0
M  END
>  <minimizedAffinity>
-4.38417864

$$$$

 OpenBabel03272507563D

 21 22  0  0  0  0  0  0  0  0999 V2000
   39.7420   27.1040   32.5690 C   0  0  0  0  0  0  0  0  0  0  0  0
   39.0780   26.2570   33.4950 C   0  0  0  0  0  0  0  0  0  0  0  0
   39.7830   25.8310   34.6200 C   0  0  0  0  0  0  0  0  0  0  0  0
   41.0700   26.2460   34.7800 N   0  0  0  0  0  0  0  0  0  0  0  0
   41.6770   27.0590   33.8720 C   0  0  0  0  0  0  0  0  0  0  0  0
   41.0270   27.4830   32.7850 N   0  0  0  0  0  0  0  0  0  0  0  0
   43.0120   27.3740   34.2160 N   0  0  0  0  0  0  0  0  0  0  0  0
   39.2400   27.4620   31.6800 H   0  0  0  0  0  0  0  0  0  0  0  0
   43.6000   27.2530   33.3450 H   0  0  0  0  0  0  0  0  0  0  0  0
   43.3540   27.6690   35.1490 H   0  0  0  0  0  0  0  0  0  0  0  0
   39.1280   24.9650   35.5810 C   0  0  0  0  0  0  0  0  0  0  0  0
   39.5690   23.6510   35.4540 C   0  0  0  0  0  3  0  0  0  0  0  0
   39.0690   22.6400   36.2830 C   0  0  0  0  0  0  0  0  0  0  0  0
   39.3850   21.6080   36.2170 H   0  0  0  0  0  0  0  0  0  0  0  0
   38.1450   23.0040   37.2020 N   0  0  0  0  0  0  0  0  0  0  0  0
   37.7230   24.2820   37.3160 C   0  0  0  0  0  3  0  0  0  0  0  0
   38.2070   25.2490   36.5180 N   0  0  0  0  0  0  0  0  0  0  0  0
   37.6680   25.8650   33.2220 C   0  0  0  0  0  0  0  0  0  0  0  0
   36.7990   26.4260   34.1310 F   0  0  0  0  0  0  0  0  0  0  0  0
   37.3460   26.3110   31.9610 F   0  0  0  0  0  0  0  0  0  0  0  0
   37.4910   24.4960   33.2460 F   0  0  0  0  0  0  0  0  0  0  0  0
  1  6  2  0  0  0  0
  1  2  1  0  0  0  0
  2  3  2  0  0  0  0
  3  4  1  0  0  0  0
  3 11  1  0  0  0  0
  5  7  1  0  0  0  0
  5  4  2  0  0  0  0
  6  5  1  0  0  0  0
  7 10  1  0  0  0  0
  8  1  1  0  0  0  0
  9  7  1  0  0  0  0
 11 17  1  0  0  0  0
 12 11  2  0  0  0  0
 12 13  1  0  0  0  0
 13 15  2  0  0  0  0
 14 13  1  0  0  0  0
 15 16  1  0  0  0  0
 17 16  2  0  0  0  0
 18 21  1  0  0  0  0
 18  2  1  0  0  0  0
 18 19  1  0  0  0  0
 20 18  1  0  0  0  0
M  END
>  <minimizedAffinity>
-4.34443808

$$$$

 OpenBabel03272507563D

 21 22  0  0  0  0  0  0  0  0999 V2000
   38.3380   24.5440   36.0890 C   0  0  0  0  0  0  0  0  0  0  0  0
   38.2250   25.5650   35.1090 C   0  0  0  0  0  0  0  0  0  0  0  0
   37.9910   25.1870   33.7880 C   0  0  0  0  0  0  0  0  0  0  0  0
   37.8820   23.8620   33.4970 N   0  0  0  0  0  0  0  0  0  0  0  0
   37.9960   22.9070   34.4620 C   0  0  0  0  0  0  0  0  0  0  0  0
   38.2190   23.2390   35.7360 N   0  0  0  0  0  0  0  0  0  0  0  0
   37.8550   21.5930   33.9590 N   0  0  0  0  0  0  0  0  0  0  0  0
   38.5190   24.7850   37.1280 H   0  0  0  0  0  0  0  0  0  0  0  0
   38.6320   21.0090   34.3780 H   0  0  0  0  0  0  0  0  0  0  0  0
   37.1260   21.2600   33.3010 H   0  0  0  0  0  0  0  0  0  0  0  0
   37.8720   26.2120   32.7680 C   0  0  0  0  0  0  0  0  0  0  0  0
   36.5470   26.3720   32.3710 C   0  0  0  0  0  3  0  0  0  0  0  0
   36.1960   27.3100   31.3940 C   0  0  0  0  0  0  0  0  0  0  0  0
   35.1790   27.4660   31.0580 H   0  0  0  0  0  0  0  0  0  0  0  0
   37.2010   28.0430   30.8610 N   0  0  0  0  0  0  0  0  0  0  0  0
   38.4830   27.8780   31.2520 C   0  0  0  0  0  3  0  0  0  0  0  0
   38.8150   26.9760   32.1920 N   0  0  0  0  0  0  0  0  0  0  0  0
   38.3610   26.9850   35.5380 C   0  0  0  0  0  0  0  0  0  0  0  0
   38.3350   27.1070   36.9090 F   0  0  0  0  0  0  0  0  0  0  0  0
   39.5670   27.4510   35.0690 F   0  0  0  0  0  0  0  0  0  0  0  0
   37.3640   27.7860   35.0170 F   0  0  0  0  0  0  0  0  0  0  0  0
  1  8  1  0  0  0  0
  2 18  1  0  0  0  0
  2  1  2  0  0  0  0
  3  2  1  0  0  0  0
  4  3  2  0  0  0  0
  4  5  1  0  0  0  0
  5  6  2  0  0  0  0
  6  1  1  0  0  0  0
  7  9  1  0  0  0  0
  7  5  1  0  0  0  0
 10  7  1  0  0  0  0
 11  3  1  0  0  0  0
 12 11  1  0  0  0  0
 13 12  2  0  0  0  0
 14 13  1  0  0  0  0
 15 16  2  0  0  0  0
 15 13  1  0  0  0  0
 16 17  1  0  0  0  0
 17 11  2  0  0  0  0
 18 19  1  0  0  0  0
 20 18  1  0  0  0  0
 21 18  1  0  0  0  0
M  END
>  <minimizedAffinity>
-4.3149848

$$$$

 OpenBabel03272507563D

 21 22  0  0  0  0  0  0  0  0999 V2000
   40.6210   22.6440   37.2900 C   0  0  0  0  0  0  0  0  0  0  0  0
   39.6470   23.5080   36.7260 C   0  0  0  0  0  0  0  0  0  0  0  0
   39.9940   24.2410   35.5910 C   0  0  0  0  0  0  0  0  0  0  0  0
   41.2460   24.0940   35.0770 N   0  0  0  0  0  0  0  0  0  0  0  0
   42.1570   23.2550   35.6440 C   0  0  0  0  0  0  0  0  0  0  0  0
   41.8530   22.5410   36.7310 N   0  0  0  0  0  0  0  0  0  0  0  0
   43.3970   23.2450   34.9640 N   0  0  0  0  0  0  0  0  0  0  0  0
   40.4020   22.0550   38.1700 H   0  0  0  0  0  0  0  0  0  0  0  0
   44.1590   23.3150   35.6960 H   0  0  0  0  0  0  0  0  0  0  0  0
   43.5380   23.1820   33.9390 H   0  0  0  0  0  0  0  0  0  0  0  0
   39.0160   25.1310   34.9960 C   0  0  0  0  0  0  0  0  0  0  0  0
   39.1790   26.4340   35.4560 C   0  0  0  0  0  3  0  0  0  0  0  0
   38.3420   27.4650   35.0130 C   0  0  0  0  0  0  0  0  0  0  0  0
   38.4350   28.4900   35.3450 H   0  0  0  0  0  0  0  0  0  0  0  0
   37.3780   27.1300   34.1250 N   0  0  0  0  0  0  0  0  0  0  0  0
   37.2280   25.8620   33.6860 C   0  0  0  0  0  3  0  0  0  0  0  0
   38.0340   24.8760   34.1140 N   0  0  0  0  0  0  0  0  0  0  0  0
   38.3070   23.5920   37.3700 C   0  0  0  0  0  0  0  0  0  0  0  0
   38.2610   22.8730   38.5430 F   0  0  0  0  0  0  0  0  0  0  0  0
   38.0570   24.9160   37.6460 F   0  0  0  0  0  0  0  0  0  0  0  0
   37.3000   23.1330   36.5450 F   0  0  0  0  0  0  0  0  0  0  0  0
  1  8  1  0  0  0  0
  2  1  2  0  0  0  0
  2 18  1  0  0  0  0
  3  2  1  0  0  0  0
  4  3  2  0  0  0  0
  4  5  1  0  0  0  0
  5  6  2  0  0  0  0
  6  1  1  0  0  0  0
  7  5  1  0  0  0  0
  7  9  1  0  0  0  0
 10  7  1  0  0  0  0
 11 12  1  0  0  0  0
 11  3  1  0  0  0  0
 13 14  1  0  0  0  0
 13 12  2  0  0  0  0
 15 13  1  0  0  0  0
 16 17  1  0  0  0  0
 16 15  2  0  0  0  0
 17 11  2  0  0  0  0
 18 20  1  0  0  0  0
 18 19  1  0  0  0  0
 21 18  1  0  0  0  0
M  END
>  <minimizedAffinity>
-4.27717781

$$$$
