
 OpenBabel03272502423D

 26 28  0  0  0  0  0  0  0  0999 V2000
   37.7240   32.5820   49.4810 C   0  0  0  0  0  0  0  0  0  0  0  0
   38.5510   32.7500   48.3560 C   0  0  0  0  0  0  0  0  0  0  0  0
   38.2740   31.9500   47.2400 C   0  0  0  0  0  0  0  0  0  0  0  0
   37.2480   31.0850   47.3210 N   0  0  0  0  0  0  0  0  0  0  0  0
   36.4720   30.9470   48.4160 C   0  0  0  0  0  0  0  0  0  0  0  0
   36.7150   31.7000   49.4970 N   0  0  0  0  0  0  0  0  0  0  0  0
   37.9620   33.2190   50.3370 H   0  0  0  0  0  0  0  0  0  0  0  0
   39.3670   33.4420   48.3010 H   0  0  0  0  0  0  0  0  0  0  0  0
   36.6960   28.7910   50.4380 Cl  0  0  0  0  0  0  0  0  0  0  0  0
   35.3890   28.9360   49.2950 C   0  0  0  0  0  0  0  0  0  0  0  0
   35.3810   29.9750   48.3970 C   0  0  0  0  0  0  0  0  0  0  0  0
   34.3670   30.1220   47.4810 C   0  0  0  0  0  0  0  0  0  0  0  0
   33.3250   29.2050   47.4530 C   0  0  0  0  0  0  0  0  0  0  0  0
   33.3050   28.1530   48.3410 C   0  0  0  0  0  0  0  0  0  0  0  0
   32.0470   26.9390   48.4010 Cl  0  0  0  0  0  0  0  0  0  0  0  0
   34.3450   28.0490   49.2410 C   0  0  0  0  0  0  0  0  0  0  0  0
   34.3690   30.9470   46.7740 H   0  0  0  0  0  0  0  0  0  0  0  0
   32.5210   29.2900   46.7540 H   0  0  0  0  0  0  0  0  0  0  0  0
   34.3550   27.2280   49.9530 H   0  0  0  0  0  0  0  0  0  0  0  0
   39.0330   32.0010   45.9990 C   0  0  0  0  0  0  0  0  0  0  0  0
   40.1590   31.2490   45.7560 C   0  0  0  0  0  0  0  0  0  0  0  0
   40.8960   31.2760   44.5930 C   0  0  0  0  0  0  0  0  0  0  0  0
   41.7630   30.6850   44.4290 H   0  0  0  0  0  0  0  0  0  0  0  0
   40.4770   32.1100   43.6150 N   0  0  0  0  0  0  0  0  0  0  0  0
   39.3660   32.8660   43.8300 C   0  0  0  0  0  0  0  0  0  0  0  0
   38.6740   32.8090   44.9810 N   0  0  0  0  0  0  0  0  0  0  0  0
  1  6  1  0  0  0  0
  1  7  1  0  0  0  0
  2  1  2  0  0  0  0
  3  4  2  0  0  0  0
  3  2  1  0  0  0  0
  4  5  1  0  0  0  0
  5  6  2  0  0  0  0
  8  2  1  0  0  0  0
 10  9  1  0  0  0  0
 11  5  1  0  0  0  0
 11 10  2  0  0  0  0
 12 11  1  0  0  0  0
 13 12  2  0  0  0  0
 13 14  1  0  0  0  0
 14 15  1  0  0  0  0
 14 16  2  0  0  0  0
 16 10  1  0  0  0  0
 16 19  1  0  0  0  0
 17 12  1  0  0  0  0
 18 13  1  0  0  0  0
 20  3  1  0  0  0  0
 21 20  1  0  0  0  0
 22 21  2  0  0  0  0
 23 22  1  0  0  0  0
 24 25  2  0  0  0  0
 24 22  1  0  0  0  0
 25 26  1  0  0  0  0
 26 20  2  0  0  0  0
M  END
>  <minimizedAffinity>
-6.4765749

>  <minimizedRMSD>
1.03946996

$$$$
