
 OpenBabel03272509503D

 31 33  0  0  0  0  0  0  0  0999 V2000
   34.6800   28.1610   49.7030 O   0  0  0  0  0  0  0  0  0  0  0  0
   37.1720   30.1230   51.4410 C   0  0  0  0  0  0  0  0  0  0  0  0
   37.7690   30.7930   50.3420 C   0  0  0  0  0  0  0  0  0  0  0  0
   37.2760   30.5230   49.0780 C   0  0  0  0  0  0  0  0  0  0  0  0
   36.2500   29.6380   48.9580 N   0  0  0  0  0  0  0  0  0  0  0  0
   35.7060   29.0200   50.0260 C   0  0  0  0  0  0  0  0  0  0  0  0
   36.1760   29.2690   51.2810 N   0  0  0  0  0  0  0  0  0  0  0  0
   37.5790   30.3550   52.4140 H   0  0  0  0  0  0  0  0  0  0  0  0
   38.5830   31.4930   50.4560 H   0  0  0  0  0  0  0  0  0  0  0  0
   37.7870   31.1330   47.8560 C   0  0  0  0  0  0  0  0  0  0  0  0
   37.2140   30.9230   46.6310 C   0  0  0  0  0  3  0  0  0  0  0  0
   37.7140   31.5090   45.4900 C   0  0  0  0  0  0  0  0  0  0  0  0
   37.2720   31.3510   44.5150 H   0  0  0  0  0  0  0  0  0  0  0  0
   38.7820   32.3020   45.5630 N   0  0  0  0  0  0  0  0  0  0  0  0
   39.3530   32.5180   46.7590 C   0  0  0  0  0  3  0  0  0  0  0  0
   38.8580   31.9440   47.8570 N   0  0  0  0  0  0  0  0  0  0  0  0
   33.7330   28.6110   48.7340 C   0  0  0  0  0  0  0  0  0  0  0  0
   33.1880   29.4750   49.1310 H   0  0  0  0  0  0  0  0  0  0  0  0
   34.3180   28.9670   47.8600 H   0  0  0  0  0  0  0  0  0  0  0  0
   32.8300   27.4680   48.3340 C   0  0  0  0  0  0  0  0  0  0  0  0
   32.9560   26.5900   48.9760 H   0  0  0  0  0  0  0  0  0  0  0  0
   33.0810   27.1640   47.2830 H   0  0  0  0  0  0  0  0  0  0  0  0
   31.3970   27.8670   48.3340 C   0  0  0  0  0  0  0  0  0  0  0  0
   30.7110   27.7320   49.5200 C   0  0  0  0  0  0  0  0  0  0  0  0
   29.3730   28.0700   49.6470 C   0  0  0  0  0  0  0  0  0  0  0  0
   28.7270   28.5410   48.5880 N   0  0  0  0  0  0  0  0  0  0  0  0
   29.3970   28.6770   47.4170 C   0  0  0  0  0  0  0  0  0  0  0  0
   30.7010   28.3530   47.2740 N   0  0  0  0  0  0  0  0  0  0  0  0
   31.2070   27.3500   50.4070 H   0  0  0  0  0  0  0  0  0  0  0  0
   28.8250   27.9720   50.5580 H   0  0  0  0  0  0  0  0  0  0  0  0
   28.9480   29.0570   46.4890 H   0  0  0  0  0  0  0  0  0  0  0  0
  1  6  1  0  0  0  0
  2  8  1  0  0  0  0
  3  9  1  0  0  0  0
  3  2  2  0  0  0  0
  4  3  1  0  0  0  0
  5  4  2  0  0  0  0
  5  6  1  0  0  0  0
  6  7  2  0  0  0  0
  7  2  1  0  0  0  0
 10 16  1  0  0  0  0
 10  4  1  0  0  0  0
 11 10  2  0  0  0  0
 12 14  2  0  0  0  0
 12 11  1  0  0  0  0
 13 12  1  0  0  0  0
 14 15  1  0  0  0  0
 15 16  2  0  0  0  0
 17 18  1  0  0  0  0
 17  1  1  0  0  0  0
 19 17  1  0  0  0  0
 20 23  1  0  0  0  0
 20 17  1  0  0  0  0
 20 21  1  0  0  0  0
 22 20  1  0  0  0  0
 23 24  1  0  0  0  0
 24 25  2  0  0  0  0
 24 29  1  0  0  0  0
 25 30  1  0  0  0  0
 26 25  1  0  0  0  0
 27 26  2  0  0  0  0
 28 27  1  0  0  0  0
 28 23  2  0  0  0  0
 31 27  1  0  0  0  0
M  END
>  <minimizedAffinity>
-5.67553329

>  <minimizedRMSD>
0.521440089

$$$$
