
 OpenBabel03272510043D

 35 37  0  0  0  0  0  0  0  0999 V2000
   38.4680   32.3320   45.0400 C   0  0  0  0  0  0  0  0  0  0  0  0
   37.9600   32.0510   43.8100 C   0  0  0  0  0  0  0  0  0  0  0  0
   38.5010   32.6610   42.6840 C   0  0  0  0  0  0  0  0  0  0  0  0
   39.5480   33.5580   42.7590 C   0  0  0  0  0  0  0  0  0  0  0  0
   40.0830   33.8680   43.9800 C   0  0  0  0  0  0  0  0  0  0  0  0
   39.5270   33.2470   45.0710 C   0  0  0  0  0  0  0  0  0  0  0  0
   38.0700   32.4120   41.7030 H   0  0  0  0  0  0  0  0  0  0  0  0
   39.8880   33.9670   41.8230 H   0  0  0  0  0  0  0  0  0  0  0  0
   40.8840   34.5620   43.9760 H   0  0  0  0  0  0  0  0  0  0  0  0
   40.0370   33.5780   45.9850 H   0  0  0  0  0  0  0  0  0  0  0  0
   34.4930   30.8670   43.5170 C   0  0  0  0  0  0  0  0  0  0  0  0
   35.5980   31.6910   43.6660 C   0  0  0  0  0  0  0  0  0  0  0  0
   36.8550   31.1700   43.6430 C   0  0  0  0  0  0  0  0  0  0  0  0
   36.9660   29.8250   43.4660 N   0  0  0  0  0  0  0  0  0  0  0  0
   35.9010   29.0250   43.3180 C   0  0  0  0  0  0  0  0  0  0  0  0
   34.6740   29.5510   43.3460 N   0  0  0  0  0  0  0  0  0  0  0  0
   33.4420   31.1130   43.5140 H   0  0  0  0  0  0  0  0  0  0  0  0
   35.1830   32.6680   43.7440 H   0  0  0  0  0  0  0  0  0  0  0  0
   36.1740   27.5860   43.0630 C   0  0  0  0  0  0  0  0  0  0  0  0
   35.3640   26.7630   43.8210 F   0  0  0  0  0  0  0  0  0  0  0  0
   35.7590   27.2720   41.7120 F   0  0  0  0  0  0  0  0  0  0  0  0
   37.4270   27.1930   43.1000 F   0  0  0  0  0  0  0  0  0  0  0  0
   37.9120   31.6260   46.4910 S   0  0  0  0  0  0  0  0  0  0  0  0
   38.4300   32.3280   47.6870 O   0  0  0  0  0  0  0  0  0  0  0  0
   38.8620   30.4470   46.5600 O   0  0  0  0  0  0  0  0  0  0  0  0
   36.6670   30.4950   46.7200 C   0  0  0  0  0  0  0  0  0  0  0  0
   35.7090   31.0740   46.4140 H   0  0  0  0  0  0  0  0  0  0  0  0
   36.6150   29.6880   45.9660 H   0  0  0  0  0  0  0  0  0  0  0  0
   36.3470   30.1330   48.0900 C   0  0  0  0  0  0  0  0  0  0  0  0
   35.0390   30.3720   48.4620 C   0  0  0  0  0  3  0  0  0  0  0  0
   34.5450   30.0880   49.7370 C   0  0  0  0  0  0  0  0  0  0  0  0
   33.5200   30.2780   50.0250 H   0  0  0  0  0  0  0  0  0  0  0  0
   35.3880   29.5500   50.6670 N   0  0  0  0  0  0  0  0  0  0  0  0
   36.6520   29.3340   50.2610 C   0  0  0  0  0  3  0  0  0  0  0  0
   37.1570   29.6020   49.0220 N   0  0  0  0  0  0  0  0  0  0  0  0
  1  6  1  0  0  0  0
  1 23  1  0  0  0  0
  2  1  2  0  0  0  0
  3  4  2  0  0  0  0
  3  2  1  0  0  0  0
  4  5  1  0  0  0  0
  5  6  2  0  0  0  0
  6 10  1  0  0  0  0
  7  3  1  0  0  0  0
  8  4  1  0  0  0  0
  9  5  1  0  0  0  0
 11 12  1  0  0  0  0
 12 18  1  0  0  0  0
 13 12  2  0  0  0  0
 13  2  1  0  0  0  0
 14 13  1  0  0  0  0
 15 16  1  0  0  0  0
 15 14  2  0  0  0  0
 16 11  2  0  0  0  0
 17 11  1  0  0  0  0
 19 22  1  0  0  0  0
 19 15  1  0  0  0  0
 19 20  1  0  0  0  0
 21 19  1  0  0  0  0
 23 25  2  0  0  0  0
 23 26  1  0  0  0  0
 23 24  2  0  0  0  0
 26 29  1  0  0  0  0
 27 26  1  0  0  0  0
 28 26  1  0  0  0  0
 29 30  2  0  0  0  0
 29 35  1  0  0  0  0
 30 31  1  0  0  0  0
 31 32  1  0  0  0  0
 31 33  2  0  0  0  0
 34 33  1  0  0  0  0
 35 34  2  0  0  0  0
M  END
>  <minimizedAffinity>
-4.51092625

>  <minimizedRMSD>
6.71021938

$$$$
