
 OpenBabel03272510063D

 28 30  0  0  0  0  0  0  0  0999 V2000
   36.5290   31.1920   49.0300 C   0  0  0  0  0  0  0  0  0  0  0  0
   37.2180   31.5090   47.8560 C   0  0  0  0  0  0  0  0  0  0  0  0
   36.8360   30.8690   46.6780 C   0  0  0  0  0  0  0  0  0  0  0  0
   35.8180   29.9760   46.7400 N   0  0  0  0  0  0  0  0  0  0  0  0
   35.1670   29.6850   47.8780 C   0  0  0  0  0  0  0  0  0  0  0  0
   35.5090   30.2840   49.0410 N   0  0  0  0  0  0  0  0  0  0  0  0
   34.0990   28.7250   47.8470 N   0  0  0  0  0  0  0  0  0  0  0  0
   32.9020   28.9230   47.0280 C   0  0  0  0  0  0  0  0  0  0  0  0
   32.1890   27.6170   47.1090 C   0  0  0  0  0  0  0  0  0  0  0  0
   33.1360   26.6460   47.7770 C   0  0  0  0  0  0  0  0  0  0  0  0
   34.0620   27.4860   48.5870 C   0  0  0  0  0  0  0  0  0  0  0  0
   36.7310   31.6170   49.9930 H   0  0  0  0  0  0  0  0  0  0  0  0
   37.3580   31.1050   45.7750 H   0  0  0  0  0  0  0  0  0  0  0  0
   32.2870   29.6980   47.5240 H   0  0  0  0  0  0  0  0  0  0  0  0
   33.2070   29.1850   45.9930 H   0  0  0  0  0  0  0  0  0  0  0  0
   32.0370   27.2290   46.0670 H   0  0  0  0  0  0  0  0  0  0  0  0
   31.2230   27.7100   47.6500 H   0  0  0  0  0  0  0  0  0  0  0  0
   33.6230   25.9440   47.0770 H   0  0  0  0  0  0  0  0  0  0  0  0
   32.5030   26.0160   48.4610 H   0  0  0  0  0  0  0  0  0  0  0  0
   35.0930   27.0570   48.5130 H   0  0  0  0  0  0  0  0  0  0  0  0
   33.8270   27.5910   49.6460 H   0  0  0  0  0  0  0  0  0  0  0  0
   38.2920   32.4890   47.9420 C   0  0  0  0  0  0  0  0  0  0  0  0
   38.5000   33.2740   49.0540 C   0  0  0  0  0  3  0  0  0  0  0  0
   39.5370   34.1960   49.0930 C   0  0  0  0  0  0  0  0  0  0  0  0
   39.7480   34.8370   49.9380 H   0  0  0  0  0  0  0  0  0  0  0  0
   40.3230   34.3000   48.0300 N   0  0  0  0  0  0  0  0  0  0  0  0
   40.1030   33.5250   46.9560 C   0  0  0  0  0  3  0  0  0  0  0  0
   39.0970   32.6060   46.8720 N   0  0  0  0  0  0  0  0  0  0  0  0
  1  6  1  0  0  0  0
  1 12  1  0  0  0  0
  2 22  1  0  0  0  0
  2  1  2  0  0  0  0
  3  4  2  0  0  0  0
  3  2  1  0  0  0  0
  4  5  1  0  0  0  0
  5  6  2  0  0  0  0
  7  5  1  0  0  0  0
  7 11  1  0  0  0  0
  8  9  1  0  0  0  0
  8 14  1  0  0  0  0
  8  7  1  0  0  0  0
  9 17  1  0  0  0  0
  9 10  1  0  0  0  0
 10 19  1  0  0  0  0
 10 11  1  0  0  0  0
 11 21  1  0  0  0  0
 13  3  1  0  0  0  0
 15  8  1  0  0  0  0
 16  9  1  0  0  0  0
 18 10  1  0  0  0  0
 20 11  1  0  0  0  0
 22 23  1  0  0  0  0
 23 24  2  0  0  0  0
 24 25  1  0  0  0  0
 26 24  1  0  0  0  0
 27 26  2  0  0  0  0
 28 27  1  0  0  0  0
 28 22  2  0  0  0  0
M  END
>  <minimizedAffinity>
-4.53683949

>  <minimizedRMSD>
2.51031733

$$$$
