
 OpenBabel03272510273D

 43 47  0  0  1  0  0  0  0  0999 V2000
   36.1070   30.1520   46.6070 C   0  0  0  0  0  0  0  0  0  0  0  0
   37.0280   30.7300   47.4800 C   0  0  0  0  0  0  0  0  0  0  0  0
   38.0260   31.5780   47.0140 C   0  0  0  0  0  0  0  0  0  0  0  0
   38.0490   31.8120   45.6440 C   0  0  0  0  0  0  0  0  0  0  0  0
   38.9270   32.5970   44.9530 N   0  0  0  0  0  0  0  0  0  0  0  0
   38.5720   32.5220   43.6630 C   0  0  0  0  0  0  0  0  0  0  0  0
   37.5270   31.7340   43.5290 N   0  0  0  0  0  0  0  0  0  0  0  0
   37.1620   31.2650   44.7470 C   0  0  0  0  0  0  0  0  0  0  0  0
   36.1670   30.4140   45.2420 C   0  0  0  0  0  0  0  0  0  0  0  0
   35.3240   29.4920   46.9380 H   0  0  0  0  0  0  0  0  0  0  0  0
   38.7320   32.0190   47.7010 H   0  0  0  0  0  0  0  0  0  0  0  0
   39.7230   33.1470   45.3800 H   0  0  0  0  0  0  0  0  0  0  0  0
   35.4810   29.9960   44.5170 H   0  0  0  0  0  0  0  0  0  0  0  0
   37.5890   30.3620   51.1720 C   0  0  0  0  0  0  0  0  0  0  0  0
   37.8090   30.7430   49.8620 C   0  0  0  0  0  0  0  0  0  0  0  0
   36.8900   30.3870   48.8820 C   0  0  0  0  0  0  0  0  0  0  0  0
   35.7940   29.6660   49.2660 N   0  0  0  0  0  0  0  0  0  0  0  0
   35.5910   29.3000   50.5570 C   0  0  0  0  0  0  0  0  0  0  0  0
   36.4670   29.6390   51.4790 N   0  0  0  0  0  0  0  0  0  0  0  0
   38.2850   30.6280   51.9300 H   0  0  0  0  0  0  0  0  0  0  0  0
   38.6790   31.3150   49.5600 H   0  0  0  0  0  0  0  0  0  0  0  0
   34.6850   28.7180   50.7870 H   0  0  0  0  0  0  0  0  0  0  0  0
   39.2700   33.2170   42.6610 O   0  0  0  0  0  0  0  0  0  0  0  0
   38.5910   31.9560   40.8830 N   0  0  0  0  0  0  0  0  0  0  0  0
   38.6030   33.3330   41.4120 C   0  0  1  0  0  0  0  0  0  0  0  0
   37.2290   33.7950   41.5570 C   0  0  0  0  0  0  0  0  0  0  0  0
   36.6430   33.8740   40.2810 O   0  0  0  0  0  0  0  0  0  0  0  0
   36.6900   32.7200   39.5490 C   0  0  0  0  0  0  0  0  0  0  0  0
   38.0340   32.0630   39.5500 C   0  0  1  0  0  0  0  0  0  0  0  0
   39.5980   31.6900   40.7980 H   0  0  0  0  0  0  0  0  0  0  0  0
   39.1480   34.0080   40.7410 H   0  0  0  0  0  0  0  0  0  0  0  0
   36.4850   33.3290   42.1440 H   0  0  0  0  0  0  0  0  0  0  0  0
   37.2690   34.8780   41.8850 H   0  0  0  0  0  0  0  0  0  0  0  0
   35.9710   32.0070   40.0260 H   0  0  0  0  0  0  0  0  0  0  0  0
   36.3990   32.9680   38.5170 H   0  0  0  0  0  0  0  0  0  0  0  0
   37.8420   30.9920   39.2430 H   0  0  0  0  0  0  0  0  0  0  0  0
   38.9930   32.5850   38.5740 C   0  0  0  0  0  0  0  0  0  0  0  0
   40.2580   32.1930   38.2460 C   0  0  0  0  0  3  0  0  0  0  0  0
   40.9910   32.8440   37.2760 C   0  0  0  0  0  0  0  0  0  0  0  0
   41.9850   32.4350   37.1080 H   0  0  0  0  0  0  0  0  0  0  0  0
   40.4820   33.9130   36.6000 N   0  0  0  0  0  0  0  0  0  0  0  0
   39.2320   34.2770   36.9430 C   0  0  0  0  0  3  0  0  0  0  0  0
   38.4770   33.6560   37.8980 N   0  0  0  0  0  0  0  0  0  0  0  0
  1 10  1  0  0  0  0
  1  2  1  0  0  0  0
  2 16  1  0  0  0  0
  3  2  2  0  0  0  0
  3 11  1  0  0  0  0
  4  3  1  0  0  0  0
  5 12  1  0  0  0  0
  5  4  1  0  0  0  0
  6  5  1  0  0  0  0
  7  6  2  0  0  0  0
  7  8  1  0  0  0  0
  8  9  1  0  0  0  0
  8  4  2  0  0  0  0
  9  1  2  0  0  0  0
 13  9  1  0  0  0  0
 14 19  1  0  0  0  0
 14 20  1  0  0  0  0
 15 14  2  0  0  0  0
 16 17  2  0  0  0  0
 16 15  1  0  0  0  0
 17 18  1  0  0  0  0
 18 22  1  0  0  0  0
 18 19  2  0  0  0  0
 21 15  1  0  0  0  0
 23  6  1  0  0  0  0
 24 25  1  0  0  0  0
 25 31  1  6  0  0  0
 25 26  1  0  0  0  0
 25 23  1  0  0  0  0
 26 33  1  0  0  0  0
 26 32  1  0  0  0  0
 27 26  1  0  0  0  0
 28 29  1  0  0  0  0
 28 34  1  0  0  0  0
 28 27  1  0  0  0  0
 29 36  1  6  0  0  0
 29 24  1  0  0  0  0
 30 24  1  0  0  0  0
 35 28  1  0  0  0  0
 37 29  1  0  0  0  0
 38 37  1  0  0  0  0
 39 38  2  0  0  0  0
 40 39  1  0  0  0  0
 41 42  2  0  0  0  0
 41 39  1  0  0  0  0
 42 43  1  0  0  0  0
 43 37  2  0  0  0  0
M  END
>  <minimizedAffinity>
-5.26004267

>  <minimizedRMSD>
1.24509501

$$$$
