
 OpenBabel03272508083D

 22 23  0  0  0  0  0  0  0  0999 V2000
   39.1240   32.6550   48.0260 O   0  0  0  0  0  0  0  0  0  0  0  0
   38.6030   31.6630   47.0230 P   0  0  2  0  0  0  0  0  0  0  0  0
   37.5130   32.4430   45.9720 O   0  0  0  0  0  0  0  0  0  0  0  0
   37.4940   33.4140   46.1620 H   0  0  0  0  0  0  0  0  0  0  0  0
   37.9010   30.2860   47.6920 O   0  0  0  0  0  0  0  0  0  0  0  0
   37.3420   30.2070   51.3430 C   0  0  0  0  0  0  0  0  0  0  0  0
   38.0130   30.5150   50.1670 C   0  0  0  0  0  0  0  0  0  0  0  0
   37.4480   30.1110   48.9670 C   0  0  0  0  0  0  0  0  0  0  0  0
   36.2660   29.4330   49.0080 N   0  0  0  0  0  0  0  0  0  0  0  0
   35.6450   29.1550   50.1810 C   0  0  0  0  0  0  0  0  0  0  0  0
   36.1870   29.5420   51.3420 N   0  0  0  0  0  0  0  0  0  0  0  0
   37.8590   30.5620   52.2220 H   0  0  0  0  0  0  0  0  0  0  0  0
   38.9400   31.0390   50.0500 H   0  0  0  0  0  0  0  0  0  0  0  0
   34.6990   28.6120   50.2080 H   0  0  0  0  0  0  0  0  0  0  0  0
   39.9110   31.1900   46.0500 O   0  0  0  0  0  0  0  0  0  0  0  0
   39.8280   30.5280   44.8490 C   0  0  0  0  0  0  0  0  0  0  0  0
   38.9680   29.5290   44.4660 C   0  0  0  0  0  3  0  0  0  0  0  0
   39.0320   28.9750   43.1990 C   0  0  0  0  0  0  0  0  0  0  0  0
   38.3250   28.1830   42.9440 H   0  0  0  0  0  0  0  0  0  0  0  0
   39.9600   29.4240   42.3160 N   0  0  0  0  0  0  0  0  0  0  0  0
   40.7880   30.3990   42.7120 C   0  0  0  0  0  3  0  0  0  0  0  0
   40.7450   30.9590   43.9490 N   0  0  0  0  0  0  0  0  0  0  0  0
  2  5  1  0  0  0  0
  2  1  2  1  0  0  0
  3  4  1  0  0  0  0
  3  2  1  0  0  0  0
  5  8  1  0  0  0  0
  6 12  1  0  0  0  0
  7  6  2  0  0  0  0
  8  9  2  0  0  0  0
  8  7  1  0  0  0  0
  9 10  1  0  0  0  0
 10 14  1  0  0  0  0
 10 11  2  0  0  0  0
 11  6  1  0  0  0  0
 13  7  1  0  0  0  0
 15  2  1  0  0  0  0
 16 15  1  0  0  0  0
 17 16  1  0  0  0  0
 18 17  2  0  0  0  0
 19 18  1  0  0  0  0
 20 21  2  0  0  0  0
 20 18  1  0  0  0  0
 21 22  1  0  0  0  0
 22 16  2  0  0  0  0
M  END
>  <minimizedAffinity>
-5.11943245

>  <minimizedRMSD>
1.13249218

$$$$
