
 OpenBabel03272500213D

 35 37  0  0  0  0  0  0  0  0999 V2000
   35.5370   29.1770   50.4180 C   0  0  0  0  0  0  0  0  0  0  0  0
   36.3740   30.1400   49.7770 C   0  0  0  0  0  0  0  0  0  0  0  0
   36.2480   30.3250   48.4000 C   0  0  0  0  0  0  0  0  0  0  0  0
   35.3190   29.5660   47.7300 N   0  0  0  0  0  0  0  0  0  0  0  0
   34.5530   28.6810   48.3420 C   0  0  0  0  0  0  0  0  0  0  0  0
   34.6440   28.4710   49.6730 N   0  0  0  0  0  0  0  0  0  0  0  0
   35.6500   29.0500   51.4710 H   0  0  0  0  0  0  0  0  0  0  0  0
   32.7280   30.2940   46.5560 Cl  0  0  0  0  0  0  0  0  0  0  0  0
   32.6930   28.5470   46.7000 C   0  0  0  0  0  0  0  0  0  0  0  0
   33.5800   27.9050   47.5530 C   0  0  0  0  0  0  0  0  0  0  0  0
   33.5950   26.5120   47.7070 C   0  0  0  0  0  0  0  0  0  0  0  0
   32.6630   25.8070   46.9480 C   0  0  0  0  0  0  0  0  0  0  0  0
   31.7780   26.4040   46.1000 C   0  0  0  0  0  0  0  0  0  0  0  0
   30.6660   25.4060   45.2100 Cl  0  0  0  0  0  0  0  0  0  0  0  0
   31.7970   27.7940   45.9780 C   0  0  0  0  0  0  0  0  0  0  0  0
   34.2570   25.9840   48.3480 H   0  0  0  0  0  0  0  0  0  0  0  0
   32.6610   24.7210   47.0540 H   0  0  0  0  0  0  0  0  0  0  0  0
   30.8520   28.4690   45.0700 C   0  0  0  0  0  0  0  0  0  0  0  0
   29.8940   27.5560   44.6020 F   0  0  0  0  0  0  0  0  0  0  0  0
   31.4780   29.0700   44.0170 F   0  0  0  0  0  0  0  0  0  0  0  0
   30.1490   29.4370   45.7530 F   0  0  0  0  0  0  0  0  0  0  0  0
   37.3440   30.8970   50.6260 C   0  0  0  0  0  0  0  0  0  0  0  0
   38.6270   30.7950   50.1150 F   0  0  0  0  0  0  0  0  0  0  0  0
   36.9800   32.2340   50.5850 F   0  0  0  0  0  0  0  0  0  0  0  0
   37.3360   30.4980   51.9390 F   0  0  0  0  0  0  0  0  0  0  0  0
   37.1020   31.3090   47.7390 C   0  0  0  0  0  0  0  0  0  0  0  0
   38.0550   31.5110   48.2900 H   0  0  0  0  0  0  0  0  0  0  0  0
   36.5680   32.2690   47.7010 H   0  0  0  0  0  0  0  0  0  0  0  0
   37.5450   30.8530   46.3870 C   0  0  0  0  0  0  0  0  0  0  0  0
   38.8900   30.5660   46.2170 C   0  0  0  0  0  0  0  0  0  0  0  0
   39.2690   30.1420   44.9450 C   0  0  0  0  0  0  0  0  0  0  0  0
   40.3080   29.9030   44.7490 H   0  0  0  0  0  0  0  0  0  0  0  0
   38.4270   30.0010   43.8990 N   0  0  0  0  0  0  0  0  0  0  0  0
   37.1250   30.2950   44.1270 C   0  0  0  0  0  0  0  0  0  0  0  0
   36.7060   30.7100   45.3410 N   0  0  0  0  0  0  0  0  0  0  0  0
  1  7  1  0  0  0  0
  2  1  1  0  0  0  0
  2 22  1  0  0  0  0
  3  2  2  0  0  0  0
  4  5  2  0  0  0  0
  4  3  1  0  0  0  0
  5  6  1  0  0  0  0
  6  1  2  0  0  0  0
  8  9  1  0  0  0  0
  9 10  1  0  0  0  0
 10 11  2  0  0  0  0
 10  5  1  0  0  0  0
 11 16  1  0  0  0  0
 12 17  1  0  0  0  0
 12 11  1  0  0  0  0
 13 12  2  0  0  0  0
 14 13  1  0  0  0  0
 15 13  1  0  0  0  0
 15  9  2  0  0  0  0
 18 21  1  0  0  0  0
 18 15  1  0  0  0  0
 19 18  1  0  0  0  0
 20 18  1  0  0  0  0
 22 25  1  0  0  0  0
 23 22  1  0  0  0  0
 24 22  1  0  0  0  0
 26 27  1  0  0  0  0
 26  3  1  0  0  0  0
 28 26  1  0  0  0  0
 29 26  1  0  0  0  0
 30 29  1  0  0  0  0
 31 30  2  0  0  0  0
 32 31  1  0  0  0  0
 33 34  2  0  0  0  0
 33 31  1  0  0  0  0
 34 35  1  0  0  0  0
 35 29  2  0  0  0  0
M  END
>  <minimizedAffinity>
-6.2890029

>  <minimizedRMSD>
0.670533478

$$$$
