
 OpenBabel03262521373D

 26 28  0  0  0  0  0  0  0  0999 V2000
   37.8560   30.5630   46.9720 F   0  0  0  0  0  0  0  0  0  0  0  0
   38.3520   31.6600   47.6110 C   0  0  0  0  0  0  0  0  0  0  0  0
   39.1620   32.5800   46.9520 C   0  0  0  0  0  0  0  0  0  0  0  0
   39.6440   33.6820   47.6350 C   0  0  0  0  0  0  0  0  0  0  0  0
   39.3250   33.8740   48.9760 C   0  0  0  0  0  0  0  0  0  0  0  0
   38.5180   32.9310   49.5820 C   0  0  0  0  0  0  0  0  0  0  0  0
   38.0200   31.8210   48.9310 C   0  0  0  0  0  0  0  0  0  0  0  0
   40.2540   34.3200   47.0360 H   0  0  0  0  0  0  0  0  0  0  0  0
   39.7170   34.7330   49.4560 H   0  0  0  0  0  0  0  0  0  0  0  0
   38.3320   33.1820   50.6310 H   0  0  0  0  0  0  0  0  0  0  0  0
   40.4550   31.3470   45.3600 C   0  0  0  0  0  0  0  0  0  0  0  0
   39.4450   32.3070   45.5770 C   0  0  0  0  0  0  0  0  0  0  0  0
   38.8570   32.8610   44.4520 C   0  0  0  0  0  0  0  0  0  0  0  0
   39.2550   32.4780   43.2050 N   0  0  0  0  0  0  0  0  0  0  0  0
   40.2300   31.5510   43.0550 C   0  0  0  0  0  0  0  0  0  0  0  0
   40.8330   30.9840   44.1200 N   0  0  0  0  0  0  0  0  0  0  0  0
   40.9790   30.8520   46.1680 H   0  0  0  0  0  0  0  0  0  0  0  0
   38.1000   33.5800   44.6460 H   0  0  0  0  0  0  0  0  0  0  0  0
   40.4350   31.3530   41.9950 H   0  0  0  0  0  0  0  0  0  0  0  0
   37.1940   30.9570   49.7500 C   0  0  0  0  0  0  0  0  0  0  0  0
   35.9200   30.5070   49.5140 C   0  0  0  0  0  0  0  0  0  0  0  0
   35.1720   29.6860   50.3210 C   0  0  0  0  0  0  0  0  0  0  0  0
   34.1710   29.3900   50.0370 H   0  0  0  0  0  0  0  0  0  0  0  0
   35.7330   29.2690   51.4740 N   0  0  0  0  0  0  0  0  0  0  0  0
   36.9970   29.6890   51.7560 C   0  0  0  0  0  0  0  0  0  0  0  0
   37.6670   30.4900   50.9180 N   0  0  0  0  0  0  0  0  0  0  0  0
  1  2  1  0  0  0  0
  2  7  1  0  0  0  0
  3  2  2  0  0  0  0
  3  4  1  0  0  0  0
  4  5  2  0  0  0  0
  5  9  1  0  0  0  0
  5  6  1  0  0  0  0
  6 10  1  0  0  0  0
  7  6  2  0  0  0  0
  7 20  1  0  0  0  0
  8  4  1  0  0  0  0
 11 12  1  0  0  0  0
 11 17  1  0  0  0  0
 12  3  1  0  0  0  0
 13 18  1  0  0  0  0
 13 12  2  0  0  0  0
 14 13  1  0  0  0  0
 15 14  2  0  0  0  0
 15 16  1  0  0  0  0
 16 11  2  0  0  0  0
 19 15  1  0  0  0  0
 20 26  1  0  0  0  0
 21 20  2  0  0  0  0
 21 22  1  0  0  0  0
 22 24  2  0  0  0  0
 23 22  1  0  0  0  0
 24 25  1  0  0  0  0
 26 25  2  0  0  0  0
M  END
>  <minimizedAffinity>
-6.60713339

>  <minimizedRMSD>
5.54792356

$$$$
