
 OpenBabel03272510043D

 35 37  0  0  0  0  0  0  0  0999 V2000
   35.1420   30.2580   43.9310 C   0  0  0  0  0  0  0  0  0  0  0  0
   35.0760   29.7310   45.1840 C   0  0  0  0  0  0  0  0  0  0  0  0
   34.0990   28.7880   45.4850 C   0  0  0  0  0  0  0  0  0  0  0  0
   33.1750   28.3560   44.5540 C   0  0  0  0  0  0  0  0  0  0  0  0
   33.2090   28.8670   43.2840 C   0  0  0  0  0  0  0  0  0  0  0  0
   34.1860   29.7950   43.0200 C   0  0  0  0  0  0  0  0  0  0  0  0
   34.0720   28.3780   46.5050 H   0  0  0  0  0  0  0  0  0  0  0  0
   32.4670   27.6210   44.8960 H   0  0  0  0  0  0  0  0  0  0  0  0
   32.4760   28.4990   42.6140 H   0  0  0  0  0  0  0  0  0  0  0  0
   34.1070   30.1280   41.9770 H   0  0  0  0  0  0  0  0  0  0  0  0
   38.1780   30.6990   46.9000 C   0  0  0  0  0  0  0  0  0  0  0  0
   37.2790   30.3060   45.9190 C   0  0  0  0  0  0  0  0  0  0  0  0
   35.9610   30.1470   46.2170 C   0  0  0  0  0  0  0  0  0  0  0  0
   35.5810   30.3950   47.5000 N   0  0  0  0  0  0  0  0  0  0  0  0
   36.4450   30.7790   48.4490 C   0  0  0  0  0  0  0  0  0  0  0  0
   37.7360   30.9260   48.1420 N   0  0  0  0  0  0  0  0  0  0  0  0
   39.2430   30.8660   46.8340 H   0  0  0  0  0  0  0  0  0  0  0  0
   37.8720   30.2330   45.0390 H   0  0  0  0  0  0  0  0  0  0  0  0
   35.8780   31.0820   49.7900 C   0  0  0  0  0  0  0  0  0  0  0  0
   36.1840   32.3630   50.2050 F   0  0  0  0  0  0  0  0  0  0  0  0
   34.4350   31.1280   49.6780 F   0  0  0  0  0  0  0  0  0  0  0  0
   36.0840   30.2040   50.7450 F   0  0  0  0  0  0  0  0  0  0  0  0
   36.3110   31.3970   43.4320 S   0  0  0  0  0  0  0  0  0  0  0  0
   36.0150   32.7570   43.9360 O   0  0  0  0  0  0  0  0  0  0  0  0
   35.8250   31.6300   42.0150 O   0  0  0  0  0  0  0  0  0  0  0  0
   37.8400   31.1270   42.7460 C   0  0  0  0  0  0  0  0  0  0  0  0
   37.9400   29.9710   42.7390 H   0  0  0  0  0  0  0  0  0  0  0  0
   37.9080   31.3020   41.6570 H   0  0  0  0  0  0  0  0  0  0  0  0
   38.9970   31.5000   43.5430 C   0  0  0  0  0  0  0  0  0  0  0  0
   39.0160   32.8200   43.9540 C   0  0  0  0  0  3  0  0  0  0  0  0
   40.0440   33.3620   44.7260 C   0  0  0  0  0  0  0  0  0  0  0  0
   40.0550   34.3950   45.0460 H   0  0  0  0  0  0  0  0  0  0  0  0
   41.0850   32.5610   45.0980 N   0  0  0  0  0  0  0  0  0  0  0  0
   41.0250   31.2850   44.6760 C   0  0  0  0  0  3  0  0  0  0  0  0
   40.0310   30.7310   43.9210 N   0  0  0  0  0  0  0  0  0  0  0  0
  1  2  1  0  0  0  0
  2  3  2  0  0  0  0
  2 13  1  0  0  0  0
  3  7  1  0  0  0  0
  4  8  1  0  0  0  0
  4  3  1  0  0  0  0
  5  4  2  0  0  0  0
  6  5  1  0  0  0  0
  6  1  2  0  0  0  0
  9  5  1  0  0  0  0
 10  6  1  0  0  0  0
 11 16  1  0  0  0  0
 12 13  1  0  0  0  0
 12 11  2  0  0  0  0
 13 14  2  0  0  0  0
 14 15  1  0  0  0  0
 15 19  1  0  0  0  0
 16 15  2  0  0  0  0
 17 11  1  0  0  0  0
 18 12  1  0  0  0  0
 19 20  1  0  0  0  0
 19 22  1  0  0  0  0
 21 19  1  0  0  0  0
 23  1  1  0  0  0  0
 23 24  2  0  0  0  0
 25 23  2  0  0  0  0
 26 23  1  0  0  0  0
 26 29  1  0  0  0  0
 27 26  1  0  0  0  0
 28 26  1  0  0  0  0
 29 35  2  0  0  0  0
 29 30  1  0  0  0  0
 30 31  2  0  0  0  0
 31 32  1  0  0  0  0
 31 33  1  0  0  0  0
 34 33  2  0  0  0  0
 35 34  1  0  0  0  0
M  END
>  <minimizedAffinity>
-4.73474312

>  <minimizedRMSD>
3.34280443

$$$$
