
 OpenBabel03272509513D

 31 33  0  0  0  0  0  0  0  0999 V2000
   36.7570   25.1610   31.8970 O   0  0  0  0  0  0  0  0  0  0  0  0
   37.1470   27.6280   34.5120 C   0  0  0  0  0  0  0  0  0  0  0  0
   37.7540   26.8300   35.5150 C   0  0  0  0  0  0  0  0  0  0  0  0
   37.9870   25.4980   35.2260 C   0  0  0  0  0  0  0  0  0  0  0  0
   37.6250   25.0280   34.0010 N   0  0  0  0  0  0  0  0  0  0  0  0
   37.0500   25.8170   33.0710 C   0  0  0  0  0  0  0  0  0  0  0  0
   36.8100   27.1330   33.3340 N   0  0  0  0  0  0  0  0  0  0  0  0
   36.9770   28.6640   34.7690 H   0  0  0  0  0  0  0  0  0  0  0  0
   38.0340   27.2210   36.4820 H   0  0  0  0  0  0  0  0  0  0  0  0
   38.6020   24.5570   36.1540 C   0  0  0  0  0  0  0  0  0  0  0  0
   38.1010   24.3230   37.4070 C   0  0  0  0  0  3  0  0  0  0  0  0
   38.6980   23.4300   38.2670 C   0  0  0  0  0  0  0  0  0  0  0  0
   38.3130   23.2350   39.2600 H   0  0  0  0  0  0  0  0  0  0  0  0
   39.7910   22.7690   37.8880 N   0  0  0  0  0  0  0  0  0  0  0  0
   40.2930   22.9890   36.6620 C   0  0  0  0  0  3  0  0  0  0  0  0
   39.7040   23.8580   35.8380 N   0  0  0  0  0  0  0  0  0  0  0  0
   36.9790   23.7500   31.8640 C   0  0  0  0  0  0  0  0  0  0  0  0
   37.8960   23.5400   31.3000 H   0  0  0  0  0  0  0  0  0  0  0  0
   37.1620   23.4340   32.9120 H   0  0  0  0  0  0  0  0  0  0  0  0
   35.7610   23.0550   31.3060 C   0  0  0  0  0  0  0  0  0  0  0  0
   35.6540   23.1970   30.2250 H   0  0  0  0  0  0  0  0  0  0  0  0
   34.8470   23.4800   31.8010 H   0  0  0  0  0  0  0  0  0  0  0  0
   35.7700   21.5970   31.6040 C   0  0  0  0  0  0  0  0  0  0  0  0
   35.4810   21.2210   32.8970 C   0  0  0  0  0  0  0  0  0  0  0  0
   35.4580   19.8960   33.2980 C   0  0  0  0  0  0  0  0  0  0  0  0
   35.7230   18.9510   32.4050 N   0  0  0  0  0  0  0  0  0  0  0  0
   36.0080   19.3130   31.1300 C   0  0  0  0  0  0  0  0  0  0  0  0
   36.0360   20.6010   30.7210 N   0  0  0  0  0  0  0  0  0  0  0  0
   35.2590   21.9680   33.6540 H   0  0  0  0  0  0  0  0  0  0  0  0
   35.2360   19.5860   34.2950 H   0  0  0  0  0  0  0  0  0  0  0  0
   36.2400   18.6040   30.3230 H   0  0  0  0  0  0  0  0  0  0  0  0
  1  6  1  0  0  0  0
  2  8  1  0  0  0  0
  2  3  1  0  0  0  0
  3  9  1  0  0  0  0
  4  3  2  0  0  0  0
  4 10  1  0  0  0  0
  5  4  1  0  0  0  0
  6  7  1  0  0  0  0
  6  5  2  0  0  0  0
  7  2  2  0  0  0  0
 10 11  1  0  0  0  0
 11 12  2  0  0  0  0
 12 13  1  0  0  0  0
 14 12  1  0  0  0  0
 15 14  2  0  0  0  0
 16 10  2  0  0  0  0
 16 15  1  0  0  0  0
 17  1  1  0  0  0  0
 17 19  1  0  0  0  0
 18 17  1  0  0  0  0
 20 23  1  0  0  0  0
 20 22  1  0  0  0  0
 20 17  1  0  0  0  0
 21 20  1  0  0  0  0
 23 24  1  0  0  0  0
 24 25  2  0  0  0  0
 24 29  1  0  0  0  0
 25 30  1  0  0  0  0
 26 25  1  0  0  0  0
 27 26  2  0  0  0  0
 28 27  1  0  0  0  0
 28 23  2  0  0  0  0
 31 27  1  0  0  0  0
M  END
>  <minimizedAffinity>
-5.21461439

$$$$

 OpenBabel03272509513D

 31 33  0  0  0  0  0  0  0  0999 V2000
   36.5020   28.4040   34.5760 O   0  0  0  0  0  0  0  0  0  0  0  0
   37.4160   25.5120   32.6070 C   0  0  0  0  0  0  0  0  0  0  0  0
   37.9370   24.6750   33.6260 C   0  0  0  0  0  0  0  0  0  0  0  0
   37.9410   25.1610   34.9210 C   0  0  0  0  0  0  0  0  0  0  0  0
   37.4460   26.4080   35.1460 N   0  0  0  0  0  0  0  0  0  0  0  0
   36.9570   27.1770   34.1510 C   0  0  0  0  0  0  0  0  0  0  0  0
   36.9440   26.7190   32.8670 N   0  0  0  0  0  0  0  0  0  0  0  0
   37.4280   25.1030   31.6070 H   0  0  0  0  0  0  0  0  0  0  0  0
   38.3270   23.6870   33.4290 H   0  0  0  0  0  0  0  0  0  0  0  0
   38.4440   24.4170   36.0700 C   0  0  0  0  0  0  0  0  0  0  0  0
   37.8620   24.4900   37.3070 C   0  0  0  0  0  3  0  0  0  0  0  0
   38.3540   23.7790   38.3770 C   0  0  0  0  0  0  0  0  0  0  0  0
   37.9050   23.8260   39.3620 H   0  0  0  0  0  0  0  0  0  0  0  0
   39.4220   22.9960   38.2240 N   0  0  0  0  0  0  0  0  0  0  0  0
   40.0030   22.9170   37.0150 C   0  0  0  0  0  3  0  0  0  0  0  0
   39.5150   23.6110   35.9860 N   0  0  0  0  0  0  0  0  0  0  0  0
   35.5820   29.0900   33.7270 C   0  0  0  0  0  0  0  0  0  0  0  0
   35.8040   28.8510   32.6800 H   0  0  0  0  0  0  0  0  0  0  0  0
   34.5760   28.6760   33.9500 H   0  0  0  0  0  0  0  0  0  0  0  0
   35.6200   30.5700   34.0230 C   0  0  0  0  0  0  0  0  0  0  0  0
   35.3410   31.1790   33.1560 H   0  0  0  0  0  0  0  0  0  0  0  0
   36.6670   30.8500   34.3160 H   0  0  0  0  0  0  0  0  0  0  0  0
   34.7420   30.9300   35.1690 C   0  0  0  0  0  0  0  0  0  0  0  0
   35.2430   31.8320   36.0800 C   0  0  0  0  0  0  0  0  0  0  0  0
   34.5230   32.2460   37.1890 C   0  0  0  0  0  0  0  0  0  0  0  0
   33.3050   31.7560   37.3820 N   0  0  0  0  0  0  0  0  0  0  0  0
   32.8060   30.8670   36.4890 C   0  0  0  0  0  0  0  0  0  0  0  0
   33.4930   30.4520   35.4020 N   0  0  0  0  0  0  0  0  0  0  0  0
   36.2360   32.2540   35.9540 H   0  0  0  0  0  0  0  0  0  0  0  0
   34.8950   32.9440   37.9060 H   0  0  0  0  0  0  0  0  0  0  0  0
   31.8100   30.4080   36.5640 H   0  0  0  0  0  0  0  0  0  0  0  0
  2  7  2  0  0  0  0
  2  3  1  0  0  0  0
  3  4  2  0  0  0  0
  4  5  1  0  0  0  0
  4 10  1  0  0  0  0
  6  1  1  0  0  0  0
  6  5  2  0  0  0  0
  7  6  1  0  0  0  0
  8  2  1  0  0  0  0
  9  3  1  0  0  0  0
 10 11  1  0  0  0  0
 11 12  2  0  0  0  0
 12 13  1  0  0  0  0
 14 12  1  0  0  0  0
 15 14  2  0  0  0  0
 16 10  2  0  0  0  0
 16 15  1  0  0  0  0
 17 19  1  0  0  0  0
 17 20  1  0  0  0  0
 17  1  1  0  0  0  0
 18 17  1  0  0  0  0
 20 22  1  0  0  0  0
 20 23  1  0  0  0  0
 21 20  1  0  0  0  0
 23 28  2  0  0  0  0
 23 24  1  0  0  0  0
 24 25  2  0  0  0  0
 25 26  1  0  0  0  0
 25 30  1  0  0  0  0
 27 31  1  0  0  0  0
 27 26  2  0  0  0  0
 28 27  1  0  0  0  0
 29 24  1  0  0  0  0
M  END
>  <minimizedAffinity>
-5.10638857

$$$$

 OpenBabel03272509513D

 31 33  0  0  0  0  0  0  0  0999 V2000
   37.0960   26.0830   33.5370 O   0  0  0  0  0  0  0  0  0  0  0  0
   36.6320   28.9730   31.4130 C   0  0  0  0  0  0  0  0  0  0  0  0
   36.0150   29.8590   32.3330 C   0  0  0  0  0  0  0  0  0  0  0  0
   35.7990   29.4030   33.6210 C   0  0  0  0  0  0  0  0  0  0  0  0
   36.1890   28.1370   33.9340 N   0  0  0  0  0  0  0  0  0  0  0  0
   36.7740   27.3230   33.0320 C   0  0  0  0  0  0  0  0  0  0  0  0
   36.9960   27.7500   31.7570 N   0  0  0  0  0  0  0  0  0  0  0  0
   36.7860   29.3590   30.4160 H   0  0  0  0  0  0  0  0  0  0  0  0
   35.7110   30.8610   32.0670 H   0  0  0  0  0  0  0  0  0  0  0  0
   35.1770   30.1960   34.6740 C   0  0  0  0  0  0  0  0  0  0  0  0
   33.8320   30.1610   34.9280 C   0  0  0  0  0  3  0  0  0  0  0  0
   33.2670   30.9190   35.9270 C   0  0  0  0  0  0  0  0  0  0  0  0
   32.2050   30.9010   36.1400 H   0  0  0  0  0  0  0  0  0  0  0  0
   34.0320   31.7130   36.6760 N   0  0  0  0  0  0  0  0  0  0  0  0
   35.3530   31.7580   36.4370 C   0  0  0  0  0  3  0  0  0  0  0  0
   35.8880   31.0170   35.4650 N   0  0  0  0  0  0  0  0  0  0  0  0
   38.2270   26.0050   34.4050 C   0  0  0  0  0  0  0  0  0  0  0  0
   39.0340   26.6340   34.0090 H   0  0  0  0  0  0  0  0  0  0  0  0
   37.9140   26.4480   35.3740 H   0  0  0  0  0  0  0  0  0  0  0  0
   38.6300   24.5620   34.5900 C   0  0  0  0  0  0  0  0  0  0  0  0
   39.6010   24.3360   34.1370 H   0  0  0  0  0  0  0  0  0  0  0  0
   37.8610   23.9090   34.0980 H   0  0  0  0  0  0  0  0  0  0  0  0
   38.6640   24.1750   36.0270 C   0  0  0  0  0  0  0  0  0  0  0  0
   39.6370   23.2800   36.4100 C   0  0  0  0  0  0  0  0  0  0  0  0
   39.7720   22.8430   37.7170 C   0  0  0  0  0  0  0  0  0  0  0  0
   38.9330   23.3030   38.6370 N   0  0  0  0  0  0  0  0  0  0  0  0
   37.9730   24.1860   38.2670 C   0  0  0  0  0  0  0  0  0  0  0  0
   37.8260   24.6230   36.9960 N   0  0  0  0  0  0  0  0  0  0  0  0
   40.3410   22.8810   35.6840 H   0  0  0  0  0  0  0  0  0  0  0  0
   40.5190   22.1490   38.0330 H   0  0  0  0  0  0  0  0  0  0  0  0
   37.2350   24.6220   38.9550 H   0  0  0  0  0  0  0  0  0  0  0  0
  1 17  1  0  0  0  0
  2  7  2  0  0  0  0
  2  3  1  0  0  0  0
  3  4  2  0  0  0  0
  4  5  1  0  0  0  0
  4 10  1  0  0  0  0
  6  1  1  0  0  0  0
  6  5  2  0  0  0  0
  7  6  1  0  0  0  0
  8  2  1  0  0  0  0
  9  3  1  0  0  0  0
 10 11  2  0  0  0  0
 10 16  1  0  0  0  0
 11 12  1  0  0  0  0
 12 13  1  0  0  0  0
 12 14  2  0  0  0  0
 15 14  1  0  0  0  0
 16 15  2  0  0  0  0
 17 20  1  0  0  0  0
 17 19  1  0  0  0  0
 18 17  1  0  0  0  0
 20 23  1  0  0  0  0
 21 20  1  0  0  0  0
 22 20  1  0  0  0  0
 23 24  2  0  0  0  0
 23 28  1  0  0  0  0
 24 25  1  0  0  0  0
 25 30  1  0  0  0  0
 25 26  2  0  0  0  0
 27 26  1  0  0  0  0
 27 31  1  0  0  0  0
 28 27  2  0  0  0  0
 29 24  1  0  0  0  0
M  END
>  <minimizedAffinity>
-4.96408987

$$$$

 OpenBabel03272509513D

 31 33  0  0  0  0  0  0  0  0999 V2000
   37.8860   27.1290   33.6980 O   0  0  0  0  0  0  0  0  0  0  0  0
   35.4560   26.4890   31.0980 C   0  0  0  0  0  0  0  0  0  0  0  0
   35.5090   25.0720   31.0540 C   0  0  0  0  0  0  0  0  0  0  0  0
   36.3770   24.4330   31.9210 C   0  0  0  0  0  0  0  0  0  0  0  0
   37.1270   25.1930   32.7640 N   0  0  0  0  0  0  0  0  0  0  0  0
   37.0500   26.5390   32.7770 C   0  0  0  0  0  0  0  0  0  0  0  0
   36.2030   27.1910   31.9330 N   0  0  0  0  0  0  0  0  0  0  0  0
   34.7680   26.9580   30.4090 H   0  0  0  0  0  0  0  0  0  0  0  0
   34.9050   24.4850   30.3780 H   0  0  0  0  0  0  0  0  0  0  0  0
   36.5400   22.9860   31.9910 C   0  0  0  0  0  0  0  0  0  0  0  0
   35.7570   22.1190   31.2760 C   0  0  0  0  0  3  0  0  0  0  0  0
   35.9300   20.7570   31.3580 C   0  0  0  0  0  0  0  0  0  0  0  0
   35.3180   20.0590   30.7990 H   0  0  0  0  0  0  0  0  0  0  0  0
   36.8770   20.2510   32.1470 N   0  0  0  0  0  0  0  0  0  0  0  0
   37.6520   21.0900   32.8540 C   0  0  0  0  0  3  0  0  0  0  0  0
   37.4740   22.4090   32.7650 N   0  0  0  0  0  0  0  0  0  0  0  0
   37.3830   27.2950   35.0250 C   0  0  0  0  0  0  0  0  0  0  0  0
   37.0550   28.3320   35.1630 H   0  0  0  0  0  0  0  0  0  0  0  0
   36.4810   26.6540   35.1040 H   0  0  0  0  0  0  0  0  0  0  0  0
   38.4290   26.8610   36.0250 C   0  0  0  0  0  0  0  0  0  0  0  0
   38.1750   27.1520   37.0490 H   0  0  0  0  0  0  0  0  0  0  0  0
   39.4040   27.3490   35.7590 H   0  0  0  0  0  0  0  0  0  0  0  0
   38.6600   25.3910   35.9820 C   0  0  0  0  0  0  0  0  0  0  0  0
   37.7360   24.5950   36.6210 C   0  0  0  0  0  0  0  0  0  0  0  0
   37.8410   23.2140   36.6520 C   0  0  0  0  0  0  0  0  0  0  0  0
   38.8680   22.6350   36.0440 N   0  0  0  0  0  0  0  0  0  0  0  0
   39.7810   23.4130   35.4130 C   0  0  0  0  0  0  0  0  0  0  0  0
   39.6960   24.7610   35.3720 N   0  0  0  0  0  0  0  0  0  0  0  0
   36.8820   25.0350   37.1300 H   0  0  0  0  0  0  0  0  0  0  0  0
   37.1350   22.5810   37.1430 H   0  0  0  0  0  0  0  0  0  0  0  0
   40.6630   23.0260   34.8830 H   0  0  0  0  0  0  0  0  0  0  0  0
  1 17  1  0  0  0  0
  2  7  1  0  0  0  0
  3  2  2  0  0  0  0
  3  4  1  0  0  0  0
  4 10  1  0  0  0  0
  4  5  2  0  0  0  0
  5  6  1  0  0  0  0
  6  1  1  0  0  0  0
  7  6  2  0  0  0  0
  8  2  1  0  0  0  0
  9  3  1  0  0  0  0
 10 16  1  0  0  0  0
 11 12  1  0  0  0  0
 11 10  2  0  0  0  0
 12 14  2  0  0  0  0
 13 12  1  0  0  0  0
 14 15  1  0  0  0  0
 16 15  2  0  0  0  0
 17 19  1  0  0  0  0
 17 18  1  0  0  0  0
 17 20  1  0  0  0  0
 20 21  1  0  0  0  0
 22 20  1  0  0  0  0
 23 20  1  0  0  0  0
 23 24  1  0  0  0  0
 24 25  2  0  0  0  0
 24 29  1  0  0  0  0
 25 30  1  0  0  0  0
 26 25  1  0  0  0  0
 27 26  2  0  0  0  0
 28 27  1  0  0  0  0
 28 23  2  0  0  0  0
 31 27  1  0  0  0  0
M  END
>  <minimizedAffinity>
-4.89637661

$$$$

 OpenBabel03272509513D

 31 33  0  0  0  0  0  0  0  0999 V2000
   38.7480   25.8420   32.7290 O   0  0  0  0  0  0  0  0  0  0  0  0
   35.4910   25.9610   31.1620 C   0  0  0  0  0  0  0  0  0  0  0  0
   35.2060   24.5750   31.0800 C   0  0  0  0  0  0  0  0  0  0  0  0
   36.1530   23.6920   31.5680 C   0  0  0  0  0  0  0  0  0  0  0  0
   37.2990   24.1990   32.0970 N   0  0  0  0  0  0  0  0  0  0  0  0
   37.5360   25.5260   32.1590 C   0  0  0  0  0  0  0  0  0  0  0  0
   36.6180   26.4140   31.6840 N   0  0  0  0  0  0  0  0  0  0  0  0
   34.7320   26.6250   30.7720 H   0  0  0  0  0  0  0  0  0  0  0  0
   34.2900   24.1900   30.6550 H   0  0  0  0  0  0  0  0  0  0  0  0
   36.0010   22.2420   31.5520 C   0  0  0  0  0  0  0  0  0  0  0  0
   35.0420   21.5930   32.2820 C   0  0  0  0  0  3  0  0  0  0  0  0
   34.9170   20.2230   32.2520 C   0  0  0  0  0  0  0  0  0  0  0  0
   34.1640   19.6960   32.8240 H   0  0  0  0  0  0  0  0  0  0  0  0
   35.7410   19.4950   31.4990 N   0  0  0  0  0  0  0  0  0  0  0  0
   36.6870   20.1200   30.7770 C   0  0  0  0  0  3  0  0  0  0  0  0
   36.7970   21.4490   30.8160 N   0  0  0  0  0  0  0  0  0  0  0  0
   38.7620   26.8960   33.6930 C   0  0  0  0  0  0  0  0  0  0  0  0
   39.0530   27.8330   33.2040 H   0  0  0  0  0  0  0  0  0  0  0  0
   37.7150   27.0210   34.0400 H   0  0  0  0  0  0  0  0  0  0  0  0
   39.6600   26.5190   34.8470 C   0  0  0  0  0  0  0  0  0  0  0  0
   39.8050   27.3450   35.5520 H   0  0  0  0  0  0  0  0  0  0  0  0
   40.6670   26.2340   34.4390 H   0  0  0  0  0  0  0  0  0  0  0  0
   39.1460   25.3350   35.5870 C   0  0  0  0  0  0  0  0  0  0  0  0
   39.9310   24.2040   35.5780 C   0  0  0  0  0  0  0  0  0  0  0  0
   39.5610   23.0390   36.2300 C   0  0  0  0  0  0  0  0  0  0  0  0
   38.4090   23.0090   36.8870 N   0  0  0  0  0  0  0  0  0  0  0  0
   37.6310   24.1190   36.9000 C   0  0  0  0  0  0  0  0  0  0  0  0
   37.9750   25.2650   36.2700 N   0  0  0  0  0  0  0  0  0  0  0  0
   40.8800   24.1920   35.0500 H   0  0  0  0  0  0  0  0  0  0  0  0
   40.1570   22.1520   36.2340 H   0  0  0  0  0  0  0  0  0  0  0  0
   36.6630   24.1900   37.4160 H   0  0  0  0  0  0  0  0  0  0  0  0
  1 17  1  0  0  0  0
  2  7  1  0  0  0  0
  3  2  2  0  0  0  0
  3  4  1  0  0  0  0
  4  5  2  0  0  0  0
  5  6  1  0  0  0  0
  6  1  1  0  0  0  0
  7  6  2  0  0  0  0
  8  2  1  0  0  0  0
  9  3  1  0  0  0  0
 10  4  1  0  0  0  0
 10 11  1  0  0  0  0
 12 11  2  0  0  0  0
 12 13  1  0  0  0  0
 14 12  1  0  0  0  0
 15 16  1  0  0  0  0
 15 14  2  0  0  0  0
 16 10  2  0  0  0  0
 17 19  1  0  0  0  0
 17 20  1  0  0  0  0
 18 17  1  0  0  0  0
 20 21  1  0  0  0  0
 20 23  1  0  0  0  0
 22 20  1  0  0  0  0
 23 28  1  0  0  0  0
 24 23  2  0  0  0  0
 24 25  1  0  0  0  0
 25 30  1  0  0  0  0
 25 26  2  0  0  0  0
 26 27  1  0  0  0  0
 27 31  1  0  0  0  0
 28 27  2  0  0  0  0
 29 24  1  0  0  0  0
M  END
>  <minimizedAffinity>
-4.88492775

$$$$

 OpenBabel03272509513D

 31 33  0  0  0  0  0  0  0  0999 V2000
   37.0670   26.0810   33.4550 O   0  0  0  0  0  0  0  0  0  0  0  0
   38.5860   24.8850   30.3990 C   0  0  0  0  0  0  0  0  0  0  0  0
   38.0200   23.5860   30.3340 C   0  0  0  0  0  0  0  0  0  0  0  0
   37.1550   23.2090   31.3450 C   0  0  0  0  0  0  0  0  0  0  0  0
   36.8950   24.0990   32.3410 N   0  0  0  0  0  0  0  0  0  0  0  0
   37.4520   25.3270   32.3700 C   0  0  0  0  0  0  0  0  0  0  0  0
   38.3080   25.7210   31.3840 N   0  0  0  0  0  0  0  0  0  0  0  0
   39.2580   25.1490   29.5940 H   0  0  0  0  0  0  0  0  0  0  0  0
   38.2380   22.8920   29.5350 H   0  0  0  0  0  0  0  0  0  0  0  0
   36.4980   21.9090   31.4140 C   0  0  0  0  0  0  0  0  0  0  0  0
   35.3720   21.6910   32.1610 C   0  0  0  0  0  3  0  0  0  0  0  0
   34.7680   20.4550   32.2100 C   0  0  0  0  0  0  0  0  0  0  0  0
   33.8770   20.2670   32.7970 H   0  0  0  0  0  0  0  0  0  0  0  0
   35.2790   19.4350   31.5210 N   0  0  0  0  0  0  0  0  0  0  0  0
   36.3840   19.6360   30.7850 C   0  0  0  0  0  3  0  0  0  0  0  0
   36.9590   20.8390   30.7450 N   0  0  0  0  0  0  0  0  0  0  0  0
   38.0570   26.3500   34.4480 C   0  0  0  0  0  0  0  0  0  0  0  0
   38.9980   25.8630   34.1660 H   0  0  0  0  0  0  0  0  0  0  0  0
   38.2380   27.4450   34.4270 H   0  0  0  0  0  0  0  0  0  0  0  0
   37.5470   25.9260   35.8050 C   0  0  0  0  0  0  0  0  0  0  0  0
   36.4940   25.6260   35.7820 H   0  0  0  0  0  0  0  0  0  0  0  0
   37.6430   26.7940   36.5110 H   0  0  0  0  0  0  0  0  0  0  0  0
   38.3550   24.8160   36.3780 C   0  0  0  0  0  0  0  0  0  0  0  0
   38.0320   24.4000   37.6500 C   0  0  0  0  0  0  0  0  0  0  0  0
   38.7090   23.3760   38.2920 C   0  0  0  0  0  0  0  0  0  0  0  0
   39.7070   22.7730   37.6600 N   0  0  0  0  0  0  0  0  0  0  0  0
   40.0310   23.1760   36.4060 C   0  0  0  0  0  0  0  0  0  0  0  0
   39.3810   24.1720   35.7640 N   0  0  0  0  0  0  0  0  0  0  0  0
   37.2210   24.8720   38.1980 H   0  0  0  0  0  0  0  0  0  0  0  0
   38.4730   23.0410   39.2780 H   0  0  0  0  0  0  0  0  0  0  0  0
   40.8390   22.7370   35.8050 H   0  0  0  0  0  0  0  0  0  0  0  0
  1 17  1  0  0  0  0
  2  7  1  0  0  0  0
  3  2  2  0  0  0  0
  3  4  1  0  0  0  0
  4 10  1  0  0  0  0
  4  5  2  0  0  0  0
  5  6  1  0  0  0  0
  6  1  1  0  0  0  0
  7  6  2  0  0  0  0
  8  2  1  0  0  0  0
  9  3  1  0  0  0  0
 10 11  1  0  0  0  0
 11 12  2  0  0  0  0
 12 13  1  0  0  0  0
 14 12  1  0  0  0  0
 15 14  2  0  0  0  0
 16 15  1  0  0  0  0
 16 10  2  0  0  0  0
 17 20  1  0  0  0  0
 18 17  1  0  0  0  0
 19 17  1  0  0  0  0
 20 23  1  0  0  0  0
 20 22  1  0  0  0  0
 21 20  1  0  0  0  0
 23 24  1  0  0  0  0
 24 29  1  0  0  0  0
 24 25  2  0  0  0  0
 25 30  1  0  0  0  0
 26 25  1  0  0  0  0
 27 26  2  0  0  0  0
 28 23  2  0  0  0  0
 28 27  1  0  0  0  0
 31 27  1  0  0  0  0
M  END
>  <minimizedAffinity>
-4.82230377

$$$$

 OpenBabel03272509513D

 31 33  0  0  0  0  0  0  0  0999 V2000
   37.8190   24.9440   35.0290 O   0  0  0  0  0  0  0  0  0  0  0  0
   38.1050   23.6390   38.3900 C   0  0  0  0  0  0  0  0  0  0  0  0
   39.3700   23.0050   38.3010 C   0  0  0  0  0  0  0  0  0  0  0  0
   40.0390   23.0680   37.0920 C   0  0  0  0  0  0  0  0  0  0  0  0
   39.4510   23.7320   36.0600 N   0  0  0  0  0  0  0  0  0  0  0  0
   38.2460   24.3240   36.1810 C   0  0  0  0  0  0  0  0  0  0  0  0
   37.5680   24.2750   37.3620 N   0  0  0  0  0  0  0  0  0  0  0  0
   37.6080   23.5720   39.3470 H   0  0  0  0  0  0  0  0  0  0  0  0
   39.8220   22.4820   39.1310 H   0  0  0  0  0  0  0  0  0  0  0  0
   41.3440   22.4650   36.8500 C   0  0  0  0  0  0  0  0  0  0  0  0
   42.4070   23.1770   36.3610 C   0  0  0  0  0  3  0  0  0  0  0  0
   43.6300   22.5870   36.1410 C   0  0  0  0  0  0  0  0  0  0  0  0
   44.4790   23.1370   35.7550 H   0  0  0  0  0  0  0  0  0  0  0  0
   43.8030   21.2920   36.4030 N   0  0  0  0  0  0  0  0  0  0  0  0
   42.7680   20.5810   36.8820 C   0  0  0  0  0  3  0  0  0  0  0  0
   41.5870   21.1660   37.0920 N   0  0  0  0  0  0  0  0  0  0  0  0
   37.4870   26.3310   35.1180 C   0  0  0  0  0  0  0  0  0  0  0  0
   36.9400   26.6330   34.2170 H   0  0  0  0  0  0  0  0  0  0  0  0
   36.7880   26.4350   35.9740 H   0  0  0  0  0  0  0  0  0  0  0  0
   38.7390   27.1400   35.3570 C   0  0  0  0  0  0  0  0  0  0  0  0
   39.2540   26.8540   36.2810 H   0  0  0  0  0  0  0  0  0  0  0  0
   38.4550   28.2230   35.4430 H   0  0  0  0  0  0  0  0  0  0  0  0
   39.6930   27.0360   34.2190 C   0  0  0  0  0  0  0  0  0  0  0  0
   41.0020   26.7420   34.5270 C   0  0  0  0  0  0  0  0  0  0  0  0
   41.9830   26.6190   33.5570 C   0  0  0  0  0  0  0  0  0  0  0  0
   41.6510   26.7890   32.2840 N   0  0  0  0  0  0  0  0  0  0  0  0
   40.3640   27.0790   31.9740 C   0  0  0  0  0  0  0  0  0  0  0  0
   39.3930   27.2030   32.9060 N   0  0  0  0  0  0  0  0  0  0  0  0
   41.3100   26.5960   35.5580 H   0  0  0  0  0  0  0  0  0  0  0  0
   43.0030   26.3920   33.7760 H   0  0  0  0  0  0  0  0  0  0  0  0
   39.9940   27.2360   30.9500 H   0  0  0  0  0  0  0  0  0  0  0  0
  1 17  1  0  0  0  0
  1  6  1  0  0  0  0
  2  8  1  0  0  0  0
  3  2  1  0  0  0  0
  3  9  1  0  0  0  0
  4  3  2  0  0  0  0
  5  6  2  0  0  0  0
  5  4  1  0  0  0  0
  6  7  1  0  0  0  0
  7  2  2  0  0  0  0
 10 16  1  0  0  0  0
 10  4  1  0  0  0  0
 11 10  2  0  0  0  0
 12 11  1  0  0  0  0
 12 14  2  0  0  0  0
 13 12  1  0  0  0  0
 14 15  1  0  0  0  0
 15 16  2  0  0  0  0
 17 20  1  0  0  0  0
 17 19  1  0  0  0  0
 18 17  1  0  0  0  0
 20 22  1  0  0  0  0
 20 21  1  0  0  0  0
 23 24  1  0  0  0  0
 23 20  1  0  0  0  0
 24 29  1  0  0  0  0
 25 30  1  0  0  0  0
 25 24  2  0  0  0  0
 26 25  1  0  0  0  0
 27 26  2  0  0  0  0
 27 28  1  0  0  0  0
 28 23  2  0  0  0  0
 31 27  1  0  0  0  0
M  END
>  <minimizedAffinity>
-4.75567865

$$$$

 OpenBabel03272509513D

 31 33  0  0  0  0  0  0  0  0999 V2000
   36.4090   27.1320   32.6830 O   0  0  0  0  0  0  0  0  0  0  0  0
   36.3540   30.5690   31.5620 C   0  0  0  0  0  0  0  0  0  0  0  0
   35.7510   31.1860   32.6880 C   0  0  0  0  0  0  0  0  0  0  0  0
   35.4030   30.3790   33.7560 C   0  0  0  0  0  0  0  0  0  0  0  0
   35.6580   29.0450   33.6700 N   0  0  0  0  0  0  0  0  0  0  0  0
   36.2330   28.4930   32.5820 C   0  0  0  0  0  0  0  0  0  0  0  0
   36.5840   29.2690   31.5180 N   0  0  0  0  0  0  0  0  0  0  0  0
   36.6130   31.2270   30.7450 H   0  0  0  0  0  0  0  0  0  0  0  0
   35.5560   32.2480   32.7390 H   0  0  0  0  0  0  0  0  0  0  0  0
   34.7780   30.8690   34.9790 C   0  0  0  0  0  0  0  0  0  0  0  0
   35.4190   31.7070   35.8510 C   0  0  0  0  0  3  0  0  0  0  0  0
   34.8080   32.1570   36.9990 C   0  0  0  0  0  0  0  0  0  0  0  0
   35.3030   32.8200   37.6980 H   0  0  0  0  0  0  0  0  0  0  0  0
   33.5630   31.7760   37.2850 N   0  0  0  0  0  0  0  0  0  0  0  0
   32.9230   30.9530   36.4380 C   0  0  0  0  0  3  0  0  0  0  0  0
   33.5270   30.5250   35.3280 N   0  0  0  0  0  0  0  0  0  0  0  0
   37.7470   26.6540   32.8260 C   0  0  0  0  0  0  0  0  0  0  0  0
   37.8110   25.6290   32.4420 H   0  0  0  0  0  0  0  0  0  0  0  0
   38.3810   27.2880   32.1710 H   0  0  0  0  0  0  0  0  0  0  0  0
   38.1830   26.7810   34.2660 C   0  0  0  0  0  0  0  0  0  0  0  0
   37.5680   27.4900   34.8300 H   0  0  0  0  0  0  0  0  0  0  0  0
   39.2430   27.1510   34.2890 H   0  0  0  0  0  0  0  0  0  0  0  0
   38.1730   25.4680   34.9660 C   0  0  0  0  0  0  0  0  0  0  0  0
   38.1020   25.4930   36.3410 C   0  0  0  0  0  0  0  0  0  0  0  0
   38.0850   24.3380   37.1050 C   0  0  0  0  0  0  0  0  0  0  0  0
   38.1390   23.1630   36.4930 N   0  0  0  0  0  0  0  0  0  0  0  0
   38.2080   23.1300   35.1390 C   0  0  0  0  0  0  0  0  0  0  0  0
   38.2260   24.2460   34.3770 N   0  0  0  0  0  0  0  0  0  0  0  0
   38.0570   26.4370   36.8760 H   0  0  0  0  0  0  0  0  0  0  0  0
   38.0310   24.3380   38.1720 H   0  0  0  0  0  0  0  0  0  0  0  0
   38.2560   22.2070   34.5440 H   0  0  0  0  0  0  0  0  0  0  0  0
  1 17  1  0  0  0  0
  2  3  1  0  0  0  0
  3  9  1  0  0  0  0
  3  4  2  0  0  0  0
  4 10  1  0  0  0  0
  5  4  1  0  0  0  0
  6  1  1  0  0  0  0
  6  5  2  0  0  0  0
  7  2  2  0  0  0  0
  7  6  1  0  0  0  0
  8  2  1  0  0  0  0
 10 16  2  0  0  0  0
 10 11  1  0  0  0  0
 11 12  2  0  0  0  0
 12 14  1  0  0  0  0
 12 13  1  0  0  0  0
 15 14  2  0  0  0  0
 16 15  1  0  0  0  0
 17 20  1  0  0  0  0
 18 17  1  0  0  0  0
 19 17  1  0  0  0  0
 20 22  1  0  0  0  0
 20 21  1  0  0  0  0
 20 23  1  0  0  0  0
 23 24  1  0  0  0  0
 24 29  1  0  0  0  0
 24 25  2  0  0  0  0
 25 30  1  0  0  0  0
 26 25  1  0  0  0  0
 27 26  2  0  0  0  0
 28 23  2  0  0  0  0
 28 27  1  0  0  0  0
 31 27  1  0  0  0  0
M  END
>  <minimizedAffinity>
-4.69540501

$$$$

 OpenBabel03272509513D

 31 33  0  0  0  0  0  0  0  0999 V2000
   35.2460   29.1870   34.2260 O   0  0  0  0  0  0  0  0  0  0  0  0
   37.6100   27.9420   31.7890 C   0  0  0  0  0  0  0  0  0  0  0  0
   38.1910   26.8800   32.5280 C   0  0  0  0  0  0  0  0  0  0  0  0
   37.7310   26.6650   33.8150 C   0  0  0  0  0  0  0  0  0  0  0  0
   36.7530   27.4770   34.2980 N   0  0  0  0  0  0  0  0  0  0  0  0
   36.2230   28.4780   33.5650 C   0  0  0  0  0  0  0  0  0  0  0  0
   36.6600   28.7090   32.2950 N   0  0  0  0  0  0  0  0  0  0  0  0
   37.9910   28.0850   30.7880 H   0  0  0  0  0  0  0  0  0  0  0  0
   38.9680   26.2450   32.1290 H   0  0  0  0  0  0  0  0  0  0  0  0
   38.2310   25.6150   34.6940 C   0  0  0  0  0  0  0  0  0  0  0  0
   37.8040   25.4690   35.9870 C   0  0  0  0  0  3  0  0  0  0  0  0
   38.2890   24.4700   36.7980 C   0  0  0  0  0  0  0  0  0  0  0  0
   37.9610   24.3420   37.8230 H   0  0  0  0  0  0  0  0  0  0  0  0
   39.1990   23.6140   36.3320 N   0  0  0  0  0  0  0  0  0  0  0  0
   39.6270   23.7460   35.0650 C   0  0  0  0  0  3  0  0  0  0  0  0
   39.1470   24.7190   34.2890 N   0  0  0  0  0  0  0  0  0  0  0  0
   35.4070   30.6040   34.3030 C   0  0  0  0  0  0  0  0  0  0  0  0
   35.9960   30.9510   33.4450 H   0  0  0  0  0  0  0  0  0  0  0  0
   34.3930   31.0440   34.2010 H   0  0  0  0  0  0  0  0  0  0  0  0
   36.0130   30.9780   35.6350 C   0  0  0  0  0  0  0  0  0  0  0  0
   37.1060   30.9060   35.6330 H   0  0  0  0  0  0  0  0  0  0  0  0
   35.6230   30.2720   36.4160 H   0  0  0  0  0  0  0  0  0  0  0  0
   35.6180   32.3480   36.0590 C   0  0  0  0  0  0  0  0  0  0  0  0
   34.6540   32.4460   37.0370 C   0  0  0  0  0  0  0  0  0  0  0  0
   34.2030   33.6650   37.5160 C   0  0  0  0  0  0  0  0  0  0  0  0
   34.7170   34.7800   37.0160 N   0  0  0  0  0  0  0  0  0  0  0  0
   35.6670   34.6920   36.0530 C   0  0  0  0  0  0  0  0  0  0  0  0
   36.1190   33.5120   35.5730 N   0  0  0  0  0  0  0  0  0  0  0  0
   34.2110   31.5530   37.4700 H   0  0  0  0  0  0  0  0  0  0  0  0
   33.4570   33.7600   38.2740 H   0  0  0  0  0  0  0  0  0  0  0  0
   36.1500   35.5580   35.5790 H   0  0  0  0  0  0  0  0  0  0  0  0
  1 17  1  0  0  0  0
  2  7  2  0  0  0  0
  2  3  1  0  0  0  0
  3  4  2  0  0  0  0
  4  5  1  0  0  0  0
  4 10  1  0  0  0  0
  6  1  1  0  0  0  0
  6  5  2  0  0  0  0
  7  6  1  0  0  0  0
  8  2  1  0  0  0  0
  9  3  1  0  0  0  0
 10 11  1  0  0  0  0
 11 12  2  0  0  0  0
 12 13  1  0  0  0  0
 14 12  1  0  0  0  0
 15 14  2  0  0  0  0
 16 10  2  0  0  0  0
 16 15  1  0  0  0  0
 17 20  1  0  0  0  0
 18 17  1  0  0  0  0
 19 17  1  0  0  0  0
 20 23  1  0  0  0  0
 20 22  1  0  0  0  0
 21 20  1  0  0  0  0
 23 24  1  0  0  0  0
 24 29  1  0  0  0  0
 24 25  2  0  0  0  0
 25 30  1  0  0  0  0
 26 25  1  0  0  0  0
 27 26  2  0  0  0  0
 28 27  1  0  0  0  0
 28 23  2  0  0  0  0
 31 27  1  0  0  0  0
M  END
>  <minimizedAffinity>
-4.67568064

$$$$
