
 OpenBabel03272501443D

 32 35  0  0  0  0  0  0  0  0999 V2000
   34.2580   29.1850   49.4580 C   0  0  0  0  0  0  0  0  0  0  0  0
   34.8860   29.6230   48.2550 C   0  0  0  0  0  0  0  0  0  0  0  0
   34.4110   29.0940   47.0680 C   0  0  0  0  0  0  0  0  0  0  0  0
   33.3860   28.1970   47.1140 N   0  0  0  0  0  0  0  0  0  0  0  0
   32.8130   27.8010   48.2590 C   0  0  0  0  0  0  0  0  0  0  0  0
   33.2570   28.3010   49.4200 N   0  0  0  0  0  0  0  0  0  0  0  0
   34.4870   29.4800   50.4790 H   0  0  0  0  0  0  0  0  0  0  0  0
   34.9050   29.4440   46.1820 H   0  0  0  0  0  0  0  0  0  0  0  0
   36.0930   31.1260   49.7270 C   0  0  0  0  0  0  0  0  0  0  0  0
   35.9490   30.5840   48.4490 C   0  0  0  0  0  0  0  0  0  0  0  0
   36.8280   30.9950   47.4530 C   0  0  0  0  0  0  0  0  0  0  0  0
   37.8100   31.9350   47.7950 C   0  0  0  0  0  0  0  0  0  0  0  0
   38.7790   32.5110   47.0690 N   0  0  0  0  0  0  0  0  0  0  0  0
   39.4800   33.3480   47.8220 C   0  0  0  0  0  0  0  0  0  0  0  0
   38.9630   33.3230   49.0670 N   0  0  0  0  0  0  0  0  0  0  0  0
   37.9400   32.4560   49.0500 C   0  0  0  0  0  0  0  0  0  0  0  0
   37.0710   32.0500   50.0340 C   0  0  0  0  0  0  0  0  0  0  0  0
   35.4700   30.8920   50.6020 H   0  0  0  0  0  0  0  0  0  0  0  0
   36.7210   30.5830   46.4740 H   0  0  0  0  0  0  0  0  0  0  0  0
   38.9800   32.3430   46.0450 H   0  0  0  0  0  0  0  0  0  0  0  0
   40.3280   33.9790   47.5710 H   0  0  0  0  0  0  0  0  0  0  0  0
   37.2020   32.4840   51.0160 H   0  0  0  0  0  0  0  0  0  0  0  0
   31.6940   26.8200   48.2250 C   0  0  0  0  0  0  0  0  0  0  0  0
   31.5870   26.4300   47.1920 H   0  0  0  0  0  0  0  0  0  0  0  0
   31.8440   25.9550   48.8760 H   0  0  0  0  0  0  0  0  0  0  0  0
   30.4630   27.5910   48.5820 C   0  0  0  0  0  0  0  0  0  0  0  0
   29.8420   27.6230   49.8020 C   0  0  0  0  0  0  0  0  0  0  0  0
   28.7120   28.4100   49.9030 C   0  0  0  0  0  0  0  0  0  0  0  0
   28.2130   28.4460   50.8540 H   0  0  0  0  0  0  0  0  0  0  0  0
   28.2240   29.1200   48.8640 N   0  0  0  0  0  0  0  0  0  0  0  0
   28.8550   29.0670   47.6830 C   0  0  0  0  0  0  0  0  0  0  0  0
   29.9630   28.3080   47.5540 N   0  0  0  0  0  0  0  0  0  0  0  0
  1  7  1  0  0  0  0
  2 10  1  0  0  0  0
  2  1  2  0  0  0  0
  3  4  2  0  0  0  0
  3  2  1  0  0  0  0
  4  5  1  0  0  0  0
  5  6  2  0  0  0  0
  6  1  1  0  0  0  0
  8  3  1  0  0  0  0
  9 17  1  0  0  0  0
  9 18  1  0  0  0  0
 10  9  2  0  0  0  0
 11 12  2  0  0  0  0
 11 10  1  0  0  0  0
 12 16  1  0  0  0  0
 13 12  1  0  0  0  0
 13 14  1  0  0  0  0
 14 15  2  0  0  0  0
 16 15  1  0  0  0  0
 16 17  2  0  0  0  0
 17 22  1  0  0  0  0
 19 11  1  0  0  0  0
 20 13  1  0  0  0  0
 21 14  1  0  0  0  0
 23  5  1  0  0  0  0
 23 26  1  0  0  0  0
 23 25  1  0  0  0  0
 24 23  1  0  0  0  0
 26 27  1  0  0  0  0
 27 28  2  0  0  0  0
 28 29  1  0  0  0  0
 30 28  1  0  0  0  0
 31 30  2  0  0  0  0
 32 31  1  0  0  0  0
 32 26  2  0  0  0  0
M  END
>  <minimizedAffinity>
-6.51603127

>  <minimizedRMSD>
1.91590226

$$$$
