
 OpenBabel03272508113D

 32 34  0  0  0  0  0  0  0  0999 V2000
   36.6900   29.4770   44.0720 Cl  0  0  0  0  0  0  0  0  0  0  0  0
   38.3300   29.8480   43.5380 C   0  0  0  0  0  0  0  0  0  0  0  0
   39.3280   30.3390   44.3800 C   0  0  0  0  0  0  0  0  0  0  0  0
   40.5860   30.5960   43.8360 C   0  0  0  0  0  0  0  0  0  0  0  0
   40.8130   30.3640   42.5010 C   0  0  0  0  0  0  0  0  0  0  0  0
   39.8570   29.8870   41.6690 C   0  0  0  0  0  0  0  0  0  0  0  0
   38.6240   29.6300   42.1810 C   0  0  0  0  0  0  0  0  0  0  0  0
   41.2950   30.9740   44.5650 H   0  0  0  0  0  0  0  0  0  0  0  0
   41.8290   30.6040   42.2060 H   0  0  0  0  0  0  0  0  0  0  0  0
   40.1470   29.7410   40.6430 H   0  0  0  0  0  0  0  0  0  0  0  0
   37.5550   29.1120   41.3240 C   0  0  0  0  0  0  0  0  0  0  0  0
   37.3500   27.7780   41.0770 C   0  0  0  0  0  0  0  0  0  0  0  0
   36.3690   27.2540   40.2860 C   0  0  0  0  0  0  0  0  0  0  0  0
   36.2290   26.1960   40.1080 H   0  0  0  0  0  0  0  0  0  0  0  0
   35.5100   28.1280   39.6860 N   0  0  0  0  0  0  0  0  0  0  0  0
   35.6830   29.4490   39.9060 C   0  0  0  0  0  0  0  0  0  0  0  0
   36.6730   29.9150   40.6990 N   0  0  0  0  0  0  0  0  0  0  0  0
   38.8920   30.4980   45.6660 O   0  0  0  0  0  0  0  0  0  0  0  0
   39.4460   32.5480   47.1260 O   0  0  0  0  0  0  0  0  0  0  0  0
   38.3200   31.8660   46.4360 P   0  0  1  0  0  0  0  0  0  0  0  0
   37.7300   32.8590   45.1770 O   0  0  0  0  0  0  0  0  0  0  0  0
   38.3770   33.6080   45.0370 H   0  0  0  0  0  0  0  0  0  0  0  0
   37.0550   31.4400   47.4670 O   0  0  0  0  0  0  0  0  0  0  0  0
   37.6030   30.5220   50.9920 C   0  0  0  0  0  0  0  0  0  0  0  0
   37.7070   31.3100   49.8320 C   0  0  0  0  0  0  0  0  0  0  0  0
   37.0840   30.8560   48.6730 C   0  0  0  0  0  0  0  0  0  0  0  0
   36.4050   29.6640   48.7260 N   0  0  0  0  0  0  0  0  0  0  0  0
   36.3350   28.9510   49.8550 C   0  0  0  0  0  0  0  0  0  0  0  0
   36.9240   29.3640   50.9880 N   0  0  0  0  0  0  0  0  0  0  0  0
   38.1160   30.9440   51.8580 H   0  0  0  0  0  0  0  0  0  0  0  0
   38.2160   32.2280   49.7420 H   0  0  0  0  0  0  0  0  0  0  0  0
   35.7950   28.0030   49.9060 H   0  0  0  0  0  0  0  0  0  0  0  0
  2  1  1  0  0  0  0
  2  3  1  0  0  0  0
  3 18  1  0  0  0  0
  4  3  2  0  0  0  0
  4  8  1  0  0  0  0
  5  4  1  0  0  0  0
  6  7  1  0  0  0  0
  6  5  2  0  0  0  0
  7  2  2  0  0  0  0
  9  5  1  0  0  0  0
 10  6  1  0  0  0  0
 11  7  1  0  0  0  0
 12 11  1  0  0  0  0
 13 12  2  0  0  0  0
 14 13  1  0  0  0  0
 15 16  2  0  0  0  0
 15 13  1  0  0  0  0
 16 17  1  0  0  0  0
 17 11  2  0  0  0  0
 18 20  1  0  0  0  0
 20 19  2  1  0  0  0
 20 23  1  0  0  0  0
 21 20  1  0  0  0  0
 22 21  1  0  0  0  0
 23 26  1  0  0  0  0
 24 30  1  0  0  0  0
 25 24  2  0  0  0  0
 26 27  2  0  0  0  0
 26 25  1  0  0  0  0
 27 28  1  0  0  0  0
 28 32  1  0  0  0  0
 28 29  2  0  0  0  0
 29 24  1  0  0  0  0
 31 25  1  0  0  0  0
M  END
>  <minimizedAffinity>
-4.83674812

>  <minimizedRMSD>
0.386200398

$$$$
