
 OpenBabel03272506323D

 38 40  0  0  1  0  0  0  0  0999 V2000
   37.3250   26.8690   33.6380 C   0  0  1  0  0  0  0  0  0  0  0  0
   38.4550   26.6050   32.7720 C   0  0  0  0  0  0  0  0  0  0  0  0
   39.8150   27.0630   33.2550 C   0  0  0  0  0  0  0  0  0  0  0  0
   40.0550   26.9320   34.7220 C   0  0  0  0  0  0  0  0  0  0  0  0
   38.9010   27.1580   35.6300 C   0  0  0  0  0  0  0  0  0  0  0  0
   37.6330   26.6020   35.0940 C   0  0  2  0  0  0  0  0  0  0  0  0
   36.5130   26.1060   33.4240 H   0  0  0  0  0  0  0  0  0  0  0  0
   38.5670   25.4770   32.7310 H   0  0  0  0  0  0  0  0  0  0  0  0
   38.3790   26.8880   31.7250 H   0  0  0  0  0  0  0  0  0  0  0  0
   40.6030   26.4620   32.7380 H   0  0  0  0  0  0  0  0  0  0  0  0
   39.9950   28.1150   32.9340 H   0  0  0  0  0  0  0  0  0  0  0  0
   40.8360   27.6930   34.9830 H   0  0  0  0  0  0  0  0  0  0  0  0
   40.5350   25.9510   34.9390 H   0  0  0  0  0  0  0  0  0  0  0  0
   39.1170   26.6120   36.5720 H   0  0  0  0  0  0  0  0  0  0  0  0
   38.7870   28.2310   35.9020 H   0  0  0  0  0  0  0  0  0  0  0  0
   36.8090   26.8990   35.7520 H   0  0  0  0  0  0  0  0  0  0  0  0
   35.9410   28.8490   34.4870 C   0  0  0  0  0  0  0  0  0  0  0  0
   36.6250   28.1520   33.4420 C   0  0  0  0  0  0  0  0  0  0  0  0
   36.5890   28.7590   32.1980 C   0  0  0  0  0  0  0  0  0  0  0  0
   35.9270   29.9470   32.0410 N   0  0  0  0  0  0  0  0  0  0  0  0
   35.3040   30.5560   33.0590 C   0  0  0  0  0  0  0  0  0  0  0  0
   35.3130   29.9940   34.2990 N   0  0  0  0  0  0  0  0  0  0  0  0
   35.9570   28.3930   35.4690 H   0  0  0  0  0  0  0  0  0  0  0  0
   37.0630   28.3440   31.3220 H   0  0  0  0  0  0  0  0  0  0  0  0
   34.7780   31.4880   32.9600 H   0  0  0  0  0  0  0  0  0  0  0  0
   37.7970   25.0770   35.1790 C   0  0  0  0  0  0  0  0  0  0  0  0
   38.5840   24.7020   34.5200 H   0  0  0  0  0  0  0  0  0  0  0  0
   36.8230   24.5620   34.9520 H   0  0  0  0  0  0  0  0  0  0  0  0
   38.1300   24.6700   36.6140 C   0  0  0  0  0  0  0  0  0  0  0  0
   38.3900   25.5690   37.1900 H   0  0  0  0  0  0  0  0  0  0  0  0
   37.1960   24.2520   37.0470 H   0  0  0  0  0  0  0  0  0  0  0  0
   39.1710   23.6420   36.6980 C   0  0  0  0  0  0  0  0  0  0  0  0
   39.6970   23.2630   35.4580 C   0  0  0  0  0  3  0  0  0  0  0  0
   40.6820   22.3170   35.2930 C   0  0  0  0  0  0  0  0  0  0  0  0
   41.0840   22.0260   34.3550 H   0  0  0  0  0  0  0  0  0  0  0  0
   41.1640   21.7220   36.4190 N   0  0  0  0  0  0  0  0  0  0  0  0
   40.6390   22.1050   37.6170 C   0  0  0  0  0  3  0  0  0  0  0  0
   39.6780   23.0280   37.7800 N   0  0  0  0  0  0  0  0  0  0  0  0
  1  7  1  6  0  0  0
  1  6  1  0  0  0  0
  2  3  1  0  0  0  0
  2  1  1  0  0  0  0
  3  4  1  0  0  0  0
  4 13  1  0  0  0  0
  4 12  1  0  0  0  0
  4  5  1  0  0  0  0
  5 15  1  0  0  0  0
  5 14  1  0  0  0  0
  6 26  1  0  0  0  0
  6  5  1  0  0  0  0
  6 16  1  1  0  0  0
  8  2  1  0  0  0  0
  9  2  1  0  0  0  0
 10  3  1  0  0  0  0
 11  3  1  0  0  0  0
 17 23  1  0  0  0  0
 18  1  1  0  0  0  0
 18 17  2  0  0  0  0
 19 18  1  0  0  0  0
 20 19  2  0  0  0  0
 20 21  1  0  0  0  0
 21 22  2  0  0  0  0
 22 17  1  0  0  0  0
 24 19  1  0  0  0  0
 25 21  1  0  0  0  0
 26 29  1  0  0  0  0
 27 26  1  0  0  0  0
 28 26  1  0  0  0  0
 29 32  1  0  0  0  0
 29 31  1  0  0  0  0
 29 30  1  0  0  0  0
 32 38  1  0  0  0  0
 33 32  2  0  0  0  0
 34 33  1  0  0  0  0
 34 36  2  0  0  0  0
 35 34  1  0  0  0  0
 36 37  1  0  0  0  0
 37 38  2  0  0  0  0
M  END
>  <minimizedAffinity>
-5.17369986

$$$$

 OpenBabel03272506323D

 38 40  0  0  1  0  0  0  0  0999 V2000
   38.1310   26.4190   35.3880 C   0  0  1  0  0  0  0  0  0  0  0  0
   39.4200   26.9860   35.0510 C   0  0  0  0  0  0  0  0  0  0  0  0
   39.7800   27.0540   33.5820 C   0  0  0  0  0  0  0  0  0  0  0  0
   38.6520   27.3670   32.6560 C   0  0  0  0  0  0  0  0  0  0  0  0
   37.3100   26.8310   33.0020 C   0  0  0  0  0  0  0  0  0  0  0  0
   37.0320   26.8810   34.4590 C   0  0  2  0  0  0  0  0  0  0  0  0
   37.7930   26.8420   36.3850 H   0  0  0  0  0  0  0  0  0  0  0  0
   39.3750   28.0780   35.3520 H   0  0  0  0  0  0  0  0  0  0  0  0
   40.2980   26.6170   35.5750 H   0  0  0  0  0  0  0  0  0  0  0  0
   40.5550   27.8470   33.4370 H   0  0  0  0  0  0  0  0  0  0  0  0
   40.2750   26.1050   33.2700 H   0  0  0  0  0  0  0  0  0  0  0  0
   38.9340   26.9390   31.6600 H   0  0  0  0  0  0  0  0  0  0  0  0
   38.5990   28.4660   32.4850 H   0  0  0  0  0  0  0  0  0  0  0  0
   36.5620   27.4860   32.5090 H   0  0  0  0  0  0  0  0  0  0  0  0
   37.1530   25.8060   32.5970 H   0  0  0  0  0  0  0  0  0  0  0  0
   36.0810   26.3720   34.6560 H   0  0  0  0  0  0  0  0  0  0  0  0
   38.4380   23.9900   34.6350 C   0  0  0  0  0  0  0  0  0  0  0  0
   38.0870   24.9630   35.6220 C   0  0  0  0  0  0  0  0  0  0  0  0
   37.6860   24.4520   36.8450 C   0  0  0  0  0  0  0  0  0  0  0  0
   37.6480   23.0980   37.0360 N   0  0  0  0  0  0  0  0  0  0  0  0
   37.9900   22.2320   36.0720 C   0  0  0  0  0  0  0  0  0  0  0  0
   38.3900   22.6910   34.8540 N   0  0  0  0  0  0  0  0  0  0  0  0
   38.7560   24.3670   33.6700 H   0  0  0  0  0  0  0  0  0  0  0  0
   37.3940   25.0720   37.6800 H   0  0  0  0  0  0  0  0  0  0  0  0
   37.9680   21.1650   36.1980 H   0  0  0  0  0  0  0  0  0  0  0  0
   36.8580   28.3740   34.7820 C   0  0  0  0  0  0  0  0  0  0  0  0
   37.7380   28.9650   34.5190 H   0  0  0  0  0  0  0  0  0  0  0  0
   36.6050   28.5150   35.8690 H   0  0  0  0  0  0  0  0  0  0  0  0
   35.6540   28.9320   34.0240 C   0  0  0  0  0  0  0  0  0  0  0  0
   35.8220   28.8110   32.9450 H   0  0  0  0  0  0  0  0  0  0  0  0
   34.7860   28.2950   34.3020 H   0  0  0  0  0  0  0  0  0  0  0  0
   35.3360   30.3170   34.3800 C   0  0  0  0  0  0  0  0  0  0  0  0
   36.0060   30.7790   35.5190 C   0  0  0  0  0  3  0  0  0  0  0  0
   35.8630   32.0440   36.0390 C   0  0  0  0  0  0  0  0  0  0  0  0
   36.3680   32.4000   36.9020 H   0  0  0  0  0  0  0  0  0  0  0  0
   35.0120   32.8880   35.3910 N   0  0  0  0  0  0  0  0  0  0  0  0
   34.3700   32.4190   34.2840 C   0  0  0  0  0  3  0  0  0  0  0  0
   34.5080   31.1850   33.7750 N   0  0  0  0  0  0  0  0  0  0  0  0
  1 18  1  0  0  0  0
  1  7  1  1  0  0  0
  2  8  1  0  0  0  0
  2  1  1  0  0  0  0
  2  9  1  0  0  0  0
  3  2  1  0  0  0  0
  4  5  1  0  0  0  0
  4  3  1  0  0  0  0
  5  6  1  0  0  0  0
  6 16  1  1  0  0  0
  6 26  1  0  0  0  0
  6  1  1  0  0  0  0
 10  3  1  0  0  0  0
 11  3  1  0  0  0  0
 12  4  1  0  0  0  0
 13  4  1  0  0  0  0
 14  5  1  0  0  0  0
 15  5  1  0  0  0  0
 17 22  2  0  0  0  0
 17 18  1  0  0  0  0
 18 19  2  0  0  0  0
 19 20  1  0  0  0  0
 19 24  1  0  0  0  0
 21 25  1  0  0  0  0
 21 20  2  0  0  0  0
 22 21  1  0  0  0  0
 23 17  1  0  0  0  0
 26 28  1  0  0  0  0
 27 26  1  0  0  0  0
 29 31  1  0  0  0  0
 29 32  1  0  0  0  0
 29 26  1  0  0  0  0
 30 29  1  0  0  0  0
 32 33  1  0  0  0  0
 33 34  2  0  0  0  0
 34 35  1  0  0  0  0
 36 34  1  0  0  0  0
 37 36  2  0  0  0  0
 38 37  1  0  0  0  0
 38 32  2  0  0  0  0
M  END
>  <minimizedAffinity>
-5.13141346

$$$$

 OpenBabel03272506323D

 38 40  0  0  1  0  0  0  0  0999 V2000
   38.2790   26.5820   32.8380 C   0  0  1  0  0  0  0  0  0  0  0  0
   39.3690   26.7330   31.8980 C   0  0  0  0  0  0  0  0  0  0  0  0
   40.6410   27.3700   32.4150 C   0  0  0  0  0  0  0  0  0  0  0  0
   41.0150   27.0180   33.8170 C   0  0  0  0  0  0  0  0  0  0  0  0
   39.9120   26.8160   34.7910 C   0  0  0  0  0  0  0  0  0  0  0  0
   38.7450   26.1160   34.1990 C   0  0  2  0  0  0  0  0  0  0  0  0
   37.6230   25.7180   32.5040 H   0  0  0  0  0  0  0  0  0  0  0  0
   39.7030   25.6840   31.6270 H   0  0  0  0  0  0  0  0  0  0  0  0
   39.1580   27.1870   30.9330 H   0  0  0  0  0  0  0  0  0  0  0  0
   41.4930   27.0590   31.7600 H   0  0  0  0  0  0  0  0  0  0  0  0
   40.5810   28.4780   32.3060 H   0  0  0  0  0  0  0  0  0  0  0  0
   41.6440   27.8630   34.1980 H   0  0  0  0  0  0  0  0  0  0  0  0
   41.6980   26.1380   33.8150 H   0  0  0  0  0  0  0  0  0  0  0  0
   40.3050   26.1610   35.5960 H   0  0  0  0  0  0  0  0  0  0  0  0
   39.6050   27.7700   35.2770 H   0  0  0  0  0  0  0  0  0  0  0  0
   37.9300   26.1010   34.9320 H   0  0  0  0  0  0  0  0  0  0  0  0
   36.5820   28.0160   34.1120 C   0  0  0  0  0  0  0  0  0  0  0  0
   37.3210   27.6990   32.9300 C   0  0  0  0  0  0  0  0  0  0  0  0
   37.0800   28.5190   31.8390 C   0  0  0  0  0  0  0  0  0  0  0  0
   36.1830   29.5460   31.9470 N   0  0  0  0  0  0  0  0  0  0  0  0
   35.5180   29.7960   33.0840 C   0  0  0  0  0  0  0  0  0  0  0  0
   35.7240   29.0150   34.1800 N   0  0  0  0  0  0  0  0  0  0  0  0
   36.7550   27.3880   34.9780 H   0  0  0  0  0  0  0  0  0  0  0  0
   37.5690   28.3960   30.8850 H   0  0  0  0  0  0  0  0  0  0  0  0
   34.8090   30.5960   33.1930 H   0  0  0  0  0  0  0  0  0  0  0  0
   39.2190   24.6720   33.9700 C   0  0  0  0  0  0  0  0  0  0  0  0
   40.2160   24.4890   34.3770 H   0  0  0  0  0  0  0  0  0  0  0  0
   39.1930   24.4180   32.8750 H   0  0  0  0  0  0  0  0  0  0  0  0
   38.2410   23.6960   34.6230 C   0  0  0  0  0  0  0  0  0  0  0  0
   37.2200   23.9380   34.2970 H   0  0  0  0  0  0  0  0  0  0  0  0
   38.4910   22.6880   34.2240 H   0  0  0  0  0  0  0  0  0  0  0  0
   38.3570   23.6480   36.0830 C   0  0  0  0  0  0  0  0  0  0  0  0
   39.5230   23.0240   36.5400 C   0  0  0  0  0  3  0  0  0  0  0  0
   39.8440   22.8640   37.8680 C   0  0  0  0  0  0  0  0  0  0  0  0
   40.7270   22.3920   38.2210 H   0  0  0  0  0  0  0  0  0  0  0  0
   38.9590   23.3520   38.7820 N   0  0  0  0  0  0  0  0  0  0  0  0
   37.8300   23.9570   38.3170 C   0  0  0  0  0  3  0  0  0  0  0  0
   37.5160   24.1130   37.0210 N   0  0  0  0  0  0  0  0  0  0  0  0
  1  7  1  6  0  0  0
  1 18  1  0  0  0  0
  1  6  1  0  0  0  0
  2  3  1  0  0  0  0
  2  1  1  0  0  0  0
  3  4  1  0  0  0  0
  4 12  1  0  0  0  0
  4  5  1  0  0  0  0
  5 15  1  0  0  0  0
  5 14  1  0  0  0  0
  6  5  1  0  0  0  0
  6 16  1  1  0  0  0
  8  2  1  0  0  0  0
  9  2  1  0  0  0  0
 10  3  1  0  0  0  0
 11  3  1  0  0  0  0
 13  4  1  0  0  0  0
 17 22  1  0  0  0  0
 17 23  1  0  0  0  0
 18 17  2  0  0  0  0
 19 20  2  0  0  0  0
 19 18  1  0  0  0  0
 20 21  1  0  0  0  0
 21 25  1  0  0  0  0
 21 22  2  0  0  0  0
 24 19  1  0  0  0  0
 26  6  1  0  0  0  0
 26 27  1  0  0  0  0
 26 29  1  0  0  0  0
 28 26  1  0  0  0  0
 29 32  1  0  0  0  0
 30 29  1  0  0  0  0
 31 29  1  0  0  0  0
 32 33  2  0  0  0  0
 32 38  1  0  0  0  0
 33 34  1  0  0  0  0
 34 35  1  0  0  0  0
 34 36  2  0  0  0  0
 37 36  1  0  0  0  0
 38 37  2  0  0  0  0
M  END
>  <minimizedAffinity>
-5.05913448

$$$$

 OpenBabel03272506323D

 38 40  0  0  1  0  0  0  0  0999 V2000
   38.8260   24.4670   35.1330 C   0  0  1  0  0  0  0  0  0  0  0  0
   37.8330   25.0720   35.9950 C   0  0  0  0  0  0  0  0  0  0  0  0
   38.1630   26.4300   36.5770 C   0  0  0  0  0  0  0  0  0  0  0  0
   38.9150   27.3530   35.6760 C   0  0  0  0  0  0  0  0  0  0  0  0
   39.9110   26.7510   34.7530 C   0  0  0  0  0  0  0  0  0  0  0  0
   39.4540   25.4590   34.1810 C   0  0  2  0  0  0  0  0  0  0  0  0
   38.3080   23.7510   34.4210 H   0  0  0  0  0  0  0  0  0  0  0  0
   36.9340   25.2900   35.3390 H   0  0  0  0  0  0  0  0  0  0  0  0
   37.4180   24.4750   36.8010 H   0  0  0  0  0  0  0  0  0  0  0  0
   37.2100   26.9460   36.8530 H   0  0  0  0  0  0  0  0  0  0  0  0
   38.7140   26.3060   37.5380 H   0  0  0  0  0  0  0  0  0  0  0  0
   39.4680   28.0630   36.3430 H   0  0  0  0  0  0  0  0  0  0  0  0
   38.2000   27.9950   35.1130 H   0  0  0  0  0  0  0  0  0  0  0  0
   40.0320   27.4530   33.9020 H   0  0  0  0  0  0  0  0  0  0  0  0
   40.9120   26.6480   35.2280 H   0  0  0  0  0  0  0  0  0  0  0  0
   40.2740   25.0170   33.6030 H   0  0  0  0  0  0  0  0  0  0  0  0
   41.1030   23.2960   35.2050 C   0  0  0  0  0  0  0  0  0  0  0  0
   39.8320   23.6060   35.7820 C   0  0  0  0  0  0  0  0  0  0  0  0
   39.5850   23.0330   37.0190 C   0  0  0  0  0  0  0  0  0  0  0  0
   40.5320   22.2330   37.5990 N   0  0  0  0  0  0  0  0  0  0  0  0
   41.7080   21.9790   37.0090 C   0  0  0  0  0  0  0  0  0  0  0  0
   41.9920   22.5200   35.7930 N   0  0  0  0  0  0  0  0  0  0  0  0
   41.3190   23.7330   34.2380 H   0  0  0  0  0  0  0  0  0  0  0  0
   38.6680   23.1830   37.5690 H   0  0  0  0  0  0  0  0  0  0  0  0
   42.4660   21.3540   37.4440 H   0  0  0  0  0  0  0  0  0  0  0  0
   38.3220   25.8300   33.2100 C   0  0  0  0  0  0  0  0  0  0  0  0
   37.4730   26.2980   33.7150 H   0  0  0  0  0  0  0  0  0  0  0  0
   37.9810   24.9240   32.6370 H   0  0  0  0  0  0  0  0  0  0  0  0
   38.8450   26.7940   32.1460 C   0  0  0  0  0  0  0  0  0  0  0  0
   39.7610   27.2740   32.5160 H   0  0  0  0  0  0  0  0  0  0  0  0
   39.1220   26.1710   31.2680 H   0  0  0  0  0  0  0  0  0  0  0  0
   37.8470   27.7750   31.7110 C   0  0  0  0  0  0  0  0  0  0  0  0
   36.7500   27.8890   32.5730 C   0  0  0  0  0  3  0  0  0  0  0  0
   35.6920   28.7450   32.3680 C   0  0  0  0  0  0  0  0  0  0  0  0
   34.8580   28.8360   33.0180 H   0  0  0  0  0  0  0  0  0  0  0  0
   35.7330   29.5230   31.2500 N   0  0  0  0  0  0  0  0  0  0  0  0
   36.8090   29.3970   30.4240 C   0  0  0  0  0  3  0  0  0  0  0  0
   37.8420   28.5630   30.6230 N   0  0  0  0  0  0  0  0  0  0  0  0
  1  7  1  6  0  0  0
  1 18  1  0  0  0  0
  1  2  1  0  0  0  0
  2  3  1  0  0  0  0
  2  9  1  0  0  0  0
  3 10  1  0  0  0  0
  3 11  1  0  0  0  0
  4 12  1  0  0  0  0
  4  3  1  0  0  0  0
  5 15  1  0  0  0  0
  5  4  1  0  0  0  0
  6 16  1  6  0  0  0
  6  5  1  0  0  0  0
  6  1  1  0  0  0  0
  8  2  1  0  0  0  0
 13  4  1  0  0  0  0
 14  5  1  0  0  0  0
 17 18  2  0  0  0  0
 17 22  1  0  0  0  0
 18 19  1  0  0  0  0
 19 24  1  0  0  0  0
 19 20  2  0  0  0  0
 21 25  1  0  0  0  0
 21 20  1  0  0  0  0
 22 21  2  0  0  0  0
 23 17  1  0  0  0  0
 26 27  1  0  0  0  0
 26  6  1  0  0  0  0
 28 26  1  0  0  0  0
 29 30  1  0  0  0  0
 29 26  1  0  0  0  0
 31 29  1  0  0  0  0
 32 29  1  0  0  0  0
 32 33  1  0  0  0  0
 34 33  2  0  0  0  0
 34 35  1  0  0  0  0
 36 34  1  0  0  0  0
 37 38  1  0  0  0  0
 37 36  2  0  0  0  0
 38 32  2  0  0  0  0
M  END
>  <minimizedAffinity>
-4.866292

$$$$

 OpenBabel03272506323D

 38 40  0  0  1  0  0  0  0  0999 V2000
   40.4040   22.9780   35.8930 C   0  0  1  0  0  0  0  0  0  0  0  0
   40.1180   22.3170   37.1490 C   0  0  0  0  0  0  0  0  0  0  0  0
   39.3550   23.1120   38.1860 C   0  0  0  0  0  0  0  0  0  0  0  0
   38.2940   24.0170   37.6530 C   0  0  0  0  0  0  0  0  0  0  0  0
   38.5470   24.6750   36.3450 C   0  0  0  0  0  0  0  0  0  0  0  0
   39.2330   23.7820   35.3780 C   0  0  2  0  0  0  0  0  0  0  0  0
   40.5260   22.1910   35.0830 H   0  0  0  0  0  0  0  0  0  0  0  0
   39.4070   21.4680   36.9050 H   0  0  0  0  0  0  0  0  0  0  0  0
   40.9340   21.8210   37.6680 H   0  0  0  0  0  0  0  0  0  0  0  0
   38.8550   22.4000   38.8900 H   0  0  0  0  0  0  0  0  0  0  0  0
   40.0670   23.6930   38.8170 H   0  0  0  0  0  0  0  0  0  0  0  0
   38.1620   24.8300   38.4130 H   0  0  0  0  0  0  0  0  0  0  0  0
   37.3170   23.4840   37.6370 H   0  0  0  0  0  0  0  0  0  0  0  0
   37.5570   24.9220   35.9080 H   0  0  0  0  0  0  0  0  0  0  0  0
   39.0940   25.6380   36.4610 H   0  0  0  0  0  0  0  0  0  0  0  0
   39.4890   24.3600   34.4820 H   0  0  0  0  0  0  0  0  0  0  0  0
   42.8400   23.3930   36.5660 C   0  0  0  0  0  0  0  0  0  0  0  0
   41.6730   23.7260   35.8110 C   0  0  0  0  0  0  0  0  0  0  0  0
   41.7970   24.8240   34.9760 C   0  0  0  0  0  0  0  0  0  0  0  0
   42.9830   25.5060   34.9220 N   0  0  0  0  0  0  0  0  0  0  0  0
   44.0460   25.1460   35.6550 C   0  0  0  0  0  0  0  0  0  0  0  0
   43.9680   24.0730   36.4890 N   0  0  0  0  0  0  0  0  0  0  0  0
   42.7670   22.5360   37.2250 H   0  0  0  0  0  0  0  0  0  0  0  0
   40.9970   25.1860   34.3490 H   0  0  0  0  0  0  0  0  0  0  0  0
   44.9860   25.6650   35.6290 H   0  0  0  0  0  0  0  0  0  0  0  0
   38.1830   22.7290   34.9920 C   0  0  0  0  0  0  0  0  0  0  0  0
   37.2820   22.7900   35.6080 H   0  0  0  0  0  0  0  0  0  0  0  0
   38.6220   21.6950   35.0480 H   0  0  0  0  0  0  0  0  0  0  0  0
   37.7830   22.9060   33.5280 C   0  0  0  0  0  0  0  0  0  0  0  0
   37.4420   23.9390   33.3720 H   0  0  0  0  0  0  0  0  0  0  0  0
   38.7090   22.7640   32.9300 H   0  0  0  0  0  0  0  0  0  0  0  0
   36.7930   21.9250   33.0740 C   0  0  0  0  0  0  0  0  0  0  0  0
   36.3880   22.1000   31.7460 C   0  0  0  0  0  3  0  0  0  0  0  0
   35.4700   21.3000   31.1060 C   0  0  0  0  0  0  0  0  0  0  0  0
   35.1590   21.4280   30.1000 H   0  0  0  0  0  0  0  0  0  0  0  0
   34.9320   20.2760   31.8270 N   0  0  0  0  0  0  0  0  0  0  0  0
   35.3400   20.1230   33.1180 C   0  0  0  0  0  3  0  0  0  0  0  0
   36.2360   20.9030   33.7440 N   0  0  0  0  0  0  0  0  0  0  0  0
  1  7  1  6  0  0  0
  1  2  1  0  0  0  0
  2  9  1  0  0  0  0
  2  3  1  0  0  0  0
  3 11  1  0  0  0  0
  3 10  1  0  0  0  0
  4  3  1  0  0  0  0
  4 12  1  0  0  0  0
  5 15  1  0  0  0  0
  5  4  1  0  0  0  0
  6 16  1  6  0  0  0
  6  1  1  0  0  0  0
  6  5  1  0  0  0  0
  8  2  1  0  0  0  0
 13  4  1  0  0  0  0
 14  5  1  0  0  0  0
 17 23  1  0  0  0  0
 18  1  1  0  0  0  0
 18 17  2  0  0  0  0
 19 18  1  0  0  0  0
 20 19  2  0  0  0  0
 20 21  1  0  0  0  0
 21 22  2  0  0  0  0
 22 17  1  0  0  0  0
 24 19  1  0  0  0  0
 25 21  1  0  0  0  0
 26 28  1  0  0  0  0
 26  6  1  0  0  0  0
 26 27  1  0  0  0  0
 29 26  1  0  0  0  0
 30 29  1  0  0  0  0
 31 29  1  0  0  0  0
 32 29  1  0  0  0  0
 32 38  1  0  0  0  0
 33 32  2  0  0  0  0
 34 33  1  0  0  0  0
 34 36  2  0  0  0  0
 35 34  1  0  0  0  0
 36 37  1  0  0  0  0
 37 38  2  0  0  0  0
M  END
>  <minimizedAffinity>
-4.8537302

$$$$

 OpenBabel03272506323D

 38 40  0  0  1  0  0  0  0  0999 V2000
   38.2170   24.7220   35.2550 C   0  0  1  0  0  0  0  0  0  0  0  0
   37.9320   25.9800   35.9120 C   0  0  0  0  0  0  0  0  0  0  0  0
   38.8790   27.1290   35.6400 C   0  0  0  0  0  0  0  0  0  0  0  0
   39.4110   27.2100   34.2480 C   0  0  0  0  0  0  0  0  0  0  0  0
   39.6740   25.9320   33.5380 C   0  0  0  0  0  0  0  0  0  0  0  0
   38.6440   24.9000   33.8160 C   0  0  2  0  0  0  0  0  0  0  0  0
   37.2510   24.1370   35.1460 H   0  0  0  0  0  0  0  0  0  0  0  0
   36.9520   26.3500   35.4760 H   0  0  0  0  0  0  0  0  0  0  0  0
   37.7440   25.9720   36.9820 H   0  0  0  0  0  0  0  0  0  0  0  0
   38.3470   28.0920   35.8450 H   0  0  0  0  0  0  0  0  0  0  0  0
   39.7230   27.1040   36.3680 H   0  0  0  0  0  0  0  0  0  0  0  0
   40.3870   27.7580   34.3150 H   0  0  0  0  0  0  0  0  0  0  0  0
   38.7590   27.8700   33.6330 H   0  0  0  0  0  0  0  0  0  0  0  0
   39.6260   26.1480   32.4500 H   0  0  0  0  0  0  0  0  0  0  0  0
   40.6970   25.5430   33.7410 H   0  0  0  0  0  0  0  0  0  0  0  0
   38.9550   23.9550   33.3560 H   0  0  0  0  0  0  0  0  0  0  0  0
   40.0610   22.9470   35.3440 C   0  0  0  0  0  0  0  0  0  0  0  0
   39.0870   23.7770   35.9810 C   0  0  0  0  0  0  0  0  0  0  0  0
   38.9950   23.6400   37.3560 C   0  0  0  0  0  0  0  0  0  0  0  0
   39.8090   22.7520   38.0060 N   0  0  0  0  0  0  0  0  0  0  0  0
   40.7060   22.0000   37.3550 C   0  0  0  0  0  0  0  0  0  0  0  0
   40.8300   22.1010   36.0030 N   0  0  0  0  0  0  0  0  0  0  0  0
   40.1510   23.0370   34.2690 H   0  0  0  0  0  0  0  0  0  0  0  0
   38.3050   24.2050   37.9640 H   0  0  0  0  0  0  0  0  0  0  0  0
   41.3560   21.2960   37.8430 H   0  0  0  0  0  0  0  0  0  0  0  0
   37.3780   25.3950   33.0990 C   0  0  0  0  0  0  0  0  0  0  0  0
   37.2650   26.4810   33.1490 H   0  0  0  0  0  0  0  0  0  0  0  0
   36.4640   24.8900   33.5170 H   0  0  0  0  0  0  0  0  0  0  0  0
   37.4180   24.9780   31.6290 C   0  0  0  0  0  0  0  0  0  0  0  0
   36.8360   25.6970   31.0360 H   0  0  0  0  0  0  0  0  0  0  0  0
   38.4800   25.0610   31.3090 H   0  0  0  0  0  0  0  0  0  0  0  0
   36.9820   23.5970   31.4050 C   0  0  0  0  0  0  0  0  0  0  0  0
   37.9930   22.7520   30.9350 C   0  0  0  0  0  3  0  0  0  0  0  0
   37.8140   21.4170   30.6550 C   0  0  0  0  0  0  0  0  0  0  0  0
   38.5770   20.7700   30.2980 H   0  0  0  0  0  0  0  0  0  0  0  0
   36.5680   20.9030   30.8540 N   0  0  0  0  0  0  0  0  0  0  0  0
   35.5980   21.7430   31.3130 C   0  0  0  0  0  3  0  0  0  0  0  0
   35.7710   23.0460   31.5860 N   0  0  0  0  0  0  0  0  0  0  0  0
  1  7  1  6  0  0  0
  1  2  1  0  0  0  0
  1 18  1  0  0  0  0
  2  9  1  0  0  0  0
  3 10  1  0  0  0  0
  3  2  1  0  0  0  0
  3 11  1  0  0  0  0
  4 12  1  0  0  0  0
  4  3  1  0  0  0  0
  5 15  1  0  0  0  0
  5  6  1  0  0  0  0
  5  4  1  0  0  0  0
  6 16  1  6  0  0  0
  6  1  1  0  0  0  0
  8  2  1  0  0  0  0
 13  4  1  0  0  0  0
 14  5  1  0  0  0  0
 17 18  2  0  0  0  0
 17 22  1  0  0  0  0
 18 19  1  0  0  0  0
 19 24  1  0  0  0  0
 19 20  2  0  0  0  0
 21 25  1  0  0  0  0
 21 20  1  0  0  0  0
 22 21  2  0  0  0  0
 23 17  1  0  0  0  0
 26 27  1  0  0  0  0
 26 28  1  0  0  0  0
 26  6  1  0  0  0  0
 29 26  1  0  0  0  0
 30 29  1  0  0  0  0
 31 29  1  0  0  0  0
 32 38  1  0  0  0  0
 32 29  1  0  0  0  0
 33 32  2  0  0  0  0
 34 36  2  0  0  0  0
 34 33  1  0  0  0  0
 35 34  1  0  0  0  0
 36 37  1  0  0  0  0
 37 38  2  0  0  0  0
M  END
>  <minimizedAffinity>
-4.77613163

$$$$

 OpenBabel03272506323D

 38 40  0  0  1  0  0  0  0  0999 V2000
   38.6320   24.6890   34.0450 C   0  0  1  0  0  0  0  0  0  0  0  0
   39.7830   25.5260   33.7830 C   0  0  0  0  0  0  0  0  0  0  0  0
   39.7160   26.9600   34.2640 C   0  0  0  0  0  0  0  0  0  0  0  0
   39.0220   27.1700   35.5690 C   0  0  0  0  0  0  0  0  0  0  0  0
   37.8620   26.2960   35.8790 C   0  0  0  0  0  0  0  0  0  0  0  0
   38.0650   24.8950   35.4320 C   0  0  2  0  0  0  0  0  0  0  0  0
   38.9670   23.6050   34.0840 H   0  0  0  0  0  0  0  0  0  0  0  0
   40.6360   25.0940   34.3940 H   0  0  0  0  0  0  0  0  0  0  0  0
   40.1840   25.5500   32.7740 H   0  0  0  0  0  0  0  0  0  0  0  0
   40.7570   27.3520   34.3790 H   0  0  0  0  0  0  0  0  0  0  0  0
   39.2500   27.6010   33.4790 H   0  0  0  0  0  0  0  0  0  0  0  0
   38.6470   28.2270   35.5600 H   0  0  0  0  0  0  0  0  0  0  0  0
   39.7630   27.1420   36.3990 H   0  0  0  0  0  0  0  0  0  0  0  0
   37.7610   26.2680   36.9840 H   0  0  0  0  0  0  0  0  0  0  0  0
   36.9080   26.7100   35.4810 H   0  0  0  0  0  0  0  0  0  0  0  0
   37.1360   24.3340   35.5870 H   0  0  0  0  0  0  0  0  0  0  0  0
   36.9870   25.8420   32.4560 C   0  0  0  0  0  0  0  0  0  0  0  0
   37.5800   24.6660   33.0120 C   0  0  0  0  0  0  0  0  0  0  0  0
   37.0950   23.4650   32.5180 C   0  0  0  0  0  0  0  0  0  0  0  0
   36.1150   23.4700   31.5630 N   0  0  0  0  0  0  0  0  0  0  0  0
   35.5970   24.6070   31.0780 C   0  0  0  0  0  0  0  0  0  0  0  0
   36.0430   25.8090   31.5360 N   0  0  0  0  0  0  0  0  0  0  0  0
   37.3510   26.7930   32.8270 H   0  0  0  0  0  0  0  0  0  0  0  0
   37.4530   22.5020   32.8470 H   0  0  0  0  0  0  0  0  0  0  0  0
   34.8280   24.6360   30.3290 H   0  0  0  0  0  0  0  0  0  0  0  0
   39.1380   24.3260   36.3740 C   0  0  0  0  0  0  0  0  0  0  0  0
   39.0410   24.7020   37.3950 H   0  0  0  0  0  0  0  0  0  0  0  0
   40.1680   24.5440   35.9760 H   0  0  0  0  0  0  0  0  0  0  0  0
   39.0440   22.8020   36.4070 C   0  0  0  0  0  0  0  0  0  0  0  0
   38.4050   22.4990   37.2470 H   0  0  0  0  0  0  0  0  0  0  0  0
   38.5310   22.4990   35.4680 H   0  0  0  0  0  0  0  0  0  0  0  0
   40.3520   22.1400   36.4440 C   0  0  0  0  0  0  0  0  0  0  0  0
   40.9670   22.0280   35.1920 C   0  0  0  0  0  3  0  0  0  0  0  0
   42.1960   21.4450   34.9840 C   0  0  0  0  0  0  0  0  0  0  0  0
   42.6670   21.3580   34.0380 H   0  0  0  0  0  0  0  0  0  0  0  0
   42.8400   20.9510   36.0790 N   0  0  0  0  0  0  0  0  0  0  0  0
   42.2240   21.0700   37.2880 C   0  0  0  0  0  3  0  0  0  0  0  0
   41.0250   21.6390   37.4930 N   0  0  0  0  0  0  0  0  0  0  0  0
  1  7  1  1  0  0  0
  1  6  1  0  0  0  0
  2  1  1  0  0  0  0
  2  3  1  0  0  0  0
  2  8  1  0  0  0  0
  3 10  1  0  0  0  0
  3  4  1  0  0  0  0
  4  5  1  0  0  0  0
  4 13  1  0  0  0  0
  5 14  1  0  0  0  0
  6 16  1  1  0  0  0
  6  5  1  0  0  0  0
  6 26  1  0  0  0  0
  9  2  1  0  0  0  0
 11  3  1  0  0  0  0
 12  4  1  0  0  0  0
 15  5  1  0  0  0  0
 17 23  1  0  0  0  0
 17 18  1  0  0  0  0
 18  1  1  0  0  0  0
 19 24  1  0  0  0  0
 19 18  2  0  0  0  0
 20 19  1  0  0  0  0
 21 22  1  0  0  0  0
 21 20  2  0  0  0  0
 22 17  2  0  0  0  0
 25 21  1  0  0  0  0
 26 29  1  0  0  0  0
 26 27  1  0  0  0  0
 28 26  1  0  0  0  0
 29 32  1  0  0  0  0
 29 30  1  0  0  0  0
 31 29  1  0  0  0  0
 32 38  1  0  0  0  0
 33 32  2  0  0  0  0
 34 33  1  0  0  0  0
 34 36  2  0  0  0  0
 35 34  1  0  0  0  0
 36 37  1  0  0  0  0
 37 38  2  0  0  0  0
M  END
>  <minimizedAffinity>
-4.76763344

$$$$

 OpenBabel03272506323D

 38 40  0  0  1  0  0  0  0  0999 V2000
   38.2270   24.4830   35.1510 C   0  0  1  0  0  0  0  0  0  0  0  0
   37.7880   25.6480   35.8900 C   0  0  0  0  0  0  0  0  0  0  0  0
   38.6320   26.8990   35.7670 C   0  0  0  0  0  0  0  0  0  0  0  0
   39.2230   27.1480   34.4200 C   0  0  0  0  0  0  0  0  0  0  0  0
   39.6440   25.9650   33.6250 C   0  0  0  0  0  0  0  0  0  0  0  0
   38.7070   24.8230   33.7590 C   0  0  2  0  0  0  0  0  0  0  0  0
   37.3290   23.8230   34.9390 H   0  0  0  0  0  0  0  0  0  0  0  0
   36.8000   25.9630   35.4290 H   0  0  0  0  0  0  0  0  0  0  0  0
   37.5480   25.5310   36.9430 H   0  0  0  0  0  0  0  0  0  0  0  0
   37.9990   27.7870   36.0170 H   0  0  0  0  0  0  0  0  0  0  0  0
   39.4370   26.8900   36.5390 H   0  0  0  0  0  0  0  0  0  0  0  0
   40.1360   27.7770   34.5870 H   0  0  0  0  0  0  0  0  0  0  0  0
   38.5420   27.7950   33.8220 H   0  0  0  0  0  0  0  0  0  0  0  0
   39.6300   26.2690   32.5580 H   0  0  0  0  0  0  0  0  0  0  0  0
   40.6890   25.6580   33.8560 H   0  0  0  0  0  0  0  0  0  0  0  0
   39.1310   23.9540   33.2430 H   0  0  0  0  0  0  0  0  0  0  0  0
   39.1910   23.4130   37.2690 C   0  0  0  0  0  0  0  0  0  0  0  0
   39.1470   23.5640   35.8480 C   0  0  0  0  0  0  0  0  0  0  0  0
   40.0440   22.7830   35.1380 C   0  0  0  0  0  0  0  0  0  0  0  0
   40.8910   21.9420   35.8080 N   0  0  0  0  0  0  0  0  0  0  0  0
   40.8860   21.8420   37.1440 C   0  0  0  0  0  0  0  0  0  0  0  0
   40.0210   22.5910   37.8820 N   0  0  0  0  0  0  0  0  0  0  0  0
   38.4980   24.0130   37.8450 H   0  0  0  0  0  0  0  0  0  0  0  0
   40.1180   22.7950   34.0610 H   0  0  0  0  0  0  0  0  0  0  0  0
   41.5410   21.1890   37.6920 H   0  0  0  0  0  0  0  0  0  0  0  0
   37.4370   25.2580   33.0110 C   0  0  0  0  0  0  0  0  0  0  0  0
   37.2720   26.3370   33.0570 H   0  0  0  0  0  0  0  0  0  0  0  0
   36.5380   24.7110   33.4080 H   0  0  0  0  0  0  0  0  0  0  0  0
   37.5310   24.8440   31.5430 C   0  0  0  0  0  0  0  0  0  0  0  0
   36.8690   25.4850   30.9460 H   0  0  0  0  0  0  0  0  0  0  0  0
   38.5760   25.0520   31.2250 H   0  0  0  0  0  0  0  0  0  0  0  0
   37.2640   23.4200   31.3240 C   0  0  0  0  0  0  0  0  0  0  0  0
   35.9970   23.0080   31.7500 C   0  0  0  0  0  3  0  0  0  0  0  0
   35.5280   21.7190   31.6450 C   0  0  0  0  0  0  0  0  0  0  0  0
   34.5680   21.4000   31.9660 H   0  0  0  0  0  0  0  0  0  0  0  0
   36.3640   20.7980   31.0880 N   0  0  0  0  0  0  0  0  0  0  0  0
   37.5940   21.2200   30.6790 C   0  0  0  0  0  3  0  0  0  0  0  0
   38.0530   22.4780   30.7810 N   0  0  0  0  0  0  0  0  0  0  0  0
  1  7  1  6  0  0  0
  1 18  1  0  0  0  0
  1  2  1  0  0  0  0
  2  9  1  0  0  0  0
  3  2  1  0  0  0  0
  3 10  1  0  0  0  0
  3 11  1  0  0  0  0
  4 12  1  0  0  0  0
  4  3  1  0  0  0  0
  5  6  1  0  0  0  0
  5 15  1  0  0  0  0
  5  4  1  0  0  0  0
  6 16  1  6  0  0  0
  6  1  1  0  0  0  0
  8  2  1  0  0  0  0
 13  4  1  0  0  0  0
 14  5  1  0  0  0  0
 17 23  1  0  0  0  0
 17 22  1  0  0  0  0
 18 17  2  0  0  0  0
 19 20  2  0  0  0  0
 19 18  1  0  0  0  0
 20 21  1  0  0  0  0
 21 25  1  0  0  0  0
 21 22  2  0  0  0  0
 24 19  1  0  0  0  0
 26 27  1  0  0  0  0
 26 28  1  0  0  0  0
 26  6  1  0  0  0  0
 29 26  1  0  0  0  0
 30 29  1  0  0  0  0
 31 29  1  0  0  0  0
 32 29  1  0  0  0  0
 32 33  1  0  0  0  0
 34 33  2  0  0  0  0
 34 35  1  0  0  0  0
 36 34  1  0  0  0  0
 37 38  1  0  0  0  0
 37 36  2  0  0  0  0
 38 32  2  0  0  0  0
M  END
>  <minimizedAffinity>
-4.72448063

$$$$

 OpenBabel03272506323D

 38 40  0  0  1  0  0  0  0  0999 V2000
   35.7950   29.5440   32.8710 C   0  0  1  0  0  0  0  0  0  0  0  0
   34.8940   30.1530   31.9150 C   0  0  0  0  0  0  0  0  0  0  0  0
   33.4160   30.1080   32.2370 C   0  0  0  0  0  0  0  0  0  0  0  0
   33.0650   30.2680   33.6790 C   0  0  0  0  0  0  0  0  0  0  0  0
   33.9960   29.6870   34.6810 C   0  0  0  0  0  0  0  0  0  0  0  0
   35.4210   29.8530   34.3020 C   0  0  2  0  0  0  0  0  0  0  0  0
   36.8140   30.0350   32.7800 H   0  0  0  0  0  0  0  0  0  0  0  0
   35.1230   31.2640   31.9270 H   0  0  0  0  0  0  0  0  0  0  0  0
   34.9980   29.8860   30.8670 H   0  0  0  0  0  0  0  0  0  0  0  0
   32.9000   30.9290   31.6810 H   0  0  0  0  0  0  0  0  0  0  0  0
   32.9710   29.1650   31.8410 H   0  0  0  0  0  0  0  0  0  0  0  0
   32.0720   29.7680   33.8200 H   0  0  0  0  0  0  0  0  0  0  0  0
   32.8730   31.3420   33.9040 H   0  0  0  0  0  0  0  0  0  0  0  0
   33.8480   30.2490   35.6270 H   0  0  0  0  0  0  0  0  0  0  0  0
   33.7600   28.6220   34.9020 H   0  0  0  0  0  0  0  0  0  0  0  0
   36.0450   29.3080   35.0200 H   0  0  0  0  0  0  0  0  0  0  0  0
   35.6980   27.3670   31.5250 C   0  0  0  0  0  0  0  0  0  0  0  0
   36.1060   28.1160   32.6730 C   0  0  0  0  0  0  0  0  0  0  0  0
   36.8260   27.4070   33.6200 C   0  0  0  0  0  0  0  0  0  0  0  0
   37.0960   26.0810   33.4160 N   0  0  0  0  0  0  0  0  0  0  0  0
   36.6880   25.4310   32.3180 C   0  0  0  0  0  0  0  0  0  0  0  0
   35.9770   26.0880   31.3610 N   0  0  0  0  0  0  0  0  0  0  0  0
   35.1340   27.9010   30.7690 H   0  0  0  0  0  0  0  0  0  0  0  0
   37.1970   27.8460   34.5340 H   0  0  0  0  0  0  0  0  0  0  0  0
   36.8880   24.3910   32.1350 H   0  0  0  0  0  0  0  0  0  0  0  0
   35.7040   31.3560   34.4570 C   0  0  0  0  0  0  0  0  0  0  0  0
   34.8780   31.9770   34.1010 H   0  0  0  0  0  0  0  0  0  0  0  0
   36.6560   31.6350   33.9270 H   0  0  0  0  0  0  0  0  0  0  0  0
   35.9610   31.6870   35.9270 C   0  0  0  0  0  0  0  0  0  0  0  0
   35.5950   30.8600   36.5500 H   0  0  0  0  0  0  0  0  0  0  0  0
   37.0650   31.7360   36.0480 H   0  0  0  0  0  0  0  0  0  0  0  0
   35.4000   32.9770   36.3380 C   0  0  0  0  0  0  0  0  0  0  0  0
   34.3250   32.8700   37.2280 C   0  0  0  0  0  3  0  0  0  0  0  0
   33.6430   33.9460   37.7470 C   0  0  0  0  0  0  0  0  0  0  0  0
   32.8280   33.8720   38.4230 H   0  0  0  0  0  0  0  0  0  0  0  0
   34.0540   35.1860   37.3590 N   0  0  0  0  0  0  0  0  0  0  0  0
   35.1020   35.2680   36.4920 C   0  0  0  0  0  3  0  0  0  0  0  0
   35.7690   34.2190   35.9840 N   0  0  0  0  0  0  0  0  0  0  0  0
  1  7  1  6  0  0  0
  1  6  1  0  0  0  0
  2  8  1  0  0  0  0
  2  3  1  0  0  0  0
  2  1  1  0  0  0  0
  3  4  1  0  0  0  0
  4 12  1  0  0  0  0
  4 13  1  0  0  0  0
  4  5  1  0  0  0  0
  5 15  1  0  0  0  0
  5 14  1  0  0  0  0
  6 26  1  0  0  0  0
  6  5  1  0  0  0  0
  6 16  1  1  0  0  0
  9  2  1  0  0  0  0
 10  3  1  0  0  0  0
 11  3  1  0  0  0  0
 17 18  1  0  0  0  0
 18  1  1  0  0  0  0
 18 19  2  0  0  0  0
 19 24  1  0  0  0  0
 20 19  1  0  0  0  0
 21 20  2  0  0  0  0
 22 17  2  0  0  0  0
 22 21  1  0  0  0  0
 23 17  1  0  0  0  0
 25 21  1  0  0  0  0
 26 29  1  0  0  0  0
 27 26  1  0  0  0  0
 28 26  1  0  0  0  0
 29 31  1  0  0  0  0
 29 32  1  0  0  0  0
 29 30  1  0  0  0  0
 32 33  1  0  0  0  0
 33 34  2  0  0  0  0
 34 35  1  0  0  0  0
 36 34  1  0  0  0  0
 37 36  2  0  0  0  0
 38 32  2  0  0  0  0
 38 37  1  0  0  0  0
M  END
>  <minimizedAffinity>
-4.72266102

$$$$
