
 OpenBabel03262521053D

 34 36  0  0  0  0  0  0  0  0999 V2000
   38.5000   31.7210   48.2730 Br  0  0  0  0  0  0  0  0  0  0  0  0
   37.3510   31.1160   46.9090 C   0  0  0  0  0  0  0  0  0  0  0  0
   36.2800   30.3750   47.3140 C   0  0  0  0  0  0  0  0  0  0  0  0
   35.3820   29.8890   46.3640 C   0  0  0  0  0  0  0  0  0  0  0  0
   35.5900   30.1660   45.0180 C   0  0  0  0  0  0  0  0  0  0  0  0
   36.6760   30.9080   44.6830 C   0  0  0  0  0  0  0  0  0  0  0  0
   37.5750   31.3990   45.6000 C   0  0  0  0  0  0  0  0  0  0  0  0
   34.5150   29.2990   46.6040 H   0  0  0  0  0  0  0  0  0  0  0  0
   34.9280   29.8150   44.2500 H   0  0  0  0  0  0  0  0  0  0  0  0
   36.8440   31.1280   43.6360 H   0  0  0  0  0  0  0  0  0  0  0  0
   36.8020   29.4550   49.6160 C   0  0  0  0  0  0  0  0  0  0  0  0
   35.9210   29.9970   48.6890 C   0  0  0  0  0  0  0  0  0  0  0  0
   34.5710   30.2030   49.0990 C   0  0  0  0  0  0  0  0  0  0  0  0
   34.2420   29.8490   50.3810 N   0  0  0  0  0  0  0  0  0  0  0  0
   35.1460   29.3280   51.2290 C   0  0  0  0  0  0  0  0  0  0  0  0
   36.4190   29.1300   50.8520 N   0  0  0  0  0  0  0  0  0  0  0  0
   37.8140   29.3190   49.2550 H   0  0  0  0  0  0  0  0  0  0  0  0
   33.8380   30.6170   48.4360 H   0  0  0  0  0  0  0  0  0  0  0  0
   34.8390   29.0630   52.2340 H   0  0  0  0  0  0  0  0  0  0  0  0
   38.7070   32.1720   45.2610 N   0  0  0  0  0  0  0  0  0  0  0  0
   38.4850   33.2010   45.1960 H   0  0  0  0  0  0  0  0  0  0  0  0
   40.3320   31.8060   44.9370 S   0  0  0  0  0  0  0  0  0  0  0  0
   40.7920   30.6490   45.7760 O   0  0  0  0  0  0  0  0  0  0  0  0
   40.1960   29.8910   45.9970 H   0  0  0  0  0  0  0  0  0  0  0  0
   41.1970   32.9890   45.3090 O   0  0  0  0  0  0  0  0  0  0  0  0
   41.8210   33.0860   46.0500 H   0  0  0  0  0  0  0  0  0  0  0  0
   40.5090   31.4410   43.3050 O   0  0  0  0  0  0  0  0  0  0  0  0
   40.3310   30.1140   42.9250 C   0  0  0  0  0  0  0  0  0  0  0  0
   41.1620   29.5930   41.9390 C   0  0  0  0  0  0  0  0  0  0  0  0
   40.9300   28.2620   41.6060 C   0  0  0  0  0  0  0  0  0  0  0  0
   41.5100   27.7290   40.8480 H   0  0  0  0  0  0  0  0  0  0  0  0
   39.9680   27.4800   42.1770 N   0  0  0  0  0  0  0  0  0  0  0  0
   39.1870   28.0440   43.1340 C   0  0  0  0  0  0  0  0  0  0  0  0
   39.4020   29.3130   43.4570 N   0  0  0  0  0  0  0  0  0  0  0  0
  2  3  1  0  0  0  0
  2  1  1  0  0  0  0
  3 12  1  0  0  0  0
  4  8  1  0  0  0  0
  4  3  2  0  0  0  0
  5  4  1  0  0  0  0
  6  5  2  0  0  0  0
  6  7  1  0  0  0  0
  7  2  2  0  0  0  0
  9  5  1  0  0  0  0
 10  6  1  0  0  0  0
 11 16  1  0  0  0  0
 12 13  1  0  0  0  0
 12 11  2  0  0  0  0
 13 14  2  0  0  0  0
 14 15  1  0  0  0  0
 15 19  1  0  0  0  0
 16 15  2  0  0  0  0
 17 11  1  0  0  0  0
 18 13  1  0  0  0  0
 20  7  1  0  0  0  0
 21 20  1  0  0  0  0
 22 20  1  0  0  0  0
 22 25  1  0  0  0  0
 22 23  1  0  0  0  0
 23 24  1  0  0  0  0
 25 26  1  0  0  0  0
 27 22  1  0  0  0  0
 28 27  1  0  0  0  0
 28 34  1  0  0  0  0
 29 28  2  0  0  0  0
 30 29  1  0  0  0  0
 30 32  2  0  0  0  0
 31 30  1  0  0  0  0
 32 33  1  0  0  0  0
 33 34  2  0  0  0  0
M  END
>  <minimizedAffinity>
-6.06494522

>  <minimizedRMSD>
3.50663519

$$$$
