
 OpenBabel03272509463D

 23 24  0  0  0  0  0  0  0  0999 V2000
   34.1740   28.4200   48.4750 C   0  0  0  0  0  0  0  0  0  0  0  0
   34.8020   29.0070   47.7940 H   0  0  0  0  0  0  0  0  0  0  0  0
   33.2290   28.9830   48.6280 H   0  0  0  0  0  0  0  0  0  0  0  0
   33.8210   27.0590   47.9480 C   0  0  0  0  0  0  0  0  0  0  0  0
   33.1620   26.5500   48.6490 H   0  0  0  0  0  0  0  0  0  0  0  0
   34.7600   26.4570   47.8030 H   0  0  0  0  0  0  0  0  0  0  0  0
   33.1950   27.1160   46.5990 C   0  0  0  0  0  0  0  0  0  0  0  0
   33.8680   26.4860   45.5730 C   0  0  0  0  0  3  0  0  0  0  0  0
   33.3830   26.4730   44.2820 C   0  0  0  0  0  0  0  0  0  0  0  0
   33.8590   25.9980   43.4300 H   0  0  0  0  0  0  0  0  0  0  0  0
   32.2290   27.0890   44.0140 N   0  0  0  0  0  0  0  0  0  0  0  0
   31.5730   27.7070   45.0270 C   0  0  0  0  0  3  0  0  0  0  0  0
   32.0280   27.7300   46.2920 N   0  0  0  0  0  0  0  0  0  0  0  0
   34.7460   28.3070   49.7720 O   0  0  0  0  0  0  0  0  0  0  0  0
   37.3420   30.2290   51.4230 C   0  0  0  0  0  0  0  0  0  0  0  0
   38.0620   30.6690   50.2940 C   0  0  0  0  0  0  0  0  0  0  0  0
   37.6130   30.2800   49.0380 C   0  0  0  0  0  0  0  0  0  0  0  0
   36.4950   29.4900   48.9850 N   0  0  0  0  0  0  0  0  0  0  0  0
   35.8310   29.0890   50.0750 C   0  0  0  0  0  0  0  0  0  0  0  0
   36.2610   29.4620   51.3030 N   0  0  0  0  0  0  0  0  0  0  0  0
   37.6370   30.4960   52.4340 H   0  0  0  0  0  0  0  0  0  0  0  0
   38.9380   31.2930   50.4310 H   0  0  0  0  0  0  0  0  0  0  0  0
   38.1390   30.5960   48.1450 H   0  0  0  0  0  0  0  0  0  0  0  0
  1  3  1  0  0  0  0
  1 14  1  0  0  0  0
  2  1  1  0  0  0  0
  4  1  1  0  0  0  0
  4  5  1  0  0  0  0
  6  4  1  0  0  0  0
  7  4  1  0  0  0  0
  8  7  2  0  0  0  0
  9  8  1  0  0  0  0
 10  9  1  0  0  0  0
 11  9  2  0  0  0  0
 11 12  1  0  0  0  0
 12 13  2  0  0  0  0
 13  7  1  0  0  0  0
 14 19  1  0  0  0  0
 15 21  1  0  0  0  0
 16 22  1  0  0  0  0
 16 15  2  0  0  0  0
 17 16  1  0  0  0  0
 18 17  2  0  0  0  0
 18 19  1  0  0  0  0
 19 20  2  0  0  0  0
 20 15  1  0  0  0  0
 23 17  1  0  0  0  0
M  END
>  <minimizedAffinity>
-3.662498

>  <minimizedRMSD>
0.0568303764

$$$$
