
 OpenBabel03272505463D

 23 25  0  0  0  0  0  0  0  0999 V2000
   38.6180   25.9940   34.9820 C   0  0  0  0  0  0  0  0  0  0  0  0
   38.4730   27.3240   35.5800 C   0  0  0  0  0  0  0  0  0  0  0  0
   39.6930   26.9930   34.7550 C   0  0  0  0  0  0  0  0  0  0  0  0
   37.6880   27.9870   35.1420 H   0  0  0  0  0  0  0  0  0  0  0  0
   38.5320   27.3810   36.6840 H   0  0  0  0  0  0  0  0  0  0  0  0
   39.7230   27.5270   33.7820 H   0  0  0  0  0  0  0  0  0  0  0  0
   40.6470   26.9180   35.3380 H   0  0  0  0  0  0  0  0  0  0  0  0
   36.3310   26.0220   32.0630 C   0  0  0  0  0  0  0  0  0  0  0  0
   36.3490   24.6800   31.6600 C   0  0  0  0  0  0  0  0  0  0  0  0
   37.1370   23.7680   32.3810 C   0  0  0  0  0  0  0  0  0  0  0  0
   37.8470   24.2470   33.4460 N   0  0  0  0  0  0  0  0  0  0  0  0
   37.8120   25.5490   33.8160 C   0  0  0  0  0  0  0  0  0  0  0  0
   37.0640   26.4260   33.1350 N   0  0  0  0  0  0  0  0  0  0  0  0
   35.7100   26.6610   31.4700 H   0  0  0  0  0  0  0  0  0  0  0  0
   35.8020   24.2790   30.8270 H   0  0  0  0  0  0  0  0  0  0  0  0
   37.2360   22.7190   32.1720 H   0  0  0  0  0  0  0  0  0  0  0  0
   38.8790   24.8500   35.9310 C   0  0  0  0  0  0  0  0  0  0  0  0
   38.0200   24.5540   36.9720 C   0  0  0  0  0  3  0  0  0  0  0  0
   38.3630   23.4810   37.7780 C   0  0  0  0  0  0  0  0  0  0  0  0
   37.7260   23.2190   38.5940 H   0  0  0  0  0  0  0  0  0  0  0  0
   39.4680   22.7250   37.6050 N   0  0  0  0  0  0  0  0  0  0  0  0
   40.2720   23.0740   36.5570 C   0  0  0  0  0  3  0  0  0  0  0  0
   39.9840   24.1070   35.7440 N   0  0  0  0  0  0  0  0  0  0  0  0
  1  2  1  0  0  0  0
  1 17  1  0  0  0  0
  2  5  1  0  0  0  0
  3  1  1  0  0  0  0
  3  7  1  0  0  0  0
  3  2  1  0  0  0  0
  4  2  1  0  0  0  0
  6  3  1  0  0  0  0
  8 13  1  0  0  0  0
  9  8  2  0  0  0  0
  9 10  1  0  0  0  0
 10 11  2  0  0  0  0
 11 12  1  0  0  0  0
 12  1  1  0  0  0  0
 13 12  2  0  0  0  0
 14  8  1  0  0  0  0
 15  9  1  0  0  0  0
 16 10  1  0  0  0  0
 17 18  1  0  0  0  0
 18 19  2  0  0  0  0
 19 20  1  0  0  0  0
 21 19  1  0  0  0  0
 22 21  2  0  0  0  0
 23 17  2  0  0  0  0
 23 22  1  0  0  0  0
M  END
>  <minimizedAffinity>
-4.43008089

$$$$

 OpenBabel03272505463D

 23 25  0  0  0  0  0  0  0  0999 V2000
   38.6030   25.9840   34.9870 C   0  0  0  0  0  0  0  0  0  0  0  0
   38.4300   27.3090   35.5890 C   0  0  0  0  0  0  0  0  0  0  0  0
   39.6640   27.0020   34.7750 C   0  0  0  0  0  0  0  0  0  0  0  0
   37.6380   27.9600   35.1460 H   0  0  0  0  0  0  0  0  0  0  0  0
   38.4770   27.3620   36.6940 H   0  0  0  0  0  0  0  0  0  0  0  0
   39.6940   27.5410   33.8050 H   0  0  0  0  0  0  0  0  0  0  0  0
   40.6130   26.9400   35.3680 H   0  0  0  0  0  0  0  0  0  0  0  0
   37.1070   23.8240   32.3700 C   0  0  0  0  0  0  0  0  0  0  0  0
   36.3350   24.7370   31.6390 C   0  0  0  0  0  0  0  0  0  0  0  0
   36.3250   26.0840   32.0360 C   0  0  0  0  0  0  0  0  0  0  0  0
   37.0780   26.4310   33.1220 N   0  0  0  0  0  0  0  0  0  0  0  0
   37.8170   25.5300   33.8120 C   0  0  0  0  0  0  0  0  0  0  0  0
   37.8330   24.2430   33.4420 N   0  0  0  0  0  0  0  0  0  0  0  0
   37.0700   22.8160   32.0140 H   0  0  0  0  0  0  0  0  0  0  0  0
   35.7350   24.4900   30.7830 H   0  0  0  0  0  0  0  0  0  0  0  0
   35.7760   26.8760   31.5610 H   0  0  0  0  0  0  0  0  0  0  0  0
   38.8750   24.8410   35.9340 C   0  0  0  0  0  0  0  0  0  0  0  0
   38.0220   24.5390   36.9780 C   0  0  0  0  0  3  0  0  0  0  0  0
   38.3740   23.4670   37.7820 C   0  0  0  0  0  0  0  0  0  0  0  0
   37.7420   23.2000   38.6000 H   0  0  0  0  0  0  0  0  0  0  0  0
   39.4820   22.7170   37.6030 N   0  0  0  0  0  0  0  0  0  0  0  0
   40.2800   23.0710   36.5530 C   0  0  0  0  0  3  0  0  0  0  0  0
   39.9840   24.1030   35.7420 N   0  0  0  0  0  0  0  0  0  0  0  0
  1  2  1  0  0  0  0
  1 17  1  0  0  0  0
  2  5  1  0  0  0  0
  3  1  1  0  0  0  0
  3  7  1  0  0  0  0
  3  2  1  0  0  0  0
  4  2  1  0  0  0  0
  6  3  1  0  0  0  0
  8 13  1  0  0  0  0
  9 10  1  0  0  0  0
  9  8  2  0  0  0  0
 10 11  2  0  0  0  0
 11 12  1  0  0  0  0
 12  1  1  0  0  0  0
 13 12  2  0  0  0  0
 14  8  1  0  0  0  0
 15  9  1  0  0  0  0
 16 10  1  0  0  0  0
 17 18  1  0  0  0  0
 18 19  2  0  0  0  0
 19 20  1  0  0  0  0
 21 19  1  0  0  0  0
 22 21  2  0  0  0  0
 23 17  2  0  0  0  0
 23 22  1  0  0  0  0
M  END
>  <minimizedAffinity>
-4.42037439

$$$$

 OpenBabel03272505463D

 23 25  0  0  0  0  0  0  0  0999 V2000
   38.5080   24.0240   36.8850 C   0  0  0  0  0  0  0  0  0  0  0  0
   37.9300   24.1810   38.2220 C   0  0  0  0  0  0  0  0  0  0  0  0
   37.3660   23.1560   37.2680 C   0  0  0  0  0  0  0  0  0  0  0  0
   38.5540   23.8340   39.0810 H   0  0  0  0  0  0  0  0  0  0  0  0
   37.3910   25.1280   38.4220 H   0  0  0  0  0  0  0  0  0  0  0  0
   37.5750   22.1100   37.5740 H   0  0  0  0  0  0  0  0  0  0  0  0
   36.3410   23.3910   36.8790 H   0  0  0  0  0  0  0  0  0  0  0  0
   41.8730   23.2880   35.5100 C   0  0  0  0  0  0  0  0  0  0  0  0
   42.2710   22.1860   36.2770 C   0  0  0  0  0  0  0  0  0  0  0  0
   41.3960   21.6930   37.2590 C   0  0  0  0  0  0  0  0  0  0  0  0
   40.1940   22.3240   37.4100 N   0  0  0  0  0  0  0  0  0  0  0  0
   39.8310   23.3880   36.6550 C   0  0  0  0  0  0  0  0  0  0  0  0
   40.6580   23.8650   35.7170 N   0  0  0  0  0  0  0  0  0  0  0  0
   42.5870   23.6110   34.7810 H   0  0  0  0  0  0  0  0  0  0  0  0
   43.2110   21.6730   36.1780 H   0  0  0  0  0  0  0  0  0  0  0  0
   41.5850   20.8590   37.9100 H   0  0  0  0  0  0  0  0  0  0  0  0
   38.2700   25.1490   35.9080 C   0  0  0  0  0  0  0  0  0  0  0  0
   38.4070   26.4740   36.2720 C   0  0  0  0  0  3  0  0  0  0  0  0
   38.1610   27.4200   35.2900 C   0  0  0  0  0  0  0  0  0  0  0  0
   38.2560   28.4570   35.5300 H   0  0  0  0  0  0  0  0  0  0  0  0
   37.8030   27.1220   34.0230 N   0  0  0  0  0  0  0  0  0  0  0  0
   37.6870   25.7930   33.7320 C   0  0  0  0  0  3  0  0  0  0  0  0
   37.9140   24.8350   34.6490 N   0  0  0  0  0  0  0  0  0  0  0  0
  1  3  1  0  0  0  0
  1  2  1  0  0  0  0
  2  5  1  0  0  0  0
  2  4  1  0  0  0  0
  3  6  1  0  0  0  0
  3  2  1  0  0  0  0
  7  3  1  0  0  0  0
  8 13  2  0  0  0  0
  8  9  1  0  0  0  0
  9 10  2  0  0  0  0
 10 11  1  0  0  0  0
 10 16  1  0  0  0  0
 12  1  1  0  0  0  0
 12 11  2  0  0  0  0
 13 12  1  0  0  0  0
 14  8  1  0  0  0  0
 15  9  1  0  0  0  0
 17 18  1  0  0  0  0
 17  1  1  0  0  0  0
 19 20  1  0  0  0  0
 19 18  2  0  0  0  0
 21 19  1  0  0  0  0
 22 21  2  0  0  0  0
 22 23  1  0  0  0  0
 23 17  2  0  0  0  0
M  END
>  <minimizedAffinity>
-4.39388466

$$$$

 OpenBabel03272505463D

 23 25  0  0  0  0  0  0  0  0999 V2000
   38.6500   23.3260   36.7410 C   0  0  0  0  0  0  0  0  0  0  0  0
   39.7760   22.7780   37.5020 C   0  0  0  0  0  0  0  0  0  0  0  0
   38.5660   23.3210   38.2240 C   0  0  0  0  0  0  0  0  0  0  0  0
   39.9240   21.6730   37.4510 H   0  0  0  0  0  0  0  0  0  0  0  0
   40.7230   23.3520   37.4700 H   0  0  0  0  0  0  0  0  0  0  0  0
   37.9600   22.5330   38.7180 H   0  0  0  0  0  0  0  0  0  0  0  0
   38.7440   24.2730   38.7890 H   0  0  0  0  0  0  0  0  0  0  0  0
   37.0130   21.4920   33.9650 C   0  0  0  0  0  0  0  0  0  0  0  0
   35.9440   20.8620   34.6170 C   0  0  0  0  0  0  0  0  0  0  0  0
   35.7800   21.0630   35.9970 C   0  0  0  0  0  0  0  0  0  0  0  0
   36.6820   21.8700   36.6310 N   0  0  0  0  0  0  0  0  0  0  0  0
   37.7070   22.4680   35.9790 C   0  0  0  0  0  0  0  0  0  0  0  0
   37.8720   22.2830   34.6640 N   0  0  0  0  0  0  0  0  0  0  0  0
   37.0790   21.2960   32.9150 H   0  0  0  0  0  0  0  0  0  0  0  0
   35.2230   20.2230   34.1410 H   0  0  0  0  0  0  0  0  0  0  0  0
   35.0050   20.6370   36.6070 H   0  0  0  0  0  0  0  0  0  0  0  0
   38.8860   24.6370   36.0330 C   0  0  0  0  0  0  0  0  0  0  0  0
   37.9660   25.6670   36.0770 C   0  0  0  0  0  3  0  0  0  0  0  0
   38.2910   26.8240   35.3870 C   0  0  0  0  0  0  0  0  0  0  0  0
   37.6070   27.6440   35.3950 H   0  0  0  0  0  0  0  0  0  0  0  0
   39.4340   26.9950   34.6900 N   0  0  0  0  0  0  0  0  0  0  0  0
   40.2970   25.9380   34.6890 C   0  0  0  0  0  3  0  0  0  0  0  0
   40.0300   24.7920   35.3420 N   0  0  0  0  0  0  0  0  0  0  0  0
  1  2  1  0  0  0  0
  1  3  1  0  0  0  0
  2  3  1  0  0  0  0
  3  6  1  0  0  0  0
  3  7  1  0  0  0  0
  4  2  1  0  0  0  0
  5  2  1  0  0  0  0
  8  9  2  0  0  0  0
  8 13  1  0  0  0  0
  9 10  1  0  0  0  0
 10 16  1  0  0  0  0
 10 11  2  0  0  0  0
 12 11  1  0  0  0  0
 12  1  1  0  0  0  0
 13 12  2  0  0  0  0
 14  8  1  0  0  0  0
 15  9  1  0  0  0  0
 17 18  1  0  0  0  0
 17  1  1  0  0  0  0
 19 20  1  0  0  0  0
 19 18  2  0  0  0  0
 21 19  1  0  0  0  0
 22 21  2  0  0  0  0
 22 23  1  0  0  0  0
 23 17  2  0  0  0  0
M  END
>  <minimizedAffinity>
-4.383358

$$$$

 OpenBabel03272505463D

 23 25  0  0  0  0  0  0  0  0999 V2000
   38.7470   25.9640   34.9970 C   0  0  0  0  0  0  0  0  0  0  0  0
   39.8220   26.9170   34.7090 C   0  0  0  0  0  0  0  0  0  0  0  0
   38.6130   27.3550   35.5010 C   0  0  0  0  0  0  0  0  0  0  0  0
   40.7890   26.7560   35.2440 H   0  0  0  0  0  0  0  0  0  0  0  0
   39.9480   27.2180   33.6510 H   0  0  0  0  0  0  0  0  0  0  0  0
   38.8380   27.5550   36.5690 H   0  0  0  0  0  0  0  0  0  0  0  0
   37.9370   28.0720   34.9660 H   0  0  0  0  0  0  0  0  0  0  0  0
   40.0670   23.0170   36.8210 C   0  0  0  0  0  0  0  0  0  0  0  0
   39.1300   22.8630   37.8520 C   0  0  0  0  0  0  0  0  0  0  0  0
   38.0510   23.7590   37.9240 C   0  0  0  0  0  0  0  0  0  0  0  0
   37.9760   24.7390   36.9750 N   0  0  0  0  0  0  0  0  0  0  0  0
   38.8940   24.8670   35.9880 C   0  0  0  0  0  0  0  0  0  0  0  0
   39.9260   24.0190   35.9100 N   0  0  0  0  0  0  0  0  0  0  0  0
   40.8630   22.3020   36.8250 H   0  0  0  0  0  0  0  0  0  0  0  0
   39.1670   22.1020   38.6100 H   0  0  0  0  0  0  0  0  0  0  0  0
   37.2710   23.7470   38.6630 H   0  0  0  0  0  0  0  0  0  0  0  0
   37.8950   25.5310   33.8290 C   0  0  0  0  0  0  0  0  0  0  0  0
   37.0980   26.4210   33.1360 C   0  0  0  0  0  3  0  0  0  0  0  0
   36.3600   25.9080   32.0820 C   0  0  0  0  0  0  0  0  0  0  0  0
   35.7310   26.5630   31.5200 H   0  0  0  0  0  0  0  0  0  0  0  0
   36.3780   24.6120   31.7030 N   0  0  0  0  0  0  0  0  0  0  0  0
   37.1870   23.7890   32.4320 C   0  0  0  0  0  3  0  0  0  0  0  0
   37.9240   24.2360   33.4650 N   0  0  0  0  0  0  0  0  0  0  0  0
  1  3  1  0  0  0  0
  1 12  1  0  0  0  0
  2  1  1  0  0  0  0
  2  4  1  0  0  0  0
  2  3  1  0  0  0  0
  3  6  1  0  0  0  0
  5  2  1  0  0  0  0
  7  3  1  0  0  0  0
  8 14  1  0  0  0  0
  8  9  1  0  0  0  0
  9 10  2  0  0  0  0
  9 15  1  0  0  0  0
 10 16  1  0  0  0  0
 11 10  1  0  0  0  0
 12 11  2  0  0  0  0
 13 12  1  0  0  0  0
 13  8  2  0  0  0  0
 17  1  1  0  0  0  0
 18 17  2  0  0  0  0
 19 18  1  0  0  0  0
 20 19  1  0  0  0  0
 21 19  2  0  0  0  0
 21 22  1  0  0  0  0
 22 23  2  0  0  0  0
 23 17  1  0  0  0  0
M  END
>  <minimizedAffinity>
-4.3725915

$$$$

 OpenBabel03272505463D

 23 25  0  0  0  0  0  0  0  0999 V2000
   38.4660   24.0250   36.8540 C   0  0  0  0  0  0  0  0  0  0  0  0
   37.3860   23.1380   37.2940 C   0  0  0  0  0  0  0  0  0  0  0  0
   37.9720   24.1510   38.2480 C   0  0  0  0  0  0  0  0  0  0  0  0
   36.3750   23.3270   36.8590 H   0  0  0  0  0  0  0  0  0  0  0  0
   37.6330   22.0620   37.3840 H   0  0  0  0  0  0  0  0  0  0  0  0
   37.2750   24.9790   38.4910 H   0  0  0  0  0  0  0  0  0  0  0  0
   38.5730   23.7110   39.0870 H   0  0  0  0  0  0  0  0  0  0  0  0
   38.2120   27.4610   35.4810 C   0  0  0  0  0  0  0  0  0  0  0  0
   37.8230   27.2220   34.1570 C   0  0  0  0  0  0  0  0  0  0  0  0
   37.6460   25.8950   33.7320 C   0  0  0  0  0  0  0  0  0  0  0  0
   37.8650   24.9030   34.6460 N   0  0  0  0  0  0  0  0  0  0  0  0
   38.2400   25.1590   35.9210 C   0  0  0  0  0  0  0  0  0  0  0  0
   38.4120   26.4210   36.3360 N   0  0  0  0  0  0  0  0  0  0  0  0
   38.3280   28.4940   35.7380 H   0  0  0  0  0  0  0  0  0  0  0  0
   37.6450   27.9840   33.4200 H   0  0  0  0  0  0  0  0  0  0  0  0
   37.3520   25.5830   32.7470 H   0  0  0  0  0  0  0  0  0  0  0  0
   39.8130   23.3860   36.6150 C   0  0  0  0  0  0  0  0  0  0  0  0
   40.6750   23.8440   35.6390 C   0  0  0  0  0  3  0  0  0  0  0  0
   41.8840   23.1780   35.5120 C   0  0  0  0  0  0  0  0  0  0  0  0
   42.5800   23.5010   34.7690 H   0  0  0  0  0  0  0  0  0  0  0  0
   42.2560   22.1290   36.2760 N   0  0  0  0  0  0  0  0  0  0  0  0
   41.3550   21.7300   37.2200 C   0  0  0  0  0  3  0  0  0  0  0  0
   40.1680   22.3420   37.3850 N   0  0  0  0  0  0  0  0  0  0  0  0
  1  2  1  0  0  0  0
  1  3  1  0  0  0  0
  2  5  1  0  0  0  0
  2  3  1  0  0  0  0
  3  6  1  0  0  0  0
  3  7  1  0  0  0  0
  4  2  1  0  0  0  0
  8 14  1  0  0  0  0
  8 13  1  0  0  0  0
  9  8  2  0  0  0  0
 10  9  1  0  0  0  0
 10 11  2  0  0  0  0
 11 12  1  0  0  0  0
 12 13  2  0  0  0  0
 12  1  1  0  0  0  0
 15  9  1  0  0  0  0
 16 10  1  0  0  0  0
 17  1  1  0  0  0  0
 17 23  1  0  0  0  0
 18 17  2  0  0  0  0
 19 18  1  0  0  0  0
 19 21  2  0  0  0  0
 20 19  1  0  0  0  0
 21 22  1  0  0  0  0
 22 23  2  0  0  0  0
M  END
>  <minimizedAffinity>
-4.32272291

$$$$

 OpenBabel03272505463D

 23 25  0  0  0  0  0  0  0  0999 V2000
   38.7080   23.3090   36.6900 C   0  0  0  0  0  0  0  0  0  0  0  0
   38.7400   23.1540   38.1470 C   0  0  0  0  0  0  0  0  0  0  0  0
   39.8970   22.6690   37.3070 C   0  0  0  0  0  0  0  0  0  0  0  0
   38.8620   24.0880   38.7470 H   0  0  0  0  0  0  0  0  0  0  0  0
   38.0180   22.4390   38.5860 H   0  0  0  0  0  0  0  0  0  0  0  0
   40.8180   23.2750   37.4370 H   0  0  0  0  0  0  0  0  0  0  0  0
   40.0090   21.5540   37.2610 H   0  0  0  0  0  0  0  0  0  0  0  0
   38.0930   26.7700   35.5070 C   0  0  0  0  0  0  0  0  0  0  0  0
   39.2590   27.0450   34.7800 C   0  0  0  0  0  0  0  0  0  0  0  0
   40.2510   26.0550   34.6920 C   0  0  0  0  0  0  0  0  0  0  0  0
   40.0180   24.8670   35.3260 N   0  0  0  0  0  0  0  0  0  0  0  0
   38.8830   24.6240   36.0220 C   0  0  0  0  0  0  0  0  0  0  0  0
   37.9320   25.5620   36.1130 N   0  0  0  0  0  0  0  0  0  0  0  0
   37.3800   27.5670   35.5340 H   0  0  0  0  0  0  0  0  0  0  0  0
   39.4650   27.9710   34.2740 H   0  0  0  0  0  0  0  0  0  0  0  0
   41.1840   26.1440   34.1670 H   0  0  0  0  0  0  0  0  0  0  0  0
   37.7260   22.4440   35.9390 C   0  0  0  0  0  0  0  0  0  0  0  0
   37.8430   22.2180   34.5810 C   0  0  0  0  0  3  0  0  0  0  0  0
   36.8820   21.4070   33.9990 C   0  0  0  0  0  0  0  0  0  0  0  0
   36.9350   21.2060   32.9520 H   0  0  0  0  0  0  0  0  0  0  0  0
   35.8600   20.8380   34.6730 N   0  0  0  0  0  0  0  0  0  0  0  0
   35.8060   21.1040   36.0110 C   0  0  0  0  0  3  0  0  0  0  0  0
   36.7130   21.8850   36.6260 N   0  0  0  0  0  0  0  0  0  0  0  0
  1  3  1  0  0  0  0
  1  2  1  0  0  0  0
  2  5  1  0  0  0  0
  2  4  1  0  0  0  0
  3  6  1  0  0  0  0
  3  2  1  0  0  0  0
  7  3  1  0  0  0  0
  8 14  1  0  0  0  0
  8 13  1  0  0  0  0
  9  8  2  0  0  0  0
 10  9  1  0  0  0  0
 10 11  2  0  0  0  0
 11 12  1  0  0  0  0
 12 13  2  0  0  0  0
 12  1  1  0  0  0  0
 15  9  1  0  0  0  0
 16 10  1  0  0  0  0
 17 23  1  0  0  0  0
 17  1  1  0  0  0  0
 18 17  2  0  0  0  0
 19 18  1  0  0  0  0
 19 21  2  0  0  0  0
 20 19  1  0  0  0  0
 21 22  1  0  0  0  0
 22 23  2  0  0  0  0
M  END
>  <minimizedAffinity>
-4.30783319

$$$$

 OpenBabel03272505463D

 23 25  0  0  0  0  0  0  0  0999 V2000
   38.8190   25.8350   34.9810 C   0  0  0  0  0  0  0  0  0  0  0  0
   39.7310   26.9470   34.7010 C   0  0  0  0  0  0  0  0  0  0  0  0
   38.5260   27.1590   35.5860 C   0  0  0  0  0  0  0  0  0  0  0  0
   40.7430   26.8940   35.1710 H   0  0  0  0  0  0  0  0  0  0  0  0
   39.7470   27.3270   33.6610 H   0  0  0  0  0  0  0  0  0  0  0  0
   38.7880   27.3240   36.6520 H   0  0  0  0  0  0  0  0  0  0  0  0
   37.7250   27.8040   35.1400 H   0  0  0  0  0  0  0  0  0  0  0  0
   40.6450   22.9970   36.5190 C   0  0  0  0  0  0  0  0  0  0  0  0
   39.8080   22.6530   37.5890 C   0  0  0  0  0  0  0  0  0  0  0  0
   38.6250   23.3840   37.7850 C   0  0  0  0  0  0  0  0  0  0  0  0
   38.3550   24.3990   36.9110 N   0  0  0  0  0  0  0  0  0  0  0  0
   39.1790   24.7120   35.8840 C   0  0  0  0  0  0  0  0  0  0  0  0
   40.3090   24.0220   35.6880 N   0  0  0  0  0  0  0  0  0  0  0  0
   41.5280   22.4000   36.4270 H   0  0  0  0  0  0  0  0  0  0  0  0
   39.9990   21.8600   38.2890 H   0  0  0  0  0  0  0  0  0  0  0  0
   37.9060   23.2180   38.5660 H   0  0  0  0  0  0  0  0  0  0  0  0
   37.9630   25.3570   33.8330 C   0  0  0  0  0  0  0  0  0  0  0  0
   37.9380   24.0320   33.4440 C   0  0  0  0  0  3  0  0  0  0  0  0
   37.1150   23.7100   32.3770 C   0  0  0  0  0  0  0  0  0  0  0  0
   37.0660   22.6960   32.0450 H   0  0  0  0  0  0  0  0  0  0  0  0
   36.3520   24.6030   31.7120 N   0  0  0  0  0  0  0  0  0  0  0  0
   36.4250   25.8940   32.1500 C   0  0  0  0  0  3  0  0  0  0  0  0
   37.2090   26.2600   33.1810 N   0  0  0  0  0  0  0  0  0  0  0  0
  1  3  1  0  0  0  0
  1 12  1  0  0  0  0
  2  1  1  0  0  0  0
  2  4  1  0  0  0  0
  2  3  1  0  0  0  0
  3  6  1  0  0  0  0
  5  2  1  0  0  0  0
  7  3  1  0  0  0  0
  8  9  1  0  0  0  0
  9 10  2  0  0  0  0
  9 15  1  0  0  0  0
 10 16  1  0  0  0  0
 11 10  1  0  0  0  0
 12 11  2  0  0  0  0
 13 12  1  0  0  0  0
 13  8  2  0  0  0  0
 14  8  1  0  0  0  0
 17  1  1  0  0  0  0
 18 17  1  0  0  0  0
 19 18  2  0  0  0  0
 20 19  1  0  0  0  0
 21 22  2  0  0  0  0
 21 19  1  0  0  0  0
 22 23  1  0  0  0  0
 23 17  2  0  0  0  0
M  END
>  <minimizedAffinity>
-4.29878521

$$$$

 OpenBabel03272505463D

 23 25  0  0  0  0  0  0  0  0999 V2000
   38.8020   26.1990   34.6310 C   0  0  0  0  0  0  0  0  0  0  0  0
   40.0750   26.8320   34.9830 C   0  0  0  0  0  0  0  0  0  0  0  0
   38.8080   27.2260   35.7030 C   0  0  0  0  0  0  0  0  0  0  0  0
   40.8220   26.1930   35.5130 H   0  0  0  0  0  0  0  0  0  0  0  0
   40.5260   27.4970   34.2210 H   0  0  0  0  0  0  0  0  0  0  0  0
   38.7820   26.8880   36.7600 H   0  0  0  0  0  0  0  0  0  0  0  0
   38.4420   28.2610   35.4770 H   0  0  0  0  0  0  0  0  0  0  0  0
   38.3690   22.5190   34.4580 C   0  0  0  0  0  0  0  0  0  0  0  0
   37.8730   22.2200   35.7330 C   0  0  0  0  0  0  0  0  0  0  0  0
   37.6840   23.2680   36.6490 C   0  0  0  0  0  0  0  0  0  0  0  0
   37.9990   24.5330   36.2380 N   0  0  0  0  0  0  0  0  0  0  0  0
   38.4760   24.7970   34.9990 C   0  0  0  0  0  0  0  0  0  0  0  0
   38.6600   23.8050   34.1190 N   0  0  0  0  0  0  0  0  0  0  0  0
   38.4880   21.6750   33.8110 H   0  0  0  0  0  0  0  0  0  0  0  0
   37.6190   21.2350   36.0800 H   0  0  0  0  0  0  0  0  0  0  0  0
   37.3130   23.1680   37.6520 H   0  0  0  0  0  0  0  0  0  0  0  0
   38.2160   26.5570   33.2870 C   0  0  0  0  0  0  0  0  0  0  0  0
   39.0130   26.8920   32.2090 C   0  0  0  0  0  3  0  0  0  0  0  0
   38.3630   27.2030   31.0260 C   0  0  0  0  0  0  0  0  0  0  0  0
   38.9420   27.4670   30.1680 H   0  0  0  0  0  0  0  0  0  0  0  0
   37.0220   27.1950   30.8720 N   0  0  0  0  0  0  0  0  0  0  0  0
   36.2970   26.8540   31.9770 C   0  0  0  0  0  3  0  0  0  0  0  0
   36.8780   26.5440   33.1500 N   0  0  0  0  0  0  0  0  0  0  0  0
  1  2  1  0  0  0  0
  1 12  1  0  0  0  0
  1  3  1  0  0  0  0
  2  4  1  0  0  0  0
  2  3  1  0  0  0  0
  3  6  1  0  0  0  0
  5  2  1  0  0  0  0
  7  3  1  0  0  0  0
  8  9  1  0  0  0  0
  9 15  1  0  0  0  0
  9 10  2  0  0  0  0
 10 16  1  0  0  0  0
 11 10  1  0  0  0  0
 12 11  2  0  0  0  0
 13  8  2  0  0  0  0
 13 12  1  0  0  0  0
 14  8  1  0  0  0  0
 17  1  1  0  0  0  0
 18 17  2  0  0  0  0
 19 18  1  0  0  0  0
 20 19  1  0  0  0  0
 21 19  2  0  0  0  0
 21 22  1  0  0  0  0
 22 23  2  0  0  0  0
 23 17  1  0  0  0  0
M  END
>  <minimizedAffinity>
-4.07390547

$$$$
