
 OpenBabel03272505433D

 22 23  0  0  0  0  0  0  0  0999 V2000
   34.4740   30.4450   49.7400 O   0  0  0  0  0  0  0  0  0  0  0  0
   35.1840   29.3980   48.9080 P   0  0  2  0  0  0  0  0  0  0  0  0
   34.6420   27.8940   49.4780 O   0  0  0  0  0  0  0  0  0  0  0  0
   34.9450   27.7700   50.4260 H   0  0  0  0  0  0  0  0  0  0  0  0
   36.8590   29.5720   49.1270 O   0  0  0  0  0  0  0  0  0  0  0  0
   38.4080   32.8730   49.3220 C   0  0  0  0  0  0  0  0  0  0  0  0
   39.0730   32.8880   48.0530 C   0  0  0  0  0  0  0  0  0  0  0  0
   38.9380   31.7640   47.2290 C   0  0  0  0  0  0  0  0  0  0  0  0
   38.1870   30.7250   47.6750 N   0  0  0  0  0  0  0  0  0  0  0  0
   37.5730   30.7400   48.8750 C   0  0  0  0  0  0  0  0  0  0  0  0
   37.6840   31.8080   49.6930 N   0  0  0  0  0  0  0  0  0  0  0  0
   38.4960   33.7280   49.9810 H   0  0  0  0  0  0  0  0  0  0  0  0
   39.6580   33.7600   47.7670 H   0  0  0  0  0  0  0  0  0  0  0  0
   39.4340   31.7530   46.2600 H   0  0  0  0  0  0  0  0  0  0  0  0
   34.6980   29.5830   47.3220 O   0  0  0  0  0  0  0  0  0  0  0  0
   33.4010   29.6320   46.8490 C   0  0  0  0  0  0  0  0  0  0  0  0
   32.7580   30.5520   46.0470 C   0  0  0  0  0  0  0  0  0  0  0  0
   31.4350   30.3580   45.7200 C   0  0  0  0  0  0  0  0  0  0  0  0
   31.0130   31.1350   45.0840 H   0  0  0  0  0  0  0  0  0  0  0  0
   30.7990   29.2890   46.1810 N   0  0  0  0  0  0  0  0  0  0  0  0
   31.3920   28.3800   46.9590 C   0  0  0  0  0  0  0  0  0  0  0  0
   32.6890   28.5540   47.2900 N   0  0  0  0  0  0  0  0  0  0  0  0
  2  5  1  0  0  0  0
  2  3  1  0  0  0  0
  2  1  2  1  0  0  0
  3  4  1  0  0  0  0
  6 11  1  0  0  0  0
  6 12  1  0  0  0  0
  7  6  2  0  0  0  0
  8  9  2  0  0  0  0
  8  7  1  0  0  0  0
  9 10  1  0  0  0  0
 10  5  1  0  0  0  0
 10 11  2  0  0  0  0
 13  7  1  0  0  0  0
 14  8  1  0  0  0  0
 15  2  1  0  0  0  0
 16 22  1  0  0  0  0
 16 15  1  0  0  0  0
 17 16  2  0  0  0  0
 18 17  1  0  0  0  0
 18 20  2  0  0  0  0
 19 18  1  0  0  0  0
 20 21  1  0  0  0  0
 21 22  2  0  0  0  0
M  END
>  <minimizedAffinity>
-4.39427233

>  <minimizedRMSD>
2.40301585

$$$$
