
 OpenBabel03272508093D

 22 23  0  0  0  0  0  0  0  0999 V2000
   37.0660   27.9810   35.0300 O   0  0  0  0  0  0  0  0  0  0  0  0
   37.9860   26.7980   34.9030 P   0  0  2  0  0  0  0  0  0  0  0  0
   39.5050   27.1900   35.5670 O   0  0  0  0  0  0  0  0  0  0  0  0
   39.4700   28.0850   35.9880 H   0  0  0  0  0  0  0  0  0  0  0  0
   38.1580   26.2050   33.3360 O   0  0  0  0  0  0  0  0  0  0  0  0
   35.3680   25.4490   31.0350 C   0  0  0  0  0  0  0  0  0  0  0  0
   36.2340   26.2580   31.7600 C   0  0  0  0  0  0  0  0  0  0  0  0
   37.2010   25.6440   32.5410 C   0  0  0  0  0  0  0  0  0  0  0  0
   37.2480   24.2820   32.5580 N   0  0  0  0  0  0  0  0  0  0  0  0
   36.3800   23.5320   31.8330 C   0  0  0  0  0  0  0  0  0  0  0  0
   35.4450   24.1190   31.0770 N   0  0  0  0  0  0  0  0  0  0  0  0
   34.6530   26.0170   30.4590 H   0  0  0  0  0  0  0  0  0  0  0  0
   36.2630   27.3280   31.8020 H   0  0  0  0  0  0  0  0  0  0  0  0
   36.4220   22.4420   31.8500 H   0  0  0  0  0  0  0  0  0  0  0  0
   37.3650   25.5630   35.8880 O   0  0  0  0  0  0  0  0  0  0  0  0
   38.1030   24.6730   36.6300 C   0  0  0  0  0  0  0  0  0  0  0  0
   37.9410   24.2910   37.9400 C   0  0  0  0  0  3  0  0  0  0  0  0
   38.7920   23.3710   38.5270 C   0  0  0  0  0  0  0  0  0  0  0  0
   38.6200   23.1010   39.5700 H   0  0  0  0  0  0  0  0  0  0  0  0
   39.8050   22.8330   37.8000 N   0  0  0  0  0  0  0  0  0  0  0  0
   39.9420   23.2200   36.5280 C   0  0  0  0  0  3  0  0  0  0  0  0
   39.1220   24.1210   35.9280 N   0  0  0  0  0  0  0  0  0  0  0  0
  2  1  2  1  0  0  0
  2  3  1  0  0  0  0
  2 15  1  0  0  0  0
  3  4  1  0  0  0  0
  5  2  1  0  0  0  0
  6 11  2  0  0  0  0
  6  7  1  0  0  0  0
  7 13  1  0  0  0  0
  7  8  2  0  0  0  0
  8  9  1  0  0  0  0
  8  5  1  0  0  0  0
 10 14  1  0  0  0  0
 10  9  2  0  0  0  0
 11 10  1  0  0  0  0
 12  6  1  0  0  0  0
 15 16  1  0  0  0  0
 16 17  1  0  0  0  0
 17 18  2  0  0  0  0
 18 19  1  0  0  0  0
 20 18  1  0  0  0  0
 21 20  2  0  0  0  0
 22 21  1  0  0  0  0
 22 16  2  0  0  0  0
M  END
>  <minimizedAffinity>
-4.61794233

$$$$

 OpenBabel03272508093D

 22 23  0  0  0  0  0  0  0  0999 V2000
   39.2890   27.2630   35.4310 O   0  0  0  0  0  0  0  0  0  0  0  0
   37.9830   26.6810   34.9650 P   0  0  2  0  0  0  0  0  0  0  0  0
   36.8180   27.9200   34.8670 O   0  0  0  0  0  0  0  0  0  0  0  0
   37.2390   28.7970   35.0480 H   0  0  0  0  0  0  0  0  0  0  0  0
   37.4110   25.3990   35.8950 O   0  0  0  0  0  0  0  0  0  0  0  0
   38.8520   23.3910   38.6410 C   0  0  0  0  0  0  0  0  0  0  0  0
   37.9830   24.3010   38.0520 C   0  0  0  0  0  0  0  0  0  0  0  0
   38.1260   24.5600   36.6980 C   0  0  0  0  0  0  0  0  0  0  0  0
   39.1120   23.9090   36.0190 N   0  0  0  0  0  0  0  0  0  0  0  0
   39.9390   23.0280   36.6350 C   0  0  0  0  0  0  0  0  0  0  0  0
   39.8050   22.7750   37.9420 N   0  0  0  0  0  0  0  0  0  0  0  0
   38.6620   23.2560   39.6950 H   0  0  0  0  0  0  0  0  0  0  0  0
   37.1870   24.8510   38.5130 H   0  0  0  0  0  0  0  0  0  0  0  0
   40.7270   22.5100   36.0870 H   0  0  0  0  0  0  0  0  0  0  0  0
   38.2070   26.1410   33.3710 O   0  0  0  0  0  0  0  0  0  0  0  0
   37.2290   25.6550   32.5380 C   0  0  0  0  0  0  0  0  0  0  0  0
   36.9640   24.3570   32.1750 C   0  0  0  0  0  3  0  0  0  0  0  0
   35.9240   24.0530   31.3140 C   0  0  0  0  0  0  0  0  0  0  0  0
   35.7540   23.0060   31.0580 H   0  0  0  0  0  0  0  0  0  0  0  0
   35.1490   25.0510   30.8160 N   0  0  0  0  0  0  0  0  0  0  0  0
   35.4270   26.3070   31.1840 C   0  0  0  0  0  3  0  0  0  0  0  0
   36.4410   26.6320   32.0260 N   0  0  0  0  0  0  0  0  0  0  0  0
  2  1  2  1  0  0  0
  2  5  1  0  0  0  0
  3  2  1  0  0  0  0
  3  4  1  0  0  0  0
  5  8  1  0  0  0  0
  6 12  1  0  0  0  0
  7 13  1  0  0  0  0
  7  6  1  0  0  0  0
  8  7  2  0  0  0  0
  9 10  2  0  0  0  0
  9  8  1  0  0  0  0
 10 11  1  0  0  0  0
 11  6  2  0  0  0  0
 14 10  1  0  0  0  0
 15  2  1  0  0  0  0
 16 15  1  0  0  0  0
 17 16  1  0  0  0  0
 18 17  2  0  0  0  0
 19 18  1  0  0  0  0
 20 21  2  0  0  0  0
 20 18  1  0  0  0  0
 21 22  1  0  0  0  0
 22 16  2  0  0  0  0
M  END
>  <minimizedAffinity>
-4.59548187

$$$$

 OpenBabel03272508093D

 22 23  0  0  0  0  0  0  0  0999 V2000
   39.8500   27.3660   33.6620 O   0  0  0  0  0  0  0  0  0  0  0  0
   38.9060   26.6640   34.6000 P   0  0  2  0  0  0  0  0  0  0  0  0
   38.8180   27.5320   36.0640 O   0  0  0  0  0  0  0  0  0  0  0  0
   39.3320   28.3750   35.9900 H   0  0  0  0  0  0  0  0  0  0  0  0
   39.2730   25.0470   34.8890 O   0  0  0  0  0  0  0  0  0  0  0  0
   39.6790   22.7890   37.7850 C   0  0  0  0  0  0  0  0  0  0  0  0
   39.9680   23.3130   36.5310 C   0  0  0  0  0  0  0  0  0  0  0  0
   39.1950   24.3660   36.0680 C   0  0  0  0  0  0  0  0  0  0  0  0
   38.1920   24.8290   36.8680 N   0  0  0  0  0  0  0  0  0  0  0  0
   37.9460   24.2870   38.0860 C   0  0  0  0  0  0  0  0  0  0  0  0
   38.6890   23.2700   38.5370 N   0  0  0  0  0  0  0  0  0  0  0  0
   40.3330   21.9750   38.0570 H   0  0  0  0  0  0  0  0  0  0  0  0
   40.7320   23.0070   35.8450 H   0  0  0  0  0  0  0  0  0  0  0  0
   37.1420   24.6610   38.7220 H   0  0  0  0  0  0  0  0  0  0  0  0
   37.3530   26.7590   33.9220 O   0  0  0  0  0  0  0  0  0  0  0  0
   36.7260   27.9030   33.4940 C   0  0  0  0  0  0  0  0  0  0  0  0
   36.5540   28.3720   32.2140 C   0  0  0  0  0  3  0  0  0  0  0  0
   35.8880   29.5600   31.9710 C   0  0  0  0  0  0  0  0  0  0  0  0
   35.7780   29.8890   30.9360 H   0  0  0  0  0  0  0  0  0  0  0  0
   35.3930   30.2790   33.0120 N   0  0  0  0  0  0  0  0  0  0  0  0
   35.5720   29.8020   34.2490 C   0  0  0  0  0  3  0  0  0  0  0  0
   36.2230   28.6400   34.5140 N   0  0  0  0  0  0  0  0  0  0  0  0
  2  1  2  6  0  0  0
  2  5  1  0  0  0  0
  2  3  1  0  0  0  0
  4  3  1  0  0  0  0
  5  8  1  0  0  0  0
  6 12  1  0  0  0  0
  6 11  1  0  0  0  0
  7  6  2  0  0  0  0
  8  7  1  0  0  0  0
  8  9  2  0  0  0  0
  9 10  1  0  0  0  0
 10 11  2  0  0  0  0
 10 14  1  0  0  0  0
 13  7  1  0  0  0  0
 15  2  1  0  0  0  0
 16 15  1  0  0  0  0
 16 22  1  0  0  0  0
 17 16  2  0  0  0  0
 18 17  1  0  0  0  0
 18 20  2  0  0  0  0
 19 18  1  0  0  0  0
 20 21  1  0  0  0  0
 21 22  2  0  0  0  0
M  END
>  <minimizedAffinity>
-4.4430151

$$$$

 OpenBabel03272508093D

 22 23  0  0  0  0  0  0  0  0999 V2000
   36.8410   27.7180   34.6740 O   0  0  0  0  0  0  0  0  0  0  0  0
   38.1440   26.9980   34.8940 P   0  0  2  0  0  0  0  0  0  0  0  0
   38.8550   27.5490   36.3410 O   0  0  0  0  0  0  0  0  0  0  0  0
   38.2390   28.1690   36.8060 H   0  0  0  0  0  0  0  0  0  0  0  0
   39.2350   27.1110   33.6160 O   0  0  0  0  0  0  0  0  0  0  0  0
   42.8910   27.3000   33.1200 C   0  0  0  0  0  0  0  0  0  0  0  0
   41.5570   27.5950   32.8690 C   0  0  0  0  0  0  0  0  0  0  0  0
   40.5930   26.9890   33.6590 C   0  0  0  0  0  0  0  0  0  0  0  0
   41.0060   26.1350   34.6370 N   0  0  0  0  0  0  0  0  0  0  0  0
   42.3210   25.8750   34.8470 C   0  0  0  0  0  0  0  0  0  0  0  0
   43.2550   26.4580   34.0870 N   0  0  0  0  0  0  0  0  0  0  0  0
   43.5650   27.8190   32.4550 H   0  0  0  0  0  0  0  0  0  0  0  0
   41.1520   28.2500   32.1240 H   0  0  0  0  0  0  0  0  0  0  0  0
   42.6460   25.1900   35.6310 H   0  0  0  0  0  0  0  0  0  0  0  0
   37.7820   25.3610   35.1600 O   0  0  0  0  0  0  0  0  0  0  0  0
   38.2540   24.5870   36.1910 C   0  0  0  0  0  0  0  0  0  0  0  0
   39.1770   23.5700   36.1610 C   0  0  0  0  0  3  0  0  0  0  0  0
   39.5340   22.8930   37.3140 C   0  0  0  0  0  0  0  0  0  0  0  0
   40.2720   22.0930   37.2360 H   0  0  0  0  0  0  0  0  0  0  0  0
   38.9650   23.2370   38.4980 N   0  0  0  0  0  0  0  0  0  0  0  0
   38.0690   24.2300   38.5030 C   0  0  0  0  0  3  0  0  0  0  0  0
   37.7010   24.9090   37.3860 N   0  0  0  0  0  0  0  0  0  0  0  0
  2  1  2  6  0  0  0
  2 15  1  0  0  0  0
  2  3  1  0  0  0  0
  3  4  1  0  0  0  0
  5  8  1  0  0  0  0
  5  2  1  0  0  0  0
  6 11  1  0  0  0  0
  7  6  2  0  0  0  0
  7  8  1  0  0  0  0
  8  9  2  0  0  0  0
  9 10  1  0  0  0  0
 10 14  1  0  0  0  0
 11 10  2  0  0  0  0
 12  6  1  0  0  0  0
 13  7  1  0  0  0  0
 15 16  1  0  0  0  0
 16 22  1  0  0  0  0
 17 16  2  0  0  0  0
 17 18  1  0  0  0  0
 18 20  2  0  0  0  0
 19 18  1  0  0  0  0
 20 21  1  0  0  0  0
 22 21  2  0  0  0  0
M  END
>  <minimizedAffinity>
-4.40189075

$$$$

 OpenBabel03272508093D

 22 23  0  0  0  0  0  0  0  0999 V2000
   36.8870   27.5930   34.5060 O   0  0  0  0  0  0  0  0  0  0  0  0
   38.0870   26.8830   35.0720 P   0  0  2  0  0  0  0  0  0  0  0  0
   38.6160   27.6980   36.4710 O   0  0  0  0  0  0  0  0  0  0  0  0
   37.9860   28.4280   36.6970 H   0  0  0  0  0  0  0  0  0  0  0  0
   39.3590   26.6760   33.9880 O   0  0  0  0  0  0  0  0  0  0  0  0
   39.5490   26.7000   30.2990 C   0  0  0  0  0  0  0  0  0  0  0  0
   39.7490   27.1850   31.5840 C   0  0  0  0  0  0  0  0  0  0  0  0
   39.2880   26.4260   32.6490 C   0  0  0  0  0  0  0  0  0  0  0  0
   38.6610   25.2470   32.3750 N   0  0  0  0  0  0  0  0  0  0  0  0
   38.4870   24.8120   31.1020 C   0  0  0  0  0  0  0  0  0  0  0  0
   38.9300   25.5410   30.0710 N   0  0  0  0  0  0  0  0  0  0  0  0
   39.9420   27.3590   29.5390 H   0  0  0  0  0  0  0  0  0  0  0  0
   40.2290   28.0950   31.8830 H   0  0  0  0  0  0  0  0  0  0  0  0
   37.9840   23.8680   30.8880 H   0  0  0  0  0  0  0  0  0  0  0  0
   37.5700   25.3560   35.6040 O   0  0  0  0  0  0  0  0  0  0  0  0
   38.2410   24.5350   36.4770 C   0  0  0  0  0  0  0  0  0  0  0  0
   37.9640   24.2580   37.7940 C   0  0  0  0  0  3  0  0  0  0  0  0
   38.7610   23.3940   38.5260 C   0  0  0  0  0  0  0  0  0  0  0  0
   38.4980   23.2070   39.5680 H   0  0  0  0  0  0  0  0  0  0  0  0
   39.8360   22.8100   37.9370 N   0  0  0  0  0  0  0  0  0  0  0  0
   40.0850   23.0950   36.6540 C   0  0  0  0  0  3  0  0  0  0  0  0
   39.3190   23.9390   35.9140 N   0  0  0  0  0  0  0  0  0  0  0  0
  2  1  2  6  0  0  0
  2 15  1  0  0  0  0
  2  3  1  0  0  0  0
  3  4  1  0  0  0  0
  5  2  1  0  0  0  0
  6  7  1  0  0  0  0
  7 13  1  0  0  0  0
  7  8  2  0  0  0  0
  8  5  1  0  0  0  0
  9  8  1  0  0  0  0
 10  9  2  0  0  0  0
 11  6  2  0  0  0  0
 11 10  1  0  0  0  0
 12  6  1  0  0  0  0
 14 10  1  0  0  0  0
 15 16  1  0  0  0  0
 16 17  1  0  0  0  0
 17 18  2  0  0  0  0
 18 19  1  0  0  0  0
 20 18  1  0  0  0  0
 21 20  2  0  0  0  0
 22 16  2  0  0  0  0
 22 21  1  0  0  0  0
M  END
>  <minimizedAffinity>
-4.36406374

$$$$

 OpenBabel03272508093D

 22 23  0  0  0  0  0  0  0  0999 V2000
   38.7950   27.5230   35.9940 O   0  0  0  0  0  0  0  0  0  0  0  0
   38.0000   26.7340   34.9900 P   0  0  2  0  0  0  0  0  0  0  0  0
   39.0410   26.1650   33.7670 O   0  0  0  0  0  0  0  0  0  0  0  0
   39.9800   26.3840   33.9930 H   0  0  0  0  0  0  0  0  0  0  0  0
   36.6930   27.5590   34.3210 O   0  0  0  0  0  0  0  0  0  0  0  0
   36.0600   29.4650   31.2200 C   0  0  0  0  0  0  0  0  0  0  0  0
   36.1090   29.2480   32.5910 C   0  0  0  0  0  0  0  0  0  0  0  0
   36.5540   28.0160   33.0430 C   0  0  0  0  0  0  0  0  0  0  0  0
   36.9180   27.0840   32.1170 N   0  0  0  0  0  0  0  0  0  0  0  0
   36.8550   27.3400   30.7870 C   0  0  0  0  0  0  0  0  0  0  0  0
   36.4260   28.5280   30.3460 N   0  0  0  0  0  0  0  0  0  0  0  0
   35.7020   30.4520   30.9670 H   0  0  0  0  0  0  0  0  0  0  0  0
   35.8410   29.9230   33.3790 H   0  0  0  0  0  0  0  0  0  0  0  0
   37.1480   26.5900   30.0500 H   0  0  0  0  0  0  0  0  0  0  0  0
   37.4220   25.3440   35.7760 O   0  0  0  0  0  0  0  0  0  0  0  0
   38.1530   24.5150   36.5920 C   0  0  0  0  0  0  0  0  0  0  0  0
   37.9740   24.2310   37.9240 C   0  0  0  0  0  3  0  0  0  0  0  0
   38.8190   23.3600   38.5890 C   0  0  0  0  0  0  0  0  0  0  0  0
   38.6340   23.1680   39.6470 H   0  0  0  0  0  0  0  0  0  0  0  0
   39.8440   22.7740   37.9190 N   0  0  0  0  0  0  0  0  0  0  0  0
   39.9980   23.0670   36.6230 C   0  0  0  0  0  3  0  0  0  0  0  0
   39.1830   23.9180   35.9470 N   0  0  0  0  0  0  0  0  0  0  0  0
  2 15  1  0  0  0  0
  2  1  2  1  0  0  0
  3  4  1  0  0  0  0
  3  2  1  0  0  0  0
  5  2  1  0  0  0  0
  6  7  1  0  0  0  0
  7  8  2  0  0  0  0
  7 13  1  0  0  0  0
  8  5  1  0  0  0  0
  9  8  1  0  0  0  0
 10  9  2  0  0  0  0
 11 10  1  0  0  0  0
 11  6  2  0  0  0  0
 12  6  1  0  0  0  0
 14 10  1  0  0  0  0
 15 16  1  0  0  0  0
 16 17  1  0  0  0  0
 17 18  2  0  0  0  0
 18 19  1  0  0  0  0
 20 18  1  0  0  0  0
 21 20  2  0  0  0  0
 22 16  2  0  0  0  0
 22 21  1  0  0  0  0
M  END
>  <minimizedAffinity>
-4.36388111

$$$$

 OpenBabel03272508093D

 22 23  0  0  0  0  0  0  0  0999 V2000
   34.9970   25.0480   30.6900 O   0  0  0  0  0  0  0  0  0  0  0  0
   36.3180   25.0390   31.4110 P   0  0  2  0  0  0  0  0  0  0  0  0
   37.5660   25.3840   30.3040 O   0  0  0  0  0  0  0  0  0  0  0  0
   37.1830   25.6110   29.4200 H   0  0  0  0  0  0  0  0  0  0  0  0
   36.6490   23.6220   32.2570 O   0  0  0  0  0  0  0  0  0  0  0  0
   35.0030   20.3340   31.8980 C   0  0  0  0  0  0  0  0  0  0  0  0
   35.1630   21.6300   32.3700 C   0  0  0  0  0  0  0  0  0  0  0  0
   36.2690   22.3500   31.9450 C   0  0  0  0  0  0  0  0  0  0  0  0
   37.1410   21.7440   31.0900 N   0  0  0  0  0  0  0  0  0  0  0  0
   36.9450   20.4740   30.6540 C   0  0  0  0  0  0  0  0  0  0  0  0
   35.8790   19.7760   31.0620 N   0  0  0  0  0  0  0  0  0  0  0  0
   34.1150   19.8570   32.2840 H   0  0  0  0  0  0  0  0  0  0  0  0
   34.5280   22.1750   33.0400 H   0  0  0  0  0  0  0  0  0  0  0  0
   37.6460   19.9940   29.9700 H   0  0  0  0  0  0  0  0  0  0  0  0
   36.3090   26.3380   32.5040 O   0  0  0  0  0  0  0  0  0  0  0  0
   37.2730   26.6100   33.4430 C   0  0  0  0  0  0  0  0  0  0  0  0
   37.1250   26.9420   34.7680 C   0  0  0  0  0  3  0  0  0  0  0  0
   38.2250   27.1850   35.5720 C   0  0  0  0  0  0  0  0  0  0  0  0
   38.0540   27.4440   36.6180 H   0  0  0  0  0  0  0  0  0  0  0  0
   39.4750   27.0940   35.0470 N   0  0  0  0  0  0  0  0  0  0  0  0
   39.5930   26.7690   33.7550 C   0  0  0  0  0  3  0  0  0  0  0  0
   38.5300   26.5270   32.9450 N   0  0  0  0  0  0  0  0  0  0  0  0
  2  1  2  6  0  0  0
  2  5  1  0  0  0  0
  2 15  1  0  0  0  0
  3  2  1  0  0  0  0
  4  3  1  0  0  0  0
  6 12  1  0  0  0  0
  6  7  1  0  0  0  0
  7 13  1  0  0  0  0
  8  5  1  0  0  0  0
  8  7  2  0  0  0  0
  9  8  1  0  0  0  0
 10 11  1  0  0  0  0
 10  9  2  0  0  0  0
 11  6  2  0  0  0  0
 14 10  1  0  0  0  0
 15 16  1  0  0  0  0
 16 17  1  0  0  0  0
 17 18  2  0  0  0  0
 18 19  1  0  0  0  0
 20 18  1  0  0  0  0
 21 20  2  0  0  0  0
 22 16  2  0  0  0  0
 22 21  1  0  0  0  0
M  END
>  <minimizedAffinity>
-4.27005005

$$$$

 OpenBabel03272508093D

 22 23  0  0  0  0  0  0  0  0999 V2000
   38.5920   22.4970   35.4410 O   0  0  0  0  0  0  0  0  0  0  0  0
   38.4890   23.2380   36.7470 P   0  0  2  0  0  0  0  0  0  0  0  0
   37.2050   22.5910   37.6610 O   0  0  0  0  0  0  0  0  0  0  0  0
   36.8280   21.7990   37.2040 H   0  0  0  0  0  0  0  0  0  0  0  0
   38.3300   24.9080   36.5980 O   0  0  0  0  0  0  0  0  0  0  0  0
   39.7770   27.0130   33.9290 C   0  0  0  0  0  0  0  0  0  0  0  0
   39.7810   26.2600   35.0970 C   0  0  0  0  0  0  0  0  0  0  0  0
   38.5890   25.6810   35.5050 C   0  0  0  0  0  0  0  0  0  0  0  0
   37.4800   25.8830   34.7390 N   0  0  0  0  0  0  0  0  0  0  0  0
   37.5230   26.6260   33.6050 C   0  0  0  0  0  0  0  0  0  0  0  0
   38.6700   27.1870   33.2070 N   0  0  0  0  0  0  0  0  0  0  0  0
   40.7490   27.4210   33.6950 H   0  0  0  0  0  0  0  0  0  0  0  0
   40.6040   26.0550   35.7510 H   0  0  0  0  0  0  0  0  0  0  0  0
   36.6320   26.7850   32.9960 H   0  0  0  0  0  0  0  0  0  0  0  0
   39.8950   22.9000   37.6360 O   0  0  0  0  0  0  0  0  0  0  0  0
   41.1130   22.5390   37.1160 C   0  0  0  0  0  0  0  0  0  0  0  0
   41.9530   23.2530   36.2960 C   0  0  0  0  0  3  0  0  0  0  0  0
   43.1560   22.7200   35.8660 C   0  0  0  0  0  0  0  0  0  0  0  0
   43.7870   23.3280   35.2160 H   0  0  0  0  0  0  0  0  0  0  0  0
   43.5170   21.4710   36.2590 N   0  0  0  0  0  0  0  0  0  0  0  0
   42.6830   20.7960   37.0570 C   0  0  0  0  0  3  0  0  0  0  0  0
   41.4970   21.2950   37.4920 N   0  0  0  0  0  0  0  0  0  0  0  0
  2  1  2  6  0  0  0
  2 15  1  0  0  0  0
  2  3  1  0  0  0  0
  4  3  1  0  0  0  0
  5  2  1  0  0  0  0
  6  7  1  0  0  0  0
  7  8  2  0  0  0  0
  7 13  1  0  0  0  0
  8  5  1  0  0  0  0
  9  8  1  0  0  0  0
 10  9  2  0  0  0  0
 11 10  1  0  0  0  0
 11  6  2  0  0  0  0
 12  6  1  0  0  0  0
 14 10  1  0  0  0  0
 16 22  1  0  0  0  0
 16 15  1  0  0  0  0
 17 16  2  0  0  0  0
 18 20  2  0  0  0  0
 18 17  1  0  0  0  0
 19 18  1  0  0  0  0
 20 21  1  0  0  0  0
 21 22  2  0  0  0  0
M  END
>  <minimizedAffinity>
-4.1067934

$$$$

 OpenBabel03272508093D

 22 23  0  0  0  0  0  0  0  0999 V2000
   37.8690   24.4720   36.1570 O   0  0  0  0  0  0  0  0  0  0  0  0
   38.2290   23.0530   36.5050 P   0  0  2  0  0  0  0  0  0  0  0  0
   36.9010   22.3060   37.2680 O   0  0  0  0  0  0  0  0  0  0  0  0
   36.1200   22.9130   37.2590 H   0  0  0  0  0  0  0  0  0  0  0  0
   39.6210   22.8880   37.4370 O   0  0  0  0  0  0  0  0  0  0  0  0
   42.9900   22.7520   35.9280 C   0  0  0  0  0  0  0  0  0  0  0  0
   41.7460   23.3000   36.2120 C   0  0  0  0  0  0  0  0  0  0  0  0
   40.8800   22.5760   37.0170 C   0  0  0  0  0  0  0  0  0  0  0  0
   41.2970   21.3650   37.4850 N   0  0  0  0  0  0  0  0  0  0  0  0
   42.5220   20.8690   37.1820 C   0  0  0  0  0  0  0  0  0  0  0  0
   43.3610   21.5630   36.4050 N   0  0  0  0  0  0  0  0  0  0  0  0
   43.5900   23.3880   35.2960 H   0  0  0  0  0  0  0  0  0  0  0  0
   41.3440   24.2380   35.8850 H   0  0  0  0  0  0  0  0  0  0  0  0
   42.8510   19.8990   37.5590 H   0  0  0  0  0  0  0  0  0  0  0  0
   38.4460   22.2110   35.0460 O   0  0  0  0  0  0  0  0  0  0  0  0
   37.4870   21.9940   34.0880 C   0  0  0  0  0  0  0  0  0  0  0  0
   37.3690   22.5470   32.8370 C   0  0  0  0  0  3  0  0  0  0  0  0
   36.3220   22.2040   31.9980 C   0  0  0  0  0  0  0  0  0  0  0  0
   36.2740   22.6720   31.0140 H   0  0  0  0  0  0  0  0  0  0  0  0
   35.3940   21.3040   32.4150 N   0  0  0  0  0  0  0  0  0  0  0  0
   35.5310   20.7780   33.6370 C   0  0  0  0  0  3  0  0  0  0  0  0
   36.5470   21.0990   34.4790 N   0  0  0  0  0  0  0  0  0  0  0  0
  2  1  2  6  0  0  0
  2  3  1  0  0  0  0
  2  5  1  0  0  0  0
  4  3  1  0  0  0  0
  6  7  2  0  0  0  0
  6 11  1  0  0  0  0
  7  8  1  0  0  0  0
  8  5  1  0  0  0  0
  8  9  2  0  0  0  0
 10  9  1  0  0  0  0
 10 14  1  0  0  0  0
 11 10  2  0  0  0  0
 12  6  1  0  0  0  0
 13  7  1  0  0  0  0
 15  2  1  0  0  0  0
 16 22  1  0  0  0  0
 16 15  1  0  0  0  0
 17 16  2  0  0  0  0
 18 20  2  0  0  0  0
 18 17  1  0  0  0  0
 19 18  1  0  0  0  0
 20 21  1  0  0  0  0
 21 22  2  0  0  0  0
M  END
>  <minimizedAffinity>
-4.06979132

$$$$
