
 OpenBabel03262523163D

 37 40  0  0  0  0  0  0  0  0999 V2000
   34.7300   29.0190   48.2410 C   0  0  0  0  0  0  0  0  0  0  0  0
   34.3470   27.7790   48.7140 C   0  0  0  0  0  0  0  0  0  0  0  0
   33.1910   27.3000   48.1600 C   0  0  0  0  0  0  0  0  0  0  0  0
   32.4690   27.9890   47.2170 C   0  0  0  0  0  0  0  0  0  0  0  0
   32.9160   29.2120   46.8040 C   0  0  0  0  0  0  0  0  0  0  0  0
   34.0550   29.7190   47.3260 N   0  0  0  0  0  0  0  0  0  0  0  0
   34.9280   27.2360   49.4660 H   0  0  0  0  0  0  0  0  0  0  0  0
   32.8450   26.3150   48.5040 H   0  0  0  0  0  0  0  0  0  0  0  0
   31.5840   27.5130   46.8510 H   0  0  0  0  0  0  0  0  0  0  0  0
   29.8990   29.0920   46.9380 Cl  0  0  0  0  0  0  0  0  0  0  0  0
   30.8170   30.0150   45.7880 C   0  0  0  0  0  0  0  0  0  0  0  0
   32.1970   29.9940   45.8160 C   0  0  0  0  0  0  0  0  0  0  0  0
   32.7960   30.7770   44.8400 C   0  0  0  0  0  0  0  0  0  0  0  0
   32.1120   31.5210   43.9100 C   0  0  0  0  0  0  0  0  0  0  0  0
   30.7330   31.5060   43.9260 C   0  0  0  0  0  0  0  0  0  0  0  0
   29.8570   32.4510   42.7510 Cl  0  0  0  0  0  0  0  0  0  0  0  0
   30.0980   30.7520   44.8680 C   0  0  0  0  0  0  0  0  0  0  0  0
   33.8780   30.8040   44.8070 H   0  0  0  0  0  0  0  0  0  0  0  0
   32.6630   32.1040   43.1820 H   0  0  0  0  0  0  0  0  0  0  0  0
   29.0140   30.7650   44.8480 H   0  0  0  0  0  0  0  0  0  0  0  0
   37.3820   30.1110   50.5470 C   0  0  0  0  0  0  0  0  0  0  0  0
   38.2660   30.7840   49.7050 C   0  0  0  0  0  0  0  0  0  0  0  0
   37.9440   30.8580   48.3550 C   0  0  0  0  0  0  0  0  0  0  0  0
   36.8050   30.2800   47.9390 N   0  0  0  0  0  0  0  0  0  0  0  0
   35.9650   29.6370   48.7570 C   0  0  0  0  0  0  0  0  0  0  0  0
   36.2650   29.5590   50.0660 N   0  0  0  0  0  0  0  0  0  0  0  0
   39.1520   31.2230   50.0850 H   0  0  0  0  0  0  0  0  0  0  0  0
   38.7870   31.5320   47.3790 C   0  0  0  0  0  0  0  0  0  0  0  0
   39.2450   30.9180   46.2340 C   0  0  0  0  0  0  0  0  0  0  0  0
   40.0430   31.5620   45.3150 C   0  0  0  0  0  0  0  0  0  0  0  0
   40.4320   31.1470   44.4100 H   0  0  0  0  0  0  0  0  0  0  0  0
   40.4000   32.8460   45.5280 N   0  0  0  0  0  0  0  0  0  0  0  0
   39.9440   33.4480   46.6610 C   0  0  0  0  0  0  0  0  0  0  0  0
   39.1680   32.8120   47.5500 N   0  0  0  0  0  0  0  0  0  0  0  0
   37.6200   29.9800   51.9560 N   0  0  0  0  0  0  0  0  0  0  0  0
   38.1340   30.7530   52.4390 H   0  0  0  0  0  0  0  0  0  0  0  0
   37.2820   29.1310   52.4600 H   0  0  0  0  0  0  0  0  0  0  0  0
  1  2  1  0  0  0  0
  1 25  1  0  0  0  0
  2  7  1  0  0  0  0
  3  8  1  0  0  0  0
  3  2  2  0  0  0  0
  4  3  1  0  0  0  0
  5  4  2  0  0  0  0
  5  6  1  0  0  0  0
  6  1  2  0  0  0  0
  9  4  1  0  0  0  0
 11 12  1  0  0  0  0
 11 10  1  0  0  0  0
 12  5  1  0  0  0  0
 13 12  2  0  0  0  0
 14 15  2  0  0  0  0
 14 13  1  0  0  0  0
 15 17  1  0  0  0  0
 16 15  1  0  0  0  0
 17 11  2  0  0  0  0
 18 13  1  0  0  0  0
 19 14  1  0  0  0  0
 20 17  1  0  0  0  0
 21 35  1  0  0  0  0
 22 27  1  0  0  0  0
 22 21  2  0  0  0  0
 23 22  1  0  0  0  0
 24 23  2  0  0  0  0
 24 25  1  0  0  0  0
 25 26  2  0  0  0  0
 26 21  1  0  0  0  0
 28 34  1  0  0  0  0
 28 23  1  0  0  0  0
 29 28  2  0  0  0  0
 30 32  2  0  0  0  0
 30 29  1  0  0  0  0
 31 30  1  0  0  0  0
 32 33  1  0  0  0  0
 33 34  2  0  0  0  0
 35 36  1  0  0  0  0
 35 37  1  0  0  0  0
M  END
>  <minimizedAffinity>
-6.94275379

>  <minimizedRMSD>
1.05694425

$$$$
