
 OpenBabel03262521513D

 17 18  0  0  0  0  0  0  0  0999 V2000
   37.5250   31.4810   49.7650 C   0  0  0  0  0  0  0  0  0  0  0  0
   36.2090   31.2060   49.3240 C   0  0  0  0  0  0  0  0  0  0  0  0
   35.5180   30.1580   49.9250 C   0  0  0  0  0  0  0  0  0  0  0  0
   36.1480   29.4530   50.9080 N   0  0  0  0  0  0  0  0  0  0  0  0
   37.3980   29.7460   51.2980 C   0  0  0  0  0  0  0  0  0  0  0  0
   38.0650   30.7460   50.7280 N   0  0  0  0  0  0  0  0  0  0  0  0
   35.6540   31.7280   48.5500 H   0  0  0  0  0  0  0  0  0  0  0  0
   34.5080   29.8820   49.6470 H   0  0  0  0  0  0  0  0  0  0  0  0
   37.9240   29.2100   52.0690 H   0  0  0  0  0  0  0  0  0  0  0  0
   38.2470   32.8500   48.8850 S   0  0  0  0  0  0  0  0  0  0  0  0
   39.0290   32.3450   47.3580 C   0  0  0  0  0  0  0  0  0  0  0  0
   38.7820   31.0710   46.8970 C   0  0  0  0  0  0  0  0  0  0  0  0
   39.3560   30.6210   45.7240 C   0  0  0  0  0  0  0  0  0  0  0  0
   39.1530   29.6160   45.3740 H   0  0  0  0  0  0  0  0  0  0  0  0
   40.1630   31.4240   45.0190 N   0  0  0  0  0  0  0  0  0  0  0  0
   40.4070   32.6890   45.4760 C   0  0  0  0  0  0  0  0  0  0  0  0
   39.8530   33.1500   46.6270 N   0  0  0  0  0  0  0  0  0  0  0  0
  1  6  1  0  0  0  0
  2  1  2  0  0  0  0
  2  3  1  0  0  0  0
  3  4  2  0  0  0  0
  4  5  1  0  0  0  0
  5  9  1  0  0  0  0
  6  5  2  0  0  0  0
  7  2  1  0  0  0  0
  8  3  1  0  0  0  0
 10  1  1  0  0  0  0
 11 10  1  0  0  0  0
 12 11  1  0  0  0  0
 13 12  2  0  0  0  0
 14 13  1  0  0  0  0
 15 16  2  0  0  0  0
 15 13  1  0  0  0  0
 16 17  1  0  0  0  0
 17 11  2  0  0  0  0
M  END
>  <minimizedAffinity>
-4.64103317

>  <minimizedRMSD>
6.01688099

$$$$
