
 OpenBabel03272505433D

 22 23  0  0  0  0  0  0  0  0999 V2000
   32.3090   27.8130   48.8660 O   0  0  0  0  0  0  0  0  0  0  0  0
   33.6950   28.3170   48.5250 P   0  0  2  0  0  0  0  0  0  0  0  0
   34.3000   27.2690   47.3330 O   0  0  0  0  0  0  0  0  0  0  0  0
   34.4090   26.3520   47.7240 H   0  0  0  0  0  0  0  0  0  0  0  0
   34.6530   28.2720   49.9270 O   0  0  0  0  0  0  0  0  0  0  0  0
   37.3480   30.2540   51.3900 C   0  0  0  0  0  0  0  0  0  0  0  0
   38.0530   30.6000   50.1920 C   0  0  0  0  0  0  0  0  0  0  0  0
   37.5480   30.1250   48.9750 C   0  0  0  0  0  0  0  0  0  0  0  0
   36.4230   29.3670   48.9960 N   0  0  0  0  0  0  0  0  0  0  0  0
   35.7810   29.0580   50.1400 C   0  0  0  0  0  0  0  0  0  0  0  0
   36.2420   29.5000   51.3300 N   0  0  0  0  0  0  0  0  0  0  0  0
   37.7150   30.6060   52.3460 H   0  0  0  0  0  0  0  0  0  0  0  0
   38.9490   31.2130   50.2570 H   0  0  0  0  0  0  0  0  0  0  0  0
   38.0670   30.3760   48.0510 H   0  0  0  0  0  0  0  0  0  0  0  0
   33.5420   29.8470   47.8740 O   0  0  0  0  0  0  0  0  0  0  0  0
   33.4940   30.1800   46.5340 C   0  0  0  0  0  0  0  0  0  0  0  0
   32.4880   30.7260   45.7660 C   0  0  0  0  0  3  0  0  0  0  0  0
   32.7080   30.9620   44.4270 C   0  0  0  0  0  0  0  0  0  0  0  0
   31.8550   31.3950   43.9050 H   0  0  0  0  0  0  0  0  0  0  0  0
   33.8840   30.6590   43.8970 N   0  0  0  0  0  0  0  0  0  0  0  0
   34.8790   30.1280   44.6110 C   0  0  0  0  0  3  0  0  0  0  0  0
   34.6820   29.8910   45.9240 N   0  0  0  0  0  0  0  0  0  0  0  0
  2  1  2  1  0  0  0
  2  5  1  0  0  0  0
  3  4  1  0  0  0  0
  3  2  1  0  0  0  0
  5 10  1  0  0  0  0
  6 12  1  0  0  0  0
  7 13  1  0  0  0  0
  7  6  2  0  0  0  0
  8  9  2  0  0  0  0
  8  7  1  0  0  0  0
  9 10  1  0  0  0  0
 10 11  2  0  0  0  0
 11  6  1  0  0  0  0
 14  8  1  0  0  0  0
 15  2  1  0  0  0  0
 16 15  1  0  0  0  0
 17 16  2  0  0  0  0
 18 17  1  0  0  0  0
 19 18  1  0  0  0  0
 20 18  2  0  0  0  0
 20 21  1  0  0  0  0
 21 22  2  0  0  0  0
 22 16  1  0  0  0  0
M  END
>  <minimizedAffinity>
-4.16656876

>  <minimizedRMSD>
1.06771398

$$$$
