
 OpenBabel03262522203D

 17 18  0  0  0  0  0  0  0  0999 V2000
   36.7090   29.3840   49.7620 C   0  0  0  0  0  0  0  0  0  0  0  0
   36.9200   30.1870   48.6240 C   0  0  0  0  0  0  0  0  0  0  0  0
   35.8030   30.5890   47.9110 C   0  0  0  0  0  0  0  0  0  0  0  0
   34.5680   30.2030   48.3270 N   0  0  0  0  0  0  0  0  0  0  0  0
   34.4100   29.4290   49.4280 C   0  0  0  0  0  0  0  0  0  0  0  0
   35.4640   29.0120   50.1540 N   0  0  0  0  0  0  0  0  0  0  0  0
   37.5240   29.0220   50.3800 H   0  0  0  0  0  0  0  0  0  0  0  0
   36.0180   31.1890   47.0680 H   0  0  0  0  0  0  0  0  0  0  0  0
   33.3760   29.1860   49.6600 H   0  0  0  0  0  0  0  0  0  0  0  0
   38.2410   30.4660   48.3730 O   0  0  0  0  0  0  0  0  0  0  0  0
   38.7080   31.1200   47.2300 C   0  0  0  0  0  0  0  0  0  0  0  0
   39.1190   32.4420   47.1600 C   0  0  0  0  0  3  0  0  0  0  0  0
   39.5600   32.9490   45.9520 C   0  0  0  0  0  0  0  0  0  0  0  0
   39.8780   33.9800   45.9110 H   0  0  0  0  0  0  0  0  0  0  0  0
   39.5910   32.1720   44.8540 N   0  0  0  0  0  0  0  0  0  0  0  0
   39.1790   30.8990   44.9880 C   0  0  0  0  0  3  0  0  0  0  0  0
   38.7380   30.3420   46.1330 N   0  0  0  0  0  0  0  0  0  0  0  0
  1  6  1  0  0  0  0
  1  7  1  0  0  0  0
  2  1  2  0  0  0  0
  3  4  2  0  0  0  0
  3  2  1  0  0  0  0
  4  5  1  0  0  0  0
  5  9  1  0  0  0  0
  5  6  2  0  0  0  0
  8  3  1  0  0  0  0
 10  2  1  0  0  0  0
 11 10  1  0  0  0  0
 12 11  1  0  0  0  0
 13 12  2  0  0  0  0
 14 13  1  0  0  0  0
 15 16  2  0  0  0  0
 15 13  1  0  0  0  0
 16 17  1  0  0  0  0
 17 11  2  0  0  0  0
M  END
>  <minimizedAffinity>
-3.78688169

>  <minimizedRMSD>
3.59783316

$$$$
