
 OpenBabel03272510063D

 28 30  0  0  0  0  0  0  0  0999 V2000
   36.5290   31.1920   49.0290 C   0  0  0  0  0  0  0  0  0  0  0  0
   37.2180   31.5080   47.8550 C   0  0  0  0  0  0  0  0  0  0  0  0
   36.8350   30.8690   46.6770 C   0  0  0  0  0  0  0  0  0  0  0  0
   35.8170   29.9760   46.7400 N   0  0  0  0  0  0  0  0  0  0  0  0
   35.1670   29.6850   47.8770 C   0  0  0  0  0  0  0  0  0  0  0  0
   35.5090   30.2840   49.0400 N   0  0  0  0  0  0  0  0  0  0  0  0
   34.0990   28.7250   47.8470 N   0  0  0  0  0  0  0  0  0  0  0  0
   32.9010   28.9230   47.0280 C   0  0  0  0  0  0  0  0  0  0  0  0
   32.1880   27.6180   47.1090 C   0  0  0  0  0  0  0  0  0  0  0  0
   33.1350   26.6460   47.7760 C   0  0  0  0  0  0  0  0  0  0  0  0
   34.0610   27.4860   48.5860 C   0  0  0  0  0  0  0  0  0  0  0  0
   36.7320   31.6160   49.9920 H   0  0  0  0  0  0  0  0  0  0  0  0
   37.3570   31.1050   45.7750 H   0  0  0  0  0  0  0  0  0  0  0  0
   32.2870   29.6980   47.5240 H   0  0  0  0  0  0  0  0  0  0  0  0
   33.2060   29.1850   45.9930 H   0  0  0  0  0  0  0  0  0  0  0  0
   32.0360   27.2300   46.0670 H   0  0  0  0  0  0  0  0  0  0  0  0
   31.2230   27.7110   47.6500 H   0  0  0  0  0  0  0  0  0  0  0  0
   33.6220   25.9440   47.0760 H   0  0  0  0  0  0  0  0  0  0  0  0
   32.5030   26.0170   48.4610 H   0  0  0  0  0  0  0  0  0  0  0  0
   35.0920   27.0560   48.5120 H   0  0  0  0  0  0  0  0  0  0  0  0
   33.8260   27.5910   49.6450 H   0  0  0  0  0  0  0  0  0  0  0  0
   38.2920   32.4880   47.9420 C   0  0  0  0  0  0  0  0  0  0  0  0
   38.5000   33.2730   49.0540 C   0  0  0  0  0  3  0  0  0  0  0  0
   39.5370   34.1950   49.0930 C   0  0  0  0  0  0  0  0  0  0  0  0
   39.7480   34.8360   49.9380 H   0  0  0  0  0  0  0  0  0  0  0  0
   40.3230   34.3000   48.0310 N   0  0  0  0  0  0  0  0  0  0  0  0
   40.1030   33.5250   46.9560 C   0  0  0  0  0  3  0  0  0  0  0  0
   39.0970   32.6060   46.8710 N   0  0  0  0  0  0  0  0  0  0  0  0
  1  6  1  0  0  0  0
  1 12  1  0  0  0  0
  2 22  1  0  0  0  0
  2  1  2  0  0  0  0
  3  4  2  0  0  0  0
  3  2  1  0  0  0  0
  4  5  1  0  0  0  0
  5  6  2  0  0  0  0
  7  5  1  0  0  0  0
  7 11  1  0  0  0  0
  8  9  1  0  0  0  0
  8 14  1  0  0  0  0
  8  7  1  0  0  0  0
  9 17  1  0  0  0  0
  9 10  1  0  0  0  0
 10 19  1  0  0  0  0
 10 11  1  0  0  0  0
 11 21  1  0  0  0  0
 13  3  1  0  0  0  0
 15  8  1  0  0  0  0
 16  9  1  0  0  0  0
 18 10  1  0  0  0  0
 20 11  1  0  0  0  0
 22 23  1  0  0  0  0
 23 24  2  0  0  0  0
 24 25  1  0  0  0  0
 26 24  1  0  0  0  0
 27 26  2  0  0  0  0
 28 27  1  0  0  0  0
 28 22  2  0  0  0  0
M  END
>  <minimizedAffinity>
-4.53694391

>  <minimizedRMSD>
2.56635642

$$$$
