
 OpenBabel03272508453D

 25 27  0  0  0  0  0  0  0  0999 V2000
   35.7780   30.1540   50.0170 C   0  0  0  0  0  0  0  0  0  0  0  0
   36.6910   29.7940   50.9830 C   0  0  0  0  0  0  0  0  0  0  0  0
   37.8070   30.5700   50.6780 C   0  0  0  0  0  0  0  0  0  0  0  0
   37.5220   31.3370   49.5770 C   0  0  0  0  0  0  0  0  0  0  0  0
   36.2920   31.0720   49.1940 O   0  0  0  0  0  0  0  0  0  0  0  0
   36.5930   29.0880   51.7870 H   0  0  0  0  0  0  0  0  0  0  0  0
   38.7580   30.5750   51.2190 H   0  0  0  0  0  0  0  0  0  0  0  0
   38.3910   32.2980   48.9060 C   0  0  0  0  0  0  0  0  0  0  0  0
   38.7950   32.0530   47.6090 C   0  0  0  0  0  3  0  0  0  0  0  0
   39.6270   33.0010   47.0090 C   0  0  0  0  0  0  0  0  0  0  0  0
   39.9210   32.7670   45.9820 H   0  0  0  0  0  0  0  0  0  0  0  0
   40.0080   34.1010   47.6850 N   0  0  0  0  0  0  0  0  0  0  0  0
   39.6020   34.3190   48.9530 C   0  0  0  0  0  3  0  0  0  0  0  0
   38.7900   33.4180   49.5710 N   0  0  0  0  0  0  0  0  0  0  0  0
   34.4170   29.6050   49.9050 C   0  0  0  0  0  0  0  0  0  0  0  0
   33.6360   29.7800   50.8800 O   0  0  0  0  0  0  0  0  0  0  0  0
   32.8170   27.1360   47.7820 C   0  0  0  0  0  0  0  0  0  0  0  0
   33.2150   27.4960   46.5000 C   0  0  0  0  0  0  0  0  0  0  0  0
   34.0460   28.6020   46.3470 C   0  0  0  0  0  0  0  0  0  0  0  0
   34.4150   29.2610   47.4730 N   0  0  0  0  0  0  0  0  0  0  0  0
   34.0150   28.8900   48.7040 C   0  0  0  0  0  0  0  0  0  0  0  0
   33.2170   27.8280   48.8460 N   0  0  0  0  0  0  0  0  0  0  0  0
   32.1710   26.2800   47.9440 H   0  0  0  0  0  0  0  0  0  0  0  0
   32.8590   26.8950   45.6590 H   0  0  0  0  0  0  0  0  0  0  0  0
   34.3620   28.8930   45.3520 H   0  0  0  0  0  0  0  0  0  0  0  0
  1  2  2  0  0  0  0
  2  6  1  0  0  0  0
  3  2  1  0  0  0  0
  3  7  1  0  0  0  0
  4  3  2  0  0  0  0
  5  4  1  0  0  0  0
  5  1  1  0  0  0  0
  8 14  1  0  0  0  0
  8  4  1  0  0  0  0
  9  8  2  0  0  0  0
 10  9  1  0  0  0  0
 10 12  2  0  0  0  0
 11 10  1  0  0  0  0
 12 13  1  0  0  0  0
 13 14  2  0  0  0  0
 15  1  1  0  0  0  0
 15 16  2  0  0  0  0
 17 23  1  0  0  0  0
 17 22  1  0  0  0  0
 18 17  2  0  0  0  0
 19 18  1  0  0  0  0
 19 20  2  0  0  0  0
 20 21  1  0  0  0  0
 21 22  2  0  0  0  0
 21 15  1  0  0  0  0
 24 18  1  0  0  0  0
 25 19  1  0  0  0  0
M  END
>  <minimizedAffinity>
-5.3694768

>  <minimizedRMSD>
1.96676409

$$$$
