
 OpenBabel03262522203D

 17 18  0  0  0  0  0  0  0  0999 V2000
   36.7150   29.4310   49.9740 C   0  0  0  0  0  0  0  0  0  0  0  0
   36.8610   30.1270   48.7580 C   0  0  0  0  0  0  0  0  0  0  0  0
   35.7060   30.5600   48.1280 C   0  0  0  0  0  0  0  0  0  0  0  0
   34.4970   30.3030   48.6950 N   0  0  0  0  0  0  0  0  0  0  0  0
   34.4020   29.6290   49.8660 C   0  0  0  0  0  0  0  0  0  0  0  0
   35.4950   29.1880   50.5170 N   0  0  0  0  0  0  0  0  0  0  0  0
   37.5630   29.0550   50.5370 H   0  0  0  0  0  0  0  0  0  0  0  0
   35.8720   31.0760   47.2210 H   0  0  0  0  0  0  0  0  0  0  0  0
   33.3840   29.4850   50.2190 H   0  0  0  0  0  0  0  0  0  0  0  0
   38.1630   30.2840   48.3540 O   0  0  0  0  0  0  0  0  0  0  0  0
   38.5620   30.9940   47.2200 C   0  0  0  0  0  0  0  0  0  0  0  0
   38.4540   30.5590   45.9080 C   0  0  0  0  0  3  0  0  0  0  0  0
   38.8950   31.3800   44.8860 C   0  0  0  0  0  0  0  0  0  0  0  0
   38.8060   31.0290   43.8690 H   0  0  0  0  0  0  0  0  0  0  0  0
   39.4230   32.5870   45.1570 N   0  0  0  0  0  0  0  0  0  0  0  0
   39.4990   32.9510   46.4500 C   0  0  0  0  0  3  0  0  0  0  0  0
   39.0890   32.2020   47.4920 N   0  0  0  0  0  0  0  0  0  0  0  0
  1  6  1  0  0  0  0
  1  7  1  0  0  0  0
  2  1  2  0  0  0  0
  3  4  2  0  0  0  0
  3  2  1  0  0  0  0
  4  5  1  0  0  0  0
  5  9  1  0  0  0  0
  5  6  2  0  0  0  0
  8  3  1  0  0  0  0
 10  2  1  0  0  0  0
 11 17  1  0  0  0  0
 11 10  1  0  0  0  0
 12 11  2  0  0  0  0
 13 15  2  0  0  0  0
 13 12  1  0  0  0  0
 14 13  1  0  0  0  0
 15 16  1  0  0  0  0
 16 17  2  0  0  0  0
M  END
>  <minimizedAffinity>
-3.85268903

>  <minimizedRMSD>
3.58826876

$$$$
