
 OpenBabel03272508023D

 26 28  0  0  0  0  0  0  0  0999 V2000
   38.6810   30.6810   45.4750 C   0  0  0  0  0  0  0  0  0  0  0  0
   39.7290   31.5540   45.3600 C   0  0  0  0  0  0  0  0  0  0  0  0
   40.5190   31.2080   44.2700 C   0  0  0  0  0  0  0  0  0  0  0  0
   39.9070   30.1150   43.7560 N   0  0  0  0  0  0  0  0  0  0  0  0
   38.8400   29.8130   44.4590 N   0  0  0  0  0  0  0  0  0  0  0  0
   39.9360   32.3960   46.0050 H   0  0  0  0  0  0  0  0  0  0  0  0
   41.4160   31.6610   43.8750 H   0  0  0  0  0  0  0  0  0  0  0  0
   37.6110   30.6660   46.4700 C   0  0  0  0  0  0  0  0  0  0  0  0
   37.9580   31.0620   47.7970 C   0  0  0  0  0  0  0  0  0  0  0  0
   36.9440   31.0510   48.7550 C   0  0  0  0  0  0  0  0  0  0  0  0
   35.7010   30.6680   48.3750 N   0  0  0  0  0  0  0  0  0  0  0  0
   35.4020   30.2980   47.1080 C   0  0  0  0  0  0  0  0  0  0  0  0
   36.3760   30.3050   46.1760 N   0  0  0  0  0  0  0  0  0  0  0  0
   38.9750   31.3510   48.0040 H   0  0  0  0  0  0  0  0  0  0  0  0
   34.3980   29.9970   46.8320 H   0  0  0  0  0  0  0  0  0  0  0  0
   37.2740   31.4600   50.1490 C   0  0  0  0  0  0  0  0  0  0  0  0
   36.6630   32.6800   50.3280 F   0  0  0  0  0  0  0  0  0  0  0  0
   36.7990   30.5690   51.0920 F   0  0  0  0  0  0  0  0  0  0  0  0
   38.6430   31.6560   50.3240 F   0  0  0  0  0  0  0  0  0  0  0  0
   40.2630   29.3220   42.6290 C   0  0  0  0  0  0  0  0  0  0  0  0
   41.2690   29.7450   41.7550 C   0  0  0  0  0  3  0  0  0  0  0  0
   41.6880   29.0510   40.6370 C   0  0  0  0  0  0  0  0  0  0  0  0
   42.4780   29.4930   40.0470 H   0  0  0  0  0  0  0  0  0  0  0  0
   41.0580   27.8870   40.4030 N   0  0  0  0  0  0  0  0  0  0  0  0
   40.0790   27.4390   41.2210 C   0  0  0  0  0  3  0  0  0  0  0  0
   39.6890   28.1490   42.3170 N   0  0  0  0  0  0  0  0  0  0  0  0
  1  8  1  0  0  0  0
  2  1  1  0  0  0  0
  2  6  1  0  0  0  0
  3  2  2  0  0  0  0
  4  3  1  0  0  0  0
  4  5  1  0  0  0  0
  5  1  2  0  0  0  0
  7  3  1  0  0  0  0
  8  9  1  0  0  0  0
  9 14  1  0  0  0  0
  9 10  2  0  0  0  0
 10 16  1  0  0  0  0
 11 10  1  0  0  0  0
 12 11  2  0  0  0  0
 13  8  2  0  0  0  0
 13 12  1  0  0  0  0
 15 12  1  0  0  0  0
 16 19  1  0  0  0  0
 16 17  1  0  0  0  0
 16 18  1  0  0  0  0
 20  4  1  0  0  0  0
 21 20  2  0  0  0  0
 22 21  1  0  0  0  0
 23 22  1  0  0  0  0
 24 22  2  0  0  0  0
 24 25  1  0  0  0  0
 25 26  2  0  0  0  0
 26 20  1  0  0  0  0
M  END
>  <minimizedAffinity>
-5.88756847

>  <minimizedRMSD>
1.20498514

$$$$
