
 OpenBabel03272510273D

 43 47  0  0  1  0  0  0  0  0999 V2000
   36.1390   30.2190   46.8480 C   0  0  0  0  0  0  0  0  0  0  0  0
   37.0440   30.7680   47.7570 C   0  0  0  0  0  0  0  0  0  0  0  0
   38.0490   31.6330   47.3390 C   0  0  0  0  0  0  0  0  0  0  0  0
   38.0970   31.9130   45.9780 C   0  0  0  0  0  0  0  0  0  0  0  0
   38.9860   32.7220   45.3310 N   0  0  0  0  0  0  0  0  0  0  0  0
   38.6550   32.6900   44.0320 C   0  0  0  0  0  0  0  0  0  0  0  0
   37.6140   31.9070   43.8520 N   0  0  0  0  0  0  0  0  0  0  0  0
   37.2280   31.3970   45.0470 C   0  0  0  0  0  0  0  0  0  0  0  0
   36.2250   30.5280   45.4940 C   0  0  0  0  0  0  0  0  0  0  0  0
   35.3520   29.5480   47.1420 H   0  0  0  0  0  0  0  0  0  0  0  0
   38.7410   32.0500   48.0540 H   0  0  0  0  0  0  0  0  0  0  0  0
   39.7740   33.2580   45.7910 H   0  0  0  0  0  0  0  0  0  0  0  0
   35.5530   30.1340   44.7430 H   0  0  0  0  0  0  0  0  0  0  0  0
   37.5660   30.2220   51.4330 C   0  0  0  0  0  0  0  0  0  0  0  0
   37.8130   30.6430   50.1400 C   0  0  0  0  0  0  0  0  0  0  0  0
   36.8800   30.3770   49.1430 C   0  0  0  0  0  0  0  0  0  0  0  0
   35.7440   29.7030   49.4950 N   0  0  0  0  0  0  0  0  0  0  0  0
   35.5160   29.2960   50.7700 C   0  0  0  0  0  0  0  0  0  0  0  0
   36.4040   29.5510   51.7070 N   0  0  0  0  0  0  0  0  0  0  0  0
   38.2710   30.4190   52.2030 H   0  0  0  0  0  0  0  0  0  0  0  0
   38.7130   31.1780   49.8640 H   0  0  0  0  0  0  0  0  0  0  0  0
   34.5780   28.7570   50.9740 H   0  0  0  0  0  0  0  0  0  0  0  0
   39.3710   33.4190   43.0680 O   0  0  0  0  0  0  0  0  0  0  0  0
   38.9720   31.5600   41.8040 N   0  0  0  0  0  0  0  0  0  0  0  0
   39.1730   33.0190   41.7190 C   0  0  1  0  0  0  0  0  0  0  0  0
   37.9850   33.6250   41.1300 C   0  0  0  0  0  0  0  0  0  0  0  0
   37.8600   33.1720   39.8040 O   0  0  0  0  0  0  0  0  0  0  0  0
   37.8320   31.8130   39.6560 C   0  0  0  0  0  0  0  0  0  0  0  0
   38.8980   31.1030   40.4320 C   0  0  1  0  0  0  0  0  0  0  0  0
   39.8540   31.1900   42.2260 H   0  0  0  0  0  0  0  0  0  0  0  0
   40.0490   33.2610   41.1080 H   0  0  0  0  0  0  0  0  0  0  0  0
   37.0040   33.5490   41.5130 H   0  0  0  0  0  0  0  0  0  0  0  0
   38.1980   34.7290   41.0010 H   0  0  0  0  0  0  0  0  0  0  0  0
   36.8450   31.4650   40.0530 H   0  0  0  0  0  0  0  0  0  0  0  0
   37.9460   31.5920   38.5840 H   0  0  0  0  0  0  0  0  0  0  0  0
   38.5420   30.0330   40.5150 H   0  0  0  0  0  0  0  0  0  0  0  0
   40.2090   31.0320   39.7850 C   0  0  0  0  0  0  0  0  0  0  0  0
   41.3880   30.4760   40.1860 C   0  0  0  0  0  3  0  0  0  0  0  0
   42.5200   30.5300   39.3980 C   0  0  0  0  0  0  0  0  0  0  0  0
   43.3970   30.0500   39.8290 H   0  0  0  0  0  0  0  0  0  0  0  0
   42.5090   31.1440   38.1800 N   0  0  0  0  0  0  0  0  0  0  0  0
   41.3320   31.6830   37.8110 C   0  0  0  0  0  3  0  0  0  0  0  0
   40.1930   31.6490   38.5650 N   0  0  0  0  0  0  0  0  0  0  0  0
  1 10  1  0  0  0  0
  1  2  1  0  0  0  0
  2 16  1  0  0  0  0
  3  2  2  0  0  0  0
  3 11  1  0  0  0  0
  4  3  1  0  0  0  0
  5 12  1  0  0  0  0
  5  4  1  0  0  0  0
  6  5  1  0  0  0  0
  7  6  2  0  0  0  0
  7  8  1  0  0  0  0
  8  9  1  0  0  0  0
  8  4  2  0  0  0  0
  9  1  2  0  0  0  0
 13  9  1  0  0  0  0
 14 19  1  0  0  0  0
 14 20  1  0  0  0  0
 15 14  2  0  0  0  0
 16 17  2  0  0  0  0
 16 15  1  0  0  0  0
 17 18  1  0  0  0  0
 18 22  1  0  0  0  0
 18 19  2  0  0  0  0
 21 15  1  0  0  0  0
 23  6  1  0  0  0  0
 24 30  1  0  0  0  0
 25 31  1  6  0  0  0
 25 24  1  0  0  0  0
 25 23  1  0  0  0  0
 26 32  1  0  0  0  0
 26 25  1  0  0  0  0
 27 26  1  0  0  0  0
 28 27  1  0  0  0  0
 28 34  1  0  0  0  0
 28 29  1  0  0  0  0
 29 36  1  1  0  0  0
 29 24  1  0  0  0  0
 33 26  1  0  0  0  0
 35 28  1  0  0  0  0
 37 38  1  0  0  0  0
 37 29  1  0  0  0  0
 39 40  1  0  0  0  0
 39 38  2  0  0  0  0
 41 39  1  0  0  0  0
 42 41  2  0  0  0  0
 42 43  1  0  0  0  0
 43 37  2  0  0  0  0
M  END
>  <minimizedAffinity>
-5.92562056

>  <minimizedRMSD>
0.817090511

$$$$
