
 OpenBabel03272510043D

 35 37  0  0  0  0  0  0  0  0999 V2000
   36.8100   30.4820   45.7240 C   0  0  0  0  0  0  0  0  0  0  0  0
   38.1220   30.8400   45.6740 C   0  0  0  0  0  0  0  0  0  0  0  0
   38.7990   31.1440   46.8500 C   0  0  0  0  0  0  0  0  0  0  0  0
   38.1890   31.1000   48.0880 C   0  0  0  0  0  0  0  0  0  0  0  0
   36.8690   30.7470   48.1770 C   0  0  0  0  0  0  0  0  0  0  0  0
   36.2310   30.4520   46.9970 C   0  0  0  0  0  0  0  0  0  0  0  0
   39.8590   31.4270   46.7790 H   0  0  0  0  0  0  0  0  0  0  0  0
   38.8090   31.3520   48.9310 H   0  0  0  0  0  0  0  0  0  0  0  0
   36.4550   30.7320   49.1510 H   0  0  0  0  0  0  0  0  0  0  0  0
   35.1840   30.1900   47.1990 H   0  0  0  0  0  0  0  0  0  0  0  0
   39.5620   32.3210   42.6350 C   0  0  0  0  0  0  0  0  0  0  0  0
   38.9010   32.1710   43.8450 C   0  0  0  0  0  0  0  0  0  0  0  0
   38.8200   30.9500   44.4400 C   0  0  0  0  0  0  0  0  0  0  0  0
   39.4140   29.9070   43.7980 N   0  0  0  0  0  0  0  0  0  0  0  0
   40.0580   30.0480   42.6310 C   0  0  0  0  0  0  0  0  0  0  0  0
   40.1250   31.2520   42.0590 N   0  0  0  0  0  0  0  0  0  0  0  0
   39.7140   33.2050   42.0350 H   0  0  0  0  0  0  0  0  0  0  0  0
   38.5900   33.1580   44.0930 H   0  0  0  0  0  0  0  0  0  0  0  0
   40.7190   28.8350   42.0800 C   0  0  0  0  0  0  0  0  0  0  0  0
   40.6970   28.8160   40.6990 F   0  0  0  0  0  0  0  0  0  0  0  0
   42.1360   28.9150   42.3670 F   0  0  0  0  0  0  0  0  0  0  0  0
   40.3680   27.6740   42.5830 F   0  0  0  0  0  0  0  0  0  0  0  0
   35.8820   30.0570   44.3570 S   0  0  0  0  0  0  0  0  0  0  0  0
   35.0600   31.1870   43.8680 O   0  0  0  0  0  0  0  0  0  0  0  0
   34.7580   29.3170   45.0540 O   0  0  0  0  0  0  0  0  0  0  0  0
   36.0140   28.6910   43.3580 C   0  0  0  0  0  0  0  0  0  0  0  0
   36.8440   28.0570   43.8650 H   0  0  0  0  0  0  0  0  0  0  0  0
   35.1850   27.9640   43.4360 H   0  0  0  0  0  0  0  0  0  0  0  0
   36.5870   28.8910   42.0370 C   0  0  0  0  0  0  0  0  0  0  0  0
   37.0510   27.7430   41.4260 C   0  0  0  0  0  3  0  0  0  0  0  0
   37.6320   27.7360   40.1580 C   0  0  0  0  0  0  0  0  0  0  0  0
   37.9940   26.8340   39.6830 H   0  0  0  0  0  0  0  0  0  0  0  0
   37.7530   28.9150   39.4790 N   0  0  0  0  0  0  0  0  0  0  0  0
   37.2880   30.0080   40.1130 C   0  0  0  0  0  3  0  0  0  0  0  0
   36.7160   30.0400   41.3510 N   0  0  0  0  0  0  0  0  0  0  0  0
  1  6  1  0  0  0  0
  2  1  2  0  0  0  0
  2  3  1  0  0  0  0
  3  4  2  0  0  0  0
  4  5  1  0  0  0  0
  4  8  1  0  0  0  0
  5  9  1  0  0  0  0
  6 10  1  0  0  0  0
  6  5  2  0  0  0  0
  7  3  1  0  0  0  0
 11 12  1  0  0  0  0
 12 18  1  0  0  0  0
 12 13  2  0  0  0  0
 13  2  1  0  0  0  0
 14 13  1  0  0  0  0
 15 14  2  0  0  0  0
 16 15  1  0  0  0  0
 16 11  2  0  0  0  0
 17 11  1  0  0  0  0
 19 21  1  0  0  0  0
 19 22  1  0  0  0  0
 19 15  1  0  0  0  0
 20 19  1  0  0  0  0
 23 25  2  0  0  0  0
 23  1  1  0  0  0  0
 24 23  2  0  0  0  0
 26 28  1  0  0  0  0
 26 27  1  0  0  0  0
 26 23  1  0  0  0  0
 29 26  1  0  0  0  0
 30 29  1  0  0  0  0
 31 30  2  0  0  0  0
 32 31  1  0  0  0  0
 33 34  2  0  0  0  0
 33 31  1  0  0  0  0
 34 35  1  0  0  0  0
 35 29  2  0  0  0  0
M  END
>  <minimizedAffinity>
-4.55274868

>  <minimizedRMSD>
7.06243658

$$$$
