
 OpenBabel03272509463D

 23 24  0  0  0  0  0  0  0  0999 V2000
   34.1710   28.4180   48.4760 C   0  0  0  0  0  0  0  0  0  0  0  0
   34.7800   29.0360   47.8050 H   0  0  0  0  0  0  0  0  0  0  0  0
   33.2090   28.9480   48.6390 H   0  0  0  0  0  0  0  0  0  0  0  0
   33.8600   27.0560   47.9250 C   0  0  0  0  0  0  0  0  0  0  0  0
   33.2850   26.4850   48.6520 H   0  0  0  0  0  0  0  0  0  0  0  0
   34.8190   26.5170   47.6910 H   0  0  0  0  0  0  0  0  0  0  0  0
   33.1350   27.1200   46.6270 C   0  0  0  0  0  0  0  0  0  0  0  0
   31.8510   27.6230   46.6570 C   0  0  0  0  0  3  0  0  0  0  0  0
   31.0840   27.7280   45.5160 C   0  0  0  0  0  0  0  0  0  0  0  0
   30.0700   28.1130   45.4670 H   0  0  0  0  0  0  0  0  0  0  0  0
   31.5950   27.3340   44.3470 N   0  0  0  0  0  0  0  0  0  0  0  0
   32.8580   26.8420   44.3260 C   0  0  0  0  0  3  0  0  0  0  0  0
   33.6230   26.7290   45.4250 N   0  0  0  0  0  0  0  0  0  0  0  0
   34.7480   28.3000   49.7710 O   0  0  0  0  0  0  0  0  0  0  0  0
   37.3380   30.2290   51.4220 C   0  0  0  0  0  0  0  0  0  0  0  0
   38.0590   30.6690   50.2950 C   0  0  0  0  0  0  0  0  0  0  0  0
   37.6120   30.2770   49.0380 C   0  0  0  0  0  0  0  0  0  0  0  0
   36.4960   29.4860   48.9840 N   0  0  0  0  0  0  0  0  0  0  0  0
   35.8320   29.0840   50.0740 C   0  0  0  0  0  0  0  0  0  0  0  0
   36.2580   29.4590   51.3020 N   0  0  0  0  0  0  0  0  0  0  0  0
   37.6310   30.4970   52.4340 H   0  0  0  0  0  0  0  0  0  0  0  0
   38.9330   31.2940   50.4320 H   0  0  0  0  0  0  0  0  0  0  0  0
   38.1390   30.5940   48.1450 H   0  0  0  0  0  0  0  0  0  0  0  0
  1  3  1  0  0  0  0
  1 14  1  0  0  0  0
  2  1  1  0  0  0  0
  4  1  1  0  0  0  0
  4  5  1  0  0  0  0
  6  4  1  0  0  0  0
  7  8  1  0  0  0  0
  7  4  1  0  0  0  0
  9  8  2  0  0  0  0
 10  9  1  0  0  0  0
 11  9  1  0  0  0  0
 12 11  2  0  0  0  0
 12 13  1  0  0  0  0
 13  7  2  0  0  0  0
 14 19  1  0  0  0  0
 15 21  1  0  0  0  0
 16 22  1  0  0  0  0
 16 15  2  0  0  0  0
 17 16  1  0  0  0  0
 18 17  2  0  0  0  0
 18 19  1  0  0  0  0
 19 20  2  0  0  0  0
 20 15  1  0  0  0  0
 23 17  1  0  0  0  0
M  END
>  <minimizedAffinity>
-3.63599825

>  <minimizedRMSD>
0.178437799

$$$$
