
 OpenBabel03272508163D

 29 31  0  0  0  0  0  0  0  0999 V2000
   34.3290   30.0990   48.9080 Cl  0  0  0  0  0  0  0  0  0  0  0  0
   34.9630   30.0600   47.3020 C   0  0  0  0  0  0  0  0  0  0  0  0
   34.0400   29.7130   46.3670 C   0  0  0  0  0  0  0  0  0  0  0  0
   34.4590   29.6520   45.0140 C   0  0  0  0  0  0  0  0  0  0  0  0
   35.7430   29.9290   44.6500 C   0  0  0  0  0  0  0  0  0  0  0  0
   36.6500   30.2750   45.6140 C   0  0  0  0  0  0  0  0  0  0  0  0
   38.3010   30.6420   45.2010 Cl  0  0  0  0  0  0  0  0  0  0  0  0
   36.2520   30.3350   46.9110 C   0  0  0  0  0  0  0  0  0  0  0  0
   33.7950   29.3850   44.2030 H   0  0  0  0  0  0  0  0  0  0  0  0
   36.0850   29.8880   43.6240 H   0  0  0  0  0  0  0  0  0  0  0  0
   32.2920   28.2370   47.2660 C   0  0  0  0  0  0  0  0  0  0  0  0
   32.6090   29.3750   46.5200 C   0  0  0  0  0  0  0  0  0  0  0  0
   31.5850   30.1400   45.9520 C   0  0  0  0  0  0  0  0  0  0  0  0
   30.3100   29.7130   46.1720 N   0  0  0  0  0  0  0  0  0  0  0  0
   30.0250   28.6110   46.8950 C   0  0  0  0  0  0  0  0  0  0  0  0
   31.0310   27.8600   47.4530 N   0  0  0  0  0  0  0  0  0  0  0  0
   33.0670   27.6310   47.7140 H   0  0  0  0  0  0  0  0  0  0  0  0
   31.8480   31.0080   45.3840 H   0  0  0  0  0  0  0  0  0  0  0  0
   28.9700   28.3950   46.9840 H   0  0  0  0  0  0  0  0  0  0  0  0
   37.1650   30.6960   48.0110 C   0  0  0  0  0  0  0  0  0  0  0  0
   38.0580   30.0480   48.5570 O   0  0  0  0  0  0  0  0  0  0  0  0
   37.1960   31.9390   48.6940 O   0  0  0  0  0  0  0  0  0  0  0  0
   38.2650   32.8070   48.5140 C   0  0  0  0  0  0  0  0  0  0  0  0
   38.7400   33.6710   49.4800 C   0  0  0  0  0  3  0  0  0  0  0  0
   39.8040   34.4450   49.1030 C   0  0  0  0  0  0  0  0  0  0  0  0
   40.1860   35.1360   49.8700 H   0  0  0  0  0  0  0  0  0  0  0  0
   40.3640   34.3850   47.8820 N   0  0  0  0  0  0  0  0  0  0  0  0
   39.8840   33.5310   46.9520 C   0  0  0  0  0  3  0  0  0  0  0  0
   38.8260   32.7470   47.2930 N   0  0  0  0  0  0  0  0  0  0  0  0
  2  1  1  0  0  0  0
  3 12  1  0  0  0  0
  3  2  2  0  0  0  0
  4  3  1  0  0  0  0
  5  4  2  0  0  0  0
  5  6  1  0  0  0  0
  6  8  2  0  0  0  0
  7  6  1  0  0  0  0
  8  2  1  0  0  0  0
  8 20  1  0  0  0  0
  9  4  1  0  0  0  0
 10  5  1  0  0  0  0
 11 16  1  0  0  0  0
 11 17  1  0  0  0  0
 12 11  2  0  0  0  0
 13 14  2  0  0  0  0
 13 12  1  0  0  0  0
 14 15  1  0  0  0  0
 15 19  1  0  0  0  0
 15 16  2  0  0  0  0
 18 13  1  0  0  0  0
 20 21  2  0  0  0  0
 20 22  1  0  0  0  0
 23 22  1  0  0  0  0
 23 24  1  0  0  0  0
 25 24  2  0  0  0  0
 25 26  1  0  0  0  0
 27 25  1  0  0  0  0
 28 29  1  0  0  0  0
 28 27  2  0  0  0  0
 29 23  2  0  0  0  0
M  END
>  <minimizedAffinity>
-4.81056118

>  <minimizedRMSD>
4.01614904

$$$$
