
 OpenBabel03262521343D

 23 25  0  0  1  0  0  0  0  0999 V2000
   38.0610   23.7430   33.6070 C   0  0  1  0  0  0  0  0  0  0  0  0
   39.0650   22.7030   33.5630 C   0  0  0  0  0  0  0  0  0  0  0  0
   38.0040   22.6290   34.6360 C   0  0  1  0  0  0  0  0  0  0  0  0
   37.2620   23.7530   32.8360 H   0  0  0  0  0  0  0  0  0  0  0  0
   39.0830   21.9360   32.7500 H   0  0  0  0  0  0  0  0  0  0  0  0
   40.0730   22.9110   34.0030 H   0  0  0  0  0  0  0  0  0  0  0  0
   37.1820   21.8900   34.3860 H   0  0  0  0  0  0  0  0  0  0  0  0
   39.8690   26.8110   34.7900 C   0  0  0  0  0  0  0  0  0  0  0  0
   39.6510   25.5170   34.2430 C   0  0  0  0  0  0  0  0  0  0  0  0
   38.3150   25.0810   34.1580 C   0  0  0  0  0  0  0  0  0  0  0  0
   37.3130   25.9170   34.6010 N   0  0  0  0  0  0  0  0  0  0  0  0
   37.5840   27.1240   35.1050 C   0  0  0  0  0  0  0  0  0  0  0  0
   38.8500   27.5680   35.2000 N   0  0  0  0  0  0  0  0  0  0  0  0
   40.8450   27.2590   34.9100 H   0  0  0  0  0  0  0  0  0  0  0  0
   40.5000   24.9620   33.9350 H   0  0  0  0  0  0  0  0  0  0  0  0
   36.6970   27.6640   35.4110 H   0  0  0  0  0  0  0  0  0  0  0  0
   38.3040   22.8320   36.0460 C   0  0  0  0  0  0  0  0  0  0  0  0
   37.4610   23.2330   37.0640 C   0  0  0  0  0  3  0  0  0  0  0  0
   37.8790   23.3840   38.3700 C   0  0  0  0  0  0  0  0  0  0  0  0
   37.1730   23.7010   39.1290 H   0  0  0  0  0  0  0  0  0  0  0  0
   39.1410   23.1450   38.7320 N   0  0  0  0  0  0  0  0  0  0  0  0
   39.9740   22.7550   37.7520 C   0  0  0  0  0  3  0  0  0  0  0  0
   39.5860   22.6020   36.4730 N   0  0  0  0  0  0  0  0  0  0  0  0
  1  4  1  6  0  0  0
  1 10  1  0  0  0  0
  1  3  1  0  0  0  0
  2  1  1  0  0  0  0
  2  6  1  0  0  0  0
  2  3  1  0  0  0  0
  3  7  1  6  0  0  0
  3 17  1  0  0  0  0
  5  2  1  0  0  0  0
  8 14  1  0  0  0  0
  8 13  1  0  0  0  0
  9  8  2  0  0  0  0
 10  9  1  0  0  0  0
 10 11  2  0  0  0  0
 11 12  1  0  0  0  0
 12 13  2  0  0  0  0
 12 16  1  0  0  0  0
 15  9  1  0  0  0  0
 17 23  2  0  0  0  0
 17 18  1  0  0  0  0
 18 19  2  0  0  0  0
 19 21  1  0  0  0  0
 19 20  1  0  0  0  0
 22 21  2  0  0  0  0
 23 22  1  0  0  0  0
M  END
>  <minimizedAffinity>
-3.95879006

$$$$

 OpenBabel03262521343D

 23 25  0  0  1  0  0  0  0  0999 V2000
   39.6020   26.8010   34.9490 C   0  0  1  0  0  0  0  0  0  0  0  0
   40.5320   26.9900   33.8580 C   0  0  0  0  0  0  0  0  0  0  0  0
   39.0560   27.1480   33.5750 C   0  0  1  0  0  0  0  0  0  0  0  0
   39.5210   27.5860   35.7300 H   0  0  0  0  0  0  0  0  0  0  0  0
   41.2020   27.8840   33.8040 H   0  0  0  0  0  0  0  0  0  0  0  0
   40.9490   26.0880   33.3460 H   0  0  0  0  0  0  0  0  0  0  0  0
   38.7330   28.2320   33.5300 H   0  0  0  0  0  0  0  0  0  0  0  0
   37.7550   24.1060   36.7950 C   0  0  0  0  0  0  0  0  0  0  0  0
   38.1030   25.3980   36.3140 C   0  0  0  0  0  0  0  0  0  0  0  0
   39.2130   25.4760   35.4520 C   0  0  0  0  0  0  0  0  0  0  0  0
   39.8880   24.3190   35.1300 N   0  0  0  0  0  0  0  0  0  0  0  0
   39.5100   23.1330   35.6150 C   0  0  0  0  0  0  0  0  0  0  0  0
   38.4530   23.0260   36.4410 N   0  0  0  0  0  0  0  0  0  0  0  0
   36.9260   23.9130   37.4610 H   0  0  0  0  0  0  0  0  0  0  0  0
   37.5100   26.2190   36.6300 H   0  0  0  0  0  0  0  0  0  0  0  0
   40.1340   22.3170   35.2740 H   0  0  0  0  0  0  0  0  0  0  0  0
   38.3140   26.2020   32.7530 C   0  0  0  0  0  0  0  0  0  0  0  0
   36.9580   25.9410   32.7390 C   0  0  0  0  0  3  0  0  0  0  0  0
   36.3800   25.0130   31.8980 C   0  0  0  0  0  0  0  0  0  0  0  0
   35.3090   24.8490   31.9310 H   0  0  0  0  0  0  0  0  0  0  0  0
   37.1080   24.3040   31.0340 N   0  0  0  0  0  0  0  0  0  0  0  0
   38.4300   24.5470   31.0350 C   0  0  0  0  0  3  0  0  0  0  0  0
   39.0130   25.4470   31.8470 N   0  0  0  0  0  0  0  0  0  0  0  0
  1 10  1  0  0  0  0
  1  4  1  1  0  0  0
  2  1  1  0  0  0  0
  3  7  1  6  0  0  0
  3  2  1  0  0  0  0
  3  1  1  0  0  0  0
  5  2  1  0  0  0  0
  6  2  1  0  0  0  0
  8 14  1  0  0  0  0
  9 15  1  0  0  0  0
  9  8  2  0  0  0  0
 10  9  1  0  0  0  0
 11 10  2  0  0  0  0
 11 12  1  0  0  0  0
 12 13  2  0  0  0  0
 13  8  1  0  0  0  0
 16 12  1  0  0  0  0
 17  3  1  0  0  0  0
 18 17  1  0  0  0  0
 19 20  1  0  0  0  0
 19 18  2  0  0  0  0
 21 22  2  0  0  0  0
 21 19  1  0  0  0  0
 22 23  1  0  0  0  0
 23 17  2  0  0  0  0
M  END
>  <minimizedAffinity>
-3.92450786

$$$$

 OpenBabel03262521343D

 23 25  0  0  1  0  0  0  0  0999 V2000
   38.8410   27.2430   34.3430 C   0  0  1  0  0  0  0  0  0  0  0  0
   38.1710   27.3580   35.6200 C   0  0  0  0  0  0  0  0  0  0  0  0
   39.3350   26.4000   35.5060 C   0  0  1  0  0  0  0  0  0  0  0  0
   39.5050   28.0680   34.0080 H   0  0  0  0  0  0  0  0  0  0  0  0
   38.2690   28.2720   36.2560 H   0  0  0  0  0  0  0  0  0  0  0  0
   37.2080   26.8100   35.7720 H   0  0  0  0  0  0  0  0  0  0  0  0
   40.2930   26.8250   35.9340 H   0  0  0  0  0  0  0  0  0  0  0  0
   38.5810   25.4880   31.0370 C   0  0  0  0  0  0  0  0  0  0  0  0
   39.1400   26.2200   32.1210 C   0  0  0  0  0  0  0  0  0  0  0  0
   38.2930   26.4790   33.2140 C   0  0  0  0  0  0  0  0  0  0  0  0
   36.9950   26.0180   33.1750 N   0  0  0  0  0  0  0  0  0  0  0  0
   36.5290   25.3340   32.1260 C   0  0  0  0  0  0  0  0  0  0  0  0
   37.3150   25.0710   31.0660 N   0  0  0  0  0  0  0  0  0  0  0  0
   39.1260   25.2260   30.1410 H   0  0  0  0  0  0  0  0  0  0  0  0
   40.1530   26.5250   32.0410 H   0  0  0  0  0  0  0  0  0  0  0  0
   35.4940   25.0390   32.2390 H   0  0  0  0  0  0  0  0  0  0  0  0
   39.1660   24.9550   35.5680 C   0  0  0  0  0  0  0  0  0  0  0  0
   39.9740   23.9630   35.0500 C   0  0  0  0  0  3  0  0  0  0  0  0
   39.6950   22.6190   35.1860 C   0  0  0  0  0  0  0  0  0  0  0  0
   40.3660   21.8830   34.7580 H   0  0  0  0  0  0  0  0  0  0  0  0
   38.6130   22.1930   35.8390 N   0  0  0  0  0  0  0  0  0  0  0  0
   37.8150   23.1470   36.3500 C   0  0  0  0  0  3  0  0  0  0  0  0
   38.0690   24.4620   36.2270 N   0  0  0  0  0  0  0  0  0  0  0  0
  1  4  1  6  0  0  0
  1  3  1  0  0  0  0
  1  2  1  0  0  0  0
  2  6  1  0  0  0  0
  2  5  1  0  0  0  0
  3 17  1  0  0  0  0
  3  2  1  0  0  0  0
  3  7  1  1  0  0  0
  8 13  2  0  0  0  0
  8  9  1  0  0  0  0
  9 10  2  0  0  0  0
 10  1  1  0  0  0  0
 11 10  1  0  0  0  0
 12 16  1  0  0  0  0
 12 11  2  0  0  0  0
 13 12  1  0  0  0  0
 14  8  1  0  0  0  0
 15  9  1  0  0  0  0
 17 23  1  0  0  0  0
 18 19  1  0  0  0  0
 18 17  2  0  0  0  0
 19 21  2  0  0  0  0
 20 19  1  0  0  0  0
 21 22  1  0  0  0  0
 23 22  2  0  0  0  0
M  END
>  <minimizedAffinity>
-3.90758228

$$$$

 OpenBabel03262521343D

 23 25  0  0  1  0  0  0  0  0999 V2000
   38.9580   27.1110   34.1140 C   0  0  1  0  0  0  0  0  0  0  0  0
   38.2900   27.4040   35.3620 C   0  0  0  0  0  0  0  0  0  0  0  0
   39.3930   26.3700   35.3660 C   0  0  1  0  0  0  0  0  0  0  0  0
   39.6740   27.8520   33.6990 H   0  0  0  0  0  0  0  0  0  0  0  0
   38.4420   28.3740   35.8970 H   0  0  0  0  0  0  0  0  0  0  0  0
   37.2940   26.9350   35.5620 H   0  0  0  0  0  0  0  0  0  0  0  0
   40.3730   26.7800   35.7580 H   0  0  0  0  0  0  0  0  0  0  0  0
   36.4230   25.3280   31.9980 C   0  0  0  0  0  0  0  0  0  0  0  0
   36.9670   26.1630   33.0130 C   0  0  0  0  0  0  0  0  0  0  0  0
   38.3690   26.2630   33.0680 C   0  0  0  0  0  0  0  0  0  0  0  0
   39.1230   25.5600   32.1530 N   0  0  0  0  0  0  0  0  0  0  0  0
   38.5510   24.7920   31.2220 C   0  0  0  0  0  0  0  0  0  0  0  0
   37.2130   24.6760   31.1440 N   0  0  0  0  0  0  0  0  0  0  0  0
   35.3640   25.1670   31.8520 H   0  0  0  0  0  0  0  0  0  0  0  0
   36.2880   26.6560   33.6620 H   0  0  0  0  0  0  0  0  0  0  0  0
   39.2690   24.3030   30.5770 H   0  0  0  0  0  0  0  0  0  0  0  0
   39.1340   24.9540   35.5830 C   0  0  0  0  0  0  0  0  0  0  0  0
   38.0270   24.3500   36.1450 C   0  0  0  0  0  3  0  0  0  0  0  0
   37.9080   22.9820   36.2880 C   0  0  0  0  0  0  0  0  0  0  0  0
   37.0150   22.5630   36.7370 H   0  0  0  0  0  0  0  0  0  0  0  0
   38.8700   22.1520   35.8830 N   0  0  0  0  0  0  0  0  0  0  0  0
   39.9550   22.7250   35.3330 C   0  0  0  0  0  3  0  0  0  0  0  0
   40.0900   24.0550   35.1850 N   0  0  0  0  0  0  0  0  0  0  0  0
  1  4  1  6  0  0  0
  1  2  1  0  0  0  0
  1  3  1  0  0  0  0
  2  3  1  0  0  0  0
  2  6  1  0  0  0  0
  2  5  1  0  0  0  0
  3 17  1  0  0  0  0
  3  7  1  1  0  0  0
  8  9  1  0  0  0  0
  9 10  2  0  0  0  0
  9 15  1  0  0  0  0
 10  1  1  0  0  0  0
 11 10  1  0  0  0  0
 12 11  2  0  0  0  0
 13 12  1  0  0  0  0
 13  8  2  0  0  0  0
 14  8  1  0  0  0  0
 16 12  1  0  0  0  0
 17 18  1  0  0  0  0
 18 19  2  0  0  0  0
 19 20  1  0  0  0  0
 21 19  1  0  0  0  0
 22 21  2  0  0  0  0
 23 22  1  0  0  0  0
 23 17  2  0  0  0  0
M  END
>  <minimizedAffinity>
-3.85882187

$$$$

 OpenBabel03262521343D

 23 25  0  0  1  0  0  0  0  0999 V2000
   38.1870   23.4350   33.4760 C   0  0  1  0  0  0  0  0  0  0  0  0
   38.9410   22.2010   33.4670 C   0  0  0  0  0  0  0  0  0  0  0  0
   37.9760   22.4410   34.6040 C   0  0  1  0  0  0  0  0  0  0  0  0
   37.3490   23.5590   32.7570 H   0  0  0  0  0  0  0  0  0  0  0  0
   38.7320   21.3880   32.7270 H   0  0  0  0  0  0  0  0  0  0  0  0
   40.0020   22.2180   33.8240 H   0  0  0  0  0  0  0  0  0  0  0  0
   37.0000   21.8820   34.4730 H   0  0  0  0  0  0  0  0  0  0  0  0
   38.4540   27.0090   34.5840 C   0  0  0  0  0  0  0  0  0  0  0  0
   37.8730   25.7700   34.2000 C   0  0  0  0  0  0  0  0  0  0  0  0
   38.7600   24.7240   33.8860 C   0  0  0  0  0  0  0  0  0  0  0  0
   40.1160   24.9550   33.9660 N   0  0  0  0  0  0  0  0  0  0  0  0
   40.6010   26.1440   34.3340 C   0  0  0  0  0  0  0  0  0  0  0  0
   39.7780   27.1640   34.6410 N   0  0  0  0  0  0  0  0  0  0  0  0
   37.8830   27.8880   34.8480 H   0  0  0  0  0  0  0  0  0  0  0  0
   36.8140   25.7080   34.1740 H   0  0  0  0  0  0  0  0  0  0  0  0
   41.6820   26.1750   34.3510 H   0  0  0  0  0  0  0  0  0  0  0  0
   38.4230   22.6820   35.9690 C   0  0  0  0  0  0  0  0  0  0  0  0
   39.6700   22.4750   36.5240 C   0  0  0  0  0  3  0  0  0  0  0  0
   39.9610   22.7520   37.8430 C   0  0  0  0  0  0  0  0  0  0  0  0
   40.9600   22.5690   38.2250 H   0  0  0  0  0  0  0  0  0  0  0  0
   39.0410   23.2460   38.6730 N   0  0  0  0  0  0  0  0  0  0  0  0
   37.8210   23.4530   38.1480 C   0  0  0  0  0  3  0  0  0  0  0  0
   37.5170   23.1890   36.8650 N   0  0  0  0  0  0  0  0  0  0  0  0
  1  4  1  6  0  0  0
  1 10  1  0  0  0  0
  1  3  1  0  0  0  0
  2  1  1  0  0  0  0
  2  6  1  0  0  0  0
  2  3  1  0  0  0  0
  3  7  1  6  0  0  0
  3 17  1  0  0  0  0
  5  2  1  0  0  0  0
  8 13  1  0  0  0  0
  8 14  1  0  0  0  0
  9  8  2  0  0  0  0
 10 11  2  0  0  0  0
 10  9  1  0  0  0  0
 11 12  1  0  0  0  0
 12 16  1  0  0  0  0
 12 13  2  0  0  0  0
 15  9  1  0  0  0  0
 17 18  2  0  0  0  0
 17 23  1  0  0  0  0
 18 19  1  0  0  0  0
 19 20  1  0  0  0  0
 19 21  2  0  0  0  0
 22 21  1  0  0  0  0
 23 22  2  0  0  0  0
M  END
>  <minimizedAffinity>
-3.83153677

$$$$

 OpenBabel03262521343D

 23 25  0  0  1  0  0  0  0  0999 V2000
   37.7210   27.2190   35.0970 C   0  0  1  0  0  0  0  0  0  0  0  0
   38.1520   26.3410   36.1620 C   0  0  0  0  0  0  0  0  0  0  0  0
   39.1890   27.2050   35.4840 C   0  0  1  0  0  0  0  0  0  0  0  0
   37.1460   28.1340   35.3530 H   0  0  0  0  0  0  0  0  0  0  0  0
   37.8840   26.5360   37.2310 H   0  0  0  0  0  0  0  0  0  0  0  0
   38.3130   25.2580   35.9330 H   0  0  0  0  0  0  0  0  0  0  0  0
   39.4560   28.1230   36.0900 H   0  0  0  0  0  0  0  0  0  0  0  0
   37.0170   27.2320   31.4120 C   0  0  0  0  0  0  0  0  0  0  0  0
   37.3030   27.7130   32.7190 C   0  0  0  0  0  0  0  0  0  0  0  0
   37.4360   26.7490   33.7350 C   0  0  0  0  0  0  0  0  0  0  0  0
   37.2840   25.4180   33.4120 N   0  0  0  0  0  0  0  0  0  0  0  0
   37.0170   25.0290   32.1630 C   0  0  0  0  0  0  0  0  0  0  0  0
   36.8830   25.9280   31.1700 N   0  0  0  0  0  0  0  0  0  0  0  0
   36.8900   27.8700   30.5480 H   0  0  0  0  0  0  0  0  0  0  0  0
   37.3980   28.7620   32.8490 H   0  0  0  0  0  0  0  0  0  0  0  0
   36.9260   23.9550   32.0630 H   0  0  0  0  0  0  0  0  0  0  0  0
   40.2310   26.6490   34.6310 C   0  0  0  0  0  0  0  0  0  0  0  0
   40.9690   27.2720   33.6450 C   0  0  0  0  0  3  0  0  0  0  0  0
   41.9380   26.6230   32.9080 C   0  0  0  0  0  0  0  0  0  0  0  0
   42.4880   27.1630   32.1450 H   0  0  0  0  0  0  0  0  0  0  0  0
   42.2230   25.3360   33.1100 N   0  0  0  0  0  0  0  0  0  0  0  0
   41.5120   24.7140   34.0670 C   0  0  0  0  0  3  0  0  0  0  0  0
   40.5640   25.3300   34.7960 N   0  0  0  0  0  0  0  0  0  0  0  0
  1  4  1  1  0  0  0
  1  3  1  0  0  0  0
  1  2  1  0  0  0  0
  2  5  1  0  0  0  0
  3  7  1  1  0  0  0
  3  2  1  0  0  0  0
  6  2  1  0  0  0  0
  8  9  1  0  0  0  0
  9 15  1  0  0  0  0
  9 10  2  0  0  0  0
 10  1  1  0  0  0  0
 11 10  1  0  0  0  0
 12 11  2  0  0  0  0
 13  8  2  0  0  0  0
 13 12  1  0  0  0  0
 14  8  1  0  0  0  0
 16 12  1  0  0  0  0
 17 23  1  0  0  0  0
 17  3  1  0  0  0  0
 18 17  2  0  0  0  0
 19 21  2  0  0  0  0
 19 18  1  0  0  0  0
 20 19  1  0  0  0  0
 21 22  1  0  0  0  0
 22 23  2  0  0  0  0
M  END
>  <minimizedAffinity>
-3.8214848

$$$$

 OpenBabel03262521343D

 23 25  0  0  1  0  0  0  0  0999 V2000
   38.0870   25.8010   36.1130 C   0  0  1  0  0  0  0  0  0  0  0  0
   38.5360   27.1670   35.9660 C   0  0  0  0  0  0  0  0  0  0  0  0
   37.4400   26.6730   35.0510 C   0  0  1  0  0  0  0  0  0  0  0  0
   37.4580   25.5310   36.9880 H   0  0  0  0  0  0  0  0  0  0  0  0
   38.3050   27.9480   36.7330 H   0  0  0  0  0  0  0  0  0  0  0  0
   39.4800   27.3640   35.3990 H   0  0  0  0  0  0  0  0  0  0  0  0
   36.4110   27.0130   35.3800 H   0  0  0  0  0  0  0  0  0  0  0  0
   38.9360   22.3020   35.0560 C   0  0  0  0  0  0  0  0  0  0  0  0
   38.1850   23.4020   35.5530 C   0  0  0  0  0  0  0  0  0  0  0  0
   38.8360   24.6490   35.5940 C   0  0  0  0  0  0  0  0  0  0  0  0
   40.1410   24.7320   35.1580 N   0  0  0  0  0  0  0  0  0  0  0  0
   40.7930   23.6600   34.7000 C   0  0  0  0  0  0  0  0  0  0  0  0
   40.1970   22.4540   34.6500 N   0  0  0  0  0  0  0  0  0  0  0  0
   38.5510   21.2950   34.9760 H   0  0  0  0  0  0  0  0  0  0  0  0
   37.1860   23.2190   35.8620 H   0  0  0  0  0  0  0  0  0  0  0  0
   41.8080   23.8790   34.3950 H   0  0  0  0  0  0  0  0  0  0  0  0
   37.6460   26.4730   33.6240 C   0  0  0  0  0  0  0  0  0  0  0  0
   36.9460   25.6640   32.7510 C   0  0  0  0  0  3  0  0  0  0  0  0
   37.2470   25.5710   31.4080 C   0  0  0  0  0  0  0  0  0  0  0  0
   36.6620   24.9190   30.7680 H   0  0  0  0  0  0  0  0  0  0  0  0
   38.2460   26.2680   30.8660 N   0  0  0  0  0  0  0  0  0  0  0  0
   38.9380   27.0600   31.7030 C   0  0  0  0  0  3  0  0  0  0  0  0
   38.6600   27.1650   33.0150 N   0  0  0  0  0  0  0  0  0  0  0  0
  1  4  1  1  0  0  0
  2  1  1  0  0  0  0
  2  5  1  0  0  0  0
  3  7  1  1  0  0  0
  3  2  1  0  0  0  0
  3  1  1  0  0  0  0
  6  2  1  0  0  0  0
  8  9  1  0  0  0  0
  9 10  2  0  0  0  0
  9 15  1  0  0  0  0
 10  1  1  0  0  0  0
 11 10  1  0  0  0  0
 12 11  2  0  0  0  0
 13 12  1  0  0  0  0
 13  8  2  0  0  0  0
 14  8  1  0  0  0  0
 16 12  1  0  0  0  0
 17  3  1  0  0  0  0
 18 17  2  0  0  0  0
 19 18  1  0  0  0  0
 20 19  1  0  0  0  0
 21 19  2  0  0  0  0
 21 22  1  0  0  0  0
 22 23  2  0  0  0  0
 23 17  1  0  0  0  0
M  END
>  <minimizedAffinity>
-3.78720045

$$$$

 OpenBabel03262521343D

 23 25  0  0  1  0  0  0  0  0999 V2000
   41.2370   24.8620   34.9020 C   0  0  1  0  0  0  0  0  0  0  0  0
   41.6440   25.5500   33.6970 C   0  0  0  0  0  0  0  0  0  0  0  0
   40.9020   26.3360   34.7530 C   0  0  1  0  0  0  0  0  0  0  0  0
   42.0060   24.5990   35.6580 H   0  0  0  0  0  0  0  0  0  0  0  0
   42.7170   25.7850   33.4860 H   0  0  0  0  0  0  0  0  0  0  0  0
   41.0250   25.4280   32.7730 H   0  0  0  0  0  0  0  0  0  0  0  0
   41.5910   26.9730   35.3870 H   0  0  0  0  0  0  0  0  0  0  0  0
   38.4410   22.7600   36.2590 C   0  0  0  0  0  0  0  0  0  0  0  0
   39.5600   23.6360   36.2290 C   0  0  0  0  0  0  0  0  0  0  0  0
   40.0730   23.9670   34.9610 C   0  0  0  0  0  0  0  0  0  0  0  0
   39.4730   23.4340   33.8410 N   0  0  0  0  0  0  0  0  0  0  0  0
   38.4210   22.6160   33.9350 C   0  0  0  0  0  0  0  0  0  0  0  0
   37.9090   22.2810   35.1330 N   0  0  0  0  0  0  0  0  0  0  0  0
   37.9560   22.4300   37.1670 H   0  0  0  0  0  0  0  0  0  0  0  0
   39.9390   23.9850   37.1570 H   0  0  0  0  0  0  0  0  0  0  0  0
   38.0600   22.2780   32.9730 H   0  0  0  0  0  0  0  0  0  0  0  0
   39.5460   26.8270   34.5520 C   0  0  0  0  0  0  0  0  0  0  0  0
   38.6210   27.2330   35.4940 C   0  0  0  0  0  3  0  0  0  0  0  0
   37.3600   27.6850   35.1630 C   0  0  0  0  0  0  0  0  0  0  0  0
   36.6750   27.9910   35.9450 H   0  0  0  0  0  0  0  0  0  0  0  0
   36.9560   27.7590   33.8940 N   0  0  0  0  0  0  0  0  0  0  0  0
   37.8450   27.3680   32.9650 C   0  0  0  0  0  3  0  0  0  0  0  0
   39.0790   26.9240   33.2670 N   0  0  0  0  0  0  0  0  0  0  0  0
  1 10  1  0  0  0  0
  1  4  1  1  0  0  0
  2  3  1  0  0  0  0
  2  1  1  0  0  0  0
  3  1  1  0  0  0  0
  3  7  1  1  0  0  0
  5  2  1  0  0  0  0
  6  2  1  0  0  0  0
  8 14  1  0  0  0  0
  9  8  1  0  0  0  0
  9 15  1  0  0  0  0
 10  9  2  0  0  0  0
 11 12  2  0  0  0  0
 11 10  1  0  0  0  0
 12 13  1  0  0  0  0
 13  8  2  0  0  0  0
 16 12  1  0  0  0  0
 17  3  1  0  0  0  0
 17 18  1  0  0  0  0
 19 18  2  0  0  0  0
 19 20  1  0  0  0  0
 21 19  1  0  0  0  0
 22 23  1  0  0  0  0
 22 21  2  0  0  0  0
 23 17  2  0  0  0  0
M  END
>  <minimizedAffinity>
-3.76636338

$$$$

 OpenBabel03262521343D

 23 25  0  0  1  0  0  0  0  0999 V2000
   41.4260   22.1180   37.3030 C   0  0  1  0  0  0  0  0  0  0  0  0
   42.1620   21.2840   36.3800 C   0  0  0  0  0  0  0  0  0  0  0  0
   42.3690   22.7790   36.3120 C   0  0  1  0  0  0  0  0  0  0  0  0
   41.7310   22.1390   38.3710 H   0  0  0  0  0  0  0  0  0  0  0  0
   43.0000   20.6250   36.7210 H   0  0  0  0  0  0  0  0  0  0  0  0
   41.6410   20.9040   35.4660 H   0  0  0  0  0  0  0  0  0  0  0  0
   43.3230   23.1110   36.8230 H   0  0  0  0  0  0  0  0  0  0  0  0
   38.0090   23.5360   37.9260 C   0  0  0  0  0  0  0  0  0  0  0  0
   39.3850   23.2340   38.1180 C   0  0  0  0  0  0  0  0  0  0  0  0
   40.0070   22.4550   37.1250 C   0  0  0  0  0  0  0  0  0  0  0  0
   39.2630   22.0380   36.0430 N   0  0  0  0  0  0  0  0  0  0  0  0
   37.9720   22.3570   35.9200 C   0  0  0  0  0  0  0  0  0  0  0  0
   37.3490   23.0990   36.8530 N   0  0  0  0  0  0  0  0  0  0  0  0
   37.4180   24.1230   38.6160 H   0  0  0  0  0  0  0  0  0  0  0  0
   39.8560   23.6090   38.9910 H   0  0  0  0  0  0  0  0  0  0  0  0
   37.5210   21.9590   35.0200 H   0  0  0  0  0  0  0  0  0  0  0  0
   41.9070   23.5810   35.1880 C   0  0  0  0  0  0  0  0  0  0  0  0
   41.5520   24.9150   35.1610 C   0  0  0  0  0  3  0  0  0  0  0  0
   41.1310   25.5570   34.0150 C   0  0  0  0  0  0  0  0  0  0  0  0
   40.8650   26.6080   34.0530 H   0  0  0  0  0  0  0  0  0  0  0  0
   41.0430   24.9180   32.8480 N   0  0  0  0  0  0  0  0  0  0  0  0
   41.3840   23.6170   32.8580 C   0  0  0  0  0  3  0  0  0  0  0  0
   41.7970   22.9730   33.9640 N   0  0  0  0  0  0  0  0  0  0  0  0
  1  4  1  1  0  0  0
  2  5  1  0  0  0  0
  2  1  1  0  0  0  0
  3  2  1  0  0  0  0
  3  7  1  1  0  0  0
  3  1  1  0  0  0  0
  6  2  1  0  0  0  0
  8  9  1  0  0  0  0
  8 14  1  0  0  0  0
  9 15  1  0  0  0  0
 10  1  1  0  0  0  0
 10  9  2  0  0  0  0
 11 10  1  0  0  0  0
 12 11  2  0  0  0  0
 12 13  1  0  0  0  0
 13  8  2  0  0  0  0
 16 12  1  0  0  0  0
 17  3  1  0  0  0  0
 18 17  1  0  0  0  0
 19 20  1  0  0  0  0
 19 18  2  0  0  0  0
 21 22  2  0  0  0  0
 21 19  1  0  0  0  0
 22 23  1  0  0  0  0
 23 17  2  0  0  0  0
M  END
>  <minimizedAffinity>
-3.74527431

$$$$
