
 OpenBabel03272508083D

 22 23  0  0  0  0  0  0  0  0999 V2000
   39.0810   32.7670   48.1360 O   0  0  0  0  0  0  0  0  0  0  0  0
   38.6430   31.7280   47.1400 P   0  0  2  0  0  0  0  0  0  0  0  0
   37.4930   32.4080   46.0840 O   0  0  0  0  0  0  0  0  0  0  0  0
   37.3950   33.3760   46.2670 H   0  0  0  0  0  0  0  0  0  0  0  0
   38.0560   30.3040   47.8210 O   0  0  0  0  0  0  0  0  0  0  0  0
   37.3040   30.2160   51.4370 C   0  0  0  0  0  0  0  0  0  0  0  0
   38.0330   30.5320   50.2980 C   0  0  0  0  0  0  0  0  0  0  0  0
   37.5370   30.1220   49.0690 C   0  0  0  0  0  0  0  0  0  0  0  0
   36.3630   29.4310   49.0470 N   0  0  0  0  0  0  0  0  0  0  0  0
   35.6840   29.1450   50.1860 C   0  0  0  0  0  0  0  0  0  0  0  0
   36.1580   29.5380   51.3730 N   0  0  0  0  0  0  0  0  0  0  0  0
   37.7680   30.5760   52.3420 H   0  0  0  0  0  0  0  0  0  0  0  0
   38.9590   31.0670   50.2300 H   0  0  0  0  0  0  0  0  0  0  0  0
   34.7440   28.5910   50.1620 H   0  0  0  0  0  0  0  0  0  0  0  0
   39.9860   31.3550   46.1700 O   0  0  0  0  0  0  0  0  0  0  0  0
   39.9440   30.8550   44.8910 C   0  0  0  0  0  0  0  0  0  0  0  0
   40.6270   31.2700   43.7740 C   0  0  0  0  0  3  0  0  0  0  0  0
   40.4570   30.6370   42.5550 C   0  0  0  0  0  0  0  0  0  0  0  0
   41.0240   31.0060   41.6980 H   0  0  0  0  0  0  0  0  0  0  0  0
   39.6020   29.5870   42.4570 N   0  0  0  0  0  0  0  0  0  0  0  0
   38.9480   29.2010   43.5580 C   0  0  0  0  0  3  0  0  0  0  0  0
   39.0970   29.8050   44.7650 N   0  0  0  0  0  0  0  0  0  0  0  0
  2  5  1  0  0  0  0
  2  1  2  1  0  0  0
  3  4  1  0  0  0  0
  3  2  1  0  0  0  0
  5  8  1  0  0  0  0
  6 12  1  0  0  0  0
  7  6  2  0  0  0  0
  8  7  1  0  0  0  0
  9  8  2  0  0  0  0
  9 10  1  0  0  0  0
 10 11  2  0  0  0  0
 11  6  1  0  0  0  0
 13  7  1  0  0  0  0
 14 10  1  0  0  0  0
 15  2  1  0  0  0  0
 16 15  1  0  0  0  0
 17 16  2  0  0  0  0
 18 17  1  0  0  0  0
 19 18  1  0  0  0  0
 20 18  2  0  0  0  0
 20 21  1  0  0  0  0
 21 22  2  0  0  0  0
 22 16  1  0  0  0  0
M  END
>  <minimizedAffinity>
-5.15258837

>  <minimizedRMSD>
1.32810652

$$$$
