
 OpenBabel03272507583D

 30 32  0  0  0  0  0  0  0  0999 V2000
   36.9480   31.1360   48.3870 C   0  0  0  0  0  0  0  0  0  0  0  0
   37.2360   32.1050   49.3290 C   0  0  0  0  0  0  0  0  0  0  0  0
   38.1950   33.0690   49.0530 C   0  0  0  0  0  0  0  0  0  0  0  0
   38.8600   33.0540   47.8340 C   0  0  0  0  0  0  0  0  0  0  0  0
   38.5440   32.0730   46.9250 C   0  0  0  0  0  0  0  0  0  0  0  0
   37.6110   31.1430   47.2060 N   0  0  0  0  0  0  0  0  0  0  0  0
   36.8120   32.2560   50.3160 H   0  0  0  0  0  0  0  0  0  0  0  0
   38.4880   33.8640   49.7230 H   0  0  0  0  0  0  0  0  0  0  0  0
   39.6150   33.7850   47.5730 H   0  0  0  0  0  0  0  0  0  0  0  0
   35.0980   28.5720   50.4150 C   0  0  0  0  0  0  0  0  0  0  0  0
   36.1270   29.4650   50.0030 C   0  0  0  0  0  0  0  0  0  0  0  0
   35.9210   30.2090   48.8460 C   0  0  0  0  0  0  0  0  0  0  0  0
   34.7440   30.0480   48.1630 N   0  0  0  0  0  0  0  0  0  0  0  0
   33.7970   29.1760   48.6090 C   0  0  0  0  0  0  0  0  0  0  0  0
   33.9560   28.4490   49.7070 N   0  0  0  0  0  0  0  0  0  0  0  0
   32.6660   29.1650   47.7340 N   0  0  0  0  0  0  0  0  0  0  0  0
   35.2340   27.9840   51.3090 H   0  0  0  0  0  0  0  0  0  0  0  0
   32.0610   30.0260   47.7650 H   0  0  0  0  0  0  0  0  0  0  0  0
   32.5240   28.3170   47.1370 H   0  0  0  0  0  0  0  0  0  0  0  0
   37.3620   29.5600   50.8180 C   0  0  0  0  0  0  0  0  0  0  0  0
   38.4830   29.7910   50.0200 F   0  0  0  0  0  0  0  0  0  0  0  0
   37.2270   30.5990   51.6840 F   0  0  0  0  0  0  0  0  0  0  0  0
   37.6170   28.4170   51.5550 F   0  0  0  0  0  0  0  0  0  0  0  0
   39.2150   32.0170   45.6310 C   0  0  0  0  0  0  0  0  0  0  0  0
   40.1170   31.0230   45.3350 C   0  0  0  0  0  0  0  0  0  0  0  0
   40.6820   31.0800   44.0780 C   0  0  0  0  0  0  0  0  0  0  0  0
   41.4090   30.3000   43.8070 H   0  0  0  0  0  0  0  0  0  0  0  0
   40.3790   32.0440   43.1900 N   0  0  0  0  0  0  0  0  0  0  0  0
   39.4840   33.0160   43.5080 C   0  0  0  0  0  0  0  0  0  0  0  0
   38.9390   32.9630   44.7150 N   0  0  0  0  0  0  0  0  0  0  0  0
  1 12  1  0  0  0  0
  1  2  1  0  0  0  0
  2  7  1  0  0  0  0
  3  2  2  0  0  0  0
  3  8  1  0  0  0  0
  4  3  1  0  0  0  0
  5  6  1  0  0  0  0
  5  4  2  0  0  0  0
  6  1  2  0  0  0  0
  9  4  1  0  0  0  0
 10 17  1  0  0  0  0
 11 10  1  0  0  0  0
 11 20  1  0  0  0  0
 12 11  2  0  0  0  0
 13 14  2  0  0  0  0
 13 12  1  0  0  0  0
 14 15  1  0  0  0  0
 15 10  2  0  0  0  0
 16 18  1  0  0  0  0
 16 14  1  0  0  0  0
 19 16  1  0  0  0  0
 20 23  1  0  0  0  0
 20 22  1  0  0  0  0
 21 20  1  0  0  0  0
 24  5  1  0  0  0  0
 25 24  1  0  0  0  0
 26 25  2  0  0  0  0
 27 26  1  0  0  0  0
 28 29  2  0  0  0  0
 28 26  1  0  0  0  0
 29 30  1  0  0  0  0
 30 24  2  0  0  0  0
M  END
>  <minimizedAffinity>
-7.03439188

>  <minimizedRMSD>
1.0714761

$$$$
