
 OpenBabel03262523133D

 27 29  0  0  0  0  0  0  0  0999 V2000
   34.8840   29.2720   48.4550 C   0  0  0  0  0  0  0  0  0  0  0  0
   34.4790   28.0670   48.9410 C   0  0  0  0  0  0  0  0  0  0  0  0
   33.3780   27.5180   48.3410 C   0  0  0  0  0  0  0  0  0  0  0  0
   32.7170   28.1320   47.3120 C   0  0  0  0  0  0  0  0  0  0  0  0
   33.1850   29.3520   46.8710 C   0  0  0  0  0  0  0  0  0  0  0  0
   34.2680   29.9200   47.4450 N   0  0  0  0  0  0  0  0  0  0  0  0
   34.9750   27.5590   49.7450 H   0  0  0  0  0  0  0  0  0  0  0  0
   33.0250   26.5450   48.7100 H   0  0  0  0  0  0  0  0  0  0  0  0
   31.8520   27.6840   46.8530 H   0  0  0  0  0  0  0  0  0  0  0  0
   37.5690   30.1680   50.7900 C   0  0  0  0  0  0  0  0  0  0  0  0
   38.2530   31.1850   50.1160 C   0  0  0  0  0  0  0  0  0  0  0  0
   37.7750   31.5460   48.8620 C   0  0  0  0  0  0  0  0  0  0  0  0
   36.6920   30.9080   48.3670 N   0  0  0  0  0  0  0  0  0  0  0  0
   36.0520   29.9290   49.0400 C   0  0  0  0  0  0  0  0  0  0  0  0
   36.5110   29.5790   50.2520 N   0  0  0  0  0  0  0  0  0  0  0  0
   39.1170   31.6450   50.5940 H   0  0  0  0  0  0  0  0  0  0  0  0
   38.2850   32.3260   48.3250 H   0  0  0  0  0  0  0  0  0  0  0  0
   37.9810   29.7200   52.0910 N   0  0  0  0  0  0  0  0  0  0  0  0
   38.9780   29.7870   52.3880 H   0  0  0  0  0  0  0  0  0  0  0  0
   37.3060   29.3250   52.7550 H   0  0  0  0  0  0  0  0  0  0  0  0
   32.5640   30.1020   45.7850 C   0  0  0  0  0  0  0  0  0  0  0  0
   33.2540   30.5940   44.6960 C   0  0  0  0  0  0  0  0  0  0  0  0
   32.6990   31.3040   43.6580 C   0  0  0  0  0  0  0  0  0  0  0  0
   33.2800   31.6690   42.8250 H   0  0  0  0  0  0  0  0  0  0  0  0
   31.3580   31.5260   43.7340 N   0  0  0  0  0  0  0  0  0  0  0  0
   30.6400   31.0660   44.7780 C   0  0  0  0  0  0  0  0  0  0  0  0
   31.2400   30.3890   45.7440 N   0  0  0  0  0  0  0  0  0  0  0  0
  1  2  1  0  0  0  0
  1 14  1  0  0  0  0
  2  7  1  0  0  0  0
  3  8  1  0  0  0  0
  3  2  2  0  0  0  0
  4  3  1  0  0  0  0
  5  4  2  0  0  0  0
  5  6  1  0  0  0  0
  6  1  2  0  0  0  0
  9  4  1  0  0  0  0
 10 18  1  0  0  0  0
 11 16  1  0  0  0  0
 11 10  2  0  0  0  0
 12 11  1  0  0  0  0
 13 12  2  0  0  0  0
 13 14  1  0  0  0  0
 14 15  2  0  0  0  0
 15 10  1  0  0  0  0
 17 12  1  0  0  0  0
 18 19  1  0  0  0  0
 18 20  1  0  0  0  0
 21  5  1  0  0  0  0
 22 21  2  0  0  0  0
 23 25  2  0  0  0  0
 23 22  1  0  0  0  0
 24 23  1  0  0  0  0
 25 26  1  0  0  0  0
 26 27  2  0  0  0  0
 27 21  1  0  0  0  0
M  END
>  <minimizedAffinity>
-5.38856888

>  <minimizedRMSD>
0.0936132446

$$$$
