
 OpenBabel03262521153D

 17 18  0  0  0  0  0  0  0  0999 V2000
   37.4190   30.8860   48.9550 C   0  0  0  0  0  0  0  0  0  0  0  0
   38.3520   31.0940   47.9400 C   0  0  0  0  0  0  0  0  0  0  0  0
   38.9190   32.3540   47.8200 C   0  0  0  0  0  0  0  0  0  0  0  0
   38.5350   33.3140   48.6970 N   0  0  0  0  0  0  0  0  0  0  0  0
   37.6260   33.0950   49.6810 C   0  0  0  0  0  0  0  0  0  0  0  0
   37.0760   31.8870   49.8050 N   0  0  0  0  0  0  0  0  0  0  0  0
   38.6940   30.3900   47.2240 H   0  0  0  0  0  0  0  0  0  0  0  0
   39.6510   32.6190   47.0660 H   0  0  0  0  0  0  0  0  0  0  0  0
   37.3290   33.8710   50.3750 H   0  0  0  0  0  0  0  0  0  0  0  0
   36.9350   29.5890   48.9600 O   0  0  0  0  0  0  0  0  0  0  0  0
   35.6510   29.1970   48.7110 C   0  0  0  0  0  0  0  0  0  0  0  0
   35.1220   29.7950   47.5620 C   0  0  0  0  0  0  0  0  0  0  0  0
   33.8150   29.5130   47.1490 C   0  0  0  0  0  0  0  0  0  0  0  0
   33.3910   29.9650   46.2660 H   0  0  0  0  0  0  0  0  0  0  0  0
   33.0870   28.6440   47.8980 N   0  0  0  0  0  0  0  0  0  0  0  0
   33.6080   28.0670   49.0130 C   0  0  0  0  0  0  0  0  0  0  0  0
   34.8520   28.3420   49.3970 N   0  0  0  0  0  0  0  0  0  0  0  0
  1 10  1  0  0  0  0
  1  6  1  0  0  0  0
  2  1  2  0  0  0  0
  3  2  1  0  0  0  0
  3  4  2  0  0  0  0
  4  5  1  0  0  0  0
  5  6  2  0  0  0  0
  5  9  1  0  0  0  0
  7  2  1  0  0  0  0
  8  3  1  0  0  0  0
 11 10  1  0  0  0  0
 11 17  1  0  0  0  0
 12 11  2  0  0  0  0
 13 12  1  0  0  0  0
 13 15  2  0  0  0  0
 14 13  1  0  0  0  0
 15 16  1  0  0  0  0
 16 17  2  0  0  0  0
M  END
>  <minimizedAffinity>
-4.17369223

>  <minimizedRMSD>
5.16272068

$$$$
