
 OpenBabel03272509463D

 23 24  0  0  0  0  0  0  0  0999 V2000
   34.1070   28.4540   48.5710 C   0  0  0  0  0  0  0  0  0  0  0  0
   34.6530   29.1380   47.9090 H   0  0  0  0  0  0  0  0  0  0  0  0
   33.1230   28.9170   48.7930 H   0  0  0  0  0  0  0  0  0  0  0  0
   33.8570   27.1020   47.9660 C   0  0  0  0  0  0  0  0  0  0  0  0
   33.1710   26.5370   48.5960 H   0  0  0  0  0  0  0  0  0  0  0  0
   34.8300   26.5480   47.8690 H   0  0  0  0  0  0  0  0  0  0  0  0
   33.3300   27.1900   46.5770 C   0  0  0  0  0  0  0  0  0  0  0  0
   32.8790   28.4260   46.1590 C   0  0  0  0  0  3  0  0  0  0  0  0
   32.3700   28.6250   44.8940 C   0  0  0  0  0  0  0  0  0  0  0  0
   31.9980   29.5660   44.5010 H   0  0  0  0  0  0  0  0  0  0  0  0
   32.3100   27.5960   44.0450 N   0  0  0  0  0  0  0  0  0  0  0  0
   32.7560   26.3860   44.4630 C   0  0  0  0  0  3  0  0  0  0  0  0
   33.2560   26.1690   45.6910 N   0  0  0  0  0  0  0  0  0  0  0  0
   34.7390   28.3120   49.8370 O   0  0  0  0  0  0  0  0  0  0  0  0
   37.3680   30.2490   51.4170 C   0  0  0  0  0  0  0  0  0  0  0  0
   38.0680   30.6740   50.2710 C   0  0  0  0  0  0  0  0  0  0  0  0
   37.5950   30.2710   49.0280 C   0  0  0  0  0  0  0  0  0  0  0  0
   36.4750   29.4830   49.0040 N   0  0  0  0  0  0  0  0  0  0  0  0
   35.8310   29.0950   50.1110 C   0  0  0  0  0  0  0  0  0  0  0  0
   36.2830   29.4820   51.3260 N   0  0  0  0  0  0  0  0  0  0  0  0
   37.6820   30.5270   52.4200 H   0  0  0  0  0  0  0  0  0  0  0  0
   38.9470   31.2980   50.3850 H   0  0  0  0  0  0  0  0  0  0  0  0
   38.1060   30.5760   48.1210 H   0  0  0  0  0  0  0  0  0  0  0  0
  1  3  1  0  0  0  0
  1 14  1  0  0  0  0
  2  1  1  0  0  0  0
  4  1  1  0  0  0  0
  4  5  1  0  0  0  0
  6  4  1  0  0  0  0
  7  4  1  0  0  0  0
  8  7  1  0  0  0  0
  9  8  2  0  0  0  0
 10  9  1  0  0  0  0
 11 12  2  0  0  0  0
 11  9  1  0  0  0  0
 12 13  1  0  0  0  0
 13  7  2  0  0  0  0
 14 19  1  0  0  0  0
 15 21  1  0  0  0  0
 16 22  1  0  0  0  0
 16 15  2  0  0  0  0
 17 16  1  0  0  0  0
 18 17  2  0  0  0  0
 18 19  1  0  0  0  0
 19 20  2  0  0  0  0
 20 15  1  0  0  0  0
 23 17  1  0  0  0  0
M  END
>  <minimizedAffinity>
-3.62778187

>  <minimizedRMSD>
0.140108928

$$$$
