
 OpenBabel03262520333D

 21 22  0  0  0  0  0  0  0  0999 V2000
   37.7880   22.3360   34.7960 C   0  0  0  0  0  3  0  0  0  0  0  0
   37.9980   23.1880   33.8400 C   0  0  0  0  0  3  0  0  0  0  0  0
   40.0390   22.6650   37.6770 C   0  0  0  0  0  0  0  0  0  0  0  0
   39.1960   23.2750   38.6410 C   0  0  0  0  0  0  0  0  0  0  0  0
   37.8640   23.5570   38.2650 C   0  0  0  0  0  0  0  0  0  0  0  0
   37.4700   23.2210   36.9840 N   0  0  0  0  0  0  0  0  0  0  0  0
   38.3090   22.6480   36.1200 C   0  0  0  0  0  0  0  0  0  0  0  0
   39.5800   22.3700   36.4530 N   0  0  0  0  0  0  0  0  0  0  0  0
   41.0510   22.4700   38.0140 H   0  0  0  0  0  0  0  0  0  0  0  0
   39.5440   23.5210   39.6300 H   0  0  0  0  0  0  0  0  0  0  0  0
   37.1700   24.0200   38.9500 H   0  0  0  0  0  0  0  0  0  0  0  0
   37.5570   23.0670   32.4280 C   0  0  0  0  0  0  0  0  0  0  0  0
   36.9060   22.1690   32.3760 H   0  0  0  0  0  0  0  0  0  0  0  0
   38.4040   22.8930   31.7530 H   0  0  0  0  0  0  0  0  0  0  0  0
   36.7920   24.2170   31.9370 C   0  0  0  0  0  0  0  0  0  0  0  0
   35.5800   24.1000   31.2850 C   0  0  0  0  0  3  0  0  0  0  0  0
   34.8590   25.1860   30.8230 C   0  0  0  0  0  0  0  0  0  0  0  0
   33.9070   25.0700   30.3130 H   0  0  0  0  0  0  0  0  0  0  0  0
   35.4120   26.4030   31.0440 N   0  0  0  0  0  0  0  0  0  0  0  0
   36.6120   26.4960   31.6900 C   0  0  0  0  0  3  0  0  0  0  0  0
   37.3130   25.4410   32.1400 N   0  0  0  0  0  0  0  0  0  0  0  0
  1  7  1  0  0  0  0
  2  1  2  0  0  0  0
  3  9  1  0  0  0  0
  3  4  1  0  0  0  0
  4 10  1  0  0  0  0
  5  4  2  0  0  0  0
  5 11  1  0  0  0  0
  6  5  1  0  0  0  0
  7  8  1  0  0  0  0
  7  6  2  0  0  0  0
  8  3  2  0  0  0  0
 12  2  1  0  0  0  0
 13 12  1  0  0  0  0
 14 12  1  0  0  0  0
 15 21  1  0  0  0  0
 15 12  1  0  0  0  0
 16 15  2  0  0  0  0
 17 19  2  0  0  0  0
 17 16  1  0  0  0  0
 18 17  1  0  0  0  0
 19 20  1  0  0  0  0
 20 21  2  0  0  0  0
M  END
>  <minimizedAffinity>
-4.29529047

$$$$

 OpenBabel03262520333D

 21 22  0  0  0  0  0  0  0  0999 V2000
   36.7400   27.7010   34.5670 C   0  0  0  0  0  3  0  0  0  0  0  0
   37.9590   27.3980   34.8920 C   0  0  0  0  0  3  0  0  0  0  0  0
   35.2670   29.6650   31.8380 C   0  0  0  0  0  0  0  0  0  0  0  0
   36.1550   29.3920   30.7660 C   0  0  0  0  0  0  0  0  0  0  0  0
   37.2450   28.5290   31.0190 C   0  0  0  0  0  0  0  0  0  0  0  0
   37.3750   28.0100   32.2930 N   0  0  0  0  0  0  0  0  0  0  0  0
   36.5070   28.3050   33.2620 C   0  0  0  0  0  0  0  0  0  0  0  0
   35.4630   29.1210   33.0460 N   0  0  0  0  0  0  0  0  0  0  0  0
   34.4490   30.3320   31.5930 H   0  0  0  0  0  0  0  0  0  0  0  0
   36.0170   29.8190   29.7870 H   0  0  0  0  0  0  0  0  0  0  0  0
   37.9580   28.2790   30.2470 H   0  0  0  0  0  0  0  0  0  0  0  0
   38.4130   26.7800   36.1630 C   0  0  0  0  0  0  0  0  0  0  0  0
   37.7900   27.2190   36.9680 H   0  0  0  0  0  0  0  0  0  0  0  0
   39.4570   27.0340   36.3850 H   0  0  0  0  0  0  0  0  0  0  0  0
   38.2630   25.3220   36.2090 C   0  0  0  0  0  0  0  0  0  0  0  0
   37.9180   24.6310   37.3540 C   0  0  0  0  0  3  0  0  0  0  0  0
   37.7760   23.2550   37.3960 C   0  0  0  0  0  0  0  0  0  0  0  0
   37.5030   22.7340   38.3080 H   0  0  0  0  0  0  0  0  0  0  0  0
   37.9980   22.6000   36.2320 N   0  0  0  0  0  0  0  0  0  0  0  0
   38.3390   23.3040   35.1110 C   0  0  0  0  0  3  0  0  0  0  0  0
   38.4770   24.6400   35.0690 N   0  0  0  0  0  0  0  0  0  0  0  0
  1  2  2  0  0  0  0
  2 12  1  0  0  0  0
  3  8  1  0  0  0  0
  4  5  1  0  0  0  0
  4  3  2  0  0  0  0
  5  6  2  0  0  0  0
  6  7  1  0  0  0  0
  7  1  1  0  0  0  0
  8  7  2  0  0  0  0
  9  3  1  0  0  0  0
 10  4  1  0  0  0  0
 11  5  1  0  0  0  0
 12 15  1  0  0  0  0
 12 14  1  0  0  0  0
 12 13  1  0  0  0  0
 15 16  1  0  0  0  0
 16 17  2  0  0  0  0
 17 18  1  0  0  0  0
 19 17  1  0  0  0  0
 20 19  2  0  0  0  0
 21 20  1  0  0  0  0
 21 15  2  0  0  0  0
M  END
>  <minimizedAffinity>
-4.23598385

$$$$

 OpenBabel03262520333D

 21 22  0  0  0  0  0  0  0  0999 V2000
   36.7680   27.7600   34.5700 C   0  0  0  0  0  3  0  0  0  0  0  0
   37.9610   27.3510   34.8800 C   0  0  0  0  0  3  0  0  0  0  0  0
   37.1490   28.5840   31.0140 C   0  0  0  0  0  0  0  0  0  0  0  0
   36.1010   29.5190   30.8140 C   0  0  0  0  0  0  0  0  0  0  0  0
   35.2880   29.8410   31.9230 C   0  0  0  0  0  0  0  0  0  0  0  0
   35.5650   29.2240   33.1280 N   0  0  0  0  0  0  0  0  0  0  0  0
   36.5650   28.3510   33.2540 C   0  0  0  0  0  0  0  0  0  0  0  0
   37.3530   28.0290   32.2160 N   0  0  0  0  0  0  0  0  0  0  0  0
   37.7440   28.3710   30.1330 H   0  0  0  0  0  0  0  0  0  0  0  0
   35.9200   29.9780   29.8570 H   0  0  0  0  0  0  0  0  0  0  0  0
   34.4740   30.5460   31.8400 H   0  0  0  0  0  0  0  0  0  0  0  0
   38.3820   26.7240   36.1570 C   0  0  0  0  0  0  0  0  0  0  0  0
   37.7460   27.1660   36.9510 H   0  0  0  0  0  0  0  0  0  0  0  0
   39.4230   26.9670   36.4020 H   0  0  0  0  0  0  0  0  0  0  0  0
   38.2180   25.2680   36.1940 C   0  0  0  0  0  0  0  0  0  0  0  0
   37.9340   24.5650   37.3490 C   0  0  0  0  0  3  0  0  0  0  0  0
   37.7780   23.1910   37.3820 C   0  0  0  0  0  0  0  0  0  0  0  0
   37.5550   22.6610   38.3020 H   0  0  0  0  0  0  0  0  0  0  0  0
   37.9220   22.5490   36.1990 N   0  0  0  0  0  0  0  0  0  0  0  0
   38.2040   23.2630   35.0680 C   0  0  0  0  0  3  0  0  0  0  0  0
   38.3550   24.5990   35.0350 N   0  0  0  0  0  0  0  0  0  0  0  0
  1  2  2  0  0  0  0
  2 12  1  0  0  0  0
  3  8  1  0  0  0  0
  4  3  2  0  0  0  0
  4  5  1  0  0  0  0
  5  6  2  0  0  0  0
  6  7  1  0  0  0  0
  7  1  1  0  0  0  0
  8  7  2  0  0  0  0
  9  3  1  0  0  0  0
 10  4  1  0  0  0  0
 11  5  1  0  0  0  0
 12 15  1  0  0  0  0
 12 14  1  0  0  0  0
 12 13  1  0  0  0  0
 15 16  1  0  0  0  0
 16 17  2  0  0  0  0
 17 18  1  0  0  0  0
 19 17  1  0  0  0  0
 20 19  2  0  0  0  0
 21 20  1  0  0  0  0
 21 15  2  0  0  0  0
M  END
>  <minimizedAffinity>
-4.21759033

$$$$

 OpenBabel03262520333D

 21 22  0  0  0  0  0  0  0  0999 V2000
   35.6880   30.5200   34.6160 C   0  0  0  0  0  3  0  0  0  0  0  0
   35.5070   29.2480   34.4330 C   0  0  0  0  0  3  0  0  0  0  0  0
   32.7590   31.4700   36.6150 C   0  0  0  0  0  0  0  0  0  0  0  0
   33.2560   32.5690   37.3610 C   0  0  0  0  0  0  0  0  0  0  0  0
   34.5990   32.9540   37.1500 C   0  0  0  0  0  0  0  0  0  0  0  0
   35.3400   32.2340   36.2320 N   0  0  0  0  0  0  0  0  0  0  0  0
   34.8170   31.2080   35.5600 C   0  0  0  0  0  0  0  0  0  0  0  0
   33.5440   30.8230   35.7420 N   0  0  0  0  0  0  0  0  0  0  0  0
   31.7250   31.2140   36.8130 H   0  0  0  0  0  0  0  0  0  0  0  0
   32.6440   33.1030   38.0680 H   0  0  0  0  0  0  0  0  0  0  0  0
   35.0390   33.7820   37.6840 H   0  0  0  0  0  0  0  0  0  0  0  0
   36.2780   28.3620   33.5250 C   0  0  0  0  0  0  0  0  0  0  0  0
   36.9480   29.0200   32.9350 H   0  0  0  0  0  0  0  0  0  0  0  0
   35.6220   27.8440   32.8140 H   0  0  0  0  0  0  0  0  0  0  0  0
   37.1030   27.3660   34.2150 C   0  0  0  0  0  0  0  0  0  0  0  0
   37.8010   27.6320   35.3780 C   0  0  0  0  0  3  0  0  0  0  0  0
   38.5790   26.6920   36.0280 C   0  0  0  0  0  0  0  0  0  0  0  0
   39.1180   26.9250   36.9410 H   0  0  0  0  0  0  0  0  0  0  0  0
   38.6280   25.4650   35.4570 N   0  0  0  0  0  0  0  0  0  0  0  0
   37.9310   25.2230   34.3070 C   0  0  0  0  0  3  0  0  0  0  0  0
   37.1740   26.1360   33.6740 N   0  0  0  0  0  0  0  0  0  0  0  0
  1  7  1  0  0  0  0
  2  1  2  0  0  0  0
  3  9  1  0  0  0  0
  3  4  1  0  0  0  0
  4 10  1  0  0  0  0
  5  4  2  0  0  0  0
  5 11  1  0  0  0  0
  6  5  1  0  0  0  0
  7  8  1  0  0  0  0
  7  6  2  0  0  0  0
  8  3  2  0  0  0  0
 12 15  1  0  0  0  0
 12  2  1  0  0  0  0
 13 12  1  0  0  0  0
 14 12  1  0  0  0  0
 15 16  1  0  0  0  0
 16 17  2  0  0  0  0
 17 18  1  0  0  0  0
 19 17  1  0  0  0  0
 20 19  2  0  0  0  0
 21 15  2  0  0  0  0
 21 20  1  0  0  0  0
M  END
>  <minimizedAffinity>
-4.10533571

$$$$

 OpenBabel03262520333D

 21 22  0  0  0  0  0  0  0  0999 V2000
   38.1980   26.6590   35.6130 C   0  0  0  0  0  3  0  0  0  0  0  0
   37.1100   26.8140   34.9220 C   0  0  0  0  0  3  0  0  0  0  0  0
   38.2110   23.3980   37.2980 C   0  0  0  0  0  0  0  0  0  0  0  0
   39.3450   22.7720   36.7190 C   0  0  0  0  0  0  0  0  0  0  0  0
   40.0780   23.5010   35.7560 C   0  0  0  0  0  0  0  0  0  0  0  0
   39.6430   24.7740   35.4410 N   0  0  0  0  0  0  0  0  0  0  0  0
   38.5670   25.3100   36.0190 C   0  0  0  0  0  0  0  0  0  0  0  0
   37.8540   24.6380   36.9370 N   0  0  0  0  0  0  0  0  0  0  0  0
   37.6830   22.7980   38.0300 H   0  0  0  0  0  0  0  0  0  0  0  0
   39.6500   21.7760   36.9930 H   0  0  0  0  0  0  0  0  0  0  0  0
   40.9510   23.0840   35.2770 H   0  0  0  0  0  0  0  0  0  0  0  0
   36.5550   28.0910   34.4100 C   0  0  0  0  0  0  0  0  0  0  0  0
   37.1970   28.9000   34.8170 H   0  0  0  0  0  0  0  0  0  0  0  0
   35.5380   28.2670   34.7790 H   0  0  0  0  0  0  0  0  0  0  0  0
   36.5510   28.2010   32.9480 C   0  0  0  0  0  0  0  0  0  0  0  0
   36.1580   29.3410   32.2730 C   0  0  0  0  0  3  0  0  0  0  0  0
   36.1540   29.4430   30.8940 C   0  0  0  0  0  0  0  0  0  0  0  0
   35.8410   30.3500   30.3860 H   0  0  0  0  0  0  0  0  0  0  0  0
   36.5650   28.3440   30.2170 N   0  0  0  0  0  0  0  0  0  0  0  0
   36.9490   27.2270   30.9040 C   0  0  0  0  0  3  0  0  0  0  0  0
   36.9530   27.1270   32.2440 N   0  0  0  0  0  0  0  0  0  0  0  0
  1  7  1  0  0  0  0
  2  1  2  0  0  0  0
  3  9  1  0  0  0  0
  4 10  1  0  0  0  0
  4  3  2  0  0  0  0
  5  4  1  0  0  0  0
  6  5  2  0  0  0  0
  6  7  1  0  0  0  0
  7  8  2  0  0  0  0
  8  3  1  0  0  0  0
 11  5  1  0  0  0  0
 12 14  1  0  0  0  0
 12 13  1  0  0  0  0
 12  2  1  0  0  0  0
 15 12  1  0  0  0  0
 16 15  1  0  0  0  0
 17 16  2  0  0  0  0
 18 17  1  0  0  0  0
 19 17  1  0  0  0  0
 19 20  2  0  0  0  0
 20 21  1  0  0  0  0
 21 15  2  0  0  0  0
M  END
>  <minimizedAffinity>
-4.10414553

$$$$

 OpenBabel03262520333D

 21 22  0  0  0  0  0  0  0  0999 V2000
   38.3640   22.0940   34.4920 C   0  0  0  0  0  3  0  0  0  0  0  0
   37.8600   22.9760   33.6830 C   0  0  0  0  0  3  0  0  0  0  0  0
   40.0730   22.6600   37.6910 C   0  0  0  0  0  0  0  0  0  0  0  0
   39.0640   23.3010   38.4550 C   0  0  0  0  0  0  0  0  0  0  0  0
   37.8120   23.5190   37.8370 C   0  0  0  0  0  0  0  0  0  0  0  0
   37.6530   23.0970   36.5320 N   0  0  0  0  0  0  0  0  0  0  0  0
   38.6410   22.5000   35.8630 C   0  0  0  0  0  0  0  0  0  0  0  0
   39.8390   22.2800   36.4280 N   0  0  0  0  0  0  0  0  0  0  0  0
   41.0140   22.5160   38.2090 H   0  0  0  0  0  0  0  0  0  0  0  0
   39.2300   23.6150   39.4710 H   0  0  0  0  0  0  0  0  0  0  0  0
   37.0010   24.0010   38.3620 H   0  0  0  0  0  0  0  0  0  0  0  0
   37.5050   22.7740   32.2570 C   0  0  0  0  0  0  0  0  0  0  0  0
   38.4630   22.6780   31.7030 H   0  0  0  0  0  0  0  0  0  0  0  0
   36.9780   23.6430   31.8450 H   0  0  0  0  0  0  0  0  0  0  0  0
   36.7050   21.5720   32.0010 C   0  0  0  0  0  0  0  0  0  0  0  0
   37.1900   20.4660   31.3320 C   0  0  0  0  0  3  0  0  0  0  0  0
   36.4340   19.3320   31.0920 C   0  0  0  0  0  0  0  0  0  0  0  0
   36.8370   18.4740   30.5640 H   0  0  0  0  0  0  0  0  0  0  0  0
   35.1620   19.3590   31.5550 N   0  0  0  0  0  0  0  0  0  0  0  0
   34.7020   20.4640   32.2140 C   0  0  0  0  0  3  0  0  0  0  0  0
   35.4360   21.5660   32.4480 N   0  0  0  0  0  0  0  0  0  0  0  0
  1  7  1  0  0  0  0
  2  1  2  0  0  0  0
  3  9  1  0  0  0  0
  3  4  1  0  0  0  0
  4 10  1  0  0  0  0
  5 11  1  0  0  0  0
  5  4  2  0  0  0  0
  6  5  1  0  0  0  0
  7  8  1  0  0  0  0
  7  6  2  0  0  0  0
  8  3  2  0  0  0  0
 12  2  1  0  0  0  0
 13 12  1  0  0  0  0
 14 12  1  0  0  0  0
 15 12  1  0  0  0  0
 15 21  1  0  0  0  0
 16 15  2  0  0  0  0
 17 16  1  0  0  0  0
 17 19  2  0  0  0  0
 18 17  1  0  0  0  0
 19 20  1  0  0  0  0
 20 21  2  0  0  0  0
M  END
>  <minimizedAffinity>
-3.99170613

$$$$

 OpenBabel03262520333D

 21 22  0  0  0  0  0  0  0  0999 V2000
   38.8360   25.3400   34.7660 C   0  0  0  0  0  3  0  0  0  0  0  0
   37.6950   25.6430   34.2260 C   0  0  0  0  0  3  0  0  0  0  0  0
   37.9860   24.2920   38.1800 C   0  0  0  0  0  0  0  0  0  0  0  0
   38.8840   23.2150   38.3900 C   0  0  0  0  0  0  0  0  0  0  0  0
   39.7650   22.8790   37.3380 C   0  0  0  0  0  0  0  0  0  0  0  0
   39.6930   23.6210   36.1740 N   0  0  0  0  0  0  0  0  0  0  0  0
   38.8260   24.6240   36.0350 C   0  0  0  0  0  0  0  0  0  0  0  0
   37.9790   24.9630   37.0200 N   0  0  0  0  0  0  0  0  0  0  0  0
   37.3310   24.5100   39.0160 H   0  0  0  0  0  0  0  0  0  0  0  0
   38.9070   22.6620   39.3140 H   0  0  0  0  0  0  0  0  0  0  0  0
   40.4740   22.0700   37.4320 H   0  0  0  0  0  0  0  0  0  0  0  0
   37.4810   26.3630   32.9460 C   0  0  0  0  0  0  0  0  0  0  0  0
   36.9610   25.6550   32.2680 H   0  0  0  0  0  0  0  0  0  0  0  0
   38.4320   26.6310   32.4690 H   0  0  0  0  0  0  0  0  0  0  0  0
   36.6580   27.5700   33.0670 C   0  0  0  0  0  0  0  0  0  0  0  0
   36.4540   28.2330   34.2620 C   0  0  0  0  0  3  0  0  0  0  0  0
   35.6770   29.3720   34.3760 C   0  0  0  0  0  0  0  0  0  0  0  0
   35.5310   29.8750   35.3260 H   0  0  0  0  0  0  0  0  0  0  0  0
   35.1110   29.8190   33.2300 N   0  0  0  0  0  0  0  0  0  0  0  0
   35.3260   29.1490   32.0590 C   0  0  0  0  0  3  0  0  0  0  0  0
   36.0810   28.0420   31.9480 N   0  0  0  0  0  0  0  0  0  0  0  0
  1  7  1  0  0  0  0
  2  1  2  0  0  0  0
  3  4  1  0  0  0  0
  3  9  1  0  0  0  0
  4 10  1  0  0  0  0
  5 11  1  0  0  0  0
  5  4  2  0  0  0  0
  6  5  1  0  0  0  0
  7  6  2  0  0  0  0
  7  8  1  0  0  0  0
  8  3  2  0  0  0  0
 12 15  1  0  0  0  0
 12  2  1  0  0  0  0
 13 12  1  0  0  0  0
 14 12  1  0  0  0  0
 15 16  1  0  0  0  0
 16 17  2  0  0  0  0
 17 18  1  0  0  0  0
 19 17  1  0  0  0  0
 20 19  2  0  0  0  0
 21 20  1  0  0  0  0
 21 15  2  0  0  0  0
M  END
>  <minimizedAffinity>
-3.98359036

$$$$

 OpenBabel03262520333D

 21 22  0  0  0  0  0  0  0  0999 V2000
   35.7860   23.0400   31.1780 C   0  0  0  0  0  3  0  0  0  0  0  0
   36.6920   23.8330   31.6630 C   0  0  0  0  0  3  0  0  0  0  0  0
   35.8270   19.3720   31.2970 C   0  0  0  0  0  0  0  0  0  0  0  0
   35.6470   19.1200   32.6810 C   0  0  0  0  0  0  0  0  0  0  0  0
   35.5150   20.2340   33.5400 C   0  0  0  0  0  0  0  0  0  0  0  0
   35.5710   21.4940   32.9760 N   0  0  0  0  0  0  0  0  0  0  0  0
   35.7430   21.6680   31.6650 C   0  0  0  0  0  0  0  0  0  0  0  0
   35.8700   20.6260   30.8280 N   0  0  0  0  0  0  0  0  0  0  0  0
   35.9240   18.4850   30.6800 H   0  0  0  0  0  0  0  0  0  0  0  0
   35.6100   18.1200   33.0800 H   0  0  0  0  0  0  0  0  0  0  0  0
   35.3750   20.1120   34.6030 H   0  0  0  0  0  0  0  0  0  0  0  0
   36.9090   25.2580   31.3080 C   0  0  0  0  0  0  0  0  0  0  0  0
   36.1070   25.5310   30.5920 H   0  0  0  0  0  0  0  0  0  0  0  0
   37.8670   25.4050   30.7940 H   0  0  0  0  0  0  0  0  0  0  0  0
   36.8410   26.1780   32.4480 C   0  0  0  0  0  0  0  0  0  0  0  0
   36.3530   27.4660   32.3540 C   0  0  0  0  0  3  0  0  0  0  0  0
   36.2890   28.3330   33.4300 C   0  0  0  0  0  0  0  0  0  0  0  0
   35.9000   29.3420   33.3330 H   0  0  0  0  0  0  0  0  0  0  0  0
   36.7400   27.8470   34.6110 N   0  0  0  0  0  0  0  0  0  0  0  0
   37.2190   26.5700   34.6810 C   0  0  0  0  0  3  0  0  0  0  0  0
   37.2810   25.7260   33.6360 N   0  0  0  0  0  0  0  0  0  0  0  0
  1  2  2  0  0  0  0
  1  7  1  0  0  0  0
  3  4  1  0  0  0  0
  4 10  1  0  0  0  0
  4  5  2  0  0  0  0
  5 11  1  0  0  0  0
  6  5  1  0  0  0  0
  7  6  2  0  0  0  0
  8  3  2  0  0  0  0
  8  7  1  0  0  0  0
  9  3  1  0  0  0  0
 12  2  1  0  0  0  0
 12 15  1  0  0  0  0
 13 12  1  0  0  0  0
 14 12  1  0  0  0  0
 15 21  1  0  0  0  0
 16 15  2  0  0  0  0
 16 17  1  0  0  0  0
 17 19  2  0  0  0  0
 18 17  1  0  0  0  0
 19 20  1  0  0  0  0
 21 20  2  0  0  0  0
M  END
>  <minimizedAffinity>
-3.97911286

$$$$

 OpenBabel03262520333D

 21 22  0  0  0  0  0  0  0  0999 V2000
   35.6600   29.4210   33.8650 C   0  0  0  0  0  3  0  0  0  0  0  0
   36.3560   28.4000   34.2640 C   0  0  0  0  0  3  0  0  0  0  0  0
   35.3320   31.8860   36.5650 C   0  0  0  0  0  0  0  0  0  0  0  0
   33.9270   31.9290   36.7550 C   0  0  0  0  0  0  0  0  0  0  0  0
   33.1280   31.0980   35.9390 C   0  0  0  0  0  0  0  0  0  0  0  0
   33.7660   30.2990   35.0090 N   0  0  0  0  0  0  0  0  0  0  0  0
   35.0930   30.3020   34.8760 C   0  0  0  0  0  0  0  0  0  0  0  0
   35.8750   31.0830   35.6400 N   0  0  0  0  0  0  0  0  0  0  0  0
   35.9010   32.5410   37.2140 H   0  0  0  0  0  0  0  0  0  0  0  0
   33.4700   32.5670   37.4920 H   0  0  0  0  0  0  0  0  0  0  0  0
   32.0520   31.0820   36.0320 H   0  0  0  0  0  0  0  0  0  0  0  0
   37.0180   27.3850   33.4070 C   0  0  0  0  0  0  0  0  0  0  0  0
   37.9140   27.8750   32.9720 H   0  0  0  0  0  0  0  0  0  0  0  0
   36.3760   27.0810   32.5710 H   0  0  0  0  0  0  0  0  0  0  0  0
   37.4540   26.1840   34.1260 C   0  0  0  0  0  0  0  0  0  0  0  0
   37.7910   25.0030   33.4960 C   0  0  0  0  0  3  0  0  0  0  0  0
   38.2030   23.8700   34.1760 C   0  0  0  0  0  0  0  0  0  0  0  0
   38.4630   22.9520   33.6580 H   0  0  0  0  0  0  0  0  0  0  0  0
   38.2600   23.9770   35.5250 N   0  0  0  0  0  0  0  0  0  0  0  0
   37.9220   25.1550   36.1280 C   0  0  0  0  0  3  0  0  0  0  0  0
   37.5220   26.2560   35.4680 N   0  0  0  0  0  0  0  0  0  0  0  0
  1  2  2  0  0  0  0
  1  7  1  0  0  0  0
  3  4  1  0  0  0  0
  3  9  1  0  0  0  0
  4 10  1  0  0  0  0
  5 11  1  0  0  0  0
  5  4  2  0  0  0  0
  6  5  1  0  0  0  0
  7  6  2  0  0  0  0
  7  8  1  0  0  0  0
  8  3  2  0  0  0  0
 12 15  1  0  0  0  0
 12  2  1  0  0  0  0
 13 12  1  0  0  0  0
 14 12  1  0  0  0  0
 15 21  1  0  0  0  0
 16 15  2  0  0  0  0
 16 17  1  0  0  0  0
 17 19  2  0  0  0  0
 18 17  1  0  0  0  0
 19 20  1  0  0  0  0
 21 20  2  0  0  0  0
M  END
>  <minimizedAffinity>
-3.95800686

$$$$
