
 OpenBabel03262522183D

 22 23  0  0  0  0  0  0  0  0999 V2000
   37.1760   33.6230   49.8420 O   0  0  0  0  0  0  0  0  0  0  0  0
   38.3800   32.9610   49.1640 P   0  0  1  0  0  0  0  0  0  0  0  0
   39.7700   33.8150   49.6820 O   0  0  0  0  0  0  0  0  0  0  0  0
   40.2210   34.2510   48.9230 H   0  0  0  0  0  0  0  0  0  0  0  0
   38.5320   31.3980   49.7690 O   0  0  0  0  0  0  0  0  0  0  0  0
   37.0860   30.2210   51.2800 C   0  0  0  0  0  0  0  0  0  0  0  0
   37.5210   30.4860   49.9590 C   0  0  0  0  0  0  0  0  0  0  0  0
   36.8800   29.7900   48.9340 C   0  0  0  0  0  0  0  0  0  0  0  0
   35.8900   28.9070   49.2490 N   0  0  0  0  0  0  0  0  0  0  0  0
   35.5150   28.6930   50.5200 C   0  0  0  0  0  0  0  0  0  0  0  0
   36.1130   29.3520   51.5570 N   0  0  0  0  0  0  0  0  0  0  0  0
   37.5820   30.7600   52.0700 H   0  0  0  0  0  0  0  0  0  0  0  0
   37.1990   29.9780   47.9180 H   0  0  0  0  0  0  0  0  0  0  0  0
   34.7410   28.0080   50.8140 H   0  0  0  0  0  0  0  0  0  0  0  0
   38.1590   33.0700   47.5250 O   0  0  0  0  0  0  0  0  0  0  0  0
   39.0390   32.4560   46.6380 C   0  0  0  0  0  0  0  0  0  0  0  0
   40.1210   33.0930   46.0660 C   0  0  0  0  0  0  0  0  0  0  0  0
   40.9760   32.4560   45.1890 C   0  0  0  0  0  0  0  0  0  0  0  0
   41.8240   33.0100   44.7610 H   0  0  0  0  0  0  0  0  0  0  0  0
   40.7290   31.1750   44.8980 N   0  0  0  0  0  0  0  0  0  0  0  0
   39.6710   30.5160   45.4440 C   0  0  0  0  0  0  0  0  0  0  0  0
   38.8310   31.1520   46.3100 N   0  0  0  0  0  0  0  0  0  0  0  0
  2  3  1  0  0  0  0
  2  5  1  0  0  0  0
  2  1  2  1  0  0  0
  4  3  1  0  0  0  0
  5  7  1  0  0  0  0
  6 11  1  0  0  0  0
  6 12  1  0  0  0  0
  7  6  2  0  0  0  0
  8  9  2  0  0  0  0
  8  7  1  0  0  0  0
  9 10  1  0  0  0  0
 10 14  1  0  0  0  0
 10 11  2  0  0  0  0
 13  8  1  0  0  0  0
 15  2  1  0  0  0  0
 16 15  1  0  0  0  0
 17 16  2  0  0  0  0
 18 17  1  0  0  0  0
 19 18  1  0  0  0  0
 20 18  2  0  0  0  0
 20 21  1  0  0  0  0
 21 22  2  0  0  0  0
 22 16  1  0  0  0  0
M  END
>  <minimizedAffinity>
-4.5429492

>  <minimizedRMSD>
0.97881943

$$$$
