
 OpenBabel03272507283D

 39 41  0  0  1  0  0  0  0  0999 V2000
   37.8850   30.3960   48.8590 C   0  0  0  0  0  0  0  0  0  0  0  0
   37.9980   30.8030   47.5120 C   0  0  0  0  0  0  0  0  0  0  0  0
   36.8630   30.6600   46.7140 C   0  0  0  0  0  0  0  0  0  0  0  0
   35.7410   30.1540   47.2520 N   0  0  0  0  0  0  0  0  0  0  0  0
   35.6710   29.7760   48.5420 C   0  0  0  0  0  0  0  0  0  0  0  0
   36.7320   29.8970   49.3340 N   0  0  0  0  0  0  0  0  0  0  0  0
   36.8930   31.0340   45.3720 N   0  0  0  0  0  0  0  0  0  0  0  0
   37.7030   32.1420   44.7970 C   0  0  0  0  0  0  0  0  0  0  0  0
   37.2440   32.3660   43.4110 C   0  0  0  0  0  0  0  0  0  0  0  0
   35.9450   31.7060   43.3620 C   0  0  0  0  0  0  0  0  0  0  0  0
   36.1940   30.5330   44.2330 C   0  0  2  0  0  0  0  0  0  0  0  0
   38.8310   30.5520   49.3890 H   0  0  0  0  0  0  0  0  0  0  0  0
   38.8680   31.2070   47.0470 H   0  0  0  0  0  0  0  0  0  0  0  0
   34.8090   29.3660   49.0380 H   0  0  0  0  0  0  0  0  0  0  0  0
   38.7340   32.1640   45.0490 H   0  0  0  0  0  0  0  0  0  0  0  0
   37.2840   33.0090   45.4560 H   0  0  0  0  0  0  0  0  0  0  0  0
   36.9170   33.5060   43.4270 H   0  0  0  0  0  0  0  0  0  0  0  0
   37.9120   32.4250   42.5900 H   0  0  0  0  0  0  0  0  0  0  0  0
   35.1070   32.3090   43.7690 H   0  0  0  0  0  0  0  0  0  0  0  0
   35.6230   31.3430   42.3630 H   0  0  0  0  0  0  0  0  0  0  0  0
   34.8690   29.8360   44.5570 C   0  0  0  0  0  0  0  0  0  0  0  0
   34.2100   30.5850   45.5070 F   0  0  0  0  0  0  0  0  0  0  0  0
   34.9810   28.5750   45.0640 F   0  0  0  0  0  0  0  0  0  0  0  0
   34.1070   29.8890   43.4110 F   0  0  0  0  0  0  0  0  0  0  0  0
   37.0230   29.5410   43.6130 C   0  0  2  0  0  0  0  0  0  0  0  0
   37.5300   28.9260   44.3210 H   0  0  0  0  0  0  0  0  0  0  0  0
   38.3350   30.0130   42.8600 C   0  0  0  0  0  0  0  0  0  0  0  0
   38.3660   30.4260   41.5340 C   0  0  0  0  0  3  0  0  0  0  0  0
   39.5720   30.7460   40.9620 C   0  0  0  0  0  0  0  0  0  0  0  0
   39.4770   31.0540   39.9280 H   0  0  0  0  0  0  0  0  0  0  0  0
   40.7130   30.6680   41.6540 N   0  0  0  0  0  0  0  0  0  0  0  0
   40.7180   30.2730   42.9320 C   0  0  0  0  0  3  0  0  0  0  0  0
   39.5460   29.9720   43.4560 N   0  0  0  0  0  0  0  0  0  0  0  0
   36.3860   29.0440   42.6500 O   0  0  0  0  0  0  0  0  0  0  0  0
   36.2790   27.8860   41.9790 C   0  0  0  0  0  0  0  0  0  0  0  0
   35.2270   27.8140   41.3420 O   0  0  0  0  0  0  0  0  0  0  0  0
   36.8420   26.6290   41.6310 N   0  0  0  0  0  0  0  0  0  0  0  0
   36.8250   25.7460   42.1940 H   0  0  0  0  0  0  0  0  0  0  0  0
   37.3600   26.4590   40.7170 H   0  0  0  0  0  0  0  0  0  0  0  0
  1  6  1  0  0  0  0
  1 12  1  0  0  0  0
  2  1  2  0  0  0  0
  3  4  2  0  0  0  0
  3  2  1  0  0  0  0
  4  5  1  0  0  0  0
  5 14  1  0  0  0  0
  5  6  2  0  0  0  0
  7  3  1  0  0  0  0
  8 15  1  0  0  0  0
  8  7  1  0  0  0  0
  8 16  1  0  0  0  0
  9 17  1  0  0  0  0
  9  8  1  0  0  0  0
 10  9  1  0  0  0  0
 10 19  1  0  0  0  0
 10 11  1  0  0  0  0
 11 21  1  1  0  0  0
 11  7  1  0  0  0  0
 13  2  1  0  0  0  0
 18  9  1  0  0  0  0
 20 10  1  0  0  0  0
 21 23  1  0  0  0  0
 21 22  1  0  0  0  0
 24 21  1  0  0  0  0
 25 11  1  0  0  0  0
 25 26  1  1  0  0  0
 27 33  1  0  0  0  0
 27 25  1  0  0  0  0
 28 27  2  0  0  0  0
 29 28  1  0  0  0  0
 29 31  2  0  0  0  0
 30 29  1  0  0  0  0
 31 32  1  0  0  0  0
 32 33  2  0  0  0  0
 34 25  1  0  0  0  0
 35 34  1  0  0  0  0
 36 35  2  0  0  0  0
 37 35  1  0  0  0  0
 37 38  1  0  0  0  0
 39 37  1  0  0  0  0
M  END
>  <minimizedAffinity>
-4.11422682

>  <minimizedRMSD>
3.83601618

$$$$
