
 OpenBabel03272509503D

 31 33  0  0  0  0  0  0  0  0999 V2000
   34.6260   28.1860   49.7360 O   0  0  0  0  0  0  0  0  0  0  0  0
   37.1560   30.1200   51.4490 C   0  0  0  0  0  0  0  0  0  0  0  0
   37.7510   30.7810   50.3450 C   0  0  0  0  0  0  0  0  0  0  0  0
   37.2440   30.5170   49.0850 C   0  0  0  0  0  0  0  0  0  0  0  0
   36.2060   29.6440   48.9750 N   0  0  0  0  0  0  0  0  0  0  0  0
   35.6650   29.0330   50.0490 C   0  0  0  0  0  0  0  0  0  0  0  0
   36.1490   29.2770   51.2990 N   0  0  0  0  0  0  0  0  0  0  0  0
   37.5760   30.3480   52.4190 H   0  0  0  0  0  0  0  0  0  0  0  0
   38.5750   31.4720   50.4510 H   0  0  0  0  0  0  0  0  0  0  0  0
   37.7510   31.1190   47.8580 C   0  0  0  0  0  0  0  0  0  0  0  0
   38.8280   31.9650   47.8430 C   0  0  0  0  0  3  0  0  0  0  0  0
   39.2890   32.5220   46.6720 C   0  0  0  0  0  0  0  0  0  0  0  0
   40.1410   33.1920   46.6440 H   0  0  0  0  0  0  0  0  0  0  0  0
   38.6870   32.2430   45.5180 N   0  0  0  0  0  0  0  0  0  0  0  0
   37.6290   31.4150   45.5190 C   0  0  0  0  0  3  0  0  0  0  0  0
   37.1910   30.8820   46.6600 N   0  0  0  0  0  0  0  0  0  0  0  0
   33.7270   28.6070   48.7080 C   0  0  0  0  0  0  0  0  0  0  0  0
   33.1840   29.4980   49.0430 H   0  0  0  0  0  0  0  0  0  0  0  0
   34.3540   28.9120   47.8450 H   0  0  0  0  0  0  0  0  0  0  0  0
   32.8200   27.4620   48.3240 C   0  0  0  0  0  0  0  0  0  0  0  0
   32.9490   26.5890   48.9730 H   0  0  0  0  0  0  0  0  0  0  0  0
   33.0630   27.1500   47.2740 H   0  0  0  0  0  0  0  0  0  0  0  0
   31.3870   27.8640   48.3320 C   0  0  0  0  0  0  0  0  0  0  0  0
   30.7080   27.7350   49.5230 C   0  0  0  0  0  0  0  0  0  0  0  0
   29.3730   28.0750   49.6570 C   0  0  0  0  0  0  0  0  0  0  0  0
   28.7210   28.5440   48.6010 N   0  0  0  0  0  0  0  0  0  0  0  0
   29.3830   28.6740   47.4260 C   0  0  0  0  0  0  0  0  0  0  0  0
   30.6850   28.3480   47.2750 N   0  0  0  0  0  0  0  0  0  0  0  0
   31.2100   27.3540   50.4080 H   0  0  0  0  0  0  0  0  0  0  0  0
   28.8300   27.9810   50.5720 H   0  0  0  0  0  0  0  0  0  0  0  0
   28.9290   29.0530   46.4990 H   0  0  0  0  0  0  0  0  0  0  0  0
  1  6  1  0  0  0  0
  2  8  1  0  0  0  0
  3  9  1  0  0  0  0
  3  2  2  0  0  0  0
  4  3  1  0  0  0  0
  5  4  2  0  0  0  0
  5  6  1  0  0  0  0
  6  7  2  0  0  0  0
  7  2  1  0  0  0  0
 10  4  1  0  0  0  0
 11 10  1  0  0  0  0
 12 11  2  0  0  0  0
 13 12  1  0  0  0  0
 14 15  2  0  0  0  0
 14 12  1  0  0  0  0
 15 16  1  0  0  0  0
 16 10  2  0  0  0  0
 17 18  1  0  0  0  0
 17  1  1  0  0  0  0
 19 17  1  0  0  0  0
 20 23  1  0  0  0  0
 20 17  1  0  0  0  0
 20 21  1  0  0  0  0
 22 20  1  0  0  0  0
 23 24  1  0  0  0  0
 24 25  2  0  0  0  0
 24 29  1  0  0  0  0
 25 30  1  0  0  0  0
 26 25  1  0  0  0  0
 27 26  2  0  0  0  0
 28 27  1  0  0  0  0
 28 23  2  0  0  0  0
 31 27  1  0  0  0  0
M  END
>  <minimizedAffinity>
-5.65993023

>  <minimizedRMSD>
0.520870388

$$$$
