
 OpenBabel03272504433D

 43 45  0  0  0  0  0  0  0  0999 V2000
   37.9670   27.5260   32.7420 C   0  0  0  0  0  0  0  0  0  0  0  0
   38.6490   28.0680   33.4360 H   0  0  0  0  0  0  0  0  0  0  0  0
   38.5120   27.5930   31.7530 H   0  0  0  0  0  0  0  0  0  0  0  0
   38.5540   26.9420   35.6000 Cl  0  0  0  0  0  0  0  0  0  0  0  0
   38.1810   25.7080   34.3990 C   0  0  0  0  0  0  0  0  0  0  0  0
   38.1540   24.4100   34.7750 C   0  0  0  0  0  0  0  0  0  0  0  0
   37.8640   23.4320   33.8480 C   0  0  0  0  0  0  0  0  0  0  0  0
   37.6030   23.8080   32.5340 C   0  0  0  0  0  0  0  0  0  0  0  0
   37.6490   25.1810   32.2220 C   0  0  0  0  0  0  0  0  0  0  0  0
   37.9310   26.1440   33.1160 C   0  0  0  0  0  0  0  0  0  0  0  0
   37.8500   22.3870   34.1780 H   0  0  0  0  0  0  0  0  0  0  0  0
   37.3890   22.9790   31.8950 H   0  0  0  0  0  0  0  0  0  0  0  0
   37.4360   25.2520   31.2190 H   0  0  0  0  0  0  0  0  0  0  0  0
   38.0260   24.1520   38.4500 C   0  0  0  0  0  0  0  0  0  0  0  0
   39.0690   23.1860   38.6810 C   0  0  0  0  0  0  0  0  0  0  0  0
   39.7550   22.6780   37.5780 C   0  0  0  0  0  0  0  0  0  0  0  0
   39.4150   23.1110   36.3350 N   0  0  0  0  0  0  0  0  0  0  0  0
   38.4310   24.0190   36.1480 C   0  0  0  0  0  0  0  0  0  0  0  0
   37.7540   24.5250   37.1930 N   0  0  0  0  0  0  0  0  0  0  0  0
   37.4770   24.5660   39.2630 H   0  0  0  0  0  0  0  0  0  0  0  0
   39.2630   22.9060   39.7060 H   0  0  0  0  0  0  0  0  0  0  0  0
   40.7610   21.7420   37.8470 N   0  0  0  0  0  0  0  0  0  0  0  0
   40.7070   20.8400   38.3450 H   0  0  0  0  0  0  0  0  0  0  0  0
   41.7530   21.8710   37.5460 H   0  0  0  0  0  0  0  0  0  0  0  0
   36.7220   28.2960   32.6500 C   0  0  0  0  0  0  0  0  0  0  0  0
   36.0330   27.9400   31.8510 H   0  0  0  0  0  0  0  0  0  0  0  0
   36.9690   29.3560   32.3520 H   0  0  0  0  0  0  0  0  0  0  0  0
   36.0400   28.2920   33.8390 O   0  0  0  0  0  0  0  0  0  0  0  0
   35.3520   30.6280   32.8590 O   0  0  0  0  0  0  0  0  0  0  0  0
   35.2760   29.7500   34.0820 P   0  0  2  0  0  0  0  0  0  0  0  0
   36.1090   30.5250   35.3890 O   0  0  0  0  0  0  0  0  0  0  0  0
   35.7090   31.7530   35.8860 C   0  0  0  0  0  0  0  0  0  0  0  0
   34.7590   32.0150   36.8610 C   0  0  0  0  0  3  0  0  0  0  0  0
   34.4830   33.3090   37.2400 C   0  0  0  0  0  0  0  0  0  0  0  0
   33.7340   33.4780   38.0040 H   0  0  0  0  0  0  0  0  0  0  0  0
   35.1600   34.3230   36.6400 N   0  0  0  0  0  0  0  0  0  0  0  0
   36.0830   34.0620   35.6940 C   0  0  0  0  0  3  0  0  0  0  0  0
   36.3720   32.7880   35.3030 N   0  0  0  0  0  0  0  0  0  0  0  0
   33.7050   29.6020   34.5730 O   0  0  0  0  0  0  0  0  0  0  0  0
   32.8710   29.3820   33.5020 C   0  0  0  0  0  0  0  0  0  0  0  0
   33.4710   28.6050   32.5140 F   0  0  0  0  0  0  0  0  0  0  0  0
   31.7270   28.6940   33.8790 F   0  0  0  0  0  0  0  0  0  0  0  0
   32.4960   30.5930   32.9330 F   0  0  0  0  0  0  0  0  0  0  0  0
  1 10  1  0  0  0  0
  1  2  1  0  0  0  0
  3  1  1  0  0  0  0
  5  6  1  0  0  0  0
  5  4  1  0  0  0  0
  6 18  1  0  0  0  0
  7 11  1  0  0  0  0
  7  6  2  0  0  0  0
  8  7  1  0  0  0  0
  9  8  2  0  0  0  0
  9 10  1  0  0  0  0
 10  5  2  0  0  0  0
 12  8  1  0  0  0  0
 13  9  1  0  0  0  0
 14 15  1  0  0  0  0
 14 20  1  0  0  0  0
 15 21  1  0  0  0  0
 16 22  1  0  0  0  0
 16 15  2  0  0  0  0
 17 16  1  0  0  0  0
 18 17  2  0  0  0  0
 18 19  1  0  0  0  0
 19 14  2  0  0  0  0
 22 23  1  0  0  0  0
 24 22  1  0  0  0  0
 25  1  1  0  0  0  0
 25 28  1  0  0  0  0
 26 25  1  0  0  0  0
 27 25  1  0  0  0  0
 28 30  1  0  0  0  0
 30 29  2  6  0  0  0
 30 39  1  0  0  0  0
 30 31  1  0  0  0  0
 31 32  1  0  0  0  0
 32 33  1  0  0  0  0
 33 34  2  0  0  0  0
 34 35  1  0  0  0  0
 36 34  1  0  0  0  0
 37 36  2  0  0  0  0
 38 37  1  0  0  0  0
 38 32  2  0  0  0  0
 40 42  1  0  0  0  0
 40 39  1  0  0  0  0
 41 40  1  0  0  0  0
 43 40  1  0  0  0  0
M  END
>  <minimizedAffinity>
-6.32512665

$$$$

 OpenBabel03272504433D

 43 45  0  0  0  0  0  0  0  0999 V2000
   37.8040   27.5000   32.6790 C   0  0  0  0  0  0  0  0  0  0  0  0
   38.5220   27.9930   33.3730 H   0  0  0  0  0  0  0  0  0  0  0  0
   38.2760   27.6750   31.6660 H   0  0  0  0  0  0  0  0  0  0  0  0
   39.4560   26.6060   34.9880 Cl  0  0  0  0  0  0  0  0  0  0  0  0
   38.5420   25.5140   33.9490 C   0  0  0  0  0  0  0  0  0  0  0  0
   38.5780   24.1860   34.1950 C   0  0  0  0  0  0  0  0  0  0  0  0
   37.8690   23.3180   33.3920 C   0  0  0  0  0  0  0  0  0  0  0  0
   37.1260   23.8370   32.3360 C   0  0  0  0  0  0  0  0  0  0  0  0
   37.1380   25.2320   32.1450 C   0  0  0  0  0  0  0  0  0  0  0  0
   37.8260   26.0880   32.9200 C   0  0  0  0  0  0  0  0  0  0  0  0
   37.9160   22.2460   33.6130 H   0  0  0  0  0  0  0  0  0  0  0  0
   36.6140   23.0840   31.7750 H   0  0  0  0  0  0  0  0  0  0  0  0
   36.5420   25.4130   31.3270 H   0  0  0  0  0  0  0  0  0  0  0  0
   41.3570   22.8230   36.1980 C   0  0  0  0  0  0  0  0  0  0  0  0
   40.6990   22.6370   37.4660 C   0  0  0  0  0  0  0  0  0  0  0  0
   39.3510   22.9840   37.5680 C   0  0  0  0  0  0  0  0  0  0  0  0
   38.7150   23.4820   36.4740 N   0  0  0  0  0  0  0  0  0  0  0  0
   39.3590   23.6470   35.2970 C   0  0  0  0  0  0  0  0  0  0  0  0
   40.6560   23.3200   35.1710 N   0  0  0  0  0  0  0  0  0  0  0  0
   42.3840   22.5710   36.0760 H   0  0  0  0  0  0  0  0  0  0  0  0
   41.2920   22.2350   38.2740 H   0  0  0  0  0  0  0  0  0  0  0  0
   38.7500   22.7870   38.8170 N   0  0  0  0  0  0  0  0  0  0  0  0
   39.0120   23.1610   39.7420 H   0  0  0  0  0  0  0  0  0  0  0  0
   37.9040   22.1900   38.9530 H   0  0  0  0  0  0  0  0  0  0  0  0
   36.5390   28.2390   32.7470 C   0  0  0  0  0  0  0  0  0  0  0  0
   35.7290   27.7990   32.1230 H   0  0  0  0  0  0  0  0  0  0  0  0
   36.6950   29.2700   32.3150 H   0  0  0  0  0  0  0  0  0  0  0  0
   36.0840   28.3370   34.0360 O   0  0  0  0  0  0  0  0  0  0  0  0
   35.2940   30.6260   33.0220 O   0  0  0  0  0  0  0  0  0  0  0  0
   35.2800   29.7760   34.2670 P   0  0  2  0  0  0  0  0  0  0  0  0
   36.1230   30.6080   35.5310 O   0  0  0  0  0  0  0  0  0  0  0  0
   35.8500   31.9270   35.8480 C   0  0  0  0  0  0  0  0  0  0  0  0
   36.4210   33.0730   35.3170 C   0  0  0  0  0  3  0  0  0  0  0  0
   36.0260   34.3180   35.7510 C   0  0  0  0  0  0  0  0  0  0  0  0
   36.4930   35.1930   35.3150 H   0  0  0  0  0  0  0  0  0  0  0  0
   35.0670   34.4010   36.7110 N   0  0  0  0  0  0  0  0  0  0  0  0
   34.5160   33.2840   37.2230 C   0  0  0  0  0  3  0  0  0  0  0  0
   34.8920   32.0410   36.8080 N   0  0  0  0  0  0  0  0  0  0  0  0
   33.7280   29.5900   34.8050 O   0  0  0  0  0  0  0  0  0  0  0  0
   32.8500   29.4760   33.7530 C   0  0  0  0  0  0  0  0  0  0  0  0
   33.3810   28.7370   32.6970 F   0  0  0  0  0  0  0  0  0  0  0  0
   31.6880   28.8170   34.1270 F   0  0  0  0  0  0  0  0  0  0  0  0
   32.5140   30.7370   33.2730 F   0  0  0  0  0  0  0  0  0  0  0  0
  1 25  1  0  0  0  0
  1 10  1  0  0  0  0
  1  2  1  0  0  0  0
  3  1  1  0  0  0  0
  5  6  1  0  0  0  0
  5  4  1  0  0  0  0
  6 18  1  0  0  0  0
  7 11  1  0  0  0  0
  7  6  2  0  0  0  0
  8  7  1  0  0  0  0
  9  8  2  0  0  0  0
  9 10  1  0  0  0  0
 10  5  2  0  0  0  0
 12  8  1  0  0  0  0
 13  9  1  0  0  0  0
 14 15  1  0  0  0  0
 15 16  2  0  0  0  0
 15 21  1  0  0  0  0
 16 22  1  0  0  0  0
 17 16  1  0  0  0  0
 18 17  2  0  0  0  0
 19 18  1  0  0  0  0
 19 14  2  0  0  0  0
 20 14  1  0  0  0  0
 22 24  1  0  0  0  0
 22 23  1  0  0  0  0
 25 28  1  0  0  0  0
 26 25  1  0  0  0  0
 27 25  1  0  0  0  0
 28 30  1  0  0  0  0
 30 29  2  6  0  0  0
 30 39  1  0  0  0  0
 30 31  1  0  0  0  0
 31 32  1  0  0  0  0
 32 38  1  0  0  0  0
 33 34  1  0  0  0  0
 33 32  2  0  0  0  0
 34 36  2  0  0  0  0
 35 34  1  0  0  0  0
 36 37  1  0  0  0  0
 38 37  2  0  0  0  0
 40 42  1  0  0  0  0
 40 39  1  0  0  0  0
 41 40  1  0  0  0  0
 43 40  1  0  0  0  0
M  END
>  <minimizedAffinity>
-6.05798912

$$$$

 OpenBabel03272504433D

 43 45  0  0  0  0  0  0  0  0999 V2000
   37.3950   28.0780   32.2590 C   0  0  0  0  0  0  0  0  0  0  0  0
   37.8980   28.1730   31.2700 H   0  0  0  0  0  0  0  0  0  0  0  0
   38.1890   28.4410   32.9780 H   0  0  0  0  0  0  0  0  0  0  0  0
   36.2740   28.5980   34.9670 Cl  0  0  0  0  0  0  0  0  0  0  0  0
   35.6810   29.3590   33.4920 C   0  0  0  0  0  0  0  0  0  0  0  0
   34.6550   30.2350   33.5700 C   0  0  0  0  0  0  0  0  0  0  0  0
   34.1790   30.8400   32.4260 C   0  0  0  0  0  0  0  0  0  0  0  0
   34.7730   30.5300   31.2060 C   0  0  0  0  0  0  0  0  0  0  0  0
   35.8370   29.6080   31.2080 C   0  0  0  0  0  0  0  0  0  0  0  0
   36.3100   29.0120   32.3160 C   0  0  0  0  0  0  0  0  0  0  0  0
   33.3460   31.5460   32.5170 H   0  0  0  0  0  0  0  0  0  0  0  0
   34.3330   31.0500   30.3830 H   0  0  0  0  0  0  0  0  0  0  0  0
   36.1320   29.5110   30.2280 H   0  0  0  0  0  0  0  0  0  0  0  0
   32.3380   30.2880   36.4370 C   0  0  0  0  0  0  0  0  0  0  0  0
   32.9830   31.2640   37.2770 C   0  0  0  0  0  0  0  0  0  0  0  0
   34.1660   31.8480   36.8230 C   0  0  0  0  0  0  0  0  0  0  0  0
   34.6620   31.4750   35.6130 N   0  0  0  0  0  0  0  0  0  0  0  0
   34.0350   30.5550   34.8460 C   0  0  0  0  0  0  0  0  0  0  0  0
   32.8930   29.9780   35.2590 N   0  0  0  0  0  0  0  0  0  0  0  0
   31.4330   29.8180   36.7440 H   0  0  0  0  0  0  0  0  0  0  0  0
   32.5090   31.4910   38.2210 H   0  0  0  0  0  0  0  0  0  0  0  0
   34.7600   32.7900   37.6700 N   0  0  0  0  0  0  0  0  0  0  0  0
   35.0740   32.6940   38.6480 H   0  0  0  0  0  0  0  0  0  0  0  0
   34.9640   33.7710   37.3750 H   0  0  0  0  0  0  0  0  0  0  0  0
   37.1530   26.6520   32.5010 C   0  0  0  0  0  0  0  0  0  0  0  0
   37.5850   25.9860   31.7220 H   0  0  0  0  0  0  0  0  0  0  0  0
   36.0420   26.4570   32.4510 H   0  0  0  0  0  0  0  0  0  0  0  0
   37.6390   26.2600   33.7210 O   0  0  0  0  0  0  0  0  0  0  0  0
   38.9120   24.6330   32.1020 O   0  0  0  0  0  0  0  0  0  0  0  0
   38.7790   25.0610   33.5420 P   0  0  2  0  0  0  0  0  0  0  0  0
   38.2240   23.7170   34.4840 O   0  0  0  0  0  0  0  0  0  0  0  0
   38.3990   23.6620   35.8550 C   0  0  0  0  0  0  0  0  0  0  0  0
   37.6720   24.3140   36.8390 C   0  0  0  0  0  3  0  0  0  0  0  0
   37.9840   24.1440   38.1690 C   0  0  0  0  0  0  0  0  0  0  0  0
   37.3970   24.6690   38.9120 H   0  0  0  0  0  0  0  0  0  0  0  0
   39.0180   23.3240   38.4970 N   0  0  0  0  0  0  0  0  0  0  0  0
   39.7190   22.6930   37.5360 C   0  0  0  0  0  3  0  0  0  0  0  0
   39.4280   22.8470   36.2130 N   0  0  0  0  0  0  0  0  0  0  0  0
   40.2630   25.4580   34.1520 O   0  0  0  0  0  0  0  0  0  0  0  0
   40.4490   26.8200   34.1510 C   0  0  0  0  0  0  0  0  0  0  0  0
   41.7290   27.1800   34.5720 F   0  0  0  0  0  0  0  0  0  0  0  0
   40.3080   27.3540   32.8780 F   0  0  0  0  0  0  0  0  0  0  0  0
   39.5280   27.4290   34.9960 F   0  0  0  0  0  0  0  0  0  0  0  0
  1 10  1  0  0  0  0
  1 25  1  0  0  0  0
  1  3  1  0  0  0  0
  2  1  1  0  0  0  0
  5  6  1  0  0  0  0
  5  4  1  0  0  0  0
  6 18  1  0  0  0  0
  7 11  1  0  0  0  0
  7  6  2  0  0  0  0
  8  9  2  0  0  0  0
  8  7  1  0  0  0  0
  9 10  1  0  0  0  0
 10  5  2  0  0  0  0
 12  8  1  0  0  0  0
 13  9  1  0  0  0  0
 14 20  1  0  0  0  0
 14 15  1  0  0  0  0
 15 21  1  0  0  0  0
 16 15  2  0  0  0  0
 16 22  1  0  0  0  0
 17 16  1  0  0  0  0
 18 19  1  0  0  0  0
 18 17  2  0  0  0  0
 19 14  2  0  0  0  0
 22 23  1  0  0  0  0
 24 22  1  0  0  0  0
 25 28  1  0  0  0  0
 26 25  1  0  0  0  0
 27 25  1  0  0  0  0
 30 29  2  6  0  0  0
 30 28  1  0  0  0  0
 30 39  1  0  0  0  0
 30 31  1  0  0  0  0
 31 32  1  0  0  0  0
 32 38  2  0  0  0  0
 32 33  1  0  0  0  0
 33 34  2  0  0  0  0
 34 36  1  0  0  0  0
 34 35  1  0  0  0  0
 37 36  2  0  0  0  0
 38 37  1  0  0  0  0
 40 39  1  0  0  0  0
 40 41  1  0  0  0  0
 40 43  1  0  0  0  0
 42 40  1  0  0  0  0
M  END
>  <minimizedAffinity>
-6.01961994

$$$$

 OpenBabel03272504433D

 43 45  0  0  0  0  0  0  0  0999 V2000
   37.0880   28.0740   33.6940 C   0  0  0  0  0  0  0  0  0  0  0  0
   37.9560   28.5720   34.1820 H   0  0  0  0  0  0  0  0  0  0  0  0
   37.1180   28.4930   32.6440 H   0  0  0  0  0  0  0  0  0  0  0  0
   38.7540   26.9240   35.8740 Cl  0  0  0  0  0  0  0  0  0  0  0  0
   38.1090   25.9870   34.5290 C   0  0  0  0  0  0  0  0  0  0  0  0
   38.3750   24.6630   34.4610 C   0  0  0  0  0  0  0  0  0  0  0  0
   37.8770   23.9160   33.4150 C   0  0  0  0  0  0  0  0  0  0  0  0
   37.1070   24.5480   32.4440 C   0  0  0  0  0  0  0  0  0  0  0  0
   36.8740   25.9300   32.5860 C   0  0  0  0  0  0  0  0  0  0  0  0
   37.3540   26.6700   33.6000 C   0  0  0  0  0  0  0  0  0  0  0  0
   38.1080   22.8450   33.3830 H   0  0  0  0  0  0  0  0  0  0  0  0
   36.7700   23.8830   31.6780 H   0  0  0  0  0  0  0  0  0  0  0  0
   36.2980   26.2060   31.7810 H   0  0  0  0  0  0  0  0  0  0  0  0
   41.2110   23.1200   36.2390 C   0  0  0  0  0  0  0  0  0  0  0  0
   40.5770   22.7570   37.4800 C   0  0  0  0  0  0  0  0  0  0  0  0
   39.2230   23.0570   37.6420 C   0  0  0  0  0  0  0  0  0  0  0  0
   38.5600   23.6760   36.6290 N   0  0  0  0  0  0  0  0  0  0  0  0
   39.1830   24.0060   35.4750 C   0  0  0  0  0  0  0  0  0  0  0  0
   40.4850   23.7280   35.2930 N   0  0  0  0  0  0  0  0  0  0  0  0
   42.2420   22.9100   36.0730 H   0  0  0  0  0  0  0  0  0  0  0  0
   41.1900   22.2690   38.2220 H   0  0  0  0  0  0  0  0  0  0  0  0
   38.6450   22.6870   38.8620 N   0  0  0  0  0  0  0  0  0  0  0  0
   38.9130   22.9450   39.8240 H   0  0  0  0  0  0  0  0  0  0  0  0
   37.8140   22.0580   38.9300 H   0  0  0  0  0  0  0  0  0  0  0  0
   35.8700   28.5500   34.3590 C   0  0  0  0  0  0  0  0  0  0  0  0
   35.5700   27.9360   35.2360 H   0  0  0  0  0  0  0  0  0  0  0  0
   35.0020   28.4560   33.6420 H   0  0  0  0  0  0  0  0  0  0  0  0
   35.9980   29.8520   34.7680 O   0  0  0  0  0  0  0  0  0  0  0  0
   33.4130   30.0150   35.1930 O   0  0  0  0  0  0  0  0  0  0  0  0
   34.5810   30.6880   34.5180 P   0  0  2  0  0  0  0  0  0  0  0  0
   34.3160   30.6970   32.8050 O   0  0  0  0  0  0  0  0  0  0  0  0
   35.3430   30.9250   31.9070 C   0  0  0  0  0  0  0  0  0  0  0  0
   35.7970   30.0950   30.8940 C   0  0  0  0  0  3  0  0  0  0  0  0
   36.8390   30.4830   30.0840 C   0  0  0  0  0  0  0  0  0  0  0  0
   37.1690   29.8100   29.3020 H   0  0  0  0  0  0  0  0  0  0  0  0
   37.4140   31.6970   30.2980 N   0  0  0  0  0  0  0  0  0  0  0  0
   36.9690   32.4990   31.2820 C   0  0  0  0  0  3  0  0  0  0  0  0
   35.9370   32.1340   32.0970 N   0  0  0  0  0  0  0  0  0  0  0  0
   34.6570   32.2750   34.9710 O   0  0  0  0  0  0  0  0  0  0  0  0
   35.4560   32.4350   36.0780 C   0  0  0  0  0  0  0  0  0  0  0  0
   35.0940   31.5840   37.1210 F   0  0  0  0  0  0  0  0  0  0  0  0
   36.7830   32.1420   35.7970 F   0  0  0  0  0  0  0  0  0  0  0  0
   35.3760   33.7440   36.5400 F   0  0  0  0  0  0  0  0  0  0  0  0
  1  2  1  0  0  0  0
  1 25  1  0  0  0  0
  3  1  1  0  0  0  0
  5  4  1  0  0  0  0
  6  5  1  0  0  0  0
  6 18  1  0  0  0  0
  7  6  2  0  0  0  0
  8  9  2  0  0  0  0
  8  7  1  0  0  0  0
  9 10  1  0  0  0  0
 10  1  1  0  0  0  0
 10  5  2  0  0  0  0
 11  7  1  0  0  0  0
 12  8  1  0  0  0  0
 13  9  1  0  0  0  0
 14 15  1  0  0  0  0
 15 16  2  0  0  0  0
 15 21  1  0  0  0  0
 16 22  1  0  0  0  0
 17 16  1  0  0  0  0
 18 17  2  0  0  0  0
 19 18  1  0  0  0  0
 19 14  2  0  0  0  0
 20 14  1  0  0  0  0
 22 24  1  0  0  0  0
 22 23  1  0  0  0  0
 25 28  1  0  0  0  0
 25 26  1  0  0  0  0
 27 25  1  0  0  0  0
 30 28  1  0  0  0  0
 30 39  1  0  0  0  0
 30 29  2  1  0  0  0
 31 30  1  0  0  0  0
 32 38  1  0  0  0  0
 32 31  1  0  0  0  0
 33 32  2  0  0  0  0
 34 36  2  0  0  0  0
 34 33  1  0  0  0  0
 35 34  1  0  0  0  0
 36 37  1  0  0  0  0
 37 38  2  0  0  0  0
 39 40  1  0  0  0  0
 40 43  1  0  0  0  0
 40 41  1  0  0  0  0
 42 40  1  0  0  0  0
M  END
>  <minimizedAffinity>
-5.9207468

$$$$

 OpenBabel03272504433D

 43 45  0  0  0  0  0  0  0  0999 V2000
   39.2620   25.9510   33.7750 C   0  0  0  0  0  0  0  0  0  0  0  0
   40.3510   26.1160   33.6040 H   0  0  0  0  0  0  0  0  0  0  0  0
   39.1240   26.2910   34.8450 H   0  0  0  0  0  0  0  0  0  0  0  0
   36.9470   27.3030   35.0660 Cl  0  0  0  0  0  0  0  0  0  0  0  0
   37.4250   27.5550   33.3890 C   0  0  0  0  0  0  0  0  0  0  0  0
   36.7110   28.4090   32.6220 C   0  0  0  0  0  0  0  0  0  0  0  0
   37.0710   28.6170   31.3070 C   0  0  0  0  0  0  0  0  0  0  0  0
   38.1720   27.9360   30.7970 C   0  0  0  0  0  0  0  0  0  0  0  0
   38.8640   27.0640   31.6600 C   0  0  0  0  0  0  0  0  0  0  0  0
   38.5230   26.8520   32.9420 C   0  0  0  0  0  0  0  0  0  0  0  0
   36.4760   29.3140   30.7070 H   0  0  0  0  0  0  0  0  0  0  0  0
   38.3690   28.1660   29.7720 H   0  0  0  0  0  0  0  0  0  0  0  0
   39.6290   26.6610   31.1040 H   0  0  0  0  0  0  0  0  0  0  0  0
   34.6000   30.7350   34.5500 C   0  0  0  0  0  0  0  0  0  0  0  0
   33.2930   30.3590   34.0740 C   0  0  0  0  0  0  0  0  0  0  0  0
   33.2040   29.3380   33.1270 C   0  0  0  0  0  0  0  0  0  0  0  0
   34.3460   28.7420   32.6920 N   0  0  0  0  0  0  0  0  0  0  0  0
   35.5590   29.1170   33.1560 C   0  0  0  0  0  0  0  0  0  0  0  0
   35.6740   30.0960   34.0700 N   0  0  0  0  0  0  0  0  0  0  0  0
   34.7140   31.5080   35.2740 H   0  0  0  0  0  0  0  0  0  0  0  0
   32.4480   30.8930   34.4820 H   0  0  0  0  0  0  0  0  0  0  0  0
   31.9160   29.0040   32.6910 N   0  0  0  0  0  0  0  0  0  0  0  0
   31.1920   29.5960   32.2570 H   0  0  0  0  0  0  0  0  0  0  0  0
   31.5230   28.0400   32.7670 H   0  0  0  0  0  0  0  0  0  0  0  0
   39.0130   24.5080   33.7010 C   0  0  0  0  0  0  0  0  0  0  0  0
   39.8290   23.8890   34.1360 H   0  0  0  0  0  0  0  0  0  0  0  0
   38.9780   24.1990   32.6150 H   0  0  0  0  0  0  0  0  0  0  0  0
   37.8380   24.1690   34.3190 O   0  0  0  0  0  0  0  0  0  0  0  0
   39.5380   22.5710   35.5230 O   0  0  0  0  0  0  0  0  0  0  0  0
   38.0760   22.9110   35.3830 P   0  0  2  0  0  0  0  0  0  0  0  0
   37.2380   21.5470   34.7200 O   0  0  0  0  0  0  0  0  0  0  0  0
   37.0670   21.3840   33.3560 C   0  0  0  0  0  0  0  0  0  0  0  0
   35.9170   21.5780   32.6070 C   0  0  0  0  0  3  0  0  0  0  0  0
   35.9240   21.3690   31.2470 C   0  0  0  0  0  0  0  0  0  0  0  0
   35.0080   21.5290   30.6920 H   0  0  0  0  0  0  0  0  0  0  0  0
   37.0800   20.9690   30.6540 N   0  0  0  0  0  0  0  0  0  0  0  0
   38.1940   20.7830   31.3870 C   0  0  0  0  0  3  0  0  0  0  0  0
   38.2100   20.9840   32.7360 N   0  0  0  0  0  0  0  0  0  0  0  0
   37.4110   23.1680   36.8740 O   0  0  0  0  0  0  0  0  0  0  0  0
   38.1940   24.0120   37.6260 C   0  0  0  0  0  0  0  0  0  0  0  0
   38.5970   25.1380   36.9100 F   0  0  0  0  0  0  0  0  0  0  0  0
   37.5090   24.4950   38.7310 F   0  0  0  0  0  0  0  0  0  0  0  0
   39.3320   23.3450   38.0620 F   0  0  0  0  0  0  0  0  0  0  0  0
  1  3  1  0  0  0  0
  2  1  1  0  0  0  0
  5  4  1  0  0  0  0
  6 18  1  0  0  0  0
  6  5  2  0  0  0  0
  7  6  1  0  0  0  0
  8  7  2  0  0  0  0
  8  9  1  0  0  0  0
  9 10  2  0  0  0  0
 10  5  1  0  0  0  0
 10  1  1  0  0  0  0
 11  7  1  0  0  0  0
 12  8  1  0  0  0  0
 13  9  1  0  0  0  0
 14 20  1  0  0  0  0
 15 21  1  0  0  0  0
 15 14  1  0  0  0  0
 16 15  2  0  0  0  0
 17 16  1  0  0  0  0
 17 18  2  0  0  0  0
 18 19  1  0  0  0  0
 19 14  2  0  0  0  0
 22 24  1  0  0  0  0
 22 16  1  0  0  0  0
 23 22  1  0  0  0  0
 25  1  1  0  0  0  0
 25 26  1  0  0  0  0
 25 28  1  0  0  0  0
 27 25  1  0  0  0  0
 28 30  1  0  0  0  0
 30 29  2  1  0  0  0
 30 39  1  0  0  0  0
 31 30  1  0  0  0  0
 32 31  1  0  0  0  0
 33 32  2  0  0  0  0
 34 33  1  0  0  0  0
 35 34  1  0  0  0  0
 36 34  2  0  0  0  0
 36 37  1  0  0  0  0
 37 38  2  0  0  0  0
 38 32  1  0  0  0  0
 39 40  1  0  0  0  0
 40 43  1  0  0  0  0
 40 42  1  0  0  0  0
 41 40  1  0  0  0  0
M  END
>  <minimizedAffinity>
-5.79716873

$$$$

 OpenBabel03272504433D

 43 45  0  0  0  0  0  0  0  0999 V2000
   38.4740   26.7540   32.6580 C   0  0  0  0  0  0  0  0  0  0  0  0
   39.4350   26.9860   32.1460 H   0  0  0  0  0  0  0  0  0  0  0  0
   38.7420   26.8590   33.7510 H   0  0  0  0  0  0  0  0  0  0  0  0
   36.8160   27.7120   34.9370 Cl  0  0  0  0  0  0  0  0  0  0  0  0
   36.6850   28.3340   33.2930 C   0  0  0  0  0  0  0  0  0  0  0  0
   35.7840   29.3050   33.0270 C   0  0  0  0  0  0  0  0  0  0  0  0
   35.6690   29.8040   31.7460 C   0  0  0  0  0  0  0  0  0  0  0  0
   36.4920   29.2890   30.7490 C   0  0  0  0  0  0  0  0  0  0  0  0
   37.4050   28.2790   31.1070 C   0  0  0  0  0  0  0  0  0  0  0  0
   37.5270   27.7840   32.3500 C   0  0  0  0  0  0  0  0  0  0  0  0
   34.9300   30.5900   31.5570 H   0  0  0  0  0  0  0  0  0  0  0  0
   36.3250   29.7400   29.7950 H   0  0  0  0  0  0  0  0  0  0  0  0
   37.9090   28.0330   30.2450 H   0  0  0  0  0  0  0  0  0  0  0  0
   32.8580   29.9860   35.1630 C   0  0  0  0  0  0  0  0  0  0  0  0
   33.4240   30.9350   36.0880 C   0  0  0  0  0  0  0  0  0  0  0  0
   34.7650   31.2890   35.9330 C   0  0  0  0  0  0  0  0  0  0  0  0
   35.4810   30.7280   34.9220 N   0  0  0  0  0  0  0  0  0  0  0  0
   34.9230   29.8390   34.0700 C   0  0  0  0  0  0  0  0  0  0  0  0
   33.6340   29.4810   34.1960 N   0  0  0  0  0  0  0  0  0  0  0  0
   31.8390   29.6880   35.2450 H   0  0  0  0  0  0  0  0  0  0  0  0
   32.7720   31.3230   36.8560 H   0  0  0  0  0  0  0  0  0  0  0  0
   35.2750   32.2140   36.8520 N   0  0  0  0  0  0  0  0  0  0  0  0
   35.3090   32.1710   37.8810 H   0  0  0  0  0  0  0  0  0  0  0  0
   35.7090   33.1200   36.5650 H   0  0  0  0  0  0  0  0  0  0  0  0
   38.1490   25.3510   32.3810 C   0  0  0  0  0  0  0  0  0  0  0  0
   38.9940   24.7730   31.9430 H   0  0  0  0  0  0  0  0  0  0  0  0
   37.3440   25.3110   31.5910 H   0  0  0  0  0  0  0  0  0  0  0  0
   37.7250   24.7020   33.5120 O   0  0  0  0  0  0  0  0  0  0  0  0
   40.2700   24.1270   33.7960 O   0  0  0  0  0  0  0  0  0  0  0  0
   38.8720   23.6140   34.0310 P   0  0  2  0  0  0  0  0  0  0  0  0
   38.6340   22.1730   33.0990 O   0  0  0  0  0  0  0  0  0  0  0  0
   37.3770   21.7630   32.6920 C   0  0  0  0  0  0  0  0  0  0  0  0
   36.7920   21.9030   31.4430 C   0  0  0  0  0  3  0  0  0  0  0  0
   35.5200   21.4320   31.2090 C   0  0  0  0  0  0  0  0  0  0  0  0
   35.0920   21.5580   30.2210 H   0  0  0  0  0  0  0  0  0  0  0  0
   34.8500   20.8290   32.2260 N   0  0  0  0  0  0  0  0  0  0  0  0
   35.4240   20.6950   33.4370 C   0  0  0  0  0  3  0  0  0  0  0  0
   36.6820   21.1540   33.6910 N   0  0  0  0  0  0  0  0  0  0  0  0
   38.6940   23.1650   35.6110 O   0  0  0  0  0  0  0  0  0  0  0  0
   38.4750   24.2590   36.4150 C   0  0  0  0  0  0  0  0  0  0  0  0
   39.1600   25.3880   35.9710 F   0  0  0  0  0  0  0  0  0  0  0  0
   37.1340   24.6160   36.4350 F   0  0  0  0  0  0  0  0  0  0  0  0
   38.8850   23.9860   37.7140 F   0  0  0  0  0  0  0  0  0  0  0  0
  1  3  1  0  0  0  0
  2  1  1  0  0  0  0
  5  4  1  0  0  0  0
  6  5  1  0  0  0  0
  6 18  1  0  0  0  0
  7  6  2  0  0  0  0
  8  9  2  0  0  0  0
  8  7  1  0  0  0  0
  9 10  1  0  0  0  0
 10  1  1  0  0  0  0
 10  5  2  0  0  0  0
 11  7  1  0  0  0  0
 12  8  1  0  0  0  0
 13  9  1  0  0  0  0
 14 20  1  0  0  0  0
 14 15  1  0  0  0  0
 15 21  1  0  0  0  0
 16 15  2  0  0  0  0
 16 22  1  0  0  0  0
 17 16  1  0  0  0  0
 18 19  1  0  0  0  0
 18 17  2  0  0  0  0
 19 14  2  0  0  0  0
 22 23  1  0  0  0  0
 24 22  1  0  0  0  0
 25  1  1  0  0  0  0
 25 28  1  0  0  0  0
 26 25  1  0  0  0  0
 27 25  1  0  0  0  0
 28 30  1  0  0  0  0
 30 29  2  6  0  0  0
 30 39  1  0  0  0  0
 31 30  1  0  0  0  0
 32 31  1  0  0  0  0
 32 38  1  0  0  0  0
 33 32  2  0  0  0  0
 34 33  1  0  0  0  0
 34 36  2  0  0  0  0
 35 34  1  0  0  0  0
 36 37  1  0  0  0  0
 37 38  2  0  0  0  0
 39 40  1  0  0  0  0
 40 42  1  0  0  0  0
 40 43  1  0  0  0  0
 41 40  1  0  0  0  0
M  END
>  <minimizedAffinity>
-5.75914574

$$$$

 OpenBabel03272504433D

 43 45  0  0  0  0  0  0  0  0999 V2000
   36.8040   27.9700   33.9740 C   0  0  0  0  0  0  0  0  0  0  0  0
   36.2030   28.0520   34.9080 H   0  0  0  0  0  0  0  0  0  0  0  0
   37.7370   28.5580   34.2250 H   0  0  0  0  0  0  0  0  0  0  0  0
   38.4410   26.7970   36.1660 Cl  0  0  0  0  0  0  0  0  0  0  0  0
   37.9560   25.9160   34.7180 C   0  0  0  0  0  0  0  0  0  0  0  0
   38.3390   24.6290   34.5710 C   0  0  0  0  0  0  0  0  0  0  0  0
   37.9680   23.9250   33.4450 C   0  0  0  0  0  0  0  0  0  0  0  0
   37.2000   24.5650   32.4770 C   0  0  0  0  0  0  0  0  0  0  0  0
   36.8410   25.9070   32.7030 C   0  0  0  0  0  0  0  0  0  0  0  0
   37.1960   26.6040   33.7960 C   0  0  0  0  0  0  0  0  0  0  0  0
   38.2920   22.8830   33.3510 H   0  0  0  0  0  0  0  0  0  0  0  0
   36.9660   23.9350   31.6450 H   0  0  0  0  0  0  0  0  0  0  0  0
   36.2890   26.1960   31.8860 H   0  0  0  0  0  0  0  0  0  0  0  0
   41.1580   23.0340   36.3320 C   0  0  0  0  0  0  0  0  0  0  0  0
   40.5320   22.7060   37.5870 C   0  0  0  0  0  0  0  0  0  0  0  0
   39.1890   23.0440   37.7630 C   0  0  0  0  0  0  0  0  0  0  0  0
   38.5290   23.6670   36.7510 N   0  0  0  0  0  0  0  0  0  0  0  0
   39.1440   23.9640   35.5830 C   0  0  0  0  0  0  0  0  0  0  0  0
   40.4350   23.6480   35.3870 N   0  0  0  0  0  0  0  0  0  0  0  0
   42.1800   22.7940   36.1550 H   0  0  0  0  0  0  0  0  0  0  0  0
   41.1420   22.2120   38.3280 H   0  0  0  0  0  0  0  0  0  0  0  0
   38.6190   22.7070   38.9970 N   0  0  0  0  0  0  0  0  0  0  0  0
   38.9070   22.9720   39.9510 H   0  0  0  0  0  0  0  0  0  0  0  0
   37.7730   22.1020   39.0850 H   0  0  0  0  0  0  0  0  0  0  0  0
   36.0740   28.6700   32.9120 C   0  0  0  0  0  0  0  0  0  0  0  0
   35.0770   28.2310   32.6890 H   0  0  0  0  0  0  0  0  0  0  0  0
   36.6480   28.5660   31.9450 H   0  0  0  0  0  0  0  0  0  0  0  0
   35.9040   29.9970   33.2110 O   0  0  0  0  0  0  0  0  0  0  0  0
   33.4230   29.1450   33.3220 O   0  0  0  0  0  0  0  0  0  0  0  0
   34.3310   30.3000   33.6610 P   0  0  2  0  0  0  0  0  0  0  0  0
   33.8280   31.6960   32.7650 O   0  0  0  0  0  0  0  0  0  0  0  0
   32.4930   32.0330   32.6230 C   0  0  0  0  0  0  0  0  0  0  0  0
   31.6040   31.6180   31.6440 C   0  0  0  0  0  3  0  0  0  0  0  0
   30.2990   32.0540   31.6530 C   0  0  0  0  0  0  0  0  0  0  0  0
   29.6300   31.7100   30.8740 H   0  0  0  0  0  0  0  0  0  0  0  0
   29.9010   32.9000   32.6400 N   0  0  0  0  0  0  0  0  0  0  0  0
   30.7690   33.2990   33.5880 C   0  0  0  0  0  3  0  0  0  0  0  0
   32.0670   32.8800   33.5980 N   0  0  0  0  0  0  0  0  0  0  0  0
   34.1610   30.7020   35.2550 O   0  0  0  0  0  0  0  0  0  0  0  0
   35.2520   31.4060   35.7060 C   0  0  0  0  0  0  0  0  0  0  0  0
   35.5840   32.4660   34.8640 F   0  0  0  0  0  0  0  0  0  0  0  0
   35.0140   31.9750   36.9490 F   0  0  0  0  0  0  0  0  0  0  0  0
   36.3560   30.5670   35.8020 F   0  0  0  0  0  0  0  0  0  0  0  0
  1  3  1  0  0  0  0
  1  2  1  0  0  0  0
  5  4  1  0  0  0  0
  6  5  1  0  0  0  0
  6 18  1  0  0  0  0
  7  6  2  0  0  0  0
  8  9  2  0  0  0  0
  8  7  1  0  0  0  0
  9 10  1  0  0  0  0
 10  1  1  0  0  0  0
 10  5  2  0  0  0  0
 11  7  1  0  0  0  0
 12  8  1  0  0  0  0
 13  9  1  0  0  0  0
 14 15  1  0  0  0  0
 15 16  2  0  0  0  0
 15 21  1  0  0  0  0
 16 22  1  0  0  0  0
 17 16  1  0  0  0  0
 18 17  2  0  0  0  0
 19 18  1  0  0  0  0
 19 14  2  0  0  0  0
 20 14  1  0  0  0  0
 22 24  1  0  0  0  0
 22 23  1  0  0  0  0
 25 28  1  0  0  0  0
 25  1  1  0  0  0  0
 26 25  1  0  0  0  0
 27 25  1  0  0  0  0
 28 30  1  0  0  0  0
 30 29  2  6  0  0  0
 30 39  1  0  0  0  0
 31 30  1  0  0  0  0
 32 31  1  0  0  0  0
 32 38  1  0  0  0  0
 33 34  1  0  0  0  0
 33 32  2  0  0  0  0
 34 36  2  0  0  0  0
 35 34  1  0  0  0  0
 36 37  1  0  0  0  0
 37 38  2  0  0  0  0
 39 40  1  0  0  0  0
 40 43  1  0  0  0  0
 40 42  1  0  0  0  0
 41 40  1  0  0  0  0
M  END
>  <minimizedAffinity>
-5.64297533

$$$$

 OpenBabel03272504433D

 43 45  0  0  0  0  0  0  0  0999 V2000
   36.8290   28.3240   33.9840 C   0  0  0  0  0  0  0  0  0  0  0  0
   37.3390   28.6690   34.9120 H   0  0  0  0  0  0  0  0  0  0  0  0
   37.3520   28.9190   33.1770 H   0  0  0  0  0  0  0  0  0  0  0  0
   38.4630   27.0260   36.1060 Cl  0  0  0  0  0  0  0  0  0  0  0  0
   37.8950   26.2000   34.6560 C   0  0  0  0  0  0  0  0  0  0  0  0
   38.2090   24.8980   34.4740 C   0  0  0  0  0  0  0  0  0  0  0  0
   37.7730   24.2380   33.3450 C   0  0  0  0  0  0  0  0  0  0  0  0
   37.0120   24.9340   32.4110 C   0  0  0  0  0  0  0  0  0  0  0  0
   36.7280   26.2890   32.6730 C   0  0  0  0  0  0  0  0  0  0  0  0
   37.1470   26.9440   33.7690 C   0  0  0  0  0  0  0  0  0  0  0  0
   38.0410   23.1820   33.2220 H   0  0  0  0  0  0  0  0  0  0  0  0
   36.7240   24.3350   31.5740 H   0  0  0  0  0  0  0  0  0  0  0  0
   36.1690   26.6210   31.8770 H   0  0  0  0  0  0  0  0  0  0  0  0
   41.0110   23.1890   36.1520 C   0  0  0  0  0  0  0  0  0  0  0  0
   40.3790   22.7990   37.3850 C   0  0  0  0  0  0  0  0  0  0  0  0
   39.0390   23.1380   37.5770 C   0  0  0  0  0  0  0  0  0  0  0  0
   38.3860   23.8190   36.5980 N   0  0  0  0  0  0  0  0  0  0  0  0
   39.0060   24.1730   35.4500 C   0  0  0  0  0  0  0  0  0  0  0  0
   40.2950   23.8590   35.2400 N   0  0  0  0  0  0  0  0  0  0  0  0
   42.0320   22.9510   35.9630 H   0  0  0  0  0  0  0  0  0  0  0  0
   40.9840   22.2610   38.1000 H   0  0  0  0  0  0  0  0  0  0  0  0
   38.4630   22.7390   38.7890 N   0  0  0  0  0  0  0  0  0  0  0  0
   38.7510   22.9500   39.7570 H   0  0  0  0  0  0  0  0  0  0  0  0
   37.6120   22.1370   38.8440 H   0  0  0  0  0  0  0  0  0  0  0  0
   35.4290   28.7540   34.0580 C   0  0  0  0  0  0  0  0  0  0  0  0
   35.2940   29.7650   34.5010 H   0  0  0  0  0  0  0  0  0  0  0  0
   34.8720   28.0650   34.7580 H   0  0  0  0  0  0  0  0  0  0  0  0
   34.8340   28.7420   32.8220 O   0  0  0  0  0  0  0  0  0  0  0  0
   34.7310   31.2940   33.4270 O   0  0  0  0  0  0  0  0  0  0  0  0
   34.3090   30.2650   32.4090 P   0  0  2  0  0  0  0  0  0  0  0  0
   32.5790   30.1890   32.3640 O   0  0  0  0  0  0  0  0  0  0  0  0
   31.8360   29.7620   33.4510 C   0  0  0  0  0  0  0  0  0  0  0  0
   31.3680   28.4850   33.7220 C   0  0  0  0  0  3  0  0  0  0  0  0
   30.6390   28.2340   34.8610 C   0  0  0  0  0  0  0  0  0  0  0  0
   30.2880   27.2250   35.0420 H   0  0  0  0  0  0  0  0  0  0  0  0
   30.3860   29.2620   35.7140 N   0  0  0  0  0  0  0  0  0  0  0  0
   30.8430   30.4990   35.4460 C   0  0  0  0  0  3  0  0  0  0  0  0
   31.5680   30.7710   34.3230 N   0  0  0  0  0  0  0  0  0  0  0  0
   34.7790   30.7420   30.8970 O   0  0  0  0  0  0  0  0  0  0  0  0
   36.0450   30.2920   30.6080 C   0  0  0  0  0  0  0  0  0  0  0  0
   36.9460   30.5450   31.6410 F   0  0  0  0  0  0  0  0  0  0  0  0
   36.0680   28.9180   30.4180 F   0  0  0  0  0  0  0  0  0  0  0  0
   36.5210   30.9100   29.4580 F   0  0  0  0  0  0  0  0  0  0  0  0
  1 25  1  0  0  0  0
  1  2  1  0  0  0  0
  3  1  1  0  0  0  0
  5  4  1  0  0  0  0
  6  5  1  0  0  0  0
  6 18  1  0  0  0  0
  7  6  2  0  0  0  0
  8  9  2  0  0  0  0
  8  7  1  0  0  0  0
  9 10  1  0  0  0  0
 10  1  1  0  0  0  0
 10  5  2  0  0  0  0
 11  7  1  0  0  0  0
 12  8  1  0  0  0  0
 13  9  1  0  0  0  0
 14 15  1  0  0  0  0
 15 16  2  0  0  0  0
 15 21  1  0  0  0  0
 16 22  1  0  0  0  0
 17 16  1  0  0  0  0
 18 17  2  0  0  0  0
 19 18  1  0  0  0  0
 19 14  2  0  0  0  0
 20 14  1  0  0  0  0
 22 24  1  0  0  0  0
 22 23  1  0  0  0  0
 25 26  1  0  0  0  0
 25 27  1  0  0  0  0
 28 25  1  0  0  0  0
 30 28  1  0  0  0  0
 30 29  2  1  0  0  0
 31 30  1  0  0  0  0
 31 32  1  0  0  0  0
 32 33  2  0  0  0  0
 32 38  1  0  0  0  0
 33 34  1  0  0  0  0
 34 35  1  0  0  0  0
 34 36  2  0  0  0  0
 37 36  1  0  0  0  0
 38 37  2  0  0  0  0
 39 30  1  0  0  0  0
 40 39  1  0  0  0  0
 40 41  1  0  0  0  0
 42 40  1  0  0  0  0
 43 40  1  0  0  0  0
M  END
>  <minimizedAffinity>
-5.64126253

$$$$

 OpenBabel03272504433D

 43 45  0  0  0  0  0  0  0  0999 V2000
   36.3400   28.8210   33.4140 C   0  0  0  0  0  0  0  0  0  0  0  0
   36.4080   29.0140   34.5090 H   0  0  0  0  0  0  0  0  0  0  0  0
   37.1800   29.4520   32.9960 H   0  0  0  0  0  0  0  0  0  0  0  0
   37.9430   27.4740   35.5290 Cl  0  0  0  0  0  0  0  0  0  0  0  0
   37.4110   26.6870   34.0450 C   0  0  0  0  0  0  0  0  0  0  0  0
   37.7390   25.3930   33.8310 C   0  0  0  0  0  0  0  0  0  0  0  0
   37.3310   24.7620   32.6750 C   0  0  0  0  0  0  0  0  0  0  0  0
   36.5830   25.4800   31.7470 C   0  0  0  0  0  0  0  0  0  0  0  0
   36.2810   26.8240   32.0430 C   0  0  0  0  0  0  0  0  0  0  0  0
   36.6740   27.4500   33.1650 C   0  0  0  0  0  0  0  0  0  0  0  0
   37.6110   23.7140   32.5270 H   0  0  0  0  0  0  0  0  0  0  0  0
   36.3160   24.9030   30.8880 H   0  0  0  0  0  0  0  0  0  0  0  0
   35.7350   27.1750   31.2460 H   0  0  0  0  0  0  0  0  0  0  0  0
   40.5520   23.7710   35.5760 C   0  0  0  0  0  0  0  0  0  0  0  0
   39.8680   23.2110   36.7130 C   0  0  0  0  0  0  0  0  0  0  0  0
   38.4920   23.4160   36.8220 C   0  0  0  0  0  0  0  0  0  0  0  0
   37.8550   24.1320   35.8580 N   0  0  0  0  0  0  0  0  0  0  0  0
   38.5240   24.6470   34.8010 C   0  0  0  0  0  0  0  0  0  0  0  0
   39.8490   24.4630   34.6720 N   0  0  0  0  0  0  0  0  0  0  0  0
   41.6020   23.6380   35.4530 H   0  0  0  0  0  0  0  0  0  0  0  0
   40.4640   22.6590   37.4240 H   0  0  0  0  0  0  0  0  0  0  0  0
   37.8650   22.8560   37.9420 N   0  0  0  0  0  0  0  0  0  0  0  0
   38.0590   22.9950   38.9450 H   0  0  0  0  0  0  0  0  0  0  0  0
   37.0710   22.1820   37.8700 H   0  0  0  0  0  0  0  0  0  0  0  0
   35.0600   29.3630   32.9450 C   0  0  0  0  0  0  0  0  0  0  0  0
   34.7340   28.9560   31.9620 H   0  0  0  0  0  0  0  0  0  0  0  0
   35.1780   30.4710   32.7640 H   0  0  0  0  0  0  0  0  0  0  0  0
   34.0590   29.1440   33.8550 O   0  0  0  0  0  0  0  0  0  0  0  0
   32.7780   30.4410   31.9670 O   0  0  0  0  0  0  0  0  0  0  0  0
   32.6340   29.8280   33.3370 P   0  0  2  0  0  0  0  0  0  0  0  0
   32.2480   31.0750   34.4770 O   0  0  0  0  0  0  0  0  0  0  0  0
   33.2240   31.7140   35.2210 C   0  0  0  0  0  0  0  0  0  0  0  0
   33.5120   31.5610   36.5690 C   0  0  0  0  0  3  0  0  0  0  0  0
   34.5280   32.2830   37.1530 C   0  0  0  0  0  0  0  0  0  0  0  0
   34.7260   32.1400   38.2090 H   0  0  0  0  0  0  0  0  0  0  0  0
   35.2410   33.1470   36.3840 N   0  0  0  0  0  0  0  0  0  0  0  0
   34.9570   33.2900   35.0760 C   0  0  0  0  0  3  0  0  0  0  0  0
   33.9550   32.5860   34.4750 N   0  0  0  0  0  0  0  0  0  0  0  0
   31.3510   28.7860   33.3560 O   0  0  0  0  0  0  0  0  0  0  0  0
   31.0220   28.4300   34.6430 C   0  0  0  0  0  0  0  0  0  0  0  0
   32.1100   28.5150   35.5100 F   0  0  0  0  0  0  0  0  0  0  0  0
   30.0530   29.2700   35.1720 F   0  0  0  0  0  0  0  0  0  0  0  0
   30.5460   27.1250   34.6700 F   0  0  0  0  0  0  0  0  0  0  0  0
  1  2  1  0  0  0  0
  3  1  1  0  0  0  0
  5  4  1  0  0  0  0
  6  5  1  0  0  0  0
  6 18  1  0  0  0  0
  7  6  2  0  0  0  0
  8  9  2  0  0  0  0
  8  7  1  0  0  0  0
  9 10  1  0  0  0  0
 10  1  1  0  0  0  0
 10  5  2  0  0  0  0
 11  7  1  0  0  0  0
 12  8  1  0  0  0  0
 13  9  1  0  0  0  0
 14 15  1  0  0  0  0
 15 16  2  0  0  0  0
 15 21  1  0  0  0  0
 16 22  1  0  0  0  0
 17 16  1  0  0  0  0
 18 17  2  0  0  0  0
 19 18  1  0  0  0  0
 19 14  2  0  0  0  0
 20 14  1  0  0  0  0
 22 23  1  0  0  0  0
 24 22  1  0  0  0  0
 25  1  1  0  0  0  0
 25 28  1  0  0  0  0
 26 25  1  0  0  0  0
 27 25  1  0  0  0  0
 30 29  2  6  0  0  0
 30 39  1  0  0  0  0
 30 28  1  0  0  0  0
 30 31  1  0  0  0  0
 31 32  1  0  0  0  0
 32 33  1  0  0  0  0
 33 34  2  0  0  0  0
 34 35  1  0  0  0  0
 36 34  1  0  0  0  0
 37 36  2  0  0  0  0
 38 37  1  0  0  0  0
 38 32  2  0  0  0  0
 39 40  1  0  0  0  0
 40 43  1  0  0  0  0
 40 42  1  0  0  0  0
 40 41  1  0  0  0  0
M  END
>  <minimizedAffinity>
-5.61689901

$$$$
