
 OpenBabel03272503283D

 31 33  0  0  1  0  0  0  0  0999 V2000
   36.3930   29.7260   48.7740 N   0  0  0  0  0  0  0  0  0  0  0  0
   37.4860   30.4980   48.2770 C   0  0  0  0  0  0  0  0  0  0  0  0
   38.0320   31.1600   49.5360 C   0  0  2  0  0  0  0  0  0  0  0  0
   37.0610   30.7680   50.6580 C   0  0  0  0  0  0  0  0  0  0  0  0
   36.7150   29.3740   50.1330 C   0  0  0  0  0  0  0  0  0  0  0  0
   38.2430   29.9220   47.7340 H   0  0  0  0  0  0  0  0  0  0  0  0
   37.1200   31.3420   47.6440 H   0  0  0  0  0  0  0  0  0  0  0  0
   39.0110   30.6820   49.7680 H   0  0  0  0  0  0  0  0  0  0  0  0
   37.5350   30.7580   51.6410 H   0  0  0  0  0  0  0  0  0  0  0  0
   36.1700   31.3990   50.5770 H   0  0  0  0  0  0  0  0  0  0  0  0
   37.6760   28.8070   50.2080 H   0  0  0  0  0  0  0  0  0  0  0  0
   35.8740   28.9200   50.6540 H   0  0  0  0  0  0  0  0  0  0  0  0
   35.1960   29.3630   48.0630 C   0  0  0  0  0  0  0  0  0  0  0  0
   34.4800   30.4020   47.4810 C   0  0  0  0  0  0  0  0  0  0  0  0
   33.3050   30.0330   46.7850 C   0  0  0  0  0  0  0  0  0  0  0  0
   32.9710   28.7140   46.7390 N   0  0  0  0  0  0  0  0  0  0  0  0
   33.6920   27.7430   47.3140 C   0  0  0  0  0  0  0  0  0  0  0  0
   34.8060   28.0870   47.9760 N   0  0  0  0  0  0  0  0  0  0  0  0
   34.7260   31.4430   47.5070 H   0  0  0  0  0  0  0  0  0  0  0  0
   32.6780   30.7690   46.2980 H   0  0  0  0  0  0  0  0  0  0  0  0
   33.3100   26.3360   47.2490 C   0  0  0  0  0  0  0  0  0  0  0  0
   34.1260   25.4020   46.6450 C   0  0  0  0  0  0  0  0  0  0  0  0
   33.7690   24.0540   46.5770 C   0  0  0  0  0  0  0  0  0  0  0  0
   34.4840   23.4410   46.0860 H   0  0  0  0  0  0  0  0  0  0  0  0
   32.6150   23.6730   47.1110 N   0  0  0  0  0  0  0  0  0  0  0  0
   31.8100   24.5700   47.7020 C   0  0  0  0  0  0  0  0  0  0  0  0
   32.1460   25.8920   47.7750 N   0  0  0  0  0  0  0  0  0  0  0  0
   38.1670   32.6450   49.4060 C   0  0  0  0  0  0  0  0  0  0  0  0
   37.0200   33.1950   49.9340 F   0  0  0  0  0  0  0  0  0  0  0  0
   38.1740   32.9270   48.0450 F   0  0  0  0  0  0  0  0  0  0  0  0
   39.2850   33.1580   49.9940 F   0  0  0  0  0  0  0  0  0  0  0  0
  1  5  1  0  0  0  0
  2  1  1  0  0  0  0
  2  3  1  0  0  0  0
  3  8  1  1  0  0  0
  3  4  1  0  0  0  0
  4  9  1  0  0  0  0
  5 11  1  0  0  0  0
  5 12  1  0  0  0  0
  5  4  1  0  0  0  0
  6  2  1  0  0  0  0
  7  2  1  0  0  0  0
 10  4  1  0  0  0  0
 13  1  1  0  0  0  0
 14 19  1  0  0  0  0
 14 13  2  0  0  0  0
 15 14  1  0  0  0  0
 16 15  2  0  0  0  0
 16 17  1  0  0  0  0
 17 18  2  0  0  0  0
 18 13  1  0  0  0  0
 20 15  1  0  0  0  0
 21 17  1  0  0  0  0
 21 27  1  0  0  0  0
 22 21  2  0  0  0  0
 23 22  1  0  0  0  0
 23 25  2  0  0  0  0
 24 23  1  0  0  0  0
 25 26  1  0  0  0  0
 26 27  2  0  0  0  0
 28  3  1  0  0  0  0
 28 29  1  0  0  0  0
 28 31  1  0  0  0  0
 30 28  1  0  0  0  0
M  END
>  <minimizedAffinity>
-5.43465042

>  <minimizedRMSD>
1.64209294

$$$$
