
 OpenBabel03272507083D

 37 41  0  0  0  0  0  0  0  0999 V2000
   37.0700   29.0090   31.1540 C   0  0  0  0  0  0  0  0  0  0  0  0
   37.5150   27.6950   31.3930 C   0  0  0  0  0  0  0  0  0  0  0  0
   37.1340   27.1160   32.6120 C   0  0  0  0  0  0  0  0  0  0  0  0
   36.3750   27.8260   33.4810 N   0  0  0  0  0  0  0  0  0  0  0  0
   35.9700   29.0920   33.2050 C   0  0  0  0  0  0  0  0  0  0  0  0
   36.3150   29.6830   32.0460 N   0  0  0  0  0  0  0  0  0  0  0  0
   37.3710   29.4530   30.2030 H   0  0  0  0  0  0  0  0  0  0  0  0
   38.1110   27.1200   30.7260 H   0  0  0  0  0  0  0  0  0  0  0  0
   33.8140   29.4840   34.2900 C   0  0  0  0  0  0  0  0  0  0  0  0
   35.1570   29.7870   34.1900 C   0  0  0  0  0  0  0  0  0  0  0  0
   35.7190   30.7390   35.0130 C   0  0  0  0  0  0  0  0  0  0  0  0
   34.9440   31.3900   35.9410 C   0  0  0  0  0  0  0  0  0  0  0  0
   35.2220   32.3520   36.8630 N   0  0  0  0  0  0  0  0  0  0  0  0
   34.0410   32.5860   37.4790 C   0  0  0  0  0  0  0  0  0  0  0  0
   33.0730   31.8160   36.9720 N   0  0  0  0  0  0  0  0  0  0  0  0
   33.6110   31.0550   36.0040 C   0  0  0  0  0  0  0  0  0  0  0  0
   33.0030   30.1190   35.2110 C   0  0  0  0  0  0  0  0  0  0  0  0
   33.3740   28.7310   33.6370 H   0  0  0  0  0  0  0  0  0  0  0  0
   36.7690   30.9430   34.8990 H   0  0  0  0  0  0  0  0  0  0  0  0
   36.1650   32.7710   37.0090 H   0  0  0  0  0  0  0  0  0  0  0  0
   34.0080   33.3280   38.2670 H   0  0  0  0  0  0  0  0  0  0  0  0
   31.9490   29.9060   35.3170 H   0  0  0  0  0  0  0  0  0  0  0  0
   37.5050   25.7730   33.0200 C   0  0  0  0  0  0  0  0  0  0  0  0
   37.6100   24.7040   32.1580 C   0  0  0  0  0  0  0  0  0  0  0  0
   37.9570   23.4250   32.5110 C   0  0  0  0  0  0  0  0  0  0  0  0
   38.2120   23.2150   33.8050 N   0  0  0  0  0  0  0  0  0  0  0  0
   38.1240   24.2180   34.6810 C   0  0  0  0  0  0  0  0  0  0  0  0
   37.7840   25.4420   34.2970 N   0  0  0  0  0  0  0  0  0  0  0  0
   37.4010   24.8660   31.0900 H   0  0  0  0  0  0  0  0  0  0  0  0
   38.0160   22.6380   31.7680 H   0  0  0  0  0  0  0  0  0  0  0  0
   38.4100   23.9610   36.0940 C   0  0  0  0  0  0  0  0  0  0  0  0
   39.4760   23.1450   36.4590 C   0  0  0  0  0  3  0  0  0  0  0  0
   39.7090   22.9310   37.8010 C   0  0  0  0  0  0  0  0  0  0  0  0
   40.5380   22.2980   38.0660 H   0  0  0  0  0  0  0  0  0  0  0  0
   38.9410   23.4840   38.7720 N   0  0  0  0  0  0  0  0  0  0  0  0
   37.9000   24.2800   38.3980 C   0  0  0  0  0  3  0  0  0  0  0  0
   37.6750   24.4880   37.0910 N   0  0  0  0  0  0  0  0  0  0  0  0
  1  2  2  0  0  0  0
  1  6  1  0  0  0  0
  2  3  1  0  0  0  0
  3 23  1  0  0  0  0
  3  4  2  0  0  0  0
  5  4  1  0  0  0  0
  5 10  1  0  0  0  0
  6  5  2  0  0  0  0
  7  1  1  0  0  0  0
  8  2  1  0  0  0  0
  9 17  1  0  0  0  0
 10  9  2  0  0  0  0
 10 11  1  0  0  0  0
 11 12  2  0  0  0  0
 12 16  1  0  0  0  0
 12 13  1  0  0  0  0
 13 20  1  0  0  0  0
 13 14  1  0  0  0  0
 14 21  1  0  0  0  0
 15 14  2  0  0  0  0
 16 15  1  0  0  0  0
 17 22  1  0  0  0  0
 17 16  2  0  0  0  0
 18  9  1  0  0  0  0
 19 11  1  0  0  0  0
 23 28  1  0  0  0  0
 24 25  1  0  0  0  0
 24 23  2  0  0  0  0
 25 26  2  0  0  0  0
 26 27  1  0  0  0  0
 27 31  1  0  0  0  0
 28 27  2  0  0  0  0
 29 24  1  0  0  0  0
 30 25  1  0  0  0  0
 31 32  2  0  0  0  0
 31 37  1  0  0  0  0
 32 33  1  0  0  0  0
 33 34  1  0  0  0  0
 33 35  2  0  0  0  0
 36 35  1  0  0  0  0
 37 36  2  0  0  0  0
M  END
>  <minimizedAffinity>
-6.78318691

$$$$

 OpenBabel03272507083D

 37 41  0  0  0  0  0  0  0  0999 V2000
   36.9170   29.1450   31.2280 C   0  0  0  0  0  0  0  0  0  0  0  0
   37.3050   27.8060   31.4230 C   0  0  0  0  0  0  0  0  0  0  0  0
   36.9800   27.2320   32.6610 C   0  0  0  0  0  0  0  0  0  0  0  0
   36.3240   27.9730   33.5880 N   0  0  0  0  0  0  0  0  0  0  0  0
   35.9710   29.2620   33.3520 C   0  0  0  0  0  0  0  0  0  0  0  0
   36.2660   29.8480   32.1770 N   0  0  0  0  0  0  0  0  0  0  0  0
   37.1750   29.5830   30.2610 H   0  0  0  0  0  0  0  0  0  0  0  0
   37.8200   27.2070   30.7100 H   0  0  0  0  0  0  0  0  0  0  0  0
   35.9810   30.8400   35.2210 C   0  0  0  0  0  0  0  0  0  0  0  0
   35.2700   29.9880   34.3980 C   0  0  0  0  0  0  0  0  0  0  0  0
   33.9120   29.8280   34.5700 C   0  0  0  0  0  0  0  0  0  0  0  0
   33.2570   30.5170   35.5610 C   0  0  0  0  0  0  0  0  0  0  0  0
   31.9540   30.5540   35.9520 N   0  0  0  0  0  0  0  0  0  0  0  0
   31.9340   31.4240   36.9880 C   0  0  0  0  0  0  0  0  0  0  0  0
   33.1560   31.9060   37.2360 N   0  0  0  0  0  0  0  0  0  0  0  0
   34.0070   31.3540   36.3550 C   0  0  0  0  0  0  0  0  0  0  0  0
   35.3560   31.5490   36.2280 C   0  0  0  0  0  0  0  0  0  0  0  0
   37.0540   30.9630   35.0810 H   0  0  0  0  0  0  0  0  0  0  0  0
   33.3990   29.1540   33.9070 H   0  0  0  0  0  0  0  0  0  0  0  0
   31.1900   30.0060   35.5040 H   0  0  0  0  0  0  0  0  0  0  0  0
   30.9880   31.6230   37.4770 H   0  0  0  0  0  0  0  0  0  0  0  0
   35.8820   32.2250   36.8890 H   0  0  0  0  0  0  0  0  0  0  0  0
   37.3040   25.8660   33.0300 C   0  0  0  0  0  0  0  0  0  0  0  0
   37.2870   24.8040   32.1530 C   0  0  0  0  0  0  0  0  0  0  0  0
   37.5870   23.5040   32.4700 C   0  0  0  0  0  0  0  0  0  0  0  0
   37.9220   23.2640   33.7400 N   0  0  0  0  0  0  0  0  0  0  0  0
   37.9530   24.2600   34.6290 C   0  0  0  0  0  0  0  0  0  0  0  0
   37.6550   25.5050   34.2800 N   0  0  0  0  0  0  0  0  0  0  0  0
   37.0110   24.9900   31.1050 H   0  0  0  0  0  0  0  0  0  0  0  0
   37.5480   22.7250   31.7180 H   0  0  0  0  0  0  0  0  0  0  0  0
   38.3250   23.9700   36.0150 C   0  0  0  0  0  0  0  0  0  0  0  0
   39.4040   23.1370   36.2940 C   0  0  0  0  0  3  0  0  0  0  0  0
   39.7190   22.8920   37.6150 C   0  0  0  0  0  0  0  0  0  0  0  0
   40.5560   22.2470   37.8130 H   0  0  0  0  0  0  0  0  0  0  0  0
   39.0190   23.4310   38.6430 N   0  0  0  0  0  0  0  0  0  0  0  0
   37.9650   24.2450   38.3530 C   0  0  0  0  0  3  0  0  0  0  0  0
   37.6600   24.4820   37.0670 N   0  0  0  0  0  0  0  0  0  0  0  0
  1  2  2  0  0  0  0
  1  6  1  0  0  0  0
  2  3  1  0  0  0  0
  3 23  1  0  0  0  0
  3  4  2  0  0  0  0
  5  4  1  0  0  0  0
  5 10  1  0  0  0  0
  6  5  2  0  0  0  0
  7  1  1  0  0  0  0
  8  2  1  0  0  0  0
  9 17  1  0  0  0  0
 10 11  1  0  0  0  0
 10  9  2  0  0  0  0
 11 12  2  0  0  0  0
 12 13  1  0  0  0  0
 12 16  1  0  0  0  0
 13 14  1  0  0  0  0
 14 15  2  0  0  0  0
 14 21  1  0  0  0  0
 16 15  1  0  0  0  0
 17 16  2  0  0  0  0
 17 22  1  0  0  0  0
 18  9  1  0  0  0  0
 19 11  1  0  0  0  0
 20 13  1  0  0  0  0
 23 28  1  0  0  0  0
 24 25  1  0  0  0  0
 24 23  2  0  0  0  0
 25 26  2  0  0  0  0
 26 27  1  0  0  0  0
 27 31  1  0  0  0  0
 28 27  2  0  0  0  0
 29 24  1  0  0  0  0
 30 25  1  0  0  0  0
 31 32  2  0  0  0  0
 31 37  1  0  0  0  0
 32 33  1  0  0  0  0
 33 34  1  0  0  0  0
 33 35  2  0  0  0  0
 36 35  1  0  0  0  0
 37 36  2  0  0  0  0
M  END
>  <minimizedAffinity>
-6.73212099

$$$$

 OpenBabel03272507083D

 37 41  0  0  0  0  0  0  0  0999 V2000
   36.0910   24.3230   31.3490 C   0  0  0  0  0  0  0  0  0  0  0  0
   35.7330   25.6820   31.2630 C   0  0  0  0  0  0  0  0  0  0  0  0
   36.4000   26.5620   32.1270 C   0  0  0  0  0  0  0  0  0  0  0  0
   37.3350   26.0790   32.9820 N   0  0  0  0  0  0  0  0  0  0  0  0
   37.6450   24.7580   33.0280 C   0  0  0  0  0  0  0  0  0  0  0  0
   37.0270   23.8820   32.2150 N   0  0  0  0  0  0  0  0  0  0  0  0
   35.5660   23.6440   30.6730 H   0  0  0  0  0  0  0  0  0  0  0  0
   35.0040   26.0820   30.6010 H   0  0  0  0  0  0  0  0  0  0  0  0
   39.9620   24.7430   33.8080 C   0  0  0  0  0  0  0  0  0  0  0  0
   38.6580   24.3190   33.9730 C   0  0  0  0  0  0  0  0  0  0  0  0
   38.3240   23.4890   35.0210 C   0  0  0  0  0  0  0  0  0  0  0  0
   39.2880   23.0800   35.9090 C   0  0  0  0  0  0  0  0  0  0  0  0
   39.2480   22.2800   37.0100 N   0  0  0  0  0  0  0  0  0  0  0  0
   40.5230   22.2580   37.4620 C   0  0  0  0  0  0  0  0  0  0  0  0
   41.3200   22.9990   36.6880 N   0  0  0  0  0  0  0  0  0  0  0  0
   40.5730   23.5280   35.7050 C   0  0  0  0  0  0  0  0  0  0  0  0
   40.9580   24.3520   34.6820 C   0  0  0  0  0  0  0  0  0  0  0  0
   40.2220   25.4000   32.9780 H   0  0  0  0  0  0  0  0  0  0  0  0
   37.2960   23.1840   35.1100 H   0  0  0  0  0  0  0  0  0  0  0  0
   38.3850   21.8200   37.3710 H   0  0  0  0  0  0  0  0  0  0  0  0
   40.7460   21.6750   38.3470 H   0  0  0  0  0  0  0  0  0  0  0  0
   41.9880   24.6650   34.5830 H   0  0  0  0  0  0  0  0  0  0  0  0
   36.1550   27.9920   32.1730 C   0  0  0  0  0  0  0  0  0  0  0  0
   36.3740   28.8470   31.1160 C   0  0  0  0  0  0  0  0  0  0  0  0
   36.1540   30.2010   31.1260 C   0  0  0  0  0  0  0  0  0  0  0  0
   35.6870   30.7170   32.2650 N   0  0  0  0  0  0  0  0  0  0  0  0
   35.4580   29.9310   33.3190 C   0  0  0  0  0  0  0  0  0  0  0  0
   35.6850   28.6240   33.2670 N   0  0  0  0  0  0  0  0  0  0  0  0
   36.7590   28.4320   30.1730 H   0  0  0  0  0  0  0  0  0  0  0  0
   36.3530   30.8050   30.2480 H   0  0  0  0  0  0  0  0  0  0  0  0
   34.9460   30.5220   34.5560 C   0  0  0  0  0  0  0  0  0  0  0  0
   35.7730   31.3020   35.3580 C   0  0  0  0  0  3  0  0  0  0  0  0
   35.2490   31.8400   36.5150 C   0  0  0  0  0  0  0  0  0  0  0  0
   35.9020   32.4420   37.1230 H   0  0  0  0  0  0  0  0  0  0  0  0
   33.9630   31.6380   36.8960 N   0  0  0  0  0  0  0  0  0  0  0  0
   33.1660   30.8710   36.1000 C   0  0  0  0  0  3  0  0  0  0  0  0
   33.6780   30.3490   34.9740 N   0  0  0  0  0  0  0  0  0  0  0  0
  1  6  1  0  0  0  0
  2  1  2  0  0  0  0
  2  3  1  0  0  0  0
  3 23  1  0  0  0  0
  3  4  2  0  0  0  0
  4  5  1  0  0  0  0
  5 10  1  0  0  0  0
  6  5  2  0  0  0  0
  7  1  1  0  0  0  0
  8  2  1  0  0  0  0
  9 10  2  0  0  0  0
  9 17  1  0  0  0  0
 10 11  1  0  0  0  0
 11 19  1  0  0  0  0
 11 12  2  0  0  0  0
 12 13  1  0  0  0  0
 13 20  1  0  0  0  0
 13 14  1  0  0  0  0
 14 21  1  0  0  0  0
 15 14  2  0  0  0  0
 16 12  1  0  0  0  0
 16 15  1  0  0  0  0
 17 16  2  0  0  0  0
 18  9  1  0  0  0  0
 22 17  1  0  0  0  0
 23 28  1  0  0  0  0
 24 25  1  0  0  0  0
 24 23  2  0  0  0  0
 25 26  2  0  0  0  0
 26 27  1  0  0  0  0
 27 31  1  0  0  0  0
 28 27  2  0  0  0  0
 29 24  1  0  0  0  0
 30 25  1  0  0  0  0
 31 37  2  0  0  0  0
 31 32  1  0  0  0  0
 32 33  2  0  0  0  0
 33 35  1  0  0  0  0
 33 34  1  0  0  0  0
 36 35  2  0  0  0  0
 37 36  1  0  0  0  0
M  END
>  <minimizedAffinity>
-6.53817225

$$$$

 OpenBabel03272507083D

 37 41  0  0  0  0  0  0  0  0999 V2000
   36.1150   28.7100   30.9800 C   0  0  0  0  0  0  0  0  0  0  0  0
   37.0900   27.7330   31.2570 C   0  0  0  0  0  0  0  0  0  0  0  0
   37.4110   27.5330   32.6070 C   0  0  0  0  0  0  0  0  0  0  0  0
   36.7850   28.2670   33.5590 N   0  0  0  0  0  0  0  0  0  0  0  0
   35.8500   29.1980   33.2420 C   0  0  0  0  0  0  0  0  0  0  0  0
   35.5150   29.4200   31.9570 N   0  0  0  0  0  0  0  0  0  0  0  0
   35.8710   28.8600   29.9260 H   0  0  0  0  0  0  0  0  0  0  0  0
   37.5940   27.1460   30.5270 H   0  0  0  0  0  0  0  0  0  0  0  0
   36.0030   30.7630   35.1150 C   0  0  0  0  0  0  0  0  0  0  0  0
   35.2240   29.9440   34.3210 C   0  0  0  0  0  0  0  0  0  0  0  0
   33.8700   29.8360   34.5530 C   0  0  0  0  0  0  0  0  0  0  0  0
   33.2870   30.5440   35.5750 C   0  0  0  0  0  0  0  0  0  0  0  0
   32.0050   30.6280   36.0240 N   0  0  0  0  0  0  0  0  0  0  0  0
   32.0650   31.4920   37.0640 C   0  0  0  0  0  0  0  0  0  0  0  0
   33.3140   31.9250   37.2580 N   0  0  0  0  0  0  0  0  0  0  0  0
   34.1040   31.3460   36.3380 C   0  0  0  0  0  0  0  0  0  0  0  0
   35.4520   31.4900   36.1520 C   0  0  0  0  0  0  0  0  0  0  0  0
   37.0740   30.8460   34.9280 H   0  0  0  0  0  0  0  0  0  0  0  0
   33.3030   29.1860   33.9100 H   0  0  0  0  0  0  0  0  0  0  0  0
   31.2020   30.1120   35.6080 H   0  0  0  0  0  0  0  0  0  0  0  0
   31.1500   31.7240   37.5940 H   0  0  0  0  0  0  0  0  0  0  0  0
   36.0320   32.1400   36.7920 H   0  0  0  0  0  0  0  0  0  0  0  0
   38.3930   26.5690   33.0710 C   0  0  0  0  0  0  0  0  0  0  0  0
   39.5020   26.1870   32.3490 C   0  0  0  0  0  0  0  0  0  0  0  0
   40.4460   25.2800   32.7580 C   0  0  0  0  0  0  0  0  0  0  0  0
   40.2600   24.7310   33.9600 N   0  0  0  0  0  0  0  0  0  0  0  0
   39.2010   25.0670   34.7000 C   0  0  0  0  0  0  0  0  0  0  0  0
   38.3090   25.9500   34.2660 N   0  0  0  0  0  0  0  0  0  0  0  0
   39.6640   26.6330   31.3570 H   0  0  0  0  0  0  0  0  0  0  0  0
   41.2920   25.0340   32.1270 H   0  0  0  0  0  0  0  0  0  0  0  0
   39.0200   24.4510   36.0150 C   0  0  0  0  0  0  0  0  0  0  0  0
   39.8380   23.3990   36.4170 C   0  0  0  0  0  3  0  0  0  0  0  0
   39.6330   22.8480   37.6650 C   0  0  0  0  0  0  0  0  0  0  0  0
   40.2750   22.0370   37.9600 H   0  0  0  0  0  0  0  0  0  0  0  0
   38.6700   23.2930   38.5090 N   0  0  0  0  0  0  0  0  0  0  0  0
   37.8770   24.3230   38.1000 C   0  0  0  0  0  3  0  0  0  0  0  0
   38.0780   24.8580   36.8860 N   0  0  0  0  0  0  0  0  0  0  0  0
  1  2  2  0  0  0  0
  1  6  1  0  0  0  0
  2  3  1  0  0  0  0
  3 23  1  0  0  0  0
  3  4  2  0  0  0  0
  5  4  1  0  0  0  0
  5 10  1  0  0  0  0
  6  5  2  0  0  0  0
  7  1  1  0  0  0  0
  8  2  1  0  0  0  0
  9 17  1  0  0  0  0
 10 11  1  0  0  0  0
 10  9  2  0  0  0  0
 11 12  2  0  0  0  0
 12 13  1  0  0  0  0
 12 16  1  0  0  0  0
 13 14  1  0  0  0  0
 14 15  2  0  0  0  0
 14 21  1  0  0  0  0
 16 15  1  0  0  0  0
 17 16  2  0  0  0  0
 17 22  1  0  0  0  0
 18  9  1  0  0  0  0
 19 11  1  0  0  0  0
 20 13  1  0  0  0  0
 23 28  1  0  0  0  0
 24 25  1  0  0  0  0
 24 23  2  0  0  0  0
 25 26  2  0  0  0  0
 26 27  1  0  0  0  0
 27 31  1  0  0  0  0
 28 27  2  0  0  0  0
 29 24  1  0  0  0  0
 30 25  1  0  0  0  0
 31 32  2  0  0  0  0
 31 37  1  0  0  0  0
 32 33  1  0  0  0  0
 33 34  1  0  0  0  0
 33 35  2  0  0  0  0
 36 35  1  0  0  0  0
 37 36  2  0  0  0  0
M  END
>  <minimizedAffinity>
-6.39967251

$$$$

 OpenBabel03272507083D

 37 41  0  0  0  0  0  0  0  0999 V2000
   36.7280   29.0360   31.3960 C   0  0  0  0  0  0  0  0  0  0  0  0
   37.2280   27.7590   31.7140 C   0  0  0  0  0  0  0  0  0  0  0  0
   37.0180   27.3120   33.0260 C   0  0  0  0  0  0  0  0  0  0  0  0
   36.3600   28.1070   33.9060 N   0  0  0  0  0  0  0  0  0  0  0  0
   35.8970   29.3330   33.5510 C   0  0  0  0  0  0  0  0  0  0  0  0
   36.0780   29.7970   32.3010 N   0  0  0  0  0  0  0  0  0  0  0  0
   36.8960   29.3760   30.3720 H   0  0  0  0  0  0  0  0  0  0  0  0
   37.7450   27.1190   31.0410 H   0  0  0  0  0  0  0  0  0  0  0  0
   35.9340   30.9320   35.4010 C   0  0  0  0  0  0  0  0  0  0  0  0
   35.2020   30.1240   34.5530 C   0  0  0  0  0  0  0  0  0  0  0  0
   33.8290   30.0700   34.6580 C   0  0  0  0  0  0  0  0  0  0  0  0
   33.1800   30.8210   35.6070 C   0  0  0  0  0  0  0  0  0  0  0  0
   31.8660   30.9620   35.9320 N   0  0  0  0  0  0  0  0  0  0  0  0
   31.8610   31.8450   36.9560 C   0  0  0  0  0  0  0  0  0  0  0  0
   33.1020   32.2370   37.2600 N   0  0  0  0  0  0  0  0  0  0  0  0
   33.9510   31.6100   36.4290 C   0  0  0  0  0  0  0  0  0  0  0  0
   35.3160   31.7010   36.3680 C   0  0  0  0  0  0  0  0  0  0  0  0
   37.0190   30.9720   35.3140 H   0  0  0  0  0  0  0  0  0  0  0  0
   33.3000   29.4270   33.9760 H   0  0  0  0  0  0  0  0  0  0  0  0
   31.0850   30.4660   35.4520 H   0  0  0  0  0  0  0  0  0  0  0  0
   30.9100   32.1220   37.3940 H   0  0  0  0  0  0  0  0  0  0  0  0
   35.8580   32.3440   37.0480 H   0  0  0  0  0  0  0  0  0  0  0  0
   37.4660   26.0240   33.5240 C   0  0  0  0  0  0  0  0  0  0  0  0
   38.1730   25.8510   34.6940 C   0  0  0  0  0  0  0  0  0  0  0  0
   38.6100   24.6500   35.1910 C   0  0  0  0  0  0  0  0  0  0  0  0
   38.3170   23.5670   34.4690 N   0  0  0  0  0  0  0  0  0  0  0  0
   37.6340   23.6810   33.3280 C   0  0  0  0  0  0  0  0  0  0  0  0
   37.2290   24.8630   32.8810 N   0  0  0  0  0  0  0  0  0  0  0  0
   38.4200   26.7380   35.2960 H   0  0  0  0  0  0  0  0  0  0  0  0
   39.1630   24.6020   36.1220 H   0  0  0  0  0  0  0  0  0  0  0  0
   37.3250   22.4760   32.5550 C   0  0  0  0  0  0  0  0  0  0  0  0
   36.1600   22.4060   31.7980 C   0  0  0  0  0  3  0  0  0  0  0  0
   35.9090   21.2520   31.0850 C   0  0  0  0  0  0  0  0  0  0  0  0
   35.0030   21.2150   30.5050 H   0  0  0  0  0  0  0  0  0  0  0  0
   36.7530   20.1910   31.0940 N   0  0  0  0  0  0  0  0  0  0  0  0
   37.8900   20.2760   31.8410 C   0  0  0  0  0  3  0  0  0  0  0  0
   38.1330   21.3990   32.5340 N   0  0  0  0  0  0  0  0  0  0  0  0
  1  2  2  0  0  0  0
  1  6  1  0  0  0  0
  2  3  1  0  0  0  0
  3 23  1  0  0  0  0
  3  4  2  0  0  0  0
  5  4  1  0  0  0  0
  5 10  1  0  0  0  0
  6  5  2  0  0  0  0
  7  1  1  0  0  0  0
  8  2  1  0  0  0  0
  9 17  1  0  0  0  0
 10 11  1  0  0  0  0
 10  9  2  0  0  0  0
 11 12  2  0  0  0  0
 12 13  1  0  0  0  0
 12 16  1  0  0  0  0
 13 14  1  0  0  0  0
 14 15  2  0  0  0  0
 14 21  1  0  0  0  0
 16 15  1  0  0  0  0
 17 16  2  0  0  0  0
 17 22  1  0  0  0  0
 18  9  1  0  0  0  0
 19 11  1  0  0  0  0
 20 13  1  0  0  0  0
 23 24  1  0  0  0  0
 24 25  2  0  0  0  0
 24 29  1  0  0  0  0
 25 30  1  0  0  0  0
 26 25  1  0  0  0  0
 27 26  2  0  0  0  0
 28 27  1  0  0  0  0
 28 23  2  0  0  0  0
 31 27  1  0  0  0  0
 32 31  2  0  0  0  0
 33 35  2  0  0  0  0
 33 32  1  0  0  0  0
 34 33  1  0  0  0  0
 35 36  1  0  0  0  0
 36 37  2  0  0  0  0
 37 31  1  0  0  0  0
M  END
>  <minimizedAffinity>
-6.20052099

$$$$

 OpenBabel03272507083D

 37 41  0  0  0  0  0  0  0  0999 V2000
   39.1190   25.3050   35.0140 C   0  0  0  0  0  0  0  0  0  0  0  0
   38.5460   26.5720   34.7940 C   0  0  0  0  0  0  0  0  0  0  0  0
   37.5420   26.6450   33.8180 C   0  0  0  0  0  0  0  0  0  0  0  0
   37.1760   25.5230   33.1500 N   0  0  0  0  0  0  0  0  0  0  0  0
   37.7600   24.3230   33.3990 C   0  0  0  0  0  0  0  0  0  0  0  0
   38.7280   24.2120   34.3270 N   0  0  0  0  0  0  0  0  0  0  0  0
   39.9010   25.2580   35.7750 H   0  0  0  0  0  0  0  0  0  0  0  0
   38.8170   27.4640   35.3060 H   0  0  0  0  0  0  0  0  0  0  0  0
   36.1810   23.2740   31.8530 C   0  0  0  0  0  0  0  0  0  0  0  0
   37.3120   23.1670   32.6390 C   0  0  0  0  0  0  0  0  0  0  0  0
   38.0060   21.9780   32.7010 C   0  0  0  0  0  0  0  0  0  0  0  0
   37.5760   20.8910   31.9810 C   0  0  0  0  0  0  0  0  0  0  0  0
   38.0500   19.6220   31.8540 N   0  0  0  0  0  0  0  0  0  0  0  0
   37.1910   19.0200   31.0000 C   0  0  0  0  0  0  0  0  0  0  0  0
   36.2280   19.8630   30.6130 N   0  0  0  0  0  0  0  0  0  0  0  0
   36.4440   21.0450   31.2130 C   0  0  0  0  0  0  0  0  0  0  0  0
   35.7190   22.2030   31.1150 C   0  0  0  0  0  0  0  0  0  0  0  0
   35.6370   24.2160   31.8070 H   0  0  0  0  0  0  0  0  0  0  0  0
   38.8810   21.9410   33.3260 H   0  0  0  0  0  0  0  0  0  0  0  0
   38.8990   19.2610   32.3380 H   0  0  0  0  0  0  0  0  0  0  0  0
   37.3640   17.9830   30.7400 H   0  0  0  0  0  0  0  0  0  0  0  0
   34.8380   22.2510   30.4900 H   0  0  0  0  0  0  0  0  0  0  0  0
   36.8450   27.8680   33.4630 C   0  0  0  0  0  0  0  0  0  0  0  0
   36.7570   28.3620   32.1800 C   0  0  0  0  0  0  0  0  0  0  0  0
   36.1080   29.5130   31.8120 C   0  0  0  0  0  0  0  0  0  0  0  0
   35.5170   30.2000   32.7910 N   0  0  0  0  0  0  0  0  0  0  0  0
   35.5730   29.7640   34.0520 C   0  0  0  0  0  0  0  0  0  0  0  0
   36.2130   28.6440   34.3660 N   0  0  0  0  0  0  0  0  0  0  0  0
   37.2410   27.8040   31.3660 H   0  0  0  0  0  0  0  0  0  0  0  0
   36.0860   29.8320   30.7760 H   0  0  0  0  0  0  0  0  0  0  0  0
   34.9160   30.5370   35.1070 C   0  0  0  0  0  0  0  0  0  0  0  0
   35.6470   31.4320   35.8820 C   0  0  0  0  0  3  0  0  0  0  0  0
   34.9870   32.1390   36.8660 C   0  0  0  0  0  0  0  0  0  0  0  0
   35.5660   32.8280   37.4550 H   0  0  0  0  0  0  0  0  0  0  0  0
   33.6600   31.9940   37.1020 N   0  0  0  0  0  0  0  0  0  0  0  0
   32.9580   31.1130   36.3350 C   0  0  0  0  0  3  0  0  0  0  0  0
   33.6020   30.4260   35.3780 N   0  0  0  0  0  0  0  0  0  0  0  0
  1  7  1  0  0  0  0
  2  1  1  0  0  0  0
  2  8  1  0  0  0  0
  3  2  2  0  0  0  0
  4  5  2  0  0  0  0
  4  3  1  0  0  0  0
  5  6  1  0  0  0  0
  6  1  2  0  0  0  0
  9 10  1  0  0  0  0
 10 11  2  0  0  0  0
 10  5  1  0  0  0  0
 11 19  1  0  0  0  0
 12 11  1  0  0  0  0
 13 12  1  0  0  0  0
 13 20  1  0  0  0  0
 14 13  1  0  0  0  0
 15 14  2  0  0  0  0
 15 16  1  0  0  0  0
 16 12  2  0  0  0  0
 17 16  1  0  0  0  0
 17  9  2  0  0  0  0
 18  9  1  0  0  0  0
 21 14  1  0  0  0  0
 22 17  1  0  0  0  0
 23  3  1  0  0  0  0
 23 28  1  0  0  0  0
 24 23  2  0  0  0  0
 25 24  1  0  0  0  0
 25 26  2  0  0  0  0
 26 27  1  0  0  0  0
 27 28  2  0  0  0  0
 27 31  1  0  0  0  0
 29 24  1  0  0  0  0
 30 25  1  0  0  0  0
 31 37  2  0  0  0  0
 31 32  1  0  0  0  0
 32 33  2  0  0  0  0
 33 35  1  0  0  0  0
 33 34  1  0  0  0  0
 36 35  2  0  0  0  0
 37 36  1  0  0  0  0
M  END
>  <minimizedAffinity>
-6.18800735

$$$$

 OpenBabel03272507083D

 37 41  0  0  0  0  0  0  0  0999 V2000
   36.8020   29.0300   30.9380 C   0  0  0  0  0  0  0  0  0  0  0  0
   37.3740   27.7680   31.1840 C   0  0  0  0  0  0  0  0  0  0  0  0
   37.1610   27.2210   32.4570 C   0  0  0  0  0  0  0  0  0  0  0  0
   36.4330   27.9120   33.3690 N   0  0  0  0  0  0  0  0  0  0  0  0
   35.9020   29.1280   33.0830 C   0  0  0  0  0  0  0  0  0  0  0  0
   36.0840   29.6870   31.8720 N   0  0  0  0  0  0  0  0  0  0  0  0
   36.9730   29.4490   29.9430 H   0  0  0  0  0  0  0  0  0  0  0  0
   37.9480   27.2090   30.4850 H   0  0  0  0  0  0  0  0  0  0  0  0
   33.8000   29.4880   34.2800 C   0  0  0  0  0  0  0  0  0  0  0  0
   35.1340   29.8050   34.1150 C   0  0  0  0  0  0  0  0  0  0  0  0
   35.7280   30.7540   34.9190 C   0  0  0  0  0  0  0  0  0  0  0  0
   34.9950   31.3890   35.8910 C   0  0  0  0  0  0  0  0  0  0  0  0
   35.3110   32.3440   36.8080 N   0  0  0  0  0  0  0  0  0  0  0  0
   34.1600   32.5600   37.4850 C   0  0  0  0  0  0  0  0  0  0  0  0
   33.1750   31.7860   37.0200 N   0  0  0  0  0  0  0  0  0  0  0  0
   33.6700   31.0400   36.0180 C   0  0  0  0  0  0  0  0  0  0  0  0
   33.0320   30.1060   35.2470 C   0  0  0  0  0  0  0  0  0  0  0  0
   33.3350   28.7370   33.6420 H   0  0  0  0  0  0  0  0  0  0  0  0
   36.7690   30.9690   34.7540 H   0  0  0  0  0  0  0  0  0  0  0  0
   36.2560   32.7700   36.9100 H   0  0  0  0  0  0  0  0  0  0  0  0
   34.1610   33.2930   38.2820 H   0  0  0  0  0  0  0  0  0  0  0  0
   31.9860   29.8810   35.4040 H   0  0  0  0  0  0  0  0  0  0  0  0
   37.6780   25.9320   32.8810 C   0  0  0  0  0  0  0  0  0  0  0  0
   38.8350   25.7650   33.6090 C   0  0  0  0  0  0  0  0  0  0  0  0
   39.3500   24.5640   34.0240 C   0  0  0  0  0  0  0  0  0  0  0  0
   38.6580   23.4730   33.6870 N   0  0  0  0  0  0  0  0  0  0  0  0
   37.5300   23.5810   32.9820 C   0  0  0  0  0  0  0  0  0  0  0  0
   37.0660   24.7650   32.5990 N   0  0  0  0  0  0  0  0  0  0  0  0
   39.4130   26.6570   33.8920 H   0  0  0  0  0  0  0  0  0  0  0  0
   40.2700   24.5200   34.5950 H   0  0  0  0  0  0  0  0  0  0  0  0
   36.7890   22.3690   32.6250 C   0  0  0  0  0  0  0  0  0  0  0  0
   36.4610   22.1120   31.2980 C   0  0  0  0  0  3  0  0  0  0  0  0
   35.7630   20.9580   31.0070 C   0  0  0  0  0  0  0  0  0  0  0  0
   35.5180   20.7740   29.9750 H   0  0  0  0  0  0  0  0  0  0  0  0
   35.3890   20.0720   31.9620 N   0  0  0  0  0  0  0  0  0  0  0  0
   35.7180   20.3390   33.2570 C   0  0  0  0  0  3  0  0  0  0  0  0
   36.3980   21.4620   33.5380 N   0  0  0  0  0  0  0  0  0  0  0  0
  1  2  2  0  0  0  0
  1  6  1  0  0  0  0
  2  3  1  0  0  0  0
  3 23  1  0  0  0  0
  3  4  2  0  0  0  0
  5  4  1  0  0  0  0
  5 10  1  0  0  0  0
  6  5  2  0  0  0  0
  7  1  1  0  0  0  0
  8  2  1  0  0  0  0
  9 17  1  0  0  0  0
 10  9  2  0  0  0  0
 10 11  1  0  0  0  0
 11 12  2  0  0  0  0
 12 16  1  0  0  0  0
 12 13  1  0  0  0  0
 13 20  1  0  0  0  0
 13 14  1  0  0  0  0
 14 21  1  0  0  0  0
 15 14  2  0  0  0  0
 16 15  1  0  0  0  0
 17 22  1  0  0  0  0
 17 16  2  0  0  0  0
 18  9  1  0  0  0  0
 19 11  1  0  0  0  0
 23 24  1  0  0  0  0
 24 29  1  0  0  0  0
 24 25  2  0  0  0  0
 25 30  1  0  0  0  0
 26 25  1  0  0  0  0
 27 26  2  0  0  0  0
 28 23  2  0  0  0  0
 28 27  1  0  0  0  0
 31 27  1  0  0  0  0
 31 37  1  0  0  0  0
 32 31  2  0  0  0  0
 33 32  1  0  0  0  0
 33 35  2  0  0  0  0
 34 33  1  0  0  0  0
 35 36  1  0  0  0  0
 36 37  2  0  0  0  0
M  END
>  <minimizedAffinity>
-6.1632514

$$$$

 OpenBabel03272507083D

 37 41  0  0  0  0  0  0  0  0999 V2000
   37.2200   27.5010   31.6840 C   0  0  0  0  0  0  0  0  0  0  0  0
   36.4110   28.5480   32.1640 C   0  0  0  0  0  0  0  0  0  0  0  0
   36.1680   28.5710   33.5450 C   0  0  0  0  0  0  0  0  0  0  0  0
   36.7090   27.6110   34.3340 N   0  0  0  0  0  0  0  0  0  0  0  0
   37.4840   26.6200   33.8230 C   0  0  0  0  0  0  0  0  0  0  0  0
   37.7400   26.5640   32.5040 N   0  0  0  0  0  0  0  0  0  0  0  0
   37.4040   27.4910   30.6080 H   0  0  0  0  0  0  0  0  0  0  0  0
   35.9770   29.3110   31.5630 H   0  0  0  0  0  0  0  0  0  0  0  0
   38.9350   24.7020   34.2640 C   0  0  0  0  0  0  0  0  0  0  0  0
   38.0260   25.6280   34.7370 C   0  0  0  0  0  0  0  0  0  0  0  0
   37.6380   25.6090   36.0590 C   0  0  0  0  0  0  0  0  0  0  0  0
   38.1560   24.6690   36.9150 C   0  0  0  0  0  0  0  0  0  0  0  0
   37.9580   24.4190   38.2390 N   0  0  0  0  0  0  0  0  0  0  0  0
   38.7540   23.3580   38.5070 C   0  0  0  0  0  0  0  0  0  0  0  0
   39.4130   22.9620   37.4140 N   0  0  0  0  0  0  0  0  0  0  0  0
   39.0570   23.7670   36.3990 C   0  0  0  0  0  0  0  0  0  0  0  0
   39.4760   23.7410   35.0960 C   0  0  0  0  0  0  0  0  0  0  0  0
   39.2390   24.7200   33.2180 H   0  0  0  0  0  0  0  0  0  0  0  0
   36.9280   26.3500   36.3830 H   0  0  0  0  0  0  0  0  0  0  0  0
   37.3190   24.9670   38.8520 H   0  0  0  0  0  0  0  0  0  0  0  0
   38.7690   22.9670   39.5170 H   0  0  0  0  0  0  0  0  0  0  0  0
   40.1900   23.0010   34.7590 H   0  0  0  0  0  0  0  0  0  0  0  0
   35.3580   29.5770   34.2070 C   0  0  0  0  0  0  0  0  0  0  0  0
   34.0460   29.3870   34.5820 C   0  0  0  0  0  0  0  0  0  0  0  0
   33.2530   30.3150   35.2090 C   0  0  0  0  0  0  0  0  0  0  0  0
   33.8170   31.4970   35.4700 N   0  0  0  0  0  0  0  0  0  0  0  0
   35.0850   31.7310   35.1270 C   0  0  0  0  0  0  0  0  0  0  0  0
   35.8180   30.8040   34.5210 N   0  0  0  0  0  0  0  0  0  0  0  0
   33.5720   28.4180   34.3710 H   0  0  0  0  0  0  0  0  0  0  0  0
   32.2270   30.0850   35.4700 H   0  0  0  0  0  0  0  0  0  0  0  0
   35.6790   33.0350   35.4260 C   0  0  0  0  0  0  0  0  0  0  0  0
   34.9120   34.0400   36.0060 C   0  0  0  0  0  3  0  0  0  0  0  0
   35.5130   35.2540   36.2700 C   0  0  0  0  0  0  0  0  0  0  0  0
   34.9060   36.0200   36.7200 H   0  0  0  0  0  0  0  0  0  0  0  0
   36.8160   35.5000   35.9880 N   0  0  0  0  0  0  0  0  0  0  0  0
   37.5530   34.5040   35.4190 C   0  0  0  0  0  3  0  0  0  0  0  0
   36.9670   33.3240   35.1620 N   0  0  0  0  0  0  0  0  0  0  0  0
  1  2  2  0  0  0  0
  1  6  1  0  0  0  0
  2  3  1  0  0  0  0
  3 23  1  0  0  0  0
  3  4  2  0  0  0  0
  5  4  1  0  0  0  0
  5 10  1  0  0  0  0
  6  5  2  0  0  0  0
  7  1  1  0  0  0  0
  8  2  1  0  0  0  0
  9 10  2  0  0  0  0
  9 17  1  0  0  0  0
 10 11  1  0  0  0  0
 11 19  1  0  0  0  0
 11 12  2  0  0  0  0
 12 13  1  0  0  0  0
 13 14  1  0  0  0  0
 13 20  1  0  0  0  0
 14 21  1  0  0  0  0
 15 14  2  0  0  0  0
 16 12  1  0  0  0  0
 16 15  1  0  0  0  0
 17 16  2  0  0  0  0
 18  9  1  0  0  0  0
 22 17  1  0  0  0  0
 23 28  2  0  0  0  0
 23 24  1  0  0  0  0
 24 25  2  0  0  0  0
 25 26  1  0  0  0  0
 25 30  1  0  0  0  0
 27 31  1  0  0  0  0
 27 26  2  0  0  0  0
 28 27  1  0  0  0  0
 29 24  1  0  0  0  0
 31 32  1  0  0  0  0
 32 33  2  0  0  0  0
 33 34  1  0  0  0  0
 35 33  1  0  0  0  0
 36 35  2  0  0  0  0
 37 36  1  0  0  0  0
 37 31  2  0  0  0  0
M  END
>  <minimizedAffinity>
-6.14405107

$$$$

 OpenBabel03272507083D

 37 41  0  0  0  0  0  0  0  0999 V2000
   39.2210   26.9010   31.3030 C   0  0  0  0  0  0  0  0  0  0  0  0
   38.2160   27.8800   31.1940 C   0  0  0  0  0  0  0  0  0  0  0  0
   37.3550   28.0200   32.2920 C   0  0  0  0  0  0  0  0  0  0  0  0
   37.5260   27.2290   33.3800 N   0  0  0  0  0  0  0  0  0  0  0  0
   38.5120   26.2970   33.4360 C   0  0  0  0  0  0  0  0  0  0  0  0
   39.3570   26.1330   32.4030 N   0  0  0  0  0  0  0  0  0  0  0  0
   39.8870   26.7990   30.4430 H   0  0  0  0  0  0  0  0  0  0  0  0
   38.0640   28.5110   30.3510 H   0  0  0  0  0  0  0  0  0  0  0  0
   37.6780   25.6180   35.6330 C   0  0  0  0  0  0  0  0  0  0  0  0
   38.6280   25.4880   34.6380 C   0  0  0  0  0  0  0  0  0  0  0  0
   39.6730   24.6020   34.7860 C   0  0  0  0  0  0  0  0  0  0  0  0
   39.7750   23.8420   35.9250 C   0  0  0  0  0  0  0  0  0  0  0  0
   40.6780   22.9090   36.3330 N   0  0  0  0  0  0  0  0  0  0  0  0
   40.2360   22.5160   37.5510 C   0  0  0  0  0  0  0  0  0  0  0  0
   39.1190   23.1670   37.8900 N   0  0  0  0  0  0  0  0  0  0  0  0
   38.8060   24.0060   36.8880 C   0  0  0  0  0  0  0  0  0  0  0  0
   37.7490   24.8710   36.7920 C   0  0  0  0  0  0  0  0  0  0  0  0
   36.8540   26.3200   35.5120 H   0  0  0  0  0  0  0  0  0  0  0  0
   40.3890   24.5340   33.9860 H   0  0  0  0  0  0  0  0  0  0  0  0
   41.5060   22.6090   35.7770 H   0  0  0  0  0  0  0  0  0  0  0  0
   40.8020   21.7640   38.0870 H   0  0  0  0  0  0  0  0  0  0  0  0
   37.0230   24.9470   37.5900 H   0  0  0  0  0  0  0  0  0  0  0  0
   36.2660   28.9780   32.3500 C   0  0  0  0  0  0  0  0  0  0  0  0
   35.8390   29.7280   31.2760 C   0  0  0  0  0  0  0  0  0  0  0  0
   34.8150   30.6400   31.2970 C   0  0  0  0  0  0  0  0  0  0  0  0
   34.1880   30.8020   32.4650 N   0  0  0  0  0  0  0  0  0  0  0  0
   34.5640   30.0980   33.5360 C   0  0  0  0  0  0  0  0  0  0  0  0
   35.5620   29.2250   33.4720 N   0  0  0  0  0  0  0  0  0  0  0  0
   36.3490   29.6030   30.3100 H   0  0  0  0  0  0  0  0  0  0  0  0
   34.5410   31.1910   30.4050 H   0  0  0  0  0  0  0  0  0  0  0  0
   33.8600   30.2940   34.8050 C   0  0  0  0  0  0  0  0  0  0  0  0
   32.8000   29.4640   35.1550 C   0  0  0  0  0  3  0  0  0  0  0  0
   32.1650   29.6840   36.3600 C   0  0  0  0  0  0  0  0  0  0  0  0
   31.3480   29.0330   36.6160 H   0  0  0  0  0  0  0  0  0  0  0  0
   32.5360   30.6740   37.2090 N   0  0  0  0  0  0  0  0  0  0  0  0
   33.5760   31.4790   36.8510 C   0  0  0  0  0  3  0  0  0  0  0  0
   34.1920   31.2620   35.6780 N   0  0  0  0  0  0  0  0  0  0  0  0
  1  6  1  0  0  0  0
  2  1  2  0  0  0  0
  2  3  1  0  0  0  0
  3 23  1  0  0  0  0
  3  4  2  0  0  0  0
  4  5  1  0  0  0  0
  5 10  1  0  0  0  0
  6  5  2  0  0  0  0
  7  1  1  0  0  0  0
  8  2  1  0  0  0  0
  9 17  1  0  0  0  0
 10 11  1  0  0  0  0
 10  9  2  0  0  0  0
 11 12  2  0  0  0  0
 12 13  1  0  0  0  0
 12 16  1  0  0  0  0
 13 14  1  0  0  0  0
 14 15  2  0  0  0  0
 14 21  1  0  0  0  0
 16 15  1  0  0  0  0
 17 16  2  0  0  0  0
 17 22  1  0  0  0  0
 18  9  1  0  0  0  0
 19 11  1  0  0  0  0
 20 13  1  0  0  0  0
 23 28  1  0  0  0  0
 24 25  1  0  0  0  0
 24 23  2  0  0  0  0
 25 26  2  0  0  0  0
 26 27  1  0  0  0  0
 27 31  1  0  0  0  0
 28 27  2  0  0  0  0
 29 24  1  0  0  0  0
 30 25  1  0  0  0  0
 31 32  2  0  0  0  0
 31 37  1  0  0  0  0
 32 33  1  0  0  0  0
 33 34  1  0  0  0  0
 33 35  2  0  0  0  0
 36 35  1  0  0  0  0
 37 36  2  0  0  0  0
M  END
>  <minimizedAffinity>
-6.07689857

$$$$
