
 OpenBabel03272510263D

 43 47  0  0  1  0  0  0  0  0999 V2000
   36.0950   30.2220   46.8560 C   0  0  0  0  0  0  0  0  0  0  0  0
   37.0470   30.7220   47.7440 C   0  0  0  0  0  0  0  0  0  0  0  0
   38.0900   31.5290   47.3030 C   0  0  0  0  0  0  0  0  0  0  0  0
   38.1250   31.8030   45.9400 C   0  0  0  0  0  0  0  0  0  0  0  0
   39.0440   32.5600   45.2720 N   0  0  0  0  0  0  0  0  0  0  0  0
   38.6840   32.5440   43.9800 C   0  0  0  0  0  0  0  0  0  0  0  0
   37.5980   31.8190   43.8250 N   0  0  0  0  0  0  0  0  0  0  0  0
   37.2090   31.3340   45.0290 C   0  0  0  0  0  0  0  0  0  0  0  0
   36.1690   30.5230   45.5000 C   0  0  0  0  0  0  0  0  0  0  0  0
   35.2780   29.5960   47.1680 H   0  0  0  0  0  0  0  0  0  0  0  0
   38.8190   31.9090   48.0010 H   0  0  0  0  0  0  0  0  0  0  0  0
   39.8700   33.0520   45.7130 H   0  0  0  0  0  0  0  0  0  0  0  0
   35.4600   30.1650   44.7640 H   0  0  0  0  0  0  0  0  0  0  0  0
   37.5880   30.2120   51.4220 C   0  0  0  0  0  0  0  0  0  0  0  0
   37.8280   30.6200   50.1240 C   0  0  0  0  0  0  0  0  0  0  0  0
   36.8910   30.3440   49.1350 C   0  0  0  0  0  0  0  0  0  0  0  0
   35.7580   29.6710   49.4990 N   0  0  0  0  0  0  0  0  0  0  0  0
   35.5370   29.2760   50.7780 C   0  0  0  0  0  0  0  0  0  0  0  0
   36.4290   29.5410   51.7090 N   0  0  0  0  0  0  0  0  0  0  0  0
   38.2970   30.4170   52.1870 H   0  0  0  0  0  0  0  0  0  0  0  0
   38.7270   31.1550   49.8390 H   0  0  0  0  0  0  0  0  0  0  0  0
   34.6010   28.7370   50.9930 H   0  0  0  0  0  0  0  0  0  0  0  0
   39.4200   33.2300   43.0000 O   0  0  0  0  0  0  0  0  0  0  0  0
   39.0910   31.4020   41.6720 N   0  0  0  0  0  0  0  0  0  0  0  0
   39.1320   32.8760   41.6530 C   0  0  1  0  0  0  0  0  0  0  0  0
   37.8380   33.3790   41.2120 C   0  0  0  0  0  0  0  0  0  0  0  0
   37.6310   32.9790   39.8790 O   0  0  0  0  0  0  0  0  0  0  0  0
   37.7270   31.6340   39.6560 C   0  0  0  0  0  0  0  0  0  0  0  0
   38.9300   31.0050   40.2880 C   0  0  1  0  0  0  0  0  0  0  0  0
   40.0430   31.1080   41.9890 H   0  0  0  0  0  0  0  0  0  0  0  0
   39.9160   33.2390   40.9790 H   0  0  0  0  0  0  0  0  0  0  0  0
   36.9110   33.1810   41.6780 H   0  0  0  0  0  0  0  0  0  0  0  0
   37.9230   34.5040   41.1280 H   0  0  0  0  0  0  0  0  0  0  0  0
   36.8240   31.1640   40.1210 H   0  0  0  0  0  0  0  0  0  0  0  0
   37.7580   31.4780   38.5670 H   0  0  0  0  0  0  0  0  0  0  0  0
   38.6950   29.9010   40.3410 H   0  0  0  0  0  0  0  0  0  0  0  0
   40.1720   31.1050   39.5200 C   0  0  0  0  0  0  0  0  0  0  0  0
   40.4670   31.7470   38.3530 C   0  0  0  0  0  3  0  0  0  0  0  0
   41.7310   31.7050   37.8010 C   0  0  0  0  0  0  0  0  0  0  0  0
   41.8370   32.2570   36.8690 H   0  0  0  0  0  0  0  0  0  0  0  0
   42.7440   31.0180   38.4000 N   0  0  0  0  0  0  0  0  0  0  0  0
   42.4250   30.3940   39.5500 C   0  0  0  0  0  3  0  0  0  0  0  0
   41.1860   30.4150   40.1250 N   0  0  0  0  0  0  0  0  0  0  0  0
  1 10  1  0  0  0  0
  1  2  1  0  0  0  0
  2 16  1  0  0  0  0
  3  2  2  0  0  0  0
  3 11  1  0  0  0  0
  4  3  1  0  0  0  0
  5 12  1  0  0  0  0
  5  4  1  0  0  0  0
  6  5  1  0  0  0  0
  7  6  2  0  0  0  0
  7  8  1  0  0  0  0
  8  9  1  0  0  0  0
  8  4  2  0  0  0  0
  9  1  2  0  0  0  0
 13  9  1  0  0  0  0
 14 19  1  0  0  0  0
 14 20  1  0  0  0  0
 15 14  2  0  0  0  0
 16 17  2  0  0  0  0
 16 15  1  0  0  0  0
 17 18  1  0  0  0  0
 18 22  1  0  0  0  0
 18 19  2  0  0  0  0
 21 15  1  0  0  0  0
 23  6  1  0  0  0  0
 24 30  1  0  0  0  0
 25 31  1  6  0  0  0
 25 24  1  0  0  0  0
 25 23  1  0  0  0  0
 26 25  1  0  0  0  0
 26 32  1  0  0  0  0
 27 26  1  0  0  0  0
 28 27  1  0  0  0  0
 28 34  1  0  0  0  0
 28 29  1  0  0  0  0
 29 36  1  1  0  0  0
 29 24  1  0  0  0  0
 33 26  1  0  0  0  0
 35 28  1  0  0  0  0
 37 43  1  0  0  0  0
 37 29  1  0  0  0  0
 38 37  2  0  0  0  0
 39 38  1  0  0  0  0
 39 41  2  0  0  0  0
 40 39  1  0  0  0  0
 41 42  1  0  0  0  0
 42 43  2  0  0  0  0
M  END
>  <minimizedAffinity>
-5.76409769

>  <minimizedRMSD>
0.846529663

$$$$
