
 OpenBabel03272509463D

 23 24  0  0  0  0  0  0  0  0999 V2000
   34.1010   28.4520   48.5680 C   0  0  0  0  0  0  0  0  0  0  0  0
   34.6470   29.1340   47.9050 H   0  0  0  0  0  0  0  0  0  0  0  0
   33.1190   28.9180   48.7930 H   0  0  0  0  0  0  0  0  0  0  0  0
   33.8460   27.1010   47.9650 C   0  0  0  0  0  0  0  0  0  0  0  0
   33.2430   26.5010   48.6450 H   0  0  0  0  0  0  0  0  0  0  0  0
   34.8250   26.5850   47.7700 H   0  0  0  0  0  0  0  0  0  0  0  0
   33.1900   27.1880   46.6330 C   0  0  0  0  0  0  0  0  0  0  0  0
   32.9500   28.4550   46.1390 C   0  0  0  0  0  3  0  0  0  0  0  0
   32.3480   28.6580   44.9160 C   0  0  0  0  0  0  0  0  0  0  0  0
   32.1300   29.6220   44.4680 H   0  0  0  0  0  0  0  0  0  0  0  0
   31.9860   27.6000   44.1840 N   0  0  0  0  0  0  0  0  0  0  0  0
   32.2250   26.3590   44.6750 C   0  0  0  0  0  3  0  0  0  0  0  0
   32.8100   26.1390   45.8650 N   0  0  0  0  0  0  0  0  0  0  0  0
   34.7360   28.3090   49.8340 O   0  0  0  0  0  0  0  0  0  0  0  0
   37.3670   30.2450   51.4100 C   0  0  0  0  0  0  0  0  0  0  0  0
   38.0650   30.6720   50.2630 C   0  0  0  0  0  0  0  0  0  0  0  0
   37.5900   30.2690   49.0210 C   0  0  0  0  0  0  0  0  0  0  0  0
   36.4700   29.4810   48.9980 N   0  0  0  0  0  0  0  0  0  0  0  0
   35.8280   29.0920   50.1060 C   0  0  0  0  0  0  0  0  0  0  0  0
   36.2830   29.4780   51.3210 N   0  0  0  0  0  0  0  0  0  0  0  0
   37.6830   30.5220   52.4130 H   0  0  0  0  0  0  0  0  0  0  0  0
   38.9440   31.2960   50.3760 H   0  0  0  0  0  0  0  0  0  0  0  0
   38.0990   30.5760   48.1130 H   0  0  0  0  0  0  0  0  0  0  0  0
  1  3  1  0  0  0  0
  1 14  1  0  0  0  0
  2  1  1  0  0  0  0
  4  1  1  0  0  0  0
  4  5  1  0  0  0  0
  6  4  1  0  0  0  0
  7  4  1  0  0  0  0
  8  7  1  0  0  0  0
  9  8  2  0  0  0  0
 10  9  1  0  0  0  0
 11 12  2  0  0  0  0
 11  9  1  0  0  0  0
 12 13  1  0  0  0  0
 13  7  2  0  0  0  0
 14 19  1  0  0  0  0
 15 21  1  0  0  0  0
 16 22  1  0  0  0  0
 16 15  2  0  0  0  0
 17 16  1  0  0  0  0
 18 17  2  0  0  0  0
 18 19  1  0  0  0  0
 19 20  2  0  0  0  0
 20 15  1  0  0  0  0
 23 17  1  0  0  0  0
M  END
>  <minimizedAffinity>
-3.63674784

>  <minimizedRMSD>
0.133847475

$$$$
