
 OpenBabel03262521093D

 22 23  0  0  0  0  0  0  0  0999 V2000
   34.8540   29.2210   45.7030 O   0  0  0  0  0  0  0  0  0  0  0  0
   34.7460   29.8020   47.1060 P   0  0  1  0  0  0  0  0  0  0  0  0
   33.4210   30.8720   47.1870 O   0  0  0  0  0  0  0  0  0  0  0  0
   33.7150   31.7500   47.5380 H   0  0  0  0  0  0  0  0  0  0  0  0
   34.4770   28.6040   48.2970 O   0  0  0  0  0  0  0  0  0  0  0  0
   33.4730   27.6640   48.1800 C   0  0  0  0  0  0  0  0  0  0  0  0
   32.1440   27.8230   48.6240 C   0  0  0  0  0  0  0  0  0  0  0  0
   31.2590   26.7760   48.4270 C   0  0  0  0  0  0  0  0  0  0  0  0
   31.6940   25.6350   47.8170 N   0  0  0  0  0  0  0  0  0  0  0  0
   32.9850   25.5140   47.4010 C   0  0  0  0  0  0  0  0  0  0  0  0
   33.8840   26.5230   47.5770 N   0  0  0  0  0  0  0  0  0  0  0  0
   31.9160   28.7690   49.0930 H   0  0  0  0  0  0  0  0  0  0  0  0
   30.2440   26.9100   48.7730 H   0  0  0  0  0  0  0  0  0  0  0  0
   33.2710   24.5770   46.9190 H   0  0  0  0  0  0  0  0  0  0  0  0
   36.1840   30.6270   47.4190 O   0  0  0  0  0  0  0  0  0  0  0  0
   37.1220   30.8560   46.4210 C   0  0  0  0  0  0  0  0  0  0  0  0
   36.9720   31.1670   45.0770 C   0  0  0  0  0  0  0  0  0  0  0  0
   38.0800   31.3450   44.3050 C   0  0  0  0  0  0  0  0  0  0  0  0
   37.8530   31.5830   43.2720 H   0  0  0  0  0  0  0  0  0  0  0  0
   39.2890   31.2190   44.8450 N   0  0  0  0  0  0  0  0  0  0  0  0
   39.4680   30.9210   46.1350 C   0  0  0  0  0  0  0  0  0  0  0  0
   38.3780   30.7390   46.9280 N   0  0  0  0  0  0  0  0  0  0  0  0
  2  1  2  6  0  0  0
  2  3  1  0  0  0  0
  2 15  1  0  0  0  0
  2  5  1  0  0  0  0
  3  4  1  0  0  0  0
  6  5  1  0  0  0  0
  6  7  1  0  0  0  0
  7 12  1  0  0  0  0
  8  7  2  0  0  0  0
  8 13  1  0  0  0  0
  9  8  1  0  0  0  0
 10 11  1  0  0  0  0
 10  9  2  0  0  0  0
 11  6  2  0  0  0  0
 14 10  1  0  0  0  0
 16 22  1  0  0  0  0
 16 15  1  0  0  0  0
 17 16  2  0  0  0  0
 18 20  2  0  0  0  0
 18 17  1  0  0  0  0
 19 18  1  0  0  0  0
 20 21  1  0  0  0  0
 21 22  2  0  0  0  0
M  END
>  <minimizedAffinity>
-3.83938861

>  <minimizedRMSD>
5.26616955

$$$$
