
 OpenBabel03272502233D

 27 29  0  0  0  0  0  0  0  0999 V2000
   36.8300   29.6980   50.1710 C   0  0  0  0  0  0  0  0  0  0  0  0
   37.4280   30.4120   49.1180 C   0  0  0  0  0  0  0  0  0  0  0  0
   36.8480   30.3230   47.8650 C   0  0  0  0  0  0  0  0  0  0  0  0
   35.7460   29.5580   47.7310 N   0  0  0  0  0  0  0  0  0  0  0  0
   35.1900   28.8830   48.7490 C   0  0  0  0  0  0  0  0  0  0  0  0
   35.7350   28.9530   49.9780 N   0  0  0  0  0  0  0  0  0  0  0  0
   37.2910   29.7760   51.1400 H   0  0  0  0  0  0  0  0  0  0  0  0
   38.3110   31.0240   49.2310 H   0  0  0  0  0  0  0  0  0  0  0  0
   37.3670   31.0120   46.6890 C   0  0  0  0  0  0  0  0  0  0  0  0
   36.7610   30.8980   45.4500 C   0  0  0  0  0  0  0  0  0  0  0  0
   37.2410   31.5460   44.3220 C   0  0  0  0  0  0  0  0  0  0  0  0
   38.3360   32.3190   44.4180 N   0  0  0  0  0  0  0  0  0  0  0  0
   38.9130   32.4200   45.6270 C   0  0  0  0  0  0  0  0  0  0  0  0
   38.4620   31.8010   46.7240 N   0  0  0  0  0  0  0  0  0  0  0  0
   35.8730   30.2760   45.3540 H   0  0  0  0  0  0  0  0  0  0  0  0
   36.7000   31.3980   43.3930 H   0  0  0  0  0  0  0  0  0  0  0  0
   40.1290   33.2680   45.7710 C   0  0  0  0  0  0  0  0  0  0  0  0
   40.1410   33.7950   47.0600 F   0  0  0  0  0  0  0  0  0  0  0  0
   41.2830   32.5400   45.5350 F   0  0  0  0  0  0  0  0  0  0  0  0
   40.1200   34.3260   44.9060 F   0  0  0  0  0  0  0  0  0  0  0  0
   33.9970   28.0740   48.5290 C   0  0  0  0  0  0  0  0  0  0  0  0
   32.8060   28.4180   49.1340 C   0  0  0  0  0  3  0  0  0  0  0  0
   31.7190   27.6080   48.8830 C   0  0  0  0  0  0  0  0  0  0  0  0
   30.8030   27.9320   49.3900 H   0  0  0  0  0  0  0  0  0  0  0  0
   31.7750   26.5100   48.0790 N   0  0  0  0  0  0  0  0  0  0  0  0
   32.9670   26.2110   47.5060 C   0  0  0  0  0  3  0  0  0  0  0  0
   34.0670   26.9880   47.7310 N   0  0  0  0  0  0  0  0  0  0  0  0
  1  7  1  0  0  0  0
  2  8  1  0  0  0  0
  2  1  2  0  0  0  0
  3  2  1  0  0  0  0
  4  3  2  0  0  0  0
  4  5  1  0  0  0  0
  5  6  2  0  0  0  0
  6  1  1  0  0  0  0
  9 14  1  0  0  0  0
  9  3  1  0  0  0  0
 10  9  2  0  0  0  0
 11 12  2  0  0  0  0
 11 10  1  0  0  0  0
 12 13  1  0  0  0  0
 13 17  1  0  0  0  0
 13 14  2  0  0  0  0
 15 10  1  0  0  0  0
 16 11  1  0  0  0  0
 17 18  1  0  0  0  0
 19 17  1  0  0  0  0
 20 17  1  0  0  0  0
 21  5  1  0  0  0  0
 21 22  1  0  0  0  0
 23 22  2  0  0  0  0
 23 24  1  0  0  0  0
 25 23  1  0  0  0  0
 26 27  1  0  0  0  0
 26 25  2  0  0  0  0
 27 21  2  0  0  0  0
M  END
>  <minimizedAffinity>
-5.86543322

>  <minimizedRMSD>
1.49148381

$$$$
