
 OpenBabel03262522203D

 17 18  0  0  0  0  0  0  0  0999 V2000
   36.7540   29.4420   50.0450 C   0  0  0  0  0  0  0  0  0  0  0  0
   36.7100   30.0280   48.7650 C   0  0  0  0  0  0  0  0  0  0  0  0
   35.4680   30.3830   48.2690 C   0  0  0  0  0  0  0  0  0  0  0  0
   34.3560   30.1580   49.0190 N   0  0  0  0  0  0  0  0  0  0  0  0
   34.4440   29.5900   50.2460 C   0  0  0  0  0  0  0  0  0  0  0  0
   35.6280   29.2280   50.7730 N   0  0  0  0  0  0  0  0  0  0  0  0
   37.6820   29.1320   50.5140 H   0  0  0  0  0  0  0  0  0  0  0  0
   35.4920   30.8190   47.3050 H   0  0  0  0  0  0  0  0  0  0  0  0
   33.4880   29.4620   50.7490 H   0  0  0  0  0  0  0  0  0  0  0  0
   37.9400   30.1700   48.1720 O   0  0  0  0  0  0  0  0  0  0  0  0
   38.2090   31.0240   47.1010 C   0  0  0  0  0  0  0  0  0  0  0  0
   37.5670   31.0160   45.8710 C   0  0  0  0  0  3  0  0  0  0  0  0
   37.9480   31.9290   44.9050 C   0  0  0  0  0  0  0  0  0  0  0  0
   37.4400   31.9130   43.9520 H   0  0  0  0  0  0  0  0  0  0  0  0
   38.9270   32.8180   45.1520 N   0  0  0  0  0  0  0  0  0  0  0  0
   39.5110   32.7750   46.3630 C   0  0  0  0  0  3  0  0  0  0  0  0
   39.1890   31.9120   47.3470 N   0  0  0  0  0  0  0  0  0  0  0  0
  1  7  1  0  0  0  0
  1  6  1  0  0  0  0
  2  1  2  0  0  0  0
  3  2  1  0  0  0  0
  3  4  2  0  0  0  0
  4  5  1  0  0  0  0
  5  9  1  0  0  0  0
  5  6  2  0  0  0  0
  8  3  1  0  0  0  0
 10  2  1  0  0  0  0
 11 17  1  0  0  0  0
 11 10  1  0  0  0  0
 12 11  2  0  0  0  0
 13 15  2  0  0  0  0
 13 12  1  0  0  0  0
 14 13  1  0  0  0  0
 15 16  1  0  0  0  0
 16 17  2  0  0  0  0
M  END
>  <minimizedAffinity>
-4.01129532

>  <minimizedRMSD>
3.54778314

$$$$
