
 OpenBabel03272500353D

 19 20  0  0  0  0  0  0  0  0999 V2000
   37.3990   30.2950   50.0250 C   0  0  0  0  0  0  0  0  0  0  0  0
   38.2970   31.3580   50.1700 C   0  0  0  0  0  0  0  0  0  0  0  0
   38.5500   32.1510   49.0440 C   0  0  0  0  0  0  0  0  0  0  0  0
   37.9130   31.8440   47.8820 N   0  0  0  0  0  0  0  0  0  0  0  0
   37.0520   30.8070   47.7880 C   0  0  0  0  0  0  0  0  0  0  0  0
   36.8000   30.0400   48.8550 N   0  0  0  0  0  0  0  0  0  0  0  0
   38.8030   31.5960   51.1020 H   0  0  0  0  0  0  0  0  0  0  0  0
   39.2280   32.9930   49.0630 H   0  0  0  0  0  0  0  0  0  0  0  0
   36.3930   30.5200   46.5190 C   0  0  0  0  0  0  0  0  0  0  0  0
   35.1260   29.9440   46.5180 C   0  0  0  0  0  0  0  0  0  0  0  0
   34.4220   29.6360   45.3690 C   0  0  0  0  0  0  0  0  0  0  0  0
   33.4400   29.1910   45.3970 H   0  0  0  0  0  0  0  0  0  0  0  0
   35.0320   29.9240   44.1890 N   0  0  0  0  0  0  0  0  0  0  0  0
   36.2710   30.4860   44.1790 C   0  0  0  0  0  0  0  0  0  0  0  0
   36.9430   30.7810   45.3230 N   0  0  0  0  0  0  0  0  0  0  0  0
   37.1240   29.4430   51.2260 C   0  0  0  0  0  0  0  0  0  0  0  0
   35.7690   29.1750   51.3170 F   0  0  0  0  0  0  0  0  0  0  0  0
   37.8870   28.3030   51.1120 F   0  0  0  0  0  0  0  0  0  0  0  0
   37.4700   30.1740   52.3540 F   0  0  0  0  0  0  0  0  0  0  0  0
  1  2  1  0  0  0  0
  1 16  1  0  0  0  0
  2  7  1  0  0  0  0
  3  8  1  0  0  0  0
  3  2  2  0  0  0  0
  4  3  1  0  0  0  0
  5  4  2  0  0  0  0
  5  6  1  0  0  0  0
  6  1  2  0  0  0  0
  9  5  1  0  0  0  0
 10  9  1  0  0  0  0
 11 12  1  0  0  0  0
 11 10  2  0  0  0  0
 13 11  1  0  0  0  0
 14 13  2  0  0  0  0
 14 15  1  0  0  0  0
 15  9  2  0  0  0  0
 16 17  1  0  0  0  0
 16 19  1  0  0  0  0
 18 16  1  0  0  0  0
M  END
>  <minimizedAffinity>
-5.19864368

>  <minimizedRMSD>
0.281707287

$$$$
