
 OpenBabel03272505433D

 22 23  0  0  0  0  0  0  0  0999 V2000
   32.4140   27.9710   49.0540 O   0  0  0  0  0  0  0  0  0  0  0  0
   33.7950   28.2900   48.5220 P   0  0  2  0  0  0  0  0  0  0  0  0
   34.0890   27.1790   47.2720 O   0  0  0  0  0  0  0  0  0  0  0  0
   34.1280   26.2530   47.6540 H   0  0  0  0  0  0  0  0  0  0  0  0
   34.9200   28.1100   49.7810 O   0  0  0  0  0  0  0  0  0  0  0  0
   37.3250   30.3310   51.3980 C   0  0  0  0  0  0  0  0  0  0  0  0
   38.0370   30.7790   50.2390 C   0  0  0  0  0  0  0  0  0  0  0  0
   37.6360   30.2830   48.9920 C   0  0  0  0  0  0  0  0  0  0  0  0
   36.5990   29.4100   48.9490 N   0  0  0  0  0  0  0  0  0  0  0  0
   35.9470   29.0060   50.0590 C   0  0  0  0  0  0  0  0  0  0  0  0
   36.3090   29.4650   51.2750 N   0  0  0  0  0  0  0  0  0  0  0  0
   37.6130   30.6970   52.3760 H   0  0  0  0  0  0  0  0  0  0  0  0
   38.8590   31.4820   50.3550 H   0  0  0  0  0  0  0  0  0  0  0  0
   38.1620   30.6100   48.0970 H   0  0  0  0  0  0  0  0  0  0  0  0
   33.7580   29.8300   47.8800 O   0  0  0  0  0  0  0  0  0  0  0  0
   33.6050   30.1740   46.5500 C   0  0  0  0  0  0  0  0  0  0  0  0
   32.5440   30.7350   45.8710 C   0  0  0  0  0  3  0  0  0  0  0  0
   32.6560   30.9780   44.5200 C   0  0  0  0  0  0  0  0  0  0  0  0
   31.7670   31.4220   44.0720 H   0  0  0  0  0  0  0  0  0  0  0  0
   33.7830   30.6710   43.8940 N   0  0  0  0  0  0  0  0  0  0  0  0
   34.8290   30.1280   44.5210 C   0  0  0  0  0  3  0  0  0  0  0  0
   34.7370   29.8820   45.8450 N   0  0  0  0  0  0  0  0  0  0  0  0
  2  1  2  1  0  0  0
  2  5  1  0  0  0  0
  3  4  1  0  0  0  0
  3  2  1  0  0  0  0
  5 10  1  0  0  0  0
  6 12  1  0  0  0  0
  7 13  1  0  0  0  0
  7  6  2  0  0  0  0
  8  7  1  0  0  0  0
  9  8  2  0  0  0  0
  9 10  1  0  0  0  0
 10 11  2  0  0  0  0
 11  6  1  0  0  0  0
 14  8  1  0  0  0  0
 15  2  1  0  0  0  0
 16 15  1  0  0  0  0
 17 16  1  0  0  0  0
 18 17  2  0  0  0  0
 19 18  1  0  0  0  0
 20 18  1  0  0  0  0
 20 21  2  0  0  0  0
 21 22  1  0  0  0  0
 22 16  2  0  0  0  0
M  END
>  <minimizedAffinity>
-4.32144117

>  <minimizedRMSD>
0.84606725

$$$$
