
 OpenBabel03272510203D

 34 37  0  0  0  0  0  0  0  0999 V2000
   37.4140   29.1650   50.8030 Br  0  0  0  0  0  0  0  0  0  0  0  0
   35.9980   29.2710   49.5290 C   0  0  0  0  0  0  0  0  0  0  0  0
   35.9990   30.2760   48.5670 C   0  0  0  0  0  0  0  0  0  0  0  0
   34.9410   30.2950   47.6730 C   0  0  0  0  0  0  0  0  0  0  0  0
   33.9070   29.3790   47.6940 C   0  0  0  0  0  0  0  0  0  0  0  0
   33.9490   28.4070   48.6610 C   0  0  0  0  0  0  0  0  0  0  0  0
   34.9880   28.3660   49.5600 C   0  0  0  0  0  0  0  0  0  0  0  0
   34.8800   31.0500   46.8990 H   0  0  0  0  0  0  0  0  0  0  0  0
   33.1650   27.6570   48.7290 H   0  0  0  0  0  0  0  0  0  0  0  0
   35.0110   27.5910   50.3200 H   0  0  0  0  0  0  0  0  0  0  0  0
   38.0080   33.1810   49.4650 C   0  0  0  0  0  0  0  0  0  0  0  0
   39.0410   33.1810   48.4710 C   0  0  0  0  0  0  0  0  0  0  0  0
   39.0170   32.1710   47.5110 C   0  0  0  0  0  0  0  0  0  0  0  0
   38.0200   31.2360   47.5580 N   0  0  0  0  0  0  0  0  0  0  0  0
   37.0650   31.2630   48.5030 C   0  0  0  0  0  0  0  0  0  0  0  0
   37.0730   32.2350   49.4420 N   0  0  0  0  0  0  0  0  0  0  0  0
   38.0340   33.9680   50.2050 H   0  0  0  0  0  0  0  0  0  0  0  0
   39.8220   33.9260   48.4460 H   0  0  0  0  0  0  0  0  0  0  0  0
   39.7600   32.1010   46.7280 H   0  0  0  0  0  0  0  0  0  0  0  0
   32.8050   29.4000   46.7610 C   0  0  0  0  0  0  0  0  0  0  0  0
   31.9860   28.3360   46.4840 C   0  0  0  0  0  0  0  0  0  0  0  0
   30.9380   28.3900   45.5850 C   0  0  0  0  0  0  0  0  0  0  0  0
   30.6960   29.5460   44.9370 N   0  0  0  0  0  0  0  0  0  0  0  0
   31.4910   30.6020   45.1980 C   0  0  0  0  0  0  0  0  0  0  0  0
   32.4880   30.5100   46.0710 N   0  0  0  0  0  0  0  0  0  0  0  0
   32.1750   27.3860   47.0060 H   0  0  0  0  0  0  0  0  0  0  0  0
   30.3240   27.4960   45.4130 H   0  0  0  0  0  0  0  0  0  0  0  0
   31.2460   31.8630   44.5090 C   0  0  0  0  0  0  0  0  0  0  0  0
   30.4970   31.8970   43.3510 C   0  0  0  0  0  0  0  0  0  0  0  0
   30.2620   33.0890   42.6940 C   0  0  0  0  0  0  0  0  0  0  0  0
   29.6630   32.9630   41.8060 H   0  0  0  0  0  0  0  0  0  0  0  0
   30.7700   34.2390   43.1870 N   0  0  0  0  0  0  0  0  0  0  0  0
   31.5100   34.2180   44.3280 C   0  0  0  0  0  0  0  0  0  0  0  0
   31.7290   33.0340   44.9610 N   0  0  0  0  0  0  0  0  0  0  0  0
  2  7  1  0  0  0  0
  2  1  1  0  0  0  0
  3  2  2  0  0  0  0
  4  5  2  0  0  0  0
  4  3  1  0  0  0  0
  5  6  1  0  0  0  0
  6  9  1  0  0  0  0
  6  7  2  0  0  0  0
  7 10  1  0  0  0  0
  8  4  1  0  0  0  0
 11 17  1  0  0  0  0
 12 11  2  0  0  0  0
 13 14  2  0  0  0  0
 13 12  1  0  0  0  0
 14 15  1  0  0  0  0
 15  3  1  0  0  0  0
 15 16  2  0  0  0  0
 16 11  1  0  0  0  0
 18 12  1  0  0  0  0
 19 13  1  0  0  0  0
 20  5  1  0  0  0  0
 21 20  1  0  0  0  0
 21 26  1  0  0  0  0
 22 21  2  0  0  0  0
 23 24  2  0  0  0  0
 23 22  1  0  0  0  0
 24 25  1  0  0  0  0
 25 20  2  0  0  0  0
 27 22  1  0  0  0  0
 28 34  1  0  0  0  0
 28 24  1  0  0  0  0
 29 28  2  0  0  0  0
 30 32  2  0  0  0  0
 30 29  1  0  0  0  0
 31 30  1  0  0  0  0
 32 33  1  0  0  0  0
 33 34  2  0  0  0  0
M  END
>  <minimizedAffinity>
-6.65045547

>  <minimizedRMSD>
0.395013988

$$$$
