
 OpenBabel03272500233D

 35 37  0  0  0  0  0  0  0  0999 V2000
   38.3550   26.1710   36.6060 C   0  0  0  0  0  0  0  0  0  0  0  0
   38.4320   24.7490   36.7130 C   0  0  0  0  0  0  0  0  0  0  0  0
   38.7220   24.0070   35.5680 C   0  0  0  0  0  0  0  0  0  0  0  0
   38.9190   24.6880   34.3910 N   0  0  0  0  0  0  0  0  0  0  0  0
   38.8430   26.0050   34.3130 C   0  0  0  0  0  0  0  0  0  0  0  0
   38.5650   26.7600   35.3980 N   0  0  0  0  0  0  0  0  0  0  0  0
   38.1320   26.7200   37.4930 H   0  0  0  0  0  0  0  0  0  0  0  0
   36.3610   26.9720   32.8890 Cl  0  0  0  0  0  0  0  0  0  0  0  0
   37.9950   27.1450   32.2750 C   0  0  0  0  0  0  0  0  0  0  0  0
   39.0670   26.6620   33.0130 C   0  0  0  0  0  0  0  0  0  0  0  0
   40.3910   26.7740   32.5700 C   0  0  0  0  0  0  0  0  0  0  0  0
   40.5690   27.4000   31.3380 C   0  0  0  0  0  0  0  0  0  0  0  0
   39.5410   27.8860   30.5870 C   0  0  0  0  0  0  0  0  0  0  0  0
   39.9010   28.6480   29.0650 Cl  0  0  0  0  0  0  0  0  0  0  0  0
   38.2370   27.7540   31.0660 C   0  0  0  0  0  0  0  0  0  0  0  0
   41.2370   26.4180   33.1050 H   0  0  0  0  0  0  0  0  0  0  0  0
   41.5940   27.4960   30.9770 H   0  0  0  0  0  0  0  0  0  0  0  0
   37.1040   28.2690   30.2760 C   0  0  0  0  0  0  0  0  0  0  0  0
   36.0600   27.3310   30.2590 F   0  0  0  0  0  0  0  0  0  0  0  0
   37.4620   28.5930   28.9990 F   0  0  0  0  0  0  0  0  0  0  0  0
   36.5860   29.3990   30.8700 F   0  0  0  0  0  0  0  0  0  0  0  0
   38.1960   24.1370   38.0560 C   0  0  0  0  0  0  0  0  0  0  0  0
   39.3180   23.4450   38.4830 F   0  0  0  0  0  0  0  0  0  0  0  0
   37.9720   25.1690   38.9530 F   0  0  0  0  0  0  0  0  0  0  0  0
   37.1040   23.3070   38.0840 F   0  0  0  0  0  0  0  0  0  0  0  0
   38.8030   22.5520   35.6710 C   0  0  0  0  0  0  0  0  0  0  0  0
   38.7040   22.1760   36.7210 H   0  0  0  0  0  0  0  0  0  0  0  0
   39.7960   22.2300   35.3290 H   0  0  0  0  0  0  0  0  0  0  0  0
   37.6980   21.8720   34.9290 C   0  0  0  0  0  0  0  0  0  0  0  0
   36.6290   21.3930   35.6700 C   0  0  0  0  0  3  0  0  0  0  0  0
   35.6160   20.7660   34.9480 C   0  0  0  0  0  0  0  0  0  0  0  0
   34.7540   20.3700   35.4700 H   0  0  0  0  0  0  0  0  0  0  0  0
   35.6170   20.6010   33.6070 N   0  0  0  0  0  0  0  0  0  0  0  0
   36.6880   21.0910   32.9380 C   0  0  0  0  0  3  0  0  0  0  0  0
   37.6960   21.7080   33.5910 N   0  0  0  0  0  0  0  0  0  0  0  0
  1  2  1  0  0  0  0
  1  7  1  0  0  0  0
  2 22  1  0  0  0  0
  3 26  1  0  0  0  0
  3  2  2  0  0  0  0
  4  3  1  0  0  0  0
  5  4  2  0  0  0  0
  5  6  1  0  0  0  0
  6  1  2  0  0  0  0
  9  8  1  0  0  0  0
  9 10  1  0  0  0  0
 10  5  1  0  0  0  0
 11 10  2  0  0  0  0
 11 16  1  0  0  0  0
 12 11  1  0  0  0  0
 13 15  1  0  0  0  0
 13 12  2  0  0  0  0
 14 13  1  0  0  0  0
 15  9  2  0  0  0  0
 17 12  1  0  0  0  0
 18 21  1  0  0  0  0
 18 15  1  0  0  0  0
 19 18  1  0  0  0  0
 20 18  1  0  0  0  0
 22 25  1  0  0  0  0
 22 23  1  0  0  0  0
 22 24  1  0  0  0  0
 26 27  1  0  0  0  0
 28 26  1  0  0  0  0
 29 30  1  0  0  0  0
 29 26  1  0  0  0  0
 31 32  1  0  0  0  0
 31 30  2  0  0  0  0
 33 31  1  0  0  0  0
 34 35  1  0  0  0  0
 34 33  2  0  0  0  0
 35 29  2  0  0  0  0
M  END
>  <minimizedAffinity>
-6.24984217

$$$$

 OpenBabel03272500233D

 35 37  0  0  0  0  0  0  0  0999 V2000
   37.9020   25.7320   33.3440 C   0  0  0  0  0  0  0  0  0  0  0  0
   38.3980   25.5210   34.6670 C   0  0  0  0  0  0  0  0  0  0  0  0
   38.5870   24.2120   35.1090 C   0  0  0  0  0  0  0  0  0  0  0  0
   38.2850   23.1890   34.2430 N   0  0  0  0  0  0  0  0  0  0  0  0
   37.8280   23.4050   33.0230 C   0  0  0  0  0  0  0  0  0  0  0  0
   37.6300   24.6570   32.5560 N   0  0  0  0  0  0  0  0  0  0  0  0
   37.7640   26.7410   33.0260 H   0  0  0  0  0  0  0  0  0  0  0  0
   35.7340   21.4910   34.0590 Cl  0  0  0  0  0  0  0  0  0  0  0  0
   36.5800   21.3130   32.5330 C   0  0  0  0  0  0  0  0  0  0  0  0
   37.5270   22.2540   32.1530 C   0  0  0  0  0  0  0  0  0  0  0  0
   38.2320   22.1610   30.9460 C   0  0  0  0  0  0  0  0  0  0  0  0
   37.9240   21.0620   30.1460 C   0  0  0  0  0  0  0  0  0  0  0  0
   37.0010   20.1200   30.4870 C   0  0  0  0  0  0  0  0  0  0  0  0
   36.7110   18.7960   29.3960 Cl  0  0  0  0  0  0  0  0  0  0  0  0
   36.3210   20.2510   31.6990 C   0  0  0  0  0  0  0  0  0  0  0  0
   38.9630   22.8600   30.6200 H   0  0  0  0  0  0  0  0  0  0  0  0
   38.4640   20.9730   29.2020 H   0  0  0  0  0  0  0  0  0  0  0  0
   35.3170   19.2470   32.0960 C   0  0  0  0  0  0  0  0  0  0  0  0
   34.0230   19.7540   31.9000 F   0  0  0  0  0  0  0  0  0  0  0  0
   35.4690   18.8400   33.3890 F   0  0  0  0  0  0  0  0  0  0  0  0
   35.4140   18.1350   31.2880 F   0  0  0  0  0  0  0  0  0  0  0  0
   38.6860   26.7250   35.5050 C   0  0  0  0  0  0  0  0  0  0  0  0
   40.0440   26.9990   35.5190 F   0  0  0  0  0  0  0  0  0  0  0  0
   38.0450   27.8050   34.9190 F   0  0  0  0  0  0  0  0  0  0  0  0
   38.2250   26.6080   36.7920 F   0  0  0  0  0  0  0  0  0  0  0  0
   39.0940   23.9900   36.4620 C   0  0  0  0  0  0  0  0  0  0  0  0
   38.4000   23.3890   37.1020 H   0  0  0  0  0  0  0  0  0  0  0  0
   39.1980   24.9620   36.9620 H   0  0  0  0  0  0  0  0  0  0  0  0
   40.3690   23.2100   36.4650 C   0  0  0  0  0  0  0  0  0  0  0  0
   40.4870   22.1800   37.3830 C   0  0  0  0  0  3  0  0  0  0  0  0
   41.6870   21.4730   37.3590 C   0  0  0  0  0  0  0  0  0  0  0  0
   41.8410   20.6550   38.0540 H   0  0  0  0  0  0  0  0  0  0  0  0
   42.7130   21.7280   36.5180 N   0  0  0  0  0  0  0  0  0  0  0  0
   42.5380   22.7470   35.6430 C   0  0  0  0  0  3  0  0  0  0  0  0
   41.3940   23.4620   35.6260 N   0  0  0  0  0  0  0  0  0  0  0  0
  1  2  1  0  0  0  0
  2  3  2  0  0  0  0
  2 22  1  0  0  0  0
  3 26  1  0  0  0  0
  4  3  1  0  0  0  0
  5  4  2  0  0  0  0
  6  5  1  0  0  0  0
  6  1  2  0  0  0  0
  7  1  1  0  0  0  0
  9  8  1  0  0  0  0
 10  9  1  0  0  0  0
 10  5  1  0  0  0  0
 11 10  2  0  0  0  0
 12 13  2  0  0  0  0
 12 11  1  0  0  0  0
 13 15  1  0  0  0  0
 14 13  1  0  0  0  0
 15 18  1  0  0  0  0
 15  9  2  0  0  0  0
 16 11  1  0  0  0  0
 17 12  1  0  0  0  0
 18 20  1  0  0  0  0
 19 18  1  0  0  0  0
 21 18  1  0  0  0  0
 22 23  1  0  0  0  0
 22 25  1  0  0  0  0
 24 22  1  0  0  0  0
 26 29  1  0  0  0  0
 26 28  1  0  0  0  0
 26 27  1  0  0  0  0
 29 30  1  0  0  0  0
 31 30  2  0  0  0  0
 31 32  1  0  0  0  0
 33 31  1  0  0  0  0
 34 33  2  0  0  0  0
 35 34  1  0  0  0  0
 35 29  2  0  0  0  0
M  END
>  <minimizedAffinity>
-6.18887615

$$$$

 OpenBabel03272500233D

 35 37  0  0  0  0  0  0  0  0999 V2000
   38.0230   25.9960   36.6600 C   0  0  0  0  0  0  0  0  0  0  0  0
   38.2100   24.5810   36.7190 C   0  0  0  0  0  0  0  0  0  0  0  0
   38.3130   23.8700   35.5230 C   0  0  0  0  0  0  0  0  0  0  0  0
   38.2270   24.5730   34.3460 N   0  0  0  0  0  0  0  0  0  0  0  0
   38.0530   25.8820   34.3130 C   0  0  0  0  0  0  0  0  0  0  0  0
   37.9490   26.6080   35.4480 N   0  0  0  0  0  0  0  0  0  0  0  0
   37.9470   26.5200   37.5860 H   0  0  0  0  0  0  0  0  0  0  0  0
   40.6950   26.5230   32.9970 Cl  0  0  0  0  0  0  0  0  0  0  0  0
   39.1240   26.9060   32.3180 C   0  0  0  0  0  0  0  0  0  0  0  0
   37.9700   26.5650   33.0100 C   0  0  0  0  0  0  0  0  0  0  0  0
   36.6900   26.8470   32.5140 C   0  0  0  0  0  0  0  0  0  0  0  0
   36.6450   27.4920   31.2800 C   0  0  0  0  0  0  0  0  0  0  0  0
   37.7570   27.8410   30.5740 C   0  0  0  0  0  0  0  0  0  0  0  0
   37.5620   28.6440   29.0430 Cl  0  0  0  0  0  0  0  0  0  0  0  0
   39.0130   27.5420   31.1050 C   0  0  0  0  0  0  0  0  0  0  0  0
   35.7840   26.6020   33.0120 H   0  0  0  0  0  0  0  0  0  0  0  0
   35.6570   27.7190   30.8780 H   0  0  0  0  0  0  0  0  0  0  0  0
   40.2340   27.9070   30.3650 C   0  0  0  0  0  0  0  0  0  0  0  0
   40.4290   27.0290   29.2880 F   0  0  0  0  0  0  0  0  0  0  0  0
   41.3420   27.9230   31.1620 F   0  0  0  0  0  0  0  0  0  0  0  0
   40.0950   29.1610   29.8090 F   0  0  0  0  0  0  0  0  0  0  0  0
   38.2870   23.9420   38.0680 C   0  0  0  0  0  0  0  0  0  0  0  0
   39.5360   23.3790   38.2740 F   0  0  0  0  0  0  0  0  0  0  0  0
   38.1150   24.9400   39.0140 F   0  0  0  0  0  0  0  0  0  0  0  0
   37.3150   22.9960   38.2720 F   0  0  0  0  0  0  0  0  0  0  0  0
   38.5050   22.4230   35.5770 C   0  0  0  0  0  0  0  0  0  0  0  0
   38.2720   21.9810   36.5780 H   0  0  0  0  0  0  0  0  0  0  0  0
   39.5650   22.2020   35.3900 H   0  0  0  0  0  0  0  0  0  0  0  0
   37.6000   21.6990   34.6330 C   0  0  0  0  0  0  0  0  0  0  0  0
   36.3910   21.2420   35.1310 C   0  0  0  0  0  3  0  0  0  0  0  0
   35.5700   20.5720   34.2250 C   0  0  0  0  0  0  0  0  0  0  0  0
   34.6110   20.1890   34.5540 H   0  0  0  0  0  0  0  0  0  0  0  0
   35.8780   20.3480   32.9290 N   0  0  0  0  0  0  0  0  0  0  0  0
   37.0740   20.8190   32.5020 C   0  0  0  0  0  3  0  0  0  0  0  0
   37.9050   21.4750   33.3390 N   0  0  0  0  0  0  0  0  0  0  0  0
  1  2  1  0  0  0  0
  1  7  1  0  0  0  0
  2 22  1  0  0  0  0
  3 26  1  0  0  0  0
  3  2  2  0  0  0  0
  4  3  1  0  0  0  0
  5  4  2  0  0  0  0
  5  6  1  0  0  0  0
  6  1  2  0  0  0  0
  9  8  1  0  0  0  0
  9 10  1  0  0  0  0
 10  5  1  0  0  0  0
 11 10  2  0  0  0  0
 11 16  1  0  0  0  0
 12 11  1  0  0  0  0
 13 15  1  0  0  0  0
 13 12  2  0  0  0  0
 14 13  1  0  0  0  0
 15  9  2  0  0  0  0
 17 12  1  0  0  0  0
 18 15  1  0  0  0  0
 18 20  1  0  0  0  0
 19 18  1  0  0  0  0
 21 18  1  0  0  0  0
 22 25  1  0  0  0  0
 22 23  1  0  0  0  0
 22 24  1  0  0  0  0
 26 27  1  0  0  0  0
 28 26  1  0  0  0  0
 29 30  1  0  0  0  0
 29 26  1  0  0  0  0
 31 32  1  0  0  0  0
 31 30  2  0  0  0  0
 33 31  1  0  0  0  0
 34 33  2  0  0  0  0
 34 35  1  0  0  0  0
 35 29  2  0  0  0  0
M  END
>  <minimizedAffinity>
-6.16359949

$$$$

 OpenBabel03272500233D

 35 37  0  0  0  0  0  0  0  0999 V2000
   36.7250   29.6310   31.1470 C   0  0  0  0  0  0  0  0  0  0  0  0
   37.4500   28.4530   31.5050 C   0  0  0  0  0  0  0  0  0  0  0  0
   37.0560   27.7460   32.6410 C   0  0  0  0  0  0  0  0  0  0  0  0
   35.9860   28.2230   33.3590 N   0  0  0  0  0  0  0  0  0  0  0  0
   35.3280   29.3140   33.0100 C   0  0  0  0  0  0  0  0  0  0  0  0
   35.6770   30.0280   31.9180 N   0  0  0  0  0  0  0  0  0  0  0  0
   37.0430   30.1570   30.2750 H   0  0  0  0  0  0  0  0  0  0  0  0
   36.0380   30.9080   35.4760 Cl  0  0  0  0  0  0  0  0  0  0  0  0
   34.4040   30.5010   34.9870 C   0  0  0  0  0  0  0  0  0  0  0  0
   34.1900   29.7620   33.8320 C   0  0  0  0  0  0  0  0  0  0  0  0
   32.9060   29.4090   33.3960 C   0  0  0  0  0  0  0  0  0  0  0  0
   31.8520   29.8480   34.1940 C   0  0  0  0  0  0  0  0  0  0  0  0
   32.0240   30.5750   35.3340 C   0  0  0  0  0  0  0  0  0  0  0  0
   30.6210   31.0600   36.2400 Cl  0  0  0  0  0  0  0  0  0  0  0  0
   33.3210   30.9040   35.7320 C   0  0  0  0  0  0  0  0  0  0  0  0
   32.7020   28.8450   32.5190 H   0  0  0  0  0  0  0  0  0  0  0  0
   30.8440   29.5830   33.8700 H   0  0  0  0  0  0  0  0  0  0  0  0
   33.5400   31.6900   36.9600 C   0  0  0  0  0  0  0  0  0  0  0  0
   32.9570   32.9600   36.8330 F   0  0  0  0  0  0  0  0  0  0  0  0
   34.8620   31.8110   37.2730 F   0  0  0  0  0  0  0  0  0  0  0  0
   32.9060   31.0890   38.0260 F   0  0  0  0  0  0  0  0  0  0  0  0
   38.5950   28.0460   30.6350 C   0  0  0  0  0  0  0  0  0  0  0  0
   38.2680   26.9290   29.8850 F   0  0  0  0  0  0  0  0  0  0  0  0
   38.8410   29.0870   29.7540 F   0  0  0  0  0  0  0  0  0  0  0  0
   39.7480   27.8080   31.3400 F   0  0  0  0  0  0  0  0  0  0  0  0
   37.7940   26.5410   33.0130 C   0  0  0  0  0  0  0  0  0  0  0  0
   37.8720   26.3920   34.1190 H   0  0  0  0  0  0  0  0  0  0  0  0
   38.8260   26.6340   32.6490 H   0  0  0  0  0  0  0  0  0  0  0  0
   37.1280   25.2970   32.5180 C   0  0  0  0  0  0  0  0  0  0  0  0
   37.6570   24.0830   32.9250 C   0  0  0  0  0  3  0  0  0  0  0  0
   37.0120   22.9440   32.4470 C   0  0  0  0  0  0  0  0  0  0  0  0
   37.3790   21.9640   32.7290 H   0  0  0  0  0  0  0  0  0  0  0  0
   35.9350   22.9550   31.6320 N   0  0  0  0  0  0  0  0  0  0  0  0
   35.4640   24.1720   31.2690 C   0  0  0  0  0  3  0  0  0  0  0  0
   36.0520   25.3060   31.7060 N   0  0  0  0  0  0  0  0  0  0  0  0
  1  2  2  0  0  0  0
  1  6  1  0  0  0  0
  2  3  1  0  0  0  0
  3 26  1  0  0  0  0
  3  4  2  0  0  0  0
  5  4  1  0  0  0  0
  5 10  1  0  0  0  0
  6  5  2  0  0  0  0
  7  1  1  0  0  0  0
  9  8  1  0  0  0  0
  9 15  1  0  0  0  0
 10  9  2  0  0  0  0
 11 10  1  0  0  0  0
 11 12  2  0  0  0  0
 12 13  1  0  0  0  0
 13 15  2  0  0  0  0
 13 14  1  0  0  0  0
 15 18  1  0  0  0  0
 16 11  1  0  0  0  0
 17 12  1  0  0  0  0
 18 20  1  0  0  0  0
 18 21  1  0  0  0  0
 19 18  1  0  0  0  0
 22 25  1  0  0  0  0
 22  2  1  0  0  0  0
 23 22  1  0  0  0  0
 24 22  1  0  0  0  0
 26 27  1  0  0  0  0
 28 26  1  0  0  0  0
 29 30  1  0  0  0  0
 29 26  1  0  0  0  0
 31 32  1  0  0  0  0
 31 30  2  0  0  0  0
 33 31  1  0  0  0  0
 34 33  2  0  0  0  0
 34 35  1  0  0  0  0
 35 29  2  0  0  0  0
M  END
>  <minimizedAffinity>
-6.12910938

$$$$

 OpenBabel03272500233D

 35 37  0  0  0  0  0  0  0  0999 V2000
   37.4230   27.0720   33.3440 C   0  0  0  0  0  0  0  0  0  0  0  0
   36.8970   26.3270   32.2440 C   0  0  0  0  0  0  0  0  0  0  0  0
   37.4940   25.1100   31.9150 C   0  0  0  0  0  0  0  0  0  0  0  0
   38.5610   24.6900   32.6710 N   0  0  0  0  0  0  0  0  0  0  0  0
   39.0320   25.3930   33.6850 C   0  0  0  0  0  0  0  0  0  0  0  0
   38.4830   26.5770   34.0360 N   0  0  0  0  0  0  0  0  0  0  0  0
   36.9520   28.0000   33.5780 H   0  0  0  0  0  0  0  0  0  0  0  0
   38.3870   23.3120   35.7770 Cl  0  0  0  0  0  0  0  0  0  0  0  0
   39.9970   23.9160   35.4340 C   0  0  0  0  0  0  0  0  0  0  0  0
   40.1810   24.8760   34.4490 C   0  0  0  0  0  0  0  0  0  0  0  0
   41.4450   25.3930   34.1350 C   0  0  0  0  0  0  0  0  0  0  0  0
   42.5110   24.8830   34.8740 C   0  0  0  0  0  0  0  0  0  0  0  0
   42.3670   23.9400   35.8480 C   0  0  0  0  0  0  0  0  0  0  0  0
   43.7810   23.3890   36.6960 Cl  0  0  0  0  0  0  0  0  0  0  0  0
   41.0900   23.4530   36.1290 C   0  0  0  0  0  0  0  0  0  0  0  0
   41.6270   26.1270   33.3880 H   0  0  0  0  0  0  0  0  0  0  0  0
   43.5030   25.2740   34.6430 H   0  0  0  0  0  0  0  0  0  0  0  0
   40.9020   22.4340   37.1770 C   0  0  0  0  0  0  0  0  0  0  0  0
   40.3090   23.0090   38.3110 F   0  0  0  0  0  0  0  0  0  0  0  0
   42.0700   21.8170   37.5210 F   0  0  0  0  0  0  0  0  0  0  0  0
   40.0240   21.4640   36.7430 F   0  0  0  0  0  0  0  0  0  0  0  0
   35.7310   26.9010   31.5050 C   0  0  0  0  0  0  0  0  0  0  0  0
   35.1520   27.9310   32.2290 F   0  0  0  0  0  0  0  0  0  0  0  0
   36.2090   27.4360   30.3200 F   0  0  0  0  0  0  0  0  0  0  0  0
   34.7790   25.9650   31.1930 F   0  0  0  0  0  0  0  0  0  0  0  0
   36.9610   24.3440   30.7910 C   0  0  0  0  0  0  0  0  0  0  0  0
   37.6770   24.2540   29.9360 H   0  0  0  0  0  0  0  0  0  0  0  0
   36.0820   24.8690   30.3920 H   0  0  0  0  0  0  0  0  0  0  0  0
   36.6550   22.9300   31.1670 C   0  0  0  0  0  0  0  0  0  0  0  0
   35.5160   22.7000   31.9200 C   0  0  0  0  0  3  0  0  0  0  0  0
   35.2590   21.3720   32.2520 C   0  0  0  0  0  0  0  0  0  0  0  0
   34.3830   21.1270   32.8410 H   0  0  0  0  0  0  0  0  0  0  0  0
   36.0360   20.3260   31.8950 N   0  0  0  0  0  0  0  0  0  0  0  0
   37.1360   20.6140   31.1590 C   0  0  0  0  0  3  0  0  0  0  0  0
   37.4290   21.8840   30.8100 N   0  0  0  0  0  0  0  0  0  0  0  0
  1  7  1  0  0  0  0
  1  6  1  0  0  0  0
  2  1  2  0  0  0  0
  3  2  1  0  0  0  0
  3  4  2  0  0  0  0
  4  5  1  0  0  0  0
  5  6  2  0  0  0  0
  5 10  1  0  0  0  0
  9  8  1  0  0  0  0
  9 15  1  0  0  0  0
 10  9  2  0  0  0  0
 11 10  1  0  0  0  0
 11 12  2  0  0  0  0
 12 13  1  0  0  0  0
 13 15  2  0  0  0  0
 13 14  1  0  0  0  0
 15 18  1  0  0  0  0
 16 11  1  0  0  0  0
 17 12  1  0  0  0  0
 18 20  1  0  0  0  0
 18 19  1  0  0  0  0
 21 18  1  0  0  0  0
 22 23  1  0  0  0  0
 22  2  1  0  0  0  0
 24 22  1  0  0  0  0
 25 22  1  0  0  0  0
 26 29  1  0  0  0  0
 26  3  1  0  0  0  0
 27 26  1  0  0  0  0
 28 26  1  0  0  0  0
 29 30  1  0  0  0  0
 30 31  2  0  0  0  0
 31 32  1  0  0  0  0
 33 31  1  0  0  0  0
 34 33  2  0  0  0  0
 35 34  1  0  0  0  0
 35 29  2  0  0  0  0
M  END
>  <minimizedAffinity>
-6.1017499

$$$$

 OpenBabel03272500233D

 35 37  0  0  0  0  0  0  0  0999 V2000
   35.1980   24.7850   31.0570 C   0  0  0  0  0  0  0  0  0  0  0  0
   36.2630   24.0590   31.6740 C   0  0  0  0  0  0  0  0  0  0  0  0
   37.2450   24.7710   32.3630 C   0  0  0  0  0  0  0  0  0  0  0  0
   37.1340   26.1390   32.4130 N   0  0  0  0  0  0  0  0  0  0  0  0
   36.1410   26.7920   31.8370 C   0  0  0  0  0  0  0  0  0  0  0  0
   35.1700   26.1410   31.1590 N   0  0  0  0  0  0  0  0  0  0  0  0
   34.4580   24.2220   30.5350 H   0  0  0  0  0  0  0  0  0  0  0  0
   37.1230   28.3000   29.4110 Cl  0  0  0  0  0  0  0  0  0  0  0  0
   36.5200   29.0520   30.8760 C   0  0  0  0  0  0  0  0  0  0  0  0
   36.0930   28.2610   31.9340 C   0  0  0  0  0  0  0  0  0  0  0  0
   35.6020   28.8090   33.1270 C   0  0  0  0  0  0  0  0  0  0  0  0
   35.5690   30.2010   33.1880 C   0  0  0  0  0  0  0  0  0  0  0  0
   35.9800   31.0070   32.1690 C   0  0  0  0  0  0  0  0  0  0  0  0
   35.8850   32.7320   32.3750 Cl  0  0  0  0  0  0  0  0  0  0  0  0
   36.4620   30.4200   30.9990 C   0  0  0  0  0  0  0  0  0  0  0  0
   35.2660   28.2380   33.9580 H   0  0  0  0  0  0  0  0  0  0  0  0
   35.1890   30.6450   34.1100 H   0  0  0  0  0  0  0  0  0  0  0  0
   36.9140   31.2660   29.8790 C   0  0  0  0  0  0  0  0  0  0  0  0
   35.9080   32.1770   29.5240 F   0  0  0  0  0  0  0  0  0  0  0  0
   37.2890   30.5340   28.7900 F   0  0  0  0  0  0  0  0  0  0  0  0
   37.9940   32.0290   30.2690 F   0  0  0  0  0  0  0  0  0  0  0  0
   36.2610   22.5700   31.5420 C   0  0  0  0  0  0  0  0  0  0  0  0
   35.9370   21.9720   32.7480 F   0  0  0  0  0  0  0  0  0  0  0  0
   35.2770   22.2330   30.6270 F   0  0  0  0  0  0  0  0  0  0  0  0
   37.4540   22.0690   31.0840 F   0  0  0  0  0  0  0  0  0  0  0  0
   38.3370   24.0340   32.9960 C   0  0  0  0  0  0  0  0  0  0  0  0
   39.3410   24.4980   32.8280 H   0  0  0  0  0  0  0  0  0  0  0  0
   38.3910   23.0320   32.5490 H   0  0  0  0  0  0  0  0  0  0  0  0
   38.1960   23.9850   34.4830 C   0  0  0  0  0  0  0  0  0  0  0  0
   37.9860   22.7450   35.0650 C   0  0  0  0  0  3  0  0  0  0  0  0
   37.8610   22.7340   36.4530 C   0  0  0  0  0  0  0  0  0  0  0  0
   37.6940   21.7950   36.9680 H   0  0  0  0  0  0  0  0  0  0  0  0
   37.9280   23.8300   37.2390 N   0  0  0  0  0  0  0  0  0  0  0  0
   38.1350   25.0130   36.6130 C   0  0  0  0  0  3  0  0  0  0  0  0
   38.2640   25.0770   35.2700 N   0  0  0  0  0  0  0  0  0  0  0  0
  1  6  2  0  0  0  0
  1  2  1  0  0  0  0
  2  3  2  0  0  0  0
  3  4  1  0  0  0  0
  3 26  1  0  0  0  0
  5 10  1  0  0  0  0
  5  4  2  0  0  0  0
  6  5  1  0  0  0  0
  7  1  1  0  0  0  0
  8  9  1  0  0  0  0
  9 15  2  0  0  0  0
  9 10  1  0  0  0  0
 10 11  2  0  0  0  0
 11 12  1  0  0  0  0
 11 16  1  0  0  0  0
 12 17  1  0  0  0  0
 13 14  1  0  0  0  0
 13 12  2  0  0  0  0
 15 13  1  0  0  0  0
 18 21  1  0  0  0  0
 18 15  1  0  0  0  0
 19 18  1  0  0  0  0
 20 18  1  0  0  0  0
 22  2  1  0  0  0  0
 22 23  1  0  0  0  0
 24 22  1  0  0  0  0
 25 22  1  0  0  0  0
 26 29  1  0  0  0  0
 27 26  1  0  0  0  0
 28 26  1  0  0  0  0
 29 30  2  0  0  0  0
 29 35  1  0  0  0  0
 30 31  1  0  0  0  0
 31 32  1  0  0  0  0
 31 33  2  0  0  0  0
 34 33  1  0  0  0  0
 35 34  2  0  0  0  0
M  END
>  <minimizedAffinity>
-6.05653095

$$$$

 OpenBabel03272500233D

 35 37  0  0  0  0  0  0  0  0999 V2000
   35.2040   25.0250   31.0360 C   0  0  0  0  0  0  0  0  0  0  0  0
   36.2880   24.2940   31.6100 C   0  0  0  0  0  0  0  0  0  0  0  0
   37.2860   24.9980   32.2840 C   0  0  0  0  0  0  0  0  0  0  0  0
   37.1720   26.3650   32.3590 N   0  0  0  0  0  0  0  0  0  0  0  0
   36.1610   27.0220   31.8210 C   0  0  0  0  0  0  0  0  0  0  0  0
   35.1740   26.3780   31.1610 N   0  0  0  0  0  0  0  0  0  0  0  0
   34.4510   24.4670   30.5250 H   0  0  0  0  0  0  0  0  0  0  0  0
   35.6530   28.0880   34.6020 Cl  0  0  0  0  0  0  0  0  0  0  0  0
   35.8810   29.0860   33.1770 C   0  0  0  0  0  0  0  0  0  0  0  0
   36.1090   28.4900   31.9440 C   0  0  0  0  0  0  0  0  0  0  0  0
   36.2980   29.2390   30.7750 C   0  0  0  0  0  0  0  0  0  0  0  0
   36.2440   30.6230   30.9250 C   0  0  0  0  0  0  0  0  0  0  0  0
   36.0230   31.2410   32.1190 C   0  0  0  0  0  0  0  0  0  0  0  0
   35.9790   32.9790   32.1670 Cl  0  0  0  0  0  0  0  0  0  0  0  0
   35.8390   30.4580   33.2590 C   0  0  0  0  0  0  0  0  0  0  0  0
   36.4750   28.8200   29.8150 H   0  0  0  0  0  0  0  0  0  0  0  0
   36.3890   31.2220   30.0250 H   0  0  0  0  0  0  0  0  0  0  0  0
   35.5980   31.0970   34.5650 C   0  0  0  0  0  0  0  0  0  0  0  0
   34.2590   30.9250   34.9480 F   0  0  0  0  0  0  0  0  0  0  0  0
   35.9160   32.4240   34.5630 F   0  0  0  0  0  0  0  0  0  0  0  0
   36.3520   30.4820   35.5400 F   0  0  0  0  0  0  0  0  0  0  0  0
   36.2890   22.8070   31.4540 C   0  0  0  0  0  0  0  0  0  0  0  0
   36.0520   22.1870   32.6700 F   0  0  0  0  0  0  0  0  0  0  0  0
   35.2470   22.4760   30.6030 F   0  0  0  0  0  0  0  0  0  0  0  0
   37.4510   22.3240   30.9080 F   0  0  0  0  0  0  0  0  0  0  0  0
   38.3980   24.2560   32.8740 C   0  0  0  0  0  0  0  0  0  0  0  0
   39.3900   24.7530   32.7280 H   0  0  0  0  0  0  0  0  0  0  0  0
   38.4750   23.2800   32.3740 H   0  0  0  0  0  0  0  0  0  0  0  0
   38.2650   24.1240   34.3570 C   0  0  0  0  0  0  0  0  0  0  0  0
   38.2320   22.8440   34.8850 C   0  0  0  0  0  3  0  0  0  0  0  0
   38.1080   22.7570   36.2700 C   0  0  0  0  0  0  0  0  0  0  0  0
   38.0760   21.7830   36.7440 H   0  0  0  0  0  0  0  0  0  0  0  0
   38.0180   23.8170   37.1020 N   0  0  0  0  0  0  0  0  0  0  0  0
   38.0560   25.0420   36.5270 C   0  0  0  0  0  3  0  0  0  0  0  0
   38.1760   25.1810   35.1890 N   0  0  0  0  0  0  0  0  0  0  0  0
  1  6  2  0  0  0  0
  1  2  1  0  0  0  0
  2  3  2  0  0  0  0
  3  4  1  0  0  0  0
  3 26  1  0  0  0  0
  5 10  1  0  0  0  0
  5  4  2  0  0  0  0
  6  5  1  0  0  0  0
  7  1  1  0  0  0  0
  9 15  1  0  0  0  0
  9  8  1  0  0  0  0
 10  9  2  0  0  0  0
 11 12  2  0  0  0  0
 11 10  1  0  0  0  0
 12 13  1  0  0  0  0
 13 14  1  0  0  0  0
 13 15  2  0  0  0  0
 15 18  1  0  0  0  0
 16 11  1  0  0  0  0
 17 12  1  0  0  0  0
 18 19  1  0  0  0  0
 18 21  1  0  0  0  0
 20 18  1  0  0  0  0
 22  2  1  0  0  0  0
 22 23  1  0  0  0  0
 24 22  1  0  0  0  0
 25 22  1  0  0  0  0
 26 29  1  0  0  0  0
 27 26  1  0  0  0  0
 28 26  1  0  0  0  0
 29 30  2  0  0  0  0
 29 35  1  0  0  0  0
 30 31  1  0  0  0  0
 31 32  1  0  0  0  0
 31 33  2  0  0  0  0
 34 33  1  0  0  0  0
 35 34  2  0  0  0  0
M  END
>  <minimizedAffinity>
-6.05051422

$$$$

 OpenBabel03272500233D

 35 37  0  0  0  0  0  0  0  0999 V2000
   37.6620   28.3570   31.6190 C   0  0  0  0  0  0  0  0  0  0  0  0
   36.4900   29.1360   31.8630 C   0  0  0  0  0  0  0  0  0  0  0  0
   35.7640   28.9030   33.0310 C   0  0  0  0  0  0  0  0  0  0  0  0
   36.2180   27.9310   33.8900 N   0  0  0  0  0  0  0  0  0  0  0  0
   37.3050   27.2220   33.6460 C   0  0  0  0  0  0  0  0  0  0  0  0
   38.0360   27.4160   32.5270 N   0  0  0  0  0  0  0  0  0  0  0  0
   38.2030   28.5510   30.7200 H   0  0  0  0  0  0  0  0  0  0  0  0
   37.4030   24.3900   32.6010 Cl  0  0  0  0  0  0  0  0  0  0  0  0
   37.8070   24.8620   34.2410 C   0  0  0  0  0  0  0  0  0  0  0  0
   37.7280   26.1970   34.6160 C   0  0  0  0  0  0  0  0  0  0  0  0
   38.0390   26.6290   35.9120 C   0  0  0  0  0  0  0  0  0  0  0  0
   38.4350   25.6360   36.8060 C   0  0  0  0  0  0  0  0  0  0  0  0
   38.5250   24.3170   36.4710 C   0  0  0  0  0  0  0  0  0  0  0  0
   39.0330   23.1780   37.6830 Cl  0  0  0  0  0  0  0  0  0  0  0  0
   38.2060   23.9300   35.1690 C   0  0  0  0  0  0  0  0  0  0  0  0
   37.9900   27.6390   36.2380 H   0  0  0  0  0  0  0  0  0  0  0  0
   38.6820   25.9540   37.8190 H   0  0  0  0  0  0  0  0  0  0  0  0
   38.2930   22.5110   34.7780 C   0  0  0  0  0  0  0  0  0  0  0  0
   37.0640   22.0760   34.2600 F   0  0  0  0  0  0  0  0  0  0  0  0
   38.6750   21.7070   35.8120 F   0  0  0  0  0  0  0  0  0  0  0  0
   39.2080   22.3560   33.7600 F   0  0  0  0  0  0  0  0  0  0  0  0
   36.1090   30.1610   30.8450 C   0  0  0  0  0  0  0  0  0  0  0  0
   34.7310   30.2940   30.7740 F   0  0  0  0  0  0  0  0  0  0  0  0
   36.6270   31.3770   31.2610 F   0  0  0  0  0  0  0  0  0  0  0  0
   36.6110   29.8930   29.5960 F   0  0  0  0  0  0  0  0  0  0  0  0
   34.5640   29.6970   33.2860 C   0  0  0  0  0  0  0  0  0  0  0  0
   33.6460   29.0760   33.4400 H   0  0  0  0  0  0  0  0  0  0  0  0
   34.3600   30.3200   32.4040 H   0  0  0  0  0  0  0  0  0  0  0  0
   34.6780   30.5050   34.5380 C   0  0  0  0  0  0  0  0  0  0  0  0
   35.8840   31.1420   34.7810 C   0  0  0  0  0  3  0  0  0  0  0  0
   35.9570   31.8880   35.9560 C   0  0  0  0  0  0  0  0  0  0  0  0
   36.8750   32.4090   36.2020 H   0  0  0  0  0  0  0  0  0  0  0  0
   34.9500   32.0200   36.8460 N   0  0  0  0  0  0  0  0  0  0  0  0
   33.7960   31.3750   36.5530 C   0  0  0  0  0  3  0  0  0  0  0  0
   33.6740   30.6400   35.4270 N   0  0  0  0  0  0  0  0  0  0  0  0
  1  2  2  0  0  0  0
  1  6  1  0  0  0  0
  2  3  1  0  0  0  0
  3 26  1  0  0  0  0
  3  4  2  0  0  0  0
  5  4  1  0  0  0  0
  5 10  1  0  0  0  0
  6  5  2  0  0  0  0
  7  1  1  0  0  0  0
  8  9  1  0  0  0  0
  9 10  2  0  0  0  0
  9 15  1  0  0  0  0
 10 11  1  0  0  0  0
 11 16  1  0  0  0  0
 11 12  2  0  0  0  0
 12 17  1  0  0  0  0
 13 12  1  0  0  0  0
 13 14  1  0  0  0  0
 15 13  2  0  0  0  0
 18 15  1  0  0  0  0
 18 20  1  0  0  0  0
 19 18  1  0  0  0  0
 21 18  1  0  0  0  0
 22 24  1  0  0  0  0
 22  2  1  0  0  0  0
 23 22  1  0  0  0  0
 25 22  1  0  0  0  0
 26 27  1  0  0  0  0
 26 29  1  0  0  0  0
 28 26  1  0  0  0  0
 29 30  2  0  0  0  0
 29 35  1  0  0  0  0
 30 31  1  0  0  0  0
 31 32  1  0  0  0  0
 31 33  2  0  0  0  0
 34 33  1  0  0  0  0
 35 34  2  0  0  0  0
M  END
>  <minimizedAffinity>
-6.02292728

$$$$

 OpenBabel03272500233D

 35 37  0  0  0  0  0  0  0  0999 V2000
   38.1650   26.1960   36.7020 C   0  0  0  0  0  0  0  0  0  0  0  0
   38.1510   24.7690   36.6500 C   0  0  0  0  0  0  0  0  0  0  0  0
   38.0590   24.1470   35.4060 C   0  0  0  0  0  0  0  0  0  0  0  0
   37.9860   24.9450   34.2890 N   0  0  0  0  0  0  0  0  0  0  0  0
   38.0010   26.2630   34.3590 C   0  0  0  0  0  0  0  0  0  0  0  0
   38.0890   26.9050   35.5440 N   0  0  0  0  0  0  0  0  0  0  0  0
   38.2350   26.6520   37.6640 H   0  0  0  0  0  0  0  0  0  0  0  0
   35.8370   28.3700   34.2810 Cl  0  0  0  0  0  0  0  0  0  0  0  0
   36.9600   28.0450   32.9740 C   0  0  0  0  0  0  0  0  0  0  0  0
   37.9190   27.0500   33.1160 C   0  0  0  0  0  0  0  0  0  0  0  0
   38.8400   26.7490   32.1040 C   0  0  0  0  0  0  0  0  0  0  0  0
   38.7360   27.5110   30.9420 C   0  0  0  0  0  0  0  0  0  0  0  0
   37.8090   28.4950   30.7680 C   0  0  0  0  0  0  0  0  0  0  0  0
   37.7870   29.3720   29.2670 Cl  0  0  0  0  0  0  0  0  0  0  0  0
   36.9100   28.7620   31.8020 C   0  0  0  0  0  0  0  0  0  0  0  0
   39.5870   25.9970   32.1740 H   0  0  0  0  0  0  0  0  0  0  0  0
   39.4460   27.2910   30.1430 H   0  0  0  0  0  0  0  0  0  0  0  0
   35.8950   29.8190   31.6440 C   0  0  0  0  0  0  0  0  0  0  0  0
   36.2550   30.9510   32.3910 F   0  0  0  0  0  0  0  0  0  0  0  0
   34.6460   29.4010   32.0010 F   0  0  0  0  0  0  0  0  0  0  0  0
   35.8430   30.2340   30.3310 F   0  0  0  0  0  0  0  0  0  0  0  0
   38.2370   24.0220   37.9430 C   0  0  0  0  0  0  0  0  0  0  0  0
   39.4590   23.3800   38.0570 F   0  0  0  0  0  0  0  0  0  0  0  0
   38.1520   24.9500   38.9680 F   0  0  0  0  0  0  0  0  0  0  0  0
   37.2210   23.1150   38.1080 F   0  0  0  0  0  0  0  0  0  0  0  0
   38.0450   22.6870   35.3460 C   0  0  0  0  0  0  0  0  0  0  0  0
   37.1680   22.2740   34.7870 H   0  0  0  0  0  0  0  0  0  0  0  0
   37.9610   22.2940   36.3680 H   0  0  0  0  0  0  0  0  0  0  0  0
   39.2340   22.1400   34.6240 C   0  0  0  0  0  0  0  0  0  0  0  0
   39.0270   21.6100   33.3610 C   0  0  0  0  0  3  0  0  0  0  0  0
   40.1560   21.1100   32.7150 C   0  0  0  0  0  0  0  0  0  0  0  0
   40.0600   20.6810   31.7240 H   0  0  0  0  0  0  0  0  0  0  0  0
   41.4030   21.1120   33.2340 N   0  0  0  0  0  0  0  0  0  0  0  0
   41.5420   21.6440   34.4720 C   0  0  0  0  0  3  0  0  0  0  0  0
   40.4790   22.1420   35.1400 N   0  0  0  0  0  0  0  0  0  0  0  0
  1  7  1  0  0  0  0
  2  1  1  0  0  0  0
  2 22  1  0  0  0  0
  3  2  2  0  0  0  0
  4  5  2  0  0  0  0
  4  3  1  0  0  0  0
  5  6  1  0  0  0  0
  6  1  2  0  0  0  0
  9 10  1  0  0  0  0
  9  8  1  0  0  0  0
 10  5  1  0  0  0  0
 11 16  1  0  0  0  0
 11 10  2  0  0  0  0
 12 11  1  0  0  0  0
 13 12  2  0  0  0  0
 13 15  1  0  0  0  0
 14 13  1  0  0  0  0
 15  9  2  0  0  0  0
 17 12  1  0  0  0  0
 18 15  1  0  0  0  0
 18 20  1  0  0  0  0
 18 19  1  0  0  0  0
 21 18  1  0  0  0  0
 22 23  1  0  0  0  0
 22 25  1  0  0  0  0
 22 24  1  0  0  0  0
 26  3  1  0  0  0  0
 26 28  1  0  0  0  0
 27 26  1  0  0  0  0
 29 35  1  0  0  0  0
 29 26  1  0  0  0  0
 30 29  2  0  0  0  0
 31 33  2  0  0  0  0
 31 30  1  0  0  0  0
 32 31  1  0  0  0  0
 33 34  1  0  0  0  0
 34 35  2  0  0  0  0
M  END
>  <minimizedAffinity>
-6.01996803

$$$$
