
 OpenBabel03272510033D

 19 20  0  0  0  0  0  0  0  0999 V2000
   39.4340   23.0440   35.0320 C   0  0  0  0  0  0  0  0  0  0  0  0
   38.8320   24.0660   34.2780 C   0  0  0  0  0  0  0  0  0  0  0  0
   38.0540   24.9820   34.9680 C   0  0  0  0  0  0  0  0  0  0  0  0
   37.9040   24.8630   36.3090 N   0  0  0  0  0  0  0  0  0  0  0  0
   38.5010   23.8620   36.9980 C   0  0  0  0  0  0  0  0  0  0  0  0
   39.2590   22.9620   36.3630 N   0  0  0  0  0  0  0  0  0  0  0  0
   40.0510   22.3070   34.5320 H   0  0  0  0  0  0  0  0  0  0  0  0
   38.9850   24.1150   33.2070 H   0  0  0  0  0  0  0  0  0  0  0  0
   37.4000   26.0690   34.2460 C   0  0  0  0  0  0  0  0  0  0  0  0
   37.0890   27.2410   34.9050 C   0  0  0  0  0  3  0  0  0  0  0  0
   36.4730   28.2270   34.1600 C   0  0  0  0  0  0  0  0  0  0  0  0
   36.2220   29.1470   34.6490 H   0  0  0  0  0  0  0  0  0  0  0  0
   36.2090   28.0070   32.8630 N   0  0  0  0  0  0  0  0  0  0  0  0
   36.5050   26.8790   32.2130 C   0  0  0  0  0  3  0  0  0  0  0  0
   37.1110   25.9080   32.9440 N   0  0  0  0  0  0  0  0  0  0  0  0
   38.2840   23.8060   38.4640 C   0  0  0  0  0  0  0  0  0  0  0  0
   37.3430   22.8500   38.8250 F   0  0  0  0  0  0  0  0  0  0  0  0
   39.4540   23.4790   39.1300 F   0  0  0  0  0  0  0  0  0  0  0  0
   37.8760   25.0060   38.9960 F   0  0  0  0  0  0  0  0  0  0  0  0
  1  6  1  0  0  0  0
  2  3  1  0  0  0  0
  2  1  2  0  0  0  0
  3  4  2  0  0  0  0
  4  5  1  0  0  0  0
  5 16  1  0  0  0  0
  6  5  2  0  0  0  0
  7  1  1  0  0  0  0
  8  2  1  0  0  0  0
  9 10  1  0  0  0  0
  9  3  1  0  0  0  0
 11 12  1  0  0  0  0
 11 10  2  0  0  0  0
 13 11  1  0  0  0  0
 14 13  2  0  0  0  0
 14 15  1  0  0  0  0
 15  9  2  0  0  0  0
 16 17  1  0  0  0  0
 16 19  1  0  0  0  0
 16 18  1  0  0  0  0
M  END
>  <minimizedAffinity>
-4.98799229

$$$$

 OpenBabel03272510033D

 19 20  0  0  0  0  0  0  0  0999 V2000
   38.8970   22.6860   34.9250 C   0  0  0  0  0  0  0  0  0  0  0  0
   38.4900   23.8150   34.1940 C   0  0  0  0  0  0  0  0  0  0  0  0
   38.0200   24.8990   34.9200 C   0  0  0  0  0  0  0  0  0  0  0  0
   37.9710   24.8320   36.2730 N   0  0  0  0  0  0  0  0  0  0  0  0
   38.3730   23.7240   36.9370 C   0  0  0  0  0  0  0  0  0  0  0  0
   38.8310   22.6610   36.2680 N   0  0  0  0  0  0  0  0  0  0  0  0
   39.2710   21.8180   34.3960 H   0  0  0  0  0  0  0  0  0  0  0  0
   38.5510   23.8160   33.1130 H   0  0  0  0  0  0  0  0  0  0  0  0
   37.5810   26.1040   34.2240 C   0  0  0  0  0  0  0  0  0  0  0  0
   37.8970   26.2800   32.8920 C   0  0  0  0  0  3  0  0  0  0  0  0
   37.4480   27.4420   32.2960 C   0  0  0  0  0  0  0  0  0  0  0  0
   37.6800   27.6010   31.2620 H   0  0  0  0  0  0  0  0  0  0  0  0
   36.7440   28.3250   33.0190 N   0  0  0  0  0  0  0  0  0  0  0  0
   36.4310   28.1680   34.3070 C   0  0  0  0  0  3  0  0  0  0  0  0
   36.8710   27.0260   34.8950 N   0  0  0  0  0  0  0  0  0  0  0  0
   38.2850   23.7360   38.4190 C   0  0  0  0  0  0  0  0  0  0  0  0
   37.3830   22.7970   38.9040 F   0  0  0  0  0  0  0  0  0  0  0  0
   39.5100   23.4420   38.9940 F   0  0  0  0  0  0  0  0  0  0  0  0
   37.9180   24.9590   38.9270 F   0  0  0  0  0  0  0  0  0  0  0  0
  1  6  1  0  0  0  0
  2  3  1  0  0  0  0
  2  1  2  0  0  0  0
  3  4  2  0  0  0  0
  4  5  1  0  0  0  0
  5 16  1  0  0  0  0
  6  5  2  0  0  0  0
  7  1  1  0  0  0  0
  8  2  1  0  0  0  0
  9 15  1  0  0  0  0
  9  3  1  0  0  0  0
 10  9  2  0  0  0  0
 11 10  1  0  0  0  0
 11 13  2  0  0  0  0
 12 11  1  0  0  0  0
 13 14  1  0  0  0  0
 14 15  2  0  0  0  0
 16 17  1  0  0  0  0
 16 19  1  0  0  0  0
 16 18  1  0  0  0  0
M  END
>  <minimizedAffinity>
-4.88918591

$$$$

 OpenBabel03272510033D

 19 20  0  0  0  0  0  0  0  0999 V2000
   38.3170   23.6740   38.4750 C   0  0  0  0  0  0  0  0  0  0  0  0
   37.7810   24.4330   37.4200 C   0  0  0  0  0  0  0  0  0  0  0  0
   38.4680   24.4100   36.2160 C   0  0  0  0  0  0  0  0  0  0  0  0
   39.6030   23.6770   36.1030 N   0  0  0  0  0  0  0  0  0  0  0  0
   40.0850   22.9610   37.1450 C   0  0  0  0  0  0  0  0  0  0  0  0
   39.4460   22.9610   38.3200 N   0  0  0  0  0  0  0  0  0  0  0  0
   37.8100   23.6640   39.4320 H   0  0  0  0  0  0  0  0  0  0  0  0
   36.8700   25.0000   37.5640 H   0  0  0  0  0  0  0  0  0  0  0  0
   37.9680   25.1760   35.0790 C   0  0  0  0  0  0  0  0  0  0  0  0
   37.5320   26.4720   35.2640 C   0  0  0  0  0  3  0  0  0  0  0  0
   37.0720   27.1380   34.1450 C   0  0  0  0  0  0  0  0  0  0  0  0
   36.7290   28.1460   34.2620 H   0  0  0  0  0  0  0  0  0  0  0  0
   37.0690   26.5120   32.9590 N   0  0  0  0  0  0  0  0  0  0  0  0
   37.4880   25.2580   32.7660 C   0  0  0  0  0  3  0  0  0  0  0  0
   37.9400   24.6020   33.8640 N   0  0  0  0  0  0  0  0  0  0  0  0
   41.3330   22.1870   36.9350 C   0  0  0  0  0  0  0  0  0  0  0  0
   42.4650   22.9920   36.9440 F   0  0  0  0  0  0  0  0  0  0  0  0
   41.5100   21.2450   37.9340 F   0  0  0  0  0  0  0  0  0  0  0  0
   41.3390   21.4830   35.7540 F   0  0  0  0  0  0  0  0  0  0  0  0
  1  7  1  0  0  0  0
  2  8  1  0  0  0  0
  2  1  2  0  0  0  0
  3  2  1  0  0  0  0
  4  3  2  0  0  0  0
  4  5  1  0  0  0  0
  5  6  2  0  0  0  0
  6  1  1  0  0  0  0
  9 10  1  0  0  0  0
  9  3  1  0  0  0  0
 11 12  1  0  0  0  0
 11 10  2  0  0  0  0
 13 11  1  0  0  0  0
 14 13  2  0  0  0  0
 14 15  1  0  0  0  0
 15  9  2  0  0  0  0
 16 17  1  0  0  0  0
 16  5  1  0  0  0  0
 16 18  1  0  0  0  0
 19 16  1  0  0  0  0
M  END
>  <minimizedAffinity>
-4.65412235

$$$$

 OpenBabel03272510033D

 19 20  0  0  0  0  0  0  0  0999 V2000
   38.8430   24.8450   34.6960 C   0  0  0  0  0  0  0  0  0  0  0  0
   38.3320   23.7930   33.9170 C   0  0  0  0  0  0  0  0  0  0  0  0
   37.7940   22.7110   34.5970 C   0  0  0  0  0  0  0  0  0  0  0  0
   37.7810   22.7070   35.9520 N   0  0  0  0  0  0  0  0  0  0  0  0
   38.2840   23.7420   36.6640 C   0  0  0  0  0  0  0  0  0  0  0  0
   38.8100   24.8010   36.0400 N   0  0  0  0  0  0  0  0  0  0  0  0
   39.2720   25.7100   34.2040 H   0  0  0  0  0  0  0  0  0  0  0  0
   38.3670   23.8470   32.8370 H   0  0  0  0  0  0  0  0  0  0  0  0
   37.2460   21.5830   33.8500 C   0  0  0  0  0  0  0  0  0  0  0  0
   36.0420   21.0280   34.2310 C   0  0  0  0  0  3  0  0  0  0  0  0
   35.5830   19.9650   33.4800 C   0  0  0  0  0  0  0  0  0  0  0  0
   34.6500   19.5160   33.7550 H   0  0  0  0  0  0  0  0  0  0  0  0
   36.3090   19.5300   32.4380 N   0  0  0  0  0  0  0  0  0  0  0  0
   37.4750   20.0590   32.0580 C   0  0  0  0  0  3  0  0  0  0  0  0
   37.9270   21.1040   32.7960 N   0  0  0  0  0  0  0  0  0  0  0  0
   38.2300   23.6550   38.1440 C   0  0  0  0  0  0  0  0  0  0  0  0
   37.9420   24.8780   38.7370 F   0  0  0  0  0  0  0  0  0  0  0  0
   37.2440   22.7740   38.5570 F   0  0  0  0  0  0  0  0  0  0  0  0
   39.3990   23.1940   38.7010 F   0  0  0  0  0  0  0  0  0  0  0  0
  1  6  1  0  0  0  0
  2  3  1  0  0  0  0
  2  1  2  0  0  0  0
  3  4  2  0  0  0  0
  4  5  1  0  0  0  0
  5 16  1  0  0  0  0
  6  5  2  0  0  0  0
  7  1  1  0  0  0  0
  8  2  1  0  0  0  0
  9 10  1  0  0  0  0
  9  3  1  0  0  0  0
 11 12  1  0  0  0  0
 11 10  2  0  0  0  0
 13 11  1  0  0  0  0
 14 13  2  0  0  0  0
 14 15  1  0  0  0  0
 15  9  2  0  0  0  0
 16 18  1  0  0  0  0
 16 19  1  0  0  0  0
 16 17  1  0  0  0  0
M  END
>  <minimizedAffinity>
-4.61326456

$$$$

 OpenBabel03272510033D

 19 20  0  0  0  0  0  0  0  0999 V2000
   37.4130   23.4290   32.3390 C   0  0  0  0  0  0  0  0  0  0  0  0
   38.0430   23.6060   33.5830 C   0  0  0  0  0  0  0  0  0  0  0  0
   37.8260   22.6280   34.5420 C   0  0  0  0  0  0  0  0  0  0  0  0
   37.0360   21.5660   34.2530 N   0  0  0  0  0  0  0  0  0  0  0  0
   36.4490   21.4340   33.0410 C   0  0  0  0  0  0  0  0  0  0  0  0
   36.6370   22.3590   32.0930 N   0  0  0  0  0  0  0  0  0  0  0  0
   37.5570   24.1690   31.5610 H   0  0  0  0  0  0  0  0  0  0  0  0
   38.6650   24.4740   33.7610 H   0  0  0  0  0  0  0  0  0  0  0  0
   38.4490   22.7500   35.8560 C   0  0  0  0  0  0  0  0  0  0  0  0
   39.7460   22.3160   36.0440 C   0  0  0  0  0  3  0  0  0  0  0  0
   40.2720   22.4620   37.3120 C   0  0  0  0  0  0  0  0  0  0  0  0
   41.2770   22.1330   37.4830 H   0  0  0  0  0  0  0  0  0  0  0  0
   39.5200   23.0070   38.2800 N   0  0  0  0  0  0  0  0  0  0  0  0
   38.2650   23.4320   38.1120 C   0  0  0  0  0  3  0  0  0  0  0  0
   37.7460   23.2880   36.8660 N   0  0  0  0  0  0  0  0  0  0  0  0
   35.6000   20.2400   32.8100 C   0  0  0  0  0  0  0  0  0  0  0  0
   34.3270   20.5720   32.3620 F   0  0  0  0  0  0  0  0  0  0  0  0
   36.1540   19.4120   31.8480 F   0  0  0  0  0  0  0  0  0  0  0  0
   35.4500   19.4590   33.9320 F   0  0  0  0  0  0  0  0  0  0  0  0
  1  2  1  0  0  0  0
  2  8  1  0  0  0  0
  2  3  2  0  0  0  0
  3  9  1  0  0  0  0
  4  3  1  0  0  0  0
  5  4  2  0  0  0  0
  6  1  2  0  0  0  0
  6  5  1  0  0  0  0
  7  1  1  0  0  0  0
  9 10  2  0  0  0  0
  9 15  1  0  0  0  0
 10 11  1  0  0  0  0
 11 12  1  0  0  0  0
 11 13  2  0  0  0  0
 14 13  1  0  0  0  0
 15 14  2  0  0  0  0
 16  5  1  0  0  0  0
 16 19  1  0  0  0  0
 17 16  1  0  0  0  0
 18 16  1  0  0  0  0
M  END
>  <minimizedAffinity>
-4.61114597

$$$$

 OpenBabel03272510033D

 19 20  0  0  0  0  0  0  0  0999 V2000
   38.1280   26.0060   35.2670 C   0  0  0  0  0  0  0  0  0  0  0  0
   38.0810   25.0680   34.2210 C   0  0  0  0  0  0  0  0  0  0  0  0
   38.0950   23.7280   34.5780 C   0  0  0  0  0  0  0  0  0  0  0  0
   38.1520   23.3800   35.8860 N   0  0  0  0  0  0  0  0  0  0  0  0
   38.1960   24.3170   36.8620 C   0  0  0  0  0  0  0  0  0  0  0  0
   38.1840   25.6180   36.5530 N   0  0  0  0  0  0  0  0  0  0  0  0
   38.1180   27.0630   35.0310 H   0  0  0  0  0  0  0  0  0  0  0  0
   38.0360   25.4000   33.1920 H   0  0  0  0  0  0  0  0  0  0  0  0
   38.0490   22.7010   33.5420 C   0  0  0  0  0  0  0  0  0  0  0  0
   39.0160   21.7160   33.5090 C   0  0  0  0  0  3  0  0  0  0  0  0
   38.9110   20.7770   32.5040 C   0  0  0  0  0  0  0  0  0  0  0  0
   39.6490   20.0010   32.4570 H   0  0  0  0  0  0  0  0  0  0  0  0
   37.9000   20.8590   31.6260 N   0  0  0  0  0  0  0  0  0  0  0  0
   36.9580   21.8050   31.6460 C   0  0  0  0  0  3  0  0  0  0  0  0
   37.0600   22.7300   32.6340 N   0  0  0  0  0  0  0  0  0  0  0  0
   38.2580   23.8490   38.2690 C   0  0  0  0  0  0  0  0  0  0  0  0
   39.4910   23.2970   38.5910 F   0  0  0  0  0  0  0  0  0  0  0  0
   38.0500   24.8950   39.1520 F   0  0  0  0  0  0  0  0  0  0  0  0
   37.2970   22.9120   38.5680 F   0  0  0  0  0  0  0  0  0  0  0  0
  1  6  1  0  0  0  0
  2  3  1  0  0  0  0
  2  1  2  0  0  0  0
  3  4  2  0  0  0  0
  4  5  1  0  0  0  0
  5 16  1  0  0  0  0
  6  5  2  0  0  0  0
  7  1  1  0  0  0  0
  8  2  1  0  0  0  0
  9  3  1  0  0  0  0
 10  9  1  0  0  0  0
 11 10  2  0  0  0  0
 12 11  1  0  0  0  0
 13 14  2  0  0  0  0
 13 11  1  0  0  0  0
 14 15  1  0  0  0  0
 15  9  2  0  0  0  0
 16 19  1  0  0  0  0
 16 17  1  0  0  0  0
 16 18  1  0  0  0  0
M  END
>  <minimizedAffinity>
-4.47588015

$$$$

 OpenBabel03272510033D

 19 20  0  0  0  0  0  0  0  0999 V2000
   38.3560   27.1490   35.7750 C   0  0  0  0  0  0  0  0  0  0  0  0
   38.1590   26.6550   34.4740 C   0  0  0  0  0  0  0  0  0  0  0  0
   37.9560   25.2890   34.3440 C   0  0  0  0  0  0  0  0  0  0  0  0
   37.9560   24.5010   35.4470 N   0  0  0  0  0  0  0  0  0  0  0  0
   38.1500   25.0190   36.6820 C   0  0  0  0  0  0  0  0  0  0  0  0
   38.3480   26.3310   36.8430 N   0  0  0  0  0  0  0  0  0  0  0  0
   38.5170   28.2100   35.9210 H   0  0  0  0  0  0  0  0  0  0  0  0
   38.1680   27.3290   33.6280 H   0  0  0  0  0  0  0  0  0  0  0  0
   37.7450   24.7090   33.0220 C   0  0  0  0  0  0  0  0  0  0  0  0
   36.7090   25.1630   32.2310 C   0  0  0  0  0  3  0  0  0  0  0  0
   36.5680   24.5700   30.9920 C   0  0  0  0  0  0  0  0  0  0  0  0
   35.7720   24.9060   30.3590 H   0  0  0  0  0  0  0  0  0  0  0  0
   37.4230   23.6060   30.6210 N   0  0  0  0  0  0  0  0  0  0  0  0
   38.4300   23.1580   31.3750 C   0  0  0  0  0  3  0  0  0  0  0  0
   38.5700   23.7390   32.5940 N   0  0  0  0  0  0  0  0  0  0  0  0
   38.1350   24.0840   37.8340 C   0  0  0  0  0  0  0  0  0  0  0  0
   37.8700   24.7280   39.0370 F   0  0  0  0  0  0  0  0  0  0  0  0
   37.1550   23.1170   37.6800 F   0  0  0  0  0  0  0  0  0  0  0  0
   39.3160   23.3980   37.9870 F   0  0  0  0  0  0  0  0  0  0  0  0
  1  7  1  0  0  0  0
  1  6  1  0  0  0  0
  2  1  2  0  0  0  0
  3  2  1  0  0  0  0
  3  4  2  0  0  0  0
  4  5  1  0  0  0  0
  5  6  2  0  0  0  0
  5 16  1  0  0  0  0
  8  2  1  0  0  0  0
  9  3  1  0  0  0  0
 10  9  2  0  0  0  0
 11 10  1  0  0  0  0
 12 11  1  0  0  0  0
 13 11  2  0  0  0  0
 13 14  1  0  0  0  0
 14 15  2  0  0  0  0
 15  9  1  0  0  0  0
 16 19  1  0  0  0  0
 16 17  1  0  0  0  0
 18 16  1  0  0  0  0
M  END
>  <minimizedAffinity>
-4.44590282

$$$$

 OpenBabel03272510033D

 19 20  0  0  0  0  0  0  0  0999 V2000
   37.2130   27.6580   34.5910 C   0  0  0  0  0  0  0  0  0  0  0  0
   37.7990   26.8180   35.5540 C   0  0  0  0  0  0  0  0  0  0  0  0
   37.9800   25.4890   35.2010 C   0  0  0  0  0  0  0  0  0  0  0  0
   37.5960   25.0600   33.9750 N   0  0  0  0  0  0  0  0  0  0  0  0
   37.0360   25.9040   33.0770 C   0  0  0  0  0  0  0  0  0  0  0  0
   36.8470   27.1910   33.3840 N   0  0  0  0  0  0  0  0  0  0  0  0
   37.0540   28.7040   34.8260 H   0  0  0  0  0  0  0  0  0  0  0  0
   38.0870   27.2130   36.5190 H   0  0  0  0  0  0  0  0  0  0  0  0
   38.5820   24.5620   36.1540 C   0  0  0  0  0  0  0  0  0  0  0  0
   37.9790   24.3480   37.3770 C   0  0  0  0  0  3  0  0  0  0  0  0
   38.6020   23.4570   38.2280 C   0  0  0  0  0  0  0  0  0  0  0  0
   38.1540   23.2740   39.1840 H   0  0  0  0  0  0  0  0  0  0  0  0
   39.7350   22.8540   37.8390 N   0  0  0  0  0  0  0  0  0  0  0  0
   40.3280   23.0510   36.6590 C   0  0  0  0  0  3  0  0  0  0  0  0
   39.7180   23.9270   35.8210 N   0  0  0  0  0  0  0  0  0  0  0  0
   36.6440   25.3500   31.7570 C   0  0  0  0  0  0  0  0  0  0  0  0
   37.7360   24.8950   31.0280 F   0  0  0  0  0  0  0  0  0  0  0  0
   35.7880   24.2710   31.9030 F   0  0  0  0  0  0  0  0  0  0  0  0
   35.9730   26.2560   30.9700 F   0  0  0  0  0  0  0  0  0  0  0  0
  1  7  1  0  0  0  0
  1  2  1  0  0  0  0
  2  8  1  0  0  0  0
  3  2  2  0  0  0  0
  3  9  1  0  0  0  0
  4  3  1  0  0  0  0
  5  6  1  0  0  0  0
  5  4  2  0  0  0  0
  6  1  2  0  0  0  0
  9 10  1  0  0  0  0
 10 11  2  0  0  0  0
 11 12  1  0  0  0  0
 13 11  1  0  0  0  0
 14 13  2  0  0  0  0
 15  9  2  0  0  0  0
 15 14  1  0  0  0  0
 16 18  1  0  0  0  0
 16  5  1  0  0  0  0
 17 16  1  0  0  0  0
 19 16  1  0  0  0  0
M  END
>  <minimizedAffinity>
-4.4401474

$$$$

 OpenBabel03272510033D

 19 20  0  0  0  0  0  0  0  0999 V2000
   37.7540   22.2660   34.9550 C   0  0  0  0  0  0  0  0  0  0  0  0
   38.4130   23.2070   34.1460 C   0  0  0  0  0  0  0  0  0  0  0  0
   38.9940   24.2910   34.7860 C   0  0  0  0  0  0  0  0  0  0  0  0
   38.9050   24.4020   36.1340 N   0  0  0  0  0  0  0  0  0  0  0  0
   38.2600   23.4720   36.8760 C   0  0  0  0  0  0  0  0  0  0  0  0
   37.6900   22.4140   36.2900 N   0  0  0  0  0  0  0  0  0  0  0  0
   37.2880   21.4030   34.4940 H   0  0  0  0  0  0  0  0  0  0  0  0
   38.4550   23.0690   33.0730 H   0  0  0  0  0  0  0  0  0  0  0  0
   39.6940   25.3060   34.0060 C   0  0  0  0  0  0  0  0  0  0  0  0
   40.2640   26.3890   34.6440 C   0  0  0  0  0  3  0  0  0  0  0  0
   40.9110   27.3100   33.8440 C   0  0  0  0  0  0  0  0  0  0  0  0
   41.3620   28.1600   34.3150 H   0  0  0  0  0  0  0  0  0  0  0  0
   40.9570   27.1160   32.5170 N   0  0  0  0  0  0  0  0  0  0  0  0
   40.4110   26.0720   31.8880 C   0  0  0  0  0  3  0  0  0  0  0  0
   39.7740   25.1660   32.6720 N   0  0  0  0  0  0  0  0  0  0  0  0
   38.2110   23.6720   38.3460 C   0  0  0  0  0  0  0  0  0  0  0  0
   37.3130   22.8140   38.9680 F   0  0  0  0  0  0  0  0  0  0  0  0
   39.4480   23.4360   38.9230 F   0  0  0  0  0  0  0  0  0  0  0  0
   37.8700   24.9550   38.7050 F   0  0  0  0  0  0  0  0  0  0  0  0
  1  6  1  0  0  0  0
  2  3  1  0  0  0  0
  2  1  2  0  0  0  0
  3  4  2  0  0  0  0
  4  5  1  0  0  0  0
  5 16  1  0  0  0  0
  6  5  2  0  0  0  0
  7  1  1  0  0  0  0
  8  2  1  0  0  0  0
  9 10  1  0  0  0  0
  9  3  1  0  0  0  0
 11 12  1  0  0  0  0
 11 10  2  0  0  0  0
 13 11  1  0  0  0  0
 14 13  2  0  0  0  0
 14 15  1  0  0  0  0
 15  9  2  0  0  0  0
 16 19  1  0  0  0  0
 16 18  1  0  0  0  0
 16 17  1  0  0  0  0
M  END
>  <minimizedAffinity>
-4.43972874

$$$$
