
 OpenBabel03262521383D

 26 28  0  0  0  0  0  0  0  0999 V2000
   35.3850   28.3920   34.7070 F   0  0  0  0  0  0  0  0  0  0  0  0
   35.6860   29.1630   33.6250 C   0  0  0  0  0  0  0  0  0  0  0  0
   35.5170   30.5440   33.6480 C   0  0  0  0  0  0  0  0  0  0  0  0
   35.8350   31.2920   32.5280 C   0  0  0  0  0  0  0  0  0  0  0  0
   36.3220   30.6720   31.3820 C   0  0  0  0  0  0  0  0  0  0  0  0
   36.4700   29.2990   31.4120 C   0  0  0  0  0  0  0  0  0  0  0  0
   36.1620   28.5220   32.5110 C   0  0  0  0  0  0  0  0  0  0  0  0
   35.6680   32.3380   32.6550 H   0  0  0  0  0  0  0  0  0  0  0  0
   36.5520   31.2870   30.5500 H   0  0  0  0  0  0  0  0  0  0  0  0
   36.8580   28.9200   30.4610 H   0  0  0  0  0  0  0  0  0  0  0  0
   33.6030   31.1220   34.9620 C   0  0  0  0  0  0  0  0  0  0  0  0
   35.0100   31.1030   34.8630 C   0  0  0  0  0  0  0  0  0  0  0  0
   35.7200   31.6160   35.9350 C   0  0  0  0  0  0  0  0  0  0  0  0
   35.0650   32.1120   37.0230 N   0  0  0  0  0  0  0  0  0  0  0  0
   33.7120   32.1060   37.0660 C   0  0  0  0  0  0  0  0  0  0  0  0
   32.9760   31.6170   36.0460 N   0  0  0  0  0  0  0  0  0  0  0  0
   32.9520   30.7460   34.1820 H   0  0  0  0  0  0  0  0  0  0  0  0
   36.7770   31.5870   35.8320 H   0  0  0  0  0  0  0  0  0  0  0  0
   33.3390   32.5360   38.0040 H   0  0  0  0  0  0  0  0  0  0  0  0
   36.3910   27.1020   32.3330 C   0  0  0  0  0  0  0  0  0  0  0  0
   37.2480   26.2770   33.0130 C   0  0  0  0  0  3  0  0  0  0  0  0
   37.4330   24.9310   32.8110 C   0  0  0  0  0  0  0  0  0  0  0  0
   38.1400   24.3720   33.4090 H   0  0  0  0  0  0  0  0  0  0  0  0
   36.7030   24.3430   31.8430 N   0  0  0  0  0  0  0  0  0  0  0  0
   35.8370   25.1200   31.1370 C   0  0  0  0  0  3  0  0  0  0  0  0
   35.7090   26.4280   31.3920 N   0  0  0  0  0  0  0  0  0  0  0  0
  2  3  1  0  0  0  0
  2  1  1  0  0  0  0
  3 12  1  0  0  0  0
  4  8  1  0  0  0  0
  4  3  2  0  0  0  0
  5  6  2  0  0  0  0
  5  4  1  0  0  0  0
  6  7  1  0  0  0  0
  7  2  2  0  0  0  0
  9  5  1  0  0  0  0
 10  6  1  0  0  0  0
 11 16  1  0  0  0  0
 12 11  2  0  0  0  0
 12 13  1  0  0  0  0
 13 14  2  0  0  0  0
 14 15  1  0  0  0  0
 15 19  1  0  0  0  0
 16 15  2  0  0  0  0
 17 11  1  0  0  0  0
 18 13  1  0  0  0  0
 20  7  1  0  0  0  0
 20 21  1  0  0  0  0
 22 21  2  0  0  0  0
 22 23  1  0  0  0  0
 24 22  1  0  0  0  0
 25 26  1  0  0  0  0
 25 24  2  0  0  0  0
 26 20  2  0  0  0  0
M  END
>  <minimizedAffinity>
-4.96535254

$$$$

 OpenBabel03262521383D

 26 28  0  0  0  0  0  0  0  0999 V2000
   36.2170   27.9760   34.8300 F   0  0  0  0  0  0  0  0  0  0  0  0
   36.2030   28.7130   33.6840 C   0  0  0  0  0  0  0  0  0  0  0  0
   36.7500   28.2250   32.5010 C   0  0  0  0  0  0  0  0  0  0  0  0
   36.7130   29.0040   31.3580 C   0  0  0  0  0  0  0  0  0  0  0  0
   36.1350   30.2690   31.3850 C   0  0  0  0  0  0  0  0  0  0  0  0
   35.6070   30.7040   32.5850 C   0  0  0  0  0  0  0  0  0  0  0  0
   35.6260   29.9550   33.7440 C   0  0  0  0  0  0  0  0  0  0  0  0
   37.1600   28.5340   30.5100 H   0  0  0  0  0  0  0  0  0  0  0  0
   36.1300   30.8270   30.4840 H   0  0  0  0  0  0  0  0  0  0  0  0
   35.1790   31.7070   32.4900 H   0  0  0  0  0  0  0  0  0  0  0  0
   36.4630   25.8730   32.1720 C   0  0  0  0  0  0  0  0  0  0  0  0
   37.3270   26.9180   32.5580 C   0  0  0  0  0  0  0  0  0  0  0  0
   38.6100   26.5620   32.9390 C   0  0  0  0  0  0  0  0  0  0  0  0
   38.9940   25.2530   32.9330 N   0  0  0  0  0  0  0  0  0  0  0  0
   38.1230   24.2890   32.5520 C   0  0  0  0  0  0  0  0  0  0  0  0
   36.8630   24.5870   32.1740 N   0  0  0  0  0  0  0  0  0  0  0  0
   35.4410   26.0400   31.8570 H   0  0  0  0  0  0  0  0  0  0  0  0
   39.2380   27.3700   33.2240 H   0  0  0  0  0  0  0  0  0  0  0  0
   38.5820   23.2930   32.6010 H   0  0  0  0  0  0  0  0  0  0  0  0
   35.0190   30.5980   34.8920 C   0  0  0  0  0  0  0  0  0  0  0  0
   35.5870   31.4550   35.7980 C   0  0  0  0  0  3  0  0  0  0  0  0
   34.9720   32.0440   36.8750 C   0  0  0  0  0  0  0  0  0  0  0  0
   35.5170   32.7090   37.5310 H   0  0  0  0  0  0  0  0  0  0  0  0
   33.6700   31.7580   37.0800 N   0  0  0  0  0  0  0  0  0  0  0  0
   33.0590   30.9100   36.2070 C   0  0  0  0  0  3  0  0  0  0  0  0
   33.7250   30.3740   35.1770 N   0  0  0  0  0  0  0  0  0  0  0  0
  2  7  1  0  0  0  0
  2  1  1  0  0  0  0
  3 12  1  0  0  0  0
  3  2  2  0  0  0  0
  4  5  2  0  0  0  0
  4  3  1  0  0  0  0
  5  6  1  0  0  0  0
  6  7  2  0  0  0  0
  7 20  1  0  0  0  0
  8  4  1  0  0  0  0
  9  5  1  0  0  0  0
 10  6  1  0  0  0  0
 11 16  2  0  0  0  0
 11 12  1  0  0  0  0
 12 13  2  0  0  0  0
 13 18  1  0  0  0  0
 14 13  1  0  0  0  0
 15 19  1  0  0  0  0
 15 14  2  0  0  0  0
 16 15  1  0  0  0  0
 17 11  1  0  0  0  0
 20 26  2  0  0  0  0
 20 21  1  0  0  0  0
 21 22  2  0  0  0  0
 22 24  1  0  0  0  0
 22 23  1  0  0  0  0
 25 24  2  0  0  0  0
 26 25  1  0  0  0  0
M  END
>  <minimizedAffinity>
-4.92775869

$$$$

 OpenBabel03262521383D

 26 28  0  0  0  0  0  0  0  0999 V2000
   36.3770   28.0650   34.8530 F   0  0  0  0  0  0  0  0  0  0  0  0
   36.1830   28.7150   33.6710 C   0  0  0  0  0  0  0  0  0  0  0  0
   36.6520   28.1910   32.4700 C   0  0  0  0  0  0  0  0  0  0  0  0
   36.4330   28.8810   31.2910 C   0  0  0  0  0  0  0  0  0  0  0  0
   35.7500   30.0920   31.2990 C   0  0  0  0  0  0  0  0  0  0  0  0
   35.3060   30.5670   32.5180 C   0  0  0  0  0  0  0  0  0  0  0  0
   35.5070   29.9060   33.7130 C   0  0  0  0  0  0  0  0  0  0  0  0
   36.8340   28.3900   30.4320 H   0  0  0  0  0  0  0  0  0  0  0  0
   35.6070   30.5830   30.3710 H   0  0  0  0  0  0  0  0  0  0  0  0
   34.7840   31.5220   32.4070 H   0  0  0  0  0  0  0  0  0  0  0  0
   38.7500   27.0530   32.6380 C   0  0  0  0  0  0  0  0  0  0  0  0
   37.3460   26.9430   32.5480 C   0  0  0  0  0  0  0  0  0  0  0  0
   36.8170   25.6640   32.5480 C   0  0  0  0  0  0  0  0  0  0  0  0
   37.6370   24.5770   32.6310 N   0  0  0  0  0  0  0  0  0  0  0  0
   38.9790   24.7400   32.7150 C   0  0  0  0  0  0  0  0  0  0  0  0
   39.5410   25.9670   32.7180 N   0  0  0  0  0  0  0  0  0  0  0  0
   39.2670   28.0040   32.6460 H   0  0  0  0  0  0  0  0  0  0  0  0
   35.7590   25.6130   32.4800 H   0  0  0  0  0  0  0  0  0  0  0  0
   39.4970   23.7750   32.7750 H   0  0  0  0  0  0  0  0  0  0  0  0
   34.9620   30.5770   34.8760 C   0  0  0  0  0  0  0  0  0  0  0  0
   35.5870   31.4280   35.7510 C   0  0  0  0  0  3  0  0  0  0  0  0
   35.0300   32.0440   36.8440 C   0  0  0  0  0  0  0  0  0  0  0  0
   35.6170   32.7020   37.4710 H   0  0  0  0  0  0  0  0  0  0  0  0
   33.7300   31.7950   37.1010 N   0  0  0  0  0  0  0  0  0  0  0  0
   33.0630   30.9560   36.2620 C   0  0  0  0  0  3  0  0  0  0  0  0
   33.6740   30.3910   35.2130 N   0  0  0  0  0  0  0  0  0  0  0  0
  2  7  1  0  0  0  0
  2  1  1  0  0  0  0
  3 12  1  0  0  0  0
  3  2  2  0  0  0  0
  4  5  2  0  0  0  0
  4  3  1  0  0  0  0
  5  6  1  0  0  0  0
  6  7  2  0  0  0  0
  7 20  1  0  0  0  0
  8  4  1  0  0  0  0
  9  5  1  0  0  0  0
 10  6  1  0  0  0  0
 11 17  1  0  0  0  0
 11 16  1  0  0  0  0
 12 13  1  0  0  0  0
 12 11  2  0  0  0  0
 13 14  2  0  0  0  0
 14 15  1  0  0  0  0
 15 16  2  0  0  0  0
 15 19  1  0  0  0  0
 18 13  1  0  0  0  0
 20 26  2  0  0  0  0
 20 21  1  0  0  0  0
 21 22  2  0  0  0  0
 22 24  1  0  0  0  0
 22 23  1  0  0  0  0
 25 24  2  0  0  0  0
 26 25  1  0  0  0  0
M  END
>  <minimizedAffinity>
-4.91065311

$$$$

 OpenBabel03262521383D

 26 28  0  0  0  0  0  0  0  0999 V2000
   37.3840   28.4070   35.7060 F   0  0  0  0  0  0  0  0  0  0  0  0
   36.8720   28.3210   34.4460 C   0  0  0  0  0  0  0  0  0  0  0  0
   37.3520   27.3910   33.5290 C   0  0  0  0  0  0  0  0  0  0  0  0
   36.8050   27.3340   32.2600 C   0  0  0  0  0  0  0  0  0  0  0  0
   35.7790   28.2000   31.8960 C   0  0  0  0  0  0  0  0  0  0  0  0
   35.3390   29.1040   32.8440 C   0  0  0  0  0  0  0  0  0  0  0  0
   35.8620   29.1880   34.1190 C   0  0  0  0  0  0  0  0  0  0  0  0
   37.2460   26.5870   31.6400 H   0  0  0  0  0  0  0  0  0  0  0  0
   35.3910   28.1190   30.9130 H   0  0  0  0  0  0  0  0  0  0  0  0
   34.5340   29.7320   32.4510 H   0  0  0  0  0  0  0  0  0  0  0  0
   38.0020   25.2460   34.3680 C   0  0  0  0  0  0  0  0  0  0  0  0
   38.4090   26.5400   33.9810 C   0  0  0  0  0  0  0  0  0  0  0  0
   39.7600   26.8270   34.0820 C   0  0  0  0  0  0  0  0  0  0  0  0
   40.6340   25.8850   34.5370 N   0  0  0  0  0  0  0  0  0  0  0  0
   40.1890   24.6570   34.8950 C   0  0  0  0  0  0  0  0  0  0  0  0
   38.8820   24.3310   34.8160 N   0  0  0  0  0  0  0  0  0  0  0  0
   36.9710   24.9170   34.3290 H   0  0  0  0  0  0  0  0  0  0  0  0
   40.0370   27.8080   33.7830 H   0  0  0  0  0  0  0  0  0  0  0  0
   41.0110   24.0170   35.2380 H   0  0  0  0  0  0  0  0  0  0  0  0
   35.2590   30.2060   34.9560 C   0  0  0  0  0  0  0  0  0  0  0  0
   35.8690   31.2010   35.6750 C   0  0  0  0  0  3  0  0  0  0  0  0
   35.2560   32.1480   36.4580 C   0  0  0  0  0  0  0  0  0  0  0  0
   35.8360   32.8930   36.9860 H   0  0  0  0  0  0  0  0  0  0  0  0
   33.9110   32.1080   36.5420 N   0  0  0  0  0  0  0  0  0  0  0  0
   33.2570   31.1370   35.8460 C   0  0  0  0  0  3  0  0  0  0  0  0
   33.9240   30.2470   35.1010 N   0  0  0  0  0  0  0  0  0  0  0  0
  2  1  1  0  0  0  0
  3 12  1  0  0  0  0
  3  2  2  0  0  0  0
  4  3  1  0  0  0  0
  5  4  2  0  0  0  0
  5  6  1  0  0  0  0
  6  7  2  0  0  0  0
  7  2  1  0  0  0  0
  7 20  1  0  0  0  0
  8  4  1  0  0  0  0
  9  5  1  0  0  0  0
 10  6  1  0  0  0  0
 11 16  1  0  0  0  0
 12 13  1  0  0  0  0
 12 11  2  0  0  0  0
 13 14  2  0  0  0  0
 14 15  1  0  0  0  0
 15 19  1  0  0  0  0
 16 15  2  0  0  0  0
 17 11  1  0  0  0  0
 18 13  1  0  0  0  0
 20 26  2  0  0  0  0
 20 21  1  0  0  0  0
 21 22  2  0  0  0  0
 22 24  1  0  0  0  0
 22 23  1  0  0  0  0
 25 24  2  0  0  0  0
 26 25  1  0  0  0  0
M  END
>  <minimizedAffinity>
-4.82561445

$$$$

 OpenBabel03262521383D

 26 28  0  0  0  0  0  0  0  0999 V2000
   35.9880   28.1530   34.8610 F   0  0  0  0  0  0  0  0  0  0  0  0
   36.1000   28.8570   33.6990 C   0  0  0  0  0  0  0  0  0  0  0  0
   35.5850   30.1440   33.5780 C   0  0  0  0  0  0  0  0  0  0  0  0
   35.7200   30.8260   32.3820 C   0  0  0  0  0  0  0  0  0  0  0  0
   36.3660   30.2330   31.3020 C   0  0  0  0  0  0  0  0  0  0  0  0
   36.8580   28.9540   31.4760 C   0  0  0  0  0  0  0  0  0  0  0  0
   36.7410   28.2450   32.6540 C   0  0  0  0  0  0  0  0  0  0  0  0
   35.2890   31.8030   32.3990 H   0  0  0  0  0  0  0  0  0  0  0  0
   36.4450   30.7950   30.4070 H   0  0  0  0  0  0  0  0  0  0  0  0
   37.3450   28.5890   30.5660 H   0  0  0  0  0  0  0  0  0  0  0  0
   35.7710   31.4170   35.5960 C   0  0  0  0  0  0  0  0  0  0  0  0
   34.9330   30.6790   34.7330 C   0  0  0  0  0  0  0  0  0  0  0  0
   33.6030   30.5650   35.0990 C   0  0  0  0  0  0  0  0  0  0  0  0
   33.1490   31.1470   36.2470 N   0  0  0  0  0  0  0  0  0  0  0  0
   33.9980   31.8440   37.0390 C   0  0  0  0  0  0  0  0  0  0  0  0
   35.3030   31.9830   36.7240 N   0  0  0  0  0  0  0  0  0  0  0  0
   36.8260   31.5680   35.4050 H   0  0  0  0  0  0  0  0  0  0  0  0
   32.9960   30.0050   34.4310 H   0  0  0  0  0  0  0  0  0  0  0  0
   33.4830   32.2490   37.9190 H   0  0  0  0  0  0  0  0  0  0  0  0
   37.3260   26.9200   32.6250 C   0  0  0  0  0  0  0  0  0  0  0  0
   38.6170   26.5430   32.8920 C   0  0  0  0  0  3  0  0  0  0  0  0
   39.1300   25.2700   32.8520 C   0  0  0  0  0  0  0  0  0  0  0  0
   40.1700   25.0820   33.0840 H   0  0  0  0  0  0  0  0  0  0  0  0
   38.2900   24.2710   32.5150 N   0  0  0  0  0  0  0  0  0  0  0  0
   36.9960   24.5930   32.2390 C   0  0  0  0  0  3  0  0  0  0  0  0
   36.5660   25.8600   32.2990 N   0  0  0  0  0  0  0  0  0  0  0  0
  2  1  1  0  0  0  0
  3  2  1  0  0  0  0
  3 12  1  0  0  0  0
  4  8  1  0  0  0  0
  4  3  2  0  0  0  0
  5  6  2  0  0  0  0
  5  4  1  0  0  0  0
  6  7  1  0  0  0  0
  7  2  2  0  0  0  0
  9  5  1  0  0  0  0
 10  6  1  0  0  0  0
 11 16  1  0  0  0  0
 12 13  1  0  0  0  0
 12 11  2  0  0  0  0
 13 14  2  0  0  0  0
 14 15  1  0  0  0  0
 15 19  1  0  0  0  0
 16 15  2  0  0  0  0
 17 11  1  0  0  0  0
 18 13  1  0  0  0  0
 20  7  1  0  0  0  0
 20 21  1  0  0  0  0
 22 21  2  0  0  0  0
 22 23  1  0  0  0  0
 24 22  1  0  0  0  0
 25 26  1  0  0  0  0
 25 24  2  0  0  0  0
 26 20  2  0  0  0  0
M  END
>  <minimizedAffinity>
-4.76549053

$$$$

 OpenBabel03262521383D

 26 28  0  0  0  0  0  0  0  0999 V2000
   35.5260   31.2960   32.4420 F   0  0  0  0  0  0  0  0  0  0  0  0
   35.9860   30.0620   32.7890 C   0  0  0  0  0  0  0  0  0  0  0  0
   35.7520   29.5280   34.0530 C   0  0  0  0  0  0  0  0  0  0  0  0
   36.2340   28.2700   34.3650 C   0  0  0  0  0  0  0  0  0  0  0  0
   36.9510   27.5370   33.4250 C   0  0  0  0  0  0  0  0  0  0  0  0
   37.1550   28.1130   32.1860 C   0  0  0  0  0  0  0  0  0  0  0  0
   36.6890   29.3650   31.8410 C   0  0  0  0  0  0  0  0  0  0  0  0
   35.9990   27.9590   35.3590 H   0  0  0  0  0  0  0  0  0  0  0  0
   37.3000   26.5780   33.7110 H   0  0  0  0  0  0  0  0  0  0  0  0
   37.7280   27.4510   31.5290 H   0  0  0  0  0  0  0  0  0  0  0  0
   35.7960   31.1960   35.7680 C   0  0  0  0  0  0  0  0  0  0  0  0
   35.0100   30.3470   34.9610 C   0  0  0  0  0  0  0  0  0  0  0  0
   33.6380   30.4060   35.1400 C   0  0  0  0  0  0  0  0  0  0  0  0
   33.0980   31.2550   36.0610 N   0  0  0  0  0  0  0  0  0  0  0  0
   33.9000   32.0490   36.8090 C   0  0  0  0  0  0  0  0  0  0  0  0
   35.2420   32.0260   36.6710 N   0  0  0  0  0  0  0  0  0  0  0  0
   36.8760   31.2300   35.7090 H   0  0  0  0  0  0  0  0  0  0  0  0
   33.0730   29.7560   34.5190 H   0  0  0  0  0  0  0  0  0  0  0  0
   33.3150   32.6710   37.5000 H   0  0  0  0  0  0  0  0  0  0  0  0
   37.0130   29.7820   30.4910 C   0  0  0  0  0  0  0  0  0  0  0  0
   36.9150   31.0280   29.9290 C   0  0  0  0  0  3  0  0  0  0  0  0
   37.2350   31.3800   28.6410 C   0  0  0  0  0  0  0  0  0  0  0  0
   37.1200   32.4000   28.2980 H   0  0  0  0  0  0  0  0  0  0  0  0
   37.6930   30.4080   27.8270 N   0  0  0  0  0  0  0  0  0  0  0  0
   37.8080   29.1510   28.3380 C   0  0  0  0  0  3  0  0  0  0  0  0
   37.4770   28.8830   29.6070 N   0  0  0  0  0  0  0  0  0  0  0  0
  1  2  1  0  0  0  0
  2  3  1  0  0  0  0
  3  4  2  0  0  0  0
  3 12  1  0  0  0  0
  4  8  1  0  0  0  0
  5  9  1  0  0  0  0
  5  4  1  0  0  0  0
  6  5  2  0  0  0  0
  7  6  1  0  0  0  0
  7  2  2  0  0  0  0
 10  6  1  0  0  0  0
 11 16  1  0  0  0  0
 12 13  1  0  0  0  0
 12 11  2  0  0  0  0
 13 14  2  0  0  0  0
 14 15  1  0  0  0  0
 15 19  1  0  0  0  0
 16 15  2  0  0  0  0
 17 11  1  0  0  0  0
 18 13  1  0  0  0  0
 20  7  1  0  0  0  0
 21 20  1  0  0  0  0
 22 21  2  0  0  0  0
 23 22  1  0  0  0  0
 24 25  2  0  0  0  0
 24 22  1  0  0  0  0
 25 26  1  0  0  0  0
 26 20  2  0  0  0  0
M  END
>  <minimizedAffinity>
-4.75801373

$$$$

 OpenBabel03262521383D

 26 28  0  0  0  0  0  0  0  0999 V2000
   37.2480   28.3580   35.5670 F   0  0  0  0  0  0  0  0  0  0  0  0
   36.9130   28.2310   34.2530 C   0  0  0  0  0  0  0  0  0  0  0  0
   35.8700   28.9650   33.6950 C   0  0  0  0  0  0  0  0  0  0  0  0
   35.5630   28.8080   32.3550 C   0  0  0  0  0  0  0  0  0  0  0  0
   36.2880   27.9230   31.5640 C   0  0  0  0  0  0  0  0  0  0  0  0
   37.3130   27.2200   32.1680 C   0  0  0  0  0  0  0  0  0  0  0  0
   37.6470   27.3510   33.5010 C   0  0  0  0  0  0  0  0  0  0  0  0
   34.7480   29.4170   32.0330 H   0  0  0  0  0  0  0  0  0  0  0  0
   36.0160   27.8380   30.5440 H   0  0  0  0  0  0  0  0  0  0  0  0
   37.8130   26.5560   31.4560 H   0  0  0  0  0  0  0  0  0  0  0  0
   33.8040   29.5570   34.7450 C   0  0  0  0  0  0  0  0  0  0  0  0
   35.1730   29.8500   34.5760 C   0  0  0  0  0  0  0  0  0  0  0  0
   35.6710   30.9390   35.2710 C   0  0  0  0  0  0  0  0  0  0  0  0
   34.8540   31.6780   36.0750 N   0  0  0  0  0  0  0  0  0  0  0  0
   33.5460   31.3520   36.2010 C   0  0  0  0  0  0  0  0  0  0  0  0
   33.0140   30.3010   35.5430 N   0  0  0  0  0  0  0  0  0  0  0  0
   33.3130   28.7300   34.2490 H   0  0  0  0  0  0  0  0  0  0  0  0
   36.7050   31.1340   35.1240 H   0  0  0  0  0  0  0  0  0  0  0  0
   33.0260   32.0400   36.8800 H   0  0  0  0  0  0  0  0  0  0  0  0
   38.7530   26.5210   33.9330 C   0  0  0  0  0  0  0  0  0  0  0  0
   40.0110   26.9000   34.3260 C   0  0  0  0  0  3  0  0  0  0  0  0
   41.0330   26.0770   34.7300 C   0  0  0  0  0  0  0  0  0  0  0  0
   41.9920   26.4830   35.0220 H   0  0  0  0  0  0  0  0  0  0  0  0
   40.7910   24.7500   34.7470 N   0  0  0  0  0  0  0  0  0  0  0  0
   39.5570   24.3220   34.3650 C   0  0  0  0  0  3  0  0  0  0  0  0
   38.6080   25.1860   33.9840 N   0  0  0  0  0  0  0  0  0  0  0  0
  2  1  1  0  0  0  0
  3  2  1  0  0  0  0
  3 12  1  0  0  0  0
  4  3  2  0  0  0  0
  5  6  2  0  0  0  0
  5  4  1  0  0  0  0
  6  7  1  0  0  0  0
  7 20  1  0  0  0  0
  7  2  2  0  0  0  0
  8  4  1  0  0  0  0
  9  5  1  0  0  0  0
 10  6  1  0  0  0  0
 11 16  1  0  0  0  0
 12 11  2  0  0  0  0
 12 13  1  0  0  0  0
 13 14  2  0  0  0  0
 14 15  1  0  0  0  0
 15 19  1  0  0  0  0
 16 15  2  0  0  0  0
 17 11  1  0  0  0  0
 18 13  1  0  0  0  0
 20 26  2  0  0  0  0
 20 21  1  0  0  0  0
 21 22  2  0  0  0  0
 22 24  1  0  0  0  0
 22 23  1  0  0  0  0
 25 24  2  0  0  0  0
 26 25  1  0  0  0  0
M  END
>  <minimizedAffinity>
-4.71838093

$$$$

 OpenBabel03262521383D

 26 28  0  0  0  0  0  0  0  0999 V2000
   37.2350   25.9260   33.2110 F   0  0  0  0  0  0  0  0  0  0  0  0
   38.5380   26.2370   33.4610 C   0  0  0  0  0  0  0  0  0  0  0  0
   39.2390   27.1280   32.6530 C   0  0  0  0  0  0  0  0  0  0  0  0
   40.5600   27.4200   32.9410 C   0  0  0  0  0  0  0  0  0  0  0  0
   41.1910   26.8280   34.0310 C   0  0  0  0  0  0  0  0  0  0  0  0
   40.4490   25.9520   34.7990 C   0  0  0  0  0  0  0  0  0  0  0  0
   39.1300   25.6380   34.5410 C   0  0  0  0  0  0  0  0  0  0  0  0
   41.0010   28.1120   32.2590 H   0  0  0  0  0  0  0  0  0  0  0  0
   42.2030   27.0830   34.2120 H   0  0  0  0  0  0  0  0  0  0  0  0
   41.0430   25.5480   35.6260 H   0  0  0  0  0  0  0  0  0  0  0  0
   39.1020   27.4630   30.2880 C   0  0  0  0  0  0  0  0  0  0  0  0
   38.5190   27.6900   31.5520 C   0  0  0  0  0  0  0  0  0  0  0  0
   37.3400   28.4160   31.5770 C   0  0  0  0  0  0  0  0  0  0  0  0
   36.7900   28.8780   30.4180 N   0  0  0  0  0  0  0  0  0  0  0  0
   37.3920   28.6310   29.2310 C   0  0  0  0  0  0  0  0  0  0  0  0
   38.5420   27.9290   29.1560 N   0  0  0  0  0  0  0  0  0  0  0  0
   40.0220   26.9080   30.1550 H   0  0  0  0  0  0  0  0  0  0  0  0
   36.9250   28.5700   32.5420 H   0  0  0  0  0  0  0  0  0  0  0  0
   36.8270   29.0670   28.3970 H   0  0  0  0  0  0  0  0  0  0  0  0
   38.5380   24.6960   35.4700 C   0  0  0  0  0  0  0  0  0  0  0  0
   38.1580   24.8950   36.7720 C   0  0  0  0  0  3  0  0  0  0  0  0
   37.5970   23.9700   37.6180 C   0  0  0  0  0  0  0  0  0  0  0  0
   37.3330   24.2340   38.6330 H   0  0  0  0  0  0  0  0  0  0  0  0
   37.3940   22.7280   37.1350 N   0  0  0  0  0  0  0  0  0  0  0  0
   37.7550   22.4790   35.8460 C   0  0  0  0  0  3  0  0  0  0  0  0
   38.2970   23.4330   35.0780 N   0  0  0  0  0  0  0  0  0  0  0  0
  1  2  1  0  0  0  0
  2  7  1  0  0  0  0
  3  4  1  0  0  0  0
  3  2  2  0  0  0  0
  4  5  2  0  0  0  0
  5  9  1  0  0  0  0
  5  6  1  0  0  0  0
  6 10  1  0  0  0  0
  7  6  2  0  0  0  0
  7 20  1  0  0  0  0
  8  4  1  0  0  0  0
 11 12  1  0  0  0  0
 12 13  2  0  0  0  0
 12  3  1  0  0  0  0
 13 18  1  0  0  0  0
 14 13  1  0  0  0  0
 15 14  2  0  0  0  0
 16 15  1  0  0  0  0
 16 11  2  0  0  0  0
 17 11  1  0  0  0  0
 19 15  1  0  0  0  0
 20 21  1  0  0  0  0
 21 22  2  0  0  0  0
 22 23  1  0  0  0  0
 24 22  1  0  0  0  0
 25 24  2  0  0  0  0
 26 20  2  0  0  0  0
 26 25  1  0  0  0  0
M  END
>  <minimizedAffinity>
-4.70630169

$$$$

 OpenBabel03262521383D

 26 28  0  0  0  0  0  0  0  0999 V2000
   36.3610   30.0620   31.8860 F   0  0  0  0  0  0  0  0  0  0  0  0
   36.7060   28.9270   32.5560 C   0  0  0  0  0  0  0  0  0  0  0  0
   37.4980   27.9470   31.9660 C   0  0  0  0  0  0  0  0  0  0  0  0
   37.8270   26.8090   32.6810 C   0  0  0  0  0  0  0  0  0  0  0  0
   37.3720   26.6400   33.9840 C   0  0  0  0  0  0  0  0  0  0  0  0
   36.5890   27.6430   34.5230 C   0  0  0  0  0  0  0  0  0  0  0  0
   36.2410   28.7900   33.8390 C   0  0  0  0  0  0  0  0  0  0  0  0
   38.4360   26.1250   32.1330 H   0  0  0  0  0  0  0  0  0  0  0  0
   37.6510   25.7520   34.4920 H   0  0  0  0  0  0  0  0  0  0  0  0
   36.2890   27.4050   35.5480 H   0  0  0  0  0  0  0  0  0  0  0  0
   39.2890   27.9500   30.3800 C   0  0  0  0  0  0  0  0  0  0  0  0
   37.9220   28.1960   30.6230 C   0  0  0  0  0  0  0  0  0  0  0  0
   37.1660   28.6400   29.5520 C   0  0  0  0  0  0  0  0  0  0  0  0
   37.7410   28.8240   28.3290 N   0  0  0  0  0  0  0  0  0  0  0  0
   39.0600   28.5720   28.1510 C   0  0  0  0  0  0  0  0  0  0  0  0
   39.8380   28.1380   29.1650 N   0  0  0  0  0  0  0  0  0  0  0  0
   39.9700   27.6010   31.1460 H   0  0  0  0  0  0  0  0  0  0  0  0
   36.1400   28.8160   29.7640 H   0  0  0  0  0  0  0  0  0  0  0  0
   39.3690   28.7670   27.1160 H   0  0  0  0  0  0  0  0  0  0  0  0
   35.4140   29.7140   34.5870 C   0  0  0  0  0  0  0  0  0  0  0  0
   35.7950   30.7900   35.3470 C   0  0  0  0  0  3  0  0  0  0  0  0
   34.9740   31.6430   36.0410 C   0  0  0  0  0  0  0  0  0  0  0  0
   35.3820   32.4660   36.6120 H   0  0  0  0  0  0  0  0  0  0  0  0
   33.6460   31.4130   35.9820 N   0  0  0  0  0  0  0  0  0  0  0  0
   33.2160   30.3560   35.2400 C   0  0  0  0  0  3  0  0  0  0  0  0
   34.0780   29.5660   34.5880 N   0  0  0  0  0  0  0  0  0  0  0  0
  1  2  1  0  0  0  0
  2  7  1  0  0  0  0
  3  2  2  0  0  0  0
  3  4  1  0  0  0  0
  4  5  2  0  0  0  0
  5  9  1  0  0  0  0
  5  6  1  0  0  0  0
  6 10  1  0  0  0  0
  7  6  2  0  0  0  0
  7 20  1  0  0  0  0
  8  4  1  0  0  0  0
 11 12  1  0  0  0  0
 11 17  1  0  0  0  0
 12  3  1  0  0  0  0
 13 18  1  0  0  0  0
 13 12  2  0  0  0  0
 14 13  1  0  0  0  0
 15 14  2  0  0  0  0
 15 16  1  0  0  0  0
 16 11  2  0  0  0  0
 19 15  1  0  0  0  0
 20 26  2  0  0  0  0
 20 21  1  0  0  0  0
 21 22  2  0  0  0  0
 22 23  1  0  0  0  0
 24 22  1  0  0  0  0
 25 24  2  0  0  0  0
 26 25  1  0  0  0  0
M  END
>  <minimizedAffinity>
-4.62506628

$$$$
