
 OpenBabel03262521513D

 17 18  0  0  0  0  0  0  0  0999 V2000
   38.6250   22.4940   35.7150 C   0  0  0  0  0  0  0  0  0  0  0  0
   39.9090   22.2660   36.2670 C   0  0  0  0  0  0  0  0  0  0  0  0
   40.1270   22.6220   37.5950 C   0  0  0  0  0  0  0  0  0  0  0  0
   39.0910   23.1720   38.2920 N   0  0  0  0  0  0  0  0  0  0  0  0
   37.8880   23.3720   37.7310 C   0  0  0  0  0  0  0  0  0  0  0  0
   37.6720   23.0350   36.4620 N   0  0  0  0  0  0  0  0  0  0  0  0
   40.7700   21.8340   35.7680 H   0  0  0  0  0  0  0  0  0  0  0  0
   41.0780   22.4810   38.0930 H   0  0  0  0  0  0  0  0  0  0  0  0
   37.0510   23.8030   38.2510 H   0  0  0  0  0  0  0  0  0  0  0  0
   38.5350   21.9780   34.0130 S   0  0  0  0  0  0  0  0  0  0  0  0
   37.4870   23.0440   33.0310 C   0  0  0  0  0  0  0  0  0  0  0  0
   36.5350   22.4530   32.2300 C   0  0  0  0  0  3  0  0  0  0  0  0
   35.6950   23.2220   31.4490 C   0  0  0  0  0  0  0  0  0  0  0  0
   34.9510   22.7430   30.8230 H   0  0  0  0  0  0  0  0  0  0  0  0
   35.7990   24.5570   31.4610 N   0  0  0  0  0  0  0  0  0  0  0  0
   36.7440   25.1420   32.2560 C   0  0  0  0  0  3  0  0  0  0  0  0
   37.5800   24.4050   33.0320 N   0  0  0  0  0  0  0  0  0  0  0  0
  1  2  2  0  0  0  0
  1  6  1  0  0  0  0
  2  3  1  0  0  0  0
  3  8  1  0  0  0  0
  3  4  2  0  0  0  0
  5  9  1  0  0  0  0
  5  4  1  0  0  0  0
  6  5  2  0  0  0  0
  7  2  1  0  0  0  0
 10  1  1  0  0  0  0
 11 17  1  0  0  0  0
 11 10  1  0  0  0  0
 12 11  2  0  0  0  0
 13 15  2  0  0  0  0
 13 12  1  0  0  0  0
 14 13  1  0  0  0  0
 15 16  1  0  0  0  0
 16 17  2  0  0  0  0
M  END
>  <minimizedAffinity>
-3.79749489

$$$$

 OpenBabel03262521513D

 17 18  0  0  0  0  0  0  0  0999 V2000
   37.5050   25.7290   33.9720 C   0  0  0  0  0  0  0  0  0  0  0  0
   37.0530   25.8550   32.6370 C   0  0  0  0  0  0  0  0  0  0  0  0
   36.4440   27.0480   32.2580 C   0  0  0  0  0  0  0  0  0  0  0  0
   36.3170   28.0310   33.1950 N   0  0  0  0  0  0  0  0  0  0  0  0
   36.7590   27.8710   34.4520 C   0  0  0  0  0  0  0  0  0  0  0  0
   37.3410   26.7340   34.8220 N   0  0  0  0  0  0  0  0  0  0  0  0
   37.1250   25.1140   31.8470 H   0  0  0  0  0  0  0  0  0  0  0  0
   36.0710   27.2260   31.2570 H   0  0  0  0  0  0  0  0  0  0  0  0
   36.6740   28.6250   35.2150 H   0  0  0  0  0  0  0  0  0  0  0  0
   38.2540   24.1410   34.2710 S   0  0  0  0  0  0  0  0  0  0  0  0
   38.4850   23.8110   36.0140 C   0  0  0  0  0  0  0  0  0  0  0  0
   39.6310   23.1540   36.4000 C   0  0  0  0  0  3  0  0  0  0  0  0
   39.8680   22.8720   37.7310 C   0  0  0  0  0  0  0  0  0  0  0  0
   40.7750   22.3530   38.0210 H   0  0  0  0  0  0  0  0  0  0  0  0
   38.9790   23.2350   38.6650 N   0  0  0  0  0  0  0  0  0  0  0  0
   37.8410   23.8870   38.2800 C   0  0  0  0  0  3  0  0  0  0  0  0
   37.5890   24.1740   36.9770 N   0  0  0  0  0  0  0  0  0  0  0  0
  1 10  1  0  0  0  0
  1  6  1  0  0  0  0
  2  1  2  0  0  0  0
  3  2  1  0  0  0  0
  3  4  2  0  0  0  0
  4  5  1  0  0  0  0
  5  6  2  0  0  0  0
  5  9  1  0  0  0  0
  7  2  1  0  0  0  0
  8  3  1  0  0  0  0
 10 11  1  0  0  0  0
 11 12  2  0  0  0  0
 11 17  1  0  0  0  0
 12 13  1  0  0  0  0
 13 14  1  0  0  0  0
 13 15  2  0  0  0  0
 16 15  1  0  0  0  0
 17 16  2  0  0  0  0
M  END
>  <minimizedAffinity>
-3.77398133

$$$$

 OpenBabel03262521513D

 17 18  0  0  0  0  0  0  0  0999 V2000
   38.7860   23.0300   35.7790 C   0  0  0  0  0  0  0  0  0  0  0  0
   39.9540   22.5860   36.4450 C   0  0  0  0  0  0  0  0  0  0  0  0
   40.0130   22.7200   37.8290 C   0  0  0  0  0  0  0  0  0  0  0  0
   38.9430   23.2740   38.4680 N   0  0  0  0  0  0  0  0  0  0  0  0
   37.8540   23.6830   37.7990 C   0  0  0  0  0  0  0  0  0  0  0  0
   37.7890   23.5580   36.4760 N   0  0  0  0  0  0  0  0  0  0  0  0
   40.8350   22.1390   35.9960 H   0  0  0  0  0  0  0  0  0  0  0  0
   40.8680   22.4060   38.4140 H   0  0  0  0  0  0  0  0  0  0  0  0
   36.9940   24.1240   38.2710 H   0  0  0  0  0  0  0  0  0  0  0  0
   38.8910   22.7780   34.0190 S   0  0  0  0  0  0  0  0  0  0  0  0
   37.3410   22.2290   33.3140 C   0  0  0  0  0  0  0  0  0  0  0  0
   36.7020   21.1650   33.9100 C   0  0  0  0  0  3  0  0  0  0  0  0
   35.5020   20.6950   33.4140 C   0  0  0  0  0  0  0  0  0  0  0  0
   35.0100   19.8560   33.8930 H   0  0  0  0  0  0  0  0  0  0  0  0
   34.9460   21.2710   32.3410 N   0  0  0  0  0  0  0  0  0  0  0  0
   35.5810   22.3270   31.7490 C   0  0  0  0  0  3  0  0  0  0  0  0
   36.7610   22.8050   32.2210 N   0  0  0  0  0  0  0  0  0  0  0  0
  1  2  2  0  0  0  0
  1  6  1  0  0  0  0
  2  3  1  0  0  0  0
  3  8  1  0  0  0  0
  3  4  2  0  0  0  0
  5  9  1  0  0  0  0
  5  4  1  0  0  0  0
  6  5  2  0  0  0  0
  7  2  1  0  0  0  0
 10  1  1  0  0  0  0
 11 12  1  0  0  0  0
 11 10  1  0  0  0  0
 13 14  1  0  0  0  0
 13 12  2  0  0  0  0
 15 13  1  0  0  0  0
 16 17  1  0  0  0  0
 16 15  2  0  0  0  0
 17 11  2  0  0  0  0
M  END
>  <minimizedAffinity>
-3.74816418

$$$$

 OpenBabel03262521513D

 17 18  0  0  0  0  0  0  0  0999 V2000
   37.4860   23.3970   33.0570 C   0  0  0  0  0  0  0  0  0  0  0  0
   36.5700   22.8620   32.1200 C   0  0  0  0  0  0  0  0  0  0  0  0
   35.8150   23.7490   31.3580 C   0  0  0  0  0  0  0  0  0  0  0  0
   35.9990   25.0860   31.5570 N   0  0  0  0  0  0  0  0  0  0  0  0
   36.8780   25.5530   32.4570 C   0  0  0  0  0  0  0  0  0  0  0  0
   37.6040   24.7110   33.1890 N   0  0  0  0  0  0  0  0  0  0  0  0
   36.3780   21.8140   31.9150 H   0  0  0  0  0  0  0  0  0  0  0  0
   35.0930   23.4240   30.6200 H   0  0  0  0  0  0  0  0  0  0  0  0
   37.0480   26.5990   32.6390 H   0  0  0  0  0  0  0  0  0  0  0  0
   38.3600   22.1170   33.9350 S   0  0  0  0  0  0  0  0  0  0  0  0
   38.6460   22.5370   35.6500 C   0  0  0  0  0  0  0  0  0  0  0  0
   39.8770   22.2400   36.1900 C   0  0  0  0  0  3  0  0  0  0  0  0
   40.1590   22.5400   37.5080 C   0  0  0  0  0  0  0  0  0  0  0  0
   41.1320   22.3000   37.9210 H   0  0  0  0  0  0  0  0  0  0  0  0
   39.2330   23.1260   38.2790 N   0  0  0  0  0  0  0  0  0  0  0  0
   38.0110   23.4200   37.7410 C   0  0  0  0  0  3  0  0  0  0  0  0
   37.7130   23.1330   36.4480 N   0  0  0  0  0  0  0  0  0  0  0  0
  1  6  1  0  0  0  0
  1 10  1  0  0  0  0
  2  1  2  0  0  0  0
  3  4  2  0  0  0  0
  3  2  1  0  0  0  0
  4  5  1  0  0  0  0
  5  9  1  0  0  0  0
  5  6  2  0  0  0  0
  7  2  1  0  0  0  0
  8  3  1  0  0  0  0
 10 11  1  0  0  0  0
 11 12  2  0  0  0  0
 11 17  1  0  0  0  0
 12 13  1  0  0  0  0
 13 14  1  0  0  0  0
 13 15  2  0  0  0  0
 16 15  1  0  0  0  0
 17 16  2  0  0  0  0
M  END
>  <minimizedAffinity>
-3.70672083

$$$$

 OpenBabel03262521513D

 17 18  0  0  0  0  0  0  0  0999 V2000
   39.0600   24.1180   35.8090 C   0  0  0  0  0  0  0  0  0  0  0  0
   38.0040   24.6080   36.6160 C   0  0  0  0  0  0  0  0  0  0  0  0
   37.9100   24.1480   37.9260 C   0  0  0  0  0  0  0  0  0  0  0  0
   38.8400   23.2490   38.3610 N   0  0  0  0  0  0  0  0  0  0  0  0
   39.8260   22.8100   37.5630 C   0  0  0  0  0  0  0  0  0  0  0  0
   39.9230   23.2450   36.3090 N   0  0  0  0  0  0  0  0  0  0  0  0
   37.2360   25.3200   36.3300 H   0  0  0  0  0  0  0  0  0  0  0  0
   37.1340   24.4710   38.6090 H   0  0  0  0  0  0  0  0  0  0  0  0
   40.5740   22.1030   37.8740 H   0  0  0  0  0  0  0  0  0  0  0  0
   39.0200   24.8170   34.1710 S   0  0  0  0  0  0  0  0  0  0  0  0
   37.7310   24.1050   33.1560 C   0  0  0  0  0  0  0  0  0  0  0  0
   36.9760   24.9560   32.3810 C   0  0  0  0  0  3  0  0  0  0  0  0
   35.9660   24.4670   31.5750 C   0  0  0  0  0  0  0  0  0  0  0  0
   35.3790   25.1490   30.9710 H   0  0  0  0  0  0  0  0  0  0  0  0
   35.7100   23.1530   31.5390 N   0  0  0  0  0  0  0  0  0  0  0  0
   36.4610   22.3090   32.3090 C   0  0  0  0  0  3  0  0  0  0  0  0
   37.4580   22.7680   33.1080 N   0  0  0  0  0  0  0  0  0  0  0  0
  1  6  2  0  0  0  0
  1  2  1  0  0  0  0
  2  3  2  0  0  0  0
  3  4  1  0  0  0  0
  3  8  1  0  0  0  0
  5  9  1  0  0  0  0
  5  4  2  0  0  0  0
  6  5  1  0  0  0  0
  7  2  1  0  0  0  0
 10  1  1  0  0  0  0
 11 10  1  0  0  0  0
 12 11  2  0  0  0  0
 13 12  1  0  0  0  0
 14 13  1  0  0  0  0
 15 13  2  0  0  0  0
 15 16  1  0  0  0  0
 16 17  2  0  0  0  0
 17 11  1  0  0  0  0
M  END
>  <minimizedAffinity>
-3.69413519

$$$$

 OpenBabel03262521513D

 17 18  0  0  0  0  0  0  0  0999 V2000
   37.3980   22.6470   33.2710 C   0  0  0  0  0  0  0  0  0  0  0  0
   37.0030   21.5090   34.0150 C   0  0  0  0  0  0  0  0  0  0  0  0
   35.9020   20.7820   33.5710 C   0  0  0  0  0  0  0  0  0  0  0  0
   35.2650   21.2060   32.4420 N   0  0  0  0  0  0  0  0  0  0  0  0
   35.6710   22.2910   31.7660 C   0  0  0  0  0  0  0  0  0  0  0  0
   36.7210   22.9920   32.1840 N   0  0  0  0  0  0  0  0  0  0  0  0
   37.4670   21.1220   34.9170 H   0  0  0  0  0  0  0  0  0  0  0  0
   35.5360   19.9000   34.0810 H   0  0  0  0  0  0  0  0  0  0  0  0
   35.1910   22.6520   30.8730 H   0  0  0  0  0  0  0  0  0  0  0  0
   38.8190   23.4470   33.9880 S   0  0  0  0  0  0  0  0  0  0  0  0
   38.7690   23.4560   35.7750 C   0  0  0  0  0  0  0  0  0  0  0  0
   39.7700   22.7960   36.4530 C   0  0  0  0  0  3  0  0  0  0  0  0
   39.7880   22.7680   37.8330 C   0  0  0  0  0  0  0  0  0  0  0  0
   40.5820   22.2440   38.3530 H   0  0  0  0  0  0  0  0  0  0  0  0
   38.8250   23.3840   38.5310 N   0  0  0  0  0  0  0  0  0  0  0  0
   37.8320   24.0390   37.8580 C   0  0  0  0  0  3  0  0  0  0  0  0
   37.7960   24.0790   36.5020 N   0  0  0  0  0  0  0  0  0  0  0  0
  1 10  1  0  0  0  0
  1  2  1  0  0  0  0
  2  7  1  0  0  0  0
  3  2  2  0  0  0  0
  3  8  1  0  0  0  0
  4  3  1  0  0  0  0
  5  6  1  0  0  0  0
  5  4  2  0  0  0  0
  6  1  2  0  0  0  0
  9  5  1  0  0  0  0
 10 11  1  0  0  0  0
 11 12  2  0  0  0  0
 11 17  1  0  0  0  0
 12 13  1  0  0  0  0
 13 14  1  0  0  0  0
 13 15  2  0  0  0  0
 16 15  1  0  0  0  0
 17 16  2  0  0  0  0
M  END
>  <minimizedAffinity>
-3.69315648

$$$$

 OpenBabel03262521513D

 17 18  0  0  0  0  0  0  0  0999 V2000
   37.1180   22.2350   33.3360 C   0  0  0  0  0  0  0  0  0  0  0  0
   36.6530   22.5470   32.0360 C   0  0  0  0  0  0  0  0  0  0  0  0
   35.5880   21.8100   31.5240 C   0  0  0  0  0  0  0  0  0  0  0  0
   35.0530   20.8280   32.3030 N   0  0  0  0  0  0  0  0  0  0  0  0
   35.5240   20.5630   33.5310 C   0  0  0  0  0  0  0  0  0  0  0  0
   36.5410   21.2620   34.0280 N   0  0  0  0  0  0  0  0  0  0  0  0
   37.0340   23.3140   31.3690 H   0  0  0  0  0  0  0  0  0  0  0  0
   35.1720   21.9850   30.5390 H   0  0  0  0  0  0  0  0  0  0  0  0
   35.1250   19.7960   34.1710 H   0  0  0  0  0  0  0  0  0  0  0  0
   38.4790   23.2780   33.8210 S   0  0  0  0  0  0  0  0  0  0  0  0
   38.7990   23.2100   35.5790 C   0  0  0  0  0  0  0  0  0  0  0  0
   37.8840   23.7960   36.4250 C   0  0  0  0  0  3  0  0  0  0  0  0
   38.0740   23.7760   37.7920 C   0  0  0  0  0  0  0  0  0  0  0  0
   37.3460   24.2420   38.4460 H   0  0  0  0  0  0  0  0  0  0  0  0
   39.1570   23.1840   38.3130 N   0  0  0  0  0  0  0  0  0  0  0  0
   40.0650   22.6030   37.4720 C   0  0  0  0  0  3  0  0  0  0  0  0
   39.8970   22.6110   36.1250 N   0  0  0  0  0  0  0  0  0  0  0  0
  1 10  1  0  0  0  0
  1  6  1  0  0  0  0
  2  1  2  0  0  0  0
  3  2  1  0  0  0  0
  3  4  2  0  0  0  0
  4  5  1  0  0  0  0
  5  6  2  0  0  0  0
  5  9  1  0  0  0  0
  7  2  1  0  0  0  0
  8  3  1  0  0  0  0
 10 11  1  0  0  0  0
 11 17  2  0  0  0  0
 11 12  1  0  0  0  0
 12 13  2  0  0  0  0
 13 15  1  0  0  0  0
 13 14  1  0  0  0  0
 16 15  2  0  0  0  0
 17 16  1  0  0  0  0
M  END
>  <minimizedAffinity>
-3.64604545

$$$$

 OpenBabel03262521513D

 17 18  0  0  0  0  0  0  0  0999 V2000
   37.1550   26.6600   33.7140 C   0  0  0  0  0  0  0  0  0  0  0  0
   36.6010   27.8860   33.2740 C   0  0  0  0  0  0  0  0  0  0  0  0
   35.9170   27.9020   32.0610 C   0  0  0  0  0  0  0  0  0  0  0  0
   35.8190   26.7340   31.3630 N   0  0  0  0  0  0  0  0  0  0  0  0
   36.3600   25.5920   31.8150 C   0  0  0  0  0  0  0  0  0  0  0  0
   37.0150   25.5690   32.9730 N   0  0  0  0  0  0  0  0  0  0  0  0
   36.6440   28.8450   33.7800 H   0  0  0  0  0  0  0  0  0  0  0  0
   35.4640   28.7970   31.6530 H   0  0  0  0  0  0  0  0  0  0  0  0
   36.3010   24.6550   31.2900 H   0  0  0  0  0  0  0  0  0  0  0  0
   37.9890   26.8330   35.2780 S   0  0  0  0  0  0  0  0  0  0  0  0
   38.6090   25.2750   35.8980 C   0  0  0  0  0  0  0  0  0  0  0  0
   37.9380   24.6830   36.9440 C   0  0  0  0  0  3  0  0  0  0  0  0
   38.3680   23.4790   37.4670 C   0  0  0  0  0  0  0  0  0  0  0  0
   37.8300   23.0250   38.2910 H   0  0  0  0  0  0  0  0  0  0  0  0
   39.4480   22.8720   36.9580 N   0  0  0  0  0  0  0  0  0  0  0  0
   40.1130   23.4600   35.9190 C   0  0  0  0  0  3  0  0  0  0  0  0
   39.7080   24.6430   35.3910 N   0  0  0  0  0  0  0  0  0  0  0  0
  1 10  1  0  0  0  0
  2  1  1  0  0  0  0
  2  7  1  0  0  0  0
  3  2  2  0  0  0  0
  4  5  2  0  0  0  0
  4  3  1  0  0  0  0
  5  6  1  0  0  0  0
  6  1  2  0  0  0  0
  8  3  1  0  0  0  0
  9  5  1  0  0  0  0
 10 11  1  0  0  0  0
 11 12  1  0  0  0  0
 12 13  2  0  0  0  0
 13 14  1  0  0  0  0
 15 13  1  0  0  0  0
 16 15  2  0  0  0  0
 17 11  2  0  0  0  0
 17 16  1  0  0  0  0
M  END
>  <minimizedAffinity>
-3.62603545

$$$$

 OpenBabel03262521513D

 17 18  0  0  0  0  0  0  0  0999 V2000
   38.4070   25.3000   35.9750 C   0  0  0  0  0  0  0  0  0  0  0  0
   39.5990   24.7790   35.4160 C   0  0  0  0  0  0  0  0  0  0  0  0
   40.0150   23.5130   35.8160 C   0  0  0  0  0  0  0  0  0  0  0  0
   39.2510   22.8420   36.7250 N   0  0  0  0  0  0  0  0  0  0  0  0
   38.1270   23.3710   37.2320 C   0  0  0  0  0  0  0  0  0  0  0  0
   37.7220   24.5820   36.8550 N   0  0  0  0  0  0  0  0  0  0  0  0
   40.2480   25.2610   34.6910 H   0  0  0  0  0  0  0  0  0  0  0  0
   40.9140   23.0420   35.4370 H   0  0  0  0  0  0  0  0  0  0  0  0
   37.5020   22.8700   37.9500 H   0  0  0  0  0  0  0  0  0  0  0  0
   38.0340   26.9240   35.3480 S   0  0  0  0  0  0  0  0  0  0  0  0
   37.1430   26.8710   33.7980 C   0  0  0  0  0  0  0  0  0  0  0  0
   36.5290   28.0250   33.3660 C   0  0  0  0  0  3  0  0  0  0  0  0
   35.8260   28.0480   32.1780 C   0  0  0  0  0  0  0  0  0  0  0  0
   35.3470   28.9630   31.8500 H   0  0  0  0  0  0  0  0  0  0  0  0
   35.7330   26.9410   31.4300 N   0  0  0  0  0  0  0  0  0  0  0  0
   36.3430   25.7950   31.8590 C   0  0  0  0  0  3  0  0  0  0  0  0
   37.0380   25.7510   33.0240 N   0  0  0  0  0  0  0  0  0  0  0  0
  1  6  1  0  0  0  0
  2  3  1  0  0  0  0
  2  1  2  0  0  0  0
  3  4  2  0  0  0  0
  4  5  1  0  0  0  0
  5  9  1  0  0  0  0
  6  5  2  0  0  0  0
  7  2  1  0  0  0  0
  8  3  1  0  0  0  0
 10  1  1  0  0  0  0
 11 10  1  0  0  0  0
 12 11  1  0  0  0  0
 13 12  2  0  0  0  0
 14 13  1  0  0  0  0
 15 16  2  0  0  0  0
 15 13  1  0  0  0  0
 16 17  1  0  0  0  0
 17 11  2  0  0  0  0
M  END
>  <minimizedAffinity>
-3.61814046

$$$$
