
 OpenBabel03272507283D

 39 41  0  0  1  0  0  0  0  0999 V2000
   38.0970   30.6260   48.5340 C   0  0  0  0  0  0  0  0  0  0  0  0
   38.0450   30.9810   47.1700 C   0  0  0  0  0  0  0  0  0  0  0  0
   36.8430   30.7420   46.5020 C   0  0  0  0  0  0  0  0  0  0  0  0
   35.8150   30.1980   47.1750 N   0  0  0  0  0  0  0  0  0  0  0  0
   35.9020   29.8710   48.4780 C   0  0  0  0  0  0  0  0  0  0  0  0
   37.0310   30.0840   49.1470 N   0  0  0  0  0  0  0  0  0  0  0  0
   36.7100   31.0610   45.1530 N   0  0  0  0  0  0  0  0  0  0  0  0
   37.3890   32.1870   44.4550 C   0  0  0  0  0  0  0  0  0  0  0  0
   36.7760   32.3270   43.1190 C   0  0  0  0  0  0  0  0  0  0  0  0
   35.5200   31.5950   43.2320 C   0  0  0  0  0  0  0  0  0  0  0  0
   35.9280   30.4750   44.1130 C   0  0  2  0  0  0  0  0  0  0  0  0
   39.0830   30.8560   48.9550 H   0  0  0  0  0  0  0  0  0  0  0  0
   38.8350   31.4130   46.6010 H   0  0  0  0  0  0  0  0  0  0  0  0
   35.1230   29.4350   49.0770 H   0  0  0  0  0  0  0  0  0  0  0  0
   38.4370   32.2770   44.5950 H   0  0  0  0  0  0  0  0  0  0  0  0
   36.9900   33.0560   45.1240 H   0  0  0  0  0  0  0  0  0  0  0  0
   36.3850   33.4470   43.1290 H   0  0  0  0  0  0  0  0  0  0  0  0
   37.3490   32.3880   42.2300 H   0  0  0  0  0  0  0  0  0  0  0  0
   34.6950   32.1670   43.7040 H   0  0  0  0  0  0  0  0  0  0  0  0
   35.1180   31.1730   42.2870 H   0  0  0  0  0  0  0  0  0  0  0  0
   34.6880   29.7200   44.6010 C   0  0  0  0  0  0  0  0  0  0  0  0
   34.1020   30.4570   45.6070 F   0  0  0  0  0  0  0  0  0  0  0  0
   34.9230   28.4790   45.1150 F   0  0  0  0  0  0  0  0  0  0  0  0
   33.7980   29.7060   43.5500 F   0  0  0  0  0  0  0  0  0  0  0  0
   36.7450   29.5060   43.4440 C   0  0  2  0  0  0  0  0  0  0  0  0
   37.0360   28.7010   44.0820 H   0  0  0  0  0  0  0  0  0  0  0  0
   38.2210   29.9110   43.0340 C   0  0  0  0  0  0  0  0  0  0  0  0
   39.3130   29.8410   43.8880 C   0  0  0  0  0  3  0  0  0  0  0  0
   40.5350   30.2860   43.4500 C   0  0  0  0  0  0  0  0  0  0  0  0
   41.3120   30.1840   44.1970 H   0  0  0  0  0  0  0  0  0  0  0  0
   40.6940   30.7850   42.2200 N   0  0  0  0  0  0  0  0  0  0  0  0
   39.6620   30.8650   41.3720 C   0  0  0  0  0  3  0  0  0  0  0  0
   38.4990   30.4310   41.8200 N   0  0  0  0  0  0  0  0  0  0  0  0
   36.2530   29.2950   42.3060 O   0  0  0  0  0  0  0  0  0  0  0  0
   35.9310   28.2710   41.5010 C   0  0  0  0  0  0  0  0  0  0  0  0
   34.9400   28.5160   40.8120 O   0  0  0  0  0  0  0  0  0  0  0  0
   36.2140   26.9590   41.0340 N   0  0  0  0  0  0  0  0  0  0  0  0
   35.9530   26.0520   41.4890 H   0  0  0  0  0  0  0  0  0  0  0  0
   36.7440   26.7670   40.1320 H   0  0  0  0  0  0  0  0  0  0  0  0
  1 12  1  0  0  0  0
  1  6  1  0  0  0  0
  2  1  2  0  0  0  0
  3  2  1  0  0  0  0
  3  4  2  0  0  0  0
  4  5  1  0  0  0  0
  5 14  1  0  0  0  0
  5  6  2  0  0  0  0
  7  3  1  0  0  0  0
  8 15  1  0  0  0  0
  8 16  1  0  0  0  0
  8  7  1  0  0  0  0
  9 17  1  0  0  0  0
  9 10  1  0  0  0  0
  9  8  1  0  0  0  0
 10 19  1  0  0  0  0
 10 11  1  0  0  0  0
 11 21  1  1  0  0  0
 11  7  1  0  0  0  0
 13  2  1  0  0  0  0
 18  9  1  0  0  0  0
 20 10  1  0  0  0  0
 21 23  1  0  0  0  0
 21 22  1  0  0  0  0
 24 21  1  0  0  0  0
 25 26  1  1  0  0  0
 25 11  1  0  0  0  0
 27 25  1  0  0  0  0
 27 28  1  0  0  0  0
 29 28  2  0  0  0  0
 29 30  1  0  0  0  0
 31 29  1  0  0  0  0
 32 33  1  0  0  0  0
 32 31  2  0  0  0  0
 33 27  2  0  0  0  0
 34 25  1  0  0  0  0
 35 34  1  0  0  0  0
 36 35  2  0  0  0  0
 37 38  1  0  0  0  0
 37 35  1  0  0  0  0
 39 37  1  0  0  0  0
M  END
>  <minimizedAffinity>
-3.89811015

>  <minimizedRMSD>
3.89944673

$$$$
