
 OpenBabel03272509463D

 23 24  0  0  0  0  0  0  0  0999 V2000
   34.2000   28.3970   48.4580 C   0  0  0  0  0  0  0  0  0  0  0  0
   34.8510   28.9530   47.7730 H   0  0  0  0  0  0  0  0  0  0  0  0
   33.2610   28.9790   48.5740 H   0  0  0  0  0  0  0  0  0  0  0  0
   33.8360   27.0260   47.9650 C   0  0  0  0  0  0  0  0  0  0  0  0
   33.1550   26.5490   48.6680 H   0  0  0  0  0  0  0  0  0  0  0  0
   34.7680   26.4060   47.8580 H   0  0  0  0  0  0  0  0  0  0  0  0
   33.2400   27.0510   46.6030 C   0  0  0  0  0  0  0  0  0  0  0  0
   31.9970   26.4680   46.4560 C   0  0  0  0  0  3  0  0  0  0  0  0
   31.3480   26.4330   45.2410 C   0  0  0  0  0  0  0  0  0  0  0  0
   30.3730   25.9920   45.0550 H   0  0  0  0  0  0  0  0  0  0  0  0
   31.9350   26.9770   44.1720 N   0  0  0  0  0  0  0  0  0  0  0  0
   33.1550   27.5490   44.3220 C   0  0  0  0  0  3  0  0  0  0  0  0
   33.8050   27.5940   45.4970 N   0  0  0  0  0  0  0  0  0  0  0  0
   34.7430   28.3150   49.7700 O   0  0  0  0  0  0  0  0  0  0  0  0
   37.3440   30.2290   51.4230 C   0  0  0  0  0  0  0  0  0  0  0  0
   38.0650   30.6680   50.2950 C   0  0  0  0  0  0  0  0  0  0  0  0
   37.6150   30.2810   49.0390 C   0  0  0  0  0  0  0  0  0  0  0  0
   36.4950   29.4950   48.9840 N   0  0  0  0  0  0  0  0  0  0  0  0
   35.8300   29.0930   50.0740 C   0  0  0  0  0  0  0  0  0  0  0  0
   36.2600   29.4650   51.3020 N   0  0  0  0  0  0  0  0  0  0  0  0
   37.6390   30.4940   52.4350 H   0  0  0  0  0  0  0  0  0  0  0  0
   38.9420   31.2900   50.4330 H   0  0  0  0  0  0  0  0  0  0  0  0
   38.1420   30.5980   48.1460 H   0  0  0  0  0  0  0  0  0  0  0  0
  1  3  1  0  0  0  0
  1 14  1  0  0  0  0
  2  1  1  0  0  0  0
  4  1  1  0  0  0  0
  4  5  1  0  0  0  0
  6  4  1  0  0  0  0
  7  4  1  0  0  0  0
  8  7  1  0  0  0  0
  9  8  2  0  0  0  0
 10  9  1  0  0  0  0
 11 12  2  0  0  0  0
 11  9  1  0  0  0  0
 12 13  1  0  0  0  0
 13  7  2  0  0  0  0
 14 19  1  0  0  0  0
 15 21  1  0  0  0  0
 16 22  1  0  0  0  0
 16 15  2  0  0  0  0
 17 16  1  0  0  0  0
 18 17  2  0  0  0  0
 18 19  1  0  0  0  0
 19 20  2  0  0  0  0
 20 15  1  0  0  0  0
 23 17  1  0  0  0  0
M  END
>  <minimizedAffinity>
-3.60272217

>  <minimizedRMSD>
0.141459987

$$$$
