
 OpenBabel03272510333D

 26 28  0  0  0  0  0  0  0  0999 V2000
   35.8150   30.0940   46.7020 C   0  0  0  0  0  0  0  0  0  0  0  0
   35.2530   30.1130   45.4530 C   0  0  0  0  0  0  0  0  0  0  0  0
   34.0620   29.4700   45.1800 C   0  0  0  0  0  0  0  0  0  0  0  0
   33.4410   28.7990   46.2010 C   0  0  0  0  0  0  0  0  0  0  0  0
   33.9760   28.7560   47.4780 C   0  0  0  0  0  0  0  0  0  0  0  0
   35.1760   29.4110   47.7270 C   0  0  0  0  0  0  0  0  0  0  0  0
   35.7210   30.6380   44.6140 H   0  0  0  0  0  0  0  0  0  0  0  0
   33.6360   29.4990   44.1810 H   0  0  0  0  0  0  0  0  0  0  0  0
   32.5090   28.3080   45.9460 H   0  0  0  0  0  0  0  0  0  0  0  0
   33.4480   28.2140   48.2480 H   0  0  0  0  0  0  0  0  0  0  0  0
   38.2090   32.4800   48.0350 C   0  0  0  0  0  0  0  0  0  0  0  0
   39.3920   32.2190   47.3430 C   0  0  0  0  0  0  0  0  0  0  0  0
   39.3460   31.1860   46.3920 C   0  0  0  0  0  0  0  0  0  0  0  0
   38.1840   30.5160   46.2020 N   0  0  0  0  0  0  0  0  0  0  0  0
   37.0730   30.8010   46.8890 C   0  0  0  0  0  0  0  0  0  0  0  0
   37.0890   31.7940   47.8140 N   0  0  0  0  0  0  0  0  0  0  0  0
   38.2940   33.2970   48.7680 H   0  0  0  0  0  0  0  0  0  0  0  0
   40.3370   32.7120   47.4490 H   0  0  0  0  0  0  0  0  0  0  0  0
   40.1840   30.8480   45.7590 H   0  0  0  0  0  0  0  0  0  0  0  0
   35.7730   29.3910   49.0580 C   0  0  0  0  0  0  0  0  0  0  0  0
   34.9360   29.5180   50.1480 C   0  0  0  0  0  3  0  0  0  0  0  0
   35.4840   29.5000   51.3920 C   0  0  0  0  0  0  0  0  0  0  0  0
   34.9750   29.5880   52.3510 H   0  0  0  0  0  0  0  0  0  0  0  0
   36.8010   29.3620   51.5670 N   0  0  0  0  0  0  0  0  0  0  0  0
   37.6510   29.2340   50.5060 C   0  0  0  0  0  3  0  0  0  0  0  0
   37.0740   29.2570   49.3040 N   0  0  0  0  0  0  0  0  0  0  0  0
  1 15  1  0  0  0  0
  1  6  1  0  0  0  0
  2  1  2  0  0  0  0
  3  2  1  0  0  0  0
  3  4  2  0  0  0  0
  4  5  1  0  0  0  0
  5  6  2  0  0  0  0
  5 10  1  0  0  0  0
  6 20  1  0  0  0  0
  7  2  1  0  0  0  0
  8  3  1  0  0  0  0
  9  4  1  0  0  0  0
 11 17  1  0  0  0  0
 12 18  1  0  0  0  0
 12 11  2  0  0  0  0
 13 12  1  0  0  0  0
 14 13  2  0  0  0  0
 14 15  1  0  0  0  0
 15 16  2  0  0  0  0
 16 11  1  0  0  0  0
 19 13  1  0  0  0  0
 20 26  2  0  0  0  0
 20 21  1  0  0  0  0
 21 22  2  0  0  0  0
 22 24  1  0  0  0  0
 22 23  1  0  0  0  0
 25 24  2  0  0  0  0
 26 25  1  0  0  0  0
M  END
>  <minimizedAffinity>
-4.58614254

>  <minimizedRMSD>
2.15296268

$$$$
