
 OpenBabel03272510233D

 29 32  0  0  0  0  0  0  0  0999 V2000
   34.6310   28.9920   47.8380 C   0  0  0  0  0  0  0  0  0  0  0  0
   35.7340   29.8350   47.8930 C   0  0  0  0  0  0  0  0  0  0  0  0
   36.1550   30.5070   46.7680 C   0  0  0  0  0  0  0  0  0  0  0  0
   35.4320   30.3010   45.5930 C   0  0  0  0  0  0  0  0  0  0  0  0
   35.6560   30.8500   44.3690 N   0  0  0  0  0  0  0  0  0  0  0  0
   34.7120   30.3610   43.5570 C   0  0  0  0  0  0  0  0  0  0  0  0
   33.8990   29.5280   44.2110 N   0  0  0  0  0  0  0  0  0  0  0  0
   34.3170   29.4620   45.4960 C   0  0  0  0  0  0  0  0  0  0  0  0
   33.9250   28.8040   46.6480 C   0  0  0  0  0  0  0  0  0  0  0  0
   34.2580   28.4390   48.6940 H   0  0  0  0  0  0  0  0  0  0  0  0
   36.9970   31.1530   46.8020 H   0  0  0  0  0  0  0  0  0  0  0  0
   36.4080   31.5080   44.1360 H   0  0  0  0  0  0  0  0  0  0  0  0
   33.0650   28.1500   46.5910 H   0  0  0  0  0  0  0  0  0  0  0  0
   38.1520   30.6880   50.6410 C   0  0  0  0  0  0  0  0  0  0  0  0
   37.5970   30.6280   49.3570 C   0  0  0  0  0  0  0  0  0  0  0  0
   36.3990   29.9590   49.1820 C   0  0  0  0  0  0  0  0  0  0  0  0
   35.8070   29.3860   50.2650 N   0  0  0  0  0  0  0  0  0  0  0  0
   36.3570   29.4530   51.5010 C   0  0  0  0  0  0  0  0  0  0  0  0
   37.5130   30.0950   51.6900 N   0  0  0  0  0  0  0  0  0  0  0  0
   39.0750   31.1960   50.8100 H   0  0  0  0  0  0  0  0  0  0  0  0
   38.0790   31.0860   48.5140 H   0  0  0  0  0  0  0  0  0  0  0  0
   35.8270   28.9720   52.3180 H   0  0  0  0  0  0  0  0  0  0  0  0
   34.5840   30.6940   42.1410 C   0  0  0  0  0  0  0  0  0  0  0  0
   35.0300   29.8410   41.1520 C   0  0  0  0  0  3  0  0  0  0  0  0
   34.9140   30.1450   39.8130 C   0  0  0  0  0  0  0  0  0  0  0  0
   35.2610   29.4820   39.0470 H   0  0  0  0  0  0  0  0  0  0  0  0
   34.3520   31.3060   39.4090 N   0  0  0  0  0  0  0  0  0  0  0  0
   33.9200   32.1310   40.3890 C   0  0  0  0  0  3  0  0  0  0  0  0
   34.0280   31.8430   41.7190 N   0  0  0  0  0  0  0  0  0  0  0  0
  1  2  1  0  0  0  0
  1 10  1  0  0  0  0
  2 16  1  0  0  0  0
  3 11  1  0  0  0  0
  3  2  2  0  0  0  0
  4  3  1  0  0  0  0
  5  4  1  0  0  0  0
  6  7  2  0  0  0  0
  6  5  1  0  0  0  0
  7  8  1  0  0  0  0
  8  4  2  0  0  0  0
  8  9  1  0  0  0  0
  9  1  2  0  0  0  0
 12  5  1  0  0  0  0
 13  9  1  0  0  0  0
 14 20  1  0  0  0  0
 14 19  1  0  0  0  0
 15 14  2  0  0  0  0
 16 15  1  0  0  0  0
 16 17  2  0  0  0  0
 17 18  1  0  0  0  0
 18 19  2  0  0  0  0
 18 22  1  0  0  0  0
 21 15  1  0  0  0  0
 23  6  1  0  0  0  0
 24 23  2  0  0  0  0
 25 24  1  0  0  0  0
 26 25  1  0  0  0  0
 27 25  2  0  0  0  0
 27 28  1  0  0  0  0
 28 29  2  0  0  0  0
 29 23  1  0  0  0  0
M  END
>  <minimizedAffinity>
-4.35893726

>  <minimizedRMSD>
5.73963547

$$$$
