
 OpenBabel03272510263D

 43 47  0  0  1  0  0  0  0  0999 V2000
   36.1390   30.2190   46.8490 C   0  0  0  0  0  0  0  0  0  0  0  0
   37.0440   30.7680   47.7590 C   0  0  0  0  0  0  0  0  0  0  0  0
   38.0490   31.6320   47.3410 C   0  0  0  0  0  0  0  0  0  0  0  0
   38.0980   31.9130   45.9800 C   0  0  0  0  0  0  0  0  0  0  0  0
   38.9870   32.7210   45.3330 N   0  0  0  0  0  0  0  0  0  0  0  0
   38.6560   32.6900   44.0340 C   0  0  0  0  0  0  0  0  0  0  0  0
   37.6150   31.9070   43.8540 N   0  0  0  0  0  0  0  0  0  0  0  0
   37.2280   31.3970   45.0490 C   0  0  0  0  0  0  0  0  0  0  0  0
   36.2250   30.5280   45.4960 C   0  0  0  0  0  0  0  0  0  0  0  0
   35.3520   29.5490   47.1430 H   0  0  0  0  0  0  0  0  0  0  0  0
   38.7420   32.0490   48.0550 H   0  0  0  0  0  0  0  0  0  0  0  0
   39.7750   33.2570   45.7930 H   0  0  0  0  0  0  0  0  0  0  0  0
   35.5520   30.1350   44.7440 H   0  0  0  0  0  0  0  0  0  0  0  0
   37.5650   30.2220   51.4340 C   0  0  0  0  0  0  0  0  0  0  0  0
   37.8130   30.6420   50.1410 C   0  0  0  0  0  0  0  0  0  0  0  0
   36.8800   30.3770   49.1450 C   0  0  0  0  0  0  0  0  0  0  0  0
   35.7440   29.7020   49.4970 N   0  0  0  0  0  0  0  0  0  0  0  0
   35.5160   29.2960   50.7710 C   0  0  0  0  0  0  0  0  0  0  0  0
   36.4040   29.5500   51.7080 N   0  0  0  0  0  0  0  0  0  0  0  0
   38.2710   30.4180   52.2050 H   0  0  0  0  0  0  0  0  0  0  0  0
   38.7130   31.1770   49.8650 H   0  0  0  0  0  0  0  0  0  0  0  0
   34.5780   28.7570   50.9750 H   0  0  0  0  0  0  0  0  0  0  0  0
   39.3720   33.4190   43.0700 O   0  0  0  0  0  0  0  0  0  0  0  0
   38.9710   31.5610   41.8060 N   0  0  0  0  0  0  0  0  0  0  0  0
   39.1730   33.0200   41.7210 C   0  0  1  0  0  0  0  0  0  0  0  0
   37.9860   33.6260   41.1320 C   0  0  0  0  0  0  0  0  0  0  0  0
   37.8600   33.1740   39.8060 O   0  0  0  0  0  0  0  0  0  0  0  0
   37.8310   31.8150   39.6580 C   0  0  0  0  0  0  0  0  0  0  0  0
   38.8960   31.1040   40.4330 C   0  0  1  0  0  0  0  0  0  0  0  0
   39.8530   31.1900   42.2270 H   0  0  0  0  0  0  0  0  0  0  0  0
   40.0500   33.2610   41.1090 H   0  0  0  0  0  0  0  0  0  0  0  0
   37.0050   33.5510   41.5150 H   0  0  0  0  0  0  0  0  0  0  0  0
   38.1990   34.7310   41.0030 H   0  0  0  0  0  0  0  0  0  0  0  0
   36.8440   31.4680   40.0550 H   0  0  0  0  0  0  0  0  0  0  0  0
   37.9450   31.5950   38.5860 H   0  0  0  0  0  0  0  0  0  0  0  0
   38.5400   30.0340   40.5150 H   0  0  0  0  0  0  0  0  0  0  0  0
   40.2070   31.0320   39.7850 C   0  0  0  0  0  0  0  0  0  0  0  0
   41.3880   30.4780   40.1870 C   0  0  0  0  0  3  0  0  0  0  0  0
   42.5180   30.5310   39.3990 C   0  0  0  0  0  0  0  0  0  0  0  0
   43.3960   30.0520   39.8310 H   0  0  0  0  0  0  0  0  0  0  0  0
   42.5070   31.1410   38.1810 N   0  0  0  0  0  0  0  0  0  0  0  0
   41.3290   31.6800   37.8100 C   0  0  0  0  0  3  0  0  0  0  0  0
   40.1910   31.6460   38.5640 N   0  0  0  0  0  0  0  0  0  0  0  0
  1 10  1  0  0  0  0
  1  2  1  0  0  0  0
  2 16  1  0  0  0  0
  3  2  2  0  0  0  0
  3 11  1  0  0  0  0
  4  3  1  0  0  0  0
  5 12  1  0  0  0  0
  5  4  1  0  0  0  0
  6  5  1  0  0  0  0
  7  6  2  0  0  0  0
  7  8  1  0  0  0  0
  8  9  1  0  0  0  0
  8  4  2  0  0  0  0
  9  1  2  0  0  0  0
 13  9  1  0  0  0  0
 14 19  1  0  0  0  0
 14 20  1  0  0  0  0
 15 14  2  0  0  0  0
 16 17  2  0  0  0  0
 16 15  1  0  0  0  0
 17 18  1  0  0  0  0
 18 22  1  0  0  0  0
 18 19  2  0  0  0  0
 21 15  1  0  0  0  0
 23  6  1  0  0  0  0
 24 30  1  0  0  0  0
 25 31  1  6  0  0  0
 25 24  1  0  0  0  0
 25 23  1  0  0  0  0
 26 32  1  0  0  0  0
 26 25  1  0  0  0  0
 27 26  1  0  0  0  0
 28 27  1  0  0  0  0
 28 34  1  0  0  0  0
 28 29  1  0  0  0  0
 29 36  1  1  0  0  0
 29 24  1  0  0  0  0
 33 26  1  0  0  0  0
 35 28  1  0  0  0  0
 37 38  1  0  0  0  0
 37 29  1  0  0  0  0
 39 40  1  0  0  0  0
 39 38  2  0  0  0  0
 41 39  1  0  0  0  0
 42 41  2  0  0  0  0
 42 43  1  0  0  0  0
 43 37  2  0  0  0  0
M  END
>  <minimizedAffinity>
-5.92759991

>  <minimizedRMSD>
0.847624004

$$$$
