
 OpenBabel03272510343D

 26 28  0  0  0  0  0  0  0  0999 V2000
   35.8880   30.1070   46.7810 C   0  0  0  0  0  0  0  0  0  0  0  0
   35.3710   30.1180   45.5140 C   0  0  0  0  0  0  0  0  0  0  0  0
   34.2300   29.4130   45.1860 C   0  0  0  0  0  0  0  0  0  0  0  0
   33.6130   28.6870   46.1710 C   0  0  0  0  0  0  0  0  0  0  0  0
   34.1040   28.6500   47.4670 C   0  0  0  0  0  0  0  0  0  0  0  0
   35.2540   29.3680   47.7710 C   0  0  0  0  0  0  0  0  0  0  0  0
   35.8360   30.6860   44.7020 H   0  0  0  0  0  0  0  0  0  0  0  0
   33.8380   29.4370   44.1730 H   0  0  0  0  0  0  0  0  0  0  0  0
   32.7220   28.1480   45.8740 H   0  0  0  0  0  0  0  0  0  0  0  0
   33.5820   28.0630   48.2070 H   0  0  0  0  0  0  0  0  0  0  0  0
   38.1040   32.5680   48.2770 C   0  0  0  0  0  0  0  0  0  0  0  0
   39.3110   32.4190   47.5940 C   0  0  0  0  0  0  0  0  0  0  0  0
   39.3460   31.4360   46.5900 C   0  0  0  0  0  0  0  0  0  0  0  0
   38.2320   30.7050   46.3450 N   0  0  0  0  0  0  0  0  0  0  0  0
   37.0950   30.8810   47.0270 C   0  0  0  0  0  0  0  0  0  0  0  0
   37.0340   31.8240   48.0020 N   0  0  0  0  0  0  0  0  0  0  0  0
   38.1250   33.3480   49.0530 H   0  0  0  0  0  0  0  0  0  0  0  0
   40.2210   32.9650   47.7420 H   0  0  0  0  0  0  0  0  0  0  0  0
   40.2120   31.1870   45.9560 H   0  0  0  0  0  0  0  0  0  0  0  0
   35.8050   29.3560   49.1220 C   0  0  0  0  0  0  0  0  0  0  0  0
   34.9320   29.5100   50.1800 C   0  0  0  0  0  3  0  0  0  0  0  0
   35.4360   29.4990   51.4430 C   0  0  0  0  0  0  0  0  0  0  0  0
   34.8950   29.6060   52.3820 H   0  0  0  0  0  0  0  0  0  0  0  0
   36.7440   29.3430   51.6650 N   0  0  0  0  0  0  0  0  0  0  0  0
   37.6290   29.1890   50.6370 C   0  0  0  0  0  3  0  0  0  0  0  0
   37.0940   29.2060   49.4140 N   0  0  0  0  0  0  0  0  0  0  0  0
  1 15  1  0  0  0  0
  1  6  1  0  0  0  0
  2  1  2  0  0  0  0
  3  2  1  0  0  0  0
  3  4  2  0  0  0  0
  4  5  1  0  0  0  0
  5  6  2  0  0  0  0
  5 10  1  0  0  0  0
  6 20  1  0  0  0  0
  7  2  1  0  0  0  0
  8  3  1  0  0  0  0
  9  4  1  0  0  0  0
 11 17  1  0  0  0  0
 12 18  1  0  0  0  0
 12 11  2  0  0  0  0
 13 12  1  0  0  0  0
 14 13  2  0  0  0  0
 14 15  1  0  0  0  0
 15 16  2  0  0  0  0
 16 11  1  0  0  0  0
 19 13  1  0  0  0  0
 20 26  2  0  0  0  0
 20 21  1  0  0  0  0
 21 22  2  0  0  0  0
 22 24  1  0  0  0  0
 22 23  1  0  0  0  0
 25 24  2  0  0  0  0
 26 25  1  0  0  0  0
M  END
>  <minimizedAffinity>
-4.52127361

>  <minimizedRMSD>
2.13317204

$$$$
