
 OpenBabel03272510333D

 26 28  0  0  0  0  0  0  0  0999 V2000
   35.9730   30.1390   47.7380 C   0  0  0  0  0  0  0  0  0  0  0  0
   35.2990   30.0910   46.5470 C   0  0  0  0  0  0  0  0  0  0  0  0
   34.2560   29.2130   46.3330 C   0  0  0  0  0  0  0  0  0  0  0  0
   33.9000   28.3710   47.3550 C   0  0  0  0  0  0  0  0  0  0  0  0
   34.5570   28.3870   48.5760 C   0  0  0  0  0  0  0  0  0  0  0  0
   35.6030   29.2810   48.7650 C   0  0  0  0  0  0  0  0  0  0  0  0
   35.5550   30.7480   45.7090 H   0  0  0  0  0  0  0  0  0  0  0  0
   33.7360   29.1930   45.3800 H   0  0  0  0  0  0  0  0  0  0  0  0
   33.0780   27.6970   47.1490 H   0  0  0  0  0  0  0  0  0  0  0  0
   34.2390   27.7040   49.3490 H   0  0  0  0  0  0  0  0  0  0  0  0
   37.9450   32.8860   49.0660 C   0  0  0  0  0  0  0  0  0  0  0  0
   39.0490   32.9710   48.2180 C   0  0  0  0  0  0  0  0  0  0  0  0
   39.1000   32.0470   47.1610 C   0  0  0  0  0  0  0  0  0  0  0  0
   38.0990   31.1450   47.0250 N   0  0  0  0  0  0  0  0  0  0  0  0
   37.0580   31.0990   47.8640 C   0  0  0  0  0  0  0  0  0  0  0  0
   36.9840   31.9800   48.8940 N   0  0  0  0  0  0  0  0  0  0  0  0
   37.9490   33.6290   49.8780 H   0  0  0  0  0  0  0  0  0  0  0  0
   39.8680   33.6600   48.2740 H   0  0  0  0  0  0  0  0  0  0  0  0
   39.8960   31.9730   46.4010 H   0  0  0  0  0  0  0  0  0  0  0  0
   36.3210   29.3300   50.0340 C   0  0  0  0  0  0  0  0  0  0  0  0
   37.5950   28.8000   50.0820 C   0  0  0  0  0  3  0  0  0  0  0  0
   38.2710   28.8420   51.2610 C   0  0  0  0  0  0  0  0  0  0  0  0
   39.2740   28.4730   51.4720 H   0  0  0  0  0  0  0  0  0  0  0  0
   37.7240   29.3810   52.3530 N   0  0  0  0  0  0  0  0  0  0  0  0
   36.4660   29.9110   52.3340 C   0  0  0  0  0  3  0  0  0  0  0  0
   35.8380   29.8510   51.1590 N   0  0  0  0  0  0  0  0  0  0  0  0
  1 15  1  0  0  0  0
  1  6  1  0  0  0  0
  2  1  2  0  0  0  0
  3  2  1  0  0  0  0
  3  4  2  0  0  0  0
  4  5  1  0  0  0  0
  5  6  2  0  0  0  0
  5 10  1  0  0  0  0
  6 20  1  0  0  0  0
  7  2  1  0  0  0  0
  8  3  1  0  0  0  0
  9  4  1  0  0  0  0
 11 17  1  0  0  0  0
 12 18  1  0  0  0  0
 12 11  2  0  0  0  0
 13 12  1  0  0  0  0
 14 13  2  0  0  0  0
 14 15  1  0  0  0  0
 15 16  2  0  0  0  0
 16 11  1  0  0  0  0
 19 13  1  0  0  0  0
 20 21  2  0  0  0  0
 20 26  1  0  0  0  0
 21 22  1  0  0  0  0
 22 23  1  0  0  0  0
 22 24  2  0  0  0  0
 25 24  1  0  0  0  0
 26 25  2  0  0  0  0
M  END
>  <minimizedAffinity>
-3.36843371

>  <minimizedRMSD>
1.20981729

$$$$
