
 OpenBabel03272500263D

 32 34  0  0  0  0  0  0  0  0999 V2000
   39.7390   31.9900   46.8300 C   0  0  0  0  0  0  0  0  0  0  0  0
   40.6500   32.5450   47.2010 H   0  0  0  0  0  0  0  0  0  0  0  0
   39.9380   30.9400   47.1970 H   0  0  0  0  0  0  0  0  0  0  0  0
   39.7700   32.0150   45.4030 C   0  0  0  0  0  0  0  0  0  0  0  0
   39.6030   33.1910   44.7400 C   0  0  0  0  0  0  0  0  0  0  0  0
   39.6240   33.2690   43.3340 C   0  0  0  0  0  0  0  0  0  0  0  0
   39.8270   32.0630   42.6990 N   0  0  0  0  0  0  0  0  0  0  0  0
   39.9890   30.9170   43.3810 C   0  0  0  0  0  0  0  0  0  0  0  0
   39.9600   30.8920   44.7240 N   0  0  0  0  0  0  0  0  0  0  0  0
   39.4400   34.1700   45.1860 H   0  0  0  0  0  0  0  0  0  0  0  0
   39.4940   34.1930   42.7860 H   0  0  0  0  0  0  0  0  0  0  0  0
   40.1970   29.7010   42.6010 C   0  0  0  0  0  0  0  0  0  0  0  0
   39.5140   28.5330   42.8230 C   0  0  0  0  0  0  0  0  0  0  0  0
   39.7760   27.4380   42.0380 C   0  0  0  0  0  0  0  0  0  0  0  0
   39.1970   26.5370   42.2650 H   0  0  0  0  0  0  0  0  0  0  0  0
   40.6750   27.4470   41.0550 N   0  0  0  0  0  0  0  0  0  0  0  0
   41.3460   28.6170   40.8480 C   0  0  0  0  0  0  0  0  0  0  0  0
   41.1100   29.7250   41.6100 N   0  0  0  0  0  0  0  0  0  0  0  0
   38.5650   32.4660   47.5670 C   0  0  0  0  0  0  0  0  0  0  0  0
   37.7900   32.9490   46.9160 H   0  0  0  0  0  0  0  0  0  0  0  0
   38.8270   33.2940   48.2910 H   0  0  0  0  0  0  0  0  0  0  0  0
   37.8800   31.4470   48.3820 C   0  0  0  0  0  0  0  0  0  0  0  0
   36.9280   30.6080   47.8250 C   0  0  0  0  0  0  0  0  0  0  0  0
   36.4570   29.7660   48.7980 C   0  0  0  0  0  0  0  0  0  0  0  0
   37.1040   30.0850   49.9160 N   0  0  0  0  0  0  0  0  0  0  0  0
   37.9350   31.0750   49.6500 N   0  0  0  0  0  0  0  0  0  0  0  0
   36.5410   30.5360   46.8100 H   0  0  0  0  0  0  0  0  0  0  0  0
   35.7150   28.9680   48.7850 H   0  0  0  0  0  0  0  0  0  0  0  0
   36.9690   29.4860   51.2420 C   0  0  0  0  0  0  0  0  0  0  0  0
   37.7860   28.3690   51.3540 F   0  0  0  0  0  0  0  0  0  0  0  0
   35.6800   29.0960   51.5050 F   0  0  0  0  0  0  0  0  0  0  0  0
   37.3720   30.3590   52.2310 F   0  0  0  0  0  0  0  0  0  0  0  0
  1  3  1  0  0  0  0
  1  2  1  0  0  0  0
  1 19  1  0  0  0  0
  4  1  1  0  0  0  0
  5 10  1  0  0  0  0
  5  4  1  0  0  0  0
  6  5  2  0  0  0  0
  7  6  1  0  0  0  0
  7  8  2  0  0  0  0
  8  9  1  0  0  0  0
  9  4  2  0  0  0  0
 11  6  1  0  0  0  0
 12 13  1  0  0  0  0
 12  8  1  0  0  0  0
 14 15  1  0  0  0  0
 14 13  2  0  0  0  0
 16 14  1  0  0  0  0
 17 16  2  0  0  0  0
 17 18  1  0  0  0  0
 18 12  2  0  0  0  0
 19 21  1  0  0  0  0
 19 22  1  0  0  0  0
 20 19  1  0  0  0  0
 22 26  2  0  0  0  0
 23 22  1  0  0  0  0
 23 24  2  0  0  0  0
 24 25  1  0  0  0  0
 25 29  1  0  0  0  0
 26 25  1  0  0  0  0
 27 23  1  0  0  0  0
 28 24  1  0  0  0  0
 29 30  1  0  0  0  0
 29 31  1  0  0  0  0
 29 32  1  0  0  0  0
M  END
>  <minimizedAffinity>
-6.11914301

>  <minimizedRMSD>
0.949683428

$$$$
