
 OpenBabel03272504413D

 43 45  0  0  0  0  0  0  0  0999 V2000
   34.6280   29.3130   48.8660 C   0  0  0  0  0  0  0  0  0  0  0  0
   35.5070   29.3270   49.5490 H   0  0  0  0  0  0  0  0  0  0  0  0
   33.9760   30.1390   49.2820 H   0  0  0  0  0  0  0  0  0  0  0  0
   37.3900   30.4050   48.6840 Cl  0  0  0  0  0  0  0  0  0  0  0  0
   36.3000   30.2490   47.3080 C   0  0  0  0  0  0  0  0  0  0  0  0
   36.7210   30.6440   46.0860 C   0  0  0  0  0  0  0  0  0  0  0  0
   35.8810   30.5280   44.9990 C   0  0  0  0  0  0  0  0  0  0  0  0
   34.6060   30.0040   45.1890 C   0  0  0  0  0  0  0  0  0  0  0  0
   34.2420   29.6150   46.4930 C   0  0  0  0  0  0  0  0  0  0  0  0
   35.0510   29.7230   47.5600 C   0  0  0  0  0  0  0  0  0  0  0  0
   36.2470   30.8560   44.0200 H   0  0  0  0  0  0  0  0  0  0  0  0
   34.0340   29.9560   44.2870 H   0  0  0  0  0  0  0  0  0  0  0  0
   33.2790   29.2630   46.4260 H   0  0  0  0  0  0  0  0  0  0  0  0
   39.7050   32.7950   46.3270 C   0  0  0  0  0  0  0  0  0  0  0  0
   40.5920   32.1150   45.4190 C   0  0  0  0  0  0  0  0  0  0  0  0
   40.1270   30.9660   44.7770 C   0  0  0  0  0  0  0  0  0  0  0  0
   38.8630   30.5360   45.0330 N   0  0  0  0  0  0  0  0  0  0  0  0
   38.0530   31.1940   45.8910 C   0  0  0  0  0  0  0  0  0  0  0  0
   38.4750   32.3030   46.5210 N   0  0  0  0  0  0  0  0  0  0  0  0
   40.0180   33.6760   46.8370 H   0  0  0  0  0  0  0  0  0  0  0  0
   41.5770   32.5370   45.2840 H   0  0  0  0  0  0  0  0  0  0  0  0
   41.0210   30.3360   43.9030 N   0  0  0  0  0  0  0  0  0  0  0  0
   41.9680   29.9660   44.0810 H   0  0  0  0  0  0  0  0  0  0  0  0
   40.8040   30.1610   42.8970 H   0  0  0  0  0  0  0  0  0  0  0  0
   33.9420   28.0300   49.0480 C   0  0  0  0  0  0  0  0  0  0  0  0
   34.3810   27.3970   49.8500 H   0  0  0  0  0  0  0  0  0  0  0  0
   34.0620   27.4150   48.1090 H   0  0  0  0  0  0  0  0  0  0  0  0
   32.6100   28.2070   49.3210 O   0  0  0  0  0  0  0  0  0  0  0  0
   32.4860   26.3830   47.4370 O   0  0  0  0  0  0  0  0  0  0  0  0
   31.6710   27.3750   48.2280 P   0  0  2  0  0  0  0  0  0  0  0  0
   31.0140   28.5590   47.1470 O   0  0  0  0  0  0  0  0  0  0  0  0
   29.8940   28.3050   46.3760 C   0  0  0  0  0  0  0  0  0  0  0  0
   28.7120   29.0280   46.3150 C   0  0  0  0  0  0  0  0  0  0  0  0
   27.6900   28.6300   45.4840 C   0  0  0  0  0  0  0  0  0  0  0  0
   26.7800   29.2180   45.4610 H   0  0  0  0  0  0  0  0  0  0  0  0
   27.8620   27.5150   44.7260 N   0  0  0  0  0  0  0  0  0  0  0  0
   29.0120   26.8180   44.7890 C   0  0  0  0  0  0  0  0  0  0  0  0
   30.0380   27.1930   45.6050 N   0  0  0  0  0  0  0  0  0  0  0  0
   30.3700   26.6170   48.9120 O   0  0  0  0  0  0  0  0  0  0  0  0
   29.7760   27.4150   49.8610 C   0  0  0  0  0  0  0  0  0  0  0  0
   29.3750   26.6940   50.9840 F   0  0  0  0  0  0  0  0  0  0  0  0
   30.6480   28.3870   50.3290 F   0  0  0  0  0  0  0  0  0  0  0  0
   28.6560   28.0400   49.3240 F   0  0  0  0  0  0  0  0  0  0  0  0
  1 25  1  0  0  0  0
  1  3  1  0  0  0  0
  1  2  1  0  0  0  0
  5 10  1  0  0  0  0
  5  4  1  0  0  0  0
  6  5  2  0  0  0  0
  7  8  2  0  0  0  0
  7  6  1  0  0  0  0
  8  9  1  0  0  0  0
  9 10  2  0  0  0  0
 10  1  1  0  0  0  0
 11  7  1  0  0  0  0
 12  8  1  0  0  0  0
 13  9  1  0  0  0  0
 14 19  1  0  0  0  0
 14 20  1  0  0  0  0
 15 14  2  0  0  0  0
 16 17  2  0  0  0  0
 16 15  1  0  0  0  0
 17 18  1  0  0  0  0
 18  6  1  0  0  0  0
 18 19  2  0  0  0  0
 21 15  1  0  0  0  0
 22 23  1  0  0  0  0
 22 16  1  0  0  0  0
 24 22  1  0  0  0  0
 25 28  1  0  0  0  0
 25 26  1  0  0  0  0
 27 25  1  0  0  0  0
 30 29  2  6  0  0  0
 30 39  1  0  0  0  0
 30 28  1  0  0  0  0
 31 30  1  0  0  0  0
 32 31  1  0  0  0  0
 33 32  1  0  0  0  0
 34 33  2  0  0  0  0
 35 34  1  0  0  0  0
 36 37  2  0  0  0  0
 36 34  1  0  0  0  0
 37 38  1  0  0  0  0
 38 32  2  0  0  0  0
 39 40  1  0  0  0  0
 40 42  1  0  0  0  0
 40 41  1  0  0  0  0
 43 40  1  0  0  0  0
M  END
>  <minimizedAffinity>
-5.85693645

>  <minimizedRMSD>
0.556932449

$$$$
