
 OpenBabel03272506103D

 42 45  0  0  0  0  0  0  0  0999 V2000
   36.7570   26.3120   32.5160 C   0  0  0  0  0  0  0  0  0  0  0  0
   35.6940   26.1840   32.7610 H   0  0  0  0  0  0  0  0  0  0  0  0
   36.8040   26.2700   31.3960 H   0  0  0  0  0  0  0  0  0  0  0  0
   37.5710   25.1760   33.0710 C   0  0  0  0  0  0  0  0  0  0  0  0
   38.1420   24.2150   32.1750 C   0  0  0  0  0  0  0  0  0  0  0  0
   38.9710   23.1300   33.3000 S   0  0  0  0  0  0  0  0  0  0  0  0
   38.4610   24.0810   34.8280 C   0  0  0  0  0  0  0  0  0  0  0  0
   37.8300   24.9500   34.3200 N   0  0  0  0  0  0  0  0  0  0  0  0
   38.7300   23.8600   36.2390 N   0  0  0  0  0  0  0  0  0  0  0  0
   39.9540   23.2170   36.5540 C   0  0  0  0  0  0  0  0  0  0  0  0
   40.0230   22.6350   37.9240 C   0  0  0  0  0  0  0  0  0  0  0  0
   38.7520   22.6790   38.6350 N   0  0  0  0  0  0  0  0  0  0  0  0
   38.3210   24.0780   38.5880 C   0  0  0  0  0  0  0  0  0  0  0  0
   37.7680   24.2950   37.2120 C   0  0  0  0  0  0  0  0  0  0  0  0
   38.0390   24.2280   31.0720 H   0  0  0  0  0  0  0  0  0  0  0  0
   40.7920   23.9550   36.3980 H   0  0  0  0  0  0  0  0  0  0  0  0
   40.1510   22.4020   35.8120 H   0  0  0  0  0  0  0  0  0  0  0  0
   40.7330   23.2250   38.5510 H   0  0  0  0  0  0  0  0  0  0  0  0
   40.4310   21.6040   37.9130 H   0  0  0  0  0  0  0  0  0  0  0  0
   38.9360   22.3580   39.6110 H   0  0  0  0  0  0  0  0  0  0  0  0
   39.1100   24.7760   38.8730 H   0  0  0  0  0  0  0  0  0  0  0  0
   37.4770   24.1660   39.3190 H   0  0  0  0  0  0  0  0  0  0  0  0
   37.4170   25.3390   37.0380 H   0  0  0  0  0  0  0  0  0  0  0  0
   36.8790   23.6490   37.0950 H   0  0  0  0  0  0  0  0  0  0  0  0
   37.2660   27.6230   32.9750 C   0  0  0  0  0  0  0  0  0  0  0  0
   37.6560   27.5800   33.9930 H   0  0  0  0  0  0  0  0  0  0  0  0
   38.1090   27.9710   32.3090 H   0  0  0  0  0  0  0  0  0  0  0  0
   34.8900   30.0320   31.4680 C   0  0  0  0  0  0  0  0  0  0  0  0
   34.3040   30.6380   32.5940 C   0  0  0  0  0  0  0  0  0  0  0  0
   34.7360   30.2090   33.8480 C   0  0  0  0  0  0  0  0  0  0  0  0
   35.6810   29.2470   33.8960 N   0  0  0  0  0  0  0  0  0  0  0  0
   36.2180   28.6900   32.7910 C   0  0  0  0  0  0  0  0  0  0  0  0
   35.8240   29.0820   31.5960 N   0  0  0  0  0  0  0  0  0  0  0  0
   34.5590   30.3610   30.4810 H   0  0  0  0  0  0  0  0  0  0  0  0
   33.5620   31.3940   32.5520 H   0  0  0  0  0  0  0  0  0  0  0  0
   34.2370   30.7270   35.1160 C   0  0  0  0  0  0  0  0  0  0  0  0
   32.9950   30.4130   35.6220 C   0  0  0  0  0  3  0  0  0  0  0  0
   32.4830   30.8780   36.8130 C   0  0  0  0  0  0  0  0  0  0  0  0
   31.4950   30.5970   37.1650 H   0  0  0  0  0  0  0  0  0  0  0  0
   33.2590   31.7040   37.5430 N   0  0  0  0  0  0  0  0  0  0  0  0
   34.4910   32.0250   37.0570 C   0  0  0  0  0  3  0  0  0  0  0  0
   34.9640   31.5550   35.8900 N   0  0  0  0  0  0  0  0  0  0  0  0
  1  2  1  0  0  0  0
  1 25  1  0  0  0  0
  1  4  1  0  0  0  0
  3  1  1  0  0  0  0
  4  8  1  0  0  0  0
  5  4  2  0  0  0  0
  5  6  1  0  0  0  0
  6  7  1  0  0  0  0
  7  9  1  0  0  0  0
  8  7  2  0  0  0  0
  9 10  1  0  0  0  0
  9 14  1  0  0  0  0
 10 11  1  0  0  0  0
 11 18  1  0  0  0  0
 11 12  1  0  0  0  0
 12 20  1  0  0  0  0
 13 12  1  0  0  0  0
 13 21  1  0  0  0  0
 13 22  1  0  0  0  0
 14 13  1  0  0  0  0
 15  5  1  0  0  0  0
 16 10  1  0  0  0  0
 17 10  1  0  0  0  0
 19 11  1  0  0  0  0
 23 14  1  0  0  0  0
 24 14  1  0  0  0  0
 25 26  1  0  0  0  0
 27 25  1  0  0  0  0
 28 33  2  0  0  0  0
 28 29  1  0  0  0  0
 29 30  2  0  0  0  0
 30 31  1  0  0  0  0
 30 36  1  0  0  0  0
 32 25  1  0  0  0  0
 32 31  2  0  0  0  0
 33 32  1  0  0  0  0
 34 28  1  0  0  0  0
 35 29  1  0  0  0  0
 36 37  2  0  0  0  0
 36 42  1  0  0  0  0
 37 38  1  0  0  0  0
 38 39  1  0  0  0  0
 38 40  2  0  0  0  0
 41 40  1  0  0  0  0
 42 41  2  0  0  0  0
M  END
>  <minimizedAffinity>
-6.00439453

$$$$

 OpenBabel03272506103D

 42 45  0  0  0  0  0  0  0  0999 V2000
   36.7370   25.9040   32.2000 C   0  0  0  0  0  0  0  0  0  0  0  0
   35.9730   26.2430   32.9130 H   0  0  0  0  0  0  0  0  0  0  0  0
   36.1640   25.4300   31.3610 H   0  0  0  0  0  0  0  0  0  0  0  0
   37.6220   24.8620   32.8250 C   0  0  0  0  0  0  0  0  0  0  0  0
   38.3080   23.9250   31.9850 C   0  0  0  0  0  0  0  0  0  0  0  0
   39.1810   22.9530   33.1770 S   0  0  0  0  0  0  0  0  0  0  0  0
   38.5330   23.9050   34.6500 C   0  0  0  0  0  0  0  0  0  0  0  0
   37.8510   24.7000   34.0900 N   0  0  0  0  0  0  0  0  0  0  0  0
   38.7650   23.7550   36.0770 N   0  0  0  0  0  0  0  0  0  0  0  0
   40.0260   23.2300   36.4590 C   0  0  0  0  0  0  0  0  0  0  0  0
   40.0900   22.7000   37.8510 C   0  0  0  0  0  0  0  0  0  0  0  0
   38.7940   22.6570   38.5130 N   0  0  0  0  0  0  0  0  0  0  0  0
   38.2470   24.0130   38.4010 C   0  0  0  0  0  0  0  0  0  0  0  0
   37.7320   24.1360   36.9990 C   0  0  0  0  0  0  0  0  0  0  0  0
   38.2470   23.8940   30.8790 H   0  0  0  0  0  0  0  0  0  0  0  0
   40.8040   24.0320   36.3070 H   0  0  0  0  0  0  0  0  0  0  0  0
   40.3200   22.4110   35.7540 H   0  0  0  0  0  0  0  0  0  0  0  0
   40.7230   23.3690   38.4810 H   0  0  0  0  0  0  0  0  0  0  0  0
   40.5840   21.7080   37.8910 H   0  0  0  0  0  0  0  0  0  0  0  0
   38.9650   22.3860   39.5070 H   0  0  0  0  0  0  0  0  0  0  0  0
   38.9630   24.7840   38.6890 H   0  0  0  0  0  0  0  0  0  0  0  0
   37.3710   24.0510   39.0970 H   0  0  0  0  0  0  0  0  0  0  0  0
   37.3010   25.1390   36.7750 H   0  0  0  0  0  0  0  0  0  0  0  0
   36.9060   23.4120   36.8730 H   0  0  0  0  0  0  0  0  0  0  0  0
   37.5240   27.0400   31.6690 C   0  0  0  0  0  0  0  0  0  0  0  0
   38.4390   27.2110   32.2400 H   0  0  0  0  0  0  0  0  0  0  0  0
   37.8300   26.8390   30.6020 H   0  0  0  0  0  0  0  0  0  0  0  0
   36.1550   30.3230   30.6340 C   0  0  0  0  0  0  0  0  0  0  0  0
   35.0170   30.4570   31.4490 C   0  0  0  0  0  0  0  0  0  0  0  0
   34.7410   29.4200   32.3390 C   0  0  0  0  0  0  0  0  0  0  0  0
   35.5800   28.3630   32.3560 N   0  0  0  0  0  0  0  0  0  0  0  0
   36.6630   28.2720   31.5560 C   0  0  0  0  0  0  0  0  0  0  0  0
   36.9410   29.2420   30.7080 N   0  0  0  0  0  0  0  0  0  0  0  0
   36.3800   31.1290   29.9340 H   0  0  0  0  0  0  0  0  0  0  0  0
   34.3600   31.2890   31.4320 H   0  0  0  0  0  0  0  0  0  0  0  0
   33.6070   29.3940   33.2540 C   0  0  0  0  0  0  0  0  0  0  0  0
   33.7000   29.7600   34.5790 C   0  0  0  0  0  3  0  0  0  0  0  0
   32.6580   29.7520   35.4790 C   0  0  0  0  0  0  0  0  0  0  0  0
   32.7880   30.0510   36.5150 H   0  0  0  0  0  0  0  0  0  0  0  0
   31.4500   29.3550   35.0290 N   0  0  0  0  0  0  0  0  0  0  0  0
   31.3410   28.9910   33.7200 C   0  0  0  0  0  3  0  0  0  0  0  0
   32.3780   29.0090   32.8640 N   0  0  0  0  0  0  0  0  0  0  0  0
  1  4  1  0  0  0  0
  1  2  1  0  0  0  0
  3  1  1  0  0  0  0
  4  8  1  0  0  0  0
  5  4  2  0  0  0  0
  5  6  1  0  0  0  0
  6  7  1  0  0  0  0
  7  9  1  0  0  0  0
  8  7  2  0  0  0  0
  9 10  1  0  0  0  0
  9 14  1  0  0  0  0
 10 11  1  0  0  0  0
 11 19  1  0  0  0  0
 11 18  1  0  0  0  0
 11 12  1  0  0  0  0
 12 20  1  0  0  0  0
 13 12  1  0  0  0  0
 13 21  1  0  0  0  0
 13 22  1  0  0  0  0
 14 13  1  0  0  0  0
 15  5  1  0  0  0  0
 16 10  1  0  0  0  0
 17 10  1  0  0  0  0
 23 14  1  0  0  0  0
 24 14  1  0  0  0  0
 25  1  1  0  0  0  0
 25 26  1  0  0  0  0
 27 25  1  0  0  0  0
 28 33  2  0  0  0  0
 28 29  1  0  0  0  0
 29 30  2  0  0  0  0
 30 31  1  0  0  0  0
 30 36  1  0  0  0  0
 32 25  1  0  0  0  0
 32 31  2  0  0  0  0
 33 32  1  0  0  0  0
 34 28  1  0  0  0  0
 35 29  1  0  0  0  0
 36 37  1  0  0  0  0
 37 38  2  0  0  0  0
 38 39  1  0  0  0  0
 40 38  1  0  0  0  0
 41 40  2  0  0  0  0
 42 36  2  0  0  0  0
 42 41  1  0  0  0  0
M  END
>  <minimizedAffinity>
-5.84168291

$$$$

 OpenBabel03272506103D

 42 45  0  0  0  0  0  0  0  0999 V2000
   39.4150   26.5640   31.9820 C   0  0  0  0  0  0  0  0  0  0  0  0
   40.4420   26.9390   31.8820 H   0  0  0  0  0  0  0  0  0  0  0  0
   38.7740   27.3290   31.4730 H   0  0  0  0  0  0  0  0  0  0  0  0
   39.0150   26.4910   33.4300 C   0  0  0  0  0  0  0  0  0  0  0  0
   38.3930   27.6260   34.0460 C   0  0  0  0  0  0  0  0  0  0  0  0
   38.1330   27.0360   35.6940 S   0  0  0  0  0  0  0  0  0  0  0  0
   38.8820   25.3530   35.3700 C   0  0  0  0  0  0  0  0  0  0  0  0
   39.1720   25.4800   34.2250 N   0  0  0  0  0  0  0  0  0  0  0  0
   39.0750   24.1980   36.2320 N   0  0  0  0  0  0  0  0  0  0  0  0
   38.1310   24.0260   37.2750 C   0  0  0  0  0  0  0  0  0  0  0  0
   38.5660   23.1150   38.3710 C   0  0  0  0  0  0  0  0  0  0  0  0
   39.9570   22.7000   38.2600 N   0  0  0  0  0  0  0  0  0  0  0  0
   40.0970   22.1430   36.9120 C   0  0  0  0  0  0  0  0  0  0  0  0
   40.1820   23.3180   35.9850 C   0  0  0  0  0  0  0  0  0  0  0  0
   38.1700   28.5850   33.5410 H   0  0  0  0  0  0  0  0  0  0  0  0
   37.1640   23.6620   36.8220 H   0  0  0  0  0  0  0  0  0  0  0  0
   37.8780   25.0220   37.7210 H   0  0  0  0  0  0  0  0  0  0  0  0
   37.9720   22.1710   38.3370 H   0  0  0  0  0  0  0  0  0  0  0  0
   38.3650   23.5500   39.3720 H   0  0  0  0  0  0  0  0  0  0  0  0
   40.1240   21.9830   39.0000 H   0  0  0  0  0  0  0  0  0  0  0  0
   39.3110   21.4280   36.6650 H   0  0  0  0  0  0  0  0  0  0  0  0
   41.0850   21.6170   36.8970 H   0  0  0  0  0  0  0  0  0  0  0  0
   40.2730   23.0270   34.9130 H   0  0  0  0  0  0  0  0  0  0  0  0
   41.1010   23.8810   36.2300 H   0  0  0  0  0  0  0  0  0  0  0  0
   39.2470   25.2590   31.3040 C   0  0  0  0  0  0  0  0  0  0  0  0
   39.7200   25.2420   30.3200 H   0  0  0  0  0  0  0  0  0  0  0  0
   39.7190   24.4360   31.9150 H   0  0  0  0  0  0  0  0  0  0  0  0
   35.5590   25.3650   30.9710 C   0  0  0  0  0  0  0  0  0  0  0  0
   35.1850   24.0330   31.2180 C   0  0  0  0  0  0  0  0  0  0  0  0
   36.2050   23.1230   31.4940 C   0  0  0  0  0  0  0  0  0  0  0  0
   37.4740   23.5810   31.5060 N   0  0  0  0  0  0  0  0  0  0  0  0
   37.7920   24.8690   31.2630 C   0  0  0  0  0  0  0  0  0  0  0  0
   36.8430   25.7450   31.0000 N   0  0  0  0  0  0  0  0  0  0  0  0
   34.7690   26.0860   30.7540 H   0  0  0  0  0  0  0  0  0  0  0  0
   34.1860   23.6770   31.2080 H   0  0  0  0  0  0  0  0  0  0  0  0
   35.9970   21.7070   31.7730 C   0  0  0  0  0  0  0  0  0  0  0  0
   35.6680   21.2240   33.0200 C   0  0  0  0  0  3  0  0  0  0  0  0
   35.4630   19.8990   33.3290 C   0  0  0  0  0  0  0  0  0  0  0  0
   35.2050   19.5730   34.3320 H   0  0  0  0  0  0  0  0  0  0  0  0
   35.5940   19.0000   32.3320 N   0  0  0  0  0  0  0  0  0  0  0  0
   35.9190   19.4610   31.0910 C   0  0  0  0  0  3  0  0  0  0  0  0
   36.1130   20.7630   30.8200 N   0  0  0  0  0  0  0  0  0  0  0  0
  1  4  1  0  0  0  0
  2  1  1  0  0  0  0
  3  1  1  0  0  0  0
  4  5  2  0  0  0  0
  4  8  1  0  0  0  0
  5  6  1  0  0  0  0
  7  6  1  0  0  0  0
  7  9  1  0  0  0  0
  8  7  2  0  0  0  0
  9 10  1  0  0  0  0
 10 17  1  0  0  0  0
 10 11  1  0  0  0  0
 11 19  1  0  0  0  0
 12 11  1  0  0  0  0
 12 20  1  0  0  0  0
 13 12  1  0  0  0  0
 14 24  1  0  0  0  0
 14  9  1  0  0  0  0
 14 13  1  0  0  0  0
 15  5  1  0  0  0  0
 16 10  1  0  0  0  0
 18 11  1  0  0  0  0
 21 13  1  0  0  0  0
 22 13  1  0  0  0  0
 23 14  1  0  0  0  0
 25 27  1  0  0  0  0
 25  1  1  0  0  0  0
 26 25  1  0  0  0  0
 28 33  2  0  0  0  0
 28 29  1  0  0  0  0
 29 30  2  0  0  0  0
 30 31  1  0  0  0  0
 30 36  1  0  0  0  0
 32 25  1  0  0  0  0
 32 31  2  0  0  0  0
 33 32  1  0  0  0  0
 34 28  1  0  0  0  0
 35 29  1  0  0  0  0
 36 37  1  0  0  0  0
 37 38  2  0  0  0  0
 38 39  1  0  0  0  0
 40 38  1  0  0  0  0
 41 40  2  0  0  0  0
 42 41  1  0  0  0  0
 42 36  2  0  0  0  0
M  END
>  <minimizedAffinity>
-5.81234121

$$$$

 OpenBabel03272506103D

 42 45  0  0  0  0  0  0  0  0999 V2000
   35.8220   23.0980   31.9160 C   0  0  0  0  0  0  0  0  0  0  0  0
   35.1730   23.5820   32.6580 H   0  0  0  0  0  0  0  0  0  0  0  0
   35.2250   22.2340   31.5250 H   0  0  0  0  0  0  0  0  0  0  0  0
   37.0670   22.5640   32.5670 C   0  0  0  0  0  0  0  0  0  0  0  0
   37.9200   21.6750   31.8340 C   0  0  0  0  0  0  0  0  0  0  0  0
   39.1970   21.3540   33.0150 S   0  0  0  0  0  0  0  0  0  0  0  0
   38.4490   22.4380   34.3430 C   0  0  0  0  0  0  0  0  0  0  0  0
   37.4830   22.8210   33.7670 N   0  0  0  0  0  0  0  0  0  0  0  0
   38.8830   22.7500   35.6950 N   0  0  0  0  0  0  0  0  0  0  0  0
   40.2820   22.7350   35.9270 C   0  0  0  0  0  0  0  0  0  0  0  0
   40.6790   22.6410   37.3600 C   0  0  0  0  0  0  0  0  0  0  0  0
   39.5560   22.4050   38.2570 N   0  0  0  0  0  0  0  0  0  0  0  0
   38.5850   23.4630   37.9610 C   0  0  0  0  0  0  0  0  0  0  0  0
   37.8970   23.0510   36.6950 C   0  0  0  0  0  0  0  0  0  0  0  0
   37.7440   21.3320   30.7960 H   0  0  0  0  0  0  0  0  0  0  0  0
   40.7290   23.6560   35.4540 H   0  0  0  0  0  0  0  0  0  0  0  0
   40.7450   21.8780   35.3740 H   0  0  0  0  0  0  0  0  0  0  0  0
   41.1260   23.6080   37.6930 H   0  0  0  0  0  0  0  0  0  0  0  0
   41.4730   21.8830   37.5180 H   0  0  0  0  0  0  0  0  0  0  0  0
   39.9220   22.4730   39.2320 H   0  0  0  0  0  0  0  0  0  0  0  0
   39.0360   24.4560   37.9280 H   0  0  0  0  0  0  0  0  0  0  0  0
   37.8330   23.4320   38.7900 H   0  0  0  0  0  0  0  0  0  0  0  0
   37.1380   23.7880   36.3470 H   0  0  0  0  0  0  0  0  0  0  0  0
   37.3470   22.1130   36.8940 H   0  0  0  0  0  0  0  0  0  0  0  0
   36.1420   24.0130   30.7970 C   0  0  0  0  0  0  0  0  0  0  0  0
   36.9300   23.6180   30.1540 H   0  0  0  0  0  0  0  0  0  0  0  0
   35.2310   24.1720   30.1490 H   0  0  0  0  0  0  0  0  0  0  0  0
   35.8390   27.5700   31.7860 C   0  0  0  0  0  0  0  0  0  0  0  0
   37.1200   27.8660   32.2850 C   0  0  0  0  0  0  0  0  0  0  0  0
   38.0630   26.8390   32.2720 C   0  0  0  0  0  0  0  0  0  0  0  0
   37.6850   25.6390   31.7850 N   0  0  0  0  0  0  0  0  0  0  0  0
   36.4440   25.3960   31.3150 C   0  0  0  0  0  0  0  0  0  0  0  0
   35.5370   26.3520   31.3180 N   0  0  0  0  0  0  0  0  0  0  0  0
   35.0920   28.3660   31.7910 H   0  0  0  0  0  0  0  0  0  0  0  0
   37.4130   28.8100   32.6670 H   0  0  0  0  0  0  0  0  0  0  0  0
   39.4340   26.9700   32.7500 C   0  0  0  0  0  0  0  0  0  0  0  0
   39.8170   26.6620   34.0370 C   0  0  0  0  0  3  0  0  0  0  0  0
   41.0970   26.7690   34.5310 C   0  0  0  0  0  0  0  0  0  0  0  0
   41.3430   26.5120   35.5570 H   0  0  0  0  0  0  0  0  0  0  0  0
   42.0540   27.2110   33.6890 N   0  0  0  0  0  0  0  0  0  0  0  0
   41.6920   27.5200   32.4120 C   0  0  0  0  0  3  0  0  0  0  0  0
   40.4320   27.4050   31.9580 N   0  0  0  0  0  0  0  0  0  0  0  0
  1  4  1  0  0  0  0
  1  2  1  0  0  0  0
  3  1  1  0  0  0  0
  4  8  1  0  0  0  0
  5  4  2  0  0  0  0
  5  6  1  0  0  0  0
  6  7  1  0  0  0  0
  7  9  1  0  0  0  0
  8  7  2  0  0  0  0
  9 10  1  0  0  0  0
  9 14  1  0  0  0  0
 10 11  1  0  0  0  0
 11 19  1  0  0  0  0
 11 18  1  0  0  0  0
 11 12  1  0  0  0  0
 12 20  1  0  0  0  0
 13 12  1  0  0  0  0
 13 22  1  0  0  0  0
 14 24  1  0  0  0  0
 14 13  1  0  0  0  0
 15  5  1  0  0  0  0
 16 10  1  0  0  0  0
 17 10  1  0  0  0  0
 21 13  1  0  0  0  0
 23 14  1  0  0  0  0
 25 32  1  0  0  0  0
 25  1  1  0  0  0  0
 26 25  1  0  0  0  0
 27 25  1  0  0  0  0
 28 34  1  0  0  0  0
 28 29  1  0  0  0  0
 29 35  1  0  0  0  0
 30 29  2  0  0  0  0
 30 36  1  0  0  0  0
 31 30  1  0  0  0  0
 32 33  1  0  0  0  0
 32 31  2  0  0  0  0
 33 28  2  0  0  0  0
 36 37  1  0  0  0  0
 37 38  2  0  0  0  0
 38 39  1  0  0  0  0
 40 38  1  0  0  0  0
 41 40  2  0  0  0  0
 42 41  1  0  0  0  0
 42 36  2  0  0  0  0
M  END
>  <minimizedAffinity>
-5.74146748

$$$$

 OpenBabel03272506103D

 42 45  0  0  0  0  0  0  0  0999 V2000
   37.5630   25.5270   30.9570 C   0  0  0  0  0  0  0  0  0  0  0  0
   37.3200   26.0460   30.0200 H   0  0  0  0  0  0  0  0  0  0  0  0
   38.4580   26.0660   31.3660 H   0  0  0  0  0  0  0  0  0  0  0  0
   37.9460   24.0990   30.6900 C   0  0  0  0  0  0  0  0  0  0  0  0
   39.1200   23.8170   29.9180 C   0  0  0  0  0  0  0  0  0  0  0  0
   39.1170   22.0480   29.9000 S   0  0  0  0  0  0  0  0  0  0  0  0
   37.5560   21.8910   30.9190 C   0  0  0  0  0  0  0  0  0  0  0  0
   37.3140   23.0410   31.0910 N   0  0  0  0  0  0  0  0  0  0  0  0
   36.8200   20.7290   31.3870 N   0  0  0  0  0  0  0  0  0  0  0  0
   37.5800   19.5560   31.6300 C   0  0  0  0  0  0  0  0  0  0  0  0
   36.7870   18.2970   31.6970 C   0  0  0  0  0  0  0  0  0  0  0  0
   35.3890   18.4730   31.3270 N   0  0  0  0  0  0  0  0  0  0  0  0
   34.8880   19.5560   32.1780 C   0  0  0  0  0  0  0  0  0  0  0  0
   35.4000   20.8280   31.5730 C   0  0  0  0  0  0  0  0  0  0  0  0
   39.7980   24.5780   29.4840 H   0  0  0  0  0  0  0  0  0  0  0  0
   38.1650   19.7050   32.5830 H   0  0  0  0  0  0  0  0  0  0  0  0
   38.3590   19.4430   30.8330 H   0  0  0  0  0  0  0  0  0  0  0  0
   36.7690   17.9160   32.7460 H   0  0  0  0  0  0  0  0  0  0  0  0
   37.2510   17.4850   31.1000 H   0  0  0  0  0  0  0  0  0  0  0  0
   34.9050   17.5680   31.5180 H   0  0  0  0  0  0  0  0  0  0  0  0
   35.1430   19.4210   33.2300 H   0  0  0  0  0  0  0  0  0  0  0  0
   33.7740   19.5430   32.0700 H   0  0  0  0  0  0  0  0  0  0  0  0
   35.1000   21.7380   32.1440 H   0  0  0  0  0  0  0  0  0  0  0  0
   34.9510   20.9340   30.5690 H   0  0  0  0  0  0  0  0  0  0  0  0
   36.4530   25.6210   31.9320 C   0  0  0  0  0  0  0  0  0  0  0  0
   35.5990   26.1730   31.5320 H   0  0  0  0  0  0  0  0  0  0  0  0
   36.0850   24.5900   32.2060 H   0  0  0  0  0  0  0  0  0  0  0  0
   37.2760   27.9060   34.7280 C   0  0  0  0  0  0  0  0  0  0  0  0
   37.8870   27.0500   35.6610 C   0  0  0  0  0  0  0  0  0  0  0  0
   38.0060   25.7050   35.3130 C   0  0  0  0  0  0  0  0  0  0  0  0
   37.5280   25.3190   34.1120 N   0  0  0  0  0  0  0  0  0  0  0  0
   36.9470   26.1730   33.2440 C   0  0  0  0  0  0  0  0  0  0  0  0
   36.8250   27.4490   33.5540 N   0  0  0  0  0  0  0  0  0  0  0  0
   37.1780   28.9620   34.9900 H   0  0  0  0  0  0  0  0  0  0  0  0
   38.2610   27.3580   36.6050 H   0  0  0  0  0  0  0  0  0  0  0  0
   38.6100   24.6830   36.1580 C   0  0  0  0  0  0  0  0  0  0  0  0
   38.1450   24.3730   37.4170 C   0  0  0  0  0  3  0  0  0  0  0  0
   38.6830   23.4160   38.2480 C   0  0  0  0  0  0  0  0  0  0  0  0
   38.2750   23.2120   39.2330 H   0  0  0  0  0  0  0  0  0  0  0  0
   39.7500   22.7270   37.7950 N   0  0  0  0  0  0  0  0  0  0  0  0
   40.2230   23.0210   36.5510 C   0  0  0  0  0  3  0  0  0  0  0  0
   39.6760   23.9620   35.7620 N   0  0  0  0  0  0  0  0  0  0  0  0
  1  3  1  0  0  0  0
  1 25  1  0  0  0  0
  2  1  1  0  0  0  0
  4  1  1  0  0  0  0
  4  8  1  0  0  0  0
  5  4  2  0  0  0  0
  6  5  1  0  0  0  0
  6  7  1  0  0  0  0
  7  8  2  0  0  0  0
  7  9  1  0  0  0  0
  9 14  1  0  0  0  0
  9 10  1  0  0  0  0
 10 11  1  0  0  0  0
 10 16  1  0  0  0  0
 11 18  1  0  0  0  0
 12 20  1  0  0  0  0
 12 11  1  0  0  0  0
 12 13  1  0  0  0  0
 13 21  1  0  0  0  0
 14 23  1  0  0  0  0
 14 13  1  0  0  0  0
 15  5  1  0  0  0  0
 17 10  1  0  0  0  0
 19 11  1  0  0  0  0
 22 13  1  0  0  0  0
 24 14  1  0  0  0  0
 25 27  1  0  0  0  0
 25 32  1  0  0  0  0
 26 25  1  0  0  0  0
 28 34  1  0  0  0  0
 28 29  1  0  0  0  0
 29 35  1  0  0  0  0
 30 29  2  0  0  0  0
 30 36  1  0  0  0  0
 31 30  1  0  0  0  0
 32 33  1  0  0  0  0
 32 31  2  0  0  0  0
 33 28  2  0  0  0  0
 36 37  1  0  0  0  0
 37 38  2  0  0  0  0
 38 39  1  0  0  0  0
 40 38  1  0  0  0  0
 41 40  2  0  0  0  0
 42 36  2  0  0  0  0
 42 41  1  0  0  0  0
M  END
>  <minimizedAffinity>
-5.73925543

$$$$

 OpenBabel03272506103D

 42 45  0  0  0  0  0  0  0  0999 V2000
   36.5790   27.8520   33.9630 C   0  0  0  0  0  0  0  0  0  0  0  0
   37.0900   28.5980   34.5870 H   0  0  0  0  0  0  0  0  0  0  0  0
   35.5520   27.7590   34.4030 H   0  0  0  0  0  0  0  0  0  0  0  0
   37.2640   26.5170   34.0620 C   0  0  0  0  0  0  0  0  0  0  0  0
   37.4880   25.7510   32.8720 C   0  0  0  0  0  0  0  0  0  0  0  0
   38.2990   24.3180   33.5220 S   0  0  0  0  0  0  0  0  0  0  0  0
   38.2430   24.9060   35.2960 C   0  0  0  0  0  0  0  0  0  0  0  0
   37.6970   25.9490   35.1440 N   0  0  0  0  0  0  0  0  0  0  0  0
   38.7160   24.3000   36.5300 N   0  0  0  0  0  0  0  0  0  0  0  0
   39.8420   23.4460   36.4230 C   0  0  0  0  0  0  0  0  0  0  0  0
   40.0490   22.5310   37.5800 C   0  0  0  0  0  0  0  0  0  0  0  0
   38.9530   22.5550   38.5390 N   0  0  0  0  0  0  0  0  0  0  0  0
   38.7740   23.9640   38.9000 C   0  0  0  0  0  0  0  0  0  0  0  0
   38.0340   24.5930   37.7590 C   0  0  0  0  0  0  0  0  0  0  0  0
   37.1960   26.0580   31.8500 H   0  0  0  0  0  0  0  0  0  0  0  0
   40.7570   24.0860   36.2590 H   0  0  0  0  0  0  0  0  0  0  0  0
   39.7570   22.8280   35.4920 H   0  0  0  0  0  0  0  0  0  0  0  0
   40.9520   22.8450   38.1550 H   0  0  0  0  0  0  0  0  0  0  0  0
   40.2590   21.4930   37.2510 H   0  0  0  0  0  0  0  0  0  0  0  0
   39.2470   21.9750   39.3560 H   0  0  0  0  0  0  0  0  0  0  0  0
   39.7120   24.4580   39.1570 H   0  0  0  0  0  0  0  0  0  0  0  0
   38.1030   23.9700   39.7960 H   0  0  0  0  0  0  0  0  0  0  0  0
   37.8480   25.6830   37.9030 H   0  0  0  0  0  0  0  0  0  0  0  0
   37.0370   24.1180   37.6940 H   0  0  0  0  0  0  0  0  0  0  0  0
   36.4670   28.3040   32.5590 C   0  0  0  0  0  0  0  0  0  0  0  0
   37.4400   28.3690   32.0670 H   0  0  0  0  0  0  0  0  0  0  0  0
   35.8390   27.5800   31.9630 H   0  0  0  0  0  0  0  0  0  0  0  0
   34.5420   31.2070   31.2980 C   0  0  0  0  0  0  0  0  0  0  0  0
   34.2680   31.9330   32.4700 C   0  0  0  0  0  0  0  0  0  0  0  0
   34.7500   31.4140   33.6710 C   0  0  0  0  0  0  0  0  0  0  0  0
   35.4410   30.2560   33.6270 N   0  0  0  0  0  0  0  0  0  0  0  0
   35.6820   29.5890   32.4790 C   0  0  0  0  0  0  0  0  0  0  0  0
   35.2360   30.0630   31.3330 N   0  0  0  0  0  0  0  0  0  0  0  0
   34.1700   31.6050   30.3520 H   0  0  0  0  0  0  0  0  0  0  0  0
   33.7240   32.8430   32.5010 H   0  0  0  0  0  0  0  0  0  0  0  0
   34.5590   32.0340   34.9770 C   0  0  0  0  0  0  0  0  0  0  0  0
   35.1090   33.2490   35.3220 C   0  0  0  0  0  3  0  0  0  0  0  0
   34.9560   33.8710   36.5400 C   0  0  0  0  0  0  0  0  0  0  0  0
   35.4130   34.8320   36.7590 H   0  0  0  0  0  0  0  0  0  0  0  0
   34.2080   33.2440   37.4700 N   0  0  0  0  0  0  0  0  0  0  0  0
   33.6560   32.0400   37.1440 C   0  0  0  0  0  3  0  0  0  0  0  0
   33.8240   31.4570   35.9450 N   0  0  0  0  0  0  0  0  0  0  0  0
  1  4  1  0  0  0  0
  1  3  1  0  0  0  0
  1  2  1  0  0  0  0
  4  8  1  0  0  0  0
  5  6  1  0  0  0  0
  5  4  2  0  0  0  0
  6  7  1  0  0  0  0
  7  9  1  0  0  0  0
  8  7  2  0  0  0  0
  9 14  1  0  0  0  0
 10  9  1  0  0  0  0
 10 11  1  0  0  0  0
 11 18  1  0  0  0  0
 11 12  1  0  0  0  0
 12 13  1  0  0  0  0
 12 20  1  0  0  0  0
 13 21  1  0  0  0  0
 13 22  1  0  0  0  0
 14 23  1  0  0  0  0
 14 13  1  0  0  0  0
 15  5  1  0  0  0  0
 16 10  1  0  0  0  0
 17 10  1  0  0  0  0
 19 11  1  0  0  0  0
 24 14  1  0  0  0  0
 25  1  1  0  0  0  0
 26 25  1  0  0  0  0
 27 25  1  0  0  0  0
 28 33  2  0  0  0  0
 28 29  1  0  0  0  0
 29 35  1  0  0  0  0
 29 30  2  0  0  0  0
 30 36  1  0  0  0  0
 31 30  1  0  0  0  0
 32 25  1  0  0  0  0
 32 31  2  0  0  0  0
 33 32  1  0  0  0  0
 34 28  1  0  0  0  0
 36 37  2  0  0  0  0
 36 42  1  0  0  0  0
 37 38  1  0  0  0  0
 38 39  1  0  0  0  0
 38 40  2  0  0  0  0
 41 40  1  0  0  0  0
 42 41  2  0  0  0  0
M  END
>  <minimizedAffinity>
-5.66796827

$$$$

 OpenBabel03272506103D

 42 45  0  0  0  0  0  0  0  0999 V2000
   35.6980   24.3640   31.1750 C   0  0  0  0  0  0  0  0  0  0  0  0
   35.0480   24.3760   30.2900 H   0  0  0  0  0  0  0  0  0  0  0  0
   35.0020   24.2360   32.0450 H   0  0  0  0  0  0  0  0  0  0  0  0
   36.4150   25.6770   31.3260 C   0  0  0  0  0  0  0  0  0  0  0  0
   37.8450   25.7120   31.2420 C   0  0  0  0  0  0  0  0  0  0  0  0
   38.1720   27.4350   31.4770 S   0  0  0  0  0  0  0  0  0  0  0  0
   36.3710   27.9050   31.6600 C   0  0  0  0  0  0  0  0  0  0  0  0
   35.8720   26.8350   31.5320 N   0  0  0  0  0  0  0  0  0  0  0  0
   35.7250   29.1870   31.8910 N   0  0  0  0  0  0  0  0  0  0  0  0
   36.3910   30.3300   31.3800 C   0  0  0  0  0  0  0  0  0  0  0  0
   35.9550   31.6260   31.9700 C   0  0  0  0  0  0  0  0  0  0  0  0
   35.0420   31.4720   33.0940 N   0  0  0  0  0  0  0  0  0  0  0  0
   33.9500   30.6260   32.6040 C   0  0  0  0  0  0  0  0  0  0  0  0
   34.4800   29.2240   32.6040 C   0  0  0  0  0  0  0  0  0  0  0  0
   38.4970   24.8330   31.0700 H   0  0  0  0  0  0  0  0  0  0  0  0
   36.2620   30.3430   30.2600 H   0  0  0  0  0  0  0  0  0  0  0  0
   37.4950   30.2220   31.5380 H   0  0  0  0  0  0  0  0  0  0  0  0
   35.3910   32.2170   31.2100 H   0  0  0  0  0  0  0  0  0  0  0  0
   36.8190   32.2620   32.2510 H   0  0  0  0  0  0  0  0  0  0  0  0
   34.7110   32.4270   33.3550 H   0  0  0  0  0  0  0  0  0  0  0  0
   33.5540   30.9590   31.6430 H   0  0  0  0  0  0  0  0  0  0  0  0
   33.1400   30.6910   33.3730 H   0  0  0  0  0  0  0  0  0  0  0  0
   33.7440   28.4760   32.2300 H   0  0  0  0  0  0  0  0  0  0  0  0
   34.7010   28.9420   33.6500 H   0  0  0  0  0  0  0  0  0  0  0  0
   36.6440   23.2270   31.1380 C   0  0  0  0  0  0  0  0  0  0  0  0
   36.5850   22.6720   30.1990 H   0  0  0  0  0  0  0  0  0  0  0  0
   37.7050   23.5970   31.2400 H   0  0  0  0  0  0  0  0  0  0  0  0
   35.4560   20.6050   33.4700 C   0  0  0  0  0  0  0  0  0  0  0  0
   36.2350   20.8320   34.6180 C   0  0  0  0  0  0  0  0  0  0  0  0
   37.1530   21.8810   34.5700 C   0  0  0  0  0  0  0  0  0  0  0  0
   37.2310   22.6020   33.4320 N   0  0  0  0  0  0  0  0  0  0  0  0
   36.4640   22.3510   32.3510 C   0  0  0  0  0  0  0  0  0  0  0  0
   35.5900   21.3640   32.3750 N   0  0  0  0  0  0  0  0  0  0  0  0
   34.7340   19.7870   33.4960 H   0  0  0  0  0  0  0  0  0  0  0  0
   36.1710   20.2630   35.5100 H   0  0  0  0  0  0  0  0  0  0  0  0
   38.0390   22.2550   35.6660 C   0  0  0  0  0  0  0  0  0  0  0  0
   37.6100   22.9420   36.7810 C   0  0  0  0  0  3  0  0  0  0  0  0
   38.4090   23.3150   37.8380 C   0  0  0  0  0  0  0  0  0  0  0  0
   38.0180   23.8570   38.6940 H   0  0  0  0  0  0  0  0  0  0  0  0
   39.7150   22.9830   37.7790 N   0  0  0  0  0  0  0  0  0  0  0  0
   40.1550   22.3030   36.6830 C   0  0  0  0  0  3  0  0  0  0  0  0
   39.3510   21.9520   35.6650 N   0  0  0  0  0  0  0  0  0  0  0  0
  1  4  1  0  0  0  0
  1  3  1  0  0  0  0
  2  1  1  0  0  0  0
  4  8  1  0  0  0  0
  5  4  2  0  0  0  0
  5  6  1  0  0  0  0
  6  7  1  0  0  0  0
  7  9  1  0  0  0  0
  8  7  2  0  0  0  0
  9 14  1  0  0  0  0
 10 17  1  0  0  0  0
 10  9  1  0  0  0  0
 10 11  1  0  0  0  0
 11 19  1  0  0  0  0
 11 12  1  0  0  0  0
 12 20  1  0  0  0  0
 13 12  1  0  0  0  0
 13 22  1  0  0  0  0
 14 13  1  0  0  0  0
 14 24  1  0  0  0  0
 15  5  1  0  0  0  0
 16 10  1  0  0  0  0
 18 11  1  0  0  0  0
 21 13  1  0  0  0  0
 23 14  1  0  0  0  0
 25  1  1  0  0  0  0
 25 27  1  0  0  0  0
 25 32  1  0  0  0  0
 26 25  1  0  0  0  0
 28 34  1  0  0  0  0
 28 29  1  0  0  0  0
 29 35  1  0  0  0  0
 30 29  2  0  0  0  0
 30 36  1  0  0  0  0
 31 30  1  0  0  0  0
 32 33  1  0  0  0  0
 32 31  2  0  0  0  0
 33 28  2  0  0  0  0
 36 37  1  0  0  0  0
 37 38  2  0  0  0  0
 38 39  1  0  0  0  0
 40 38  1  0  0  0  0
 41 40  2  0  0  0  0
 42 36  2  0  0  0  0
 42 41  1  0  0  0  0
M  END
>  <minimizedAffinity>
-5.53834534

$$$$

 OpenBabel03272506103D

 42 45  0  0  0  0  0  0  0  0999 V2000
   37.3040   26.8440   34.9910 C   0  0  0  0  0  0  0  0  0  0  0  0
   36.5170   26.0980   35.1620 H   0  0  0  0  0  0  0  0  0  0  0  0
   37.2360   27.5450   35.8640 H   0  0  0  0  0  0  0  0  0  0  0  0
   37.0370   27.6200   33.7320 C   0  0  0  0  0  0  0  0  0  0  0  0
   35.9470   28.5500   33.6950 C   0  0  0  0  0  0  0  0  0  0  0  0
   36.0690   29.1730   32.0430 S   0  0  0  0  0  0  0  0  0  0  0  0
   37.5520   28.1240   31.5970 C   0  0  0  0  0  0  0  0  0  0  0  0
   37.7040   27.5460   32.6230 N   0  0  0  0  0  0  0  0  0  0  0  0
   38.3240   28.0140   30.3700 N   0  0  0  0  0  0  0  0  0  0  0  0
   38.3940   29.1780   29.5630 C   0  0  0  0  0  0  0  0  0  0  0  0
   38.8150   28.9400   28.1530 C   0  0  0  0  0  0  0  0  0  0  0  0
   38.9110   27.5280   27.8100 N   0  0  0  0  0  0  0  0  0  0  0  0
   39.7930   26.9340   28.8190 C   0  0  0  0  0  0  0  0  0  0  0  0
   38.9580   26.7660   30.0510 C   0  0  0  0  0  0  0  0  0  0  0  0
   35.2580   28.7600   34.5360 H   0  0  0  0  0  0  0  0  0  0  0  0
   39.0880   29.9140   30.0620 H   0  0  0  0  0  0  0  0  0  0  0  0
   37.3970   29.6890   29.5530 H   0  0  0  0  0  0  0  0  0  0  0  0
   39.8370   29.3550   27.9890 H   0  0  0  0  0  0  0  0  0  0  0  0
   38.1630   29.4760   27.4330 H   0  0  0  0  0  0  0  0  0  0  0  0
   39.3200   27.4730   26.8510 H   0  0  0  0  0  0  0  0  0  0  0  0
   40.7100   27.5060   28.9690 H   0  0  0  0  0  0  0  0  0  0  0  0
   40.0570   25.9160   28.4360 H   0  0  0  0  0  0  0  0  0  0  0  0
   39.5220   26.3350   30.9100 H   0  0  0  0  0  0  0  0  0  0  0  0
   38.1510   26.0460   29.8220 H   0  0  0  0  0  0  0  0  0  0  0  0
   38.6470   26.2210   34.9740 C   0  0  0  0  0  0  0  0  0  0  0  0
   38.9330   25.8870   33.9750 H   0  0  0  0  0  0  0  0  0  0  0  0
   39.4270   26.9610   35.3150 H   0  0  0  0  0  0  0  0  0  0  0  0
   38.0250   24.0920   37.9410 C   0  0  0  0  0  0  0  0  0  0  0  0
   38.9960   23.0830   37.8110 C   0  0  0  0  0  0  0  0  0  0  0  0
   39.8460   23.1530   36.7070 C   0  0  0  0  0  0  0  0  0  0  0  0
   39.6790   24.1770   35.8450 N   0  0  0  0  0  0  0  0  0  0  0  0
   38.7340   25.1260   36.0060 C   0  0  0  0  0  0  0  0  0  0  0  0
   37.9210   25.0790   37.0420 N   0  0  0  0  0  0  0  0  0  0  0  0
   37.3550   24.0470   38.8010 H   0  0  0  0  0  0  0  0  0  0  0  0
   39.1240   22.2800   38.4900 H   0  0  0  0  0  0  0  0  0  0  0  0
   40.9050   22.1940   36.4170 C   0  0  0  0  0  0  0  0  0  0  0  0
   41.5580   21.4740   37.3940 C   0  0  0  0  0  3  0  0  0  0  0  0
   42.5620   20.5590   37.1670 C   0  0  0  0  0  0  0  0  0  0  0  0
   43.0420   20.0180   37.9760 H   0  0  0  0  0  0  0  0  0  0  0  0
   42.9370   20.3520   35.8890 N   0  0  0  0  0  0  0  0  0  0  0  0
   42.3010   21.0560   34.9100 C   0  0  0  0  0  3  0  0  0  0  0  0
   41.3240   21.9440   35.1630 N   0  0  0  0  0  0  0  0  0  0  0  0
  1  2  1  0  0  0  0
  1  3  1  0  0  0  0
  4  1  1  0  0  0  0
  5  4  2  0  0  0  0
  5 15  1  0  0  0  0
  6  5  1  0  0  0  0
  7  6  1  0  0  0  0
  7  8  2  0  0  0  0
  8  4  1  0  0  0  0
  9  7  1  0  0  0  0
 10 16  1  0  0  0  0
 10  9  1  0  0  0  0
 11 10  1  0  0  0  0
 12 11  1  0  0  0  0
 12 13  1  0  0  0  0
 13 21  1  0  0  0  0
 13 14  1  0  0  0  0
 14  9  1  0  0  0  0
 14 23  1  0  0  0  0
 17 10  1  0  0  0  0
 18 11  1  0  0  0  0
 19 11  1  0  0  0  0
 20 12  1  0  0  0  0
 22 13  1  0  0  0  0
 24 14  1  0  0  0  0
 25  1  1  0  0  0  0
 25 27  1  0  0  0  0
 25 32  1  0  0  0  0
 26 25  1  0  0  0  0
 28 34  1  0  0  0  0
 29 28  1  0  0  0  0
 29 35  1  0  0  0  0
 30 29  2  0  0  0  0
 31 32  2  0  0  0  0
 31 30  1  0  0  0  0
 32 33  1  0  0  0  0
 33 28  2  0  0  0  0
 36 30  1  0  0  0  0
 36 37  1  0  0  0  0
 38 37  2  0  0  0  0
 38 39  1  0  0  0  0
 40 38  1  0  0  0  0
 41 42  1  0  0  0  0
 41 40  2  0  0  0  0
 42 36  2  0  0  0  0
M  END
>  <minimizedAffinity>
-5.53511286

$$$$

 OpenBabel03272506103D

 42 45  0  0  0  0  0  0  0  0999 V2000
   38.7540   25.3120   34.1660 C   0  0  0  0  0  0  0  0  0  0  0  0
   39.0390   26.3380   33.8950 H   0  0  0  0  0  0  0  0  0  0  0  0
   39.7030   24.8320   34.5230 H   0  0  0  0  0  0  0  0  0  0  0  0
   38.2620   24.5610   32.9610 C   0  0  0  0  0  0  0  0  0  0  0  0
   38.3690   25.1620   31.6640 C   0  0  0  0  0  0  0  0  0  0  0  0
   37.6710   23.9050   30.6330 S   0  0  0  0  0  0  0  0  0  0  0  0
   37.3190   22.7310   32.0450 C   0  0  0  0  0  0  0  0  0  0  0  0
   37.7270   23.3810   32.9520 N   0  0  0  0  0  0  0  0  0  0  0  0
   36.7230   21.4050   32.0750 N   0  0  0  0  0  0  0  0  0  0  0  0
   36.9110   20.6030   30.9200 C   0  0  0  0  0  0  0  0  0  0  0  0
   35.9720   19.4530   30.7950 C   0  0  0  0  0  0  0  0  0  0  0  0
   34.9130   19.4610   31.7940 N   0  0  0  0  0  0  0  0  0  0  0  0
   35.5920   19.5550   33.0890 C   0  0  0  0  0  0  0  0  0  0  0  0
   35.9960   20.9900   33.2410 C   0  0  0  0  0  0  0  0  0  0  0  0
   38.7950   26.1620   31.4570 H   0  0  0  0  0  0  0  0  0  0  0  0
   37.9800   20.2420   30.9110 H   0  0  0  0  0  0  0  0  0  0  0  0
   36.8180   21.2390   30.0030 H   0  0  0  0  0  0  0  0  0  0  0  0
   36.5230   18.4960   30.9540 H   0  0  0  0  0  0  0  0  0  0  0  0
   35.5470   19.3790   29.7730 H   0  0  0  0  0  0  0  0  0  0  0  0
   34.3880   18.5640   31.6920 H   0  0  0  0  0  0  0  0  0  0  0  0
   36.4110   18.8420   33.1920 H   0  0  0  0  0  0  0  0  0  0  0  0
   34.8140   19.3290   33.8620 H   0  0  0  0  0  0  0  0  0  0  0  0
   36.5450   21.1950   34.1890 H   0  0  0  0  0  0  0  0  0  0  0  0
   35.0770   21.6020   33.2810 H   0  0  0  0  0  0  0  0  0  0  0  0
   37.7600   25.2970   35.2630 C   0  0  0  0  0  0  0  0  0  0  0  0
   37.4410   26.3030   35.5430 H   0  0  0  0  0  0  0  0  0  0  0  0
   36.8370   24.7300   34.9460 H   0  0  0  0  0  0  0  0  0  0  0  0
   38.1090   23.7170   38.5940 C   0  0  0  0  0  0  0  0  0  0  0  0
   39.3160   23.0050   38.4770 C   0  0  0  0  0  0  0  0  0  0  0  0
   39.9870   23.0810   37.2570 C   0  0  0  0  0  0  0  0  0  0  0  0
   39.4360   23.8280   36.2780 N   0  0  0  0  0  0  0  0  0  0  0  0
   38.2740   24.4970   36.4310 C   0  0  0  0  0  0  0  0  0  0  0  0
   37.6240   24.4380   37.5760 N   0  0  0  0  0  0  0  0  0  0  0  0
   37.5750   23.6640   39.5450 H   0  0  0  0  0  0  0  0  0  0  0  0
   39.7460   22.4180   39.2490 H   0  0  0  0  0  0  0  0  0  0  0  0
   41.2460   22.4080   36.9630 C   0  0  0  0  0  0  0  0  0  0  0  0
   42.2500   22.9820   36.2140 C   0  0  0  0  0  3  0  0  0  0  0  0
   43.4540   22.3850   35.9110 C   0  0  0  0  0  0  0  0  0  0  0  0
   44.2110   22.8850   35.3150 H   0  0  0  0  0  0  0  0  0  0  0  0
   43.6680   21.1410   36.3850 N   0  0  0  0  0  0  0  0  0  0  0  0
   42.6850   20.5590   37.1280 C   0  0  0  0  0  3  0  0  0  0  0  0
   41.5190   21.1670   37.4070 N   0  0  0  0  0  0  0  0  0  0  0  0
  1  3  1  0  0  0  0
  1 25  1  0  0  0  0
  2  1  1  0  0  0  0
  4  1  1  0  0  0  0
  5  4  2  0  0  0  0
  6  5  1  0  0  0  0
  6  7  1  0  0  0  0
  7  9  1  0  0  0  0
  7  8  2  0  0  0  0
  8  4  1  0  0  0  0
  9 14  1  0  0  0  0
 10  9  1  0  0  0  0
 11 10  1  0  0  0  0
 11 18  1  0  0  0  0
 11 12  1  0  0  0  0
 12 13  1  0  0  0  0
 13 21  1  0  0  0  0
 13 14  1  0  0  0  0
 13 22  1  0  0  0  0
 14 24  1  0  0  0  0
 14 23  1  0  0  0  0
 15  5  1  0  0  0  0
 16 10  1  0  0  0  0
 17 10  1  0  0  0  0
 19 11  1  0  0  0  0
 20 12  1  0  0  0  0
 25 26  1  0  0  0  0
 25 32  1  0  0  0  0
 27 25  1  0  0  0  0
 28 34  1  0  0  0  0
 29 28  1  0  0  0  0
 29 35  1  0  0  0  0
 30 29  2  0  0  0  0
 31 32  2  0  0  0  0
 31 30  1  0  0  0  0
 32 33  1  0  0  0  0
 33 28  2  0  0  0  0
 36 30  1  0  0  0  0
 36 42  1  0  0  0  0
 37 36  2  0  0  0  0
 38 37  1  0  0  0  0
 38 40  2  0  0  0  0
 39 38  1  0  0  0  0
 40 41  1  0  0  0  0
 41 42  2  0  0  0  0
M  END
>  <minimizedAffinity>
-5.50923967

$$$$
