
 OpenBabel03272508483D

 38 42  0  0  0  0  0  0  0  0999 V2000
   35.6610   29.8570   49.7230 C   0  0  0  0  0  0  0  0  0  0  0  0
   36.6280   29.7840   50.7050 C   0  0  0  0  0  0  0  0  0  0  0  0
   37.7540   30.3390   50.0920 C   0  0  0  0  0  0  0  0  0  0  0  0
   37.4230   30.7090   48.8030 C   0  0  0  0  0  0  0  0  0  0  0  0
   36.1560   30.4010   48.6240 O   0  0  0  0  0  0  0  0  0  0  0  0
   36.5480   29.4020   51.6940 H   0  0  0  0  0  0  0  0  0  0  0  0
   38.7330   30.4660   50.5310 H   0  0  0  0  0  0  0  0  0  0  0  0
   38.8530   32.5670   48.0780 C   0  0  0  0  0  0  0  0  0  0  0  0
   38.2930   31.3230   47.8180 C   0  0  0  0  0  0  0  0  0  0  0  0
   38.5450   30.6410   46.6250 C   0  0  0  0  0  0  0  0  0  0  0  0
   39.3720   31.2080   45.6710 C   0  0  0  0  0  0  0  0  0  0  0  0
   39.8060   30.8270   44.4540 N   0  0  0  0  0  0  0  0  0  0  0  0
   40.5920   31.7880   43.9920 N   0  0  0  0  0  0  0  0  0  0  0  0
   40.6750   32.7910   44.8960 C   0  0  0  0  0  0  0  0  0  0  0  0
   39.9000   32.4440   45.9840 C   0  0  0  0  0  0  0  0  0  0  0  0
   39.6910   33.1620   47.1350 C   0  0  0  0  0  0  0  0  0  0  0  0
   38.6440   33.0840   49.0160 H   0  0  0  0  0  0  0  0  0  0  0  0
   38.1000   29.6810   46.4460 H   0  0  0  0  0  0  0  0  0  0  0  0
   39.5210   29.9100   44.0210 H   0  0  0  0  0  0  0  0  0  0  0  0
   41.2690   33.6850   44.7240 H   0  0  0  0  0  0  0  0  0  0  0  0
   40.1470   34.1170   47.2860 H   0  0  0  0  0  0  0  0  0  0  0  0
   34.2910   29.3920   49.8930 C   0  0  0  0  0  0  0  0  0  0  0  0
   33.7090   29.6430   50.9720 O   0  0  0  0  0  0  0  0  0  0  0  0
   31.8900   27.2630   48.1580 C   0  0  0  0  0  0  0  0  0  0  0  0
   32.3630   27.2610   46.8550 C   0  0  0  0  0  0  0  0  0  0  0  0
   33.4930   27.9710   46.5370 C   0  0  0  0  0  0  0  0  0  0  0  0
   34.0900   28.6490   47.5480 N   0  0  0  0  0  0  0  0  0  0  0  0
   33.6300   28.6530   48.8180 C   0  0  0  0  0  0  0  0  0  0  0  0
   32.5250   27.9510   49.1020 N   0  0  0  0  0  0  0  0  0  0  0  0
   30.9940   26.6790   48.3280 H   0  0  0  0  0  0  0  0  0  0  0  0
   31.8910   26.7230   46.0520 H   0  0  0  0  0  0  0  0  0  0  0  0
   34.1150   28.0680   45.2210 C   0  0  0  0  0  0  0  0  0  0  0  0
   34.0250   27.0520   44.2940 C   0  0  0  0  0  0  0  0  0  0  0  0
   34.6150   27.1280   43.0260 C   0  0  0  0  0  0  0  0  0  0  0  0
   34.5120   26.2960   42.3360 H   0  0  0  0  0  0  0  0  0  0  0  0
   35.3010   28.2380   42.6920 N   0  0  0  0  0  0  0  0  0  0  0  0
   35.3730   29.2180   43.6180 C   0  0  0  0  0  0  0  0  0  0  0  0
   34.8140   29.1480   44.8210 N   0  0  0  0  0  0  0  0  0  0  0  0
  1 22  1  0  0  0  0
  1  2  2  0  0  0  0
  2  6  1  0  0  0  0
  3  7  1  0  0  0  0
  3  2  1  0  0  0  0
  4  3  2  0  0  0  0
  5  4  1  0  0  0  0
  5  1  1  0  0  0  0
  8 17  1  0  0  0  0
  9  8  1  0  0  0  0
  9  4  1  0  0  0  0
 10  9  2  0  0  0  0
 11 15  2  0  0  0  0
 11 10  1  0  0  0  0
 12 11  1  0  0  0  0
 13 12  1  0  0  0  0
 13 14  2  0  0  0  0
 14 15  1  0  0  0  0
 15 16  1  0  0  0  0
 16 21  1  0  0  0  0
 16  8  2  0  0  0  0
 18 10  1  0  0  0  0
 19 12  1  0  0  0  0
 20 14  1  0  0  0  0
 22 23  2  0  0  0  0
 24 30  1  0  0  0  0
 24 29  1  0  0  0  0
 25 24  2  0  0  0  0
 26 25  1  0  0  0  0
 26 27  2  0  0  0  0
 27 28  1  0  0  0  0
 28 29  2  0  0  0  0
 28 22  1  0  0  0  0
 31 25  1  0  0  0  0
 32 26  1  0  0  0  0
 33 32  2  0  0  0  0
 34 33  1  0  0  0  0
 35 34  1  0  0  0  0
 36 34  2  0  0  0  0
 36 37  1  0  0  0  0
 37 38  2  0  0  0  0
 38 32  1  0  0  0  0
M  END
>  <minimizedAffinity>
-6.51659775

>  <minimizedRMSD>
1.8681308

$$$$
