
 OpenBabel03272509383D

 28 30  0  0  1  0  0  0  0  0999 V2000
   36.6990   31.0600   48.3800 C   0  0  0  0  0  0  0  0  0  0  0  0
   36.5080   31.5330   49.7020 C   0  0  0  0  0  0  0  0  0  0  0  0
   37.2710   32.5730   50.2450 C   0  0  0  0  0  0  0  0  0  0  0  0
   38.2480   33.1560   49.4460 C   0  0  0  0  0  0  0  0  0  0  0  0
   38.4150   32.6740   48.1540 C   0  0  0  0  0  0  0  0  0  0  0  0
   37.6640   31.6470   47.6220 C   0  0  0  0  0  0  0  0  0  0  0  0
   35.7250   31.0490   50.3030 H   0  0  0  0  0  0  0  0  0  0  0  0
   37.0080   32.8120   51.2510 H   0  0  0  0  0  0  0  0  0  0  0  0
   38.7510   33.9360   49.9860 H   0  0  0  0  0  0  0  0  0  0  0  0
   39.2030   33.2770   47.7390 H   0  0  0  0  0  0  0  0  0  0  0  0
   38.1180   31.2770   46.3100 C   0  0  0  0  0  0  0  0  0  0  0  0
   37.9240   32.1550   45.2310 C   0  0  0  0  0  0  0  0  0  0  0  0
   38.3450   32.0060   43.9310 C   0  0  0  0  0  0  0  0  0  0  0  0
   38.1810   32.7010   43.1290 H   0  0  0  0  0  0  0  0  0  0  0  0
   39.0380   30.8690   43.6290 N   0  0  0  0  0  0  0  0  0  0  0  0
   39.2500   30.0030   44.6110 C   0  0  0  0  0  0  0  0  0  0  0  0
   38.7850   30.3080   45.7650 N   0  0  0  0  0  0  0  0  0  0  0  0
   35.8370   29.9880   47.9300 C   0  0  1  0  0  0  0  0  0  0  0  0
   35.9270   28.9020   48.6290 O   0  0  0  0  0  0  0  0  0  0  0  0
   32.7320   30.6050   46.1670 C   0  0  0  0  0  0  0  0  0  0  0  0
   33.0220   30.3150   44.8450 C   0  0  0  0  0  0  0  0  0  0  0  0
   34.2970   29.8860   44.5540 C   0  0  0  0  0  0  0  0  0  0  0  0
   35.2490   29.7510   45.5460 N   0  0  0  0  0  0  0  0  0  0  0  0
   34.9210   30.0460   46.8080 C   0  0  0  0  0  0  0  0  0  0  0  0
   33.6670   30.4660   47.0930 N   0  0  0  0  0  0  0  0  0  0  0  0
   31.7200   30.9360   46.3420 H   0  0  0  0  0  0  0  0  0  0  0  0
   32.3440   30.3890   43.9980 H   0  0  0  0  0  0  0  0  0  0  0  0
   34.6480   29.6260   43.5560 H   0  0  0  0  0  0  0  0  0  0  0  0
  1  2  1  0  0  0  0
  2  3  2  0  0  0  0
  2  7  1  0  0  0  0
  3  8  1  0  0  0  0
  4  9  1  0  0  0  0
  4  3  1  0  0  0  0
  5  4  2  0  0  0  0
  6  5  1  0  0  0  0
  6  1  2  0  0  0  0
 10  5  1  0  0  0  0
 11  6  1  0  0  0  0
 12 11  2  0  0  0  0
 13 12  1  0  0  0  0
 14 13  1  0  0  0  0
 15 13  2  0  0  0  0
 15 16  1  0  0  0  0
 16 17  2  0  0  0  0
 17 11  1  0  0  0  0
 18  1  1  0  0  0  0
 18 19  1  1  0  0  0
 20 26  1  0  0  0  0
 20 25  1  0  0  0  0
 21 20  2  0  0  0  0
 22 21  1  0  0  0  0
 22 23  2  0  0  0  0
 23 24  1  0  0  0  0
 24 25  2  0  0  0  0
 24 18  1  0  0  0  0
 27 21  1  0  0  0  0
 28 22  1  0  0  0  0
M  END
>  <minimizedAffinity>
-5.36746883

>  <minimizedRMSD>
1.80948758

$$$$
