
 OpenBabel03272500053D

 27 29  0  0  0  0  0  0  0  0999 V2000
   36.0910   29.2310   49.2770 C   0  0  0  0  0  0  0  0  0  0  0  0
   35.9290   30.3800   48.4810 C   0  0  0  0  0  0  0  0  0  0  0  0
   34.8070   30.4520   47.6790 C   0  0  0  0  0  0  0  0  0  0  0  0
   33.9130   29.4350   47.6810 N   0  0  0  0  0  0  0  0  0  0  0  0
   34.0890   28.3460   48.4500 C   0  0  0  0  0  0  0  0  0  0  0  0
   35.1750   28.2340   49.2520 N   0  0  0  0  0  0  0  0  0  0  0  0
   36.9610   29.1460   49.9170 H   0  0  0  0  0  0  0  0  0  0  0  0
   34.6780   31.3270   47.0690 H   0  0  0  0  0  0  0  0  0  0  0  0
   36.9370   31.3920   48.5590 N   0  0  0  0  0  0  0  0  0  0  0  0
   37.1250   32.1210   49.6780 C   0  0  0  0  0  0  0  0  0  0  0  0
   38.1200   33.0940   49.7020 C   0  0  0  0  0  0  0  0  0  0  0  0
   38.8350   33.2180   48.5410 C   0  0  0  0  0  0  0  0  0  0  0  0
   39.7450   34.0980   48.5410 O   0  0  0  0  0  0  0  0  0  0  0  0
   38.6650   32.5050   47.4180 N   0  0  0  0  0  0  0  0  0  0  0  0
   37.6820   31.5690   47.4440 C   0  0  0  0  0  0  0  0  0  0  0  0
   37.5150   30.8930   46.3900 O   0  0  0  0  0  0  0  0  0  0  0  0
   36.5110   31.9550   50.5530 H   0  0  0  0  0  0  0  0  0  0  0  0
   38.3180   33.7050   50.5630 H   0  0  0  0  0  0  0  0  0  0  0  0
   39.2370   32.6460   46.5730 H   0  0  0  0  0  0  0  0  0  0  0  0
   33.1990   27.2780   48.4850 O   0  0  0  0  0  0  0  0  0  0  0  0
   31.8370   27.4400   48.2070 C   0  0  0  0  0  0  0  0  0  0  0  0
   31.0100   27.7190   49.2760 C   0  0  0  0  0  3  0  0  0  0  0  0
   29.6810   27.8700   48.9540 C   0  0  0  0  0  0  0  0  0  0  0  0
   28.9690   28.0900   49.7370 H   0  0  0  0  0  0  0  0  0  0  0  0
   29.1820   27.7600   47.6900 N   0  0  0  0  0  0  0  0  0  0  0  0
   30.0460   27.4830   46.6770 C   0  0  0  0  0  3  0  0  0  0  0  0
   31.3580   27.3270   46.9430 N   0  0  0  0  0  0  0  0  0  0  0  0
  1  7  1  0  0  0  0
  2  9  1  0  0  0  0
  2  1  2  0  0  0  0
  3  4  2  0  0  0  0
  3  2  1  0  0  0  0
  4  5  1  0  0  0  0
  5 20  1  0  0  0  0
  5  6  2  0  0  0  0
  6  1  1  0  0  0  0
  8  3  1  0  0  0  0
  9 10  1  0  0  0  0
 10 11  2  0  0  0  0
 10 17  1  0  0  0  0
 11 18  1  0  0  0  0
 12 13  2  0  0  0  0
 12 11  1  0  0  0  0
 14 15  1  0  0  0  0
 14 12  1  0  0  0  0
 15  9  1  0  0  0  0
 16 15  2  0  0  0  0
 19 14  1  0  0  0  0
 21 20  1  0  0  0  0
 21 22  1  0  0  0  0
 23 22  2  0  0  0  0
 23 24  1  0  0  0  0
 25 23  1  0  0  0  0
 26 27  1  0  0  0  0
 26 25  2  0  0  0  0
 27 21  2  0  0  0  0
M  END
>  <minimizedAffinity>
-5.53100681

>  <minimizedRMSD>
0.801167011

$$$$
