
 OpenBabel03272508463D

 25 27  0  0  0  0  0  0  0  0999 V2000
   38.0610   25.4870   35.8380 C   0  0  0  0  0  0  0  0  0  0  0  0
   38.3370   26.6990   36.4290 C   0  0  0  0  0  0  0  0  0  0  0  0
   38.0020   27.6240   35.4420 C   0  0  0  0  0  0  0  0  0  0  0  0
   37.5530   26.9450   34.3370 C   0  0  0  0  0  0  0  0  0  0  0  0
   37.5960   25.6560   34.5970 O   0  0  0  0  0  0  0  0  0  0  0  0
   38.7200   26.9100   37.4100 H   0  0  0  0  0  0  0  0  0  0  0  0
   38.0790   28.7120   35.5230 H   0  0  0  0  0  0  0  0  0  0  0  0
   37.0950   27.5020   33.0690 C   0  0  0  0  0  0  0  0  0  0  0  0
   36.2160   28.5680   33.0770 C   0  0  0  0  0  3  0  0  0  0  0  0
   35.8060   29.0670   31.8390 C   0  0  0  0  0  0  0  0  0  0  0  0
   35.1110   29.9100   31.8930 H   0  0  0  0  0  0  0  0  0  0  0  0
   36.2610   28.5180   30.6970 N   0  0  0  0  0  0  0  0  0  0  0  0
   37.1190   27.4770   30.7120 C   0  0  0  0  0  3  0  0  0  0  0  0
   37.5410   26.9630   31.9010 N   0  0  0  0  0  0  0  0  0  0  0  0
   38.2500   24.1780   36.4840 C   0  0  0  0  0  0  0  0  0  0  0  0
   37.2430   23.6450   37.0260 O   0  0  0  0  0  0  0  0  0  0  0  0
   40.9850   22.0010   37.4560 C   0  0  0  0  0  0  0  0  0  0  0  0
   41.9920   22.3120   36.5500 C   0  0  0  0  0  0  0  0  0  0  0  0
   41.7420   23.2830   35.5850 C   0  0  0  0  0  0  0  0  0  0  0  0
   40.5180   23.8650   35.5940 N   0  0  0  0  0  0  0  0  0  0  0  0
   39.5600   23.5450   36.4840 C   0  0  0  0  0  0  0  0  0  0  0  0
   39.8040   22.6130   37.4090 N   0  0  0  0  0  0  0  0  0  0  0  0
   41.1390   21.2520   38.2240 H   0  0  0  0  0  0  0  0  0  0  0  0
   42.9440   21.7810   36.6310 H   0  0  0  0  0  0  0  0  0  0  0  0
   42.5190   23.5330   34.8710 H   0  0  0  0  0  0  0  0  0  0  0  0
  1  2  2  0  0  0  0
  1 15  1  0  0  0  0
  2  6  1  0  0  0  0
  3  7  1  0  0  0  0
  3  2  1  0  0  0  0
  4  5  1  0  0  0  0
  4  3  2  0  0  0  0
  5  1  1  0  0  0  0
  8  9  1  0  0  0  0
  8  4  1  0  0  0  0
 10 11  1  0  0  0  0
 10  9  2  0  0  0  0
 12 13  2  0  0  0  0
 12 10  1  0  0  0  0
 13 14  1  0  0  0  0
 14  8  2  0  0  0  0
 15 21  1  0  0  0  0
 15 16  2  0  0  0  0
 17 23  1  0  0  0  0
 18 24  1  0  0  0  0
 18 17  2  0  0  0  0
 19 20  2  0  0  0  0
 19 18  1  0  0  0  0
 20 21  1  0  0  0  0
 21 22  2  0  0  0  0
 22 17  1  0  0  0  0
 25 19  1  0  0  0  0
M  END
>  <minimizedAffinity>
-5.05366421

$$$$

 OpenBabel03272508463D

 25 27  0  0  0  0  0  0  0  0999 V2000
   38.0760   25.5230   35.8460 C   0  0  0  0  0  0  0  0  0  0  0  0
   38.3730   26.7410   36.4160 C   0  0  0  0  0  0  0  0  0  0  0  0
   38.0670   27.6520   35.4070 C   0  0  0  0  0  0  0  0  0  0  0  0
   37.6150   26.9610   34.3120 C   0  0  0  0  0  0  0  0  0  0  0  0
   37.6270   25.6770   34.5970 O   0  0  0  0  0  0  0  0  0  0  0  0
   38.7500   26.9630   37.3970 H   0  0  0  0  0  0  0  0  0  0  0  0
   38.1680   28.7400   35.4680 H   0  0  0  0  0  0  0  0  0  0  0  0
   37.1810   27.5030   33.0290 C   0  0  0  0  0  0  0  0  0  0  0  0
   37.8950   27.1940   31.8880 C   0  0  0  0  0  3  0  0  0  0  0  0
   37.4410   27.7360   30.6830 C   0  0  0  0  0  0  0  0  0  0  0  0
   38.0370   27.4660   29.8070 H   0  0  0  0  0  0  0  0  0  0  0  0
   36.3500   28.5250   30.6570 N   0  0  0  0  0  0  0  0  0  0  0  0
   35.6670   28.8140   31.7850 C   0  0  0  0  0  3  0  0  0  0  0  0
   36.0800   28.3030   32.9790 N   0  0  0  0  0  0  0  0  0  0  0  0
   38.2300   24.2230   36.5200 C   0  0  0  0  0  0  0  0  0  0  0  0
   37.2140   23.7380   37.0890 O   0  0  0  0  0  0  0  0  0  0  0  0
   41.5860   23.2890   35.5060 C   0  0  0  0  0  0  0  0  0  0  0  0
   41.9530   22.3210   36.4340 C   0  0  0  0  0  0  0  0  0  0  0  0
   41.0440   21.9740   37.4290 C   0  0  0  0  0  0  0  0  0  0  0  0
   39.8480   22.6110   37.4250 N   0  0  0  0  0  0  0  0  0  0  0  0
   39.5170   23.5460   36.5140 C   0  0  0  0  0  0  0  0  0  0  0  0
   40.3930   23.8760   35.5610 N   0  0  0  0  0  0  0  0  0  0  0  0
   42.2650   23.5870   34.7160 H   0  0  0  0  0  0  0  0  0  0  0  0
   42.9440   21.8690   36.3460 H   0  0  0  0  0  0  0  0  0  0  0  0
   41.3190   21.2210   38.1580 H   0  0  0  0  0  0  0  0  0  0  0  0
  1  2  2  0  0  0  0
  1 15  1  0  0  0  0
  2  6  1  0  0  0  0
  3  7  1  0  0  0  0
  3  2  1  0  0  0  0
  4  5  1  0  0  0  0
  4  3  2  0  0  0  0
  5  1  1  0  0  0  0
  8  4  1  0  0  0  0
  9  8  2  0  0  0  0
 10  9  1  0  0  0  0
 11 10  1  0  0  0  0
 12 10  2  0  0  0  0
 12 13  1  0  0  0  0
 13 14  2  0  0  0  0
 14  8  1  0  0  0  0
 15 16  2  0  0  0  0
 17 22  2  0  0  0  0
 17 18  1  0  0  0  0
 18 19  2  0  0  0  0
 19 25  1  0  0  0  0
 20 19  1  0  0  0  0
 21 15  1  0  0  0  0
 21 20  2  0  0  0  0
 22 21  1  0  0  0  0
 23 17  1  0  0  0  0
 24 18  1  0  0  0  0
M  END
>  <minimizedAffinity>
-5.00909519

$$$$

 OpenBabel03272508463D

 25 27  0  0  0  0  0  0  0  0999 V2000
   37.1370   26.6320   33.8130 C   0  0  0  0  0  0  0  0  0  0  0  0
   37.3830   27.6660   34.6880 C   0  0  0  0  0  0  0  0  0  0  0  0
   37.9990   27.0350   35.7670 C   0  0  0  0  0  0  0  0  0  0  0  0
   38.0920   25.6930   35.4980 C   0  0  0  0  0  0  0  0  0  0  0  0
   37.5670   25.4700   34.3130 O   0  0  0  0  0  0  0  0  0  0  0  0
   37.1640   28.7130   34.5890 H   0  0  0  0  0  0  0  0  0  0  0  0
   38.3530   27.5190   36.6820 H   0  0  0  0  0  0  0  0  0  0  0  0
   38.6640   24.6480   36.3410 C   0  0  0  0  0  0  0  0  0  0  0  0
   38.1100   24.4010   37.5820 C   0  0  0  0  0  3  0  0  0  0  0  0
   38.6920   23.3920   38.3520 C   0  0  0  0  0  0  0  0  0  0  0  0
   38.2210   23.2310   39.3260 H   0  0  0  0  0  0  0  0  0  0  0  0
   39.7480   22.7000   37.8860 N   0  0  0  0  0  0  0  0  0  0  0  0
   40.2740   22.9580   36.6700 C   0  0  0  0  0  3  0  0  0  0  0  0
   39.7330   23.9360   35.8900 N   0  0  0  0  0  0  0  0  0  0  0  0
   36.4900   26.7830   32.4990 C   0  0  0  0  0  0  0  0  0  0  0  0
   36.1470   25.7310   31.8930 O   0  0  0  0  0  0  0  0  0  0  0  0
   37.0410   29.8110   30.5770 C   0  0  0  0  0  0  0  0  0  0  0  0
   35.9240   30.5890   30.8590 C   0  0  0  0  0  0  0  0  0  0  0  0
   34.9580   30.0770   31.7220 C   0  0  0  0  0  0  0  0  0  0  0  0
   35.1760   28.8420   32.2340 N   0  0  0  0  0  0  0  0  0  0  0  0
   36.2670   28.1090   31.9430 C   0  0  0  0  0  0  0  0  0  0  0  0
   37.1920   28.6030   31.1150 N   0  0  0  0  0  0  0  0  0  0  0  0
   37.8160   30.1720   29.9110 H   0  0  0  0  0  0  0  0  0  0  0  0
   35.8470   31.5730   30.3920 H   0  0  0  0  0  0  0  0  0  0  0  0
   34.0820   30.6750   31.9490 H   0  0  0  0  0  0  0  0  0  0  0  0
  1  5  1  0  0  0  0
  1  2  2  0  0  0  0
  2  3  1  0  0  0  0
  3  7  1  0  0  0  0
  4  3  2  0  0  0  0
  4  8  1  0  0  0  0
  5  4  1  0  0  0  0
  6  2  1  0  0  0  0
  8  9  1  0  0  0  0
  9 10  2  0  0  0  0
 10 11  1  0  0  0  0
 12 10  1  0  0  0  0
 13 12  2  0  0  0  0
 14  8  2  0  0  0  0
 14 13  1  0  0  0  0
 15  1  1  0  0  0  0
 16 15  2  0  0  0  0
 17 18  2  0  0  0  0
 17 22  1  0  0  0  0
 18 19  1  0  0  0  0
 19 25  1  0  0  0  0
 19 20  2  0  0  0  0
 21 20  1  0  0  0  0
 21 15  1  0  0  0  0
 22 21  2  0  0  0  0
 23 17  1  0  0  0  0
 24 18  1  0  0  0  0
M  END
>  <minimizedAffinity>
-4.98795176

$$$$

 OpenBabel03272508463D

 25 27  0  0  0  0  0  0  0  0999 V2000
   37.1810   26.4900   33.6930 C   0  0  0  0  0  0  0  0  0  0  0  0
   37.3620   27.5480   34.5550 C   0  0  0  0  0  0  0  0  0  0  0  0
   37.9510   26.9570   35.6710 C   0  0  0  0  0  0  0  0  0  0  0  0
   38.0930   25.6130   35.4340 C   0  0  0  0  0  0  0  0  0  0  0  0
   37.6220   25.3510   34.2340 O   0  0  0  0  0  0  0  0  0  0  0  0
   37.1170   28.5850   34.4250 H   0  0  0  0  0  0  0  0  0  0  0  0
   38.2550   27.4700   36.5890 H   0  0  0  0  0  0  0  0  0  0  0  0
   38.6600   24.6030   36.3220 C   0  0  0  0  0  0  0  0  0  0  0  0
   38.0730   24.3770   37.5510 C   0  0  0  0  0  3  0  0  0  0  0  0
   38.6510   23.4000   38.3650 C   0  0  0  0  0  0  0  0  0  0  0  0
   38.1540   23.2550   39.3290 H   0  0  0  0  0  0  0  0  0  0  0  0
   39.7360   22.7190   37.9500 N   0  0  0  0  0  0  0  0  0  0  0  0
   40.2920   22.9560   36.7430 C   0  0  0  0  0  3  0  0  0  0  0  0
   39.7560   23.9010   35.9220 N   0  0  0  0  0  0  0  0  0  0  0  0
   36.5830   26.5950   32.3510 C   0  0  0  0  0  0  0  0  0  0  0  0
   36.0490   25.5600   31.8680 O   0  0  0  0  0  0  0  0  0  0  0  0
   35.5800   29.8740   31.1650 C   0  0  0  0  0  0  0  0  0  0  0  0
   36.6170   30.2510   30.3200 C   0  0  0  0  0  0  0  0  0  0  0  0
   37.6840   29.3750   30.1460 C   0  0  0  0  0  0  0  0  0  0  0  0
   37.6390   28.2000   30.8200 N   0  0  0  0  0  0  0  0  0  0  0  0
   36.6210   27.8600   31.6330 C   0  0  0  0  0  0  0  0  0  0  0  0
   35.5980   28.7030   31.7970 N   0  0  0  0  0  0  0  0  0  0  0  0
   34.7290   30.5270   31.3280 H   0  0  0  0  0  0  0  0  0  0  0  0
   36.5540   31.2230   29.8250 H   0  0  0  0  0  0  0  0  0  0  0  0
   38.5000   29.6590   29.4900 H   0  0  0  0  0  0  0  0  0  0  0  0
  1  5  1  0  0  0  0
  1  2  2  0  0  0  0
  2  3  1  0  0  0  0
  3  7  1  0  0  0  0
  4  3  2  0  0  0  0
  4  8  1  0  0  0  0
  5  4  1  0  0  0  0
  6  2  1  0  0  0  0
  8  9  1  0  0  0  0
  9 10  2  0  0  0  0
 10 11  1  0  0  0  0
 12 10  1  0  0  0  0
 13 12  2  0  0  0  0
 14  8  2  0  0  0  0
 14 13  1  0  0  0  0
 15  1  1  0  0  0  0
 16 15  2  0  0  0  0
 17 23  1  0  0  0  0
 17 22  1  0  0  0  0
 18 17  2  0  0  0  0
 19 18  1  0  0  0  0
 19 20  2  0  0  0  0
 20 21  1  0  0  0  0
 21 22  2  0  0  0  0
 21 15  1  0  0  0  0
 24 18  1  0  0  0  0
 25 19  1  0  0  0  0
M  END
>  <minimizedAffinity>
-4.98765421

$$$$

 OpenBabel03272508463D

 25 27  0  0  0  0  0  0  0  0999 V2000
   37.9620   23.9560   33.6330 C   0  0  0  0  0  0  0  0  0  0  0  0
   37.2880   24.5860   32.6110 C   0  0  0  0  0  0  0  0  0  0  0  0
   36.6350   23.5390   31.9630 C   0  0  0  0  0  0  0  0  0  0  0  0
   36.9370   22.3660   32.6050 C   0  0  0  0  0  0  0  0  0  0  0  0
   37.7390   22.6380   33.6110 O   0  0  0  0  0  0  0  0  0  0  0  0
   37.2560   25.6280   32.3530 H   0  0  0  0  0  0  0  0  0  0  0  0
   35.9860   23.6280   31.0850 H   0  0  0  0  0  0  0  0  0  0  0  0
   36.4780   21.0210   32.2750 C   0  0  0  0  0  0  0  0  0  0  0  0
   35.7980   20.2860   33.2260 C   0  0  0  0  0  3  0  0  0  0  0  0
   35.3780   19.0040   32.8630 C   0  0  0  0  0  0  0  0  0  0  0  0
   34.8440   18.4590   33.6470 H   0  0  0  0  0  0  0  0  0  0  0  0
   35.6360   18.5240   31.6320 N   0  0  0  0  0  0  0  0  0  0  0  0
   36.3020   19.2600   30.7180 C   0  0  0  0  0  3  0  0  0  0  0  0
   36.7280   20.5150   31.0360 N   0  0  0  0  0  0  0  0  0  0  0  0
   38.8130   24.6390   34.6210 C   0  0  0  0  0  0  0  0  0  0  0  0
   39.4910   25.6260   34.2230 O   0  0  0  0  0  0  0  0  0  0  0  0
   37.9310   24.2660   38.1200 C   0  0  0  0  0  0  0  0  0  0  0  0
   38.8580   23.3470   38.5980 C   0  0  0  0  0  0  0  0  0  0  0  0
   39.8080   22.8400   37.7150 C   0  0  0  0  0  0  0  0  0  0  0  0
   39.7620   23.2810   36.4350 N   0  0  0  0  0  0  0  0  0  0  0  0
   38.8520   24.1720   35.9980 C   0  0  0  0  0  0  0  0  0  0  0  0
   37.9430   24.6570   36.8480 N   0  0  0  0  0  0  0  0  0  0  0  0
   37.1750   24.6850   38.7750 H   0  0  0  0  0  0  0  0  0  0  0  0
   38.8060   23.0590   39.6510 H   0  0  0  0  0  0  0  0  0  0  0  0
   40.5360   22.1220   38.0770 H   0  0  0  0  0  0  0  0  0  0  0  0
  1 15  1  0  0  0  0
  2  1  2  0  0  0  0
  3  4  2  0  0  0  0
  3  2  1  0  0  0  0
  4  5  1  0  0  0  0
  5  1  1  0  0  0  0
  6  2  1  0  0  0  0
  7  3  1  0  0  0  0
  8  4  1  0  0  0  0
  8  9  1  0  0  0  0
 10  9  2  0  0  0  0
 10 11  1  0  0  0  0
 12 10  1  0  0  0  0
 13 14  1  0  0  0  0
 13 12  2  0  0  0  0
 14  8  2  0  0  0  0
 15 21  1  0  0  0  0
 16 15  2  0  0  0  0
 17 18  1  0  0  0  0
 17 23  1  0  0  0  0
 18 24  1  0  0  0  0
 19 25  1  0  0  0  0
 19 18  2  0  0  0  0
 20 19  1  0  0  0  0
 21 20  2  0  0  0  0
 21 22  1  0  0  0  0
 22 17  2  0  0  0  0
M  END
>  <minimizedAffinity>
-4.81846666

$$$$

 OpenBabel03272508463D

 25 27  0  0  0  0  0  0  0  0999 V2000
   38.3160   25.2180   33.9400 C   0  0  0  0  0  0  0  0  0  0  0  0
   39.5090   25.8900   33.8040 C   0  0  0  0  0  0  0  0  0  0  0  0
   39.1430   27.0710   33.1610 C   0  0  0  0  0  0  0  0  0  0  0  0
   37.7880   27.0530   32.9460 C   0  0  0  0  0  0  0  0  0  0  0  0
   37.3070   25.9260   33.4250 O   0  0  0  0  0  0  0  0  0  0  0  0
   40.4970   25.5990   34.1100 H   0  0  0  0  0  0  0  0  0  0  0  0
   39.8160   27.8830   32.8700 H   0  0  0  0  0  0  0  0  0  0  0  0
   36.9700   28.0780   32.3060 C   0  0  0  0  0  0  0  0  0  0  0  0
   37.3250   28.5420   31.0550 C   0  0  0  0  0  3  0  0  0  0  0  0
   36.5110   29.5230   30.4830 C   0  0  0  0  0  0  0  0  0  0  0  0
   36.8300   29.8610   29.4930 H   0  0  0  0  0  0  0  0  0  0  0  0
   35.4300   29.9820   31.1400 N   0  0  0  0  0  0  0  0  0  0  0  0
   35.1010   29.5130   32.3620 C   0  0  0  0  0  3  0  0  0  0  0  0
   35.8710   28.5560   32.9530 N   0  0  0  0  0  0  0  0  0  0  0  0
   38.1660   23.8950   34.5700 C   0  0  0  0  0  0  0  0  0  0  0  0
   37.8160   22.9340   33.8320 O   0  0  0  0  0  0  0  0  0  0  0  0
   39.7510   22.8070   37.6470 C   0  0  0  0  0  0  0  0  0  0  0  0
   38.9650   23.3760   38.6420 C   0  0  0  0  0  0  0  0  0  0  0  0
   37.8690   24.1480   38.2640 C   0  0  0  0  0  0  0  0  0  0  0  0
   37.6420   24.2940   36.9360 N   0  0  0  0  0  0  0  0  0  0  0  0
   38.4200   23.7320   35.9930 C   0  0  0  0  0  0  0  0  0  0  0  0
   39.4700   22.9910   36.3590 N   0  0  0  0  0  0  0  0  0  0  0  0
   40.6120   22.1990   37.8980 H   0  0  0  0  0  0  0  0  0  0  0  0
   39.2370   23.1950   39.6840 H   0  0  0  0  0  0  0  0  0  0  0  0
   37.2490   24.5980   39.0320 H   0  0  0  0  0  0  0  0  0  0  0  0
  1 15  1  0  0  0  0
  2  1  2  0  0  0  0
  2  6  1  0  0  0  0
  3  2  1  0  0  0  0
  4  3  2  0  0  0  0
  4  5  1  0  0  0  0
  5  1  1  0  0  0  0
  7  3  1  0  0  0  0
  8  4  1  0  0  0  0
  8 14  1  0  0  0  0
  9  8  2  0  0  0  0
 10  9  1  0  0  0  0
 10 12  2  0  0  0  0
 11 10  1  0  0  0  0
 12 13  1  0  0  0  0
 13 14  2  0  0  0  0
 15 21  1  0  0  0  0
 16 15  2  0  0  0  0
 17 23  1  0  0  0  0
 17 18  1  0  0  0  0
 18 24  1  0  0  0  0
 19 18  2  0  0  0  0
 19 25  1  0  0  0  0
 20 19  1  0  0  0  0
 21 22  1  0  0  0  0
 21 20  2  0  0  0  0
 22 17  2  0  0  0  0
M  END
>  <minimizedAffinity>
-4.81251192

$$$$

 OpenBabel03272508463D

 25 27  0  0  0  0  0  0  0  0999 V2000
   37.5920   22.4310   36.0550 C   0  0  0  0  0  0  0  0  0  0  0  0
   36.5290   21.8070   36.6660 C   0  0  0  0  0  0  0  0  0  0  0  0
   35.9490   21.0720   35.6340 C   0  0  0  0  0  0  0  0  0  0  0  0
   36.6700   21.2820   34.4850 C   0  0  0  0  0  0  0  0  0  0  0  0
   37.6580   22.1060   34.7610 O   0  0  0  0  0  0  0  0  0  0  0  0
   36.2010   21.8560   37.6880 H   0  0  0  0  0  0  0  0  0  0  0  0
   35.0660   20.4300   35.7140 H   0  0  0  0  0  0  0  0  0  0  0  0
   36.4300   20.7180   33.1620 C   0  0  0  0  0  0  0  0  0  0  0  0
   35.5480   19.6640   33.0260 C   0  0  0  0  0  3  0  0  0  0  0  0
   35.3500   19.1580   31.7390 C   0  0  0  0  0  0  0  0  0  0  0  0
   34.6450   18.3240   31.6790 H   0  0  0  0  0  0  0  0  0  0  0  0
   36.0020   19.6900   30.6880 N   0  0  0  0  0  0  0  0  0  0  0  0
   36.8590   20.7210   30.8440 C   0  0  0  0  0  3  0  0  0  0  0  0
   37.0780   21.2410   32.0840 N   0  0  0  0  0  0  0  0  0  0  0  0
   38.5350   23.3360   36.7340 C   0  0  0  0  0  0  0  0  0  0  0  0
   39.0310   22.9480   37.8260 O   0  0  0  0  0  0  0  0  0  0  0  0
   40.2490   25.8340   34.7380 C   0  0  0  0  0  0  0  0  0  0  0  0
   39.5440   27.0040   34.9960 C   0  0  0  0  0  0  0  0  0  0  0  0
   38.4600   26.9480   35.8670 C   0  0  0  0  0  0  0  0  0  0  0  0
   38.1620   25.7430   36.4110 N   0  0  0  0  0  0  0  0  0  0  0  0
   38.8630   24.6250   36.1440 C   0  0  0  0  0  0  0  0  0  0  0  0
   39.9030   24.6820   35.3070 N   0  0  0  0  0  0  0  0  0  0  0  0
   41.1000   25.8350   34.0660 H   0  0  0  0  0  0  0  0  0  0  0  0
   39.8680   27.9240   34.5040 H   0  0  0  0  0  0  0  0  0  0  0  0
   37.9010   27.8540   36.0750 H   0  0  0  0  0  0  0  0  0  0  0  0
  1  2  2  0  0  0  0
  1 15  1  0  0  0  0
  2  6  1  0  0  0  0
  3  7  1  0  0  0  0
  3  2  1  0  0  0  0
  4  5  1  0  0  0  0
  4  3  2  0  0  0  0
  5  1  1  0  0  0  0
  8  4  1  0  0  0  0
  9  8  1  0  0  0  0
 10  9  2  0  0  0  0
 11 10  1  0  0  0  0
 12 13  2  0  0  0  0
 12 10  1  0  0  0  0
 13 14  1  0  0  0  0
 14  8  2  0  0  0  0
 15 16  2  0  0  0  0
 17 18  2  0  0  0  0
 17 22  1  0  0  0  0
 18 19  1  0  0  0  0
 19 25  1  0  0  0  0
 19 20  2  0  0  0  0
 21 20  1  0  0  0  0
 21 15  1  0  0  0  0
 22 21  2  0  0  0  0
 23 17  1  0  0  0  0
 24 18  1  0  0  0  0
M  END
>  <minimizedAffinity>
-4.74590826

$$$$

 OpenBabel03272508463D

 25 27  0  0  0  0  0  0  0  0999 V2000
   36.4170   26.0370   32.0230 C   0  0  0  0  0  0  0  0  0  0  0  0
   35.3470   26.0760   31.1580 C   0  0  0  0  0  0  0  0  0  0  0  0
   35.1020   24.7310   30.8870 C   0  0  0  0  0  0  0  0  0  0  0  0
   36.0080   23.9700   31.5800 C   0  0  0  0  0  0  0  0  0  0  0  0
   36.7930   24.7770   32.2600 O   0  0  0  0  0  0  0  0  0  0  0  0
   34.8110   26.9220   30.7690 H   0  0  0  0  0  0  0  0  0  0  0  0
   34.3190   24.3360   30.2310 H   0  0  0  0  0  0  0  0  0  0  0  0
   36.1280   22.5160   31.5990 C   0  0  0  0  0  0  0  0  0  0  0  0
   35.1650   21.7670   32.2460 C   0  0  0  0  0  3  0  0  0  0  0  0
   35.3220   20.3790   32.2360 C   0  0  0  0  0  0  0  0  0  0  0  0
   34.5380   19.8260   32.7610 H   0  0  0  0  0  0  0  0  0  0  0  0
   36.3760   19.8150   31.6160 N   0  0  0  0  0  0  0  0  0  0  0  0
   37.3050   20.5670   30.9880 C   0  0  0  0  0  3  0  0  0  0  0  0
   37.1850   21.9240   30.9770 N   0  0  0  0  0  0  0  0  0  0  0  0
   37.0620   27.2220   32.6110 C   0  0  0  0  0  0  0  0  0  0  0  0
   36.4240   28.3100   32.5770 O   0  0  0  0  0  0  0  0  0  0  0  0
   39.6550   26.8360   35.1180 C   0  0  0  0  0  0  0  0  0  0  0  0
   40.8350   26.9050   34.3870 C   0  0  0  0  0  0  0  0  0  0  0  0
   40.7530   27.0870   33.0090 C   0  0  0  0  0  0  0  0  0  0  0  0
   39.5140   27.1850   32.4690 N   0  0  0  0  0  0  0  0  0  0  0  0
   38.3870   27.1150   33.2010 C   0  0  0  0  0  0  0  0  0  0  0  0
   38.4690   26.9410   34.5230 N   0  0  0  0  0  0  0  0  0  0  0  0
   39.6740   26.6960   36.1930 H   0  0  0  0  0  0  0  0  0  0  0  0
   41.7830   26.8140   34.9220 H   0  0  0  0  0  0  0  0  0  0  0  0
   41.6670   27.1410   32.4270 H   0  0  0  0  0  0  0  0  0  0  0  0
  1  5  1  0  0  0  0
  1 15  1  0  0  0  0
  2  1  2  0  0  0  0
  3  2  1  0  0  0  0
  3  4  2  0  0  0  0
  4  8  1  0  0  0  0
  4  5  1  0  0  0  0
  6  2  1  0  0  0  0
  7  3  1  0  0  0  0
  8  9  1  0  0  0  0
 10  9  2  0  0  0  0
 10 11  1  0  0  0  0
 12 10  1  0  0  0  0
 13 12  2  0  0  0  0
 14 13  1  0  0  0  0
 14  8  2  0  0  0  0
 15 21  1  0  0  0  0
 16 15  2  0  0  0  0
 17 23  1  0  0  0  0
 18 24  1  0  0  0  0
 18 17  2  0  0  0  0
 19 18  1  0  0  0  0
 20 19  2  0  0  0  0
 20 21  1  0  0  0  0
 21 22  2  0  0  0  0
 22 17  1  0  0  0  0
 25 19  1  0  0  0  0
M  END
>  <minimizedAffinity>
-4.73567915

$$$$

 OpenBabel03272508463D

 25 27  0  0  0  0  0  0  0  0999 V2000
   38.4410   25.2210   35.8750 C   0  0  0  0  0  0  0  0  0  0  0  0
   37.7230   24.5830   36.8610 C   0  0  0  0  0  0  0  0  0  0  0  0
   38.4890   23.4530   37.1370 C   0  0  0  0  0  0  0  0  0  0  0  0
   39.5980   23.4640   36.3300 C   0  0  0  0  0  0  0  0  0  0  0  0
   39.5500   24.5410   35.5750 O   0  0  0  0  0  0  0  0  0  0  0  0
   36.7940   24.8650   37.3230 H   0  0  0  0  0  0  0  0  0  0  0  0
   38.2550   22.6780   37.8740 H   0  0  0  0  0  0  0  0  0  0  0  0
   40.6750   22.4820   36.2750 C   0  0  0  0  0  0  0  0  0  0  0  0
   41.0850   21.8620   37.4380 C   0  0  0  0  0  3  0  0  0  0  0  0
   42.1190   20.9290   37.3350 C   0  0  0  0  0  0  0  0  0  0  0  0
   42.4120   20.4640   38.2810 H   0  0  0  0  0  0  0  0  0  0  0  0
   42.6790   20.6580   36.1410 N   0  0  0  0  0  0  0  0  0  0  0  0
   42.2610   21.2750   35.0150 C   0  0  0  0  0  3  0  0  0  0  0  0
   41.2550   22.1920   35.0770 N   0  0  0  0  0  0  0  0  0  0  0  0
   38.0430   26.4870   35.2350 C   0  0  0  0  0  0  0  0  0  0  0  0
   38.3250   27.5580   35.8380 O   0  0  0  0  0  0  0  0  0  0  0  0
   36.2110   27.6720   32.3370 C   0  0  0  0  0  0  0  0  0  0  0  0
   36.0410   26.5290   31.5640 C   0  0  0  0  0  0  0  0  0  0  0  0
   36.5590   25.3260   32.0340 C   0  0  0  0  0  0  0  0  0  0  0  0
   37.2010   25.3500   33.2270 N   0  0  0  0  0  0  0  0  0  0  0  0
   37.3520   26.4720   33.9560 C   0  0  0  0  0  0  0  0  0  0  0  0
   36.8530   27.6250   33.5010 N   0  0  0  0  0  0  0  0  0  0  0  0
   35.8220   28.6290   32.0080 H   0  0  0  0  0  0  0  0  0  0  0  0
   35.5060   26.6200   30.6150 H   0  0  0  0  0  0  0  0  0  0  0  0
   36.4340   24.4280   31.4390 H   0  0  0  0  0  0  0  0  0  0  0  0
  1  2  2  0  0  0  0
  2  3  1  0  0  0  0
  2  6  1  0  0  0  0
  3  7  1  0  0  0  0
  4  3  2  0  0  0  0
  5  1  1  0  0  0  0
  5  4  1  0  0  0  0
  8  4  1  0  0  0  0
  8  9  1  0  0  0  0
 10  9  2  0  0  0  0
 10 11  1  0  0  0  0
 12 10  1  0  0  0  0
 13 14  1  0  0  0  0
 13 12  2  0  0  0  0
 14  8  2  0  0  0  0
 15 16  2  0  0  0  0
 15  1  1  0  0  0  0
 17 22  1  0  0  0  0
 18 19  1  0  0  0  0
 18 17  2  0  0  0  0
 19 20  2  0  0  0  0
 20 21  1  0  0  0  0
 21 15  1  0  0  0  0
 22 21  2  0  0  0  0
 23 17  1  0  0  0  0
 24 18  1  0  0  0  0
 25 19  1  0  0  0  0
M  END
>  <minimizedAffinity>
-4.68148136

$$$$
