
 OpenBabel03272505313D

 38 41  0  0  0  0  0  0  0  0999 V2000
   37.3400   31.1400   47.1190 N   0  0  0  0  0  0  0  0  0  0  0  0
   36.6820   30.9200   45.9520 C   0  0  0  0  0  0  0  0  0  0  0  0
   37.1150   31.4520   44.7450 C   0  0  0  0  0  0  0  0  0  0  0  0
   38.2760   32.2410   44.7620 C   0  0  0  0  0  0  0  0  0  0  0  0
   38.7100   32.7440   43.7030 O   0  0  0  0  0  0  0  0  0  0  0  0
   38.9370   32.4580   45.9500 N   0  0  0  0  0  0  0  0  0  0  0  0
   38.4240   31.8950   47.0390 C   0  0  0  0  0  0  0  0  0  0  0  0
   39.0540   32.1180   48.0920 O   0  0  0  0  0  0  0  0  0  0  0  0
   35.7840   30.3140   45.9160 H   0  0  0  0  0  0  0  0  0  0  0  0
   37.2830   29.4090   50.3980 C   0  0  0  0  0  0  0  0  0  0  0  0
   37.7390   29.9550   49.1890 C   0  0  0  0  0  0  0  0  0  0  0  0
   36.8910   30.5980   48.3150 C   0  0  0  0  0  0  0  0  0  0  0  0
   35.6080   30.6740   48.6840 N   0  0  0  0  0  0  0  0  0  0  0  0
   35.1200   30.1610   49.8460 C   0  0  0  0  0  0  0  0  0  0  0  0
   35.9780   29.5270   50.6950 N   0  0  0  0  0  0  0  0  0  0  0  0
   37.9270   28.9040   51.0890 H   0  0  0  0  0  0  0  0  0  0  0  0
   38.7790   29.8490   48.9710 H   0  0  0  0  0  0  0  0  0  0  0  0
   34.0630   30.3020   50.0000 H   0  0  0  0  0  0  0  0  0  0  0  0
   36.4500   31.2480   43.4730 C   0  0  0  0  0  0  0  0  0  0  0  0
   36.7140   30.1870   42.6420 C   0  0  0  0  0  0  0  0  0  0  0  0
   36.1020   29.9620   41.4290 C   0  0  0  0  0  0  0  0  0  0  0  0
   35.1330   30.8820   40.9980 C   0  0  0  0  0  0  0  0  0  0  0  0
   34.9020   31.9340   41.8660 C   0  0  0  0  0  0  0  0  0  0  0  0
   35.5280   32.0940   43.0280 N   0  0  0  0  0  0  0  0  0  0  0  0
   37.4590   29.4450   42.9330 H   0  0  0  0  0  0  0  0  0  0  0  0
   36.3360   29.1130   40.7990 H   0  0  0  0  0  0  0  0  0  0  0  0
   34.6210   30.7660   40.0660 H   0  0  0  0  0  0  0  0  0  0  0  0
   33.9020   32.9190   41.4650 C   0  0  0  0  0  0  0  0  0  0  0  0
   33.4240   33.8680   42.3640 C   0  0  0  0  0  0  0  0  0  0  0  0
   32.4780   34.7980   41.9770 C   0  0  0  0  0  0  0  0  0  0  0  0
   32.1650   35.5040   42.7620 H   0  0  0  0  0  0  0  0  0  0  0  0
   31.9860   34.8170   40.7120 N   0  0  0  0  0  0  0  0  0  0  0  0
   32.4630   33.8880   39.8570 C   0  0  0  0  0  0  0  0  0  0  0  0
   33.3860   32.9760   40.2240 N   0  0  0  0  0  0  0  0  0  0  0  0
   40.1290   33.2680   45.9660 C   0  0  0  0  0  0  0  0  0  0  0  0
   40.0650   34.2440   45.0260 F   0  0  0  0  0  0  0  0  0  0  0  0
   41.2860   32.5450   45.6960 F   0  0  0  0  0  0  0  0  0  0  0  0
   40.2350   33.8830   47.2180 F   0  0  0  0  0  0  0  0  0  0  0  0
  1 12  1  0  0  0  0
  2  1  1  0  0  0  0
  3  4  1  0  0  0  0
  3  2  2  0  0  0  0
  4  6  1  0  0  0  0
  5  4  2  0  0  0  0
  6 35  1  0  0  0  0
  6  7  1  0  0  0  0
  7  1  1  0  0  0  0
  7  8  2  0  0  0  0
  9  2  1  0  0  0  0
 10 15  1  0  0  0  0
 10 16  1  0  0  0  0
 11 10  2  0  0  0  0
 12 13  2  0  0  0  0
 12 11  1  0  0  0  0
 13 14  1  0  0  0  0
 14 18  1  0  0  0  0
 14 15  2  0  0  0  0
 17 11  1  0  0  0  0
 19  3  1  0  0  0  0
 20 25  1  0  0  0  0
 20 19  2  0  0  0  0
 21 20  1  0  0  0  0
 22 21  2  0  0  0  0
 22 23  1  0  0  0  0
 23 24  2  0  0  0  0
 24 19  1  0  0  0  0
 26 21  1  0  0  0  0
 27 22  1  0  0  0  0
 28 23  1  0  0  0  0
 28 29  1  0  0  0  0
 30 29  2  0  0  0  0
 30 31  1  0  0  0  0
 32 30  1  0  0  0  0
 33 34  1  0  0  0  0
 33 32  2  0  0  0  0
 34 28  2  0  0  0  0
 35 38  1  0  0  0  0
 36 35  1  0  0  0  0
 37 35  1  0  0  0  0
M  END
>  <minimizedAffinity>
-6.47795534

>  <minimizedRMSD>
0.476769656

$$$$
