
 OpenBabel03272501373D

 34 37  0  0  1  0  0  0  0  0999 V2000
   37.5200   26.3260   34.7000 C   0  0  2  0  0  0  0  0  0  0  0  0
   39.0210   26.5770   34.8020 C   0  0  0  0  0  0  0  0  0  0  0  0
   38.4250   25.1660   34.8480 C   0  0  1  0  0  0  0  0  0  0  0  0
   36.7890   26.3660   35.4940 H   0  0  0  0  0  0  0  0  0  0  0  0
   39.5850   26.8630   33.9150 H   0  0  0  0  0  0  0  0  0  0  0  0
   39.3570   27.0180   35.7720 H   0  0  0  0  0  0  0  0  0  0  0  0
   38.6340   24.5540   33.9660 H   0  0  0  0  0  0  0  0  0  0  0  0
   38.6010   24.5040   36.1510 C   0  0  0  0  0  0  0  0  0  0  0  0
   37.8080   24.8360   37.2480 C   0  0  0  0  0  0  0  0  0  0  0  0
   38.0380   24.1880   38.4360 C   0  0  0  0  0  0  0  0  0  0  0  0
   39.0110   23.2350   38.5760 C   0  0  0  0  0  0  0  0  0  0  0  0
   39.7860   22.9240   37.4650 C   0  0  0  0  0  0  0  0  0  0  0  0
   39.5580   23.5600   36.3060 N   0  0  0  0  0  0  0  0  0  0  0  0
   37.0320   25.5880   37.1620 H   0  0  0  0  0  0  0  0  0  0  0  0
   37.4520   24.4050   39.3240 H   0  0  0  0  0  0  0  0  0  0  0  0
   39.2740   22.6700   39.4520 H   0  0  0  0  0  0  0  0  0  0  0  0
   40.5850   22.1920   37.4430 H   0  0  0  0  0  0  0  0  0  0  0  0
   36.9880   26.6990   33.3510 C   0  0  0  0  0  0  0  0  0  0  0  0
   36.9360   25.8100   32.4600 O   0  0  0  0  0  0  0  0  0  0  0  0
   36.2960   30.0140   31.7550 C   0  0  0  0  0  0  0  0  0  0  0  0
   36.7280   28.6970   31.9240 C   0  0  0  0  0  0  0  0  0  0  0  0
   36.5480   28.0700   33.1340 C   0  0  0  0  0  0  0  0  0  0  0  0
   35.9520   28.7790   34.1120 N   0  0  0  0  0  0  0  0  0  0  0  0
   35.5380   30.0480   33.9470 C   0  0  0  0  0  0  0  0  0  0  0  0
   35.7020   30.6820   32.7740 N   0  0  0  0  0  0  0  0  0  0  0  0
   36.4610   30.4660   30.7730 H   0  0  0  0  0  0  0  0  0  0  0  0
   37.1940   28.1800   31.1190 H   0  0  0  0  0  0  0  0  0  0  0  0
   34.9070   30.7050   35.0890 C   0  0  0  0  0  0  0  0  0  0  0  0
   35.6420   31.5540   35.8920 C   0  0  0  0  0  3  0  0  0  0  0  0
   34.9420   32.1300   36.9570 C   0  0  0  0  0  0  0  0  0  0  0  0
   35.4360   32.8170   37.6500 H   0  0  0  0  0  0  0  0  0  0  0  0
   33.6500   31.8790   37.1850 N   0  0  0  0  0  0  0  0  0  0  0  0
   32.9610   31.0470   36.3840 C   0  0  0  0  0  3  0  0  0  0  0  0
   33.6040   30.4610   35.3310 N   0  0  0  0  0  0  0  0  0  0  0  0
  1  2  1  0  0  0  0
  1  3  1  0  0  0  0
  1  4  1  1  0  0  0
  2  3  1  0  0  0  0
  2  6  1  0  0  0  0
  3  7  1  6  0  0  0
  3  8  1  0  0  0  0
  5  2  1  0  0  0  0
  8 13  2  0  0  0  0
  8  9  1  0  0  0  0
  9 10  2  0  0  0  0
 10 11  1  0  0  0  0
 10 15  1  0  0  0  0
 11 16  1  0  0  0  0
 12 11  2  0  0  0  0
 13 12  1  0  0  0  0
 14  9  1  0  0  0  0
 17 12  1  0  0  0  0
 18  1  1  0  0  0  0
 19 18  2  0  0  0  0
 20 21  2  0  0  0  0
 20 25  1  0  0  0  0
 21 22  1  0  0  0  0
 22 18  1  0  0  0  0
 22 23  2  0  0  0  0
 24 23  1  0  0  0  0
 24 28  1  0  0  0  0
 25 24  2  0  0  0  0
 26 20  1  0  0  0  0
 27 21  1  0  0  0  0
 28 34  2  0  0  0  0
 28 29  1  0  0  0  0
 29 30  2  0  0  0  0
 30 32  1  0  0  0  0
 30 31  1  0  0  0  0
 33 32  2  0  0  0  0
 34 33  1  0  0  0  0
M  END
>  <minimizedAffinity>
-6.11068201

$$$$

 OpenBabel03272501373D

 34 37  0  0  1  0  0  0  0  0999 V2000
   38.1350   26.1920   34.4720 C   0  0  2  0  0  0  0  0  0  0  0  0
   39.5460   26.5480   34.9270 C   0  0  0  0  0  0  0  0  0  0  0  0
   39.0530   25.0980   34.8540 C   0  0  1  0  0  0  0  0  0  0  0  0
   37.2330   26.1820   35.0650 H   0  0  0  0  0  0  0  0  0  0  0  0
   40.2860   26.8710   34.1960 H   0  0  0  0  0  0  0  0  0  0  0  0
   39.6080   27.0120   35.9410 H   0  0  0  0  0  0  0  0  0  0  0  0
   39.5100   24.5010   34.0580 H   0  0  0  0  0  0  0  0  0  0  0  0
   38.9550   24.4520   36.1720 C   0  0  0  0  0  0  0  0  0  0  0  0
   37.9820   24.8300   37.0950 C   0  0  0  0  0  0  0  0  0  0  0  0
   37.9580   24.1930   38.3120 C   0  0  0  0  0  0  0  0  0  0  0  0
   38.8500   23.2080   38.6420 C   0  0  0  0  0  0  0  0  0  0  0  0
   39.8090   22.8520   37.7010 C   0  0  0  0  0  0  0  0  0  0  0  0
   39.8280   23.4770   36.5140 N   0  0  0  0  0  0  0  0  0  0  0  0
   37.2650   25.6070   36.8570 H   0  0  0  0  0  0  0  0  0  0  0  0
   37.2240   24.4450   39.0700 H   0  0  0  0  0  0  0  0  0  0  0  0
   38.9210   22.6490   39.5580 H   0  0  0  0  0  0  0  0  0  0  0  0
   40.5700   22.0920   37.8380 H   0  0  0  0  0  0  0  0  0  0  0  0
   37.9190   26.5260   33.0270 C   0  0  0  0  0  0  0  0  0  0  0  0
   38.6150   27.4420   32.5140 O   0  0  0  0  0  0  0  0  0  0  0  0
   35.0010   25.6450   30.8540 C   0  0  0  0  0  0  0  0  0  0  0  0
   35.9430   26.4030   31.5530 C   0  0  0  0  0  0  0  0  0  0  0  0
   36.9220   25.7700   32.2820 C   0  0  0  0  0  0  0  0  0  0  0  0
   36.9170   24.4240   32.2820 N   0  0  0  0  0  0  0  0  0  0  0  0
   36.0080   23.6960   31.6090 C   0  0  0  0  0  0  0  0  0  0  0  0
   35.0420   24.2910   30.8890 N   0  0  0  0  0  0  0  0  0  0  0  0
   34.2440   26.1950   30.2890 H   0  0  0  0  0  0  0  0  0  0  0  0
   35.9030   27.4660   31.5220 H   0  0  0  0  0  0  0  0  0  0  0  0
   36.1140   22.2410   31.6920 C   0  0  0  0  0  0  0  0  0  0  0  0
   35.1210   21.5100   32.3140 C   0  0  0  0  0  3  0  0  0  0  0  0
   35.3210   20.1260   32.3380 C   0  0  0  0  0  0  0  0  0  0  0  0
   34.5900   19.4600   32.8070 H   0  0  0  0  0  0  0  0  0  0  0  0
   36.3960   19.5460   31.7980 N   0  0  0  0  0  0  0  0  0  0  0  0
   37.3460   20.2870   31.2000 C   0  0  0  0  0  3  0  0  0  0  0  0
   37.1930   21.6440   31.1520 N   0  0  0  0  0  0  0  0  0  0  0  0
  1  3  1  0  0  0  0
  1  2  1  0  0  0  0
  1  4  1  1  0  0  0
  2  6  1  0  0  0  0
  3  7  1  6  0  0  0
  3  2  1  0  0  0  0
  3  8  1  0  0  0  0
  5  2  1  0  0  0  0
  8 13  2  0  0  0  0
  8  9  1  0  0  0  0
  9 10  2  0  0  0  0
 10 11  1  0  0  0  0
 10 15  1  0  0  0  0
 11 16  1  0  0  0  0
 12 17  1  0  0  0  0
 12 11  2  0  0  0  0
 13 12  1  0  0  0  0
 14  9  1  0  0  0  0
 18  1  1  0  0  0  0
 19 18  2  0  0  0  0
 20 25  2  0  0  0  0
 20 21  1  0  0  0  0
 21 22  2  0  0  0  0
 22 18  1  0  0  0  0
 23 22  1  0  0  0  0
 24 28  1  0  0  0  0
 24 23  2  0  0  0  0
 25 24  1  0  0  0  0
 26 20  1  0  0  0  0
 27 21  1  0  0  0  0
 28 29  1  0  0  0  0
 29 30  2  0  0  0  0
 30 31  1  0  0  0  0
 32 30  1  0  0  0  0
 33 32  2  0  0  0  0
 34 33  1  0  0  0  0
 34 28  2  0  0  0  0
M  END
>  <minimizedAffinity>
-5.9729991

$$$$

 OpenBabel03272501373D

 34 37  0  0  1  0  0  0  0  0999 V2000
   37.5640   26.0200   34.5290 C   0  0  2  0  0  0  0  0  0  0  0  0
   38.9200   26.6280   34.8720 C   0  0  0  0  0  0  0  0  0  0  0  0
   38.6900   25.1120   34.8340 C   0  0  1  0  0  0  0  0  0  0  0  0
   36.7280   25.8560   35.1920 H   0  0  0  0  0  0  0  0  0  0  0  0
   39.5310   27.0700   34.0870 H   0  0  0  0  0  0  0  0  0  0  0  0
   38.9770   27.1070   35.8800 H   0  0  0  0  0  0  0  0  0  0  0  0
   39.1830   24.5980   34.0040 H   0  0  0  0  0  0  0  0  0  0  0  0
   38.8130   24.4740   36.1540 C   0  0  0  0  0  0  0  0  0  0  0  0
   39.7530   23.4750   36.3940 C   0  0  0  0  0  0  0  0  0  0  0  0
   39.8020   22.9140   37.6460 C   0  0  0  0  0  0  0  0  0  0  0  0
   38.9640   23.3030   38.6570 C   0  0  0  0  0  0  0  0  0  0  0  0
   38.0360   24.3030   38.3890 C   0  0  0  0  0  0  0  0  0  0  0  0
   37.9930   24.8470   37.1640 N   0  0  0  0  0  0  0  0  0  0  0  0
   40.4270   23.1500   35.6090 H   0  0  0  0  0  0  0  0  0  0  0  0
   40.5140   22.1320   37.8910 H   0  0  0  0  0  0  0  0  0  0  0  0
   38.9160   22.9350   39.6660 H   0  0  0  0  0  0  0  0  0  0  0  0
   37.3190   24.6990   39.0990 H   0  0  0  0  0  0  0  0  0  0  0  0
   37.1800   26.2940   33.1070 C   0  0  0  0  0  0  0  0  0  0  0  0
   36.6170   27.3890   32.8390 O   0  0  0  0  0  0  0  0  0  0  0  0
   38.6380   24.5470   30.1350 C   0  0  0  0  0  0  0  0  0  0  0  0
   38.3760   25.5360   31.0840 C   0  0  0  0  0  0  0  0  0  0  0  0
   37.4830   25.2870   32.1000 C   0  0  0  0  0  0  0  0  0  0  0  0
   36.8980   24.0740   32.1220 N   0  0  0  0  0  0  0  0  0  0  0  0
   37.1520   23.1230   31.2050 C   0  0  0  0  0  0  0  0  0  0  0  0
   38.0200   23.3430   30.2040 N   0  0  0  0  0  0  0  0  0  0  0  0
   39.3560   24.7950   29.3480 H   0  0  0  0  0  0  0  0  0  0  0  0
   38.8640   26.4800   31.0220 H   0  0  0  0  0  0  0  0  0  0  0  0
   36.4490   21.8490   31.3430 C   0  0  0  0  0  0  0  0  0  0  0  0
   35.3370   21.7570   32.1550 C   0  0  0  0  0  3  0  0  0  0  0  0
   34.7400   20.4940   32.2150 C   0  0  0  0  0  0  0  0  0  0  0  0
   33.8530   20.3190   32.8310 H   0  0  0  0  0  0  0  0  0  0  0  0
   35.2110   19.4450   31.5350 N   0  0  0  0  0  0  0  0  0  0  0  0
   36.2980   19.5680   30.7520 C   0  0  0  0  0  3  0  0  0  0  0  0
   36.9130   20.7840   30.6630 N   0  0  0  0  0  0  0  0  0  0  0  0
  1  3  1  0  0  0  0
  1  2  1  0  0  0  0
  1  4  1  1  0  0  0
  2  6  1  0  0  0  0
  3  7  1  6  0  0  0
  3  2  1  0  0  0  0
  3  8  1  0  0  0  0
  5  2  1  0  0  0  0
  8  9  2  0  0  0  0
  8 13  1  0  0  0  0
  9 10  1  0  0  0  0
 10 15  1  0  0  0  0
 10 11  2  0  0  0  0
 11 16  1  0  0  0  0
 12 11  1  0  0  0  0
 12 17  1  0  0  0  0
 13 12  2  0  0  0  0
 14  9  1  0  0  0  0
 18  1  1  0  0  0  0
 19 18  2  0  0  0  0
 20 25  2  0  0  0  0
 20 21  1  0  0  0  0
 21 22  2  0  0  0  0
 22 23  1  0  0  0  0
 22 18  1  0  0  0  0
 24 28  1  0  0  0  0
 24 23  2  0  0  0  0
 25 24  1  0  0  0  0
 26 20  1  0  0  0  0
 27 21  1  0  0  0  0
 28 29  1  0  0  0  0
 29 30  2  0  0  0  0
 30 31  1  0  0  0  0
 32 30  1  0  0  0  0
 33 32  2  0  0  0  0
 34 33  1  0  0  0  0
 34 28  2  0  0  0  0
M  END
>  <minimizedAffinity>
-5.69973373

$$$$

 OpenBabel03272501373D

 34 37  0  0  1  0  0  0  0  0999 V2000
   39.1970   26.5140   34.5320 C   0  0  2  0  0  0  0  0  0  0  0  0
   38.6800   27.3890   35.6690 C   0  0  0  0  0  0  0  0  0  0  0  0
   37.7430   26.7560   34.6340 C   0  0  1  0  0  0  0  0  0  0  0  0
   39.5900   26.8350   33.5790 H   0  0  0  0  0  0  0  0  0  0  0  0
   38.6540   26.9980   36.6860 H   0  0  0  0  0  0  0  0  0  0  0  0
   38.8970   28.4790   35.5580 H   0  0  0  0  0  0  0  0  0  0  0  0
   37.1080   25.9550   35.0230 H   0  0  0  0  0  0  0  0  0  0  0  0
   37.0780   27.7470   33.7720 C   0  0  0  0  0  0  0  0  0  0  0  0
   36.0760   28.5810   34.2640 C   0  0  0  0  0  0  0  0  0  0  0  0
   35.4890   29.4730   33.4000 C   0  0  0  0  0  0  0  0  0  0  0  0
   35.8560   29.5680   32.0840 C   0  0  0  0  0  0  0  0  0  0  0  0
   36.8590   28.7240   31.6220 C   0  0  0  0  0  0  0  0  0  0  0  0
   37.4280   27.8540   32.4700 N   0  0  0  0  0  0  0  0  0  0  0  0
   35.7680   28.5230   35.3020 H   0  0  0  0  0  0  0  0  0  0  0  0
   34.7030   30.1470   33.7260 H   0  0  0  0  0  0  0  0  0  0  0  0
   35.4670   30.2240   31.3260 H   0  0  0  0  0  0  0  0  0  0  0  0
   37.2380   28.6980   30.6070 H   0  0  0  0  0  0  0  0  0  0  0  0
   39.7870   25.2350   35.0430 C   0  0  0  0  0  0  0  0  0  0  0  0
   41.0420   25.1270   35.0820 O   0  0  0  0  0  0  0  0  0  0  0  0
   37.6450   23.0290   37.1780 C   0  0  0  0  0  0  0  0  0  0  0  0
   38.5110   24.0550   36.7970 C   0  0  0  0  0  0  0  0  0  0  0  0
   38.8830   24.1800   35.4790 C   0  0  0  0  0  0  0  0  0  0  0  0
   38.3790   23.2830   34.6100 N   0  0  0  0  0  0  0  0  0  0  0  0
   37.5460   22.2950   34.9790 C   0  0  0  0  0  0  0  0  0  0  0  0
   37.1680   22.1520   36.2610 N   0  0  0  0  0  0  0  0  0  0  0  0
   37.3790   22.9730   38.2370 H   0  0  0  0  0  0  0  0  0  0  0  0
   38.8830   24.7390   37.5230 H   0  0  0  0  0  0  0  0  0  0  0  0
   37.0720   21.3870   33.9370 C   0  0  0  0  0  0  0  0  0  0  0  0
   35.8420   20.7730   34.0620 C   0  0  0  0  0  3  0  0  0  0  0  0
   35.4850   19.9240   33.0080 C   0  0  0  0  0  0  0  0  0  0  0  0
   34.5300   19.3910   33.0140 H   0  0  0  0  0  0  0  0  0  0  0  0
   36.2770   19.7200   31.9520 N   0  0  0  0  0  0  0  0  0  0  0  0
   37.4700   20.3340   31.8610 C   0  0  0  0  0  3  0  0  0  0  0  0
   37.8600   21.1710   32.8660 N   0  0  0  0  0  0  0  0  0  0  0  0
  1  4  1  6  0  0  0
  1  3  1  0  0  0  0
  1 18  1  0  0  0  0
  1  2  1  0  0  0  0
  2  5  1  0  0  0  0
  3  7  1  1  0  0  0
  3  2  1  0  0  0  0
  6  2  1  0  0  0  0
  8  9  1  0  0  0  0
  8  3  1  0  0  0  0
  9 14  1  0  0  0  0
 10 15  1  0  0  0  0
 10  9  2  0  0  0  0
 11 10  1  0  0  0  0
 12 11  2  0  0  0  0
 12 13  1  0  0  0  0
 13  8  2  0  0  0  0
 16 11  1  0  0  0  0
 17 12  1  0  0  0  0
 18 19  2  0  0  0  0
 18 22  1  0  0  0  0
 20 26  1  0  0  0  0
 21 20  1  0  0  0  0
 21 27  1  0  0  0  0
 22 21  2  0  0  0  0
 23 24  2  0  0  0  0
 23 22  1  0  0  0  0
 24 25  1  0  0  0  0
 25 20  2  0  0  0  0
 28 29  1  0  0  0  0
 28 24  1  0  0  0  0
 30 31  1  0  0  0  0
 30 29  2  0  0  0  0
 32 30  1  0  0  0  0
 33 32  2  0  0  0  0
 33 34  1  0  0  0  0
 34 28  2  0  0  0  0
M  END
>  <minimizedAffinity>
-5.57666683

$$$$

 OpenBabel03272501373D

 34 37  0  0  1  0  0  0  0  0999 V2000
   35.3670   28.6670   32.7490 C   0  0  2  0  0  0  0  0  0  0  0  0
   35.8730   30.0430   32.3280 C   0  0  0  0  0  0  0  0  0  0  0  0
   36.0560   29.5050   33.7530 C   0  0  1  0  0  0  0  0  0  0  0  0
   34.3700   28.4000   33.0680 H   0  0  0  0  0  0  0  0  0  0  0  0
   36.7580   30.1260   31.6980 H   0  0  0  0  0  0  0  0  0  0  0  0
   35.0750   30.8080   32.1730 H   0  0  0  0  0  0  0  0  0  0  0  0
   37.0880   29.2570   34.0170 H   0  0  0  0  0  0  0  0  0  0  0  0
   35.2940   30.2620   34.7600 C   0  0  0  0  0  0  0  0  0  0  0  0
   35.9170   31.1780   35.6050 C   0  0  0  0  0  0  0  0  0  0  0  0
   35.1470   31.8380   36.5290 C   0  0  0  0  0  0  0  0  0  0  0  0
   33.7990   31.6280   36.6450 C   0  0  0  0  0  0  0  0  0  0  0  0
   33.2040   30.7090   35.7890 C   0  0  0  0  0  0  0  0  0  0  0  0
   33.9620   30.0660   34.8870 N   0  0  0  0  0  0  0  0  0  0  0  0
   36.9830   31.3610   35.5320 H   0  0  0  0  0  0  0  0  0  0  0  0
   35.5770   32.5620   37.2140 H   0  0  0  0  0  0  0  0  0  0  0  0
   33.1060   32.0860   37.3280 H   0  0  0  0  0  0  0  0  0  0  0  0
   32.1510   30.4520   35.7780 H   0  0  0  0  0  0  0  0  0  0  0  0
   36.1050   27.5680   32.0490 C   0  0  0  0  0  0  0  0  0  0  0  0
   35.6420   27.1330   30.9610 O   0  0  0  0  0  0  0  0  0  0  0  0
   39.7170   26.9330   32.7980 C   0  0  0  0  0  0  0  0  0  0  0  0
   38.5670   27.4450   32.1950 C   0  0  0  0  0  0  0  0  0  0  0  0
   37.3280   27.0600   32.6530 C   0  0  0  0  0  0  0  0  0  0  0  0
   37.2950   26.1900   33.6800 N   0  0  0  0  0  0  0  0  0  0  0  0
   38.4050   25.6970   34.2580 C   0  0  0  0  0  0  0  0  0  0  0  0
   39.6260   26.0590   33.8290 N   0  0  0  0  0  0  0  0  0  0  0  0
   40.6770   27.2710   32.3980 H   0  0  0  0  0  0  0  0  0  0  0  0
   38.6470   28.1300   31.3850 H   0  0  0  0  0  0  0  0  0  0  0  0
   38.2300   24.7590   35.3650 C   0  0  0  0  0  0  0  0  0  0  0  0
   38.1830   23.4020   35.1190 C   0  0  0  0  0  3  0  0  0  0  0  0
   38.0120   22.5930   36.2480 C   0  0  0  0  0  0  0  0  0  0  0  0
   37.9630   21.5040   36.1580 H   0  0  0  0  0  0  0  0  0  0  0  0
   37.9020   23.0960   37.4810 N   0  0  0  0  0  0  0  0  0  0  0  0
   37.9530   24.4240   37.6860 C   0  0  0  0  0  3  0  0  0  0  0  0
   38.1180   25.2530   36.6130 N   0  0  0  0  0  0  0  0  0  0  0  0
  1  4  1  1  0  0  0
  1  3  1  0  0  0  0
  2  1  1  0  0  0  0
  2  3  1  0  0  0  0
  3  7  1  1  0  0  0
  3  8  1  0  0  0  0
  5  2  1  0  0  0  0
  6  2  1  0  0  0  0
  8 13  2  0  0  0  0
  8  9  1  0  0  0  0
  9 10  2  0  0  0  0
 10 11  1  0  0  0  0
 10 15  1  0  0  0  0
 11 16  1  0  0  0  0
 12 11  2  0  0  0  0
 13 12  1  0  0  0  0
 14  9  1  0  0  0  0
 17 12  1  0  0  0  0
 18 22  1  0  0  0  0
 18  1  1  0  0  0  0
 19 18  2  0  0  0  0
 20 25  1  0  0  0  0
 21 22  1  0  0  0  0
 21 20  2  0  0  0  0
 22 23  2  0  0  0  0
 23 24  1  0  0  0  0
 24 28  1  0  0  0  0
 25 24  2  0  0  0  0
 26 20  1  0  0  0  0
 27 21  1  0  0  0  0
 28 34  1  0  0  0  0
 29 28  2  0  0  0  0
 29 30  1  0  0  0  0
 30 32  2  0  0  0  0
 31 30  1  0  0  0  0
 32 33  1  0  0  0  0
 34 33  2  0  0  0  0
M  END
>  <minimizedAffinity>
-5.4966774

$$$$

 OpenBabel03272501373D

 34 37  0  0  1  0  0  0  0  0999 V2000
   37.5560   26.1450   34.6120 C   0  0  2  0  0  0  0  0  0  0  0  0
   39.0340   26.4870   34.7620 C   0  0  0  0  0  0  0  0  0  0  0  0
   38.5200   25.0430   34.8180 C   0  0  1  0  0  0  0  0  0  0  0  0
   36.7950   26.1580   35.3780 H   0  0  0  0  0  0  0  0  0  0  0  0
   39.6130   26.7880   33.8890 H   0  0  0  0  0  0  0  0  0  0  0  0
   39.3080   26.9660   35.7330 H   0  0  0  0  0  0  0  0  0  0  0  0
   38.7970   24.4270   33.9580 H   0  0  0  0  0  0  0  0  0  0  0  0
   38.6870   24.4200   36.1410 C   0  0  0  0  0  0  0  0  0  0  0  0
   39.6660   23.4560   36.3710 C   0  0  0  0  0  0  0  0  0  0  0  0
   39.7560   22.9070   37.6260 C   0  0  0  0  0  0  0  0  0  0  0  0
   38.9230   23.2740   38.6490 C   0  0  0  0  0  0  0  0  0  0  0  0
   37.9560   24.2390   38.3900 C   0  0  0  0  0  0  0  0  0  0  0  0
   37.8720   24.7720   37.1620 N   0  0  0  0  0  0  0  0  0  0  0  0
   40.3370   23.1480   35.5770 H   0  0  0  0  0  0  0  0  0  0  0  0
   40.4980   22.1520   37.8640 H   0  0  0  0  0  0  0  0  0  0  0  0
   38.9050   22.9120   39.6610 H   0  0  0  0  0  0  0  0  0  0  0  0
   37.2370   24.6150   39.1090 H   0  0  0  0  0  0  0  0  0  0  0  0
   37.0520   26.4590   33.2370 C   0  0  0  0  0  0  0  0  0  0  0  0
   36.9810   25.5230   32.3960 O   0  0  0  0  0  0  0  0  0  0  0  0
   35.6180   29.9040   33.5330 C   0  0  0  0  0  0  0  0  0  0  0  0
   35.9810   28.5950   33.8560 C   0  0  0  0  0  0  0  0  0  0  0  0
   36.6600   27.8290   32.9380 C   0  0  0  0  0  0  0  0  0  0  0  0
   36.9430   28.3980   31.7510 N   0  0  0  0  0  0  0  0  0  0  0  0
   36.5910   29.6580   31.4410 C   0  0  0  0  0  0  0  0  0  0  0  0
   35.9280   30.4270   32.3210 N   0  0  0  0  0  0  0  0  0  0  0  0
   35.0810   30.4710   34.2970 H   0  0  0  0  0  0  0  0  0  0  0  0
   35.7330   28.1920   34.8090 H   0  0  0  0  0  0  0  0  0  0  0  0
   36.9580   30.1550   30.1170 C   0  0  0  0  0  0  0  0  0  0  0  0
   37.5910   29.3210   29.2170 C   0  0  0  0  0  3  0  0  0  0  0  0
   37.8980   29.8960   27.9790 C   0  0  0  0  0  0  0  0  0  0  0  0
   38.3980   29.3170   27.1980 H   0  0  0  0  0  0  0  0  0  0  0  0
   37.6000   31.1640   27.6840 N   0  0  0  0  0  0  0  0  0  0  0  0
   36.9830   31.9510   28.5840 C   0  0  0  0  0  3  0  0  0  0  0  0
   36.6650   31.4320   29.8060 N   0  0  0  0  0  0  0  0  0  0  0  0
  1  2  1  0  0  0  0
  1  3  1  0  0  0  0
  1  4  1  1  0  0  0
  2  3  1  0  0  0  0
  2  6  1  0  0  0  0
  3  7  1  6  0  0  0
  3  8  1  0  0  0  0
  5  2  1  0  0  0  0
  8  9  2  0  0  0  0
  8 13  1  0  0  0  0
  9 10  1  0  0  0  0
 10 15  1  0  0  0  0
 10 11  2  0  0  0  0
 11 16  1  0  0  0  0
 12 11  1  0  0  0  0
 12 17  1  0  0  0  0
 13 12  2  0  0  0  0
 14  9  1  0  0  0  0
 18  1  1  0  0  0  0
 19 18  2  0  0  0  0
 20 21  1  0  0  0  0
 20 26  1  0  0  0  0
 21 27  1  0  0  0  0
 22 18  1  0  0  0  0
 22 21  2  0  0  0  0
 23 22  1  0  0  0  0
 24 23  2  0  0  0  0
 24 25  1  0  0  0  0
 25 20  2  0  0  0  0
 28 24  1  0  0  0  0
 29 28  2  0  0  0  0
 30 29  1  0  0  0  0
 31 30  1  0  0  0  0
 32 30  2  0  0  0  0
 32 33  1  0  0  0  0
 33 34  2  0  0  0  0
 34 28  1  0  0  0  0
M  END
>  <minimizedAffinity>
-5.46818399

$$$$

 OpenBabel03272501373D

 34 37  0  0  1  0  0  0  0  0999 V2000
   37.4610   26.7980   34.2310 C   0  0  2  0  0  0  0  0  0  0  0  0
   38.0520   27.5280   35.4330 C   0  0  0  0  0  0  0  0  0  0  0  0
   38.5430   26.1430   34.9970 C   0  0  1  0  0  0  0  0  0  0  0  0
   36.5690   26.1900   34.2020 H   0  0  0  0  0  0  0  0  0  0  0  0
   38.7170   28.3760   35.2790 H   0  0  0  0  0  0  0  0  0  0  0  0
   37.3860   27.5710   36.3290 H   0  0  0  0  0  0  0  0  0  0  0  0
   39.5500   26.1310   34.5670 H   0  0  0  0  0  0  0  0  0  0  0  0
   38.2460   25.0870   35.9770 C   0  0  0  0  0  0  0  0  0  0  0  0
   38.1930   25.3570   37.3430 C   0  0  0  0  0  0  0  0  0  0  0  0
   37.9220   24.3210   38.2020 C   0  0  0  0  0  0  0  0  0  0  0  0
   37.7050   23.0420   37.7620 C   0  0  0  0  0  0  0  0  0  0  0  0
   37.7640   22.8020   36.3950 C   0  0  0  0  0  0  0  0  0  0  0  0
   38.0280   23.8180   35.5600 N   0  0  0  0  0  0  0  0  0  0  0  0
   38.3620   26.3610   37.7150 H   0  0  0  0  0  0  0  0  0  0  0  0
   37.8690   24.4710   39.2750 H   0  0  0  0  0  0  0  0  0  0  0  0
   37.4880   22.1630   38.3420 H   0  0  0  0  0  0  0  0  0  0  0  0
   37.6120   21.8390   35.9200 H   0  0  0  0  0  0  0  0  0  0  0  0
   37.7680   27.5080   32.9480 C   0  0  0  0  0  0  0  0  0  0  0  0
   38.8730   27.2800   32.3870 O   0  0  0  0  0  0  0  0  0  0  0  0
   36.0150   29.9760   30.7470 C   0  0  0  0  0  0  0  0  0  0  0  0
   36.9930   29.1070   31.2350 C   0  0  0  0  0  0  0  0  0  0  0  0
   36.7710   28.4200   32.4050 C   0  0  0  0  0  0  0  0  0  0  0  0
   35.5970   28.6290   33.0300 N   0  0  0  0  0  0  0  0  0  0  0  0
   34.6570   29.4680   32.5580 C   0  0  0  0  0  0  0  0  0  0  0  0
   34.8500   30.1510   31.4170 N   0  0  0  0  0  0  0  0  0  0  0  0
   36.2390   30.4980   29.8130 H   0  0  0  0  0  0  0  0  0  0  0  0
   37.9060   28.9770   30.7040 H   0  0  0  0  0  0  0  0  0  0  0  0
   33.4260   29.6050   33.3330 C   0  0  0  0  0  0  0  0  0  0  0  0
   32.2440   29.9340   32.7010 C   0  0  0  0  0  3  0  0  0  0  0  0
   31.1260   30.0410   33.5350 C   0  0  0  0  0  0  0  0  0  0  0  0
   30.1430   30.2960   33.1280 H   0  0  0  0  0  0  0  0  0  0  0  0
   31.1930   29.8390   34.8530 N   0  0  0  0  0  0  0  0  0  0  0  0
   32.3610   29.5200   35.4400 C   0  0  0  0  0  3  0  0  0  0  0  0
   33.4790   29.4060   34.6640 N   0  0  0  0  0  0  0  0  0  0  0  0
  1  4  1  1  0  0  0
  1  3  1  0  0  0  0
  1  2  1  0  0  0  0
  2  6  1  0  0  0  0
  3  7  1  6  0  0  0
  3  2  1  0  0  0  0
  3  8  1  0  0  0  0
  5  2  1  0  0  0  0
  8  9  1  0  0  0  0
  9 14  1  0  0  0  0
  9 10  2  0  0  0  0
 10 15  1  0  0  0  0
 11 10  1  0  0  0  0
 11 16  1  0  0  0  0
 12 11  2  0  0  0  0
 13  8  2  0  0  0  0
 13 12  1  0  0  0  0
 17 12  1  0  0  0  0
 18  1  1  0  0  0  0
 19 18  2  0  0  0  0
 20 21  2  0  0  0  0
 20 25  1  0  0  0  0
 21 22  1  0  0  0  0
 22 18  1  0  0  0  0
 22 23  2  0  0  0  0
 24 23  1  0  0  0  0
 24 28  1  0  0  0  0
 25 24  2  0  0  0  0
 26 20  1  0  0  0  0
 27 21  1  0  0  0  0
 28 34  1  0  0  0  0
 29 28  2  0  0  0  0
 29 30  1  0  0  0  0
 30 32  2  0  0  0  0
 31 30  1  0  0  0  0
 32 33  1  0  0  0  0
 34 33  2  0  0  0  0
M  END
>  <minimizedAffinity>
-5.36979055

$$$$

 OpenBabel03272501373D

 34 37  0  0  1  0  0  0  0  0999 V2000
   38.0770   26.4220   35.4580 C   0  0  2  0  0  0  0  0  0  0  0  0
   39.5330   26.8730   35.4160 C   0  0  0  0  0  0  0  0  0  0  0  0
   39.0980   25.4710   34.9720 C   0  0  1  0  0  0  0  0  0  0  0  0
   37.5330   26.0270   36.3020 H   0  0  0  0  0  0  0  0  0  0  0  0
   39.8630   27.5700   34.6470 H   0  0  0  0  0  0  0  0  0  0  0  0
   40.0260   26.9590   36.4140 H   0  0  0  0  0  0  0  0  0  0  0  0
   39.1710   25.2910   33.8950 H   0  0  0  0  0  0  0  0  0  0  0  0
   39.6130   24.4020   35.8420 C   0  0  0  0  0  0  0  0  0  0  0  0
   40.8430   23.7950   35.5980 C   0  0  0  0  0  0  0  0  0  0  0  0
   41.2540   22.7940   36.4440 C   0  0  0  0  0  0  0  0  0  0  0  0
   40.5010   22.3800   37.5100 C   0  0  0  0  0  0  0  0  0  0  0  0
   39.2790   23.0040   37.7300 C   0  0  0  0  0  0  0  0  0  0  0  0
   38.8820   23.9800   36.9000 N   0  0  0  0  0  0  0  0  0  0  0  0
   41.4560   24.1050   34.7600 H   0  0  0  0  0  0  0  0  0  0  0  0
   42.2020   22.2850   36.3030 H   0  0  0  0  0  0  0  0  0  0  0  0
   40.7250   21.6130   38.2300 H   0  0  0  0  0  0  0  0  0  0  0  0
   38.5910   22.7700   38.5340 H   0  0  0  0  0  0  0  0  0  0  0  0
   37.2340   27.1870   34.4830 C   0  0  0  0  0  0  0  0  0  0  0  0
   36.6170   28.2050   34.8950 O   0  0  0  0  0  0  0  0  0  0  0  0
   37.1930   27.1170   30.7410 C   0  0  0  0  0  0  0  0  0  0  0  0
   37.2580   27.6000   32.0490 C   0  0  0  0  0  0  0  0  0  0  0  0
   37.1730   26.7220   33.1050 C   0  0  0  0  0  0  0  0  0  0  0  0
   37.0270   25.4160   32.8100 N   0  0  0  0  0  0  0  0  0  0  0  0
   36.9620   24.9550   31.5480 C   0  0  0  0  0  0  0  0  0  0  0  0
   37.0440   25.7920   30.5010 N   0  0  0  0  0  0  0  0  0  0  0  0
   37.2660   27.8550   29.9380 H   0  0  0  0  0  0  0  0  0  0  0  0
   37.3740   28.6420   32.2300 H   0  0  0  0  0  0  0  0  0  0  0  0
   36.8010   23.5140   31.3650 C   0  0  0  0  0  0  0  0  0  0  0  0
   37.8570   22.7530   30.9050 C   0  0  0  0  0  3  0  0  0  0  0  0
   37.5960   21.3860   30.7650 C   0  0  0  0  0  0  0  0  0  0  0  0
   38.3690   20.6990   30.4080 H   0  0  0  0  0  0  0  0  0  0  0  0
   36.4080   20.8490   31.0560 N   0  0  0  0  0  0  0  0  0  0  0  0
   35.3990   21.6180   31.5030 C   0  0  0  0  0  3  0  0  0  0  0  0
   35.6090   22.9590   31.6550 N   0  0  0  0  0  0  0  0  0  0  0  0
  1  4  1  1  0  0  0
  2  1  1  0  0  0  0
  2  6  1  0  0  0  0
  3  7  1  6  0  0  0
  3  2  1  0  0  0  0
  3  1  1  0  0  0  0
  3  8  1  0  0  0  0
  5  2  1  0  0  0  0
  8 13  1  0  0  0  0
  9  8  2  0  0  0  0
  9 10  1  0  0  0  0
 10 11  2  0  0  0  0
 11 12  1  0  0  0  0
 11 16  1  0  0  0  0
 12 17  1  0  0  0  0
 13 12  2  0  0  0  0
 14  9  1  0  0  0  0
 15 10  1  0  0  0  0
 18 19  2  0  0  0  0
 18  1  1  0  0  0  0
 20 21  1  0  0  0  0
 21 27  1  0  0  0  0
 21 22  2  0  0  0  0
 22 18  1  0  0  0  0
 23 22  1  0  0  0  0
 24 23  2  0  0  0  0
 25 20  2  0  0  0  0
 25 24  1  0  0  0  0
 26 20  1  0  0  0  0
 28 24  1  0  0  0  0
 28 34  1  0  0  0  0
 29 28  2  0  0  0  0
 30 29  1  0  0  0  0
 30 32  2  0  0  0  0
 31 30  1  0  0  0  0
 32 33  1  0  0  0  0
 33 34  2  0  0  0  0
M  END
>  <minimizedAffinity>
-5.28323698

$$$$

 OpenBabel03272501373D

 34 37  0  0  1  0  0  0  0  0999 V2000
   35.1780   28.8480   32.8070 C   0  0  2  0  0  0  0  0  0  0  0  0
   35.0610   30.2470   32.2100 C   0  0  0  0  0  0  0  0  0  0  0  0
   35.7890   29.9820   33.5340 C   0  0  1  0  0  0  0  0  0  0  0  0
   34.4540   28.3280   33.4150 H   0  0  0  0  0  0  0  0  0  0  0  0
   35.6630   30.5200   31.3440 H   0  0  0  0  0  0  0  0  0  0  0  0
   34.0420   30.6990   32.2730 H   0  0  0  0  0  0  0  0  0  0  0  0
   36.8750   30.1040   33.4890 H   0  0  0  0  0  0  0  0  0  0  0  0
   35.1170   30.5870   34.6950 C   0  0  0  0  0  0  0  0  0  0  0  0
   35.8000   31.4260   35.5730 C   0  0  0  0  0  0  0  0  0  0  0  0
   35.1140   31.9440   36.6440 C   0  0  0  0  0  0  0  0  0  0  0  0
   33.7930   31.6650   36.8720 C   0  0  0  0  0  0  0  0  0  0  0  0
   33.1370   30.8260   35.9800 C   0  0  0  0  0  0  0  0  0  0  0  0
   33.8130   30.3220   34.9360 N   0  0  0  0  0  0  0  0  0  0  0  0
   36.8460   31.6610   35.4130 H   0  0  0  0  0  0  0  0  0  0  0  0
   35.5930   32.6030   37.3610 H   0  0  0  0  0  0  0  0  0  0  0  0
   33.1630   32.0130   37.6720 H   0  0  0  0  0  0  0  0  0  0  0  0
   32.0970   30.5270   36.0480 H   0  0  0  0  0  0  0  0  0  0  0  0
   36.0260   27.9540   31.9550 C   0  0  0  0  0  0  0  0  0  0  0  0
   36.1490   28.2310   30.7320 O   0  0  0  0  0  0  0  0  0  0  0  0
   38.0320   25.8350   34.3000 C   0  0  0  0  0  0  0  0  0  0  0  0
   37.4210   26.9530   33.7290 C   0  0  0  0  0  0  0  0  0  0  0  0
   36.6760   26.8120   32.5820 C   0  0  0  0  0  0  0  0  0  0  0  0
   36.5760   25.5740   32.0620 N   0  0  0  0  0  0  0  0  0  0  0  0
   37.1670   24.4990   32.6130 C   0  0  0  0  0  0  0  0  0  0  0  0
   37.9000   24.6110   33.7330 N   0  0  0  0  0  0  0  0  0  0  0  0
   38.6130   26.0000   35.2120 H   0  0  0  0  0  0  0  0  0  0  0  0
   37.5310   27.9110   34.1800 H   0  0  0  0  0  0  0  0  0  0  0  0
   36.9810   23.2110   31.9460 C   0  0  0  0  0  0  0  0  0  0  0  0
   38.0760   22.4950   31.5070 C   0  0  0  0  0  3  0  0  0  0  0  0
   37.7860   21.2770   30.8830 C   0  0  0  0  0  0  0  0  0  0  0  0
   38.5860   20.6360   30.5020 H   0  0  0  0  0  0  0  0  0  0  0  0
   36.5370   20.8340   30.7220 N   0  0  0  0  0  0  0  0  0  0  0  0
   35.4900   21.5560   31.1610 C   0  0  0  0  0  3  0  0  0  0  0  0
   35.7260   22.7520   31.7760 N   0  0  0  0  0  0  0  0  0  0  0  0
  1  4  1  1  0  0  0
  1  3  1  0  0  0  0
  2  6  1  0  0  0  0
  2  1  1  0  0  0  0
  2  3  1  0  0  0  0
  3  7  1  6  0  0  0
  3  8  1  0  0  0  0
  5  2  1  0  0  0  0
  8 13  2  0  0  0  0
  8  9  1  0  0  0  0
  9 10  2  0  0  0  0
 10 11  1  0  0  0  0
 10 15  1  0  0  0  0
 11 16  1  0  0  0  0
 12 17  1  0  0  0  0
 12 11  2  0  0  0  0
 13 12  1  0  0  0  0
 14  9  1  0  0  0  0
 18 22  1  0  0  0  0
 18  1  1  0  0  0  0
 19 18  2  0  0  0  0
 20 26  1  0  0  0  0
 21 27  1  0  0  0  0
 21 20  2  0  0  0  0
 22 21  1  0  0  0  0
 23 22  2  0  0  0  0
 23 24  1  0  0  0  0
 24 25  2  0  0  0  0
 25 20  1  0  0  0  0
 28 24  1  0  0  0  0
 29 28  2  0  0  0  0
 30 29  1  0  0  0  0
 31 30  1  0  0  0  0
 32 30  2  0  0  0  0
 32 33  1  0  0  0  0
 33 34  2  0  0  0  0
 34 28  1  0  0  0  0
M  END
>  <minimizedAffinity>
-5.26309013

$$$$
