
 OpenBabel03272501553D

 22 23  0  0  0  0  0  0  0  0999 V2000
   38.1530   24.9940   33.8820 C   0  0  0  0  0  0  0  0  0  0  0  0
   39.1310   25.2830   33.4810 H   0  0  0  0  0  0  0  0  0  0  0  0
   37.8670   25.7140   34.6840 H   0  0  0  0  0  0  0  0  0  0  0  0
   35.7610   26.3820   31.4340 C   0  0  0  0  0  0  0  0  0  0  0  0
   35.2370   25.2130   30.8560 C   0  0  0  0  0  0  0  0  0  0  0  0
   35.6970   23.9600   31.3010 C   0  0  0  0  0  0  0  0  0  0  0  0
   36.6380   23.9440   32.2780 N   0  0  0  0  0  0  0  0  0  0  0  0
   37.1190   25.1090   32.8100 C   0  0  0  0  0  0  0  0  0  0  0  0
   36.6830   26.3060   32.3910 N   0  0  0  0  0  0  0  0  0  0  0  0
   35.3730   27.3130   31.0570 H   0  0  0  0  0  0  0  0  0  0  0  0
   34.4860   25.2160   30.0760 H   0  0  0  0  0  0  0  0  0  0  0  0
   35.3190   23.0360   30.8820 H   0  0  0  0  0  0  0  0  0  0  0  0
   38.2000   23.5820   34.4050 C   0  0  0  0  0  0  0  0  0  0  0  0
   39.0350   23.0630   33.8970 H   0  0  0  0  0  0  0  0  0  0  0  0
   37.2300   23.1140   34.0950 H   0  0  0  0  0  0  0  0  0  0  0  0
   38.3880   23.5480   35.8730 C   0  0  0  0  0  0  0  0  0  0  0  0
   39.5240   22.8810   36.3260 C   0  0  0  0  0  3  0  0  0  0  0  0
   39.8530   22.7530   37.6600 C   0  0  0  0  0  0  0  0  0  0  0  0
   40.7440   22.2290   37.9870 H   0  0  0  0  0  0  0  0  0  0  0  0
   39.0090   23.3190   38.5580 N   0  0  0  0  0  0  0  0  0  0  0  0
   37.9100   23.9640   38.0960 C   0  0  0  0  0  3  0  0  0  0  0  0
   37.5660   24.1000   36.7840 N   0  0  0  0  0  0  0  0  0  0  0  0
  1 13  1  0  0  0  0
  1  3  1  0  0  0  0
  2  1  1  0  0  0  0
  4  9  1  0  0  0  0
  5  6  1  0  0  0  0
  5  4  2  0  0  0  0
  6  7  2  0  0  0  0
  7  8  1  0  0  0  0
  8  1  1  0  0  0  0
  9  8  2  0  0  0  0
 10  4  1  0  0  0  0
 11  5  1  0  0  0  0
 12  6  1  0  0  0  0
 13 16  1  0  0  0  0
 14 13  1  0  0  0  0
 15 13  1  0  0  0  0
 16 17  2  0  0  0  0
 16 22  1  0  0  0  0
 17 18  1  0  0  0  0
 18 19  1  0  0  0  0
 18 20  2  0  0  0  0
 21 20  1  0  0  0  0
 22 21  2  0  0  0  0
M  END
>  <minimizedAffinity>
-4.01140118

$$$$

 OpenBabel03272501553D

 22 23  0  0  0  0  0  0  0  0999 V2000
   38.5010   27.0190   35.6700 C   0  0  0  0  0  0  0  0  0  0  0  0
   39.1290   27.1030   36.5640 H   0  0  0  0  0  0  0  0  0  0  0  0
   37.8190   27.9000   35.6270 H   0  0  0  0  0  0  0  0  0  0  0  0
   41.4400   27.1370   33.4360 C   0  0  0  0  0  0  0  0  0  0  0  0
   40.8320   27.1880   32.1700 C   0  0  0  0  0  0  0  0  0  0  0  0
   39.4270   27.1840   32.0810 C   0  0  0  0  0  0  0  0  0  0  0  0
   38.7220   27.1280   33.2390 N   0  0  0  0  0  0  0  0  0  0  0  0
   39.3590   27.0780   34.4480 C   0  0  0  0  0  0  0  0  0  0  0  0
   40.6970   27.0830   34.5400 N   0  0  0  0  0  0  0  0  0  0  0  0
   42.5160   27.1430   33.4460 H   0  0  0  0  0  0  0  0  0  0  0  0
   41.3850   27.2340   31.2410 H   0  0  0  0  0  0  0  0  0  0  0  0
   38.9190   27.2240   31.1260 H   0  0  0  0  0  0  0  0  0  0  0  0
   37.7270   25.7260   35.6950 C   0  0  0  0  0  0  0  0  0  0  0  0
   37.5340   25.4290   34.6470 H   0  0  0  0  0  0  0  0  0  0  0  0
   36.7550   25.9680   36.1980 H   0  0  0  0  0  0  0  0  0  0  0  0
   38.4680   24.6600   36.4050 C   0  0  0  0  0  0  0  0  0  0  0  0
   38.0580   24.3980   37.7110 C   0  0  0  0  0  3  0  0  0  0  0  0
   38.6370   23.4380   38.5160 C   0  0  0  0  0  0  0  0  0  0  0  0
   38.2980   23.2540   39.5290 H   0  0  0  0  0  0  0  0  0  0  0  0
   39.6590   22.7250   37.9830 N   0  0  0  0  0  0  0  0  0  0  0  0
   40.0430   22.9950   36.7110 C   0  0  0  0  0  3  0  0  0  0  0  0
   39.4850   23.9370   35.9000 N   0  0  0  0  0  0  0  0  0  0  0  0
  1 13  1  0  0  0  0
  1  2  1  0  0  0  0
  3  1  1  0  0  0  0
  4 10  1  0  0  0  0
  4  9  1  0  0  0  0
  5  4  2  0  0  0  0
  6  5  1  0  0  0  0
  6  7  2  0  0  0  0
  7  8  1  0  0  0  0
  8  9  2  0  0  0  0
  8  1  1  0  0  0  0
 11  5  1  0  0  0  0
 12  6  1  0  0  0  0
 13 15  1  0  0  0  0
 13 16  1  0  0  0  0
 14 13  1  0  0  0  0
 16 17  1  0  0  0  0
 17 18  2  0  0  0  0
 18 19  1  0  0  0  0
 20 18  1  0  0  0  0
 21 20  2  0  0  0  0
 22 16  2  0  0  0  0
 22 21  1  0  0  0  0
M  END
>  <minimizedAffinity>
-4.00786352

$$$$

 OpenBabel03272501553D

 22 23  0  0  0  0  0  0  0  0999 V2000
   38.4000   25.4860   34.9170 C   0  0  0  0  0  0  0  0  0  0  0  0
   39.3360   25.5620   34.3510 H   0  0  0  0  0  0  0  0  0  0  0  0
   37.6470   24.9510   34.2930 H   0  0  0  0  0  0  0  0  0  0  0  0
   39.6720   22.9090   37.2370 C   0  0  0  0  0  0  0  0  0  0  0  0
   38.9490   23.1990   38.4070 C   0  0  0  0  0  0  0  0  0  0  0  0
   38.0330   24.2680   38.4020 C   0  0  0  0  0  0  0  0  0  0  0  0
   37.8930   24.9740   37.2520 N   0  0  0  0  0  0  0  0  0  0  0  0
   38.6200   24.6540   36.1380 C   0  0  0  0  0  0  0  0  0  0  0  0
   39.4940   23.6360   36.1360 N   0  0  0  0  0  0  0  0  0  0  0  0
   40.3590   22.0820   37.2960 H   0  0  0  0  0  0  0  0  0  0  0  0
   39.0530   22.6420   39.3280 H   0  0  0  0  0  0  0  0  0  0  0  0
   37.4560   24.5240   39.2810 H   0  0  0  0  0  0  0  0  0  0  0  0
   37.9130   26.8580   35.3080 C   0  0  0  0  0  0  0  0  0  0  0  0
   38.8020   27.5000   35.4570 H   0  0  0  0  0  0  0  0  0  0  0  0
   37.3850   26.7220   36.2870 H   0  0  0  0  0  0  0  0  0  0  0  0
   37.0260   27.4370   34.2750 C   0  0  0  0  0  0  0  0  0  0  0  0
   36.9950   26.7690   33.0530 C   0  0  0  0  0  3  0  0  0  0  0  0
   36.2240   27.1710   31.9810 C   0  0  0  0  0  0  0  0  0  0  0  0
   36.2170   26.6320   31.0410 H   0  0  0  0  0  0  0  0  0  0  0  0
   35.4640   28.2800   32.1530 N   0  0  0  0  0  0  0  0  0  0  0  0
   35.5090   28.9160   33.3500 C   0  0  0  0  0  3  0  0  0  0  0  0
   36.2630   28.5360   34.4200 N   0  0  0  0  0  0  0  0  0  0  0  0
  1 13  1  0  0  0  0
  1  8  1  0  0  0  0
  2  1  1  0  0  0  0
  3  1  1  0  0  0  0
  4 10  1  0  0  0  0
  4  5  1  0  0  0  0
  5 11  1  0  0  0  0
  6  5  2  0  0  0  0
  6 12  1  0  0  0  0
  7  6  1  0  0  0  0
  8  7  2  0  0  0  0
  9  8  1  0  0  0  0
  9  4  2  0  0  0  0
 13 14  1  0  0  0  0
 13 15  1  0  0  0  0
 16 22  1  0  0  0  0
 16 13  1  0  0  0  0
 17 16  2  0  0  0  0
 18 20  2  0  0  0  0
 18 17  1  0  0  0  0
 19 18  1  0  0  0  0
 20 21  1  0  0  0  0
 21 22  2  0  0  0  0
M  END
>  <minimizedAffinity>
-3.96601844

$$$$

 OpenBabel03272501553D

 22 23  0  0  0  0  0  0  0  0999 V2000
   37.8560   26.7660   35.3490 C   0  0  0  0  0  0  0  0  0  0  0  0
   38.7080   27.4250   35.5560 H   0  0  0  0  0  0  0  0  0  0  0  0
   37.2170   26.7100   36.2610 H   0  0  0  0  0  0  0  0  0  0  0  0
   35.5930   29.0090   33.4820 C   0  0  0  0  0  0  0  0  0  0  0  0
   35.5120   28.3590   32.2380 C   0  0  0  0  0  0  0  0  0  0  0  0
   36.2260   27.1620   32.0400 C   0  0  0  0  0  0  0  0  0  0  0  0
   36.9670   26.6910   33.0740 N   0  0  0  0  0  0  0  0  0  0  0  0
   37.0150   27.3600   34.2670 C   0  0  0  0  0  0  0  0  0  0  0  0
   36.3360   28.5000   34.4620 N   0  0  0  0  0  0  0  0  0  0  0  0
   35.0270   29.9200   33.5790 H   0  0  0  0  0  0  0  0  0  0  0  0
   34.9240   28.7270   31.4080 H   0  0  0  0  0  0  0  0  0  0  0  0
   36.1900   26.6300   31.0980 H   0  0  0  0  0  0  0  0  0  0  0  0
   38.3420   25.4010   34.9350 C   0  0  0  0  0  0  0  0  0  0  0  0
   39.2420   25.5400   34.3080 H   0  0  0  0  0  0  0  0  0  0  0  0
   37.5190   24.9650   34.3120 H   0  0  0  0  0  0  0  0  0  0  0  0
   38.6560   24.5540   36.1080 C   0  0  0  0  0  0  0  0  0  0  0  0
   37.9100   24.8040   37.2570 C   0  0  0  0  0  3  0  0  0  0  0  0
   38.0720   24.1090   38.4390 C   0  0  0  0  0  0  0  0  0  0  0  0
   37.4780   24.3230   39.3200 H   0  0  0  0  0  0  0  0  0  0  0  0
   39.0150   23.1350   38.4550 N   0  0  0  0  0  0  0  0  0  0  0  0
   39.7300   22.9080   37.3260 C   0  0  0  0  0  3  0  0  0  0  0  0
   39.5860   23.5820   36.1500 N   0  0  0  0  0  0  0  0  0  0  0  0
  1  2  1  0  0  0  0
  1  3  1  0  0  0  0
  4 10  1  0  0  0  0
  4  9  1  0  0  0  0
  5  4  2  0  0  0  0
  6  5  1  0  0  0  0
  6  7  2  0  0  0  0
  7  8  1  0  0  0  0
  8  9  2  0  0  0  0
  8  1  1  0  0  0  0
 11  5  1  0  0  0  0
 12  6  1  0  0  0  0
 13  1  1  0  0  0  0
 13 16  1  0  0  0  0
 14 13  1  0  0  0  0
 15 13  1  0  0  0  0
 16 22  2  0  0  0  0
 16 17  1  0  0  0  0
 17 18  2  0  0  0  0
 18 20  1  0  0  0  0
 18 19  1  0  0  0  0
 21 20  2  0  0  0  0
 22 21  1  0  0  0  0
M  END
>  <minimizedAffinity>
-3.9636507

$$$$

 OpenBabel03272501553D

 22 23  0  0  0  0  0  0  0  0999 V2000
   38.8460   24.9610   34.6940 C   0  0  0  0  0  0  0  0  0  0  0  0
   39.8370   25.3530   34.4360 H   0  0  0  0  0  0  0  0  0  0  0  0
   38.5830   24.1510   33.9750 H   0  0  0  0  0  0  0  0  0  0  0  0
   39.8190   22.8560   37.5680 C   0  0  0  0  0  0  0  0  0  0  0  0
   38.8930   23.2630   38.5440 C   0  0  0  0  0  0  0  0  0  0  0  0
   37.9430   24.2500   38.2210 C   0  0  0  0  0  0  0  0  0  0  0  0
   37.9700   24.7650   36.9670 N   0  0  0  0  0  0  0  0  0  0  0  0
   38.8920   24.3370   36.0500 C   0  0  0  0  0  0  0  0  0  0  0  0
   39.7990   23.3970   36.3520 N   0  0  0  0  0  0  0  0  0  0  0  0
   40.5230   22.0980   37.8680 H   0  0  0  0  0  0  0  0  0  0  0  0
   38.8630   22.8570   39.5460 H   0  0  0  0  0  0  0  0  0  0  0  0
   37.2120   24.5900   38.9430 H   0  0  0  0  0  0  0  0  0  0  0  0
   37.8250   26.0690   34.6690 C   0  0  0  0  0  0  0  0  0  0  0  0
   38.3530   27.0180   34.8800 H   0  0  0  0  0  0  0  0  0  0  0  0
   37.1170   25.8440   35.5080 H   0  0  0  0  0  0  0  0  0  0  0  0
   37.1320   26.1440   33.3630 C   0  0  0  0  0  0  0  0  0  0  0  0
   36.7190   27.4140   32.9650 C   0  0  0  0  0  3  0  0  0  0  0  0
   36.0600   27.6650   31.7790 C   0  0  0  0  0  0  0  0  0  0  0  0
   35.7500   28.6630   31.4910 H   0  0  0  0  0  0  0  0  0  0  0  0
   35.8130   26.6010   30.9750 N   0  0  0  0  0  0  0  0  0  0  0  0
   36.2220   25.3750   31.3820 C   0  0  0  0  0  3  0  0  0  0  0  0
   36.8740   25.1050   32.5480 N   0  0  0  0  0  0  0  0  0  0  0  0
  1  8  1  0  0  0  0
  2  1  1  0  0  0  0
  3  1  1  0  0  0  0
  4 10  1  0  0  0  0
  4  5  1  0  0  0  0
  5 11  1  0  0  0  0
  6  5  2  0  0  0  0
  6 12  1  0  0  0  0
  7  6  1  0  0  0  0
  8  9  1  0  0  0  0
  8  7  2  0  0  0  0
  9  4  2  0  0  0  0
 13  1  1  0  0  0  0
 13 14  1  0  0  0  0
 13 15  1  0  0  0  0
 16 13  1  0  0  0  0
 17 16  1  0  0  0  0
 18 17  2  0  0  0  0
 19 18  1  0  0  0  0
 20 21  2  0  0  0  0
 20 18  1  0  0  0  0
 21 22  1  0  0  0  0
 22 16  2  0  0  0  0
M  END
>  <minimizedAffinity>
-3.96210766

$$$$

 OpenBabel03272501553D

 22 23  0  0  0  0  0  0  0  0999 V2000
   38.2570   26.3110   34.2140 C   0  0  0  0  0  0  0  0  0  0  0  0
   39.2030   25.7800   34.0550 H   0  0  0  0  0  0  0  0  0  0  0  0
   38.4480   27.4080   34.1600 H   0  0  0  0  0  0  0  0  0  0  0  0
   36.2730   24.4490   31.7170 C   0  0  0  0  0  0  0  0  0  0  0  0
   35.5570   25.4860   31.0940 C   0  0  0  0  0  0  0  0  0  0  0  0
   35.7530   26.8120   31.5240 C   0  0  0  0  0  0  0  0  0  0  0  0
   36.6340   27.0240   32.5330 N   0  0  0  0  0  0  0  0  0  0  0  0
   37.3070   25.9820   33.1100 C   0  0  0  0  0  0  0  0  0  0  0  0
   37.1250   24.7160   32.7040 N   0  0  0  0  0  0  0  0  0  0  0  0
   36.0860   23.4550   31.3490 H   0  0  0  0  0  0  0  0  0  0  0  0
   34.8530   25.3270   30.2870 H   0  0  0  0  0  0  0  0  0  0  0  0
   35.2220   27.6390   31.0700 H   0  0  0  0  0  0  0  0  0  0  0  0
   37.6600   25.9240   35.5420 C   0  0  0  0  0  0  0  0  0  0  0  0
   36.6150   25.6070   35.3620 H   0  0  0  0  0  0  0  0  0  0  0  0
   37.6620   26.8600   36.1570 H   0  0  0  0  0  0  0  0  0  0  0  0
   38.4250   24.8340   36.1890 C   0  0  0  0  0  0  0  0  0  0  0  0
   37.9800   24.4430   37.4500 C   0  0  0  0  0  3  0  0  0  0  0  0
   38.5750   23.4440   38.1940 C   0  0  0  0  0  0  0  0  0  0  0  0
   38.2100   23.1580   39.1740 H   0  0  0  0  0  0  0  0  0  0  0  0
   39.6490   22.8250   37.6440 N   0  0  0  0  0  0  0  0  0  0  0  0
   40.0650   23.2200   36.4160 C   0  0  0  0  0  3  0  0  0  0  0  0
   39.4930   24.2040   35.6660 N   0  0  0  0  0  0  0  0  0  0  0  0
  1 13  1  0  0  0  0
  2  1  1  0  0  0  0
  3  1  1  0  0  0  0
  4  9  1  0  0  0  0
  5  6  1  0  0  0  0
  5  4  2  0  0  0  0
  6  7  2  0  0  0  0
  7  8  1  0  0  0  0
  8  1  1  0  0  0  0
  9  8  2  0  0  0  0
 10  4  1  0  0  0  0
 11  5  1  0  0  0  0
 12  6  1  0  0  0  0
 13 15  1  0  0  0  0
 13 16  1  0  0  0  0
 14 13  1  0  0  0  0
 16 17  1  0  0  0  0
 17 18  2  0  0  0  0
 18 19  1  0  0  0  0
 20 18  1  0  0  0  0
 21 20  2  0  0  0  0
 22 16  2  0  0  0  0
 22 21  1  0  0  0  0
M  END
>  <minimizedAffinity>
-3.92254329

$$$$

 OpenBabel03272501553D

 22 23  0  0  0  0  0  0  0  0999 V2000
   37.8910   25.5360   35.0110 C   0  0  0  0  0  0  0  0  0  0  0  0
   36.8020   25.6280   35.0980 H   0  0  0  0  0  0  0  0  0  0  0  0
   38.3500   26.5360   35.1920 H   0  0  0  0  0  0  0  0  0  0  0  0
   39.8750   23.0000   36.8200 C   0  0  0  0  0  0  0  0  0  0  0  0
   39.2610   23.0090   38.0850 C   0  0  0  0  0  0  0  0  0  0  0  0
   38.1760   23.8750   38.3160 C   0  0  0  0  0  0  0  0  0  0  0  0
   37.7740   24.6700   37.2930 N   0  0  0  0  0  0  0  0  0  0  0  0
   38.4030   24.6260   36.0790 C   0  0  0  0  0  0  0  0  0  0  0  0
   39.4370   23.8020   35.8520 N   0  0  0  0  0  0  0  0  0  0  0  0
   40.6990   22.3190   36.6970 H   0  0  0  0  0  0  0  0  0  0  0  0
   39.5750   22.3790   38.9070 H   0  0  0  0  0  0  0  0  0  0  0  0
   37.6750   23.9130   39.2750 H   0  0  0  0  0  0  0  0  0  0  0  0
   38.2630   24.9990   33.6530 C   0  0  0  0  0  0  0  0  0  0  0  0
   38.4840   23.9220   33.7670 H   0  0  0  0  0  0  0  0  0  0  0  0
   39.1990   25.5420   33.3620 H   0  0  0  0  0  0  0  0  0  0  0  0
   37.1750   25.2020   32.6690 C   0  0  0  0  0  0  0  0  0  0  0  0
   36.6430   24.0460   32.1030 C   0  0  0  0  0  3  0  0  0  0  0  0
   35.6260   24.0510   31.1700 C   0  0  0  0  0  0  0  0  0  0  0  0
   35.2290   23.1360   30.7450 H   0  0  0  0  0  0  0  0  0  0  0  0
   35.1350   25.2600   30.8020 N   0  0  0  0  0  0  0  0  0  0  0  0
   35.6670   26.3720   31.3650 C   0  0  0  0  0  3  0  0  0  0  0  0
   36.6710   26.3900   32.2870 N   0  0  0  0  0  0  0  0  0  0  0  0
  1  2  1  0  0  0  0
  1  3  1  0  0  0  0
  1  8  1  0  0  0  0
  4  5  1  0  0  0  0
  5  6  2  0  0  0  0
  5 11  1  0  0  0  0
  6 12  1  0  0  0  0
  7  6  1  0  0  0  0
  8  7  2  0  0  0  0
  9  8  1  0  0  0  0
  9  4  2  0  0  0  0
 10  4  1  0  0  0  0
 13 14  1  0  0  0  0
 13  1  1  0  0  0  0
 15 13  1  0  0  0  0
 16 13  1  0  0  0  0
 17 16  2  0  0  0  0
 18 17  1  0  0  0  0
 19 18  1  0  0  0  0
 20 18  2  0  0  0  0
 20 21  1  0  0  0  0
 21 22  2  0  0  0  0
 22 16  1  0  0  0  0
M  END
>  <minimizedAffinity>
-3.92117405

$$$$

 OpenBabel03272501553D

 22 23  0  0  0  0  0  0  0  0999 V2000
   37.8830   24.6420   36.3070 C   0  0  0  0  0  0  0  0  0  0  0  0
   37.2850   24.1750   35.5160 H   0  0  0  0  0  0  0  0  0  0  0  0
   37.3330   24.5510   37.2720 H   0  0  0  0  0  0  0  0  0  0  0  0
   40.5070   22.3940   37.6120 C   0  0  0  0  0  0  0  0  0  0  0  0
   41.5390   22.5920   36.6790 C   0  0  0  0  0  0  0  0  0  0  0  0
   41.3390   23.4880   35.6120 C   0  0  0  0  0  0  0  0  0  0  0  0
   40.1430   24.1230   35.5370 N   0  0  0  0  0  0  0  0  0  0  0  0
   39.1680   23.8980   36.4690 C   0  0  0  0  0  0  0  0  0  0  0  0
   39.3520   23.0460   37.4890 N   0  0  0  0  0  0  0  0  0  0  0  0
   40.7130   21.6990   38.4070 H   0  0  0  0  0  0  0  0  0  0  0  0
   42.4970   22.0900   36.7300 H   0  0  0  0  0  0  0  0  0  0  0  0
   42.1090   23.6690   34.8720 H   0  0  0  0  0  0  0  0  0  0  0  0
   38.1610   26.0840   35.9690 C   0  0  0  0  0  0  0  0  0  0  0  0
   39.2580   26.2070   35.8970 H   0  0  0  0  0  0  0  0  0  0  0  0
   37.7770   26.6760   36.8390 H   0  0  0  0  0  0  0  0  0  0  0  0
   37.5140   26.4820   34.6980 C   0  0  0  0  0  0  0  0  0  0  0  0
   36.9730   27.7660   34.6660 C   0  0  0  0  0  3  0  0  0  0  0  0
   36.3350   28.2990   33.5650 C   0  0  0  0  0  0  0  0  0  0  0  0
   35.9230   29.3010   33.5650 H   0  0  0  0  0  0  0  0  0  0  0  0
   36.2420   27.5090   32.4660 N   0  0  0  0  0  0  0  0  0  0  0  0
   36.7750   26.2630   32.5190 C   0  0  0  0  0  3  0  0  0  0  0  0
   37.4080   25.7180   33.5950 N   0  0  0  0  0  0  0  0  0  0  0  0
  1  8  1  0  0  0  0
  1  3  1  0  0  0  0
  2  1  1  0  0  0  0
  4 10  1  0  0  0  0
  5 11  1  0  0  0  0
  5  4  2  0  0  0  0
  6  5  1  0  0  0  0
  7  6  2  0  0  0  0
  7  8  1  0  0  0  0
  8  9  2  0  0  0  0
  9  4  1  0  0  0  0
 12  6  1  0  0  0  0
 13  1  1  0  0  0  0
 13 15  1  0  0  0  0
 14 13  1  0  0  0  0
 16 13  1  0  0  0  0
 17 16  1  0  0  0  0
 18 17  2  0  0  0  0
 19 18  1  0  0  0  0
 20 21  2  0  0  0  0
 20 18  1  0  0  0  0
 21 22  1  0  0  0  0
 22 16  2  0  0  0  0
M  END
>  <minimizedAffinity>
-3.9190321

$$$$

 OpenBabel03272501553D

 22 23  0  0  0  0  0  0  0  0999 V2000
   38.4290   24.3620   34.5800 C   0  0  0  0  0  0  0  0  0  0  0  0
   37.4040   24.7250   34.4420 H   0  0  0  0  0  0  0  0  0  0  0  0
   39.1370   25.1950   34.3620 H   0  0  0  0  0  0  0  0  0  0  0  0
   39.7810   22.8130   37.6480 C   0  0  0  0  0  0  0  0  0  0  0  0
   38.9330   23.3490   38.6330 C   0  0  0  0  0  0  0  0  0  0  0  0
   37.9070   24.2330   38.2510 C   0  0  0  0  0  0  0  0  0  0  0  0
   37.7870   24.5270   36.9320 N   0  0  0  0  0  0  0  0  0  0  0  0
   38.6370   23.9810   36.0100 C   0  0  0  0  0  0  0  0  0  0  0  0
   39.6160   23.1370   36.3680 N   0  0  0  0  0  0  0  0  0  0  0  0
   40.5480   22.1420   37.9960 H   0  0  0  0  0  0  0  0  0  0  0  0
   39.0200   23.1190   39.6870 H   0  0  0  0  0  0  0  0  0  0  0  0
   37.2320   24.6670   38.9770 H   0  0  0  0  0  0  0  0  0  0  0  0
   38.6880   23.1760   33.6870 C   0  0  0  0  0  0  0  0  0  0  0  0
   39.2490   22.4270   34.2760 H   0  0  0  0  0  0  0  0  0  0  0  0
   39.3380   23.5600   32.8590 H   0  0  0  0  0  0  0  0  0  0  0  0
   37.4270   22.5910   33.1760 C   0  0  0  0  0  0  0  0  0  0  0  0
   36.9490   21.4790   33.8660 C   0  0  0  0  0  3  0  0  0  0  0  0
   35.7900   20.8100   33.5260 C   0  0  0  0  0  0  0  0  0  0  0  0
   35.4390   19.9470   34.0800 H   0  0  0  0  0  0  0  0  0  0  0  0
   35.0980   21.2820   32.4600 N   0  0  0  0  0  0  0  0  0  0  0  0
   35.5810   22.3660   31.8040 C   0  0  0  0  0  3  0  0  0  0  0  0
   36.7220   23.0390   32.1220 N   0  0  0  0  0  0  0  0  0  0  0  0
  1  8  1  0  0  0  0
  2  1  1  0  0  0  0
  3  1  1  0  0  0  0
  4 10  1  0  0  0  0
  4  5  1  0  0  0  0
  5 11  1  0  0  0  0
  6  5  2  0  0  0  0
  6 12  1  0  0  0  0
  7  6  1  0  0  0  0
  8  9  1  0  0  0  0
  8  7  2  0  0  0  0
  9  4  2  0  0  0  0
 13 14  1  0  0  0  0
 13  1  1  0  0  0  0
 15 13  1  0  0  0  0
 16 13  1  0  0  0  0
 16 17  1  0  0  0  0
 18 17  2  0  0  0  0
 18 19  1  0  0  0  0
 20 18  1  0  0  0  0
 21 22  1  0  0  0  0
 21 20  2  0  0  0  0
 22 16  2  0  0  0  0
M  END
>  <minimizedAffinity>
-3.88826632

$$$$
