
 OpenBabel03262521333D

 23 25  0  0  1  0  0  0  0  0999 V2000
   36.8750   31.0120   47.7050 C   0  0  1  0  0  0  0  0  0  0  0  0
   38.0280   30.4990   48.4110 C   0  0  0  0  0  0  0  0  0  0  0  0
   38.1810   31.7830   47.6280 C   0  0  1  0  0  0  0  0  0  0  0  0
   36.0530   31.4810   48.2860 H   0  0  0  0  0  0  0  0  0  0  0  0
   38.0930   30.5220   49.5270 H   0  0  0  0  0  0  0  0  0  0  0  0
   38.6150   29.6680   47.9470 H   0  0  0  0  0  0  0  0  0  0  0  0
   38.1470   32.7020   48.2880 H   0  0  0  0  0  0  0  0  0  0  0  0
   34.6410   29.5020   45.0960 C   0  0  0  0  0  0  0  0  0  0  0  0
   35.0660   30.0410   46.3410 C   0  0  0  0  0  0  0  0  0  0  0  0
   36.4060   30.4620   46.4260 C   0  0  0  0  0  0  0  0  0  0  0  0
   37.2150   30.3310   45.3180 N   0  0  0  0  0  0  0  0  0  0  0  0
   36.7550   29.8180   44.1740 C   0  0  0  0  0  0  0  0  0  0  0  0
   35.4790   29.4060   44.0630 N   0  0  0  0  0  0  0  0  0  0  0  0
   33.6390   29.1430   44.9030 H   0  0  0  0  0  0  0  0  0  0  0  0
   34.3530   30.0920   47.1260 H   0  0  0  0  0  0  0  0  0  0  0  0
   37.5050   29.7790   43.3950 H   0  0  0  0  0  0  0  0  0  0  0  0
   38.9850   31.8670   46.4170 C   0  0  0  0  0  0  0  0  0  0  0  0
   40.0340   31.0650   46.0140 C   0  0  0  0  0  0  0  0  0  0  0  0
   40.7130   31.2550   44.8280 C   0  0  0  0  0  0  0  0  0  0  0  0
   41.5300   30.5940   44.5620 H   0  0  0  0  0  0  0  0  0  0  0  0
   40.3880   32.2390   43.9870 N   0  0  0  0  0  0  0  0  0  0  0  0
   39.3680   33.0280   44.3650 C   0  0  0  0  0  0  0  0  0  0  0  0
   38.6940   32.8590   45.5170 N   0  0  0  0  0  0  0  0  0  0  0  0
  1  4  1  1  0  0  0
  1  2  1  0  0  0  0
  2  5  1  0  0  0  0
  3  1  1  0  0  0  0
  3  7  1  1  0  0  0
  3  2  1  0  0  0  0
  6  2  1  0  0  0  0
  8  9  1  0  0  0  0
  9 10  2  0  0  0  0
  9 15  1  0  0  0  0
 10  1  1  0  0  0  0
 11 10  1  0  0  0  0
 12 11  2  0  0  0  0
 13 12  1  0  0  0  0
 13  8  2  0  0  0  0
 14  8  1  0  0  0  0
 16 12  1  0  0  0  0
 17  3  1  0  0  0  0
 18 17  1  0  0  0  0
 19 18  2  0  0  0  0
 20 19  1  0  0  0  0
 21 22  2  0  0  0  0
 21 19  1  0  0  0  0
 22 23  1  0  0  0  0
 23 17  2  0  0  0  0
M  END
>  <minimizedAffinity>
-4.02363873

>  <minimizedRMSD>
5.27679253

$$$$
