
 OpenBabel03272509483D

 23 24  0  0  0  0  0  0  0  0999 V2000
   38.5510   22.9600   33.4070 C   0  0  0  0  0  0  0  0  0  0  0  0
   39.4750   22.9990   32.8180 H   0  0  0  0  0  0  0  0  0  0  0  0
   38.4610   23.9220   33.9540 H   0  0  0  0  0  0  0  0  0  0  0  0
   37.3130   22.7820   32.5750 C   0  0  0  0  0  0  0  0  0  0  0  0
   36.5800   22.1930   33.1250 H   0  0  0  0  0  0  0  0  0  0  0  0
   37.5770   22.2620   31.6150 H   0  0  0  0  0  0  0  0  0  0  0  0
   36.7210   24.0800   32.1530 C   0  0  0  0  0  0  0  0  0  0  0  0
   35.6130   24.0210   31.3320 C   0  0  0  0  0  3  0  0  0  0  0  0
   34.9810   25.1590   30.8790 C   0  0  0  0  0  0  0  0  0  0  0  0
   34.1090   25.1860   30.2330 H   0  0  0  0  0  0  0  0  0  0  0  0
   35.4510   26.3550   31.2420 N   0  0  0  0  0  0  0  0  0  0  0  0
   36.5400   26.4060   32.0480 C   0  0  0  0  0  3  0  0  0  0  0  0
   37.1710   25.3100   32.5030 N   0  0  0  0  0  0  0  0  0  0  0  0
   38.6030   21.9650   34.4230 O   0  0  0  0  0  0  0  0  0  0  0  0
   40.0160   22.6760   37.6870 C   0  0  0  0  0  0  0  0  0  0  0  0
   38.9060   23.2970   38.2940 C   0  0  0  0  0  0  0  0  0  0  0  0
   37.7420   23.4320   37.5460 C   0  0  0  0  0  0  0  0  0  0  0  0
   37.7560   22.9510   36.2640 N   0  0  0  0  0  0  0  0  0  0  0  0
   38.8270   22.3650   35.7150 C   0  0  0  0  0  0  0  0  0  0  0  0
   39.9640   22.2280   36.4340 N   0  0  0  0  0  0  0  0  0  0  0  0
   40.9570   22.5370   38.2130 H   0  0  0  0  0  0  0  0  0  0  0  0
   38.9850   23.6490   39.3160 H   0  0  0  0  0  0  0  0  0  0  0  0
   36.8660   23.9050   37.9760 H   0  0  0  0  0  0  0  0  0  0  0  0
  1  3  1  0  0  0  0
  1 14  1  0  0  0  0
  2  1  1  0  0  0  0
  4  5  1  0  0  0  0
  4  1  1  0  0  0  0
  6  4  1  0  0  0  0
  7 13  1  0  0  0  0
  7  4  1  0  0  0  0
  8  7  2  0  0  0  0
  9 11  2  0  0  0  0
  9  8  1  0  0  0  0
 10  9  1  0  0  0  0
 11 12  1  0  0  0  0
 12 13  2  0  0  0  0
 14 19  1  0  0  0  0
 15 21  1  0  0  0  0
 15 16  1  0  0  0  0
 16 22  1  0  0  0  0
 17 23  1  0  0  0  0
 17 16  2  0  0  0  0
 18 17  1  0  0  0  0
 19 18  2  0  0  0  0
 19 20  1  0  0  0  0
 20 15  2  0  0  0  0
M  END
>  <minimizedAffinity>
-4.09473991

$$$$

 OpenBabel03272509483D

 23 24  0  0  0  0  0  0  0  0999 V2000
   37.0590   27.1880   34.7080 C   0  0  0  0  0  0  0  0  0  0  0  0
   36.2420   26.5050   34.9670 H   0  0  0  0  0  0  0  0  0  0  0  0
   36.6590   28.2230   34.7560 H   0  0  0  0  0  0  0  0  0  0  0  0
   38.2340   27.1040   35.6410 C   0  0  0  0  0  0  0  0  0  0  0  0
   37.9760   27.5460   36.6020 H   0  0  0  0  0  0  0  0  0  0  0  0
   39.1090   27.6500   35.1940 H   0  0  0  0  0  0  0  0  0  0  0  0
   38.7130   25.7080   35.8260 C   0  0  0  0  0  0  0  0  0  0  0  0
   38.0170   24.9260   36.7270 C   0  0  0  0  0  3  0  0  0  0  0  0
   38.3700   23.6170   36.9800 C   0  0  0  0  0  0  0  0  0  0  0  0
   37.8700   22.9480   37.6720 H   0  0  0  0  0  0  0  0  0  0  0  0
   39.4140   23.0870   36.3360 N   0  0  0  0  0  0  0  0  0  0  0  0
   40.0930   23.8610   35.4540 C   0  0  0  0  0  3  0  0  0  0  0  0
   39.7660   25.1380   35.1920 N   0  0  0  0  0  0  0  0  0  0  0  0
   37.4920   27.0250   33.3630 O   0  0  0  0  0  0  0  0  0  0  0  0
   35.2160   25.5380   30.9620 C   0  0  0  0  0  0  0  0  0  0  0  0
   35.5970   24.1870   31.0820 C   0  0  0  0  0  0  0  0  0  0  0  0
   36.6090   23.8700   31.9800 C   0  0  0  0  0  0  0  0  0  0  0  0
   37.1700   24.8990   32.6880 N   0  0  0  0  0  0  0  0  0  0  0  0
   36.7870   26.1740   32.5510 C   0  0  0  0  0  0  0  0  0  0  0  0
   35.8020   26.4930   31.6800 N   0  0  0  0  0  0  0  0  0  0  0  0
   34.4320   25.8570   30.2800 H   0  0  0  0  0  0  0  0  0  0  0  0
   35.0970   23.4370   30.4810 H   0  0  0  0  0  0  0  0  0  0  0  0
   36.9320   22.8420   32.1030 H   0  0  0  0  0  0  0  0  0  0  0  0
  1  3  1  0  0  0  0
  1  2  1  0  0  0  0
  1  4  1  0  0  0  0
  4  7  1  0  0  0  0
  4  5  1  0  0  0  0
  6  4  1  0  0  0  0
  7  8  1  0  0  0  0
  8  9  2  0  0  0  0
  9 10  1  0  0  0  0
 11  9  1  0  0  0  0
 12 11  2  0  0  0  0
 13 12  1  0  0  0  0
 13  7  2  0  0  0  0
 14  1  1  0  0  0  0
 15 16  2  0  0  0  0
 15 20  1  0  0  0  0
 16 17  1  0  0  0  0
 17 23  1  0  0  0  0
 17 18  2  0  0  0  0
 19 18  1  0  0  0  0
 19 14  1  0  0  0  0
 20 19  2  0  0  0  0
 21 15  1  0  0  0  0
 22 16  1  0  0  0  0
M  END
>  <minimizedAffinity>
-3.98230147

$$$$

 OpenBabel03272509483D

 23 24  0  0  0  0  0  0  0  0999 V2000
   38.5850   23.0190   33.6050 C   0  0  0  0  0  0  0  0  0  0  0  0
   39.6820   22.9980   33.6340 H   0  0  0  0  0  0  0  0  0  0  0  0
   38.2680   22.6000   32.6270 H   0  0  0  0  0  0  0  0  0  0  0  0
   37.9390   22.2040   34.6890 C   0  0  0  0  0  0  0  0  0  0  0  0
   38.0940   21.1430   34.4970 H   0  0  0  0  0  0  0  0  0  0  0  0
   36.8380   22.4280   34.7210 H   0  0  0  0  0  0  0  0  0  0  0  0
   38.4390   22.5620   36.0440 C   0  0  0  0  0  0  0  0  0  0  0  0
   37.5460   23.1880   36.8910 C   0  0  0  0  0  3  0  0  0  0  0  0
   37.8980   23.5650   38.1700 C   0  0  0  0  0  0  0  0  0  0  0  0
   37.2500   24.0590   38.8860 H   0  0  0  0  0  0  0  0  0  0  0  0
   39.1370   23.3200   38.6040 N   0  0  0  0  0  0  0  0  0  0  0  0
   40.0090   22.7060   37.7670 C   0  0  0  0  0  3  0  0  0  0  0  0
   39.6870   22.3290   36.5170 N   0  0  0  0  0  0  0  0  0  0  0  0
   38.0720   24.3450   33.6210 O   0  0  0  0  0  0  0  0  0  0  0  0
   35.4980   24.3450   31.0650 C   0  0  0  0  0  0  0  0  0  0  0  0
   35.2730   25.7320   30.9570 C   0  0  0  0  0  0  0  0  0  0  0  0
   36.0190   26.5800   31.7670 C   0  0  0  0  0  0  0  0  0  0  0  0
   36.9250   26.0060   32.6190 N   0  0  0  0  0  0  0  0  0  0  0  0
   37.1160   24.6840   32.6980 C   0  0  0  0  0  0  0  0  0  0  0  0
   36.3950   23.8490   31.9140 N   0  0  0  0  0  0  0  0  0  0  0  0
   34.9510   23.6250   30.4620 H   0  0  0  0  0  0  0  0  0  0  0  0
   34.5350   26.0990   30.2540 H   0  0  0  0  0  0  0  0  0  0  0  0
   35.8760   27.6540   31.7150 H   0  0  0  0  0  0  0  0  0  0  0  0
  1 14  1  0  0  0  0
  1  2  1  0  0  0  0
  1  4  1  0  0  0  0
  3  1  1  0  0  0  0
  4  6  1  0  0  0  0
  4  7  1  0  0  0  0
  5  4  1  0  0  0  0
  7 13  2  0  0  0  0
  7  8  1  0  0  0  0
  8  9  2  0  0  0  0
  9 11  1  0  0  0  0
  9 10  1  0  0  0  0
 12 11  2  0  0  0  0
 13 12  1  0  0  0  0
 15 20  1  0  0  0  0
 16 15  2  0  0  0  0
 16 17  1  0  0  0  0
 17 18  2  0  0  0  0
 18 19  1  0  0  0  0
 19 14  1  0  0  0  0
 20 19  2  0  0  0  0
 21 15  1  0  0  0  0
 22 16  1  0  0  0  0
 23 17  1  0  0  0  0
M  END
>  <minimizedAffinity>
-3.95170712

$$$$

 OpenBabel03272509483D

 23 24  0  0  0  0  0  0  0  0999 V2000
   39.4840   25.0100   34.0820 C   0  0  0  0  0  0  0  0  0  0  0  0
   39.4620   24.9550   32.9870 H   0  0  0  0  0  0  0  0  0  0  0  0
   40.4300   24.5380   34.4230 H   0  0  0  0  0  0  0  0  0  0  0  0
   39.4490   26.4140   34.6150 C   0  0  0  0  0  0  0  0  0  0  0  0
   40.3600   26.9390   34.3320 H   0  0  0  0  0  0  0  0  0  0  0  0
   39.3560   26.3890   35.7350 H   0  0  0  0  0  0  0  0  0  0  0  0
   38.2530   27.1680   34.1520 C   0  0  0  0  0  0  0  0  0  0  0  0
   38.0950   27.3080   32.7880 C   0  0  0  0  0  3  0  0  0  0  0  0
   37.0240   27.9860   32.2440 C   0  0  0  0  0  0  0  0  0  0  0  0
   36.8390   28.1330   31.1850 H   0  0  0  0  0  0  0  0  0  0  0  0
   36.1130   28.5250   33.0580 N   0  0  0  0  0  0  0  0  0  0  0  0
   36.2750   28.3840   34.3960 C   0  0  0  0  0  3  0  0  0  0  0  0
   37.3090   27.7270   34.9480 N   0  0  0  0  0  0  0  0  0  0  0  0
   38.4510   24.2360   34.6810 O   0  0  0  0  0  0  0  0  0  0  0  0
   37.8790   24.1760   38.2620 C   0  0  0  0  0  0  0  0  0  0  0  0
   38.9330   23.3280   38.6550 C   0  0  0  0  0  0  0  0  0  0  0  0
   39.7750   22.8300   37.6670 C   0  0  0  0  0  0  0  0  0  0  0  0
   39.5190   23.2000   36.3730 N   0  0  0  0  0  0  0  0  0  0  0  0
   38.5080   24.0080   36.0320 C   0  0  0  0  0  0  0  0  0  0  0  0
   37.6830   24.4990   36.9850 N   0  0  0  0  0  0  0  0  0  0  0  0
   37.1830   24.6020   38.9810 H   0  0  0  0  0  0  0  0  0  0  0  0
   39.0610   23.0880   39.7040 H   0  0  0  0  0  0  0  0  0  0  0  0
   40.5980   22.1740   37.9270 H   0  0  0  0  0  0  0  0  0  0  0  0
  1  3  1  0  0  0  0
  1  4  1  0  0  0  0
  1 14  1  0  0  0  0
  2  1  1  0  0  0  0
  4  6  1  0  0  0  0
  5  4  1  0  0  0  0
  7  4  1  0  0  0  0
  7 13  1  0  0  0  0
  8  7  2  0  0  0  0
  9  8  1  0  0  0  0
  9 11  2  0  0  0  0
 10  9  1  0  0  0  0
 11 12  1  0  0  0  0
 12 13  2  0  0  0  0
 14 19  1  0  0  0  0
 15 16  1  0  0  0  0
 15 21  1  0  0  0  0
 16 22  1  0  0  0  0
 17 23  1  0  0  0  0
 17 16  2  0  0  0  0
 18 17  1  0  0  0  0
 19 18  2  0  0  0  0
 19 20  1  0  0  0  0
 20 15  2  0  0  0  0
M  END
>  <minimizedAffinity>
-3.90821791

$$$$

 OpenBabel03272509483D

 23 24  0  0  0  0  0  0  0  0999 V2000
   38.6390   27.1830   35.5870 C   0  0  0  0  0  0  0  0  0  0  0  0
   39.1520   26.6330   34.7890 H   0  0  0  0  0  0  0  0  0  0  0  0
   39.3570   27.9250   35.9960 H   0  0  0  0  0  0  0  0  0  0  0  0
   37.4210   27.9270   35.1210 C   0  0  0  0  0  0  0  0  0  0  0  0
   37.6320   28.9940   35.0790 H   0  0  0  0  0  0  0  0  0  0  0  0
   36.5700   27.7350   35.8300 H   0  0  0  0  0  0  0  0  0  0  0  0
   36.9310   27.4450   33.8010 C   0  0  0  0  0  0  0  0  0  0  0  0
   36.2890   28.3680   33.0010 C   0  0  0  0  0  3  0  0  0  0  0  0
   35.7940   28.0350   31.7580 C   0  0  0  0  0  0  0  0  0  0  0  0
   35.2800   28.7080   31.0790 H   0  0  0  0  0  0  0  0  0  0  0  0
   35.9380   26.7840   31.3120 N   0  0  0  0  0  0  0  0  0  0  0  0
   36.5690   25.8830   32.1030 C   0  0  0  0  0  3  0  0  0  0  0  0
   37.0600   26.1850   33.3180 N   0  0  0  0  0  0  0  0  0  0  0  0
   38.3080   26.3470   36.6900 O   0  0  0  0  0  0  0  0  0  0  0  0
   37.5210   22.8070   36.7510 C   0  0  0  0  0  0  0  0  0  0  0  0
   38.4890   22.3350   35.8430 C   0  0  0  0  0  0  0  0  0  0  0  0
   39.3520   23.2600   35.2670 C   0  0  0  0  0  0  0  0  0  0  0  0
   39.2000   24.5730   35.6240 N   0  0  0  0  0  0  0  0  0  0  0  0
   38.2690   24.9910   36.4900 C   0  0  0  0  0  0  0  0  0  0  0  0
   37.4240   24.0990   37.0560 N   0  0  0  0  0  0  0  0  0  0  0  0
   36.8150   22.1400   37.2380 H   0  0  0  0  0  0  0  0  0  0  0  0
   38.5380   21.2760   35.6190 H   0  0  0  0  0  0  0  0  0  0  0  0
   40.1110   22.9370   34.5630 H   0  0  0  0  0  0  0  0  0  0  0  0
  1  3  1  0  0  0  0
  1 14  1  0  0  0  0
  2  1  1  0  0  0  0
  4  1  1  0  0  0  0
  4  6  1  0  0  0  0
  5  4  1  0  0  0  0
  7  4  1  0  0  0  0
  8  7  2  0  0  0  0
  9  8  1  0  0  0  0
 10  9  1  0  0  0  0
 11  9  2  0  0  0  0
 11 12  1  0  0  0  0
 12 13  2  0  0  0  0
 13  7  1  0  0  0  0
 15 20  1  0  0  0  0
 15 21  1  0  0  0  0
 16 15  2  0  0  0  0
 17 18  2  0  0  0  0
 17 16  1  0  0  0  0
 18 19  1  0  0  0  0
 19 14  1  0  0  0  0
 19 20  2  0  0  0  0
 22 16  1  0  0  0  0
 23 17  1  0  0  0  0
M  END
>  <minimizedAffinity>
-3.89006352

$$$$

 OpenBabel03272509483D

 23 24  0  0  0  0  0  0  0  0999 V2000
   35.8680   29.2510   32.9620 C   0  0  0  0  0  0  0  0  0  0  0  0
   36.6470   29.8930   33.3910 H   0  0  0  0  0  0  0  0  0  0  0  0
   35.6360   29.6380   31.9470 H   0  0  0  0  0  0  0  0  0  0  0  0
   36.2790   27.8130   32.8270 C   0  0  0  0  0  0  0  0  0  0  0  0
   36.4220   27.5670   31.7760 H   0  0  0  0  0  0  0  0  0  0  0  0
   35.4830   27.1520   33.2670 H   0  0  0  0  0  0  0  0  0  0  0  0
   37.5070   27.4970   33.6040 C   0  0  0  0  0  0  0  0  0  0  0  0
   37.4050   27.5500   34.9790 C   0  0  0  0  0  3  0  0  0  0  0  0
   38.4780   27.2760   35.8010 C   0  0  0  0  0  0  0  0  0  0  0  0
   38.4670   27.2990   36.8860 H   0  0  0  0  0  0  0  0  0  0  0  0
   39.6520   26.9510   35.2530 N   0  0  0  0  0  0  0  0  0  0  0  0
   39.7460   26.9020   33.9020 C   0  0  0  0  0  3  0  0  0  0  0  0
   38.7130   27.1640   33.0820 N   0  0  0  0  0  0  0  0  0  0  0  0
   34.6410   29.3420   33.6780 O   0  0  0  0  0  0  0  0  0  0  0  0
   33.5760   31.3960   36.4720 C   0  0  0  0  0  0  0  0  0  0  0  0
   34.7990   32.0210   36.7840 C   0  0  0  0  0  0  0  0  0  0  0  0
   35.9130   31.7000   36.0160 C   0  0  0  0  0  0  0  0  0  0  0  0
   35.7430   30.7930   35.0050 N   0  0  0  0  0  0  0  0  0  0  0  0
   34.5670   30.2150   34.7330 C   0  0  0  0  0  0  0  0  0  0  0  0
   33.4770   30.5200   35.4730 N   0  0  0  0  0  0  0  0  0  0  0  0
   32.6660   31.6000   37.0290 H   0  0  0  0  0  0  0  0  0  0  0  0
   34.8420   32.7290   37.6030 H   0  0  0  0  0  0  0  0  0  0  0  0
   36.8730   32.1590   36.2240 H   0  0  0  0  0  0  0  0  0  0  0  0
  1  2  1  0  0  0  0
  1 14  1  0  0  0  0
  3  1  1  0  0  0  0
  4  1  1  0  0  0  0
  4  6  1  0  0  0  0
  4  7  1  0  0  0  0
  5  4  1  0  0  0  0
  7  8  1  0  0  0  0
  8  9  2  0  0  0  0
  9 10  1  0  0  0  0
 11  9  1  0  0  0  0
 12 11  2  0  0  0  0
 13  7  2  0  0  0  0
 13 12  1  0  0  0  0
 14 19  1  0  0  0  0
 15 16  1  0  0  0  0
 15 21  1  0  0  0  0
 16 22  1  0  0  0  0
 17 23  1  0  0  0  0
 17 16  2  0  0  0  0
 18 17  1  0  0  0  0
 19 18  2  0  0  0  0
 19 20  1  0  0  0  0
 20 15  2  0  0  0  0
M  END
>  <minimizedAffinity>
-3.85142899

$$$$

 OpenBabel03272509483D

 23 24  0  0  0  0  0  0  0  0999 V2000
   38.6610   23.3190   33.4160 C   0  0  0  0  0  0  0  0  0  0  0  0
   39.5820   23.5060   32.8500 H   0  0  0  0  0  0  0  0  0  0  0  0
   38.4460   24.2280   34.0160 H   0  0  0  0  0  0  0  0  0  0  0  0
   37.4670   23.0420   32.5500 C   0  0  0  0  0  0  0  0  0  0  0  0
   36.7700   22.3910   33.0770 H   0  0  0  0  0  0  0  0  0  0  0  0
   37.8000   22.5490   31.5960 H   0  0  0  0  0  0  0  0  0  0  0  0
   36.7800   24.2870   32.1130 C   0  0  0  0  0  0  0  0  0  0  0  0
   37.2320   25.4710   32.6610 C   0  0  0  0  0  3  0  0  0  0  0  0
   36.6720   26.6870   32.3310 C   0  0  0  0  0  0  0  0  0  0  0  0
   36.9760   27.6520   32.7220 H   0  0  0  0  0  0  0  0  0  0  0  0
   35.6630   26.7240   31.4550 N   0  0  0  0  0  0  0  0  0  0  0  0
   35.2250   25.5580   30.9220 C   0  0  0  0  0  3  0  0  0  0  0  0
   35.7560   24.3620   31.2290 N   0  0  0  0  0  0  0  0  0  0  0  0
   38.8210   22.2780   34.3730 O   0  0  0  0  0  0  0  0  0  0  0  0
   37.9780   23.3860   37.7230 C   0  0  0  0  0  0  0  0  0  0  0  0
   39.2130   23.1620   38.3620 C   0  0  0  0  0  0  0  0  0  0  0  0
   40.2580   22.6460   37.6050 C   0  0  0  0  0  0  0  0  0  0  0  0
   40.0130   22.3890   36.2830 N   0  0  0  0  0  0  0  0  0  0  0  0
   38.8270   22.6120   35.7030 C   0  0  0  0  0  0  0  0  0  0  0  0
   37.8030   23.1140   36.4310 N   0  0  0  0  0  0  0  0  0  0  0  0
   37.1180   23.7870   38.2530 H   0  0  0  0  0  0  0  0  0  0  0  0
   39.3180   23.3950   39.4150 H   0  0  0  0  0  0  0  0  0  0  0  0
   41.2250   22.4590   38.0600 H   0  0  0  0  0  0  0  0  0  0  0  0
  1  3  1  0  0  0  0
  1 14  1  0  0  0  0
  2  1  1  0  0  0  0
  4  5  1  0  0  0  0
  4  1  1  0  0  0  0
  6  4  1  0  0  0  0
  7  4  1  0  0  0  0
  7  8  1  0  0  0  0
  9  8  2  0  0  0  0
  9 10  1  0  0  0  0
 11  9  1  0  0  0  0
 12 13  1  0  0  0  0
 12 11  2  0  0  0  0
 13  7  2  0  0  0  0
 14 19  1  0  0  0  0
 15 21  1  0  0  0  0
 15 16  1  0  0  0  0
 16 22  1  0  0  0  0
 17 23  1  0  0  0  0
 17 16  2  0  0  0  0
 18 17  1  0  0  0  0
 19 18  2  0  0  0  0
 19 20  1  0  0  0  0
 20 15  2  0  0  0  0
M  END
>  <minimizedAffinity>
-3.83719802

$$$$

 OpenBabel03272509483D

 23 24  0  0  0  0  0  0  0  0999 V2000
   36.2710   20.9920   35.3540 C   0  0  0  0  0  0  0  0  0  0  0  0
   35.5530   21.3230   36.1150 H   0  0  0  0  0  0  0  0  0  0  0  0
   36.7990   20.1020   35.7570 H   0  0  0  0  0  0  0  0  0  0  0  0
   35.6320   20.6000   34.0530 C   0  0  0  0  0  0  0  0  0  0  0  0
   34.6330   21.0280   33.9880 H   0  0  0  0  0  0  0  0  0  0  0  0
   35.5710   19.4800   33.9850 H   0  0  0  0  0  0  0  0  0  0  0  0
   36.4450   21.0080   32.8760 C   0  0  0  0  0  0  0  0  0  0  0  0
   36.0260   22.1290   32.1870 C   0  0  0  0  0  3  0  0  0  0  0  0
   36.7020   22.6000   31.0810 C   0  0  0  0  0  0  0  0  0  0  0  0
   36.4290   23.4710   30.4960 H   0  0  0  0  0  0  0  0  0  0  0  0
   37.7930   21.9550   30.6610 N   0  0  0  0  0  0  0  0  0  0  0  0
   38.1980   20.8550   31.3400 C   0  0  0  0  0  3  0  0  0  0  0  0
   37.5560   20.3780   32.4210 N   0  0  0  0  0  0  0  0  0  0  0  0
   37.2940   21.9530   35.1250 O   0  0  0  0  0  0  0  0  0  0  0  0
   39.9690   22.6280   37.4810 C   0  0  0  0  0  0  0  0  0  0  0  0
   39.2450   23.3300   38.4640 C   0  0  0  0  0  0  0  0  0  0  0  0
   37.8850   23.5280   38.2590 C   0  0  0  0  0  0  0  0  0  0  0  0
   37.3400   23.0240   37.1080 N   0  0  0  0  0  0  0  0  0  0  0  0
   38.0550   22.3600   36.1910 C   0  0  0  0  0  0  0  0  0  0  0  0
   39.3790   22.1620   36.3810 N   0  0  0  0  0  0  0  0  0  0  0  0
   41.0350   22.4370   37.5760 H   0  0  0  0  0  0  0  0  0  0  0  0
   39.7590   23.6940   39.3460 H   0  0  0  0  0  0  0  0  0  0  0  0
   37.2920   24.0640   38.9910 H   0  0  0  0  0  0  0  0  0  0  0  0
  1  3  1  0  0  0  0
  1  2  1  0  0  0  0
  4  1  1  0  0  0  0
  5  4  1  0  0  0  0
  6  4  1  0  0  0  0
  7  4  1  0  0  0  0
  8  7  2  0  0  0  0
  9  8  1  0  0  0  0
 10  9  1  0  0  0  0
 11  9  2  0  0  0  0
 11 12  1  0  0  0  0
 12 13  2  0  0  0  0
 13  7  1  0  0  0  0
 14  1  1  0  0  0  0
 14 19  1  0  0  0  0
 15 21  1  0  0  0  0
 15 16  1  0  0  0  0
 16 22  1  0  0  0  0
 17 16  2  0  0  0  0
 17 23  1  0  0  0  0
 18 17  1  0  0  0  0
 19 20  1  0  0  0  0
 19 18  2  0  0  0  0
 20 15  2  0  0  0  0
M  END
>  <minimizedAffinity>
-3.83234334

$$$$

 OpenBabel03272509483D

 23 24  0  0  0  0  0  0  0  0999 V2000
   38.2540   22.3410   35.4260 C   0  0  0  0  0  0  0  0  0  0  0  0
   39.1280   21.7660   35.7530 H   0  0  0  0  0  0  0  0  0  0  0  0
   38.4870   22.7650   34.4260 H   0  0  0  0  0  0  0  0  0  0  0  0
   37.0040   21.5180   35.3000 C   0  0  0  0  0  0  0  0  0  0  0  0
   36.2170   21.9440   35.9200 H   0  0  0  0  0  0  0  0  0  0  0  0
   37.2140   20.4630   35.6230 H   0  0  0  0  0  0  0  0  0  0  0  0
   36.5420   21.3980   33.8900 C   0  0  0  0  0  0  0  0  0  0  0  0
   35.5660   20.4570   33.6330 C   0  0  0  0  0  3  0  0  0  0  0  0
   35.0620   20.2580   32.3650 C   0  0  0  0  0  0  0  0  0  0  0  0
   34.2980   19.5380   32.0930 H   0  0  0  0  0  0  0  0  0  0  0  0
   35.5300   20.9950   31.3550 N   0  0  0  0  0  0  0  0  0  0  0  0
   36.4890   21.9170   31.6140 C   0  0  0  0  0  3  0  0  0  0  0  0
   36.9940   22.1290   32.8420 N   0  0  0  0  0  0  0  0  0  0  0  0
   38.0120   23.4710   36.2560 O   0  0  0  0  0  0  0  0  0  0  0  0
   38.7420   26.9870   35.7420 C   0  0  0  0  0  0  0  0  0  0  0  0
   39.9250   26.8730   34.9870 C   0  0  0  0  0  0  0  0  0  0  0  0
   40.3990   25.5980   34.6990 C   0  0  0  0  0  0  0  0  0  0  0  0
   39.6780   24.5350   35.1750 N   0  0  0  0  0  0  0  0  0  0  0  0
   38.5560   24.6750   35.8910 C   0  0  0  0  0  0  0  0  0  0  0  0
   38.0870   25.9120   36.1760 N   0  0  0  0  0  0  0  0  0  0  0  0
   38.3150   27.9520   36.0030 H   0  0  0  0  0  0  0  0  0  0  0  0
   40.4310   27.7710   34.6510 H   0  0  0  0  0  0  0  0  0  0  0  0
   41.3070   25.4670   34.1210 H   0  0  0  0  0  0  0  0  0  0  0  0
  1  2  1  0  0  0  0
  1 14  1  0  0  0  0
  3  1  1  0  0  0  0
  4  1  1  0  0  0  0
  4  6  1  0  0  0  0
  4  5  1  0  0  0  0
  7  4  1  0  0  0  0
  8  7  1  0  0  0  0
  9  8  2  0  0  0  0
 10  9  1  0  0  0  0
 11 12  2  0  0  0  0
 11  9  1  0  0  0  0
 12 13  1  0  0  0  0
 13  7  2  0  0  0  0
 15 21  1  0  0  0  0
 15 20  1  0  0  0  0
 16 15  2  0  0  0  0
 17 16  1  0  0  0  0
 17 18  2  0  0  0  0
 18 19  1  0  0  0  0
 19 20  2  0  0  0  0
 19 14  1  0  0  0  0
 22 16  1  0  0  0  0
 23 17  1  0  0  0  0
M  END
>  <minimizedAffinity>
-3.81130528

$$$$
