
 OpenBabel03272510023D

 19 20  0  0  0  0  0  0  0  0999 V2000
   38.3090   31.2870   50.2270 C   0  0  0  0  0  0  0  0  0  0  0  0
   38.4270   31.5540   48.8520 C   0  0  0  0  0  0  0  0  0  0  0  0
   37.4210   31.0710   48.0290 C   0  0  0  0  0  0  0  0  0  0  0  0
   36.3880   30.3770   48.5650 N   0  0  0  0  0  0  0  0  0  0  0  0
   36.3130   30.1420   49.8950 C   0  0  0  0  0  0  0  0  0  0  0  0
   37.2660   30.5940   50.7180 N   0  0  0  0  0  0  0  0  0  0  0  0
   39.0730   31.6470   50.9050 H   0  0  0  0  0  0  0  0  0  0  0  0
   39.2740   32.1130   48.4760 H   0  0  0  0  0  0  0  0  0  0  0  0
   37.4820   31.3110   46.5910 C   0  0  0  0  0  0  0  0  0  0  0  0
   36.7130   30.5490   45.7350 C   0  0  0  0  0  3  0  0  0  0  0  0
   36.8200   30.8310   44.3870 C   0  0  0  0  0  0  0  0  0  0  0  0
   36.2330   30.2530   43.7020 H   0  0  0  0  0  0  0  0  0  0  0  0
   37.6440   31.8080   43.9800 N   0  0  0  0  0  0  0  0  0  0  0  0
   38.3930   32.5530   44.7970 C   0  0  0  0  0  3  0  0  0  0  0  0
   38.2890   32.2770   46.1220 N   0  0  0  0  0  0  0  0  0  0  0  0
   35.1470   29.3740   50.3980 C   0  0  0  0  0  0  0  0  0  0  0  0
   35.2340   29.1070   51.7590 F   0  0  0  0  0  0  0  0  0  0  0  0
   33.9680   30.0740   50.2070 F   0  0  0  0  0  0  0  0  0  0  0  0
   34.9760   28.1720   49.7540 F   0  0  0  0  0  0  0  0  0  0  0  0
  1  6  1  0  0  0  0
  1  7  1  0  0  0  0
  2  1  2  0  0  0  0
  3  4  2  0  0  0  0
  3  2  1  0  0  0  0
  4  5  1  0  0  0  0
  5 16  1  0  0  0  0
  5  6  2  0  0  0  0
  8  2  1  0  0  0  0
  9  3  1  0  0  0  0
 10  9  2  0  0  0  0
 11 10  1  0  0  0  0
 12 11  1  0  0  0  0
 13 11  2  0  0  0  0
 13 14  1  0  0  0  0
 14 15  2  0  0  0  0
 15  9  1  0  0  0  0
 16 17  1  0  0  0  0
 18 16  1  0  0  0  0
 19 16  1  0  0  0  0
M  END
>  <minimizedAffinity>
-5.40674925

>  <minimizedRMSD>
0.433260053

$$$$
