
 OpenBabel03262522203D

 17 18  0  0  0  0  0  0  0  0999 V2000
   37.9780   30.2780   49.7300 C   0  0  0  0  0  0  0  0  0  0  0  0
   37.5030   31.0080   48.6230 C   0  0  0  0  0  0  0  0  0  0  0  0
   36.2440   30.6920   48.1430 C   0  0  0  0  0  0  0  0  0  0  0  0
   35.5240   29.7080   48.7460 N   0  0  0  0  0  0  0  0  0  0  0  0
   36.0200   29.0290   49.8080 C   0  0  0  0  0  0  0  0  0  0  0  0
   37.2380   29.2990   50.3120 N   0  0  0  0  0  0  0  0  0  0  0  0
   38.9530   30.4560   50.1730 H   0  0  0  0  0  0  0  0  0  0  0  0
   35.9360   31.2710   47.3130 H   0  0  0  0  0  0  0  0  0  0  0  0
   35.3530   28.2670   50.2030 H   0  0  0  0  0  0  0  0  0  0  0  0
   38.3800   31.9580   48.1610 O   0  0  0  0  0  0  0  0  0  0  0  0
   39.0780   31.8720   46.9540 C   0  0  0  0  0  0  0  0  0  0  0  0
   39.1830   30.7460   46.1540 C   0  0  0  0  0  0  0  0  0  0  0  0
   39.9120   30.8160   44.9810 C   0  0  0  0  0  0  0  0  0  0  0  0
   39.9870   29.9310   44.3660 H   0  0  0  0  0  0  0  0  0  0  0  0
   40.5140   31.9630   44.6180 N   0  0  0  0  0  0  0  0  0  0  0  0
   40.3740   33.0200   45.4370 C   0  0  0  0  0  0  0  0  0  0  0  0
   39.6790   33.0200   46.5920 N   0  0  0  0  0  0  0  0  0  0  0  0
  1  7  1  0  0  0  0
  1  6  1  0  0  0  0
  2  1  2  0  0  0  0
  3  2  1  0  0  0  0
  3  4  2  0  0  0  0
  4  5  1  0  0  0  0
  5  9  1  0  0  0  0
  5  6  2  0  0  0  0
  8  3  1  0  0  0  0
 10  2  1  0  0  0  0
 11 10  1  0  0  0  0
 12 11  2  0  0  0  0
 13 12  1  0  0  0  0
 14 13  1  0  0  0  0
 15 13  2  0  0  0  0
 15 16  1  0  0  0  0
 16 17  2  0  0  0  0
 17 11  1  0  0  0  0
M  END
>  <minimizedAffinity>
-4.22448301

>  <minimizedRMSD>
3.85319448

$$$$
