
 OpenBabel03272509463D

 23 24  0  0  0  0  0  0  0  0999 V2000
   34.0470   28.4960   48.6440 C   0  0  0  0  0  0  0  0  0  0  0  0
   34.5280   29.2450   48.0030 H   0  0  0  0  0  0  0  0  0  0  0  0
   33.0630   28.9050   48.9560 H   0  0  0  0  0  0  0  0  0  0  0  0
   33.8060   27.1820   47.9590 C   0  0  0  0  0  0  0  0  0  0  0  0
   33.2230   26.5290   48.6070 H   0  0  0  0  0  0  0  0  0  0  0  0
   34.7910   26.6970   47.7180 H   0  0  0  0  0  0  0  0  0  0  0  0
   33.1300   27.3420   46.6440 C   0  0  0  0  0  0  0  0  0  0  0  0
   31.9650   28.0820   46.6290 C   0  0  0  0  0  3  0  0  0  0  0  0
   31.2530   28.2960   45.4690 C   0  0  0  0  0  0  0  0  0  0  0  0
   30.3330   28.8660   45.3860 H   0  0  0  0  0  0  0  0  0  0  0  0
   31.7000   27.7750   44.3240 N   0  0  0  0  0  0  0  0  0  0  0  0
   32.8440   27.0480   44.3450 C   0  0  0  0  0  3  0  0  0  0  0  0
   33.5540   26.8280   45.4650 N   0  0  0  0  0  0  0  0  0  0  0  0
   34.7600   28.2900   49.8580 O   0  0  0  0  0  0  0  0  0  0  0  0
   37.3810   30.2630   51.4060 C   0  0  0  0  0  0  0  0  0  0  0  0
   38.0670   30.6890   50.2520 C   0  0  0  0  0  0  0  0  0  0  0  0
   37.5880   30.2730   49.0150 C   0  0  0  0  0  0  0  0  0  0  0  0
   36.4760   29.4740   49.0040 N   0  0  0  0  0  0  0  0  0  0  0  0
   35.8450   29.0860   50.1190 C   0  0  0  0  0  0  0  0  0  0  0  0
   36.3030   29.4840   51.3280 N   0  0  0  0  0  0  0  0  0  0  0  0
   37.6990   30.5500   52.4050 H   0  0  0  0  0  0  0  0  0  0  0  0
   38.9410   31.3220   50.3540 H   0  0  0  0  0  0  0  0  0  0  0  0
   38.0880   30.5790   48.1020 H   0  0  0  0  0  0  0  0  0  0  0  0
  1  3  1  0  0  0  0
  1 14  1  0  0  0  0
  2  1  1  0  0  0  0
  4  5  1  0  0  0  0
  4  1  1  0  0  0  0
  6  4  1  0  0  0  0
  7  4  1  0  0  0  0
  8  7  1  0  0  0  0
  9  8  2  0  0  0  0
 10  9  1  0  0  0  0
 11 12  2  0  0  0  0
 11  9  1  0  0  0  0
 12 13  1  0  0  0  0
 13  7  2  0  0  0  0
 14 19  1  0  0  0  0
 15 21  1  0  0  0  0
 16 22  1  0  0  0  0
 16 15  2  0  0  0  0
 17 16  1  0  0  0  0
 18 17  2  0  0  0  0
 18 19  1  0  0  0  0
 19 20  2  0  0  0  0
 20 15  1  0  0  0  0
 23 17  1  0  0  0  0
M  END
>  <minimizedAffinity>
-3.65566468

>  <minimizedRMSD>
0.310294032

$$$$
