
 OpenBabel03272509463D

 23 24  0  0  0  0  0  0  0  0999 V2000
   33.9040   28.6480   49.0740 C   0  0  0  0  0  0  0  0  0  0  0  0
   34.0420   29.6720   48.7070 H   0  0  0  0  0  0  0  0  0  0  0  0
   33.1040   28.6730   49.8440 H   0  0  0  0  0  0  0  0  0  0  0  0
   33.4890   27.6760   48.0070 C   0  0  0  0  0  0  0  0  0  0  0  0
   32.5170   27.2500   48.2520 H   0  0  0  0  0  0  0  0  0  0  0  0
   34.2540   26.8560   47.9270 H   0  0  0  0  0  0  0  0  0  0  0  0
   33.4560   28.2970   46.6550 C   0  0  0  0  0  0  0  0  0  0  0  0
   34.3430   29.3280   46.4210 C   0  0  0  0  0  3  0  0  0  0  0  0
   34.4020   29.9780   45.2070 C   0  0  0  0  0  0  0  0  0  0  0  0
   35.0720   30.7930   44.9550 H   0  0  0  0  0  0  0  0  0  0  0  0
   33.5780   29.6000   44.2260 N   0  0  0  0  0  0  0  0  0  0  0  0
   32.7090   28.5870   44.4620 C   0  0  0  0  0  3  0  0  0  0  0  0
   32.6350   27.9410   45.6380 N   0  0  0  0  0  0  0  0  0  0  0  0
   35.0540   28.1620   49.7560 O   0  0  0  0  0  0  0  0  0  0  0  0
   37.4120   30.3490   51.4320 C   0  0  0  0  0  0  0  0  0  0  0  0
   38.1050   30.8500   50.3130 C   0  0  0  0  0  0  0  0  0  0  0  0
   37.7200   30.4070   49.0520 C   0  0  0  0  0  0  0  0  0  0  0  0
   36.6880   29.5090   48.9870 N   0  0  0  0  0  0  0  0  0  0  0  0
   36.0490   29.0510   50.0700 C   0  0  0  0  0  0  0  0  0  0  0  0
   36.4160   29.4760   51.3010 N   0  0  0  0  0  0  0  0  0  0  0  0
   37.6600   30.6530   52.4460 H   0  0  0  0  0  0  0  0  0  0  0  0
   38.9110   31.5600   50.4580 H   0  0  0  0  0  0  0  0  0  0  0  0
   38.2280   30.7680   48.1650 H   0  0  0  0  0  0  0  0  0  0  0  0
  1 14  1  0  0  0  0
  1  3  1  0  0  0  0
  2  1  1  0  0  0  0
  4  5  1  0  0  0  0
  4  1  1  0  0  0  0
  6  4  1  0  0  0  0
  7  4  1  0  0  0  0
  8  7  1  0  0  0  0
  9  8  2  0  0  0  0
 10  9  1  0  0  0  0
 11 12  2  0  0  0  0
 11  9  1  0  0  0  0
 12 13  1  0  0  0  0
 13  7  2  0  0  0  0
 14 19  1  0  0  0  0
 15 21  1  0  0  0  0
 16 22  1  0  0  0  0
 16 15  2  0  0  0  0
 17 16  1  0  0  0  0
 18 17  2  0  0  0  0
 18 19  1  0  0  0  0
 19 20  2  0  0  0  0
 20 15  1  0  0  0  0
 23 17  1  0  0  0  0
M  END
>  <minimizedAffinity>
-3.78908038

>  <minimizedRMSD>
1.31166995

$$$$
