
 OpenBabel03262522203D

 17 18  0  0  0  0  0  0  0  0999 V2000
   36.5230   29.4000   50.3860 C   0  0  0  0  0  0  0  0  0  0  0  0
   36.7270   30.0240   49.1400 C   0  0  0  0  0  0  0  0  0  0  0  0
   35.6040   30.4160   48.4310 C   0  0  0  0  0  0  0  0  0  0  0  0
   34.3690   30.1890   48.9530 N   0  0  0  0  0  0  0  0  0  0  0  0
   34.2180   29.5840   50.1560 C   0  0  0  0  0  0  0  0  0  0  0  0
   35.2780   29.1860   50.8830 N   0  0  0  0  0  0  0  0  0  0  0  0
   37.3430   29.0600   51.0100 H   0  0  0  0  0  0  0  0  0  0  0  0
   35.8130   30.8790   47.5040 H   0  0  0  0  0  0  0  0  0  0  0  0
   33.1840   29.4580   50.4670 H   0  0  0  0  0  0  0  0  0  0  0  0
   38.0480   30.1610   48.7910 O   0  0  0  0  0  0  0  0  0  0  0  0
   38.5290   31.0760   47.8530 C   0  0  0  0  0  0  0  0  0  0  0  0
   38.8820   32.3930   48.1060 C   0  0  0  0  0  3  0  0  0  0  0  0
   39.3450   33.1790   47.0690 C   0  0  0  0  0  0  0  0  0  0  0  0
   39.6170   34.2030   47.2790 H   0  0  0  0  0  0  0  0  0  0  0  0
   39.4530   32.6770   45.8240 N   0  0  0  0  0  0  0  0  0  0  0  0
   39.0940   31.3950   45.6430 C   0  0  0  0  0  3  0  0  0  0  0  0
   38.6360   30.5740   46.6090 N   0  0  0  0  0  0  0  0  0  0  0  0
  1  6  1  0  0  0  0
  1  7  1  0  0  0  0
  2  1  2  0  0  0  0
  3  4  2  0  0  0  0
  3  2  1  0  0  0  0
  4  5  1  0  0  0  0
  5  9  1  0  0  0  0
  5  6  2  0  0  0  0
  8  3  1  0  0  0  0
 10  2  1  0  0  0  0
 11 12  1  0  0  0  0
 11 10  1  0  0  0  0
 13 14  1  0  0  0  0
 13 12  2  0  0  0  0
 15 13  1  0  0  0  0
 16 15  2  0  0  0  0
 16 17  1  0  0  0  0
 17 11  2  0  0  0  0
M  END
>  <minimizedAffinity>
-3.72672462

>  <minimizedRMSD>
2.98340416

$$$$
