
 OpenBabel03272510013D

 19 20  0  0  0  0  0  0  0  0999 V2000
   38.1240   32.8100   49.4720 C   0  0  0  0  0  0  0  0  0  0  0  0
   38.5570   32.6960   48.1400 C   0  0  0  0  0  0  0  0  0  0  0  0
   37.9570   31.7150   47.3660 C   0  0  0  0  0  0  0  0  0  0  0  0
   37.0010   30.9210   47.9080 N   0  0  0  0  0  0  0  0  0  0  0  0
   36.6140   31.0650   49.1960 C   0  0  0  0  0  0  0  0  0  0  0  0
   37.1720   32.0020   49.9700 N   0  0  0  0  0  0  0  0  0  0  0  0
   38.5670   33.5650   50.1110 H   0  0  0  0  0  0  0  0  0  0  0  0
   39.3240   33.3560   47.7570 H   0  0  0  0  0  0  0  0  0  0  0  0
   38.3590   31.5410   45.9740 C   0  0  0  0  0  0  0  0  0  0  0  0
   39.0880   30.4290   45.6030 C   0  0  0  0  0  3  0  0  0  0  0  0
   39.4340   30.3310   44.2700 C   0  0  0  0  0  0  0  0  0  0  0  0
   39.9990   29.4770   43.9570 H   0  0  0  0  0  0  0  0  0  0  0  0
   39.0550   31.2940   43.4160 N   0  0  0  0  0  0  0  0  0  0  0  0
   38.3510   32.3740   43.7610 C   0  0  0  0  0  3  0  0  0  0  0  0
   38.0090   32.4730   45.0720 N   0  0  0  0  0  0  0  0  0  0  0  0
   35.5610   30.1540   49.7090 C   0  0  0  0  0  0  0  0  0  0  0  0
   35.8120   29.7300   51.0080 F   0  0  0  0  0  0  0  0  0  0  0  0
   34.3260   30.7810   49.7290 F   0  0  0  0  0  0  0  0  0  0  0  0
   35.3970   29.0300   48.9340 F   0  0  0  0  0  0  0  0  0  0  0  0
  1  6  1  0  0  0  0
  1  7  1  0  0  0  0
  2  1  2  0  0  0  0
  3  4  2  0  0  0  0
  3  2  1  0  0  0  0
  4  5  1  0  0  0  0
  5 16  1  0  0  0  0
  5  6  2  0  0  0  0
  8  2  1  0  0  0  0
  9  3  1  0  0  0  0
 10  9  1  0  0  0  0
 11 10  2  0  0  0  0
 12 11  1  0  0  0  0
 13 14  2  0  0  0  0
 13 11  1  0  0  0  0
 14 15  1  0  0  0  0
 15  9  2  0  0  0  0
 16 18  1  0  0  0  0
 16 17  1  0  0  0  0
 19 16  1  0  0  0  0
M  END
>  <minimizedAffinity>
-5.2964673

>  <minimizedRMSD>
1.57001173

$$$$
