
 OpenBabel03262522383D

 25 27  0  0  0  0  0  0  0  0999 V2000
   38.3250   24.7360   36.0430 C   0  0  0  0  0  0  0  0  0  0  0  0
   37.8560   24.7120   37.3300 C   0  0  0  0  0  0  0  0  0  0  0  0
   38.3410   23.8860   38.3130 C   0  0  0  0  0  0  0  0  0  0  0  0
   39.3680   23.0110   38.0270 C   0  0  0  0  0  0  0  0  0  0  0  0
   39.8250   23.0520   36.7240 C   0  0  0  0  0  0  0  0  0  0  0  0
   39.3320   23.8670   35.7900 N   0  0  0  0  0  0  0  0  0  0  0  0
   37.0420   25.3860   37.6090 H   0  0  0  0  0  0  0  0  0  0  0  0
   37.9420   23.8970   39.3210 H   0  0  0  0  0  0  0  0  0  0  0  0
   39.7840   22.3490   38.7480 H   0  0  0  0  0  0  0  0  0  0  0  0
   36.9350   27.6950   34.1580 C   0  0  0  0  0  0  0  0  0  0  0  0
   37.4320   26.9450   35.2340 C   0  0  0  0  0  0  0  0  0  0  0  0
   37.7940   25.6240   35.0070 C   0  0  0  0  0  0  0  0  0  0  0  0
   37.6560   25.1150   33.7660 N   0  0  0  0  0  0  0  0  0  0  0  0
   37.1710   25.8590   32.7340 C   0  0  0  0  0  0  0  0  0  0  0  0
   36.8170   27.1430   32.9430 N   0  0  0  0  0  0  0  0  0  0  0  0
   36.6690   28.7250   34.4010 H   0  0  0  0  0  0  0  0  0  0  0  0
   37.5490   27.3390   36.2330 H   0  0  0  0  0  0  0  0  0  0  0  0
   37.0650   25.4320   31.7380 H   0  0  0  0  0  0  0  0  0  0  0  0
   40.9200   22.1290   36.3930 C   0  0  0  0  0  0  0  0  0  0  0  0
   41.5890   21.4510   37.4180 C   0  0  0  0  0  3  0  0  0  0  0  0
   42.5830   20.6260   36.9540 C   0  0  0  0  0  0  0  0  0  0  0  0
   43.1550   20.0610   37.6960 H   0  0  0  0  0  0  0  0  0  0  0  0
   42.9500   20.4230   35.6940 N   0  0  0  0  0  0  0  0  0  0  0  0
   42.2720   21.1020   34.7340 C   0  0  0  0  0  3  0  0  0  0  0  0
   41.2830   21.9290   35.1180 N   0  0  0  0  0  0  0  0  0  0  0  0
  1  2  1  0  0  0  0
  2  7  1  0  0  0  0
  2  3  2  0  0  0  0
  3  8  1  0  0  0  0
  4  3  1  0  0  0  0
  4  9  1  0  0  0  0
  5  4  2  0  0  0  0
  6  1  2  0  0  0  0
  6  5  1  0  0  0  0
 10 16  1  0  0  0  0
 10 11  1  0  0  0  0
 11 17  1  0  0  0  0
 12 11  2  0  0  0  0
 12  1  1  0  0  0  0
 13 12  1  0  0  0  0
 14 15  1  0  0  0  0
 14 13  2  0  0  0  0
 15 10  2  0  0  0  0
 18 14  1  0  0  0  0
 19  5  1  0  0  0  0
 19 20  1  0  0  0  0
 21 20  2  0  0  0  0
 21 22  1  0  0  0  0
 23 21  1  0  0  0  0
 24 25  1  0  0  0  0
 24 23  2  0  0  0  0
 25 19  2  0  0  0  0
M  END
>  <minimizedAffinity>
-4.97748137

$$$$

 OpenBabel03262522383D

 25 27  0  0  0  0  0  0  0  0999 V2000
   39.9670   22.9260   36.8210 C   0  0  0  0  0  0  0  0  0  0  0  0
   39.3970   23.0030   38.0640 C   0  0  0  0  0  0  0  0  0  0  0  0
   38.3750   23.8590   38.3910 C   0  0  0  0  0  0  0  0  0  0  0  0
   37.8600   24.7100   37.4350 C   0  0  0  0  0  0  0  0  0  0  0  0
   38.4500   24.6140   36.1900 C   0  0  0  0  0  0  0  0  0  0  0  0
   39.4430   23.7710   35.9020 N   0  0  0  0  0  0  0  0  0  0  0  0
   39.7680   22.3520   38.8580 H   0  0  0  0  0  0  0  0  0  0  0  0
   37.9500   23.8920   39.3880 H   0  0  0  0  0  0  0  0  0  0  0  0
   37.0690   25.3930   37.6310 H   0  0  0  0  0  0  0  0  0  0  0  0
   42.7760   20.4110   36.9900 C   0  0  0  0  0  0  0  0  0  0  0  0
   41.7490   21.2570   37.4330 C   0  0  0  0  0  0  0  0  0  0  0  0
   41.0580   22.0060   36.4910 C   0  0  0  0  0  0  0  0  0  0  0  0
   41.3980   21.8910   35.1900 N   0  0  0  0  0  0  0  0  0  0  0  0
   42.3980   21.0630   34.7800 C   0  0  0  0  0  0  0  0  0  0  0  0
   43.0760   20.3310   35.6870 N   0  0  0  0  0  0  0  0  0  0  0  0
   43.2790   19.8500   37.7790 H   0  0  0  0  0  0  0  0  0  0  0  0
   41.4650   21.3600   38.4700 H   0  0  0  0  0  0  0  0  0  0  0  0
   42.6600   20.9820   33.7260 H   0  0  0  0  0  0  0  0  0  0  0  0
   37.9210   25.5090   35.1510 C   0  0  0  0  0  0  0  0  0  0  0  0
   37.6350   26.8420   35.4670 C   0  0  0  0  0  3  0  0  0  0  0  0
   37.1500   27.5530   34.3970 C   0  0  0  0  0  0  0  0  0  0  0  0
   36.9010   28.6050   34.5630 H   0  0  0  0  0  0  0  0  0  0  0  0
   36.9370   27.1180   33.1610 N   0  0  0  0  0  0  0  0  0  0  0  0
   37.2290   25.8180   32.9020 C   0  0  0  0  0  3  0  0  0  0  0  0
   37.7090   25.0620   33.9060 N   0  0  0  0  0  0  0  0  0  0  0  0
  1  2  1  0  0  0  0
  2  3  2  0  0  0  0
  2  7  1  0  0  0  0
  3  8  1  0  0  0  0
  4  9  1  0  0  0  0
  4  3  1  0  0  0  0
  5  4  2  0  0  0  0
  6  5  1  0  0  0  0
  6  1  2  0  0  0  0
 10 11  1  0  0  0  0
 10 16  1  0  0  0  0
 11 17  1  0  0  0  0
 12  1  1  0  0  0  0
 12 11  2  0  0  0  0
 13 12  1  0  0  0  0
 14 13  2  0  0  0  0
 14 15  1  0  0  0  0
 15 10  2  0  0  0  0
 18 14  1  0  0  0  0
 19 20  1  0  0  0  0
 19  5  1  0  0  0  0
 21 22  1  0  0  0  0
 21 20  2  0  0  0  0
 23 21  1  0  0  0  0
 24 23  2  0  0  0  0
 24 25  1  0  0  0  0
 25 19  2  0  0  0  0
M  END
>  <minimizedAffinity>
-4.96442795

$$$$

 OpenBabel03262522383D

 25 27  0  0  0  0  0  0  0  0999 V2000
   35.9980   23.4660   31.6580 C   0  0  0  0  0  0  0  0  0  0  0  0
   35.2760   24.3200   30.8660 C   0  0  0  0  0  0  0  0  0  0  0  0
   35.3520   25.6880   30.9380 C   0  0  0  0  0  0  0  0  0  0  0  0
   36.1980   26.2810   31.8510 C   0  0  0  0  0  0  0  0  0  0  0  0
   36.9160   25.4020   32.6380 C   0  0  0  0  0  0  0  0  0  0  0  0
   36.8210   24.0750   32.5450 N   0  0  0  0  0  0  0  0  0  0  0  0
   34.5900   23.9010   30.1260 H   0  0  0  0  0  0  0  0  0  0  0  0
   34.7620   26.3300   30.2930 H   0  0  0  0  0  0  0  0  0  0  0  0
   36.2980   27.3350   31.9510 H   0  0  0  0  0  0  0  0  0  0  0  0
   34.9550   19.8610   32.0560 C   0  0  0  0  0  0  0  0  0  0  0  0
   34.9400   21.2540   32.2220 C   0  0  0  0  0  0  0  0  0  0  0  0
   35.9040   22.0080   31.5670 C   0  0  0  0  0  0  0  0  0  0  0  0
   36.8140   21.3750   30.7990 N   0  0  0  0  0  0  0  0  0  0  0  0
   36.8130   20.0220   30.6500 C   0  0  0  0  0  0  0  0  0  0  0  0
   35.8800   19.2800   31.2810 N   0  0  0  0  0  0  0  0  0  0  0  0
   34.1710   19.3270   32.5960 H   0  0  0  0  0  0  0  0  0  0  0  0
   34.2170   21.7750   32.8340 H   0  0  0  0  0  0  0  0  0  0  0  0
   37.5540   19.5270   30.0260 H   0  0  0  0  0  0  0  0  0  0  0  0
   37.8270   26.0070   33.6200 C   0  0  0  0  0  0  0  0  0  0  0  0
   39.0940   26.4410   33.2140 C   0  0  0  0  0  3  0  0  0  0  0  0
   39.8270   26.9840   34.2390 C   0  0  0  0  0  0  0  0  0  0  0  0
   40.8320   27.3470   34.0030 H   0  0  0  0  0  0  0  0  0  0  0  0
   39.4680   27.1260   35.5100 N   0  0  0  0  0  0  0  0  0  0  0  0
   38.2310   26.6920   35.8570 C   0  0  0  0  0  3  0  0  0  0  0  0
   37.4560   26.1480   34.9000 N   0  0  0  0  0  0  0  0  0  0  0  0
  1  6  1  0  0  0  0
  2  3  1  0  0  0  0
  2  1  2  0  0  0  0
  3  4  2  0  0  0  0
  4  9  1  0  0  0  0
  4  5  1  0  0  0  0
  5 19  1  0  0  0  0
  6  5  2  0  0  0  0
  7  2  1  0  0  0  0
  8  3  1  0  0  0  0
 10 11  1  0  0  0  0
 10 16  1  0  0  0  0
 11 17  1  0  0  0  0
 12  1  1  0  0  0  0
 12 11  2  0  0  0  0
 13 12  1  0  0  0  0
 14 13  2  0  0  0  0
 14 15  1  0  0  0  0
 15 10  2  0  0  0  0
 18 14  1  0  0  0  0
 19 25  1  0  0  0  0
 20 19  2  0  0  0  0
 20 21  1  0  0  0  0
 21 23  2  0  0  0  0
 22 21  1  0  0  0  0
 23 24  1  0  0  0  0
 25 24  2  0  0  0  0
M  END
>  <minimizedAffinity>
-4.89126682

$$$$

 OpenBabel03262522383D

 25 27  0  0  0  0  0  0  0  0999 V2000
   36.9980   25.3690   32.6840 C   0  0  0  0  0  0  0  0  0  0  0  0
   36.1780   26.0960   31.8610 C   0  0  0  0  0  0  0  0  0  0  0  0
   35.3110   25.5430   30.9530 C   0  0  0  0  0  0  0  0  0  0  0  0
   35.2290   24.1710   30.8310 C   0  0  0  0  0  0  0  0  0  0  0  0
   36.0630   23.4590   31.6700 C   0  0  0  0  0  0  0  0  0  0  0  0
   36.8970   24.0260   32.5440 N   0  0  0  0  0  0  0  0  0  0  0  0
   36.2050   27.1860   31.9170 H   0  0  0  0  0  0  0  0  0  0  0  0
   34.6780   26.1530   30.3180 H   0  0  0  0  0  0  0  0  0  0  0  0
   34.5760   23.6880   30.1460 H   0  0  0  0  0  0  0  0  0  0  0  0
   40.0130   26.8950   34.3650 C   0  0  0  0  0  0  0  0  0  0  0  0
   39.2300   26.3170   33.3540 C   0  0  0  0  0  0  0  0  0  0  0  0
   37.9180   25.9780   33.6480 C   0  0  0  0  0  0  0  0  0  0  0  0
   37.4450   26.2150   34.8890 N   0  0  0  0  0  0  0  0  0  0  0  0
   38.2200   26.7770   35.8580 C   0  0  0  0  0  0  0  0  0  0  0  0
   39.4970   27.1110   35.5820 N   0  0  0  0  0  0  0  0  0  0  0  0
   41.0350   27.1390   34.0700 H   0  0  0  0  0  0  0  0  0  0  0  0
   39.5940   26.1210   32.3560 H   0  0  0  0  0  0  0  0  0  0  0  0
   37.8240   26.9620   36.8540 H   0  0  0  0  0  0  0  0  0  0  0  0
   35.9960   21.9950   31.5610 C   0  0  0  0  0  0  0  0  0  0  0  0
   34.9850   21.2970   32.2310 C   0  0  0  0  0  3  0  0  0  0  0  0
   35.0510   19.9400   32.0350 C   0  0  0  0  0  0  0  0  0  0  0  0
   34.2940   19.3230   32.5260 H   0  0  0  0  0  0  0  0  0  0  0  0
   35.9350   19.2660   31.3090 N   0  0  0  0  0  0  0  0  0  0  0  0
   36.8970   19.9850   30.6780 C   0  0  0  0  0  3  0  0  0  0  0  0
   36.8920   21.3220   30.8270 N   0  0  0  0  0  0  0  0  0  0  0  0
  1 12  1  0  0  0  0
  2  7  1  0  0  0  0
  2  1  2  0  0  0  0
  3  2  1  0  0  0  0
  4  3  2  0  0  0  0
  4  5  1  0  0  0  0
  5  6  2  0  0  0  0
  6  1  1  0  0  0  0
  8  3  1  0  0  0  0
  9  4  1  0  0  0  0
 10 15  1  0  0  0  0
 11 12  1  0  0  0  0
 11 10  2  0  0  0  0
 12 13  2  0  0  0  0
 13 14  1  0  0  0  0
 14 18  1  0  0  0  0
 15 14  2  0  0  0  0
 16 10  1  0  0  0  0
 17 11  1  0  0  0  0
 19  5  1  0  0  0  0
 19 20  1  0  0  0  0
 21 20  2  0  0  0  0
 21 22  1  0  0  0  0
 23 21  1  0  0  0  0
 24 25  1  0  0  0  0
 24 23  2  0  0  0  0
 25 19  2  0  0  0  0
M  END
>  <minimizedAffinity>
-4.80350876

$$$$

 OpenBabel03262522383D

 25 27  0  0  0  0  0  0  0  0999 V2000
   36.9490   27.3430   33.7640 C   0  0  0  0  0  0  0  0  0  0  0  0
   37.0170   27.6840   32.4390 C   0  0  0  0  0  0  0  0  0  0  0  0
   36.5110   28.8480   31.9160 C   0  0  0  0  0  0  0  0  0  0  0  0
   35.8900   29.7590   32.7440 C   0  0  0  0  0  0  0  0  0  0  0  0
   35.8340   29.3950   34.0750 C   0  0  0  0  0  0  0  0  0  0  0  0
   36.3340   28.2550   34.5540 N   0  0  0  0  0  0  0  0  0  0  0  0
   37.4980   26.9970   31.7400 H   0  0  0  0  0  0  0  0  0  0  0  0
   36.5840   29.0810   30.8600 H   0  0  0  0  0  0  0  0  0  0  0  0
   35.4810   30.6760   32.3950 H   0  0  0  0  0  0  0  0  0  0  0  0
   38.3660   24.6790   36.0300 C   0  0  0  0  0  0  0  0  0  0  0  0
   37.8540   25.9230   35.6340 C   0  0  0  0  0  0  0  0  0  0  0  0
   37.4940   26.0960   34.3050 C   0  0  0  0  0  0  0  0  0  0  0  0
   37.6480   25.0650   33.4490 N   0  0  0  0  0  0  0  0  0  0  0  0
   38.1470   23.8640   33.8520 C   0  0  0  0  0  0  0  0  0  0  0  0
   38.5000   23.6850   35.1410 N   0  0  0  0  0  0  0  0  0  0  0  0
   38.6300   24.6070   37.0870 H   0  0  0  0  0  0  0  0  0  0  0  0
   37.7250   26.7570   36.3080 H   0  0  0  0  0  0  0  0  0  0  0  0
   38.2650   23.0420   33.1490 H   0  0  0  0  0  0  0  0  0  0  0  0
   35.1760   30.3480   34.9810 C   0  0  0  0  0  0  0  0  0  0  0  0
   35.9530   31.2400   35.7280 C   0  0  0  0  0  3  0  0  0  0  0  0
   35.2000   32.0660   36.5250 C   0  0  0  0  0  0  0  0  0  0  0  0
   35.7350   32.7940   37.1430 H   0  0  0  0  0  0  0  0  0  0  0  0
   33.8780   32.0960   36.6460 N   0  0  0  0  0  0  0  0  0  0  0  0
   33.1670   31.2130   35.9010 C   0  0  0  0  0  3  0  0  0  0  0  0
   33.8420   30.3720   35.0960 N   0  0  0  0  0  0  0  0  0  0  0  0
  1 12  1  0  0  0  0
  1  6  1  0  0  0  0
  2  1  2  0  0  0  0
  3  2  1  0  0  0  0
  3  4  2  0  0  0  0
  4  5  1  0  0  0  0
  5  6  2  0  0  0  0
  5 19  1  0  0  0  0
  7  2  1  0  0  0  0
  8  3  1  0  0  0  0
  9  4  1  0  0  0  0
 10 16  1  0  0  0  0
 11 10  1  0  0  0  0
 11 17  1  0  0  0  0
 12 11  2  0  0  0  0
 13 14  2  0  0  0  0
 13 12  1  0  0  0  0
 14 15  1  0  0  0  0
 15 10  2  0  0  0  0
 18 14  1  0  0  0  0
 19 25  2  0  0  0  0
 19 20  1  0  0  0  0
 20 21  2  0  0  0  0
 21 23  1  0  0  0  0
 21 22  1  0  0  0  0
 24 23  2  0  0  0  0
 25 24  1  0  0  0  0
M  END
>  <minimizedAffinity>
-4.77436972

$$$$

 OpenBabel03262522383D

 25 27  0  0  0  0  0  0  0  0999 V2000
   38.1480   24.6850   34.7470 C   0  0  0  0  0  0  0  0  0  0  0  0
   38.3350   23.9940   33.5800 C   0  0  0  0  0  0  0  0  0  0  0  0
   38.0100   24.4770   32.3370 C   0  0  0  0  0  0  0  0  0  0  0  0
   37.4590   25.7360   32.2140 C   0  0  0  0  0  0  0  0  0  0  0  0
   37.2800   26.4140   33.4030 C   0  0  0  0  0  0  0  0  0  0  0  0
   37.6060   25.9170   34.5970 N   0  0  0  0  0  0  0  0  0  0  0  0
   38.7680   22.9920   33.6220 H   0  0  0  0  0  0  0  0  0  0  0  0
   38.1740   23.8990   31.4350 H   0  0  0  0  0  0  0  0  0  0  0  0
   37.1890   26.1620   31.2780 H   0  0  0  0  0  0  0  0  0  0  0  0
   39.7890   22.8340   37.5980 C   0  0  0  0  0  0  0  0  0  0  0  0
   39.5520   23.2740   36.2870 C   0  0  0  0  0  0  0  0  0  0  0  0
   38.5010   24.1530   36.0650 C   0  0  0  0  0  0  0  0  0  0  0  0
   37.7510   24.5490   37.1140 N   0  0  0  0  0  0  0  0  0  0  0  0
   37.9970   24.1110   38.3800 C   0  0  0  0  0  0  0  0  0  0  0  0
   39.0160   23.2580   38.6060 N   0  0  0  0  0  0  0  0  0  0  0  0
   40.6290   22.1460   37.7050 H   0  0  0  0  0  0  0  0  0  0  0  0
   40.1430   22.9660   35.4370 H   0  0  0  0  0  0  0  0  0  0  0  0
   37.3820   24.4410   39.2150 H   0  0  0  0  0  0  0  0  0  0  0  0
   36.6940   27.7580   33.3010 C   0  0  0  0  0  0  0  0  0  0  0  0
   36.6670   28.4090   32.0620 C   0  0  0  0  0  3  0  0  0  0  0  0
   36.0900   29.6530   32.1240 C   0  0  0  0  0  0  0  0  0  0  0  0
   36.0310   30.2270   31.1950 H   0  0  0  0  0  0  0  0  0  0  0  0
   35.5840   30.2630   33.1890 N   0  0  0  0  0  0  0  0  0  0  0  0
   35.6320   29.5930   34.3680 C   0  0  0  0  0  3  0  0  0  0  0  0
   36.1860   28.3660   34.3810 N   0  0  0  0  0  0  0  0  0  0  0  0
  1 12  1  0  0  0  0
  2  7  1  0  0  0  0
  2  1  2  0  0  0  0
  3  2  1  0  0  0  0
  4  3  2  0  0  0  0
  4  5  1  0  0  0  0
  5  6  2  0  0  0  0
  6  1  1  0  0  0  0
  8  3  1  0  0  0  0
  9  4  1  0  0  0  0
 10 16  1  0  0  0  0
 10 15  1  0  0  0  0
 11 10  2  0  0  0  0
 12 11  1  0  0  0  0
 12 13  2  0  0  0  0
 13 14  1  0  0  0  0
 14 15  2  0  0  0  0
 14 18  1  0  0  0  0
 17 11  1  0  0  0  0
 19  5  1  0  0  0  0
 19 25  1  0  0  0  0
 20 21  1  0  0  0  0
 20 19  2  0  0  0  0
 21 23  2  0  0  0  0
 22 21  1  0  0  0  0
 23 24  1  0  0  0  0
 24 25  2  0  0  0  0
M  END
>  <minimizedAffinity>
-4.76062012

$$$$

 OpenBabel03262522383D

 25 27  0  0  0  0  0  0  0  0999 V2000
   36.0770   28.4100   32.2940 C   0  0  0  0  0  0  0  0  0  0  0  0
   36.4240   29.3260   31.3370 C   0  0  0  0  0  0  0  0  0  0  0  0
   36.2720   30.6830   31.4770 C   0  0  0  0  0  0  0  0  0  0  0  0
   35.7420   31.1970   32.6420 C   0  0  0  0  0  0  0  0  0  0  0  0
   35.3990   30.2550   33.5930 C   0  0  0  0  0  0  0  0  0  0  0  0
   35.5590   28.9410   33.4270 N   0  0  0  0  0  0  0  0  0  0  0  0
   36.8490   28.9720   30.3950 H   0  0  0  0  0  0  0  0  0  0  0  0
   36.5590   31.3770   30.6950 H   0  0  0  0  0  0  0  0  0  0  0  0
   35.6010   32.2370   32.8070 H   0  0  0  0  0  0  0  0  0  0  0  0
   35.7780   24.8250   31.1530 C   0  0  0  0  0  0  0  0  0  0  0  0
   35.5240   26.2030   31.2190 C   0  0  0  0  0  0  0  0  0  0  0  0
   36.2470   26.9650   32.1260 C   0  0  0  0  0  0  0  0  0  0  0  0
   37.1630   26.3540   32.9060 N   0  0  0  0  0  0  0  0  0  0  0  0
   37.3950   25.0150   32.8270 C   0  0  0  0  0  0  0  0  0  0  0  0
   36.6980   24.2660   31.9490 N   0  0  0  0  0  0  0  0  0  0  0  0
   35.1770   24.2830   30.4200 H   0  0  0  0  0  0  0  0  0  0  0  0
   34.7940   26.7060   30.6020 H   0  0  0  0  0  0  0  0  0  0  0  0
   38.1380   24.5380   33.4630 H   0  0  0  0  0  0  0  0  0  0  0  0
   34.8310   30.7750   34.8450 C   0  0  0  0  0  0  0  0  0  0  0  0
   35.6060   31.6030   35.6650 C   0  0  0  0  0  3  0  0  0  0  0  0
   34.9410   32.0090   36.7950 C   0  0  0  0  0  0  0  0  0  0  0  0
   35.4800   32.6610   37.4890 H   0  0  0  0  0  0  0  0  0  0  0  0
   33.7020   31.7060   37.1630 N   0  0  0  0  0  0  0  0  0  0  0  0
   32.9890   30.9000   36.3370 C   0  0  0  0  0  3  0  0  0  0  0  0
   33.5800   30.4640   35.2090 N   0  0  0  0  0  0  0  0  0  0  0  0
  1  6  1  0  0  0  0
  2  3  1  0  0  0  0
  2  1  2  0  0  0  0
  3  4  2  0  0  0  0
  4  9  1  0  0  0  0
  4  5  1  0  0  0  0
  5 19  1  0  0  0  0
  6  5  2  0  0  0  0
  7  2  1  0  0  0  0
  8  3  1  0  0  0  0
 10 11  2  0  0  0  0
 10 15  1  0  0  0  0
 11 12  1  0  0  0  0
 12  1  1  0  0  0  0
 12 13  2  0  0  0  0
 14 13  1  0  0  0  0
 14 18  1  0  0  0  0
 15 14  2  0  0  0  0
 16 10  1  0  0  0  0
 17 11  1  0  0  0  0
 19 25  2  0  0  0  0
 19 20  1  0  0  0  0
 20 21  2  0  0  0  0
 21 23  1  0  0  0  0
 21 22  1  0  0  0  0
 24 23  2  0  0  0  0
 25 24  1  0  0  0  0
M  END
>  <minimizedAffinity>
-4.75177717

$$$$

 OpenBabel03262522383D

 25 27  0  0  0  0  0  0  0  0999 V2000
   37.3340   26.3700   33.3650 C   0  0  0  0  0  0  0  0  0  0  0  0
   37.5920   25.5450   32.3020 C   0  0  0  0  0  0  0  0  0  0  0  0
   38.1270   24.2870   32.4150 C   0  0  0  0  0  0  0  0  0  0  0  0
   38.4380   23.7830   33.6610 C   0  0  0  0  0  0  0  0  0  0  0  0
   38.1700   24.6320   34.7170 C   0  0  0  0  0  0  0  0  0  0  0  0
   37.6490   25.8510   34.5750 N   0  0  0  0  0  0  0  0  0  0  0  0
   37.3640   25.8960   31.2930 H   0  0  0  0  0  0  0  0  0  0  0  0
   38.3180   23.6640   31.5480 H   0  0  0  0  0  0  0  0  0  0  0  0
   38.8550   22.8160   33.8090 H   0  0  0  0  0  0  0  0  0  0  0  0
   36.1280   29.6840   32.0200 C   0  0  0  0  0  0  0  0  0  0  0  0
   36.7010   28.4030   32.0240 C   0  0  0  0  0  0  0  0  0  0  0  0
   36.7620   27.7110   33.2250 C   0  0  0  0  0  0  0  0  0  0  0  0
   36.2700   28.2930   34.3380 N   0  0  0  0  0  0  0  0  0  0  0  0
   35.7170   29.5370   34.3140 C   0  0  0  0  0  0  0  0  0  0  0  0
   35.6530   30.2180   33.1520 N   0  0  0  0  0  0  0  0  0  0  0  0
   36.1100   30.1740   31.0450 H   0  0  0  0  0  0  0  0  0  0  0  0
   37.0990   27.9240   31.1410 H   0  0  0  0  0  0  0  0  0  0  0  0
   35.3250   29.9930   35.2210 H   0  0  0  0  0  0  0  0  0  0  0  0
   38.4920   24.1200   36.0570 C   0  0  0  0  0  0  0  0  0  0  0  0
   37.6910   24.4800   37.1460 C   0  0  0  0  0  3  0  0  0  0  0  0
   38.1150   23.9260   38.3280 C   0  0  0  0  0  0  0  0  0  0  0  0
   37.5400   24.1600   39.2290 H   0  0  0  0  0  0  0  0  0  0  0  0
   39.1560   23.1240   38.5240 N   0  0  0  0  0  0  0  0  0  0  0  0
   39.9030   22.8020   37.4380 C   0  0  0  0  0  3  0  0  0  0  0  0
   39.5440   23.3120   36.2450 N   0  0  0  0  0  0  0  0  0  0  0  0
  1  6  1  0  0  0  0
  2  3  1  0  0  0  0
  2  1  2  0  0  0  0
  3  4  2  0  0  0  0
  4  9  1  0  0  0  0
  4  5  1  0  0  0  0
  5 19  1  0  0  0  0
  6  5  2  0  0  0  0
  7  2  1  0  0  0  0
  8  3  1  0  0  0  0
 10 11  2  0  0  0  0
 10 15  1  0  0  0  0
 11 12  1  0  0  0  0
 12  1  1  0  0  0  0
 12 13  2  0  0  0  0
 14 13  1  0  0  0  0
 14 18  1  0  0  0  0
 15 14  2  0  0  0  0
 16 10  1  0  0  0  0
 17 11  1  0  0  0  0
 19 25  2  0  0  0  0
 19 20  1  0  0  0  0
 20 21  2  0  0  0  0
 21 23  1  0  0  0  0
 21 22  1  0  0  0  0
 24 23  2  0  0  0  0
 25 24  1  0  0  0  0
M  END
>  <minimizedAffinity>
-4.71190691

$$$$

 OpenBabel03262522383D

 25 27  0  0  0  0  0  0  0  0999 V2000
   35.5930   29.6560   34.1210 C   0  0  0  0  0  0  0  0  0  0  0  0
   35.7660   29.9930   32.8050 C   0  0  0  0  0  0  0  0  0  0  0  0
   36.4200   29.2090   31.8880 C   0  0  0  0  0  0  0  0  0  0  0  0
   36.9500   27.9960   32.2770 C   0  0  0  0  0  0  0  0  0  0  0  0
   36.7620   27.6760   33.6070 C   0  0  0  0  0  0  0  0  0  0  0  0
   36.1220   28.4600   34.4750 N   0  0  0  0  0  0  0  0  0  0  0  0
   35.3670   30.9440   32.4460 H   0  0  0  0  0  0  0  0  0  0  0  0
   36.5380   29.5120   30.8540 H   0  0  0  0  0  0  0  0  0  0  0  0
   37.4650   27.3470   31.6100 H   0  0  0  0  0  0  0  0  0  0  0  0
   32.9580   31.4050   36.1810 C   0  0  0  0  0  0  0  0  0  0  0  0
   33.5110   30.5470   35.2190 C   0  0  0  0  0  0  0  0  0  0  0  0
   34.8920   30.5060   35.0860 C   0  0  0  0  0  0  0  0  0  0  0  0
   35.6470   31.2880   35.8850 N   0  0  0  0  0  0  0  0  0  0  0  0
   35.0910   32.1140   36.8140 C   0  0  0  0  0  0  0  0  0  0  0  0
   33.7510   32.1610   36.9510 N   0  0  0  0  0  0  0  0  0  0  0  0
   31.8680   31.3900   36.2360 H   0  0  0  0  0  0  0  0  0  0  0  0
   32.9200   29.9150   34.5720 H   0  0  0  0  0  0  0  0  0  0  0  0
   35.7150   32.7390   37.4510 H   0  0  0  0  0  0  0  0  0  0  0  0
   37.3170   26.3880   34.0480 C   0  0  0  0  0  0  0  0  0  0  0  0
   37.6720   26.2110   35.3900 C   0  0  0  0  0  3  0  0  0  0  0  0
   38.1730   24.9600   35.6500 C   0  0  0  0  0  0  0  0  0  0  0  0
   38.4750   24.7420   36.6790 H   0  0  0  0  0  0  0  0  0  0  0  0
   38.3420   23.9580   34.7950 N   0  0  0  0  0  0  0  0  0  0  0  0
   37.9830   24.1760   33.5050 C   0  0  0  0  0  3  0  0  0  0  0  0
   37.4840   25.3830   33.1790 N   0  0  0  0  0  0  0  0  0  0  0  0
  1  6  1  0  0  0  0
  1 12  1  0  0  0  0
  2  1  2  0  0  0  0
  3  4  2  0  0  0  0
  3  2  1  0  0  0  0
  4  5  1  0  0  0  0
  5 19  1  0  0  0  0
  5  6  2  0  0  0  0
  7  2  1  0  0  0  0
  8  3  1  0  0  0  0
  9  4  1  0  0  0  0
 10 16  1  0  0  0  0
 10 15  1  0  0  0  0
 11 10  2  0  0  0  0
 12 11  1  0  0  0  0
 12 13  2  0  0  0  0
 13 14  1  0  0  0  0
 14 15  2  0  0  0  0
 14 18  1  0  0  0  0
 17 11  1  0  0  0  0
 19 20  1  0  0  0  0
 20 21  2  0  0  0  0
 21 22  1  0  0  0  0
 23 21  1  0  0  0  0
 24 23  2  0  0  0  0
 25 24  1  0  0  0  0
 25 19  2  0  0  0  0
M  END
>  <minimizedAffinity>
-4.69168997

$$$$
