
 OpenBabel03272502233D

 27 29  0  0  0  0  0  0  0  0999 V2000
   36.7640   29.5540   49.4960 C   0  0  0  0  0  0  0  0  0  0  0  0
   37.4430   30.2610   48.4890 C   0  0  0  0  0  0  0  0  0  0  0  0
   36.7840   30.4740   47.2920 C   0  0  0  0  0  0  0  0  0  0  0  0
   35.5310   29.9910   47.1650 N   0  0  0  0  0  0  0  0  0  0  0  0
   34.9000   29.3180   48.1390 C   0  0  0  0  0  0  0  0  0  0  0  0
   35.5200   29.0970   49.3130 N   0  0  0  0  0  0  0  0  0  0  0  0
   37.2880   29.3960   50.4230 H   0  0  0  0  0  0  0  0  0  0  0  0
   38.4470   30.6470   48.5960 H   0  0  0  0  0  0  0  0  0  0  0  0
   37.3720   31.1910   46.1660 C   0  0  0  0  0  0  0  0  0  0  0  0
   36.8250   31.1330   44.8970 C   0  0  0  0  0  0  0  0  0  0  0  0
   37.3710   31.8080   43.8160 C   0  0  0  0  0  0  0  0  0  0  0  0
   38.4760   32.5530   43.9910 N   0  0  0  0  0  0  0  0  0  0  0  0
   38.9960   32.6000   45.2290 C   0  0  0  0  0  0  0  0  0  0  0  0
   38.4810   31.9540   46.2810 N   0  0  0  0  0  0  0  0  0  0  0  0
   35.9290   30.5340   44.7380 H   0  0  0  0  0  0  0  0  0  0  0  0
   36.8720   31.7030   42.8580 H   0  0  0  0  0  0  0  0  0  0  0  0
   40.2210   33.4150   45.4600 C   0  0  0  0  0  0  0  0  0  0  0  0
   40.2330   33.8120   46.7950 F   0  0  0  0  0  0  0  0  0  0  0  0
   41.3680   32.7010   45.1570 F   0  0  0  0  0  0  0  0  0  0  0  0
   40.2270   34.5540   44.7040 F   0  0  0  0  0  0  0  0  0  0  0  0
   33.5440   28.8230   47.9300 C   0  0  0  0  0  0  0  0  0  0  0  0
   32.9530   28.0050   48.8710 C   0  0  0  0  0  3  0  0  0  0  0  0
   31.6690   27.5740   48.6090 C   0  0  0  0  0  0  0  0  0  0  0  0
   31.2550   26.9290   49.3900 H   0  0  0  0  0  0  0  0  0  0  0  0
   30.9820   27.9190   47.4860 N   0  0  0  0  0  0  0  0  0  0  0  0
   31.6020   28.7240   46.5900 C   0  0  0  0  0  3  0  0  0  0  0  0
   32.8720   29.1710   46.8130 N   0  0  0  0  0  0  0  0  0  0  0  0
  1  7  1  0  0  0  0
  2  8  1  0  0  0  0
  2  1  2  0  0  0  0
  3  2  1  0  0  0  0
  4  3  2  0  0  0  0
  4  5  1  0  0  0  0
  5  6  2  0  0  0  0
  6  1  1  0  0  0  0
  9 14  1  0  0  0  0
  9  3  1  0  0  0  0
 10  9  2  0  0  0  0
 11 12  2  0  0  0  0
 11 10  1  0  0  0  0
 12 13  1  0  0  0  0
 13 17  1  0  0  0  0
 13 14  2  0  0  0  0
 15 10  1  0  0  0  0
 16 11  1  0  0  0  0
 17 18  1  0  0  0  0
 19 17  1  0  0  0  0
 20 17  1  0  0  0  0
 21  5  1  0  0  0  0
 21 22  1  0  0  0  0
 23 22  2  0  0  0  0
 23 24  1  0  0  0  0
 25 23  1  0  0  0  0
 26 27  1  0  0  0  0
 26 25  2  0  0  0  0
 27 21  2  0  0  0  0
M  END
>  <minimizedAffinity>
-6.03256989

>  <minimizedRMSD>
2.23146796

$$$$
