
 OpenBabel03262522003D

 34 36  0  0  1  0  0  0  0  0999 V2000
   38.3690   25.3330   33.5420 N   0  0  0  0  0  0  0  0  0  0  0  0
   39.7190   25.5850   33.1180 C   0  0  0  0  0  0  0  0  0  0  0  0
   40.8110   24.9740   33.8880 C   0  0  0  0  0  0  0  0  0  0  0  0
   40.5570   24.5820   35.2970 C   0  0  0  0  0  0  0  0  0  0  0  0
   39.1040   24.4830   35.6700 C   0  0  0  0  0  0  0  0  0  0  0  0
   38.2980   25.5410   34.9340 C   0  0  1  0  0  0  0  0  0  0  0  0
   39.9220   26.6760   32.9080 H   0  0  0  0  0  0  0  0  0  0  0  0
   39.7500   25.1820   32.0590 H   0  0  0  0  0  0  0  0  0  0  0  0
   41.6700   25.7100   33.9460 H   0  0  0  0  0  0  0  0  0  0  0  0
   41.2970   24.1350   33.3030 H   0  0  0  0  0  0  0  0  0  0  0  0
   41.1970   25.0960   36.0600 H   0  0  0  0  0  0  0  0  0  0  0  0
   40.9060   23.5200   35.4270 H   0  0  0  0  0  0  0  0  0  0  0  0
   39.0350   24.6190   36.7680 H   0  0  0  0  0  0  0  0  0  0  0  0
   38.6540   23.5010   35.4180 H   0  0  0  0  0  0  0  0  0  0  0  0
   37.2340   25.2720   35.2150 H   0  0  0  0  0  0  0  0  0  0  0  0
   37.3030   24.9390   32.6700 C   0  0  0  0  0  0  0  0  0  0  0  0
   36.4840   25.8280   31.9740 C   0  0  0  0  0  0  0  0  0  0  0  0
   35.4940   25.3000   31.1630 C   0  0  0  0  0  0  0  0  0  0  0  0
   35.3760   23.9470   31.0880 N   0  0  0  0  0  0  0  0  0  0  0  0
   36.1770   23.1090   31.7690 C   0  0  0  0  0  0  0  0  0  0  0  0
   37.1200   23.6220   32.5420 N   0  0  0  0  0  0  0  0  0  0  0  0
   36.7170   26.8690   32.1490 H   0  0  0  0  0  0  0  0  0  0  0  0
   34.8870   26.0050   30.6470 H   0  0  0  0  0  0  0  0  0  0  0  0
   35.9520   21.6760   31.6070 C   0  0  0  0  0  0  0  0  0  0  0  0
   34.9330   21.0100   32.2570 C   0  0  0  0  0  3  0  0  0  0  0  0
   34.7820   19.6480   32.0510 C   0  0  0  0  0  0  0  0  0  0  0  0
   33.9890   19.0820   32.5460 H   0  0  0  0  0  0  0  0  0  0  0  0
   35.6520   19.0300   31.2150 N   0  0  0  0  0  0  0  0  0  0  0  0
   36.6420   19.6640   30.5810 C   0  0  0  0  0  3  0  0  0  0  0  0
   36.7760   20.9840   30.7890 N   0  0  0  0  0  0  0  0  0  0  0  0
   38.6990   26.8910   35.4380 C   0  0  0  0  0  0  0  0  0  0  0  0
   38.2790   26.9620   36.7740 F   0  0  0  0  0  0  0  0  0  0  0  0
   37.9640   27.8730   34.8190 F   0  0  0  0  0  0  0  0  0  0  0  0
   40.0240   27.1400   35.4660 F   0  0  0  0  0  0  0  0  0  0  0  0
  1  6  1  0  0  0  0
  2  1  1  0  0  0  0
  2  3  1  0  0  0  0
  3  9  1  0  0  0  0
  3  4  1  0  0  0  0
  4 12  1  0  0  0  0
  4  5  1  0  0  0  0
  4 11  1  0  0  0  0
  5 13  1  0  0  0  0
  6 15  1  1  0  0  0
  6 31  1  0  0  0  0
  6  5  1  0  0  0  0
  7  2  1  0  0  0  0
  8  2  1  0  0  0  0
 10  3  1  0  0  0  0
 14  5  1  0  0  0  0
 16  1  1  0  0  0  0
 17 22  1  0  0  0  0
 17 16  2  0  0  0  0
 18 17  1  0  0  0  0
 19 18  2  0  0  0  0
 19 20  1  0  0  0  0
 20 21  2  0  0  0  0
 21 16  1  0  0  0  0
 23 18  1  0  0  0  0
 24 20  1  0  0  0  0
 24 25  1  0  0  0  0
 26 25  2  0  0  0  0
 26 27  1  0  0  0  0
 28 26  1  0  0  0  0
 29 30  1  0  0  0  0
 29 28  2  0  0  0  0
 30 24  2  0  0  0  0
 31 34  1  0  0  0  0
 31 32  1  0  0  0  0
 33 31  1  0  0  0  0
M  END
>  <minimizedAffinity>
-5.66101027

$$$$

 OpenBabel03262522003D

 34 36  0  0  1  0  0  0  0  0999 V2000
   37.9660   25.4660   33.7930 N   0  0  0  0  0  0  0  0  0  0  0  0
   38.3440   24.6770   34.9340 C   0  0  0  0  0  0  0  0  0  0  0  0
   38.2930   25.3090   36.2590 C   0  0  0  0  0  0  0  0  0  0  0  0
   38.3680   26.7900   36.3460 C   0  0  0  0  0  0  0  0  0  0  0  0
   38.0890   27.5100   35.0570 C   0  0  0  0  0  0  0  0  0  0  0  0
   38.6230   26.7100   33.8800 C   0  0  1  0  0  0  0  0  0  0  0  0
   39.3110   24.1130   34.7820 H   0  0  0  0  0  0  0  0  0  0  0  0
   37.6160   23.8080   34.9150 H   0  0  0  0  0  0  0  0  0  0  0  0
   39.1720   24.9420   36.8710 H   0  0  0  0  0  0  0  0  0  0  0  0
   37.4310   24.8990   36.8680 H   0  0  0  0  0  0  0  0  0  0  0  0
   39.2410   27.1920   36.9220 H   0  0  0  0  0  0  0  0  0  0  0  0
   37.5200   27.1390   36.9990 H   0  0  0  0  0  0  0  0  0  0  0  0
   38.5780   28.5030   35.1210 H   0  0  0  0  0  0  0  0  0  0  0  0
   37.0070   27.6740   34.8730 H   0  0  0  0  0  0  0  0  0  0  0  0
   38.2420   27.3030   32.9930 H   0  0  0  0  0  0  0  0  0  0  0  0
   37.0710   25.0290   32.7630 C   0  0  0  0  0  0  0  0  0  0  0  0
   36.3670   25.8840   31.9150 C   0  0  0  0  0  0  0  0  0  0  0  0
   35.5400   25.3170   30.9610 C   0  0  0  0  0  0  0  0  0  0  0  0
   35.4580   23.9610   30.9040 N   0  0  0  0  0  0  0  0  0  0  0  0
   36.1460   23.1550   31.7340 C   0  0  0  0  0  0  0  0  0  0  0  0
   36.9350   23.7060   32.6410 N   0  0  0  0  0  0  0  0  0  0  0  0
   36.5500   26.9340   32.0990 H   0  0  0  0  0  0  0  0  0  0  0  0
   35.0180   25.9970   30.3310 H   0  0  0  0  0  0  0  0  0  0  0  0
   35.9750   21.7150   31.5740 C   0  0  0  0  0  0  0  0  0  0  0  0
   34.9720   21.0140   32.2100 C   0  0  0  0  0  3  0  0  0  0  0  0
   34.8740   19.6470   32.0080 C   0  0  0  0  0  0  0  0  0  0  0  0
   34.0930   19.0540   32.4920 H   0  0  0  0  0  0  0  0  0  0  0  0
   35.7790   19.0580   31.1870 N   0  0  0  0  0  0  0  0  0  0  0  0
   36.7550   19.7250   30.5670 C   0  0  0  0  0  3  0  0  0  0  0  0
   36.8380   21.0510   30.7720 N   0  0  0  0  0  0  0  0  0  0  0  0
   40.1160   26.6840   33.9510 C   0  0  0  0  0  0  0  0  0  0  0  0
   40.5810   27.6190   33.0150 F   0  0  0  0  0  0  0  0  0  0  0  0
   40.5990   25.4890   33.4760 F   0  0  0  0  0  0  0  0  0  0  0  0
   40.6570   27.0580   35.1280 F   0  0  0  0  0  0  0  0  0  0  0  0
  1  6  1  0  0  0  0
  1  2  1  0  0  0  0
  2  3  1  0  0  0  0
  3  4  1  0  0  0  0
  3 10  1  0  0  0  0
  3  9  1  0  0  0  0
  4 11  1  0  0  0  0
  4 12  1  0  0  0  0
  5 13  1  0  0  0  0
  5  4  1  0  0  0  0
  6 15  1  6  0  0  0
  6 31  1  0  0  0  0
  6  5  1  0  0  0  0
  7  2  1  0  0  0  0
  8  2  1  0  0  0  0
 14  5  1  0  0  0  0
 16  1  1  0  0  0  0
 17 22  1  0  0  0  0
 17 16  2  0  0  0  0
 18 17  1  0  0  0  0
 19 18  2  0  0  0  0
 19 20  1  0  0  0  0
 20 21  2  0  0  0  0
 21 16  1  0  0  0  0
 23 18  1  0  0  0  0
 24 20  1  0  0  0  0
 24 25  1  0  0  0  0
 26 25  2  0  0  0  0
 26 27  1  0  0  0  0
 28 26  1  0  0  0  0
 29 30  1  0  0  0  0
 29 28  2  0  0  0  0
 30 24  2  0  0  0  0
 31 34  1  0  0  0  0
 32 31  1  0  0  0  0
 33 31  1  0  0  0  0
M  END
>  <minimizedAffinity>
-5.65548992

$$$$

 OpenBabel03262522003D

 34 36  0  0  1  0  0  0  0  0999 V2000
   38.1550   26.5740   34.6590 N   0  0  0  0  0  0  0  0  0  0  0  0
   39.4410   27.0600   35.0760 C   0  0  0  0  0  0  0  0  0  0  0  0
   40.6220   26.2420   34.7690 C   0  0  0  0  0  0  0  0  0  0  0  0
   40.4400   24.7870   34.5330 C   0  0  0  0  0  0  0  0  0  0  0  0
   39.0250   24.3710   34.2400 C   0  0  0  0  0  0  0  0  0  0  0  0
   38.0490   25.2220   35.0370 C   0  0  1  0  0  0  0  0  0  0  0  0
   39.4540   27.4180   36.1480 H   0  0  0  0  0  0  0  0  0  0  0  0
   39.5400   28.0570   34.5450 H   0  0  0  0  0  0  0  0  0  0  0  0
   41.3430   26.3020   35.6410 H   0  0  0  0  0  0  0  0  0  0  0  0
   41.2440   26.7220   33.9540 H   0  0  0  0  0  0  0  0  0  0  0  0
   40.9820   24.1140   35.2460 H   0  0  0  0  0  0  0  0  0  0  0  0
   40.9650   24.5260   33.5730 H   0  0  0  0  0  0  0  0  0  0  0  0
   38.9340   23.2990   34.5100 H   0  0  0  0  0  0  0  0  0  0  0  0
   38.7500   24.4790   33.1710 H   0  0  0  0  0  0  0  0  0  0  0  0
   37.0480   24.8820   34.6320 H   0  0  0  0  0  0  0  0  0  0  0  0
   37.1710   27.3620   33.9750 C   0  0  0  0  0  0  0  0  0  0  0  0
   36.7320   27.1190   32.6730 C   0  0  0  0  0  0  0  0  0  0  0  0
   35.7720   27.9630   32.1440 C   0  0  0  0  0  0  0  0  0  0  0  0
   35.3100   28.9800   32.9190 N   0  0  0  0  0  0  0  0  0  0  0  0
   35.7490   29.1970   34.1720 C   0  0  0  0  0  0  0  0  0  0  0  0
   36.6670   28.3840   34.6700 N   0  0  0  0  0  0  0  0  0  0  0  0
   37.2050   26.2680   32.2020 H   0  0  0  0  0  0  0  0  0  0  0  0
   35.4600   27.7500   31.1490 H   0  0  0  0  0  0  0  0  0  0  0  0
   35.1770   30.3210   34.9050 C   0  0  0  0  0  0  0  0  0  0  0  0
   35.9380   31.1390   35.7160 C   0  0  0  0  0  3  0  0  0  0  0  0
   35.3220   32.1880   36.3790 C   0  0  0  0  0  0  0  0  0  0  0  0
   35.8880   32.8590   37.0310 H   0  0  0  0  0  0  0  0  0  0  0  0
   33.9900   32.3610   36.1980 N   0  0  0  0  0  0  0  0  0  0  0  0
   33.2430   31.5770   35.4180 C   0  0  0  0  0  3  0  0  0  0  0  0
   33.8530   30.5630   34.7800 N   0  0  0  0  0  0  0  0  0  0  0  0
   38.2130   24.9110   36.4910 C   0  0  0  0  0  0  0  0  0  0  0  0
   37.0390   24.2620   36.8980 F   0  0  0  0  0  0  0  0  0  0  0  0
   38.2140   26.0670   37.2330 F   0  0  0  0  0  0  0  0  0  0  0  0
   39.2150   24.0650   36.8030 F   0  0  0  0  0  0  0  0  0  0  0  0
  1  6  1  0  0  0  0
  1  2  1  0  0  0  0
  2  7  1  0  0  0  0
  3  2  1  0  0  0  0
  3  9  1  0  0  0  0
  4  3  1  0  0  0  0
  4 11  1  0  0  0  0
  5 13  1  0  0  0  0
  5  4  1  0  0  0  0
  5  6  1  0  0  0  0
  6 15  1  6  0  0  0
  6 31  1  0  0  0  0
  8  2  1  0  0  0  0
 10  3  1  0  0  0  0
 12  4  1  0  0  0  0
 14  5  1  0  0  0  0
 16  1  1  0  0  0  0
 16 21  1  0  0  0  0
 17 16  2  0  0  0  0
 18 17  1  0  0  0  0
 18 19  2  0  0  0  0
 19 20  1  0  0  0  0
 20 21  2  0  0  0  0
 20 24  1  0  0  0  0
 22 17  1  0  0  0  0
 23 18  1  0  0  0  0
 24 25  1  0  0  0  0
 25 26  2  0  0  0  0
 26 27  1  0  0  0  0
 28 26  1  0  0  0  0
 29 28  2  0  0  0  0
 30 24  2  0  0  0  0
 30 29  1  0  0  0  0
 31 34  1  0  0  0  0
 31 32  1  0  0  0  0
 31 33  1  0  0  0  0
M  END
>  <minimizedAffinity>
-5.55186844

$$$$

 OpenBabel03262522003D

 34 36  0  0  1  0  0  0  0  0999 V2000
   35.0300   30.3180   33.7730 N   0  0  0  0  0  0  0  0  0  0  0  0
   34.0880   29.7310   34.6870 C   0  0  0  0  0  0  0  0  0  0  0  0
   32.9290   30.5360   35.0960 C   0  0  0  0  0  0  0  0  0  0  0  0
   33.0170   32.0150   34.9990 C   0  0  0  0  0  0  0  0  0  0  0  0
   34.1280   32.5210   34.1220 C   0  0  0  0  0  0  0  0  0  0  0  0
   35.3420   31.6130   34.2320 C   0  0  1  0  0  0  0  0  0  0  0  0
   34.5810   29.2360   35.5750 H   0  0  0  0  0  0  0  0  0  0  0  0
   33.7180   28.8100   34.1400 H   0  0  0  0  0  0  0  0  0  0  0  0
   32.7140   30.3330   36.1900 H   0  0  0  0  0  0  0  0  0  0  0  0
   31.9790   30.1420   34.6230 H   0  0  0  0  0  0  0  0  0  0  0  0
   32.9020   32.5660   35.9670 H   0  0  0  0  0  0  0  0  0  0  0  0
   32.1020   32.3790   34.4520 H   0  0  0  0  0  0  0  0  0  0  0  0
   34.3670   33.5520   34.4550 H   0  0  0  0  0  0  0  0  0  0  0  0
   33.8530   32.5650   33.0480 H   0  0  0  0  0  0  0  0  0  0  0  0
   36.0350   32.0420   33.4450 H   0  0  0  0  0  0  0  0  0  0  0  0
   35.5410   29.6670   32.6030 C   0  0  0  0  0  0  0  0  0  0  0  0
   35.9380   30.3290   31.4410 C   0  0  0  0  0  0  0  0  0  0  0  0
   36.4170   29.5670   30.3900 C   0  0  0  0  0  0  0  0  0  0  0  0
   36.4750   28.2170   30.5480 N   0  0  0  0  0  0  0  0  0  0  0  0
   36.0860   27.6000   31.6770 C   0  0  0  0  0  0  0  0  0  0  0  0
   35.6300   28.3360   32.6770 N   0  0  0  0  0  0  0  0  0  0  0  0
   35.8240   31.4040   31.4880 H   0  0  0  0  0  0  0  0  0  0  0  0
   36.7100   30.1030   29.5200 H   0  0  0  0  0  0  0  0  0  0  0  0
   36.1960   26.1450   31.7260 C   0  0  0  0  0  0  0  0  0  0  0  0
   35.3330   25.3150   31.0410 C   0  0  0  0  0  3  0  0  0  0  0  0
   35.5020   23.9430   31.1360 C   0  0  0  0  0  0  0  0  0  0  0  0
   34.8410   23.2510   30.6090 H   0  0  0  0  0  0  0  0  0  0  0  0
   36.5170   23.4790   31.9060 N   0  0  0  0  0  0  0  0  0  0  0  0
   37.3580   24.2720   32.5750 C   0  0  0  0  0  3  0  0  0  0  0  0
   37.1820   25.6000   32.4730 N   0  0  0  0  0  0  0  0  0  0  0  0
   35.9050   31.7240   35.6130 C   0  0  0  0  0  0  0  0  0  0  0  0
   36.9420   32.6670   35.5500 F   0  0  0  0  0  0  0  0  0  0  0  0
   36.5490   30.5630   35.9640 F   0  0  0  0  0  0  0  0  0  0  0  0
   35.0610   32.1860   36.5580 F   0  0  0  0  0  0  0  0  0  0  0  0
  1  6  1  0  0  0  0
  1  2  1  0  0  0  0
  2  3  1  0  0  0  0
  2  7  1  0  0  0  0
  3  9  1  0  0  0  0
  4  3  1  0  0  0  0
  4 11  1  0  0  0  0
  5  6  1  0  0  0  0
  5 13  1  0  0  0  0
  5  4  1  0  0  0  0
  6 15  1  6  0  0  0
  6 31  1  0  0  0  0
  8  2  1  0  0  0  0
 10  3  1  0  0  0  0
 12  4  1  0  0  0  0
 14  5  1  0  0  0  0
 16 21  1  0  0  0  0
 16  1  1  0  0  0  0
 17 22  1  0  0  0  0
 17 16  2  0  0  0  0
 18 19  2  0  0  0  0
 18 17  1  0  0  0  0
 19 20  1  0  0  0  0
 20 24  1  0  0  0  0
 20 21  2  0  0  0  0
 23 18  1  0  0  0  0
 24 30  1  0  0  0  0
 25 26  1  0  0  0  0
 25 24  2  0  0  0  0
 26 28  2  0  0  0  0
 27 26  1  0  0  0  0
 28 29  1  0  0  0  0
 30 29  2  0  0  0  0
 31 33  1  0  0  0  0
 31 34  1  0  0  0  0
 32 31  1  0  0  0  0
M  END
>  <minimizedAffinity>
-5.38544559

$$$$

 OpenBabel03262522003D

 34 36  0  0  1  0  0  0  0  0999 V2000
   38.4860   25.9630   35.1560 N   0  0  0  0  0  0  0  0  0  0  0  0
   38.0740   27.3030   35.4720 C   0  0  0  0  0  0  0  0  0  0  0  0
   36.9800   27.8920   34.6880 C   0  0  0  0  0  0  0  0  0  0  0  0
   36.6990   27.3490   33.3350 C   0  0  0  0  0  0  0  0  0  0  0  0
   37.2970   25.9960   33.0650 C   0  0  0  0  0  0  0  0  0  0  0  0
   38.6430   25.8670   33.7600 C   0  0  1  0  0  0  0  0  0  0  0  0
   38.9400   28.0210   35.5770 H   0  0  0  0  0  0  0  0  0  0  0  0
   37.7510   27.2390   36.5570 H   0  0  0  0  0  0  0  0  0  0  0  0
   37.2070   28.9880   34.5140 H   0  0  0  0  0  0  0  0  0  0  0  0
   36.0370   27.9720   35.3090 H   0  0  0  0  0  0  0  0  0  0  0  0
   36.8070   28.0790   32.4930 H   0  0  0  0  0  0  0  0  0  0  0  0
   35.5950   27.1340   33.2730 H   0  0  0  0  0  0  0  0  0  0  0  0
   37.4030   25.8950   31.9660 H   0  0  0  0  0  0  0  0  0  0  0  0
   36.6650   25.1580   33.4260 H   0  0  0  0  0  0  0  0  0  0  0  0
   38.9090   24.7820   33.5700 H   0  0  0  0  0  0  0  0  0  0  0  0
   38.6930   24.9270   36.1250 C   0  0  0  0  0  0  0  0  0  0  0  0
   37.9470   24.7810   37.2950 C   0  0  0  0  0  0  0  0  0  0  0  0
   38.2590   23.7270   38.1360 C   0  0  0  0  0  0  0  0  0  0  0  0
   39.2720   22.8930   37.7770 N   0  0  0  0  0  0  0  0  0  0  0  0
   39.9790   23.0550   36.6440 C   0  0  0  0  0  0  0  0  0  0  0  0
   39.6730   24.0640   35.8460 N   0  0  0  0  0  0  0  0  0  0  0  0
   37.1800   25.5320   37.4230 H   0  0  0  0  0  0  0  0  0  0  0  0
   37.6720   23.6450   39.0190 H   0  0  0  0  0  0  0  0  0  0  0  0
   41.0420   22.0950   36.3670 C   0  0  0  0  0  0  0  0  0  0  0  0
   41.6770   21.3870   37.3670 C   0  0  0  0  0  3  0  0  0  0  0  0
   42.6790   20.4920   37.0250 C   0  0  0  0  0  0  0  0  0  0  0  0
   43.2070   19.9110   37.7860 H   0  0  0  0  0  0  0  0  0  0  0  0
   42.9890   20.3550   35.7130 N   0  0  0  0  0  0  0  0  0  0  0  0
   42.3820   21.0340   34.7360 C   0  0  0  0  0  3  0  0  0  0  0  0
   41.4130   21.8980   35.0820 N   0  0  0  0  0  0  0  0  0  0  0  0
   39.6090   26.8120   33.1200 C   0  0  0  0  0  0  0  0  0  0  0  0
   40.5270   26.0280   32.4060 F   0  0  0  0  0  0  0  0  0  0  0  0
   40.3860   27.4240   34.0740 F   0  0  0  0  0  0  0  0  0  0  0  0
   39.0880   27.6650   32.2150 F   0  0  0  0  0  0  0  0  0  0  0  0
  1  2  1  0  0  0  0
  1 16  1  0  0  0  0
  2  7  1  0  0  0  0
  2  8  1  0  0  0  0
  3 10  1  0  0  0  0
  3  2  1  0  0  0  0
  4  3  1  0  0  0  0
  5  4  1  0  0  0  0
  5 14  1  0  0  0  0
  5  6  1  0  0  0  0
  6 15  1  6  0  0  0
  6  1  1  0  0  0  0
  9  3  1  0  0  0  0
 11  4  1  0  0  0  0
 12  4  1  0  0  0  0
 13  5  1  0  0  0  0
 16 17  1  0  0  0  0
 17 22  1  0  0  0  0
 17 18  2  0  0  0  0
 18 23  1  0  0  0  0
 19 18  1  0  0  0  0
 20 19  2  0  0  0  0
 21 16  2  0  0  0  0
 21 20  1  0  0  0  0
 24 20  1  0  0  0  0
 24 25  1  0  0  0  0
 26 25  2  0  0  0  0
 26 27  1  0  0  0  0
 28 26  1  0  0  0  0
 29 30  1  0  0  0  0
 29 28  2  0  0  0  0
 30 24  2  0  0  0  0
 31  6  1  0  0  0  0
 31 33  1  0  0  0  0
 32 31  1  0  0  0  0
 34 31  1  0  0  0  0
M  END
>  <minimizedAffinity>
-5.3392086

$$$$

 OpenBabel03262522003D

 34 36  0  0  1  0  0  0  0  0999 V2000
   38.6560   24.4210   34.9490 N   0  0  0  0  0  0  0  0  0  0  0  0
   40.0230   24.7760   35.2160 C   0  0  0  0  0  0  0  0  0  0  0  0
   40.9770   23.6940   35.4940 C   0  0  0  0  0  0  0  0  0  0  0  0
   40.4560   22.3950   35.9910 C   0  0  0  0  0  0  0  0  0  0  0  0
   38.9820   22.1880   35.7820 C   0  0  0  0  0  0  0  0  0  0  0  0
   38.2380   23.5040   35.9330 C   0  0  1  0  0  0  0  0  0  0  0  0
   40.1250   25.6180   35.9620 H   0  0  0  0  0  0  0  0  0  0  0  0
   40.3510   25.3190   34.2760 H   0  0  0  0  0  0  0  0  0  0  0  0
   41.6950   24.0400   36.2980 H   0  0  0  0  0  0  0  0  0  0  0  0
   41.6900   23.5520   34.6260 H   0  0  0  0  0  0  0  0  0  0  0  0
   40.8290   22.0840   37.0010 H   0  0  0  0  0  0  0  0  0  0  0  0
   40.9010   21.5800   35.3550 H   0  0  0  0  0  0  0  0  0  0  0  0
   38.6430   21.4470   36.5350 H   0  0  0  0  0  0  0  0  0  0  0  0
   38.7350   21.7900   34.7760 H   0  0  0  0  0  0  0  0  0  0  0  0
   37.1820   23.2200   35.6370 H   0  0  0  0  0  0  0  0  0  0  0  0
   37.8820   24.9320   33.8560 C   0  0  0  0  0  0  0  0  0  0  0  0
   37.5160   24.1900   32.7330 C   0  0  0  0  0  0  0  0  0  0  0  0
   36.7620   24.8180   31.7570 C   0  0  0  0  0  0  0  0  0  0  0  0
   36.4200   26.1200   31.9460 N   0  0  0  0  0  0  0  0  0  0  0  0
   36.7850   26.8170   33.0370 C   0  0  0  0  0  0  0  0  0  0  0  0
   37.5050   26.2090   33.9650 N   0  0  0  0  0  0  0  0  0  0  0  0
   37.8730   23.1690   32.7460 H   0  0  0  0  0  0  0  0  0  0  0  0
   36.5010   24.2230   30.9150 H   0  0  0  0  0  0  0  0  0  0  0  0
   36.3570   28.2100   33.1260 C   0  0  0  0  0  0  0  0  0  0  0  0
   36.3160   29.0410   32.0260 C   0  0  0  0  0  3  0  0  0  0  0  0
   35.8960   30.3520   32.1900 C   0  0  0  0  0  0  0  0  0  0  0  0
   35.8490   31.0440   31.3460 H   0  0  0  0  0  0  0  0  0  0  0  0
   35.5440   30.7570   33.4350 N   0  0  0  0  0  0  0  0  0  0  0  0
   35.5810   29.9610   34.5070 C   0  0  0  0  0  3  0  0  0  0  0  0
   35.9890   28.6930   34.3330 N   0  0  0  0  0  0  0  0  0  0  0  0
   38.3310   23.9510   37.3570 C   0  0  0  0  0  0  0  0  0  0  0  0
   37.1710   23.4940   38.0000 F   0  0  0  0  0  0  0  0  0  0  0  0
   38.2250   25.3180   37.4400 F   0  0  0  0  0  0  0  0  0  0  0  0
   39.3570   23.4420   38.0690 F   0  0  0  0  0  0  0  0  0  0  0  0
  1  2  1  0  0  0  0
  1  6  1  0  0  0  0
  2  3  1  0  0  0  0
  2  7  1  0  0  0  0
  3  4  1  0  0  0  0
  3  9  1  0  0  0  0
  4 11  1  0  0  0  0
  5  6  1  0  0  0  0
  5  4  1  0  0  0  0
  5 13  1  0  0  0  0
  6 15  1  6  0  0  0
  6 31  1  0  0  0  0
  8  2  1  0  0  0  0
 10  3  1  0  0  0  0
 12  4  1  0  0  0  0
 14  5  1  0  0  0  0
 16 21  1  0  0  0  0
 16  1  1  0  0  0  0
 17 22  1  0  0  0  0
 17 16  2  0  0  0  0
 18 19  2  0  0  0  0
 18 17  1  0  0  0  0
 19 20  1  0  0  0  0
 20 24  1  0  0  0  0
 20 21  2  0  0  0  0
 23 18  1  0  0  0  0
 24 30  1  0  0  0  0
 25 26  1  0  0  0  0
 25 24  2  0  0  0  0
 26 28  2  0  0  0  0
 27 26  1  0  0  0  0
 28 29  1  0  0  0  0
 30 29  2  0  0  0  0
 31 33  1  0  0  0  0
 31 32  1  0  0  0  0
 31 34  1  0  0  0  0
M  END
>  <minimizedAffinity>
-5.30905294

$$$$

 OpenBabel03262522003D

 34 36  0  0  1  0  0  0  0  0999 V2000
   38.9150   23.5960   35.1150 N   0  0  0  0  0  0  0  0  0  0  0  0
   39.9670   24.5640   35.2640 C   0  0  0  0  0  0  0  0  0  0  0  0
   41.2750   24.0950   35.7410 C   0  0  0  0  0  0  0  0  0  0  0  0
   41.3390   22.8300   36.5170 C   0  0  0  0  0  0  0  0  0  0  0  0
   40.1220   21.9570   36.3960 C   0  0  0  0  0  0  0  0  0  0  0  0
   38.8690   22.8100   36.2830 C   0  0  1  0  0  0  0  0  0  0  0  0
   39.6390   25.4960   35.8110 H   0  0  0  0  0  0  0  0  0  0  0  0
   40.0910   24.9920   34.2220 H   0  0  0  0  0  0  0  0  0  0  0  0
   41.7120   24.8770   36.4330 H   0  0  0  0  0  0  0  0  0  0  0  0
   42.0380   24.1090   34.9040 H   0  0  0  0  0  0  0  0  0  0  0  0
   41.7380   22.9280   37.5590 H   0  0  0  0  0  0  0  0  0  0  0  0
   42.1390   22.1850   36.0570 H   0  0  0  0  0  0  0  0  0  0  0  0
   40.0870   21.3120   37.2980 H   0  0  0  0  0  0  0  0  0  0  0  0
   40.1450   21.2960   35.5050 H   0  0  0  0  0  0  0  0  0  0  0  0
   38.0680   22.0350   36.0820 H   0  0  0  0  0  0  0  0  0  0  0  0
   38.0740   23.4810   33.9600 C   0  0  0  0  0  0  0  0  0  0  0  0
   37.6400   24.5600   33.1900 C   0  0  0  0  0  0  0  0  0  0  0  0
   36.8330   24.2940   32.0970 C   0  0  0  0  0  0  0  0  0  0  0  0
   36.5090   23.0000   31.8340 N   0  0  0  0  0  0  0  0  0  0  0  0
   36.9390   21.9750   32.5920 C   0  0  0  0  0  0  0  0  0  0  0  0
   37.7100   22.2380   33.6340 N   0  0  0  0  0  0  0  0  0  0  0  0
   37.9920   25.5200   33.5410 H   0  0  0  0  0  0  0  0  0  0  0  0
   36.5190   25.1390   31.5320 H   0  0  0  0  0  0  0  0  0  0  0  0
   36.5240   20.6290   32.2090 C   0  0  0  0  0  0  0  0  0  0  0  0
   36.8380   20.0800   30.9840 C   0  0  0  0  0  3  0  0  0  0  0  0
   36.4090   18.7940   30.6930 C   0  0  0  0  0  0  0  0  0  0  0  0
   36.6370   18.3220   29.7340 H   0  0  0  0  0  0  0  0  0  0  0  0
   35.6930   18.1340   31.6360 N   0  0  0  0  0  0  0  0  0  0  0  0
   35.3810   18.6560   32.8250 C   0  0  0  0  0  3  0  0  0  0  0  0
   35.8040   19.9030   33.0930 N   0  0  0  0  0  0  0  0  0  0  0  0
   38.6580   23.5300   37.5760 C   0  0  0  0  0  0  0  0  0  0  0  0
   37.4990   22.9890   38.1530 F   0  0  0  0  0  0  0  0  0  0  0  0
   38.3180   24.8410   37.3460 F   0  0  0  0  0  0  0  0  0  0  0  0
   39.6240   23.3740   38.5030 F   0  0  0  0  0  0  0  0  0  0  0  0
  1  2  1  0  0  0  0
  1  6  1  0  0  0  0
  2  3  1  0  0  0  0
  2  7  1  0  0  0  0
  3  9  1  0  0  0  0
  3  4  1  0  0  0  0
  4 11  1  0  0  0  0
  5  4  1  0  0  0  0
  5 13  1  0  0  0  0
  6 15  1  6  0  0  0
  6  5  1  0  0  0  0
  6 31  1  0  0  0  0
  8  2  1  0  0  0  0
 10  3  1  0  0  0  0
 12  4  1  0  0  0  0
 14  5  1  0  0  0  0
 16  1  1  0  0  0  0
 17 22  1  0  0  0  0
 17 16  2  0  0  0  0
 18 17  1  0  0  0  0
 19 18  2  0  0  0  0
 19 20  1  0  0  0  0
 20 21  2  0  0  0  0
 21 16  1  0  0  0  0
 23 18  1  0  0  0  0
 24 20  1  0  0  0  0
 24 30  1  0  0  0  0
 25 24  2  0  0  0  0
 26 25  1  0  0  0  0
 26 28  2  0  0  0  0
 27 26  1  0  0  0  0
 28 29  1  0  0  0  0
 29 30  2  0  0  0  0
 31 32  1  0  0  0  0
 31 34  1  0  0  0  0
 33 31  1  0  0  0  0
M  END
>  <minimizedAffinity>
-5.28470182

$$$$

 OpenBabel03262522003D

 34 36  0  0  1  0  0  0  0  0999 V2000
   35.4520   30.7340   33.3340 N   0  0  0  0  0  0  0  0  0  0  0  0
   35.2510   32.1570   33.3140 C   0  0  0  0  0  0  0  0  0  0  0  0
   35.8170   32.9500   34.4130 C   0  0  0  0  0  0  0  0  0  0  0  0
   36.1000   32.2780   35.7060 C   0  0  0  0  0  0  0  0  0  0  0  0
   36.1510   30.7770   35.6350 C   0  0  0  0  0  0  0  0  0  0  0  0
   35.1400   30.2620   34.6240 C   0  0  1  0  0  0  0  0  0  0  0  0
   34.1810   32.4510   33.1010 H   0  0  0  0  0  0  0  0  0  0  0  0
   35.7330   32.4850   32.3410 H   0  0  0  0  0  0  0  0  0  0  0  0
   35.0910   33.7790   34.6740 H   0  0  0  0  0  0  0  0  0  0  0  0
   36.7040   33.5570   34.0560 H   0  0  0  0  0  0  0  0  0  0  0  0
   35.5400   32.6810   36.5880 H   0  0  0  0  0  0  0  0  0  0  0  0
   37.1540   32.5350   36.0050 H   0  0  0  0  0  0  0  0  0  0  0  0
   35.9330   30.3910   36.6520 H   0  0  0  0  0  0  0  0  0  0  0  0
   37.1440   30.3880   35.3280 H   0  0  0  0  0  0  0  0  0  0  0  0
   35.3730   29.1540   34.5940 H   0  0  0  0  0  0  0  0  0  0  0  0
   35.8960   29.9600   32.2120 C   0  0  0  0  0  0  0  0  0  0  0  0
   36.3300   30.5020   31.0020 C   0  0  0  0  0  0  0  0  0  0  0  0
   36.7340   29.6290   30.0070 C   0  0  0  0  0  0  0  0  0  0  0  0
   36.6870   28.2940   30.2630 N   0  0  0  0  0  0  0  0  0  0  0  0
   36.2640   27.7930   31.4380 C   0  0  0  0  0  0  0  0  0  0  0  0
   35.8800   28.6350   32.3830 N   0  0  0  0  0  0  0  0  0  0  0  0
   36.3020   31.5830   30.9700 H   0  0  0  0  0  0  0  0  0  0  0  0
   37.0580   30.0750   29.0970 H   0  0  0  0  0  0  0  0  0  0  0  0
   36.2590   26.3420   31.5930 C   0  0  0  0  0  0  0  0  0  0  0  0
   35.3260   25.5360   30.9750 C   0  0  0  0  0  3  0  0  0  0  0  0
   35.3870   24.1650   31.1700 C   0  0  0  0  0  0  0  0  0  0  0  0
   34.6680   23.4910   30.6990 H   0  0  0  0  0  0  0  0  0  0  0  0
   36.3700   23.6790   31.9670 N   0  0  0  0  0  0  0  0  0  0  0  0
   37.2780   24.4490   32.5720 C   0  0  0  0  0  3  0  0  0  0  0  0
   37.2070   25.7770   32.3740 N   0  0  0  0  0  0  0  0  0  0  0  0
   33.7620   30.5430   35.1320 C   0  0  0  0  0  0  0  0  0  0  0  0
   33.1590   29.2990   35.3680 F   0  0  0  0  0  0  0  0  0  0  0  0
   32.9870   31.0920   34.1410 F   0  0  0  0  0  0  0  0  0  0  0  0
   33.6900   31.2020   36.3060 F   0  0  0  0  0  0  0  0  0  0  0  0
  1  6  1  0  0  0  0
  2  1  1  0  0  0  0
  2  3  1  0  0  0  0
  3  9  1  0  0  0  0
  3  4  1  0  0  0  0
  4 12  1  0  0  0  0
  4 11  1  0  0  0  0
  5  4  1  0  0  0  0
  5 13  1  0  0  0  0
  6 15  1  6  0  0  0
  6 31  1  0  0  0  0
  6  5  1  0  0  0  0
  7  2  1  0  0  0  0
  8  2  1  0  0  0  0
 10  3  1  0  0  0  0
 14  5  1  0  0  0  0
 16 21  1  0  0  0  0
 16  1  1  0  0  0  0
 17 16  2  0  0  0  0
 18 19  2  0  0  0  0
 18 17  1  0  0  0  0
 19 20  1  0  0  0  0
 20 24  1  0  0  0  0
 20 21  2  0  0  0  0
 22 17  1  0  0  0  0
 23 18  1  0  0  0  0
 24 30  1  0  0  0  0
 25 26  1  0  0  0  0
 25 24  2  0  0  0  0
 26 28  2  0  0  0  0
 27 26  1  0  0  0  0
 28 29  1  0  0  0  0
 30 29  2  0  0  0  0
 31 32  1  0  0  0  0
 31 34  1  0  0  0  0
 33 31  1  0  0  0  0
M  END
>  <minimizedAffinity>
-5.26830435

$$$$

 OpenBabel03262522003D

 34 36  0  0  1  0  0  0  0  0999 V2000
   37.6170   25.3240   34.2440 N   0  0  0  0  0  0  0  0  0  0  0  0
   37.1230   26.5010   34.9050 C   0  0  0  0  0  0  0  0  0  0  0  0
   38.1000   27.5020   35.3540 C   0  0  0  0  0  0  0  0  0  0  0  0
   39.5030   27.0760   35.5880 C   0  0  0  0  0  0  0  0  0  0  0  0
   39.8710   25.7590   34.9640 C   0  0  0  0  0  0  0  0  0  0  0  0
   38.6860   24.8070   35.0020 C   0  0  1  0  0  0  0  0  0  0  0  0
   36.3660   26.2720   35.7120 H   0  0  0  0  0  0  0  0  0  0  0  0
   36.4400   26.9770   34.1360 H   0  0  0  0  0  0  0  0  0  0  0  0
   37.7590   27.9220   36.3490 H   0  0  0  0  0  0  0  0  0  0  0  0
   38.0490   28.4320   34.7090 H   0  0  0  0  0  0  0  0  0  0  0  0
   39.8770   27.2130   36.6350 H   0  0  0  0  0  0  0  0  0  0  0  0
   40.1770   27.7920   35.0400 H   0  0  0  0  0  0  0  0  0  0  0  0
   40.7300   25.3510   35.5350 H   0  0  0  0  0  0  0  0  0  0  0  0
   40.1790   25.8490   33.9010 H   0  0  0  0  0  0  0  0  0  0  0  0
   39.0670   23.9240   34.4040 H   0  0  0  0  0  0  0  0  0  0  0  0
   37.0870   24.7960   33.0210 C   0  0  0  0  0  0  0  0  0  0  0  0
   36.4200   25.5530   32.0580 C   0  0  0  0  0  0  0  0  0  0  0  0
   35.9660   24.9050   30.9230 C   0  0  0  0  0  0  0  0  0  0  0  0
   36.1930   23.5690   30.8090 N   0  0  0  0  0  0  0  0  0  0  0  0
   36.8370   22.8580   31.7520 C   0  0  0  0  0  0  0  0  0  0  0  0
   37.2690   23.4860   32.8330 N   0  0  0  0  0  0  0  0  0  0  0  0
   36.3270   26.6010   32.3110 H   0  0  0  0  0  0  0  0  0  0  0  0
   35.4610   25.5120   30.2090 H   0  0  0  0  0  0  0  0  0  0  0  0
   37.0200   21.4300   31.5150 C   0  0  0  0  0  0  0  0  0  0  0  0
   36.0750   20.6610   30.8700 C   0  0  0  0  0  3  0  0  0  0  0  0
   36.3220   19.3100   30.6810 C   0  0  0  0  0  0  0  0  0  0  0  0
   35.5990   18.6650   30.1750 H   0  0  0  0  0  0  0  0  0  0  0  0
   37.4910   18.8060   31.1460 N   0  0  0  0  0  0  0  0  0  0  0  0
   38.4140   19.5400   31.7720 C   0  0  0  0  0  3  0  0  0  0  0  0
   38.1610   20.8480   31.9480 N   0  0  0  0  0  0  0  0  0  0  0  0
   38.3970   24.4530   36.4250 C   0  0  0  0  0  0  0  0  0  0  0  0
   39.4930   23.7080   36.8850 F   0  0  0  0  0  0  0  0  0  0  0  0
   37.3530   23.5630   36.4970 F   0  0  0  0  0  0  0  0  0  0  0  0
   38.2870   25.4900   37.2800 F   0  0  0  0  0  0  0  0  0  0  0  0
  1  2  1  0  0  0  0
  1  6  1  0  0  0  0
  2  3  1  0  0  0  0
  2  7  1  0  0  0  0
  3  4  1  0  0  0  0
  3  9  1  0  0  0  0
  4 11  1  0  0  0  0
  5  6  1  0  0  0  0
  5 13  1  0  0  0  0
  5  4  1  0  0  0  0
  6 15  1  6  0  0  0
  6 31  1  0  0  0  0
  8  2  1  0  0  0  0
 10  3  1  0  0  0  0
 12  4  1  0  0  0  0
 14  5  1  0  0  0  0
 16  1  1  0  0  0  0
 17 22  1  0  0  0  0
 17 16  2  0  0  0  0
 18 17  1  0  0  0  0
 19 18  2  0  0  0  0
 19 20  1  0  0  0  0
 20 21  2  0  0  0  0
 21 16  1  0  0  0  0
 23 18  1  0  0  0  0
 24 20  1  0  0  0  0
 24 30  1  0  0  0  0
 25 24  2  0  0  0  0
 26 25  1  0  0  0  0
 26 28  2  0  0  0  0
 27 26  1  0  0  0  0
 28 29  1  0  0  0  0
 29 30  2  0  0  0  0
 31 33  1  0  0  0  0
 31 32  1  0  0  0  0
 31 34  1  0  0  0  0
M  END
>  <minimizedAffinity>
-5.2226944

$$$$
