
 OpenBabel03272501453D

 32 35  0  0  0  0  0  0  0  0999 V2000
   37.7480   27.1670   35.4780 C   0  0  0  0  0  0  0  0  0  0  0  0
   37.8870   25.9190   34.8020 C   0  0  0  0  0  0  0  0  0  0  0  0
   37.3420   25.8260   33.5340 C   0  0  0  0  0  0  0  0  0  0  0  0
   36.7130   26.9150   33.0090 N   0  0  0  0  0  0  0  0  0  0  0  0
   36.5970   28.0780   33.6650 C   0  0  0  0  0  0  0  0  0  0  0  0
   37.1170   28.1900   34.8950 N   0  0  0  0  0  0  0  0  0  0  0  0
   38.1020   27.4340   36.4710 H   0  0  0  0  0  0  0  0  0  0  0  0
   37.4640   24.8740   33.0530 H   0  0  0  0  0  0  0  0  0  0  0  0
   38.0520   24.5240   36.7790 C   0  0  0  0  0  0  0  0  0  0  0  0
   38.5960   24.9060   35.5510 C   0  0  0  0  0  0  0  0  0  0  0  0
   39.7730   24.2970   35.1300 C   0  0  0  0  0  0  0  0  0  0  0  0
   40.3450   23.3290   35.9680 C   0  0  0  0  0  0  0  0  0  0  0  0
   41.4520   22.5840   35.8370 N   0  0  0  0  0  0  0  0  0  0  0  0
   41.5990   21.7940   36.8930 C   0  0  0  0  0  0  0  0  0  0  0  0
   40.5690   22.0230   37.7340 N   0  0  0  0  0  0  0  0  0  0  0  0
   39.8010   22.9640   37.1650 C   0  0  0  0  0  0  0  0  0  0  0  0
   38.6390   23.5670   37.5830 C   0  0  0  0  0  0  0  0  0  0  0  0
   37.1340   24.9230   37.2310 H   0  0  0  0  0  0  0  0  0  0  0  0
   40.1920   24.5870   34.1920 H   0  0  0  0  0  0  0  0  0  0  0  0
   42.1280   22.6010   35.0250 H   0  0  0  0  0  0  0  0  0  0  0  0
   42.3710   21.0660   37.1240 H   0  0  0  0  0  0  0  0  0  0  0  0
   38.2370   23.2540   38.5370 H   0  0  0  0  0  0  0  0  0  0  0  0
   35.8970   29.2230   33.0210 C   0  0  0  0  0  0  0  0  0  0  0  0
   36.6530   29.9330   32.6270 H   0  0  0  0  0  0  0  0  0  0  0  0
   35.2610   28.9380   32.1800 H   0  0  0  0  0  0  0  0  0  0  0  0
   35.1260   29.8960   34.1130 C   0  0  0  0  0  0  0  0  0  0  0  0
   35.5430   30.9500   34.8810 C   0  0  0  0  0  3  0  0  0  0  0  0
   34.6580   31.4120   35.8350 C   0  0  0  0  0  0  0  0  0  0  0  0
   34.9710   32.2390   36.4450 H   0  0  0  0  0  0  0  0  0  0  0  0
   33.4380   30.8660   36.0210 N   0  0  0  0  0  0  0  0  0  0  0  0
   33.0590   29.8350   35.2530 C   0  0  0  0  0  3  0  0  0  0  0  0
   33.9020   29.3620   34.3110 N   0  0  0  0  0  0  0  0  0  0  0  0
  1  7  1  0  0  0  0
  2  1  2  0  0  0  0
  2 10  1  0  0  0  0
  3  2  1  0  0  0  0
  4  3  2  0  0  0  0
  4  5  1  0  0  0  0
  5  6  2  0  0  0  0
  6  1  1  0  0  0  0
  8  3  1  0  0  0  0
  9 18  1  0  0  0  0
  9 17  1  0  0  0  0
 10  9  2  0  0  0  0
 11 10  1  0  0  0  0
 11 12  2  0  0  0  0
 12 16  1  0  0  0  0
 13 12  1  0  0  0  0
 13 14  1  0  0  0  0
 14 21  1  0  0  0  0
 14 15  2  0  0  0  0
 16 17  2  0  0  0  0
 16 15  1  0  0  0  0
 17 22  1  0  0  0  0
 19 11  1  0  0  0  0
 20 13  1  0  0  0  0
 23  5  1  0  0  0  0
 23 26  1  0  0  0  0
 24 23  1  0  0  0  0
 25 23  1  0  0  0  0
 26 32  2  0  0  0  0
 26 27  1  0  0  0  0
 27 28  2  0  0  0  0
 28 30  1  0  0  0  0
 28 29  1  0  0  0  0
 31 30  2  0  0  0  0
 32 31  1  0  0  0  0
M  END
>  <minimizedAffinity>
-5.54471636

$$$$

 OpenBabel03272501453D

 32 35  0  0  0  0  0  0  0  0999 V2000
   36.6110   27.9310   34.5270 C   0  0  0  0  0  0  0  0  0  0  0  0
   35.9140   28.9500   33.8130 C   0  0  0  0  0  0  0  0  0  0  0  0
   36.0330   28.9480   32.4350 C   0  0  0  0  0  0  0  0  0  0  0  0
   36.7980   27.9870   31.8450 N   0  0  0  0  0  0  0  0  0  0  0  0
   37.4430   27.0380   32.5380 C   0  0  0  0  0  0  0  0  0  0  0  0
   37.3410   27.0220   33.8740 N   0  0  0  0  0  0  0  0  0  0  0  0
   36.6430   27.7680   35.6010 H   0  0  0  0  0  0  0  0  0  0  0  0
   35.4970   29.7280   31.9280 H   0  0  0  0  0  0  0  0  0  0  0  0
   33.7690   29.7720   34.5910 C   0  0  0  0  0  0  0  0  0  0  0  0
   35.1610   29.8590   34.6480 C   0  0  0  0  0  0  0  0  0  0  0  0
   35.7310   30.8030   35.4960 C   0  0  0  0  0  0  0  0  0  0  0  0
   34.8680   31.6140   36.2460 C   0  0  0  0  0  0  0  0  0  0  0  0
   35.1130   32.5920   37.1300 N   0  0  0  0  0  0  0  0  0  0  0  0
   33.9730   33.0850   37.5960 C   0  0  0  0  0  0  0  0  0  0  0  0
   32.9580   32.4190   37.0070 N   0  0  0  0  0  0  0  0  0  0  0  0
   33.5080   31.5180   36.1800 C   0  0  0  0  0  0  0  0  0  0  0  0
   32.9450   30.5860   35.3420 C   0  0  0  0  0  0  0  0  0  0  0  0
   33.1910   29.0770   33.9660 H   0  0  0  0  0  0  0  0  0  0  0  0
   36.7950   30.8720   35.5420 H   0  0  0  0  0  0  0  0  0  0  0  0
   36.0640   32.9410   37.4320 H   0  0  0  0  0  0  0  0  0  0  0  0
   33.7910   33.8760   38.3170 H   0  0  0  0  0  0  0  0  0  0  0  0
   31.8640   30.5370   35.3150 H   0  0  0  0  0  0  0  0  0  0  0  0
   38.2560   26.0200   31.8190 C   0  0  0  0  0  0  0  0  0  0  0  0
   38.3750   26.3340   30.7620 H   0  0  0  0  0  0  0  0  0  0  0  0
   39.2610   25.8870   32.2260 H   0  0  0  0  0  0  0  0  0  0  0  0
   37.4560   24.7560   31.8610 C   0  0  0  0  0  0  0  0  0  0  0  0
   36.2870   24.5040   31.1940 C   0  0  0  0  0  3  0  0  0  0  0  0
   35.7210   23.2580   31.3830 C   0  0  0  0  0  0  0  0  0  0  0  0
   34.8030   23.0460   30.8660 H   0  0  0  0  0  0  0  0  0  0  0  0
   36.2720   22.3210   32.1810 N   0  0  0  0  0  0  0  0  0  0  0  0
   37.4170   22.5990   32.8210 C   0  0  0  0  0  3  0  0  0  0  0  0
   37.9950   23.8070   32.6550 N   0  0  0  0  0  0  0  0  0  0  0  0
  1  7  1  0  0  0  0
  2  1  2  0  0  0  0
  2 10  1  0  0  0  0
  3  2  1  0  0  0  0
  4  3  2  0  0  0  0
  4  5  1  0  0  0  0
  5  6  2  0  0  0  0
  6  1  1  0  0  0  0
  8  3  1  0  0  0  0
  9 10  2  0  0  0  0
  9 17  1  0  0  0  0
 10 11  1  0  0  0  0
 11 19  1  0  0  0  0
 11 12  2  0  0  0  0
 12 13  1  0  0  0  0
 13 20  1  0  0  0  0
 13 14  1  0  0  0  0
 14 21  1  0  0  0  0
 15 14  2  0  0  0  0
 16 12  1  0  0  0  0
 16 15  1  0  0  0  0
 17 16  2  0  0  0  0
 18  9  1  0  0  0  0
 22 17  1  0  0  0  0
 23 26  1  0  0  0  0
 23 25  1  0  0  0  0
 23  5  1  0  0  0  0
 24 23  1  0  0  0  0
 26 32  1  0  0  0  0
 27 28  1  0  0  0  0
 27 26  2  0  0  0  0
 28 30  2  0  0  0  0
 29 28  1  0  0  0  0
 30 31  1  0  0  0  0
 32 31  2  0  0  0  0
M  END
>  <minimizedAffinity>
-5.37013531

$$$$

 OpenBabel03272501453D

 32 35  0  0  0  0  0  0  0  0999 V2000
   37.4440   27.6670   35.1640 C   0  0  0  0  0  0  0  0  0  0  0  0
   37.6630   26.5260   34.3380 C   0  0  0  0  0  0  0  0  0  0  0  0
   37.0300   26.5090   33.1070 C   0  0  0  0  0  0  0  0  0  0  0  0
   36.2460   27.5670   32.7590 N   0  0  0  0  0  0  0  0  0  0  0  0
   36.0560   28.6290   33.5550 C   0  0  0  0  0  0  0  0  0  0  0  0
   36.6590   28.6660   34.7510 N   0  0  0  0  0  0  0  0  0  0  0  0
   37.8470   27.8630   36.1550 H   0  0  0  0  0  0  0  0  0  0  0  0
   37.2150   25.6360   32.5100 H   0  0  0  0  0  0  0  0  0  0  0  0
   39.8160   25.4090   34.3620 C   0  0  0  0  0  0  0  0  0  0  0  0
   38.5380   25.5280   34.9120 C   0  0  0  0  0  0  0  0  0  0  0  0
   38.1900   24.6900   35.9650 C   0  0  0  0  0  0  0  0  0  0  0  0
   39.1480   23.7720   36.4140 C   0  0  0  0  0  0  0  0  0  0  0  0
   39.1100   22.8530   37.3900 N   0  0  0  0  0  0  0  0  0  0  0  0
   40.2650   22.2040   37.4550 C   0  0  0  0  0  0  0  0  0  0  0  0
   41.0800   22.7060   36.5050 N   0  0  0  0  0  0  0  0  0  0  0  0
   40.3950   23.6670   35.8680 C   0  0  0  0  0  0  0  0  0  0  0  0
   40.7390   24.4940   34.8260 C   0  0  0  0  0  0  0  0  0  0  0  0
   40.2180   26.0030   33.5300 H   0  0  0  0  0  0  0  0  0  0  0  0
   37.2140   24.7780   36.3880 H   0  0  0  0  0  0  0  0  0  0  0  0
   38.2920   22.6510   38.0290 H   0  0  0  0  0  0  0  0  0  0  0  0
   40.5870   21.4050   38.1170 H   0  0  0  0  0  0  0  0  0  0  0  0
   41.7340   24.3830   34.4170 H   0  0  0  0  0  0  0  0  0  0  0  0
   35.1860   29.7480   33.1000 C   0  0  0  0  0  0  0  0  0  0  0  0
   35.5870   30.7030   33.4980 H   0  0  0  0  0  0  0  0  0  0  0  0
   35.1330   29.8540   32.0140 H   0  0  0  0  0  0  0  0  0  0  0  0
   33.8440   29.4950   33.7110 C   0  0  0  0  0  0  0  0  0  0  0  0
   33.4880   29.6970   35.0180 C   0  0  0  0  0  3  0  0  0  0  0  0
   32.1850   29.3930   35.3610 C   0  0  0  0  0  0  0  0  0  0  0  0
   31.8910   29.5460   36.3830 H   0  0  0  0  0  0  0  0  0  0  0  0
   31.2900   28.9180   34.4700 N   0  0  0  0  0  0  0  0  0  0  0  0
   31.6700   28.7310   33.1980 C   0  0  0  0  0  3  0  0  0  0  0  0
   32.9360   29.0210   32.8330 N   0  0  0  0  0  0  0  0  0  0  0  0
  1  7  1  0  0  0  0
  2 10  1  0  0  0  0
  2  1  2  0  0  0  0
  3  2  1  0  0  0  0
  4  3  2  0  0  0  0
  4  5  1  0  0  0  0
  5  6  2  0  0  0  0
  6  1  1  0  0  0  0
  8  3  1  0  0  0  0
  9 17  2  0  0  0  0
  9 10  1  0  0  0  0
 10 11  2  0  0  0  0
 11 19  1  0  0  0  0
 11 12  1  0  0  0  0
 12 13  1  0  0  0  0
 13 14  1  0  0  0  0
 13 20  1  0  0  0  0
 14 21  1  0  0  0  0
 15 14  2  0  0  0  0
 16 12  2  0  0  0  0
 16 15  1  0  0  0  0
 17 16  1  0  0  0  0
 18  9  1  0  0  0  0
 22 17  1  0  0  0  0
 23 24  1  0  0  0  0
 23  5  1  0  0  0  0
 23 26  1  0  0  0  0
 25 23  1  0  0  0  0
 26 27  1  0  0  0  0
 27 28  2  0  0  0  0
 28 29  1  0  0  0  0
 30 28  1  0  0  0  0
 31 30  2  0  0  0  0
 32 31  1  0  0  0  0
 32 26  2  0  0  0  0
M  END
>  <minimizedAffinity>
-5.26487732

$$$$

 OpenBabel03272501453D

 32 35  0  0  0  0  0  0  0  0999 V2000
   35.6300   29.2270   32.5770 C   0  0  0  0  0  0  0  0  0  0  0  0
   35.8410   29.0740   33.9790 C   0  0  0  0  0  0  0  0  0  0  0  0
   36.6880   28.0560   34.3800 C   0  0  0  0  0  0  0  0  0  0  0  0
   37.2650   27.2690   33.4280 N   0  0  0  0  0  0  0  0  0  0  0  0
   37.0490   27.4350   32.1160 C   0  0  0  0  0  0  0  0  0  0  0  0
   36.2320   28.4140   31.7050 N   0  0  0  0  0  0  0  0  0  0  0  0
   35.0040   29.9580   32.0700 H   0  0  0  0  0  0  0  0  0  0  0  0
   36.8260   27.9680   35.4410 H   0  0  0  0  0  0  0  0  0  0  0  0
   35.8970   30.9160   35.5550 C   0  0  0  0  0  0  0  0  0  0  0  0
   35.1290   30.0260   34.8010 C   0  0  0  0  0  0  0  0  0  0  0  0
   33.7440   30.1110   34.8850 C   0  0  0  0  0  0  0  0  0  0  0  0
   33.1990   31.0910   35.7270 C   0  0  0  0  0  0  0  0  0  0  0  0
   31.9280   31.4110   36.0100 N   0  0  0  0  0  0  0  0  0  0  0  0
   31.8910   32.4190   36.8720 C   0  0  0  0  0  0  0  0  0  0  0  0
   33.1610   32.7700   37.1610 N   0  0  0  0  0  0  0  0  0  0  0  0
   33.9620   31.9550   36.4580 C   0  0  0  0  0  0  0  0  0  0  0  0
   35.3310   31.8710   36.3750 C   0  0  0  0  0  0  0  0  0  0  0  0
   36.9940   30.9580   35.5830 H   0  0  0  0  0  0  0  0  0  0  0  0
   33.1540   29.4330   34.3100 H   0  0  0  0  0  0  0  0  0  0  0  0
   31.0620   30.9460   35.6210 H   0  0  0  0  0  0  0  0  0  0  0  0
   31.0440   32.9330   37.3170 H   0  0  0  0  0  0  0  0  0  0  0  0
   35.9040   32.5710   36.9680 H   0  0  0  0  0  0  0  0  0  0  0  0
   37.7200   26.5350   31.1380 C   0  0  0  0  0  0  0  0  0  0  0  0
   37.4740   26.8700   30.1100 H   0  0  0  0  0  0  0  0  0  0  0  0
   38.8100   26.5280   31.2170 H   0  0  0  0  0  0  0  0  0  0  0  0
   37.1280   25.1790   31.3580 C   0  0  0  0  0  0  0  0  0  0  0  0
   35.8350   24.8000   31.1120 C   0  0  0  0  0  3  0  0  0  0  0  0
   35.5080   23.4880   31.3920 C   0  0  0  0  0  0  0  0  0  0  0  0
   34.4970   23.1750   31.2040 H   0  0  0  0  0  0  0  0  0  0  0  0
   36.4000   22.6050   31.8870 N   0  0  0  0  0  0  0  0  0  0  0  0
   37.6580   23.0070   32.1180 C   0  0  0  0  0  3  0  0  0  0  0  0
   38.0080   24.2830   31.8530 N   0  0  0  0  0  0  0  0  0  0  0  0
  1  2  1  0  0  0  0
  2  3  2  0  0  0  0
  2 10  1  0  0  0  0
  3  8  1  0  0  0  0
  4  3  1  0  0  0  0
  5  4  2  0  0  0  0
  6  5  1  0  0  0  0
  6  1  2  0  0  0  0
  7  1  1  0  0  0  0
  9 18  1  0  0  0  0
  9 17  1  0  0  0  0
 10 11  1  0  0  0  0
 10  9  2  0  0  0  0
 11 12  2  0  0  0  0
 12 13  1  0  0  0  0
 12 16  1  0  0  0  0
 13 14  1  0  0  0  0
 14 15  2  0  0  0  0
 14 21  1  0  0  0  0
 16 15  1  0  0  0  0
 17 16  2  0  0  0  0
 17 22  1  0  0  0  0
 19 11  1  0  0  0  0
 20 13  1  0  0  0  0
 23 25  1  0  0  0  0
 23 26  1  0  0  0  0
 23  5  1  0  0  0  0
 24 23  1  0  0  0  0
 26 32  1  0  0  0  0
 27 26  2  0  0  0  0
 27 28  1  0  0  0  0
 28 30  2  0  0  0  0
 29 28  1  0  0  0  0
 30 31  1  0  0  0  0
 32 31  2  0  0  0  0
M  END
>  <minimizedAffinity>
-5.26026201

$$$$

 OpenBabel03272501453D

 32 35  0  0  0  0  0  0  0  0999 V2000
   37.4940   24.5180   31.3220 C   0  0  0  0  0  0  0  0  0  0  0  0
   36.2160   23.8840   31.3290 C   0  0  0  0  0  0  0  0  0  0  0  0
   35.1090   24.6980   31.1720 C   0  0  0  0  0  0  0  0  0  0  0  0
   35.2970   26.0400   31.0210 N   0  0  0  0  0  0  0  0  0  0  0  0
   36.5100   26.6110   31.0180 C   0  0  0  0  0  0  0  0  0  0  0  0
   37.5960   25.8410   31.1680 N   0  0  0  0  0  0  0  0  0  0  0  0
   38.4720   24.0550   31.4320 H   0  0  0  0  0  0  0  0  0  0  0  0
   34.1630   24.1900   31.1820 H   0  0  0  0  0  0  0  0  0  0  0  0
   37.4770   21.8140   31.2460 C   0  0  0  0  0  0  0  0  0  0  0  0
   36.2600   22.4490   31.4980 C   0  0  0  0  0  0  0  0  0  0  0  0
   35.1770   21.6710   31.8920 C   0  0  0  0  0  0  0  0  0  0  0  0
   35.3740   20.2890   32.0130 C   0  0  0  0  0  0  0  0  0  0  0  0
   34.5410   19.3000   32.3670 N   0  0  0  0  0  0  0  0  0  0  0  0
   35.1740   18.1350   32.3410 C   0  0  0  0  0  0  0  0  0  0  0  0
   36.4500   18.3610   31.9650 N   0  0  0  0  0  0  0  0  0  0  0  0
   36.5710   19.6810   31.7640 C   0  0  0  0  0  0  0  0  0  0  0  0
   37.6420   20.4500   31.3740 C   0  0  0  0  0  0  0  0  0  0  0  0
   38.4080   22.3060   30.9280 H   0  0  0  0  0  0  0  0  0  0  0  0
   34.2440   22.1530   32.0850 H   0  0  0  0  0  0  0  0  0  0  0  0
   33.5220   19.4020   32.6310 H   0  0  0  0  0  0  0  0  0  0  0  0
   34.8170   17.1340   32.5660 H   0  0  0  0  0  0  0  0  0  0  0  0
   38.5740   19.9360   31.1850 H   0  0  0  0  0  0  0  0  0  0  0  0
   36.6320   28.0840   30.8440 C   0  0  0  0  0  0  0  0  0  0  0  0
   37.7060   28.3600   30.8380 H   0  0  0  0  0  0  0  0  0  0  0  0
   36.2030   28.4580   29.9110 H   0  0  0  0  0  0  0  0  0  0  0  0
   35.9840   28.6920   32.0480 C   0  0  0  0  0  0  0  0  0  0  0  0
   36.2730   28.4200   33.3590 C   0  0  0  0  0  3  0  0  0  0  0  0
   35.5430   29.1040   34.3100 C   0  0  0  0  0  0  0  0  0  0  0  0
   35.7580   28.9020   35.3430 H   0  0  0  0  0  0  0  0  0  0  0  0
   34.5870   30.0010   33.9890 N   0  0  0  0  0  0  0  0  0  0  0  0
   34.3270   30.2440   32.6970 C   0  0  0  0  0  3  0  0  0  0  0  0
   35.0250   29.5920   31.7440 N   0  0  0  0  0  0  0  0  0  0  0  0
  1  2  1  0  0  0  0
  1  7  1  0  0  0  0
  2 10  1  0  0  0  0
  3  8  1  0  0  0  0
  3  2  2  0  0  0  0
  4  3  1  0  0  0  0
  5  4  2  0  0  0  0
  5  6  1  0  0  0  0
  6  1  2  0  0  0  0
  9 17  2  0  0  0  0
  9 10  1  0  0  0  0
 10 11  2  0  0  0  0
 11 12  1  0  0  0  0
 11 19  1  0  0  0  0
 12 13  1  0  0  0  0
 13 20  1  0  0  0  0
 14 13  1  0  0  0  0
 14 21  1  0  0  0  0
 15 14  2  0  0  0  0
 16 15  1  0  0  0  0
 16 12  2  0  0  0  0
 17 16  1  0  0  0  0
 18  9  1  0  0  0  0
 22 17  1  0  0  0  0
 23  5  1  0  0  0  0
 23 26  1  0  0  0  0
 24 23  1  0  0  0  0
 25 23  1  0  0  0  0
 26 27  1  0  0  0  0
 27 28  2  0  0  0  0
 28 29  1  0  0  0  0
 30 28  1  0  0  0  0
 31 30  2  0  0  0  0
 32 26  2  0  0  0  0
 32 31  1  0  0  0  0
M  END
>  <minimizedAffinity>
-5.20181847

$$$$

 OpenBabel03272501453D

 32 35  0  0  0  0  0  0  0  0999 V2000
   38.1150   27.0930   34.1270 C   0  0  0  0  0  0  0  0  0  0  0  0
   37.0610   27.0500   33.1680 C   0  0  0  0  0  0  0  0  0  0  0  0
   36.7620   25.8170   32.6160 C   0  0  0  0  0  0  0  0  0  0  0  0
   37.4810   24.7290   33.0130 N   0  0  0  0  0  0  0  0  0  0  0  0
   38.4680   24.7960   33.9170 C   0  0  0  0  0  0  0  0  0  0  0  0
   38.7740   25.9800   34.4650 N   0  0  0  0  0  0  0  0  0  0  0  0
   38.4960   27.9570   34.6660 H   0  0  0  0  0  0  0  0  0  0  0  0
   35.9640   25.8190   31.8980 H   0  0  0  0  0  0  0  0  0  0  0  0
   35.9460   29.0340   34.0060 C   0  0  0  0  0  0  0  0  0  0  0  0
   36.4360   28.3270   32.9060 C   0  0  0  0  0  0  0  0  0  0  0  0
   36.2930   28.8870   31.6420 C   0  0  0  0  0  0  0  0  0  0  0  0
   35.6640   30.1370   31.5480 C   0  0  0  0  0  0  0  0  0  0  0  0
   35.3880   30.9150   30.4910 N   0  0  0  0  0  0  0  0  0  0  0  0
   34.7750   32.0230   30.8860 C   0  0  0  0  0  0  0  0  0  0  0  0
   34.6460   31.9740   32.2280 N   0  0  0  0  0  0  0  0  0  0  0  0
   35.1910   30.8180   32.6320 C   0  0  0  0  0  0  0  0  0  0  0  0
   35.3310   30.2630   33.8820 C   0  0  0  0  0  0  0  0  0  0  0  0
   35.9910   28.7080   35.0550 H   0  0  0  0  0  0  0  0  0  0  0  0
   36.6660   28.3500   30.7990 H   0  0  0  0  0  0  0  0  0  0  0  0
   35.6120   30.7030   29.4800 H   0  0  0  0  0  0  0  0  0  0  0  0
   34.4090   32.8670   30.3100 H   0  0  0  0  0  0  0  0  0  0  0  0
   34.9450   30.8300   34.7180 H   0  0  0  0  0  0  0  0  0  0  0  0
   39.2050   23.5610   34.3010 C   0  0  0  0  0  0  0  0  0  0  0  0
   38.7420   22.6910   33.7920 H   0  0  0  0  0  0  0  0  0  0  0  0
   40.2600   23.5690   34.0190 H   0  0  0  0  0  0  0  0  0  0  0  0
   39.0150   23.4150   35.7780 C   0  0  0  0  0  0  0  0  0  0  0  0
   37.8540   23.6130   36.4780 C   0  0  0  0  0  3  0  0  0  0  0  0
   37.9120   23.4190   37.8440 C   0  0  0  0  0  0  0  0  0  0  0  0
   37.0090   23.5700   38.4070 H   0  0  0  0  0  0  0  0  0  0  0  0
   39.0450   23.0560   38.4800 N   0  0  0  0  0  0  0  0  0  0  0  0
   40.1650   22.8710   37.7670 C   0  0  0  0  0  3  0  0  0  0  0  0
   40.1390   23.0510   36.4300 N   0  0  0  0  0  0  0  0  0  0  0  0
  1  6  1  0  0  0  0
  1  7  1  0  0  0  0
  2  1  2  0  0  0  0
  3  4  2  0  0  0  0
  3  2  1  0  0  0  0
  4  5  1  0  0  0  0
  5 23  1  0  0  0  0
  5  6  2  0  0  0  0
  8  3  1  0  0  0  0
  9 18  1  0  0  0  0
 10  2  1  0  0  0  0
 10  9  2  0  0  0  0
 11 10  1  0  0  0  0
 12 11  2  0  0  0  0
 12 16  1  0  0  0  0
 13 14  1  0  0  0  0
 13 12  1  0  0  0  0
 14 15  2  0  0  0  0
 15 16  1  0  0  0  0
 16 17  2  0  0  0  0
 17  9  1  0  0  0  0
 17 22  1  0  0  0  0
 19 11  1  0  0  0  0
 20 13  1  0  0  0  0
 21 14  1  0  0  0  0
 23 26  1  0  0  0  0
 24 23  1  0  0  0  0
 25 23  1  0  0  0  0
 26 32  2  0  0  0  0
 26 27  1  0  0  0  0
 27 28  2  0  0  0  0
 28 29  1  0  0  0  0
 28 30  1  0  0  0  0
 31 30  2  0  0  0  0
 32 31  1  0  0  0  0
M  END
>  <minimizedAffinity>
-5.16009426

$$$$

 OpenBabel03272501453D

 32 35  0  0  0  0  0  0  0  0999 V2000
   38.3070   24.8160   34.5070 C   0  0  0  0  0  0  0  0  0  0  0  0
   39.5160   25.2650   35.1160 C   0  0  0  0  0  0  0  0  0  0  0  0
   39.6970   26.6330   35.2220 C   0  0  0  0  0  0  0  0  0  0  0  0
   38.7260   27.4620   34.7470 N   0  0  0  0  0  0  0  0  0  0  0  0
   37.5970   27.0140   34.1780 C   0  0  0  0  0  0  0  0  0  0  0  0
   37.4010   25.6930   34.0650 N   0  0  0  0  0  0  0  0  0  0  0  0
   37.9860   23.7920   34.3320 H   0  0  0  0  0  0  0  0  0  0  0  0
   40.6170   26.9380   35.6850 H   0  0  0  0  0  0  0  0  0  0  0  0
   41.6400   24.1110   34.9180 C   0  0  0  0  0  0  0  0  0  0  0  0
   40.3990   24.2060   35.5500 C   0  0  0  0  0  0  0  0  0  0  0  0
   40.0920   23.2860   36.5470 C   0  0  0  0  0  0  0  0  0  0  0  0
   41.0530   22.3150   36.8590 C   0  0  0  0  0  0  0  0  0  0  0  0
   41.0490   21.3160   37.7540 N   0  0  0  0  0  0  0  0  0  0  0  0
   42.1900   20.6430   37.6950 C   0  0  0  0  0  0  0  0  0  0  0  0
   42.9610   21.2100   36.7440 N   0  0  0  0  0  0  0  0  0  0  0  0
   42.2630   22.2350   36.2330 C   0  0  0  0  0  0  0  0  0  0  0  0
   42.5670   23.1430   35.2470 C   0  0  0  0  0  0  0  0  0  0  0  0
   42.0080   24.7670   34.1170 H   0  0  0  0  0  0  0  0  0  0  0  0
   39.1440   23.3560   37.0320 H   0  0  0  0  0  0  0  0  0  0  0  0
   40.2650   21.0750   38.4210 H   0  0  0  0  0  0  0  0  0  0  0  0
   42.5300   19.7840   38.2660 H   0  0  0  0  0  0  0  0  0  0  0  0
   43.5340   23.0490   34.7720 H   0  0  0  0  0  0  0  0  0  0  0  0
   36.5820   27.9850   33.6870 C   0  0  0  0  0  0  0  0  0  0  0  0
   35.5770   27.5200   33.7500 H   0  0  0  0  0  0  0  0  0  0  0  0
   36.5400   28.9120   34.2630 H   0  0  0  0  0  0  0  0  0  0  0  0
   36.9120   28.2270   32.2480 C   0  0  0  0  0  0  0  0  0  0  0  0
   37.7890   27.5100   31.4770 C   0  0  0  0  0  3  0  0  0  0  0  0
   37.9370   27.9160   30.1650 C   0  0  0  0  0  0  0  0  0  0  0  0
   38.6220   27.3630   29.5480 H   0  0  0  0  0  0  0  0  0  0  0  0
   37.2650   28.9640   29.6470 N   0  0  0  0  0  0  0  0  0  0  0  0
   36.4150   29.6460   30.4270 C   0  0  0  0  0  3  0  0  0  0  0  0
   36.2470   29.2720   31.7130 N   0  0  0  0  0  0  0  0  0  0  0  0
  1  2  1  0  0  0  0
  2  3  2  0  0  0  0
  2 10  1  0  0  0  0
  3  8  1  0  0  0  0
  4  3  1  0  0  0  0
  5  4  2  0  0  0  0
  6  5  1  0  0  0  0
  6  1  2  0  0  0  0
  7  1  1  0  0  0  0
  9 17  2  0  0  0  0
  9 10  1  0  0  0  0
 10 11  2  0  0  0  0
 11 12  1  0  0  0  0
 11 19  1  0  0  0  0
 12 13  1  0  0  0  0
 13 20  1  0  0  0  0
 14 13  1  0  0  0  0
 14 21  1  0  0  0  0
 15 14  2  0  0  0  0
 16 15  1  0  0  0  0
 16 12  2  0  0  0  0
 17 16  1  0  0  0  0
 18  9  1  0  0  0  0
 22 17  1  0  0  0  0
 23 24  1  0  0  0  0
 23  5  1  0  0  0  0
 23 25  1  0  0  0  0
 26 23  1  0  0  0  0
 27 26  2  0  0  0  0
 28 27  1  0  0  0  0
 29 28  1  0  0  0  0
 30 28  2  0  0  0  0
 30 31  1  0  0  0  0
 31 32  2  0  0  0  0
 32 26  1  0  0  0  0
M  END
>  <minimizedAffinity>
-5.13701344

$$$$

 OpenBabel03272501453D

 32 35  0  0  0  0  0  0  0  0999 V2000
   37.4440   25.9630   33.1040 C   0  0  0  0  0  0  0  0  0  0  0  0
   37.8970   26.2890   34.4160 C   0  0  0  0  0  0  0  0  0  0  0  0
   37.4040   27.4520   34.9810 C   0  0  0  0  0  0  0  0  0  0  0  0
   36.5280   28.2100   34.2640 N   0  0  0  0  0  0  0  0  0  0  0  0
   36.1170   27.8800   33.0310 C   0  0  0  0  0  0  0  0  0  0  0  0
   36.5810   26.7580   32.4650 N   0  0  0  0  0  0  0  0  0  0  0  0
   37.7140   25.1020   32.4970 H   0  0  0  0  0  0  0  0  0  0  0  0
   37.7650   27.6690   35.9690 H   0  0  0  0  0  0  0  0  0  0  0  0
   40.1310   25.3490   34.4990 C   0  0  0  0  0  0  0  0  0  0  0  0
   38.8220   25.3360   34.9860 C   0  0  0  0  0  0  0  0  0  0  0  0
   38.4940   24.4180   35.9770 C   0  0  0  0  0  0  0  0  0  0  0  0
   39.5030   23.5570   36.4310 C   0  0  0  0  0  0  0  0  0  0  0  0
   39.4930   22.5870   37.3580 N   0  0  0  0  0  0  0  0  0  0  0  0
   40.6930   22.0310   37.4520 C   0  0  0  0  0  0  0  0  0  0  0  0
   41.5090   22.6460   36.5710 N   0  0  0  0  0  0  0  0  0  0  0  0
   40.7780   23.5810   35.9460 C   0  0  0  0  0  0  0  0  0  0  0  0
   41.1030   24.4870   34.9650 C   0  0  0  0  0  0  0  0  0  0  0  0
   40.5220   26.0160   33.7190 H   0  0  0  0  0  0  0  0  0  0  0  0
   37.4950   24.4050   36.3520 H   0  0  0  0  0  0  0  0  0  0  0  0
   38.6650   22.2870   37.9430 H   0  0  0  0  0  0  0  0  0  0  0  0
   41.0470   21.2260   38.0890 H   0  0  0  0  0  0  0  0  0  0  0  0
   42.1230   24.4780   34.6050 H   0  0  0  0  0  0  0  0  0  0  0  0
   35.1540   28.7600   32.3130 C   0  0  0  0  0  0  0  0  0  0  0  0
   34.5800   28.1500   31.5870 H   0  0  0  0  0  0  0  0  0  0  0  0
   34.4250   29.2450   32.9670 H   0  0  0  0  0  0  0  0  0  0  0  0
   35.9870   29.7490   31.5620 C   0  0  0  0  0  0  0  0  0  0  0  0
   36.7150   29.5120   30.4260 C   0  0  0  0  0  3  0  0  0  0  0  0
   37.4130   30.5820   29.9010 C   0  0  0  0  0  0  0  0  0  0  0  0
   37.9880   30.4110   29.0090 H   0  0  0  0  0  0  0  0  0  0  0  0
   37.3950   31.8090   30.4610 N   0  0  0  0  0  0  0  0  0  0  0  0
   36.6740   32.0080   31.5740 C   0  0  0  0  0  3  0  0  0  0  0  0
   35.9800   30.9820   32.1100 N   0  0  0  0  0  0  0  0  0  0  0  0
  1  2  1  0  0  0  0
  2  3  2  0  0  0  0
  2 10  1  0  0  0  0
  3  8  1  0  0  0  0
  4  3  1  0  0  0  0
  5  4  2  0  0  0  0
  6  5  1  0  0  0  0
  6  1  2  0  0  0  0
  7  1  1  0  0  0  0
  9 17  2  0  0  0  0
  9 10  1  0  0  0  0
 10 11  2  0  0  0  0
 11 19  1  0  0  0  0
 11 12  1  0  0  0  0
 12 13  1  0  0  0  0
 13 14  1  0  0  0  0
 13 20  1  0  0  0  0
 14 21  1  0  0  0  0
 15 14  2  0  0  0  0
 16 12  2  0  0  0  0
 16 15  1  0  0  0  0
 17 16  1  0  0  0  0
 18  9  1  0  0  0  0
 22 17  1  0  0  0  0
 23 25  1  0  0  0  0
 23  5  1  0  0  0  0
 24 23  1  0  0  0  0
 26 32  1  0  0  0  0
 26 23  1  0  0  0  0
 27 26  2  0  0  0  0
 28 27  1  0  0  0  0
 28 30  2  0  0  0  0
 29 28  1  0  0  0  0
 30 31  1  0  0  0  0
 31 32  2  0  0  0  0
M  END
>  <minimizedAffinity>
-5.11634445

$$$$

 OpenBabel03272501453D

 32 35  0  0  0  0  0  0  0  0999 V2000
   35.7180   26.7510   31.5670 C   0  0  0  0  0  0  0  0  0  0  0  0
   36.6770   27.4580   32.3500 C   0  0  0  0  0  0  0  0  0  0  0  0
   37.8890   26.8310   32.5780 C   0  0  0  0  0  0  0  0  0  0  0  0
   38.0950   25.5920   32.0510 N   0  0  0  0  0  0  0  0  0  0  0  0
   37.1760   24.9480   31.3170 C   0  0  0  0  0  0  0  0  0  0  0  0
   35.9960   25.5370   31.0840 N   0  0  0  0  0  0  0  0  0  0  0  0
   34.7180   27.0720   31.2830 H   0  0  0  0  0  0  0  0  0  0  0  0
   38.5890   27.3900   33.1710 H   0  0  0  0  0  0  0  0  0  0  0  0
   36.2330   29.7910   31.8580 C   0  0  0  0  0  0  0  0  0  0  0  0
   36.2420   28.7610   32.8000 C   0  0  0  0  0  0  0  0  0  0  0  0
   35.8350   29.0490   34.0980 C   0  0  0  0  0  0  0  0  0  0  0  0
   35.4370   30.3630   34.3830 C   0  0  0  0  0  0  0  0  0  0  0  0
   35.0020   30.9330   35.5160 N   0  0  0  0  0  0  0  0  0  0  0  0
   34.7400   32.2170   35.3110 C   0  0  0  0  0  0  0  0  0  0  0  0
   35.0060   32.4970   34.0190 N   0  0  0  0  0  0  0  0  0  0  0  0
   35.4330   31.3600   33.4510 C   0  0  0  0  0  0  0  0  0  0  0  0
   35.8370   31.0760   32.1680 C   0  0  0  0  0  0  0  0  0  0  0  0
   36.5300   29.7040   30.8030 H   0  0  0  0  0  0  0  0  0  0  0  0
   35.8400   28.2640   34.8220 H   0  0  0  0  0  0  0  0  0  0  0  0
   34.8780   30.4560   36.4510 H   0  0  0  0  0  0  0  0  0  0  0  0
   34.3750   32.9780   35.9950 H   0  0  0  0  0  0  0  0  0  0  0  0
   35.8210   31.8900   31.4560 H   0  0  0  0  0  0  0  0  0  0  0  0
   37.4800   23.5960   30.7730 C   0  0  0  0  0  0  0  0  0  0  0  0
   37.0680   23.5190   29.7460 H   0  0  0  0  0  0  0  0  0  0  0  0
   38.5480   23.3760   30.7030 H   0  0  0  0  0  0  0  0  0  0  0  0
   36.7590   22.6290   31.6570 C   0  0  0  0  0  0  0  0  0  0  0  0
   35.5610   22.0170   31.3970 C   0  0  0  0  0  3  0  0  0  0  0  0
   35.0810   21.1560   32.3640 C   0  0  0  0  0  0  0  0  0  0  0  0
   34.1420   20.6680   32.1730 H   0  0  0  0  0  0  0  0  0  0  0  0
   35.7400   20.9130   33.5150 N   0  0  0  0  0  0  0  0  0  0  0  0
   36.9100   21.5290   33.7410 C   0  0  0  0  0  3  0  0  0  0  0  0
   37.4050   22.3750   32.8140 N   0  0  0  0  0  0  0  0  0  0  0  0
  1  2  1  0  0  0  0
  2  3  2  0  0  0  0
  2 10  1  0  0  0  0
  3  8  1  0  0  0  0
  4  3  1  0  0  0  0
  5  4  2  0  0  0  0
  6  5  1  0  0  0  0
  6  1  2  0  0  0  0
  7  1  1  0  0  0  0
  9 17  2  0  0  0  0
  9 10  1  0  0  0  0
 10 11  2  0  0  0  0
 11 12  1  0  0  0  0
 11 19  1  0  0  0  0
 12 13  1  0  0  0  0
 13 20  1  0  0  0  0
 14 13  1  0  0  0  0
 14 21  1  0  0  0  0
 15 14  2  0  0  0  0
 16 15  1  0  0  0  0
 16 12  2  0  0  0  0
 17 16  1  0  0  0  0
 18  9  1  0  0  0  0
 22 17  1  0  0  0  0
 23  5  1  0  0  0  0
 23 26  1  0  0  0  0
 24 23  1  0  0  0  0
 25 23  1  0  0  0  0
 26 32  1  0  0  0  0
 27 26  2  0  0  0  0
 27 28  1  0  0  0  0
 28 30  2  0  0  0  0
 29 28  1  0  0  0  0
 30 31  1  0  0  0  0
 32 31  2  0  0  0  0
M  END
>  <minimizedAffinity>
-5.09391642

$$$$
