
 OpenBabel03272509473D

 23 24  0  0  0  0  0  0  0  0999 V2000
   34.0880   28.4680   48.5780 C   0  0  0  0  0  0  0  0  0  0  0  0
   34.6210   29.1660   47.9210 H   0  0  0  0  0  0  0  0  0  0  0  0
   33.1080   28.9260   48.8270 H   0  0  0  0  0  0  0  0  0  0  0  0
   33.8280   27.1290   47.9500 C   0  0  0  0  0  0  0  0  0  0  0  0
   33.2460   26.5090   48.6300 H   0  0  0  0  0  0  0  0  0  0  0  0
   34.8060   26.6260   47.7190 H   0  0  0  0  0  0  0  0  0  0  0  0
   33.1400   27.2410   46.6360 C   0  0  0  0  0  0  0  0  0  0  0  0
   33.7540   26.6380   45.5580 C   0  0  0  0  0  3  0  0  0  0  0  0
   33.2100   26.6760   44.2920 C   0  0  0  0  0  0  0  0  0  0  0  0
   33.6370   26.2260   43.4030 H   0  0  0  0  0  0  0  0  0  0  0  0
   32.0530   27.3160   44.1010 N   0  0  0  0  0  0  0  0  0  0  0  0
   31.4540   27.9070   45.1640 C   0  0  0  0  0  3  0  0  0  0  0  0
   31.9680   27.8810   46.4050 N   0  0  0  0  0  0  0  0  0  0  0  0
   34.7430   28.3010   49.8290 O   0  0  0  0  0  0  0  0  0  0  0  0
   37.3630   30.2480   51.4130 C   0  0  0  0  0  0  0  0  0  0  0  0
   38.0630   30.6750   50.2680 C   0  0  0  0  0  0  0  0  0  0  0  0
   37.5930   30.2700   49.0240 C   0  0  0  0  0  0  0  0  0  0  0  0
   36.4760   29.4780   48.9980 N   0  0  0  0  0  0  0  0  0  0  0  0
   35.8320   29.0880   50.1050 C   0  0  0  0  0  0  0  0  0  0  0  0
   36.2810   29.4770   51.3200 N   0  0  0  0  0  0  0  0  0  0  0  0
   37.6740   30.5270   52.4160 H   0  0  0  0  0  0  0  0  0  0  0  0
   38.9390   31.3020   50.3820 H   0  0  0  0  0  0  0  0  0  0  0  0
   38.1040   30.5770   48.1180 H   0  0  0  0  0  0  0  0  0  0  0  0
  1  3  1  0  0  0  0
  1 14  1  0  0  0  0
  2  1  1  0  0  0  0
  4  1  1  0  0  0  0
  4  5  1  0  0  0  0
  6  4  1  0  0  0  0
  7  4  1  0  0  0  0
  8  7  2  0  0  0  0
  9  8  1  0  0  0  0
 10  9  1  0  0  0  0
 11  9  2  0  0  0  0
 11 12  1  0  0  0  0
 12 13  2  0  0  0  0
 13  7  1  0  0  0  0
 14 19  1  0  0  0  0
 15 21  1  0  0  0  0
 16 22  1  0  0  0  0
 16 15  2  0  0  0  0
 17 16  1  0  0  0  0
 18 17  2  0  0  0  0
 18 19  1  0  0  0  0
 19 20  2  0  0  0  0
 20 15  1  0  0  0  0
 23 17  1  0  0  0  0
M  END
>  <minimizedAffinity>
-3.68000627

>  <minimizedRMSD>
0.381291181

$$$$
