
 OpenBabel03272505433D

 22 23  0  0  0  0  0  0  0  0999 V2000
   32.4110   27.9690   49.0500 O   0  0  0  0  0  0  0  0  0  0  0  0
   33.7930   28.2900   48.5220 P   0  0  2  0  0  0  0  0  0  0  0  0
   34.0920   27.1800   47.2720 O   0  0  0  0  0  0  0  0  0  0  0  0
   34.1320   26.2540   47.6550 H   0  0  0  0  0  0  0  0  0  0  0  0
   34.9150   28.1120   49.7850 O   0  0  0  0  0  0  0  0  0  0  0  0
   37.3250   30.3290   51.3980 C   0  0  0  0  0  0  0  0  0  0  0  0
   38.0360   30.7760   50.2380 C   0  0  0  0  0  0  0  0  0  0  0  0
   37.6340   30.2800   48.9920 C   0  0  0  0  0  0  0  0  0  0  0  0
   36.5950   29.4080   48.9510 N   0  0  0  0  0  0  0  0  0  0  0  0
   35.9440   29.0060   50.0610 C   0  0  0  0  0  0  0  0  0  0  0  0
   36.3080   29.4650   51.2770 N   0  0  0  0  0  0  0  0  0  0  0  0
   37.6140   30.6950   52.3760 H   0  0  0  0  0  0  0  0  0  0  0  0
   38.8600   31.4770   50.3540 H   0  0  0  0  0  0  0  0  0  0  0  0
   38.1600   30.6060   48.0970 H   0  0  0  0  0  0  0  0  0  0  0  0
   33.7550   29.8300   47.8800 O   0  0  0  0  0  0  0  0  0  0  0  0
   33.6030   30.1740   46.5510 C   0  0  0  0  0  0  0  0  0  0  0  0
   32.5420   30.7350   45.8700 C   0  0  0  0  0  3  0  0  0  0  0  0
   32.6550   30.9780   44.5200 C   0  0  0  0  0  0  0  0  0  0  0  0
   31.7680   31.4220   44.0700 H   0  0  0  0  0  0  0  0  0  0  0  0
   33.7840   30.6710   43.8950 N   0  0  0  0  0  0  0  0  0  0  0  0
   34.8300   30.1270   44.5230 C   0  0  0  0  0  3  0  0  0  0  0  0
   34.7350   29.8810   45.8470 N   0  0  0  0  0  0  0  0  0  0  0  0
  2  1  2  1  0  0  0
  2  5  1  0  0  0  0
  3  4  1  0  0  0  0
  3  2  1  0  0  0  0
  5 10  1  0  0  0  0
  6 12  1  0  0  0  0
  7 13  1  0  0  0  0
  7  6  2  0  0  0  0
  8  7  1  0  0  0  0
  9  8  2  0  0  0  0
  9 10  1  0  0  0  0
 10 11  2  0  0  0  0
 11  6  1  0  0  0  0
 14  8  1  0  0  0  0
 15  2  1  0  0  0  0
 16 15  1  0  0  0  0
 17 16  1  0  0  0  0
 18 17  2  0  0  0  0
 19 18  1  0  0  0  0
 20 18  1  0  0  0  0
 20 21  2  0  0  0  0
 21 22  1  0  0  0  0
 22 16  2  0  0  0  0
M  END
>  <minimizedAffinity>
-4.32088518

>  <minimizedRMSD>
0.780615032

$$$$
