
 OpenBabel03272508253D

 23 25  0  0  1  0  0  0  0  0999 V2000
   38.4110   25.6910   35.0310 C   0  0  1  0  0  0  0  0  0  0  0  0
   37.5400   26.8490   35.1970 C   0  0  1  0  0  0  0  0  0  0  0  0
   39.0330   27.0610   35.2540 C   0  0  0  0  0  0  0  0  0  0  0  0
   38.5920   25.2380   34.0390 H   0  0  0  0  0  0  0  0  0  0  0  0
   36.9990   26.9140   36.1730 H   0  0  0  0  0  0  0  0  0  0  0  0
   39.5300   27.5030   34.3760 H   0  0  0  0  0  0  0  0  0  0  0  0
   39.5270   27.2480   36.2060 H   0  0  0  0  0  0  0  0  0  0  0  0
   38.6490   24.7540   36.1880 C   0  0  0  0  0  0  0  0  0  0  0  0
   39.6550   23.7640   35.9980 C   0  0  0  0  0  0  0  0  0  0  0  0
   39.8530   22.9050   37.0650 C   0  0  0  0  0  0  0  0  0  0  0  0
   39.1130   23.0370   38.1950 N   0  0  0  0  0  0  0  0  0  0  0  0
   38.1590   23.9970   38.3370 C   0  0  0  0  0  0  0  0  0  0  0  0
   37.9310   24.8550   37.3290 N   0  0  0  0  0  0  0  0  0  0  0  0
   40.1820   23.7530   35.0590 H   0  0  0  0  0  0  0  0  0  0  0  0
   40.6080   22.1690   36.9130 H   0  0  0  0  0  0  0  0  0  0  0  0
   37.6090   24.0420   39.2630 H   0  0  0  0  0  0  0  0  0  0  0  0
   36.8080   27.4730   34.0960 C   0  0  0  0  0  0  0  0  0  0  0  0
   36.1310   28.6410   34.3720 C   0  0  0  0  0  3  0  0  0  0  0  0
   35.4340   29.2390   33.3330 C   0  0  0  0  0  0  0  0  0  0  0  0
   34.8800   30.1670   33.4920 H   0  0  0  0  0  0  0  0  0  0  0  0
   35.3780   28.7500   32.0710 N   0  0  0  0  0  0  0  0  0  0  0  0
   36.0600   27.5940   31.8420 C   0  0  0  0  0  3  0  0  0  0  0  0
   36.7360   27.0020   32.8240 N   0  0  0  0  0  0  0  0  0  0  0  0
  1  4  1  6  0  0  0
  1  2  1  0  0  0  0
  1  3  1  0  0  0  0
  1  8  1  0  0  0  0
  2  3  1  0  0  0  0
  2  5  1  1  0  0  0
  3  7  1  0  0  0  0
  6  3  1  0  0  0  0
  8 13  1  0  0  0  0
  9  8  2  0  0  0  0
  9 10  1  0  0  0  0
 10 11  2  0  0  0  0
 11 12  1  0  0  0  0
 12 16  1  0  0  0  0
 13 12  2  0  0  0  0
 14  9  1  0  0  0  0
 15 10  1  0  0  0  0
 17 18  1  0  0  0  0
 17  2  1  0  0  0  0
 19 20  1  0  0  0  0
 19 18  2  0  0  0  0
 21 19  1  0  0  0  0
 22 21  2  0  0  0  0
 22 23  1  0  0  0  0
 23 17  2  0  0  0  0
M  END
>  <minimizedAffinity>
-4.59515476

$$$$

 OpenBabel03272508253D

 23 25  0  0  1  0  0  0  0  0999 V2000
   38.4590   25.7780   35.1140 C   0  0  1  0  0  0  0  0  0  0  0  0
   37.6980   27.0040   35.3220 C   0  0  1  0  0  0  0  0  0  0  0  0
   39.2050   27.0840   35.3420 C   0  0  0  0  0  0  0  0  0  0  0  0
   38.5730   25.3290   34.1090 H   0  0  0  0  0  0  0  0  0  0  0  0
   37.1900   27.0990   36.3150 H   0  0  0  0  0  0  0  0  0  0  0  0
   39.7160   27.4970   34.4570 H   0  0  0  0  0  0  0  0  0  0  0  0
   39.7380   27.2090   36.2830 H   0  0  0  0  0  0  0  0  0  0  0  0
   38.6440   24.8020   36.2480 C   0  0  0  0  0  0  0  0  0  0  0  0
   39.6050   23.7720   36.0410 C   0  0  0  0  0  0  0  0  0  0  0  0
   39.7540   22.8790   37.0870 C   0  0  0  0  0  0  0  0  0  0  0  0
   39.0110   23.0160   38.2140 N   0  0  0  0  0  0  0  0  0  0  0  0
   38.1010   24.0150   38.3740 C   0  0  0  0  0  0  0  0  0  0  0  0
   37.9210   24.9080   37.3860 N   0  0  0  0  0  0  0  0  0  0  0  0
   40.1380   23.7600   35.1060 H   0  0  0  0  0  0  0  0  0  0  0  0
   40.4750   22.1130   36.9230 H   0  0  0  0  0  0  0  0  0  0  0  0
   37.5460   24.0630   39.2960 H   0  0  0  0  0  0  0  0  0  0  0  0
   36.9950   27.7110   34.2520 C   0  0  0  0  0  0  0  0  0  0  0  0
   37.3960   27.4550   32.9590 C   0  0  0  0  0  3  0  0  0  0  0  0
   36.7330   28.1210   31.9390 C   0  0  0  0  0  0  0  0  0  0  0  0
   37.0060   27.9580   30.8940 H   0  0  0  0  0  0  0  0  0  0  0  0
   35.7220   29.0010   32.1330 N   0  0  0  0  0  0  0  0  0  0  0  0
   35.3580   29.2250   33.4270 C   0  0  0  0  0  3  0  0  0  0  0  0
   35.9800   28.5970   34.4210 N   0  0  0  0  0  0  0  0  0  0  0  0
  1  4  1  6  0  0  0
  1  2  1  0  0  0  0
  1  3  1  0  0  0  0
  1  8  1  0  0  0  0
  2  3  1  0  0  0  0
  2  5  1  1  0  0  0
  3  7  1  0  0  0  0
  6  3  1  0  0  0  0
  8 13  1  0  0  0  0
  9  8  2  0  0  0  0
  9 10  1  0  0  0  0
 10 11  2  0  0  0  0
 11 12  1  0  0  0  0
 12 16  1  0  0  0  0
 13 12  2  0  0  0  0
 14  9  1  0  0  0  0
 15 10  1  0  0  0  0
 17 23  1  0  0  0  0
 17  2  1  0  0  0  0
 18 17  2  0  0  0  0
 19 21  2  0  0  0  0
 19 18  1  0  0  0  0
 20 19  1  0  0  0  0
 21 22  1  0  0  0  0
 22 23  2  0  0  0  0
M  END
>  <minimizedAffinity>
-4.57665014

$$$$

 OpenBabel03272508253D

 23 25  0  0  1  0  0  0  0  0999 V2000
   37.4530   26.8780   35.2550 C   0  0  1  0  0  0  0  0  0  0  0  0
   38.3680   25.7510   35.1190 C   0  0  1  0  0  0  0  0  0  0  0  0
   38.9520   27.1340   35.2610 C   0  0  0  0  0  0  0  0  0  0  0  0
   36.9270   27.0860   36.2060 H   0  0  0  0  0  0  0  0  0  0  0  0
   38.4300   25.2960   34.0980 H   0  0  0  0  0  0  0  0  0  0  0  0
   39.3790   27.4210   36.2360 H   0  0  0  0  0  0  0  0  0  0  0  0
   39.3870   27.6410   34.4010 H   0  0  0  0  0  0  0  0  0  0  0  0
   36.7750   27.4510   34.0370 C   0  0  0  0  0  0  0  0  0  0  0  0
   36.0700   28.6740   34.2270 C   0  0  0  0  0  0  0  0  0  0  0  0
   35.4440   29.1800   33.1020 C   0  0  0  0  0  0  0  0  0  0  0  0
   35.5240   28.5200   31.9200 N   0  0  0  0  0  0  0  0  0  0  0  0
   36.2070   27.3510   31.7790 C   0  0  0  0  0  0  0  0  0  0  0  0
   36.8320   26.8200   32.8430 N   0  0  0  0  0  0  0  0  0  0  0  0
   36.0750   29.1110   35.2110 H   0  0  0  0  0  0  0  0  0  0  0  0
   34.9210   30.0960   33.2550 H   0  0  0  0  0  0  0  0  0  0  0  0
   36.2270   26.8810   30.8100 H   0  0  0  0  0  0  0  0  0  0  0  0
   38.6310   24.7890   36.1880 C   0  0  0  0  0  0  0  0  0  0  0  0
   37.9040   24.9250   37.3510 C   0  0  0  0  0  3  0  0  0  0  0  0
   38.1470   24.0160   38.3700 C   0  0  0  0  0  0  0  0  0  0  0  0
   37.6010   24.0740   39.3140 H   0  0  0  0  0  0  0  0  0  0  0  0
   39.0500   23.0090   38.2940 N   0  0  0  0  0  0  0  0  0  0  0  0
   39.7470   22.9110   37.1280 C   0  0  0  0  0  3  0  0  0  0  0  0
   39.5300   23.7720   36.1370 N   0  0  0  0  0  0  0  0  0  0  0  0
  1  3  1  0  0  0  0
  1  4  1  1  0  0  0
  2  5  1  6  0  0  0
  2  1  1  0  0  0  0
  2  3  1  0  0  0  0
  2 17  1  0  0  0  0
  3  6  1  0  0  0  0
  7  3  1  0  0  0  0
  8  9  1  0  0  0  0
  8  1  1  0  0  0  0
  9 14  1  0  0  0  0
 10 15  1  0  0  0  0
 10  9  2  0  0  0  0
 11 10  1  0  0  0  0
 12 11  2  0  0  0  0
 12 13  1  0  0  0  0
 13  8  2  0  0  0  0
 16 12  1  0  0  0  0
 17 18  1  0  0  0  0
 18 19  2  0  0  0  0
 19 20  1  0  0  0  0
 21 19  1  0  0  0  0
 22 21  2  0  0  0  0
 23 17  2  0  0  0  0
 23 22  1  0  0  0  0
M  END
>  <minimizedAffinity>
-4.57507801

$$$$

 OpenBabel03272508253D

 23 25  0  0  1  0  0  0  0  0999 V2000
   38.4480   25.5770   35.0650 C   0  0  1  0  0  0  0  0  0  0  0  0
   37.7740   26.8460   35.3090 C   0  0  1  0  0  0  0  0  0  0  0  0
   39.2740   26.8510   35.1490 C   0  0  0  0  0  0  0  0  0  0  0  0
   38.4210   25.0870   34.0730 H   0  0  0  0  0  0  0  0  0  0  0  0
   37.3920   27.0020   36.3490 H   0  0  0  0  0  0  0  0  0  0  0  0
   39.6940   27.2060   34.1940 H   0  0  0  0  0  0  0  0  0  0  0  0
   39.9200   26.9840   36.0150 H   0  0  0  0  0  0  0  0  0  0  0  0
   38.7220   24.6350   36.2100 C   0  0  0  0  0  0  0  0  0  0  0  0
   37.8760   24.7660   37.3470 C   0  0  0  0  0  0  0  0  0  0  0  0
   38.1490   23.9030   38.3940 C   0  0  0  0  0  0  0  0  0  0  0  0
   39.1650   23.0090   38.2950 N   0  0  0  0  0  0  0  0  0  0  0  0
   39.9530   22.9160   37.1900 C   0  0  0  0  0  0  0  0  0  0  0  0
   39.7260   23.7330   36.1470 N   0  0  0  0  0  0  0  0  0  0  0  0
   37.0980   25.5100   37.3150 H   0  0  0  0  0  0  0  0  0  0  0  0
   37.5100   24.0080   39.2390 H   0  0  0  0  0  0  0  0  0  0  0  0
   40.7430   22.1830   37.1810 H   0  0  0  0  0  0  0  0  0  0  0  0
   36.9800   27.5480   34.3000 C   0  0  0  0  0  0  0  0  0  0  0  0
   37.0240   27.0580   33.0130 C   0  0  0  0  0  3  0  0  0  0  0  0
   36.2740   27.7180   32.0510 C   0  0  0  0  0  0  0  0  0  0  0  0
   36.2690   27.3750   31.0140 H   0  0  0  0  0  0  0  0  0  0  0  0
   35.5060   28.8060   32.2960 N   0  0  0  0  0  0  0  0  0  0  0  0
   35.4920   29.2570   33.5810 C   0  0  0  0  0  3  0  0  0  0  0  0
   36.2040   28.6400   34.5210 N   0  0  0  0  0  0  0  0  0  0  0  0
  1  4  1  6  0  0  0
  1  3  1  0  0  0  0
  1  2  1  0  0  0  0
  1  8  1  0  0  0  0
  2  5  1  1  0  0  0
  3  2  1  0  0  0  0
  3  7  1  0  0  0  0
  6  3  1  0  0  0  0
  8  9  1  0  0  0  0
  9 10  2  0  0  0  0
 10 15  1  0  0  0  0
 11 10  1  0  0  0  0
 12 11  2  0  0  0  0
 13  8  2  0  0  0  0
 13 12  1  0  0  0  0
 14  9  1  0  0  0  0
 16 12  1  0  0  0  0
 17 23  1  0  0  0  0
 17  2  1  0  0  0  0
 18 17  2  0  0  0  0
 19 21  2  0  0  0  0
 19 18  1  0  0  0  0
 20 19  1  0  0  0  0
 21 22  1  0  0  0  0
 22 23  2  0  0  0  0
M  END
>  <minimizedAffinity>
-4.54433203

$$$$

 OpenBabel03272508253D

 23 25  0  0  1  0  0  0  0  0999 V2000
   37.4590   26.7160   35.0940 C   0  0  1  0  0  0  0  0  0  0  0  0
   38.4980   25.6930   35.0740 C   0  0  1  0  0  0  0  0  0  0  0  0
   38.9110   27.1280   35.2870 C   0  0  0  0  0  0  0  0  0  0  0  0
   36.8000   26.8570   35.9700 H   0  0  0  0  0  0  0  0  0  0  0  0
   38.7350   25.2600   34.0700 H   0  0  0  0  0  0  0  0  0  0  0  0
   39.1790   27.4460   36.3070 H   0  0  0  0  0  0  0  0  0  0  0  0
   39.3930   27.6880   34.4880 H   0  0  0  0  0  0  0  0  0  0  0  0
   36.8820   27.2300   33.8000 C   0  0  0  0  0  0  0  0  0  0  0  0
   37.0230   26.3800   32.6670 C   0  0  0  0  0  0  0  0  0  0  0  0
   36.4980   26.8720   31.4840 C   0  0  0  0  0  0  0  0  0  0  0  0
   35.8990   28.0890   31.4570 N   0  0  0  0  0  0  0  0  0  0  0  0
   35.7850   28.8730   32.5630 C   0  0  0  0  0  0  0  0  0  0  0  0
   36.2790   28.4380   33.7350 N   0  0  0  0  0  0  0  0  0  0  0  0
   37.5160   25.4320   32.8040 H   0  0  0  0  0  0  0  0  0  0  0  0
   36.6070   26.2280   30.6430 H   0  0  0  0  0  0  0  0  0  0  0  0
   35.2970   29.8300   32.4680 H   0  0  0  0  0  0  0  0  0  0  0  0
   38.7260   24.7510   36.1690 C   0  0  0  0  0  0  0  0  0  0  0  0
   37.9370   24.8870   37.2910 C   0  0  0  0  0  3  0  0  0  0  0  0
   38.1470   23.9960   38.3330 C   0  0  0  0  0  0  0  0  0  0  0  0
   37.5520   24.0550   39.2470 H   0  0  0  0  0  0  0  0  0  0  0  0
   39.0720   23.0080   38.3170 N   0  0  0  0  0  0  0  0  0  0  0  0
   39.8300   22.9090   37.1900 C   0  0  0  0  0  3  0  0  0  0  0  0
   39.6460   23.7520   36.1770 N   0  0  0  0  0  0  0  0  0  0  0  0
  1  3  1  0  0  0  0
  1  4  1  1  0  0  0
  2  5  1  6  0  0  0
  2  1  1  0  0  0  0
  2  3  1  0  0  0  0
  2 17  1  0  0  0  0
  3  6  1  0  0  0  0
  7  3  1  0  0  0  0
  8  1  1  0  0  0  0
  9 14  1  0  0  0  0
  9  8  2  0  0  0  0
 10  9  1  0  0  0  0
 11 10  2  0  0  0  0
 11 12  1  0  0  0  0
 12 13  2  0  0  0  0
 13  8  1  0  0  0  0
 15 10  1  0  0  0  0
 16 12  1  0  0  0  0
 17 23  2  0  0  0  0
 17 18  1  0  0  0  0
 18 19  2  0  0  0  0
 19 20  1  0  0  0  0
 21 19  1  0  0  0  0
 22 21  2  0  0  0  0
 23 22  1  0  0  0  0
M  END
>  <minimizedAffinity>
-4.47746325

$$$$

 OpenBabel03272508253D

 23 25  0  0  1  0  0  0  0  0999 V2000
   39.3700   26.8050   34.5680 C   0  0  1  0  0  0  0  0  0  0  0  0
   37.9280   26.6450   34.7150 C   0  0  1  0  0  0  0  0  0  0  0  0
   38.6800   27.3880   35.7910 C   0  0  0  0  0  0  0  0  0  0  0  0
   39.8040   27.5410   33.8650 H   0  0  0  0  0  0  0  0  0  0  0  0
   37.5790   25.6170   34.9840 H   0  0  0  0  0  0  0  0  0  0  0  0
   38.6060   28.4880   35.8130 H   0  0  0  0  0  0  0  0  0  0  0  0
   38.8700   26.9200   36.7560 H   0  0  0  0  0  0  0  0  0  0  0  0
   40.2960   25.6670   34.9150 C   0  0  0  0  0  0  0  0  0  0  0  0
   41.6880   25.9190   34.7570 C   0  0  0  0  0  0  0  0  0  0  0  0
   42.5230   24.8600   35.0690 C   0  0  0  0  0  0  0  0  0  0  0  0
   42.0020   23.6810   35.4930 N   0  0  0  0  0  0  0  0  0  0  0  0
   40.6640   23.4800   35.6310 C   0  0  0  0  0  0  0  0  0  0  0  0
   39.8120   24.4780   35.3400 N   0  0  0  0  0  0  0  0  0  0  0  0
   41.9890   26.8940   34.4140 H   0  0  0  0  0  0  0  0  0  0  0  0
   43.5620   25.0590   34.9490 H   0  0  0  0  0  0  0  0  0  0  0  0
   40.3200   22.5170   35.9720 H   0  0  0  0  0  0  0  0  0  0  0  0
   36.9480   27.3940   33.9310 C   0  0  0  0  0  0  0  0  0  0  0  0
   36.7460   26.9940   32.6270 C   0  0  0  0  0  3  0  0  0  0  0  0
   35.8170   27.6990   31.8770 C   0  0  0  0  0  0  0  0  0  0  0  0
   35.6140   27.4270   30.8390 H   0  0  0  0  0  0  0  0  0  0  0  0
   35.1000   28.7490   32.3420 N   0  0  0  0  0  0  0  0  0  0  0  0
   35.3300   29.1110   33.6350 C   0  0  0  0  0  3  0  0  0  0  0  0
   36.2170   28.4490   34.3740 N   0  0  0  0  0  0  0  0  0  0  0  0
  1  4  1  6  0  0  0
  1  2  1  0  0  0  0
  1  8  1  0  0  0  0
  1  3  1  0  0  0  0
  2  5  1  1  0  0  0
  2  3  1  0  0  0  0
  3  6  1  0  0  0  0
  3  7  1  0  0  0  0
  8 13  1  0  0  0  0
  9  8  2  0  0  0  0
  9 10  1  0  0  0  0
 10 11  2  0  0  0  0
 11 12  1  0  0  0  0
 12 16  1  0  0  0  0
 13 12  2  0  0  0  0
 14  9  1  0  0  0  0
 15 10  1  0  0  0  0
 17 23  1  0  0  0  0
 17  2  1  0  0  0  0
 18 17  2  0  0  0  0
 19 21  2  0  0  0  0
 19 18  1  0  0  0  0
 20 19  1  0  0  0  0
 21 22  1  0  0  0  0
 22 23  2  0  0  0  0
M  END
>  <minimizedAffinity>
-4.01124525

$$$$

 OpenBabel03272508253D

 23 25  0  0  1  0  0  0  0  0999 V2000
   38.5880   26.3920   35.1830 C   0  0  1  0  0  0  0  0  0  0  0  0
   39.4460   25.2980   34.7430 C   0  0  1  0  0  0  0  0  0  0  0  0
   40.0410   26.6810   34.8380 C   0  0  0  0  0  0  0  0  0  0  0  0
   38.3120   26.5220   36.2460 H   0  0  0  0  0  0  0  0  0  0  0  0
   39.2570   24.9170   33.7080 H   0  0  0  0  0  0  0  0  0  0  0  0
   40.6940   26.9080   35.6970 H   0  0  0  0  0  0  0  0  0  0  0  0
   40.2480   27.2570   33.9370 H   0  0  0  0  0  0  0  0  0  0  0  0
   37.6280   27.0340   34.2140 C   0  0  0  0  0  0  0  0  0  0  0  0
   36.8350   28.0990   34.7290 C   0  0  0  0  0  0  0  0  0  0  0  0
   35.9500   28.6700   33.8300 C   0  0  0  0  0  0  0  0  0  0  0  0
   35.8800   28.2100   32.5560 N   0  0  0  0  0  0  0  0  0  0  0  0
   36.6550   27.1880   32.1020 C   0  0  0  0  0  0  0  0  0  0  0  0
   37.5300   26.6020   32.9370 N   0  0  0  0  0  0  0  0  0  0  0  0
   36.9760   28.3820   35.7580 H   0  0  0  0  0  0  0  0  0  0  0  0
   35.3630   29.4660   34.2240 H   0  0  0  0  0  0  0  0  0  0  0  0
   36.5450   26.8740   31.0770 H   0  0  0  0  0  0  0  0  0  0  0  0
   39.9690   24.2700   35.6410 C   0  0  0  0  0  0  0  0  0  0  0  0
   41.2720   23.8640   35.4440 C   0  0  0  0  0  3  0  0  0  0  0  0
   41.7750   22.8890   36.2920 C   0  0  0  0  0  0  0  0  0  0  0  0
   42.8000   22.5290   36.1840 H   0  0  0  0  0  0  0  0  0  0  0  0
   41.0710   22.3150   37.2970 N   0  0  0  0  0  0  0  0  0  0  0  0
   39.7880   22.7450   37.4560 C   0  0  0  0  0  3  0  0  0  0  0  0
   39.2840   23.6790   36.6540 N   0  0  0  0  0  0  0  0  0  0  0  0
  1  4  1  1  0  0  0
  2  5  1  6  0  0  0
  2  3  1  0  0  0  0
  2  1  1  0  0  0  0
  2 17  1  0  0  0  0
  3  1  1  0  0  0  0
  3  6  1  0  0  0  0
  7  3  1  0  0  0  0
  8  9  1  0  0  0  0
  8  1  1  0  0  0  0
  9 14  1  0  0  0  0
 10 15  1  0  0  0  0
 10  9  2  0  0  0  0
 11 10  1  0  0  0  0
 12 11  2  0  0  0  0
 12 13  1  0  0  0  0
 13  8  2  0  0  0  0
 16 12  1  0  0  0  0
 17 23  1  0  0  0  0
 18 17  2  0  0  0  0
 18 19  1  0  0  0  0
 19 21  2  0  0  0  0
 20 19  1  0  0  0  0
 21 22  1  0  0  0  0
 23 22  2  0  0  0  0
M  END
>  <minimizedAffinity>
-3.99658465

$$$$

 OpenBabel03272508253D

 23 25  0  0  1  0  0  0  0  0999 V2000
   35.0020   29.8870   34.0260 C   0  0  1  0  0  0  0  0  0  0  0  0
   35.6140   30.7800   35.0020 C   0  0  1  0  0  0  0  0  0  0  0  0
   35.6600   31.1720   33.5460 C   0  0  0  0  0  0  0  0  0  0  0  0
   33.9050   29.8330   33.8970 H   0  0  0  0  0  0  0  0  0  0  0  0
   36.5800   30.4280   35.4450 H   0  0  0  0  0  0  0  0  0  0  0  0
   34.9690   31.9550   33.1960 H   0  0  0  0  0  0  0  0  0  0  0  0
   36.5870   31.0900   32.9820 H   0  0  0  0  0  0  0  0  0  0  0  0
   35.7370   28.6550   33.5640 C   0  0  0  0  0  0  0  0  0  0  0  0
   36.6030   28.0460   34.5170 C   0  0  0  0  0  0  0  0  0  0  0  0
   37.2800   26.9230   34.0730 C   0  0  0  0  0  0  0  0  0  0  0  0
   37.0970   26.4720   32.8070 N   0  0  0  0  0  0  0  0  0  0  0  0
   36.2600   27.0830   31.9250 C   0  0  0  0  0  0  0  0  0  0  0  0
   35.5800   28.1770   32.3100 N   0  0  0  0  0  0  0  0  0  0  0  0
   36.6700   28.4910   35.4950 H   0  0  0  0  0  0  0  0  0  0  0  0
   37.9240   26.4750   34.7930 H   0  0  0  0  0  0  0  0  0  0  0  0
   36.1640   26.6690   30.9350 H   0  0  0  0  0  0  0  0  0  0  0  0
   34.8480   31.6320   35.9110 C   0  0  0  0  0  0  0  0  0  0  0  0
   33.5730   31.2210   36.2350 C   0  0  0  0  0  3  0  0  0  0  0  0
   32.8410   32.0240   37.0960 C   0  0  0  0  0  0  0  0  0  0  0  0
   31.8250   31.7490   37.3890 H   0  0  0  0  0  0  0  0  0  0  0  0
   33.2970   33.1790   37.6370 N   0  0  0  0  0  0  0  0  0  0  0  0
   34.5620   33.5480   37.2900 C   0  0  0  0  0  3  0  0  0  0  0  0
   35.2830   32.7930   36.4650 N   0  0  0  0  0  0  0  0  0  0  0  0
  1  4  1  6  0  0  0
  1  2  1  0  0  0  0
  2  5  1  1  0  0  0
  2 17  1  0  0  0  0
  3  1  1  0  0  0  0
  3  2  1  0  0  0  0
  6  3  1  0  0  0  0
  7  3  1  0  0  0  0
  8  1  1  0  0  0  0
  8  9  1  0  0  0  0
  9 14  1  0  0  0  0
 10  9  2  0  0  0  0
 10 15  1  0  0  0  0
 11 10  1  0  0  0  0
 12 13  1  0  0  0  0
 12 11  2  0  0  0  0
 13  8  2  0  0  0  0
 16 12  1  0  0  0  0
 17 18  2  0  0  0  0
 17 23  1  0  0  0  0
 18 19  1  0  0  0  0
 19 20  1  0  0  0  0
 19 21  2  0  0  0  0
 22 21  1  0  0  0  0
 23 22  2  0  0  0  0
M  END
>  <minimizedAffinity>
-3.99239826

$$$$

 OpenBabel03272508253D

 23 25  0  0  1  0  0  0  0  0999 V2000
   36.8800   27.9840   33.2470 C   0  0  1  0  0  0  0  0  0  0  0  0
   35.8510   28.6360   34.0480 C   0  0  1  0  0  0  0  0  0  0  0  0
   36.8910   27.8040   34.7570 C   0  0  0  0  0  0  0  0  0  0  0  0
   37.7320   28.5490   32.8250 H   0  0  0  0  0  0  0  0  0  0  0  0
   34.8280   28.1880   33.9830 H   0  0  0  0  0  0  0  0  0  0  0  0
   37.7020   28.3270   35.2890 H   0  0  0  0  0  0  0  0  0  0  0  0
   36.6350   26.8240   35.1560 H   0  0  0  0  0  0  0  0  0  0  0  0
   36.5690   26.7020   32.5160 C   0  0  0  0  0  0  0  0  0  0  0  0
   35.5460   26.7750   31.5280 C   0  0  0  0  0  0  0  0  0  0  0  0
   35.2640   25.5880   30.8750 C   0  0  0  0  0  0  0  0  0  0  0  0
   35.9440   24.4570   31.1910 N   0  0  0  0  0  0  0  0  0  0  0  0
   36.9160   24.4290   32.1430 C   0  0  0  0  0  0  0  0  0  0  0  0
   37.2260   25.5570   32.8040 N   0  0  0  0  0  0  0  0  0  0  0  0
   35.0730   27.7280   31.3600 H   0  0  0  0  0  0  0  0  0  0  0  0
   34.4990   25.6530   30.1380 H   0  0  0  0  0  0  0  0  0  0  0  0
   37.4150   23.4940   32.3420 H   0  0  0  0  0  0  0  0  0  0  0  0
   35.8290   30.0720   34.3210 C   0  0  0  0  0  0  0  0  0  0  0  0
   35.5590   30.9110   33.2600 C   0  0  0  0  0  3  0  0  0  0  0  0
   35.5350   32.2740   33.5120 C   0  0  0  0  0  0  0  0  0  0  0  0
   35.3270   32.9870   32.7110 H   0  0  0  0  0  0  0  0  0  0  0  0
   35.7590   32.8300   34.7260 N   0  0  0  0  0  0  0  0  0  0  0  0
   36.0220   31.9660   35.7450 C   0  0  0  0  0  3  0  0  0  0  0  0
   36.0500   30.6540   35.5280 N   0  0  0  0  0  0  0  0  0  0  0  0
  1  4  1  6  0  0  0
  1  2  1  0  0  0  0
  1  3  1  0  0  0  0
  2  5  1  6  0  0  0
  2 17  1  0  0  0  0
  2  3  1  0  0  0  0
  3  7  1  0  0  0  0
  3  6  1  0  0  0  0
  8 13  1  0  0  0  0
  8  1  1  0  0  0  0
  9  8  2  0  0  0  0
 10 11  2  0  0  0  0
 10  9  1  0  0  0  0
 11 12  1  0  0  0  0
 12 16  1  0  0  0  0
 12 13  2  0  0  0  0
 14  9  1  0  0  0  0
 15 10  1  0  0  0  0
 17 23  1  0  0  0  0
 18 19  1  0  0  0  0
 18 17  2  0  0  0  0
 19 21  2  0  0  0  0
 20 19  1  0  0  0  0
 21 22  1  0  0  0  0
 23 22  2  0  0  0  0
M  END
>  <minimizedAffinity>
-3.95201278

$$$$
