
 OpenBabel03272509463D

 23 24  0  0  0  0  0  0  0  0999 V2000
   34.1420   28.4450   48.5320 C   0  0  0  0  0  0  0  0  0  0  0  0
   34.7250   29.0860   47.8600 H   0  0  0  0  0  0  0  0  0  0  0  0
   33.1770   28.9560   48.7300 H   0  0  0  0  0  0  0  0  0  0  0  0
   33.8400   27.0890   47.9600 C   0  0  0  0  0  0  0  0  0  0  0  0
   33.3110   26.4870   48.6970 H   0  0  0  0  0  0  0  0  0  0  0  0
   34.7990   26.5800   47.6710 H   0  0  0  0  0  0  0  0  0  0  0  0
   33.0560   27.1670   46.6980 C   0  0  0  0  0  0  0  0  0  0  0  0
   33.7490   27.5130   45.5550 C   0  0  0  0  0  3  0  0  0  0  0  0
   33.1270   27.6160   44.3290 C   0  0  0  0  0  0  0  0  0  0  0  0
   33.6090   27.8830   43.3940 H   0  0  0  0  0  0  0  0  0  0  0  0
   31.8160   27.3760   44.2410 N   0  0  0  0  0  0  0  0  0  0  0  0
   31.1420   27.0370   45.3670 C   0  0  0  0  0  3  0  0  0  0  0  0
   31.7290   26.9310   46.5720 N   0  0  0  0  0  0  0  0  0  0  0  0
   34.7530   28.3090   49.8100 O   0  0  0  0  0  0  0  0  0  0  0  0
   37.3610   30.2450   51.4240 C   0  0  0  0  0  0  0  0  0  0  0  0
   38.0710   30.6780   50.2870 C   0  0  0  0  0  0  0  0  0  0  0  0
   37.6110   30.2800   49.0370 C   0  0  0  0  0  0  0  0  0  0  0  0
   36.4940   29.4890   48.9990 N   0  0  0  0  0  0  0  0  0  0  0  0
   35.8400   29.0940   50.0980 C   0  0  0  0  0  0  0  0  0  0  0  0
   36.2800   29.4760   51.3190 N   0  0  0  0  0  0  0  0  0  0  0  0
   37.6650   30.5190   52.4320 H   0  0  0  0  0  0  0  0  0  0  0  0
   38.9480   31.3040   50.4120 H   0  0  0  0  0  0  0  0  0  0  0  0
   38.1300   30.5910   48.1370 H   0  0  0  0  0  0  0  0  0  0  0  0
  1  3  1  0  0  0  0
  1 14  1  0  0  0  0
  2  1  1  0  0  0  0
  4  1  1  0  0  0  0
  4  5  1  0  0  0  0
  6  4  1  0  0  0  0
  7  4  1  0  0  0  0
  8  7  2  0  0  0  0
  9  8  1  0  0  0  0
 10  9  1  0  0  0  0
 11  9  2  0  0  0  0
 11 12  1  0  0  0  0
 12 13  2  0  0  0  0
 13  7  1  0  0  0  0
 14 19  1  0  0  0  0
 15 21  1  0  0  0  0
 16 22  1  0  0  0  0
 16 15  2  0  0  0  0
 17 16  1  0  0  0  0
 18 17  2  0  0  0  0
 18 19  1  0  0  0  0
 19 20  2  0  0  0  0
 20 15  1  0  0  0  0
 23 17  1  0  0  0  0
M  END
>  <minimizedAffinity>
-3.66921306

>  <minimizedRMSD>
0.296670586

$$$$
