
 OpenBabel03272509503D

 31 33  0  0  0  0  0  0  0  0999 V2000
   34.6860   28.2090   49.7580 O   0  0  0  0  0  0  0  0  0  0  0  0
   37.2280   30.1390   51.4580 C   0  0  0  0  0  0  0  0  0  0  0  0
   37.8170   30.8000   50.3500 C   0  0  0  0  0  0  0  0  0  0  0  0
   37.3010   30.5380   49.0940 C   0  0  0  0  0  0  0  0  0  0  0  0
   36.2630   29.6660   48.9900 N   0  0  0  0  0  0  0  0  0  0  0  0
   35.7270   29.0540   50.0660 C   0  0  0  0  0  0  0  0  0  0  0  0
   36.2190   29.2970   51.3130 N   0  0  0  0  0  0  0  0  0  0  0  0
   37.6540   30.3650   52.4250 H   0  0  0  0  0  0  0  0  0  0  0  0
   38.6420   31.4900   50.4520 H   0  0  0  0  0  0  0  0  0  0  0  0
   37.8020   31.1410   47.8650 C   0  0  0  0  0  0  0  0  0  0  0  0
   37.2190   30.9240   46.6460 C   0  0  0  0  0  3  0  0  0  0  0  0
   37.7080   31.5040   45.4980 C   0  0  0  0  0  0  0  0  0  0  0  0
   37.2580   31.3410   44.5270 H   0  0  0  0  0  0  0  0  0  0  0  0
   38.7750   32.3000   45.5570 N   0  0  0  0  0  0  0  0  0  0  0  0
   39.3570   32.5220   46.7470 C   0  0  0  0  0  3  0  0  0  0  0  0
   38.8730   31.9540   47.8510 N   0  0  0  0  0  0  0  0  0  0  0  0
   33.7860   28.6270   48.7310 C   0  0  0  0  0  0  0  0  0  0  0  0
   33.2320   29.5100   49.0700 H   0  0  0  0  0  0  0  0  0  0  0  0
   34.4130   28.9460   47.8710 H   0  0  0  0  0  0  0  0  0  0  0  0
   32.8930   27.4760   48.3340 C   0  0  0  0  0  0  0  0  0  0  0  0
   32.9840   26.6210   49.0130 H   0  0  0  0  0  0  0  0  0  0  0  0
   33.1870   27.1320   47.3070 H   0  0  0  0  0  0  0  0  0  0  0  0
   31.4640   27.8840   48.2580 C   0  0  0  0  0  0  0  0  0  0  0  0
   30.7050   27.7180   49.3950 C   0  0  0  0  0  0  0  0  0  0  0  0
   29.3640   28.0600   49.4490 C   0  0  0  0  0  0  0  0  0  0  0  0
   28.7870   28.5660   48.3670 N   0  0  0  0  0  0  0  0  0  0  0  0
   29.5280   28.7310   47.2440 C   0  0  0  0  0  0  0  0  0  0  0  0
   30.8370   28.4040   47.1720 N   0  0  0  0  0  0  0  0  0  0  0  0
   31.1450   27.3070   50.2990 H   0  0  0  0  0  0  0  0  0  0  0  0
   28.7610   27.9390   50.3210 H   0  0  0  0  0  0  0  0  0  0  0  0
   29.1390   29.1420   46.3010 H   0  0  0  0  0  0  0  0  0  0  0  0
  1  6  1  0  0  0  0
  2  8  1  0  0  0  0
  3  9  1  0  0  0  0
  3  2  2  0  0  0  0
  4  3  1  0  0  0  0
  5  4  2  0  0  0  0
  5  6  1  0  0  0  0
  6  7  2  0  0  0  0
  7  2  1  0  0  0  0
 10  4  1  0  0  0  0
 11 10  2  0  0  0  0
 12 14  2  0  0  0  0
 12 11  1  0  0  0  0
 13 12  1  0  0  0  0
 14 15  1  0  0  0  0
 15 16  2  0  0  0  0
 16 10  1  0  0  0  0
 17 18  1  0  0  0  0
 17  1  1  0  0  0  0
 19 17  1  0  0  0  0
 20 17  1  0  0  0  0
 20 21  1  0  0  0  0
 22 20  1  0  0  0  0
 23 20  1  0  0  0  0
 23 24  1  0  0  0  0
 24 25  2  0  0  0  0
 24 29  1  0  0  0  0
 25 30  1  0  0  0  0
 26 25  1  0  0  0  0
 27 26  2  0  0  0  0
 28 27  1  0  0  0  0
 28 23  2  0  0  0  0
 31 27  1  0  0  0  0
M  END
>  <minimizedAffinity>
-5.67201948

>  <minimizedRMSD>
0.57102102

$$$$
