
 OpenBabel03272501463D

 45 49  0  0  1  0  0  0  0  0999 V2000
   31.0750   26.9460   47.9420 C   0  0  0  0  0  0  0  0  0  0  0  0
   31.3210   26.1450   47.2090 H   0  0  0  0  0  0  0  0  0  0  0  0
   30.9150   26.4600   48.9370 H   0  0  0  0  0  0  0  0  0  0  0  0
   29.8340   27.6610   47.5410 C   0  0  1  0  0  0  0  0  0  0  0  0
   29.6140   27.4110   46.0620 C   0  0  0  0  0  0  0  0  0  0  0  0
   28.2860   26.7460   45.8980 C   0  0  0  0  0  0  0  0  0  0  0  0
   28.0460   26.0890   47.2360 C   0  0  0  0  0  0  0  0  0  0  0  0
   28.5830   27.1270   48.1940 C   0  0  2  0  0  0  0  0  0  0  0  0
   29.8800   28.7590   47.7690 H   0  0  0  0  0  0  0  0  0  0  0  0
   29.5790   28.4010   45.5220 H   0  0  0  0  0  0  0  0  0  0  0  0
   30.4490   26.8680   45.5940 H   0  0  0  0  0  0  0  0  0  0  0  0
   28.3510   25.9710   45.0990 H   0  0  0  0  0  0  0  0  0  0  0  0
   27.4820   27.4570   45.6340 H   0  0  0  0  0  0  0  0  0  0  0  0
   26.9710   25.8800   47.4070 H   0  0  0  0  0  0  0  0  0  0  0  0
   28.6510   25.1830   47.3190 H   0  0  0  0  0  0  0  0  0  0  0  0
   28.8780   26.6730   49.1770 H   0  0  0  0  0  0  0  0  0  0  0  0
   27.6290   28.2160   48.4770 C   0  0  0  0  0  0  0  0  0  0  0  0
   26.2700   27.9430   48.6700 C   0  0  0  0  0  0  0  0  0  0  0  0
   25.3100   28.9180   48.9410 C   0  0  0  0  0  0  0  0  0  0  0  0
   24.2870   28.6710   49.0810 H   0  0  0  0  0  0  0  0  0  0  0  0
   25.8050   30.1890   49.0050 N   0  0  0  0  0  0  0  0  0  0  0  0
   27.1130   30.4400   48.8190 C   0  0  0  0  0  0  0  0  0  0  0  0
   28.0440   29.5030   48.5560 N   0  0  0  0  0  0  0  0  0  0  0  0
   33.9220   28.9010   49.2730 C   0  0  0  0  0  0  0  0  0  0  0  0
   34.4250   29.5430   48.1370 C   0  0  0  0  0  0  0  0  0  0  0  0
   33.7700   29.2900   46.9240 C   0  0  0  0  0  0  0  0  0  0  0  0
   32.7130   28.4570   46.9240 N   0  0  0  0  0  0  0  0  0  0  0  0
   32.2480   27.8490   48.0380 C   0  0  0  0  0  0  0  0  0  0  0  0
   32.8650   28.0840   49.2020 N   0  0  0  0  0  0  0  0  0  0  0  0
   34.3200   28.9970   50.2730 H   0  0  0  0  0  0  0  0  0  0  0  0
   34.1680   29.7870   46.0810 H   0  0  0  0  0  0  0  0  0  0  0  0
   35.7650   30.8990   49.6200 C   0  0  0  0  0  0  0  0  0  0  0  0
   35.5660   30.3970   48.3430 C   0  0  0  0  0  0  0  0  0  0  0  0
   36.4870   30.7690   47.3870 C   0  0  0  0  0  0  0  0  0  0  0  0
   37.5520   31.6080   47.7270 C   0  0  0  0  0  0  0  0  0  0  0  0
   38.5600   32.1110   47.0210 N   0  0  0  0  0  0  0  0  0  0  0  0
   39.3320   32.8660   47.7840 C   0  0  0  0  0  0  0  0  0  0  0  0
   38.8080   32.8550   49.0350 N   0  0  0  0  0  0  0  0  0  0  0  0
   37.7090   32.0800   49.0020 C   0  0  0  0  0  0  0  0  0  0  0  0
   36.8070   31.7220   49.9610 C   0  0  0  0  0  0  0  0  0  0  0  0
   35.0720   30.6440   50.4230 H   0  0  0  0  0  0  0  0  0  0  0  0
   36.3430   30.3850   46.3890 H   0  0  0  0  0  0  0  0  0  0  0  0
   38.7110   31.9270   46.0000 H   0  0  0  0  0  0  0  0  0  0  0  0
   40.2240   33.4060   47.4940 H   0  0  0  0  0  0  0  0  0  0  0  0
   36.9160   32.0870   50.9770 H   0  0  0  0  0  0  0  0  0  0  0  0
  1 28  1  0  0  0  0
  1  3  1  0  0  0  0
  2  1  1  0  0  0  0
  4  9  1  1  0  0  0
  4  1  1  0  0  0  0
  4  8  1  0  0  0  0
  5  4  1  0  0  0  0
  6  5  1  0  0  0  0
  6  7  1  0  0  0  0
  7 15  1  0  0  0  0
  7 14  1  0  0  0  0
  7  8  1  0  0  0  0
  8 17  1  0  0  0  0
  8 16  1  1  0  0  0
 10  5  1  0  0  0  0
 11  5  1  0  0  0  0
 12  6  1  0  0  0  0
 13  6  1  0  0  0  0
 17 23  2  0  0  0  0
 17 18  1  0  0  0  0
 18 19  2  0  0  0  0
 19 21  1  0  0  0  0
 19 20  1  0  0  0  0
 22 21  2  0  0  0  0
 23 22  1  0  0  0  0
 24 30  1  0  0  0  0
 25 33  1  0  0  0  0
 25 24  2  0  0  0  0
 26 25  1  0  0  0  0
 27 26  2  0  0  0  0
 27 28  1  0  0  0  0
 28 29  2  0  0  0  0
 29 24  1  0  0  0  0
 31 26  1  0  0  0  0
 32 40  1  0  0  0  0
 32 41  1  0  0  0  0
 33 32  2  0  0  0  0
 34 35  2  0  0  0  0
 34 33  1  0  0  0  0
 35 39  1  0  0  0  0
 36 35  1  0  0  0  0
 36 37  1  0  0  0  0
 37 38  2  0  0  0  0
 39 38  1  0  0  0  0
 39 40  2  0  0  0  0
 40 45  1  0  0  0  0
 42 34  1  0  0  0  0
 43 36  1  0  0  0  0
 44 37  1  0  0  0  0
M  END
>  <minimizedAffinity>
-7.17183304

>  <minimizedRMSD>
1.901281

$$$$
