
 OpenBabel03272506473D

 40 43  0  0  1  0  0  0  0  0999 V2000
   32.1780   28.4720   47.4750 C   0  0  2  0  0  0  0  0  0  0  0  0
   33.4350   28.2690   48.2690 C   0  0  1  0  0  0  0  0  0  0  0  0
   33.8080   26.9650   48.1390 O   0  0  0  0  0  0  0  0  0  0  0  0
   33.0710   26.3720   47.1200 C   0  0  0  0  0  0  0  0  0  0  0  0
   32.4680   27.4890   46.3010 C   0  0  1  0  0  0  0  0  0  0  0  0
   31.2600   28.1350   47.9510 H   0  0  0  0  0  0  0  0  0  0  0  0
   33.2880   28.5630   49.3320 H   0  0  0  0  0  0  0  0  0  0  0  0
   32.3720   25.7010   47.6000 H   0  0  0  0  0  0  0  0  0  0  0  0
   33.7820   25.7730   46.4670 H   0  0  0  0  0  0  0  0  0  0  0  0
   33.2060   27.9570   45.6540 H   0  0  0  0  0  0  0  0  0  0  0  0
   32.1160   29.7860   46.9720 O   0  0  0  0  0  0  0  0  0  0  0  0
   32.5340   30.4050   47.6210 H   0  0  0  0  0  0  0  0  0  0  0  0
   34.7460   29.3070   47.5050 S   0  0  0  0  0  0  0  0  0  0  0  0
   37.1320   29.2940   50.6670 C   0  0  0  0  0  0  0  0  0  0  0  0
   37.6020   30.6020   50.7750 C   0  0  0  0  0  0  0  0  0  0  0  0
   37.1600   31.5340   49.8210 C   0  0  0  0  0  0  0  0  0  0  0  0
   36.3020   31.1150   48.8520 N   0  0  0  0  0  0  0  0  0  0  0  0
   35.8730   29.8360   48.7890 C   0  0  0  0  0  0  0  0  0  0  0  0
   36.2820   28.9080   49.6930 N   0  0  0  0  0  0  0  0  0  0  0  0
   37.5060   28.6210   51.4260 H   0  0  0  0  0  0  0  0  0  0  0  0
   38.2840   30.8900   51.5630 H   0  0  0  0  0  0  0  0  0  0  0  0
   37.4940   32.5620   49.8600 H   0  0  0  0  0  0  0  0  0  0  0  0
   31.3050   27.0480   45.7230 O   0  0  0  0  0  0  0  0  0  0  0  0
   30.0200   29.3370   44.3940 Cl  0  0  0  0  0  0  0  0  0  0  0  0
   29.3740   28.3030   45.6480 C   0  0  0  0  0  0  0  0  0  0  0  0
   30.0740   27.2470   46.1850 C   0  0  0  0  0  0  0  0  0  0  0  0
   29.4440   26.4720   47.1610 C   0  0  0  0  0  0  0  0  0  0  0  0
   28.1600   26.7650   47.5690 C   0  0  0  0  0  0  0  0  0  0  0  0
   27.4490   27.8260   47.0340 C   0  0  0  0  0  0  0  0  0  0  0  0
   28.0720   28.5920   46.0680 C   0  0  0  0  0  0  0  0  0  0  0  0
   29.9040   25.6250   47.6370 H   0  0  0  0  0  0  0  0  0  0  0  0
   27.6740   26.1660   48.3240 H   0  0  0  0  0  0  0  0  0  0  0  0
   26.4500   28.0030   47.3930 H   0  0  0  0  0  0  0  0  0  0  0  0
   27.3750   29.7220   45.4660 C   0  0  0  0  0  0  0  0  0  0  0  0
   26.7100   29.6560   44.2700 C   0  0  0  0  0  3  0  0  0  0  0  0
   26.0460   30.7240   43.6880 C   0  0  0  0  0  0  0  0  0  0  0  0
   25.5340   30.6400   42.7490 H   0  0  0  0  0  0  0  0  0  0  0  0
   26.0410   31.9150   44.3260 N   0  0  0  0  0  0  0  0  0  0  0  0
   26.6880   32.0010   45.5030 C   0  0  0  0  0  3  0  0  0  0  0  0
   27.3250   30.9450   46.0390 N   0  0  0  0  0  0  0  0  0  0  0  0
  1  6  1  1  0  0  0
  1  2  1  0  0  0  0
  2  7  1  1  0  0  0
  3  2  1  0  0  0  0
  4  8  1  0  0  0  0
  4  3  1  0  0  0  0
  5 10  1  6  0  0  0
  5  4  1  0  0  0  0
  5  1  1  0  0  0  0
  9  4  1  0  0  0  0
 11  1  1  0  0  0  0
 11 12  1  0  0  0  0
 13  2  1  0  0  0  0
 13 18  1  0  0  0  0
 14 15  1  0  0  0  0
 14 20  1  0  0  0  0
 15 21  1  0  0  0  0
 16 22  1  0  0  0  0
 16 15  2  0  0  0  0
 17 16  1  0  0  0  0
 18 17  2  0  0  0  0
 18 19  1  0  0  0  0
 19 14  2  0  0  0  0
 23 26  1  0  0  0  0
 23  5  1  0  0  0  0
 24 25  1  0  0  0  0
 25 30  2  0  0  0  0
 25 26  1  0  0  0  0
 26 27  2  0  0  0  0
 27 28  1  0  0  0  0
 27 31  1  0  0  0  0
 28 32  1  0  0  0  0
 29 33  1  0  0  0  0
 29 28  2  0  0  0  0
 30 29  1  0  0  0  0
 34 40  1  0  0  0  0
 34 30  1  0  0  0  0
 35 34  2  0  0  0  0
 36 35  1  0  0  0  0
 36 38  2  0  0  0  0
 37 36  1  0  0  0  0
 38 39  1  0  0  0  0
 39 40  2  0  0  0  0
M  END
>  <minimizedAffinity>
-5.40329456

>  <minimizedRMSD>
0.353951037

$$$$
