
 OpenBabel03272506193D

 32 34  0  0  0  0  0  0  0  0999 V2000
   37.4400   27.0630   33.2470 C   0  0  0  0  0  0  0  0  0  0  0  0
   38.8950   27.0730   32.8290 C   0  0  0  0  0  0  0  0  0  0  0  0
   39.8080   26.4520   33.8450 C   0  0  0  0  0  0  0  0  0  0  0  0
   39.6580   27.0590   35.2150 C   0  0  0  0  0  0  0  0  0  0  0  0
   38.2370   27.3530   35.5860 C   0  0  0  0  0  0  0  0  0  0  0  0
   37.2500   26.6600   34.6690 C   0  0  0  0  0  0  0  0  0  0  0  0
   36.9610   28.0480   33.0740 H   0  0  0  0  0  0  0  0  0  0  0  0
   39.2200   28.1430   32.7250 H   0  0  0  0  0  0  0  0  0  0  0  0
   39.0680   26.6120   31.8600 H   0  0  0  0  0  0  0  0  0  0  0  0
   39.6170   25.3490   33.8940 H   0  0  0  0  0  0  0  0  0  0  0  0
   40.8460   26.6350   33.5050 H   0  0  0  0  0  0  0  0  0  0  0  0
   40.3500   27.9150   35.3610 H   0  0  0  0  0  0  0  0  0  0  0  0
   40.0160   26.2780   35.9400 H   0  0  0  0  0  0  0  0  0  0  0  0
   38.0950   28.4530   35.4110 H   0  0  0  0  0  0  0  0  0  0  0  0
   37.9910   27.1730   36.6380 H   0  0  0  0  0  0  0  0  0  0  0  0
   37.3820   25.5610   34.8330 H   0  0  0  0  0  0  0  0  0  0  0  0
   36.2350   26.8900   35.0030 H   0  0  0  0  0  0  0  0  0  0  0  0
   36.6810   26.0890   32.4030 C   0  0  0  0  0  0  0  0  0  0  0  0
   37.0580   24.7320   32.5200 C   0  0  0  0  0  0  0  0  0  0  0  0
   36.3680   23.8150   31.7440 C   0  0  0  0  0  0  0  0  0  0  0  0
   35.3600   24.2470   30.9040 N   0  0  0  0  0  0  0  0  0  0  0  0
   35.0340   25.5750   30.8270 C   0  0  0  0  0  0  0  0  0  0  0  0
   35.6870   26.4710   31.5660 N   0  0  0  0  0  0  0  0  0  0  0  0
   37.8170   24.3330   33.1330 H   0  0  0  0  0  0  0  0  0  0  0  0
   34.2390   25.8730   30.1560 H   0  0  0  0  0  0  0  0  0  0  0  0
   36.6180   22.3800   31.7350 C   0  0  0  0  0  0  0  0  0  0  0  0
   35.7450   21.4700   31.1800 C   0  0  0  0  0  3  0  0  0  0  0  0
   35.9460   20.1020   31.1490 C   0  0  0  0  0  0  0  0  0  0  0  0
   35.2430   19.4150   30.7080 H   0  0  0  0  0  0  0  0  0  0  0  0
   37.0900   19.6120   31.7080 N   0  0  0  0  0  0  0  0  0  0  0  0
   37.9570   20.5090   32.2580 C   0  0  0  0  0  3  0  0  0  0  0  0
   37.7230   21.8310   32.2670 N   0  0  0  0  0  0  0  0  0  0  0  0
  1  6  1  0  0  0  0
  2  1  1  0  0  0  0
  2  3  1  0  0  0  0
  3 10  1  0  0  0  0
  3  4  1  0  0  0  0
  4 12  1  0  0  0  0
  4  5  1  0  0  0  0
  4 13  1  0  0  0  0
  5 15  1  0  0  0  0
  6 16  1  0  0  0  0
  6 17  1  0  0  0  0
  6  5  1  0  0  0  0
  7  1  1  0  0  0  0
  8  2  1  0  0  0  0
  9  2  1  0  0  0  0
 11  3  1  0  0  0  0
 14  5  1  0  0  0  0
 18 19  1  0  0  0  0
 18  1  1  0  0  0  0
 19 24  1  0  0  0  0
 20 19  2  0  0  0  0
 21 20  1  0  0  0  0
 22 21  2  0  0  0  0
 22 23  1  0  0  0  0
 23 18  2  0  0  0  0
 25 22  1  0  0  0  0
 26 20  1  0  0  0  0
 26 32  1  0  0  0  0
 27 26  2  0  0  0  0
 28 27  1  0  0  0  0
 28 30  2  0  0  0  0
 29 28  1  0  0  0  0
 30 31  1  0  0  0  0
 31 32  2  0  0  0  0
M  END
>  <minimizedAffinity>
-5.14489603

$$$$

 OpenBabel03272506193D

 32 34  0  0  0  0  0  0  0  0999 V2000
   37.3260   27.0030   33.6960 C   0  0  0  0  0  0  0  0  0  0  0  0
   37.5630   26.8810   35.1860 C   0  0  0  0  0  0  0  0  0  0  0  0
   38.9640   27.2340   35.5940 C   0  0  0  0  0  0  0  0  0  0  0  0
   40.0080   26.4550   34.8370 C   0  0  0  0  0  0  0  0  0  0  0  0
   39.6870   26.2810   33.3840 C   0  0  0  0  0  0  0  0  0  0  0  0
   38.5840   27.2130   32.9240 C   0  0  0  0  0  0  0  0  0  0  0  0
   36.7910   26.1170   33.2950 H   0  0  0  0  0  0  0  0  0  0  0  0
   37.4120   25.8060   35.4760 H   0  0  0  0  0  0  0  0  0  0  0  0
   36.8590   27.4540   35.7820 H   0  0  0  0  0  0  0  0  0  0  0  0
   39.1290   28.3320   35.4490 H   0  0  0  0  0  0  0  0  0  0  0  0
   39.0640   26.9810   36.6670 H   0  0  0  0  0  0  0  0  0  0  0  0
   40.2710   25.5110   35.3590 H   0  0  0  0  0  0  0  0  0  0  0  0
   40.9450   27.0730   34.8790 H   0  0  0  0  0  0  0  0  0  0  0  0
   39.2700   25.2430   33.2840 H   0  0  0  0  0  0  0  0  0  0  0  0
   40.5520   26.3330   32.7140 H   0  0  0  0  0  0  0  0  0  0  0  0
   38.9870   28.2520   33.0210 H   0  0  0  0  0  0  0  0  0  0  0  0
   38.4120   27.0590   31.8560 H   0  0  0  0  0  0  0  0  0  0  0  0
   36.4360   28.1720   33.4220 C   0  0  0  0  0  0  0  0  0  0  0  0
   35.9630   28.8780   34.5510 C   0  0  0  0  0  0  0  0  0  0  0  0
   35.1350   29.9640   34.3190 C   0  0  0  0  0  0  0  0  0  0  0  0
   34.8070   30.3110   33.0220 N   0  0  0  0  0  0  0  0  0  0  0  0
   35.2910   29.5930   31.9620 C   0  0  0  0  0  0  0  0  0  0  0  0
   36.0890   28.5460   32.1660 N   0  0  0  0  0  0  0  0  0  0  0  0
   36.1680   28.6670   35.5640 H   0  0  0  0  0  0  0  0  0  0  0  0
   35.0100   29.8970   30.9620 H   0  0  0  0  0  0  0  0  0  0  0  0
   34.5570   30.8050   35.3570 C   0  0  0  0  0  0  0  0  0  0  0  0
   35.2840   31.7490   36.0490 C   0  0  0  0  0  3  0  0  0  0  0  0
   34.7730   32.5660   37.0410 C   0  0  0  0  0  0  0  0  0  0  0  0
   35.3680   33.2960   37.5660 H   0  0  0  0  0  0  0  0  0  0  0  0
   33.4530   32.4340   37.3600 N   0  0  0  0  0  0  0  0  0  0  0  0
   32.7290   31.5020   36.6770 C   0  0  0  0  0  3  0  0  0  0  0  0
   33.2650   30.7270   35.7210 N   0  0  0  0  0  0  0  0  0  0  0  0
  1  2  1  0  0  0  0
  2  8  1  0  0  0  0
  2  3  1  0  0  0  0
  2  9  1  0  0  0  0
  3 11  1  0  0  0  0
  4 13  1  0  0  0  0
  4 12  1  0  0  0  0
  4  3  1  0  0  0  0
  5  4  1  0  0  0  0
  6 16  1  0  0  0  0
  6  5  1  0  0  0  0
  6  1  1  0  0  0  0
  7  1  1  0  0  0  0
 10  3  1  0  0  0  0
 14  5  1  0  0  0  0
 15  5  1  0  0  0  0
 17  6  1  0  0  0  0
 18  1  1  0  0  0  0
 18 19  1  0  0  0  0
 19 24  1  0  0  0  0
 20 19  2  0  0  0  0
 20 26  1  0  0  0  0
 21 20  1  0  0  0  0
 22 23  1  0  0  0  0
 22 21  2  0  0  0  0
 23 18  2  0  0  0  0
 25 22  1  0  0  0  0
 26 32  2  0  0  0  0
 26 27  1  0  0  0  0
 27 28  2  0  0  0  0
 28 30  1  0  0  0  0
 28 29  1  0  0  0  0
 31 30  2  0  0  0  0
 32 31  1  0  0  0  0
M  END
>  <minimizedAffinity>
-5.11844158

$$$$

 OpenBabel03272506193D

 32 34  0  0  0  0  0  0  0  0999 V2000
   37.0130   21.6280   31.5980 C   0  0  0  0  0  0  0  0  0  0  0  0
   35.5080   21.7330   31.4720 C   0  0  0  0  0  0  0  0  0  0  0  0
   34.7730   20.6900   32.2620 C   0  0  0  0  0  0  0  0  0  0  0  0
   35.2230   19.2890   31.9440 C   0  0  0  0  0  0  0  0  0  0  0  0
   36.7050   19.1640   31.7610 C   0  0  0  0  0  0  0  0  0  0  0  0
   37.4500   20.3760   32.2810 C   0  0  0  0  0  0  0  0  0  0  0  0
   37.5110   21.7020   30.6090 H   0  0  0  0  0  0  0  0  0  0  0  0
   35.2370   21.5620   30.3950 H   0  0  0  0  0  0  0  0  0  0  0  0
   35.1230   22.7160   31.7260 H   0  0  0  0  0  0  0  0  0  0  0  0
   34.9000   20.8920   33.3560 H   0  0  0  0  0  0  0  0  0  0  0  0
   33.7020   20.7720   31.9910 H   0  0  0  0  0  0  0  0  0  0  0  0
   34.6270   18.8450   31.1180 H   0  0  0  0  0  0  0  0  0  0  0  0
   34.9650   18.6690   32.8440 H   0  0  0  0  0  0  0  0  0  0  0  0
   36.8780   19.1510   30.6530 H   0  0  0  0  0  0  0  0  0  0  0  0
   37.1380   18.2370   32.1530 H   0  0  0  0  0  0  0  0  0  0  0  0
   37.2840   20.4020   33.3870 H   0  0  0  0  0  0  0  0  0  0  0  0
   38.5230   20.2180   32.1450 H   0  0  0  0  0  0  0  0  0  0  0  0
   37.5320   22.7770   32.4010 C   0  0  0  0  0  0  0  0  0  0  0  0
   37.7430   22.5360   33.7770 C   0  0  0  0  0  0  0  0  0  0  0  0
   38.2210   23.5900   34.5390 C   0  0  0  0  0  0  0  0  0  0  0  0
   38.4700   24.8110   33.9420 N   0  0  0  0  0  0  0  0  0  0  0  0
   38.2480   24.9930   32.6030 C   0  0  0  0  0  0  0  0  0  0  0  0
   37.7890   23.9910   31.8550 N   0  0  0  0  0  0  0  0  0  0  0  0
   37.5700   21.6360   34.2990 H   0  0  0  0  0  0  0  0  0  0  0  0
   38.4550   25.9640   32.1730 H   0  0  0  0  0  0  0  0  0  0  0  0
   38.4970   23.5240   35.9680 C   0  0  0  0  0  0  0  0  0  0  0  0
   37.6930   24.1210   36.9140 C   0  0  0  0  0  3  0  0  0  0  0  0
   37.9180   24.0820   38.2780 C   0  0  0  0  0  0  0  0  0  0  0  0
   37.2710   24.5600   38.9950 H   0  0  0  0  0  0  0  0  0  0  0  0
   39.0150   23.4040   38.7250 N   0  0  0  0  0  0  0  0  0  0  0  0
   39.8130   22.8120   37.7910 C   0  0  0  0  0  3  0  0  0  0  0  0
   39.5580   22.8750   36.4750 N   0  0  0  0  0  0  0  0  0  0  0  0
  1  6  1  0  0  0  0
  1 18  1  0  0  0  0
  2  1  1  0  0  0  0
  2  9  1  0  0  0  0
  2  3  1  0  0  0  0
  3 10  1  0  0  0  0
  4  3  1  0  0  0  0
  4 13  1  0  0  0  0
  5  4  1  0  0  0  0
  5 15  1  0  0  0  0
  5  6  1  0  0  0  0
  6 16  1  0  0  0  0
  7  1  1  0  0  0  0
  8  2  1  0  0  0  0
 11  3  1  0  0  0  0
 12  4  1  0  0  0  0
 14  5  1  0  0  0  0
 17  6  1  0  0  0  0
 18 19  1  0  0  0  0
 19 24  1  0  0  0  0
 19 20  2  0  0  0  0
 20 26  1  0  0  0  0
 21 20  1  0  0  0  0
 22 21  2  0  0  0  0
 23 18  2  0  0  0  0
 23 22  1  0  0  0  0
 25 22  1  0  0  0  0
 26 32  2  0  0  0  0
 26 27  1  0  0  0  0
 27 28  2  0  0  0  0
 28 30  1  0  0  0  0
 28 29  1  0  0  0  0
 31 30  2  0  0  0  0
 32 31  1  0  0  0  0
M  END
>  <minimizedAffinity>
-5.03761435

$$$$

 OpenBabel03272506193D

 32 34  0  0  0  0  0  0  0  0999 V2000
   35.7700   21.4930   31.1740 C   0  0  0  0  0  0  0  0  0  0  0  0
   35.0400   21.4530   32.5000 C   0  0  0  0  0  0  0  0  0  0  0  0
   35.5290   20.3670   33.4120 C   0  0  0  0  0  0  0  0  0  0  0  0
   35.5070   19.0060   32.7670 C   0  0  0  0  0  0  0  0  0  0  0  0
   35.9460   19.0160   31.3350 C   0  0  0  0  0  0  0  0  0  0  0  0
   36.6470   20.3070   30.9600 C   0  0  0  0  0  0  0  0  0  0  0  0
   35.0630   21.5890   30.3230 H   0  0  0  0  0  0  0  0  0  0  0  0
   33.9580   21.2300   32.2950 H   0  0  0  0  0  0  0  0  0  0  0  0
   35.0560   22.4020   33.0280 H   0  0  0  0  0  0  0  0  0  0  0  0
   36.5670   20.6080   33.7570 H   0  0  0  0  0  0  0  0  0  0  0  0
   34.8440   20.3410   34.2830 H   0  0  0  0  0  0  0  0  0  0  0  0
   34.5400   18.4880   32.9400 H   0  0  0  0  0  0  0  0  0  0  0  0
   36.2630   18.3890   33.3220 H   0  0  0  0  0  0  0  0  0  0  0  0
   35.0050   18.9920   30.7240 H   0  0  0  0  0  0  0  0  0  0  0  0
   36.5360   18.1450   31.0300 H   0  0  0  0  0  0  0  0  0  0  0  0
   37.5870   20.3450   31.5640 H   0  0  0  0  0  0  0  0  0  0  0  0
   36.9650   20.2460   29.9160 H   0  0  0  0  0  0  0  0  0  0  0  0
   36.6410   22.7070   31.1150 C   0  0  0  0  0  0  0  0  0  0  0  0
   36.1310   23.8740   31.7260 C   0  0  0  0  0  0  0  0  0  0  0  0
   36.9230   25.0100   31.6810 C   0  0  0  0  0  0  0  0  0  0  0  0
   38.1540   24.9640   31.0560 N   0  0  0  0  0  0  0  0  0  0  0  0
   38.6020   23.8070   30.4780 C   0  0  0  0  0  0  0  0  0  0  0  0
   37.8540   22.7050   30.5120 N   0  0  0  0  0  0  0  0  0  0  0  0
   35.2030   23.9830   32.2140 H   0  0  0  0  0  0  0  0  0  0  0  0
   39.5720   23.8120   29.9970 H   0  0  0  0  0  0  0  0  0  0  0  0
   36.5610   26.2990   32.2560 C   0  0  0  0  0  0  0  0  0  0  0  0
   37.0070   26.7220   33.4890 C   0  0  0  0  0  3  0  0  0  0  0  0
   36.6870   27.9360   34.0690 C   0  0  0  0  0  0  0  0  0  0  0  0
   37.0510   28.2390   35.0370 H   0  0  0  0  0  0  0  0  0  0  0  0
   35.8720   28.7810   33.3730 N   0  0  0  0  0  0  0  0  0  0  0  0
   35.4290   28.3660   32.1520 C   0  0  0  0  0  3  0  0  0  0  0  0
   35.7630   27.1780   31.6260 N   0  0  0  0  0  0  0  0  0  0  0  0
  1  2  1  0  0  0  0
  2  9  1  0  0  0  0
  2  3  1  0  0  0  0
  3 10  1  0  0  0  0
  3 11  1  0  0  0  0
  4 12  1  0  0  0  0
  4 13  1  0  0  0  0
  4  3  1  0  0  0  0
  5  4  1  0  0  0  0
  6  1  1  0  0  0  0
  6  5  1  0  0  0  0
  6 16  1  0  0  0  0
  7  1  1  0  0  0  0
  8  2  1  0  0  0  0
 14  5  1  0  0  0  0
 15  5  1  0  0  0  0
 17  6  1  0  0  0  0
 18  1  1  0  0  0  0
 18 19  1  0  0  0  0
 19 24  1  0  0  0  0
 20 19  2  0  0  0  0
 20 26  1  0  0  0  0
 21 20  1  0  0  0  0
 22 23  1  0  0  0  0
 22 21  2  0  0  0  0
 23 18  2  0  0  0  0
 25 22  1  0  0  0  0
 26 27  1  0  0  0  0
 27 28  2  0  0  0  0
 28 29  1  0  0  0  0
 30 28  1  0  0  0  0
 31 30  2  0  0  0  0
 32 31  1  0  0  0  0
 32 26  2  0  0  0  0
M  END
>  <minimizedAffinity>
-5.03296232

$$$$

 OpenBabel03272506193D

 32 34  0  0  0  0  0  0  0  0999 V2000
   34.7330   30.9570   34.0000 C   0  0  0  0  0  0  0  0  0  0  0  0
   35.7480   31.9390   34.5440 C   0  0  0  0  0  0  0  0  0  0  0  0
   35.9170   31.8530   36.0330 C   0  0  0  0  0  0  0  0  0  0  0  0
   34.6150   31.9850   36.7790 C   0  0  0  0  0  0  0  0  0  0  0  0
   33.4760   31.2650   36.1250 C   0  0  0  0  0  0  0  0  0  0  0  0
   33.9470   30.2830   35.0720 C   0  0  0  0  0  0  0  0  0  0  0  0
   34.0390   31.4440   33.2840 H   0  0  0  0  0  0  0  0  0  0  0  0
   35.3780   32.9780   34.3290 H   0  0  0  0  0  0  0  0  0  0  0  0
   36.7200   31.8630   34.0670 H   0  0  0  0  0  0  0  0  0  0  0  0
   36.4100   30.8830   36.2970 H   0  0  0  0  0  0  0  0  0  0  0  0
   36.5690   32.6950   36.3360 H   0  0  0  0  0  0  0  0  0  0  0  0
   34.3960   33.0440   37.0320 H   0  0  0  0  0  0  0  0  0  0  0  0
   34.7750   31.4840   37.7710 H   0  0  0  0  0  0  0  0  0  0  0  0
   32.8940   32.0490   35.5710 H   0  0  0  0  0  0  0  0  0  0  0  0
   32.7740   30.7920   36.8200 H   0  0  0  0  0  0  0  0  0  0  0  0
   34.5320   29.4960   35.6120 H   0  0  0  0  0  0  0  0  0  0  0  0
   33.0780   29.7720   34.6500 H   0  0  0  0  0  0  0  0  0  0  0  0
   35.4340   29.8890   33.2230 C   0  0  0  0  0  0  0  0  0  0  0  0
   35.9380   28.8000   33.9690 C   0  0  0  0  0  0  0  0  0  0  0  0
   36.5920   27.8010   33.2670 C   0  0  0  0  0  0  0  0  0  0  0  0
   36.7270   27.9000   31.8950 N   0  0  0  0  0  0  0  0  0  0  0  0
   36.2210   28.9780   31.2190 C   0  0  0  0  0  0  0  0  0  0  0  0
   35.5880   29.9480   31.8780 N   0  0  0  0  0  0  0  0  0  0  0  0
   35.8770   28.6610   35.0120 H   0  0  0  0  0  0  0  0  0  0  0  0
   36.3470   29.0190   30.1450 H   0  0  0  0  0  0  0  0  0  0  0  0
   37.1740   26.6080   33.8670 C   0  0  0  0  0  0  0  0  0  0  0  0
   37.4700   26.5130   35.2090 C   0  0  0  0  0  3  0  0  0  0  0  0
   38.0220   25.4000   35.8180 C   0  0  0  0  0  0  0  0  0  0  0  0
   38.2430   25.3550   36.8710 H   0  0  0  0  0  0  0  0  0  0  0  0
   38.2940   24.3140   35.0370 N   0  0  0  0  0  0  0  0  0  0  0  0
   38.0010   24.4040   33.7080 C   0  0  0  0  0  3  0  0  0  0  0  0
   37.4660   25.5050   33.1570 N   0  0  0  0  0  0  0  0  0  0  0  0
  1  2  1  0  0  0  0
  1  6  1  0  0  0  0
  2  3  1  0  0  0  0
  3 10  1  0  0  0  0
  3 11  1  0  0  0  0
  3  4  1  0  0  0  0
  4 12  1  0  0  0  0
  4 13  1  0  0  0  0
  5  4  1  0  0  0  0
  5 15  1  0  0  0  0
  6 16  1  0  0  0  0
  6  5  1  0  0  0  0
  7  1  1  0  0  0  0
  8  2  1  0  0  0  0
  9  2  1  0  0  0  0
 14  5  1  0  0  0  0
 17  6  1  0  0  0  0
 18 19  1  0  0  0  0
 18  1  1  0  0  0  0
 19 24  1  0  0  0  0
 20 26  1  0  0  0  0
 20 19  2  0  0  0  0
 21 20  1  0  0  0  0
 22 23  1  0  0  0  0
 22 21  2  0  0  0  0
 23 18  2  0  0  0  0
 25 22  1  0  0  0  0
 26 27  1  0  0  0  0
 27 28  2  0  0  0  0
 28 29  1  0  0  0  0
 30 28  1  0  0  0  0
 31 30  2  0  0  0  0
 32 31  1  0  0  0  0
 32 26  2  0  0  0  0
M  END
>  <minimizedAffinity>
-4.95541716

$$$$

 OpenBabel03272506193D

 32 34  0  0  0  0  0  0  0  0999 V2000
   37.7850   27.5770   32.4970 C   0  0  0  0  0  0  0  0  0  0  0  0
   36.6000   28.2380   33.1680 C   0  0  0  0  0  0  0  0  0  0  0  0
   35.4950   28.5850   32.2130 C   0  0  0  0  0  0  0  0  0  0  0  0
   35.9670   29.4190   31.0510 C   0  0  0  0  0  0  0  0  0  0  0  0
   37.2990   28.9970   30.5120 C   0  0  0  0  0  0  0  0  0  0  0  0
   37.7090   27.6250   31.0090 C   0  0  0  0  0  0  0  0  0  0  0  0
   38.7440   28.0240   32.8330 H   0  0  0  0  0  0  0  0  0  0  0  0
   36.9490   29.2100   33.6120 H   0  0  0  0  0  0  0  0  0  0  0  0
   36.1950   27.6600   33.9930 H   0  0  0  0  0  0  0  0  0  0  0  0
   35.0190   27.6440   31.8370 H   0  0  0  0  0  0  0  0  0  0  0  0
   34.7510   29.1790   32.7780 H   0  0  0  0  0  0  0  0  0  0  0  0
   35.8910   30.5050   31.2710 H   0  0  0  0  0  0  0  0  0  0  0  0
   35.2250   29.2460   30.2260 H   0  0  0  0  0  0  0  0  0  0  0  0
   38.0470   29.7130   30.9450 H   0  0  0  0  0  0  0  0  0  0  0  0
   37.3960   29.0670   29.4240 H   0  0  0  0  0  0  0  0  0  0  0  0
   36.9690   26.9000   30.5870 H   0  0  0  0  0  0  0  0  0  0  0  0
   38.6720   27.3610   30.5650 H   0  0  0  0  0  0  0  0  0  0  0  0
   37.8480   26.1370   32.8930 C   0  0  0  0  0  0  0  0  0  0  0  0
   38.1540   25.8720   34.2470 C   0  0  0  0  0  0  0  0  0  0  0  0
   38.2180   24.5430   34.6330 C   0  0  0  0  0  0  0  0  0  0  0  0
   37.9870   23.5460   33.7050 N   0  0  0  0  0  0  0  0  0  0  0  0
   37.6950   23.8570   32.4030 C   0  0  0  0  0  0  0  0  0  0  0  0
   37.6280   25.1290   32.0140 N   0  0  0  0  0  0  0  0  0  0  0  0
   38.3460   26.5780   35.0060 H   0  0  0  0  0  0  0  0  0  0  0  0
   37.5210   23.0470   31.7070 H   0  0  0  0  0  0  0  0  0  0  0  0
   38.5200   24.0830   35.9820 C   0  0  0  0  0  0  0  0  0  0  0  0
   37.7710   24.4420   37.0810 C   0  0  0  0  0  3  0  0  0  0  0  0
   38.0230   24.0280   38.3760 C   0  0  0  0  0  0  0  0  0  0  0  0
   37.4190   24.3260   39.2170 H   0  0  0  0  0  0  0  0  0  0  0  0
   39.0890   23.2030   38.5870 N   0  0  0  0  0  0  0  0  0  0  0  0
   39.8330   22.8450   37.5010 C   0  0  0  0  0  3  0  0  0  0  0  0
   39.5540   23.2710   36.2600 N   0  0  0  0  0  0  0  0  0  0  0  0
  1  7  1  0  0  0  0
  1 18  1  0  0  0  0
  1  2  1  0  0  0  0
  2  8  1  0  0  0  0
  2  9  1  0  0  0  0
  3 11  1  0  0  0  0
  3  2  1  0  0  0  0
  4 12  1  0  0  0  0
  4  3  1  0  0  0  0
  5 14  1  0  0  0  0
  5  6  1  0  0  0  0
  5  4  1  0  0  0  0
  6  1  1  0  0  0  0
 10  3  1  0  0  0  0
 13  4  1  0  0  0  0
 15  5  1  0  0  0  0
 16  6  1  0  0  0  0
 17  6  1  0  0  0  0
 18 19  1  0  0  0  0
 19 20  2  0  0  0  0
 19 24  1  0  0  0  0
 20 26  1  0  0  0  0
 21 20  1  0  0  0  0
 22 21  2  0  0  0  0
 23 22  1  0  0  0  0
 23 18  2  0  0  0  0
 25 22  1  0  0  0  0
 26 32  2  0  0  0  0
 26 27  1  0  0  0  0
 27 28  2  0  0  0  0
 28 30  1  0  0  0  0
 28 29  1  0  0  0  0
 31 30  2  0  0  0  0
 32 31  1  0  0  0  0
M  END
>  <minimizedAffinity>
-4.91898346

$$$$

 OpenBabel03272506193D

 32 34  0  0  0  0  0  0  0  0999 V2000
   35.7020   22.0720   31.2100 C   0  0  0  0  0  0  0  0  0  0  0  0
   34.8410   21.4870   32.3100 C   0  0  0  0  0  0  0  0  0  0  0  0
   35.5950   20.5700   33.2290 C   0  0  0  0  0  0  0  0  0  0  0  0
   36.3180   19.4720   32.4950 C   0  0  0  0  0  0  0  0  0  0  0  0
   36.9600   19.9250   31.2200 C   0  0  0  0  0  0  0  0  0  0  0  0
   37.0470   21.4350   31.1280 C   0  0  0  0  0  0  0  0  0  0  0  0
   35.2000   22.0060   30.2230 H   0  0  0  0  0  0  0  0  0  0  0  0
   34.0400   20.8630   31.8300 H   0  0  0  0  0  0  0  0  0  0  0  0
   34.3230   22.2390   32.8970 H   0  0  0  0  0  0  0  0  0  0  0  0
   36.3240   21.1670   33.8350 H   0  0  0  0  0  0  0  0  0  0  0  0
   34.8510   20.0990   33.9000 H   0  0  0  0  0  0  0  0  0  0  0  0
   35.6830   18.5670   32.3850 H   0  0  0  0  0  0  0  0  0  0  0  0
   37.1560   19.1490   33.1700 H   0  0  0  0  0  0  0  0  0  0  0  0
   36.2650   19.6090   30.3970 H   0  0  0  0  0  0  0  0  0  0  0  0
   37.9280   19.4600   31.0030 H   0  0  0  0  0  0  0  0  0  0  0  0
   37.7360   21.7630   31.9450 H   0  0  0  0  0  0  0  0  0  0  0  0
   37.5440   21.7040   30.1930 H   0  0  0  0  0  0  0  0  0  0  0  0
   35.9150   23.5300   31.4610 C   0  0  0  0  0  0  0  0  0  0  0  0
   36.9840   23.8690   32.3200 C   0  0  0  0  0  0  0  0  0  0  0  0
   37.1970   25.2160   32.5660 C   0  0  0  0  0  0  0  0  0  0  0  0
   36.3760   26.1590   31.9780 N   0  0  0  0  0  0  0  0  0  0  0  0
   35.3520   25.7780   31.1530 C   0  0  0  0  0  0  0  0  0  0  0  0
   35.1330   24.4870   30.9040 N   0  0  0  0  0  0  0  0  0  0  0  0
   37.6440   23.2060   32.8060 H   0  0  0  0  0  0  0  0  0  0  0  0
   34.7310   26.5470   30.7120 H   0  0  0  0  0  0  0  0  0  0  0  0
   38.2480   25.7480   33.4230 C   0  0  0  0  0  0  0  0  0  0  0  0
   37.9950   26.5840   34.4880 C   0  0  0  0  0  3  0  0  0  0  0  0
   38.9630   27.1110   35.3240 C   0  0  0  0  0  0  0  0  0  0  0  0
   38.7340   27.7640   36.1500 H   0  0  0  0  0  0  0  0  0  0  0  0
   40.2640   26.7800   35.0820 N   0  0  0  0  0  0  0  0  0  0  0  0
   40.5190   25.9520   34.0290 C   0  0  0  0  0  3  0  0  0  0  0  0
   39.5480   25.4640   33.2400 N   0  0  0  0  0  0  0  0  0  0  0  0
  1 18  1  0  0  0  0
  1  2  1  0  0  0  0
  2  9  1  0  0  0  0
  2  3  1  0  0  0  0
  3 10  1  0  0  0  0
  3 11  1  0  0  0  0
  4 13  1  0  0  0  0
  4  3  1  0  0  0  0
  5  4  1  0  0  0  0
  6  1  1  0  0  0  0
  6  5  1  0  0  0  0
  6 16  1  0  0  0  0
  7  1  1  0  0  0  0
  8  2  1  0  0  0  0
 12  4  1  0  0  0  0
 14  5  1  0  0  0  0
 15  5  1  0  0  0  0
 17  6  1  0  0  0  0
 18 19  1  0  0  0  0
 19 20  2  0  0  0  0
 19 24  1  0  0  0  0
 20 26  1  0  0  0  0
 21 20  1  0  0  0  0
 22 21  2  0  0  0  0
 23 22  1  0  0  0  0
 23 18  2  0  0  0  0
 25 22  1  0  0  0  0
 26 27  1  0  0  0  0
 27 28  2  0  0  0  0
 28 29  1  0  0  0  0
 30 28  1  0  0  0  0
 31 30  2  0  0  0  0
 32 26  2  0  0  0  0
 32 31  1  0  0  0  0
M  END
>  <minimizedAffinity>
-4.88283062

$$$$

 OpenBabel03272506193D

 32 34  0  0  0  0  0  0  0  0999 V2000
   35.1200   31.0860   33.6630 C   0  0  0  0  0  0  0  0  0  0  0  0
   35.4390   32.5410   33.3930 C   0  0  0  0  0  0  0  0  0  0  0  0
   36.5210   33.0850   34.2800 C   0  0  0  0  0  0  0  0  0  0  0  0
   36.2350   32.8790   35.7440 C   0  0  0  0  0  0  0  0  0  0  0  0
   35.6320   31.5440   36.0540 C   0  0  0  0  0  0  0  0  0  0  0  0
   35.7710   30.5710   34.9010 C   0  0  0  0  0  0  0  0  0  0  0  0
   34.0250   30.9140   33.7210 H   0  0  0  0  0  0  0  0  0  0  0  0
   34.5180   33.1460   33.6120 H   0  0  0  0  0  0  0  0  0  0  0  0
   35.6900   32.7410   32.3550 H   0  0  0  0  0  0  0  0  0  0  0  0
   37.4980   32.6080   34.0120 H   0  0  0  0  0  0  0  0  0  0  0  0
   36.5750   34.1760   34.0940 H   0  0  0  0  0  0  0  0  0  0  0  0
   35.6780   33.7380   36.1760 H   0  0  0  0  0  0  0  0  0  0  0  0
   37.2330   32.9010   36.2600 H   0  0  0  0  0  0  0  0  0  0  0  0
   34.5300   31.7230   36.1710 H   0  0  0  0  0  0  0  0  0  0  0  0
   35.9740   31.0940   36.9930 H   0  0  0  0  0  0  0  0  0  0  0  0
   36.8670   30.3850   34.7730 H   0  0  0  0  0  0  0  0  0  0  0  0
   35.3380   29.6110   35.1930 H   0  0  0  0  0  0  0  0  0  0  0  0
   35.6020   30.2460   32.5240 C   0  0  0  0  0  0  0  0  0  0  0  0
   35.6030   28.8480   32.7330 C   0  0  0  0  0  0  0  0  0  0  0  0
   36.0480   28.0520   31.6900 C   0  0  0  0  0  0  0  0  0  0  0  0
   36.4670   28.6380   30.5100 N   0  0  0  0  0  0  0  0  0  0  0  0
   36.4470   29.9980   30.3590 C   0  0  0  0  0  0  0  0  0  0  0  0
   36.0210   30.7790   31.3510 N   0  0  0  0  0  0  0  0  0  0  0  0
   35.3040   28.3350   33.6040 H   0  0  0  0  0  0  0  0  0  0  0  0
   36.7830   30.4180   29.4200 H   0  0  0  0  0  0  0  0  0  0  0  0
   36.1190   26.5980   31.7250 C   0  0  0  0  0  0  0  0  0  0  0  0
   37.0760   25.9110   32.4390 C   0  0  0  0  0  3  0  0  0  0  0  0
   37.1770   24.5330   32.5000 C   0  0  0  0  0  0  0  0  0  0  0  0
   37.9380   24.0240   33.0670 H   0  0  0  0  0  0  0  0  0  0  0  0
   36.2640   23.7950   31.8040 N   0  0  0  0  0  0  0  0  0  0  0  0
   35.3140   24.4710   31.0970 C   0  0  0  0  0  3  0  0  0  0  0  0
   35.2520   25.8110   31.0640 N   0  0  0  0  0  0  0  0  0  0  0  0
  1  7  1  0  0  0  0
  1  6  1  0  0  0  0
  2  8  1  0  0  0  0
  2  1  1  0  0  0  0
  2  3  1  0  0  0  0
  3  4  1  0  0  0  0
  4  5  1  0  0  0  0
  4 12  1  0  0  0  0
  4 13  1  0  0  0  0
  5 14  1  0  0  0  0
  5 15  1  0  0  0  0
  6 17  1  0  0  0  0
  6  5  1  0  0  0  0
  9  2  1  0  0  0  0
 10  3  1  0  0  0  0
 11  3  1  0  0  0  0
 16  6  1  0  0  0  0
 18 19  1  0  0  0  0
 18  1  1  0  0  0  0
 19 24  1  0  0  0  0
 20 26  1  0  0  0  0
 20 19  2  0  0  0  0
 21 20  1  0  0  0  0
 22 21  2  0  0  0  0
 22 23  1  0  0  0  0
 23 18  2  0  0  0  0
 25 22  1  0  0  0  0
 26 27  1  0  0  0  0
 27 28  2  0  0  0  0
 28 29  1  0  0  0  0
 30 28  1  0  0  0  0
 31 30  2  0  0  0  0
 32 31  1  0  0  0  0
 32 26  2  0  0  0  0
M  END
>  <minimizedAffinity>
-4.87292337

$$$$

 OpenBabel03272506193D

 32 34  0  0  0  0  0  0  0  0999 V2000
   38.7590   24.5290   35.7610 C   0  0  0  0  0  0  0  0  0  0  0  0
   40.0330   23.7450   35.9960 C   0  0  0  0  0  0  0  0  0  0  0  0
   39.8690   22.6330   36.9900 C   0  0  0  0  0  0  0  0  0  0  0  0
   39.2980   23.1000   38.3030 C   0  0  0  0  0  0  0  0  0  0  0  0
   38.2090   24.1180   38.1530 C   0  0  0  0  0  0  0  0  0  0  0  0
   37.6820   24.1880   36.7340 C   0  0  0  0  0  0  0  0  0  0  0  0
   38.9440   25.6230   35.7830 H   0  0  0  0  0  0  0  0  0  0  0  0
   40.7970   24.4450   36.4290 H   0  0  0  0  0  0  0  0  0  0  0  0
   40.4700   23.3510   35.0830 H   0  0  0  0  0  0  0  0  0  0  0  0
   39.2160   21.8350   36.5530 H   0  0  0  0  0  0  0  0  0  0  0  0
   40.8780   22.2210   37.1860 H   0  0  0  0  0  0  0  0  0  0  0  0
   40.0980   23.3950   39.0150 H   0  0  0  0  0  0  0  0  0  0  0  0
   38.8210   22.1970   38.7710 H   0  0  0  0  0  0  0  0  0  0  0  0
   38.6890   25.1130   38.3490 H   0  0  0  0  0  0  0  0  0  0  0  0
   37.3900   24.0220   38.8740 H   0  0  0  0  0  0  0  0  0  0  0  0
   37.2020   23.2000   36.5250 H   0  0  0  0  0  0  0  0  0  0  0  0
   36.8770   24.9260   36.6920 H   0  0  0  0  0  0  0  0  0  0  0  0
   38.2320   24.2350   34.3940 C   0  0  0  0  0  0  0  0  0  0  0  0
   37.7330   22.9300   34.1820 C   0  0  0  0  0  0  0  0  0  0  0  0
   37.2420   22.6360   32.9200 C   0  0  0  0  0  0  0  0  0  0  0  0
   37.2570   23.6060   31.9350 N   0  0  0  0  0  0  0  0  0  0  0  0
   37.7540   24.8560   32.1920 C   0  0  0  0  0  0  0  0  0  0  0  0
   38.2290   25.1560   33.3990 N   0  0  0  0  0  0  0  0  0  0  0  0
   37.6950   22.1420   34.8810 H   0  0  0  0  0  0  0  0  0  0  0  0
   37.7480   25.5870   31.3940 H   0  0  0  0  0  0  0  0  0  0  0  0
   36.6900   21.3490   32.5210 C   0  0  0  0  0  0  0  0  0  0  0  0
   35.3370   21.1100   32.4280 C   0  0  0  0  0  3  0  0  0  0  0  0
   34.7730   19.9040   32.0530 C   0  0  0  0  0  0  0  0  0  0  0  0
   33.7090   19.7470   31.9900 H   0  0  0  0  0  0  0  0  0  0  0  0
   35.6140   18.8720   31.7530 N   0  0  0  0  0  0  0  0  0  0  0  0
   36.9540   19.1040   31.8440 C   0  0  0  0  0  3  0  0  0  0  0  0
   37.4600   20.2910   32.2130 N   0  0  0  0  0  0  0  0  0  0  0  0
  1  7  1  0  0  0  0
  1  2  1  0  0  0  0
  1  6  1  0  0  0  0
  2  8  1  0  0  0  0
  2  3  1  0  0  0  0
  3 11  1  0  0  0  0
  3  4  1  0  0  0  0
  4 13  1  0  0  0  0
  4 12  1  0  0  0  0
  5  4  1  0  0  0  0
  5 14  1  0  0  0  0
  5 15  1  0  0  0  0
  6  5  1  0  0  0  0
  9  2  1  0  0  0  0
 10  3  1  0  0  0  0
 16  6  1  0  0  0  0
 17  6  1  0  0  0  0
 18  1  1  0  0  0  0
 19 18  1  0  0  0  0
 19 24  1  0  0  0  0
 20 19  2  0  0  0  0
 21 22  2  0  0  0  0
 21 20  1  0  0  0  0
 22 23  1  0  0  0  0
 23 18  2  0  0  0  0
 25 22  1  0  0  0  0
 26 20  1  0  0  0  0
 27 26  1  0  0  0  0
 28 27  2  0  0  0  0
 29 28  1  0  0  0  0
 30 31  2  0  0  0  0
 30 28  1  0  0  0  0
 31 32  1  0  0  0  0
 32 26  2  0  0  0  0
M  END
>  <minimizedAffinity>
-4.85867214

$$$$
