
 OpenBabel03262522063D

 38 41  0  0  1  0  0  0  0  0999 V2000
   34.5420   29.1130   48.6620 C   0  0  2  0  0  0  0  0  0  0  0  0
   35.1780   28.3800   49.7910 C   0  0  0  0  0  0  0  0  0  0  0  0
   36.3070   29.1570   50.2930 N   0  0  0  0  0  0  0  0  0  0  0  0
   37.2580   29.8900   51.0900 C   0  0  0  0  0  0  0  0  0  0  0  0
   37.4650   30.0660   52.3020 O   0  0  0  0  0  0  0  0  0  0  0  0
   37.9780   30.4230   49.9690 C   0  0  1  0  0  0  0  0  0  0  0  0
   37.1570   29.4200   49.1660 C   0  0  2  0  0  0  0  0  0  0  0  0
   35.9470   30.1320   48.0290 S   0  0  0  0  0  0  0  0  0  0  0  0
   34.4370   28.3030   50.6160 H   0  0  0  0  0  0  0  0  0  0  0  0
   35.4780   27.3460   49.5320 H   0  0  0  0  0  0  0  0  0  0  0  0
   39.0360   30.0950   49.8600 H   0  0  0  0  0  0  0  0  0  0  0  0
   37.7050   28.5580   48.7580 H   0  0  0  0  0  0  0  0  0  0  0  0
   33.3320   29.9170   48.9890 C   0  0  0  0  0  0  0  0  0  0  0  0
   32.4010   29.3630   48.8120 H   0  0  0  0  0  0  0  0  0  0  0  0
   33.4320   30.2800   50.0420 H   0  0  0  0  0  0  0  0  0  0  0  0
   33.2790   30.8140   48.3050 H   0  0  0  0  0  0  0  0  0  0  0  0
   34.2690   28.1070   47.5270 C   0  0  0  0  0  0  0  0  0  0  0  0
   33.2620   27.6550   47.6290 H   0  0  0  0  0  0  0  0  0  0  0  0
   35.0400   27.3300   47.4970 H   0  0  0  0  0  0  0  0  0  0  0  0
   34.3140   28.7910   46.3110 O   0  0  0  0  0  0  0  0  0  0  0  0
   34.1440   29.7530   46.3930 H   0  0  0  0  0  0  0  0  0  0  0  0
   37.7540   31.8440   49.6410 C   0  0  0  0  0  0  0  0  0  0  0  0
   36.7370   32.3400   50.2280 O   0  0  0  0  0  0  0  0  0  0  0  0
   38.5820   32.6100   48.7630 C   0  0  0  0  0  0  0  0  0  0  0  0
   39.1540   33.7660   49.2390 C   0  0  0  0  0  0  0  0  0  0  0  0
   39.9660   34.5180   48.3590 C   0  0  0  0  0  0  0  0  0  0  0  0
   40.1330   34.0500   47.0860 N   0  0  0  0  0  0  0  0  0  0  0  0
   39.5670   32.9260   46.6520 C   0  0  0  0  0  0  0  0  0  0  0  0
   38.7890   32.2010   47.4880 N   0  0  0  0  0  0  0  0  0  0  0  0
   39.0220   34.1340   50.2420 H   0  0  0  0  0  0  0  0  0  0  0  0
   40.4160   35.4260   48.7310 H   0  0  0  0  0  0  0  0  0  0  0  0
   39.7710   32.4600   45.2840 C   0  0  0  0  0  0  0  0  0  0  0  0
   40.4520   31.2860   45.0390 C   0  0  0  0  0  0  0  0  0  0  0  0
   40.6250   30.8780   43.7280 C   0  0  0  0  0  0  0  0  0  0  0  0
   41.1680   29.9460   43.6090 H   0  0  0  0  0  0  0  0  0  0  0  0
   40.1420   31.6070   42.7050 N   0  0  0  0  0  0  0  0  0  0  0  0
   39.4770   32.7590   42.9770 C   0  0  0  0  0  0  0  0  0  0  0  0
   39.3020   33.1670   44.2500 N   0  0  0  0  0  0  0  0  0  0  0  0
  1 17  1  6  0  0  0
  1 13  1  0  0  0  0
  1  2  1  0  0  0  0
  2  3  1  0  0  0  0
  2  9  1  0  0  0  0
  3  4  1  0  0  0  0
  4  5  2  0  0  0  0
  6 11  1  1  0  0  0
  6  4  1  0  0  0  0
  7 12  1  6  0  0  0
  7  6  1  0  0  0  0
  7  3  1  0  0  0  0
  8  1  1  0  0  0  0
  8  7  1  0  0  0  0
 10  2  1  0  0  0  0
 13 15  1  0  0  0  0
 14 13  1  0  0  0  0
 16 13  1  0  0  0  0
 17 18  1  0  0  0  0
 19 17  1  0  0  0  0
 20 21  1  0  0  0  0
 20 17  1  0  0  0  0
 22  6  1  0  0  0  0
 22 23  2  0  0  0  0
 24 25  1  0  0  0  0
 24 22  1  0  0  0  0
 25 30  1  0  0  0  0
 26 31  1  0  0  0  0
 26 25  2  0  0  0  0
 27 26  1  0  0  0  0
 28 27  2  0  0  0  0
 28 29  1  0  0  0  0
 29 24  2  0  0  0  0
 32 28  1  0  0  0  0
 33 32  1  0  0  0  0
 34 33  2  0  0  0  0
 35 34  1  0  0  0  0
 36 37  2  0  0  0  0
 36 34  1  0  0  0  0
 37 38  1  0  0  0  0
 38 32  2  0  0  0  0
M  END
>  <minimizedAffinity>
-6.02089834

>  <minimizedRMSD>
0.207587227

$$$$
