
 OpenBabel03272510173D

 26 28  0  0  0  0  0  0  0  0999 V2000
   37.1750   29.5600   51.2200 Br  0  0  0  0  0  0  0  0  0  0  0  0
   36.0000   29.3210   49.7380 C   0  0  0  0  0  0  0  0  0  0  0  0
   36.1120   30.1220   48.6030 C   0  0  0  0  0  0  0  0  0  0  0  0
   35.2300   29.8940   47.5740 C   0  0  0  0  0  0  0  0  0  0  0  0
   34.2510   28.9200   47.6140 C   0  0  0  0  0  0  0  0  0  0  0  0
   34.1650   28.1490   48.7430 C   0  0  0  0  0  0  0  0  0  0  0  0
   35.0380   28.3570   49.7880 C   0  0  0  0  0  0  0  0  0  0  0  0
   35.3290   30.5240   46.7000 H   0  0  0  0  0  0  0  0  0  0  0  0
   33.4390   27.3600   48.8810 H   0  0  0  0  0  0  0  0  0  0  0  0
   34.9740   27.7470   50.6850 H   0  0  0  0  0  0  0  0  0  0  0  0
   37.9630   33.1620   49.4040 C   0  0  0  0  0  0  0  0  0  0  0  0
   39.0130   33.1680   48.4350 C   0  0  0  0  0  0  0  0  0  0  0  0
   39.0600   32.1230   47.5260 C   0  0  0  0  0  0  0  0  0  0  0  0
   38.1080   31.1430   47.5980 N   0  0  0  0  0  0  0  0  0  0  0  0
   37.1260   31.1620   48.5230 C   0  0  0  0  0  0  0  0  0  0  0  0
   37.0590   32.1780   49.4270 N   0  0  0  0  0  0  0  0  0  0  0  0
   37.8560   33.9340   50.1430 H   0  0  0  0  0  0  0  0  0  0  0  0
   39.7170   33.9780   48.4530 H   0  0  0  0  0  0  0  0  0  0  0  0
   39.8450   32.1070   46.7840 H   0  0  0  0  0  0  0  0  0  0  0  0
   33.3170   28.6780   46.5260 C   0  0  0  0  0  0  0  0  0  0  0  0
   32.1160   29.3360   46.3600 C   0  0  0  0  0  3  0  0  0  0  0  0
   31.2570   29.0710   45.3060 C   0  0  0  0  0  0  0  0  0  0  0  0
   30.3380   29.6370   45.2570 H   0  0  0  0  0  0  0  0  0  0  0  0
   31.5890   28.1420   44.4020 N   0  0  0  0  0  0  0  0  0  0  0  0
   32.7590   27.4920   44.5520 C   0  0  0  0  0  3  0  0  0  0  0  0
   33.5760   27.7610   45.5770 N   0  0  0  0  0  0  0  0  0  0  0  0
  2  7  1  0  0  0  0
  2  1  1  0  0  0  0
  3  2  2  0  0  0  0
  4  5  2  0  0  0  0
  4  3  1  0  0  0  0
  5  6  1  0  0  0  0
  6  9  1  0  0  0  0
  6  7  2  0  0  0  0
  7 10  1  0  0  0  0
  8  4  1  0  0  0  0
 11 16  1  0  0  0  0
 11 17  1  0  0  0  0
 12 18  1  0  0  0  0
 12 11  2  0  0  0  0
 13 14  2  0  0  0  0
 13 12  1  0  0  0  0
 14 15  1  0  0  0  0
 15  3  1  0  0  0  0
 15 16  2  0  0  0  0
 19 13  1  0  0  0  0
 20  5  1  0  0  0  0
 21 20  1  0  0  0  0
 22 21  2  0  0  0  0
 23 22  1  0  0  0  0
 24 25  2  0  0  0  0
 24 22  1  0  0  0  0
 25 26  1  0  0  0  0
 26 20  2  0  0  0  0
M  END
>  <minimizedAffinity>
-5.78746605

>  <minimizedRMSD>
0.465155065

$$$$
