
 OpenBabel03272506513D

 32 34  0  0  1  0  0  0  0  0999 V2000
   34.7030   30.4350   48.8630 C   0  0  1  0  0  0  0  0  0  0  0  0
   33.8050   30.4570   47.7160 C   0  0  0  0  0  0  0  0  0  0  0  0
   33.6130   29.1660   46.9670 C   0  0  0  0  0  0  0  0  0  0  0  0
   33.5600   27.9560   47.8240 C   0  0  2  0  0  0  0  0  0  0  0  0
   34.5050   27.8970   48.9750 C   0  0  0  0  0  0  0  0  0  0  0  0
   34.5220   29.1990   49.7100 C   0  0  0  0  0  0  0  0  0  0  0  0
   34.3930   31.2680   49.5740 H   0  0  0  0  0  0  0  0  0  0  0  0
   32.7630   30.6590   48.1340 H   0  0  0  0  0  0  0  0  0  0  0  0
   33.9260   31.2430   46.9780 H   0  0  0  0  0  0  0  0  0  0  0  0
   32.6730   29.2100   46.3820 H   0  0  0  0  0  0  0  0  0  0  0  0
   34.4670   29.0750   46.2620 H   0  0  0  0  0  0  0  0  0  0  0  0
   32.5320   27.8810   48.2560 H   0  0  0  0  0  0  0  0  0  0  0  0
   35.5050   27.6020   48.5870 H   0  0  0  0  0  0  0  0  0  0  0  0
   34.1390   27.1340   49.6700 H   0  0  0  0  0  0  0  0  0  0  0  0
   33.4330   29.3020   50.0340 H   0  0  0  0  0  0  0  0  0  0  0  0
   35.0400   29.1940   50.6610 H   0  0  0  0  0  0  0  0  0  0  0  0
   36.6900   30.6500   47.3140 C   0  0  0  0  0  0  0  0  0  0  0  0
   36.1260   30.7560   48.6040 C   0  0  0  0  0  0  0  0  0  0  0  0
   36.9480   31.1800   49.6300 C   0  0  0  0  0  0  0  0  0  0  0  0
   38.2610   31.4740   49.3480 N   0  0  0  0  0  0  0  0  0  0  0  0
   38.7620   31.3590   48.0910 C   0  0  0  0  0  0  0  0  0  0  0  0
   37.9660   30.9470   47.0890 N   0  0  0  0  0  0  0  0  0  0  0  0
   36.1150   30.3270   46.4600 H   0  0  0  0  0  0  0  0  0  0  0  0
   36.6310   31.2990   50.6550 H   0  0  0  0  0  0  0  0  0  0  0  0
   39.8090   31.6190   47.9950 H   0  0  0  0  0  0  0  0  0  0  0  0
   33.8000   26.7350   47.0130 C   0  0  0  0  0  0  0  0  0  0  0  0
   33.9490   26.8190   45.6410 C   0  0  0  0  0  0  0  0  0  0  0  0
   34.1730   25.6440   44.9180 C   0  0  0  0  0  0  0  0  0  0  0  0
   34.2930   25.6760   43.8430 H   0  0  0  0  0  0  0  0  0  0  0  0
   34.2360   24.4770   45.5900 N   0  0  0  0  0  0  0  0  0  0  0  0
   34.0940   24.3900   46.9070 C   0  0  0  0  0  0  0  0  0  0  0  0
   33.8800   25.5050   47.6000 N   0  0  0  0  0  0  0  0  0  0  0  0
  1  7  1  1  0  0  0
  1  6  1  0  0  0  0
  2  8  1  0  0  0  0
  2  1  1  0  0  0  0
  3  2  1  0  0  0  0
  3  4  1  0  0  0  0
  4 12  1  1  0  0  0
  4  5  1  0  0  0  0
  5 14  1  0  0  0  0
  5  6  1  0  0  0  0
  6 15  1  0  0  0  0
  6 16  1  0  0  0  0
  9  2  1  0  0  0  0
 10  3  1  0  0  0  0
 11  3  1  0  0  0  0
 13  5  1  0  0  0  0
 17 18  1  0  0  0  0
 18  1  1  0  0  0  0
 18 19  2  0  0  0  0
 19 24  1  0  0  0  0
 20 19  1  0  0  0  0
 21 20  2  0  0  0  0
 22 17  2  0  0  0  0
 22 21  1  0  0  0  0
 23 17  1  0  0  0  0
 25 21  1  0  0  0  0
 26 32  1  0  0  0  0
 26  4  1  0  0  0  0
 27 26  2  0  0  0  0
 28 30  2  0  0  0  0
 28 27  1  0  0  0  0
 29 28  1  0  0  0  0
 30 31  1  0  0  0  0
 31 32  2  0  0  0  0
M  END
>  <minimizedAffinity>
-4.45739365

>  <minimizedRMSD>
1.42141461

$$$$
