
 OpenBabel03272506473D

 40 43  0  0  1  0  0  0  0  0999 V2000
   32.1760   28.4710   47.4750 C   0  0  2  0  0  0  0  0  0  0  0  0
   33.4330   28.2690   48.2680 C   0  0  1  0  0  0  0  0  0  0  0  0
   33.8070   26.9660   48.1380 O   0  0  0  0  0  0  0  0  0  0  0  0
   33.0700   26.3720   47.1190 C   0  0  0  0  0  0  0  0  0  0  0  0
   32.4670   27.4890   46.3000 C   0  0  1  0  0  0  0  0  0  0  0  0
   31.2590   28.1340   47.9510 H   0  0  0  0  0  0  0  0  0  0  0  0
   33.2870   28.5630   49.3310 H   0  0  0  0  0  0  0  0  0  0  0  0
   32.3720   25.7000   47.5990 H   0  0  0  0  0  0  0  0  0  0  0  0
   33.7810   25.7730   46.4660 H   0  0  0  0  0  0  0  0  0  0  0  0
   33.2040   27.9570   45.6540 H   0  0  0  0  0  0  0  0  0  0  0  0
   32.1140   29.7860   46.9720 O   0  0  0  0  0  0  0  0  0  0  0  0
   32.5320   30.4050   47.6210 H   0  0  0  0  0  0  0  0  0  0  0  0
   34.7440   29.3070   47.5040 S   0  0  0  0  0  0  0  0  0  0  0  0
   37.1320   29.2940   50.6650 C   0  0  0  0  0  0  0  0  0  0  0  0
   37.6020   30.6010   50.7740 C   0  0  0  0  0  0  0  0  0  0  0  0
   37.1590   31.5340   49.8200 C   0  0  0  0  0  0  0  0  0  0  0  0
   36.3010   31.1150   48.8510 N   0  0  0  0  0  0  0  0  0  0  0  0
   35.8720   29.8360   48.7880 C   0  0  0  0  0  0  0  0  0  0  0  0
   36.2810   28.9080   49.6910 N   0  0  0  0  0  0  0  0  0  0  0  0
   37.5060   28.6200   51.4240 H   0  0  0  0  0  0  0  0  0  0  0  0
   38.2830   30.8890   51.5610 H   0  0  0  0  0  0  0  0  0  0  0  0
   37.4930   32.5610   49.8590 H   0  0  0  0  0  0  0  0  0  0  0  0
   31.3040   27.0470   45.7220 O   0  0  0  0  0  0  0  0  0  0  0  0
   30.0190   29.3370   44.3940 Cl  0  0  0  0  0  0  0  0  0  0  0  0
   29.3730   28.3030   45.6470 C   0  0  0  0  0  0  0  0  0  0  0  0
   30.0730   27.2460   46.1840 C   0  0  0  0  0  0  0  0  0  0  0  0
   29.4420   26.4720   47.1600 C   0  0  0  0  0  0  0  0  0  0  0  0
   28.1580   26.7650   47.5680 C   0  0  0  0  0  0  0  0  0  0  0  0
   27.4480   27.8260   47.0320 C   0  0  0  0  0  0  0  0  0  0  0  0
   28.0710   28.5920   46.0670 C   0  0  0  0  0  0  0  0  0  0  0  0
   29.9020   25.6240   47.6360 H   0  0  0  0  0  0  0  0  0  0  0  0
   27.6720   26.1660   48.3220 H   0  0  0  0  0  0  0  0  0  0  0  0
   26.4490   28.0030   47.3910 H   0  0  0  0  0  0  0  0  0  0  0  0
   27.3750   29.7230   45.4650 C   0  0  0  0  0  0  0  0  0  0  0  0
   26.7090   29.6570   44.2690 C   0  0  0  0  0  3  0  0  0  0  0  0
   26.0450   30.7250   43.6880 C   0  0  0  0  0  0  0  0  0  0  0  0
   25.5320   30.6400   42.7480 H   0  0  0  0  0  0  0  0  0  0  0  0
   26.0410   31.9150   44.3250 N   0  0  0  0  0  0  0  0  0  0  0  0
   26.6880   32.0020   45.5020 C   0  0  0  0  0  3  0  0  0  0  0  0
   27.3240   30.9450   46.0390 N   0  0  0  0  0  0  0  0  0  0  0  0
  1  6  1  1  0  0  0
  1  2  1  0  0  0  0
  2  7  1  1  0  0  0
  3  2  1  0  0  0  0
  4  8  1  0  0  0  0
  4  3  1  0  0  0  0
  5 10  1  6  0  0  0
  5  4  1  0  0  0  0
  5  1  1  0  0  0  0
  9  4  1  0  0  0  0
 11  1  1  0  0  0  0
 11 12  1  0  0  0  0
 13  2  1  0  0  0  0
 13 18  1  0  0  0  0
 14 15  1  0  0  0  0
 14 20  1  0  0  0  0
 15 21  1  0  0  0  0
 16 22  1  0  0  0  0
 16 15  2  0  0  0  0
 17 16  1  0  0  0  0
 18 17  2  0  0  0  0
 18 19  1  0  0  0  0
 19 14  2  0  0  0  0
 23 26  1  0  0  0  0
 23  5  1  0  0  0  0
 24 25  1  0  0  0  0
 25 30  2  0  0  0  0
 25 26  1  0  0  0  0
 26 27  2  0  0  0  0
 27 28  1  0  0  0  0
 27 31  1  0  0  0  0
 28 32  1  0  0  0  0
 29 33  1  0  0  0  0
 29 28  2  0  0  0  0
 30 29  1  0  0  0  0
 34 40  1  0  0  0  0
 34 30  1  0  0  0  0
 35 34  2  0  0  0  0
 36 35  1  0  0  0  0
 36 38  2  0  0  0  0
 37 36  1  0  0  0  0
 38 39  1  0  0  0  0
 39 40  2  0  0  0  0
M  END
>  <minimizedAffinity>
-5.40124989

>  <minimizedRMSD>
0.353273422

$$$$
