
 OpenBabel03272510163D

 26 28  0  0  0  0  0  0  0  0999 V2000
   37.3110   29.3340   51.0280 Br  0  0  0  0  0  0  0  0  0  0  0  0
   35.9650   29.3290   49.6780 C   0  0  0  0  0  0  0  0  0  0  0  0
   35.9940   30.2560   48.6380 C   0  0  0  0  0  0  0  0  0  0  0  0
   34.9900   30.1940   47.7020 C   0  0  0  0  0  0  0  0  0  0  0  0
   33.9670   29.2670   47.7450 C   0  0  0  0  0  0  0  0  0  0  0  0
   33.9650   28.3690   48.7800 C   0  0  0  0  0  0  0  0  0  0  0  0
   34.9600   28.4100   49.7320 C   0  0  0  0  0  0  0  0  0  0  0  0
   35.0270   30.9200   46.9010 H   0  0  0  0  0  0  0  0  0  0  0  0
   33.2140   27.6020   48.9120 H   0  0  0  0  0  0  0  0  0  0  0  0
   34.9630   27.7000   50.5530 H   0  0  0  0  0  0  0  0  0  0  0  0
   37.9930   33.1950   49.4620 C   0  0  0  0  0  0  0  0  0  0  0  0
   39.0240   33.1750   48.4720 C   0  0  0  0  0  0  0  0  0  0  0  0
   39.0070   32.1480   47.5420 C   0  0  0  0  0  0  0  0  0  0  0  0
   38.0150   31.2090   47.6130 N   0  0  0  0  0  0  0  0  0  0  0  0
   37.0520   31.2520   48.5580 C   0  0  0  0  0  0  0  0  0  0  0  0
   37.0480   32.2510   49.4830 N   0  0  0  0  0  0  0  0  0  0  0  0
   37.9350   33.9560   50.2180 H   0  0  0  0  0  0  0  0  0  0  0  0
   39.7630   33.9530   48.4920 H   0  0  0  0  0  0  0  0  0  0  0  0
   39.7770   32.1120   46.7840 H   0  0  0  0  0  0  0  0  0  0  0  0
   32.9040   29.2000   46.7560 C   0  0  0  0  0  0  0  0  0  0  0  0
   32.2650   28.0430   46.3650 C   0  0  0  0  0  3  0  0  0  0  0  0
   31.2550   28.0280   45.4160 C   0  0  0  0  0  0  0  0  0  0  0  0
   30.8130   27.0730   45.1730 H   0  0  0  0  0  0  0  0  0  0  0  0
   30.8710   29.1750   44.8450 N   0  0  0  0  0  0  0  0  0  0  0  0
   31.4870   30.3140   45.2190 C   0  0  0  0  0  3  0  0  0  0  0  0
   32.4590   30.3080   46.1360 N   0  0  0  0  0  0  0  0  0  0  0  0
  2  7  1  0  0  0  0
  2  1  1  0  0  0  0
  3  2  2  0  0  0  0
  4  5  2  0  0  0  0
  4  3  1  0  0  0  0
  5  6  1  0  0  0  0
  6  9  1  0  0  0  0
  6  7  2  0  0  0  0
  7 10  1  0  0  0  0
  8  4  1  0  0  0  0
 11 16  1  0  0  0  0
 11 17  1  0  0  0  0
 12 18  1  0  0  0  0
 12 11  2  0  0  0  0
 13 14  2  0  0  0  0
 13 12  1  0  0  0  0
 14 15  1  0  0  0  0
 15  3  1  0  0  0  0
 15 16  2  0  0  0  0
 19 13  1  0  0  0  0
 20  5  1  0  0  0  0
 21 20  1  0  0  0  0
 22 21  2  0  0  0  0
 23 22  1  0  0  0  0
 24 25  2  0  0  0  0
 24 22  1  0  0  0  0
 25 26  1  0  0  0  0
 26 20  2  0  0  0  0
M  END
>  <minimizedAffinity>
-5.89336252

>  <minimizedRMSD>
0.27559039

$$$$
