
 OpenBabel03272510173D

 26 28  0  0  0  0  0  0  0  0999 V2000
   37.4150   29.1930   50.8600 Br  0  0  0  0  0  0  0  0  0  0  0  0
   36.0130   29.2680   49.5690 C   0  0  0  0  0  0  0  0  0  0  0  0
   36.0020   30.2530   48.5840 C   0  0  0  0  0  0  0  0  0  0  0  0
   34.9590   30.2460   47.6880 C   0  0  0  0  0  0  0  0  0  0  0  0
   33.9360   29.3180   47.7210 C   0  0  0  0  0  0  0  0  0  0  0  0
   33.9740   28.3620   48.7010 C   0  0  0  0  0  0  0  0  0  0  0  0
   35.0080   28.3480   49.6110 C   0  0  0  0  0  0  0  0  0  0  0  0
   34.9650   31.0170   46.9300 H   0  0  0  0  0  0  0  0  0  0  0  0
   33.2270   27.5900   48.8200 H   0  0  0  0  0  0  0  0  0  0  0  0
   35.0430   27.5910   50.3890 H   0  0  0  0  0  0  0  0  0  0  0  0
   38.0010   33.1790   49.4500 C   0  0  0  0  0  0  0  0  0  0  0  0
   39.0290   33.1770   48.4570 C   0  0  0  0  0  0  0  0  0  0  0  0
   39.0100   32.1650   47.5110 C   0  0  0  0  0  0  0  0  0  0  0  0
   38.0180   31.2250   47.5690 N   0  0  0  0  0  0  0  0  0  0  0  0
   37.0590   31.2510   48.5170 C   0  0  0  0  0  0  0  0  0  0  0  0
   37.0560   32.2340   49.4590 N   0  0  0  0  0  0  0  0  0  0  0  0
   37.9440   33.9270   50.2190 H   0  0  0  0  0  0  0  0  0  0  0  0
   39.7680   33.9550   48.4880 H   0  0  0  0  0  0  0  0  0  0  0  0
   39.7770   32.1430   46.7500 H   0  0  0  0  0  0  0  0  0  0  0  0
   32.8330   29.3100   46.7740 C   0  0  0  0  0  0  0  0  0  0  0  0
   32.4740   30.3750   45.9740 C   0  0  0  0  0  3  0  0  0  0  0  0
   31.4120   30.3200   45.0850 C   0  0  0  0  0  0  0  0  0  0  0  0
   31.2070   31.2050   44.5000 H   0  0  0  0  0  0  0  0  0  0  0  0
   30.6940   29.1960   44.9860 N   0  0  0  0  0  0  0  0  0  0  0  0
   31.0330   28.1480   45.7620 C   0  0  0  0  0  3  0  0  0  0  0  0
   32.0600   28.2200   46.6140 N   0  0  0  0  0  0  0  0  0  0  0  0
  2  7  1  0  0  0  0
  2  1  1  0  0  0  0
  3  2  2  0  0  0  0
  4  5  2  0  0  0  0
  4  3  1  0  0  0  0
  5  6  1  0  0  0  0
  6  9  1  0  0  0  0
  6  7  2  0  0  0  0
  7 10  1  0  0  0  0
  8  4  1  0  0  0  0
 11 16  1  0  0  0  0
 11 17  1  0  0  0  0
 12 18  1  0  0  0  0
 12 11  2  0  0  0  0
 13 14  2  0  0  0  0
 13 12  1  0  0  0  0
 14 15  1  0  0  0  0
 15  3  1  0  0  0  0
 15 16  2  0  0  0  0
 19 13  1  0  0  0  0
 20  5  1  0  0  0  0
 21 20  2  0  0  0  0
 22 21  1  0  0  0  0
 23 22  1  0  0  0  0
 24 22  2  0  0  0  0
 24 25  1  0  0  0  0
 25 26  2  0  0  0  0
 26 20  1  0  0  0  0
M  END
>  <minimizedAffinity>
-5.87216711

>  <minimizedRMSD>
0.248992652

$$$$
