
 OpenBabel03272506353D

 17 18  0  0  0  0  0  0  0  0999 V2000
   38.9770   23.1650   37.8570 C   0  0  0  0  0  0  0  0  0  0  0  0
   40.2340   22.6680   37.4580 C   0  0  0  0  0  0  0  0  0  0  0  0
   40.7860   23.1200   36.2680 C   0  0  0  0  0  0  0  0  0  0  0  0
   40.0780   24.0320   35.5310 N   0  0  0  0  0  0  0  0  0  0  0  0
   38.8740   24.4890   35.9410 C   0  0  0  0  0  0  0  0  0  0  0  0
   38.3380   24.0640   37.0770 N   0  0  0  0  0  0  0  0  0  0  0  0
   40.8130   21.9490   38.0200 H   0  0  0  0  0  0  0  0  0  0  0  0
   41.7600   22.7660   35.9120 H   0  0  0  0  0  0  0  0  0  0  0  0
   38.1730   25.4590   35.1120 C   0  0  0  0  0  0  0  0  0  0  0  0
   37.9030   26.7250   35.5890 C   0  0  0  0  0  3  0  0  0  0  0  0
   37.2330   27.6970   34.8380 C   0  0  0  0  0  0  0  0  0  0  0  0
   37.0610   28.6760   35.2970 H   0  0  0  0  0  0  0  0  0  0  0  0
   36.8610   27.3300   33.6150 N   0  0  0  0  0  0  0  0  0  0  0  0
   37.1090   26.1040   33.1190 C   0  0  0  0  0  3  0  0  0  0  0  0
   37.7630   25.1710   33.8660 N   0  0  0  0  0  0  0  0  0  0  0  0
   38.5580   22.6270   39.0570 O   0  0  0  0  0  0  0  0  0  0  0  0
   37.5740   22.7480   39.2990 H   0  0  0  0  0  0  0  0  0  0  0  0
  1 16  1  0  0  0  0
  2  1  1  0  0  0  0
  2  7  1  0  0  0  0
  3  2  2  0  0  0  0
  4  5  2  0  0  0  0
  4  3  1  0  0  0  0
  5  6  1  0  0  0  0
  6  1  2  0  0  0  0
  8  3  1  0  0  0  0
  9 10  1  0  0  0  0
  9  5  1  0  0  0  0
 11 12  1  0  0  0  0
 11 10  2  0  0  0  0
 13 11  1  0  0  0  0
 14 13  2  0  0  0  0
 14 15  1  0  0  0  0
 15  9  2  0  0  0  0
 16 17  1  0  0  0  0
M  END
>  <minimizedAffinity>
-4.42458057

$$$$

 OpenBabel03272506353D

 17 18  0  0  0  0  0  0  0  0999 V2000
   39.6170   22.7680   37.5790 C   0  0  0  0  0  0  0  0  0  0  0  0
   38.9340   23.2970   38.6930 C   0  0  0  0  0  0  0  0  0  0  0  0
   38.0040   24.3060   38.4920 C   0  0  0  0  0  0  0  0  0  0  0  0
   37.7920   24.7450   37.2120 N   0  0  0  0  0  0  0  0  0  0  0  0
   38.4620   24.2180   36.1640 C   0  0  0  0  0  0  0  0  0  0  0  0
   39.3540   23.2530   36.3450 N   0  0  0  0  0  0  0  0  0  0  0  0
   39.0830   22.9690   39.7120 H   0  0  0  0  0  0  0  0  0  0  0  0
   37.4470   24.7520   39.3240 H   0  0  0  0  0  0  0  0  0  0  0  0
   38.1900   24.7290   34.8280 C   0  0  0  0  0  0  0  0  0  0  0  0
   37.6110   25.9690   34.6560 C   0  0  0  0  0  3  0  0  0  0  0  0
   37.3270   26.5110   33.3980 C   0  0  0  0  0  0  0  0  0  0  0  0
   36.8660   27.5030   33.3550 H   0  0  0  0  0  0  0  0  0  0  0  0
   37.6500   25.7520   32.3530 N   0  0  0  0  0  0  0  0  0  0  0  0
   38.2160   24.5390   32.4860 C   0  0  0  0  0  3  0  0  0  0  0  0
   38.4850   24.0290   33.7210 N   0  0  0  0  0  0  0  0  0  0  0  0
   40.5070   21.7750   37.9330 O   0  0  0  0  0  0  0  0  0  0  0  0
   41.2000   21.5060   37.2330 H   0  0  0  0  0  0  0  0  0  0  0  0
  1 16  1  0  0  0  0
  1  2  1  0  0  0  0
  2  7  1  0  0  0  0
  3  2  2  0  0  0  0
  3  8  1  0  0  0  0
  4  3  1  0  0  0  0
  5  6  1  0  0  0  0
  5  4  2  0  0  0  0
  6  1  2  0  0  0  0
  9  5  1  0  0  0  0
 10  9  1  0  0  0  0
 11 10  2  0  0  0  0
 12 11  1  0  0  0  0
 13 14  2  0  0  0  0
 13 11  1  0  0  0  0
 14 15  1  0  0  0  0
 15  9  2  0  0  0  0
 17 16  1  0  0  0  0
M  END
>  <minimizedAffinity>
-4.34064388

$$$$

 OpenBabel03272506353D

 17 18  0  0  0  0  0  0  0  0999 V2000
   38.9550   23.1350   37.8330 C   0  0  0  0  0  0  0  0  0  0  0  0
   40.2270   22.6580   37.4550 C   0  0  0  0  0  0  0  0  0  0  0  0
   40.7760   23.0900   36.2570 C   0  0  0  0  0  0  0  0  0  0  0  0
   40.0520   23.9640   35.4910 N   0  0  0  0  0  0  0  0  0  0  0  0
   38.8350   24.4040   35.8810 C   0  0  0  0  0  0  0  0  0  0  0  0
   38.3010   23.9970   37.0250 N   0  0  0  0  0  0  0  0  0  0  0  0
   40.8190   21.9680   38.0410 H   0  0  0  0  0  0  0  0  0  0  0  0
   41.7610   22.7490   35.9170 H   0  0  0  0  0  0  0  0  0  0  0  0
   38.1160   25.3330   35.0210 C   0  0  0  0  0  0  0  0  0  0  0  0
   37.8850   25.0280   33.6960 C   0  0  0  0  0  3  0  0  0  0  0  0
   37.2010   25.8820   32.8240 C   0  0  0  0  0  0  0  0  0  0  0  0
   37.0640   25.5580   31.7870 H   0  0  0  0  0  0  0  0  0  0  0  0
   36.7760   27.0280   33.3490 N   0  0  0  0  0  0  0  0  0  0  0  0
   36.9840   27.3560   34.6370 C   0  0  0  0  0  3  0  0  0  0  0  0
   37.6530   26.5110   35.4700 N   0  0  0  0  0  0  0  0  0  0  0  0
   38.5420   22.6200   39.0450 O   0  0  0  0  0  0  0  0  0  0  0  0
   37.5530   22.7250   39.2770 H   0  0  0  0  0  0  0  0  0  0  0  0
  1 16  1  0  0  0  0
  2  1  1  0  0  0  0
  2  7  1  0  0  0  0
  3  2  2  0  0  0  0
  4  5  2  0  0  0  0
  4  3  1  0  0  0  0
  5  6  1  0  0  0  0
  6  1  2  0  0  0  0
  8  3  1  0  0  0  0
  9 15  1  0  0  0  0
  9  5  1  0  0  0  0
 10  9  2  0  0  0  0
 11 13  2  0  0  0  0
 11 10  1  0  0  0  0
 12 11  1  0  0  0  0
 13 14  1  0  0  0  0
 14 15  2  0  0  0  0
 16 17  1  0  0  0  0
M  END
>  <minimizedAffinity>
-4.26285076

$$$$

 OpenBabel03272506353D

 17 18  0  0  0  0  0  0  0  0999 V2000
   39.8210   22.2840   37.3080 C   0  0  0  0  0  0  0  0  0  0  0  0
   39.2040   23.2130   38.1710 C   0  0  0  0  0  0  0  0  0  0  0  0
   38.1820   24.0100   37.6780 C   0  0  0  0  0  0  0  0  0  0  0  0
   37.8180   23.8580   36.3670 N   0  0  0  0  0  0  0  0  0  0  0  0
   38.4280   22.9580   35.5640 C   0  0  0  0  0  0  0  0  0  0  0  0
   39.4060   22.1900   36.0260 N   0  0  0  0  0  0  0  0  0  0  0  0
   39.4720   23.3530   39.2090 H   0  0  0  0  0  0  0  0  0  0  0  0
   37.6710   24.7480   38.3070 H   0  0  0  0  0  0  0  0  0  0  0  0
   37.9930   22.8450   34.1790 C   0  0  0  0  0  0  0  0  0  0  0  0
   37.1500   21.8250   33.7890 C   0  0  0  0  0  3  0  0  0  0  0  0
   36.7000   21.6660   32.4740 C   0  0  0  0  0  0  0  0  0  0  0  0
   36.0340   20.8260   32.2550 H   0  0  0  0  0  0  0  0  0  0  0  0
   37.1360   22.5690   31.6000 N   0  0  0  0  0  0  0  0  0  0  0  0
   37.9580   23.5770   31.9460 C   0  0  0  0  0  3  0  0  0  0  0  0
   38.3850   23.7140   33.2330 N   0  0  0  0  0  0  0  0  0  0  0  0
   40.8150   21.5640   37.9380 O   0  0  0  0  0  0  0  0  0  0  0  0
   41.4600   21.0470   37.3380 H   0  0  0  0  0  0  0  0  0  0  0  0
  1 16  1  0  0  0  0
  1  2  1  0  0  0  0
  2  7  1  0  0  0  0
  3  2  2  0  0  0  0
  3  8  1  0  0  0  0
  4  3  1  0  0  0  0
  5  6  1  0  0  0  0
  5  4  2  0  0  0  0
  6  1  2  0  0  0  0
  9  5  1  0  0  0  0
 10  9  1  0  0  0  0
 11 10  2  0  0  0  0
 12 11  1  0  0  0  0
 13 14  2  0  0  0  0
 13 11  1  0  0  0  0
 14 15  1  0  0  0  0
 15  9  2  0  0  0  0
 17 16  1  0  0  0  0
M  END
>  <minimizedAffinity>
-3.95151925

$$$$

 OpenBabel03272506353D

 17 18  0  0  0  0  0  0  0  0999 V2000
   37.2000   25.8730   33.0370 C   0  0  0  0  0  0  0  0  0  0  0  0
   36.8740   27.1880   33.4240 C   0  0  0  0  0  0  0  0  0  0  0  0
   37.1370   27.5890   34.7250 C   0  0  0  0  0  0  0  0  0  0  0  0
   37.7040   26.6810   35.5800 N   0  0  0  0  0  0  0  0  0  0  0  0
   38.0050   25.4260   35.1790 C   0  0  0  0  0  0  0  0  0  0  0  0
   37.7580   25.0330   33.9370 N   0  0  0  0  0  0  0  0  0  0  0  0
   36.4260   27.9240   32.7700 H   0  0  0  0  0  0  0  0  0  0  0  0
   36.9030   28.6000   35.0770 H   0  0  0  0  0  0  0  0  0  0  0  0
   38.6070   24.5090   36.1360 C   0  0  0  0  0  0  0  0  0  0  0  0
   38.0580   24.3440   37.3910 C   0  0  0  0  0  3  0  0  0  0  0  0
   38.5930   23.4780   38.3510 C   0  0  0  0  0  0  0  0  0  0  0  0
   38.0910   23.4110   39.3210 H   0  0  0  0  0  0  0  0  0  0  0  0
   39.6820   22.8080   37.9840 N   0  0  0  0  0  0  0  0  0  0  0  0
   40.2430   22.9450   36.7690 C   0  0  0  0  0  3  0  0  0  0  0  0
   39.7060   23.7940   35.8470 N   0  0  0  0  0  0  0  0  0  0  0  0
   36.8820   25.6200   31.7180 O   0  0  0  0  0  0  0  0  0  0  0  0
   36.8660   24.6420   31.4270 H   0  0  0  0  0  0  0  0  0  0  0  0
  1  2  2  0  0  0  0
  1  6  1  0  0  0  0
  2  3  1  0  0  0  0
  3  8  1  0  0  0  0
  3  4  2  0  0  0  0
  5  4  1  0  0  0  0
  5  9  1  0  0  0  0
  6  5  2  0  0  0  0
  7  2  1  0  0  0  0
  9 10  1  0  0  0  0
 10 11  2  0  0  0  0
 11 12  1  0  0  0  0
 13 11  1  0  0  0  0
 14 13  2  0  0  0  0
 15  9  2  0  0  0  0
 15 14  1  0  0  0  0
 16  1  1  0  0  0  0
 17 16  1  0  0  0  0
M  END
>  <minimizedAffinity>
-3.92809701

$$$$

 OpenBabel03272506353D

 17 18  0  0  0  0  0  0  0  0999 V2000
   36.8950   27.3740   34.4200 C   0  0  0  0  0  0  0  0  0  0  0  0
   36.8880   26.9330   33.0800 C   0  0  0  0  0  0  0  0  0  0  0  0
   37.4070   25.6820   32.7830 C   0  0  0  0  0  0  0  0  0  0  0  0
   37.9090   24.9290   33.8120 N   0  0  0  0  0  0  0  0  0  0  0  0
   37.9020   25.3790   35.0860 C   0  0  0  0  0  0  0  0  0  0  0  0
   37.4060   26.5730   35.3810 N   0  0  0  0  0  0  0  0  0  0  0  0
   36.4990   27.5070   32.2510 H   0  0  0  0  0  0  0  0  0  0  0  0
   37.4260   25.2930   31.7590 H   0  0  0  0  0  0  0  0  0  0  0  0
   38.4490   24.5280   36.1330 C   0  0  0  0  0  0  0  0  0  0  0  0
   39.5650   23.7530   35.8960 C   0  0  0  0  0  3  0  0  0  0  0  0
   40.1340   22.9180   36.8630 C   0  0  0  0  0  0  0  0  0  0  0  0
   41.0190   22.3370   36.5870 H   0  0  0  0  0  0  0  0  0  0  0  0
   39.5310   22.9100   38.0490 N   0  0  0  0  0  0  0  0  0  0  0  0
   38.4420   23.6540   38.3140 C   0  0  0  0  0  3  0  0  0  0  0  0
   37.9020   24.4610   37.3580 N   0  0  0  0  0  0  0  0  0  0  0  0
   36.3460   28.6320   34.5600 O   0  0  0  0  0  0  0  0  0  0  0  0
   36.5230   29.1160   35.4420 H   0  0  0  0  0  0  0  0  0  0  0  0
  1 16  1  0  0  0  0
  1  6  1  0  0  0  0
  2  1  2  0  0  0  0
  3  2  1  0  0  0  0
  3  4  2  0  0  0  0
  4  5  1  0  0  0  0
  5  6  2  0  0  0  0
  5  9  1  0  0  0  0
  7  2  1  0  0  0  0
  8  3  1  0  0  0  0
  9 15  1  0  0  0  0
 10  9  2  0  0  0  0
 10 11  1  0  0  0  0
 11 13  2  0  0  0  0
 12 11  1  0  0  0  0
 13 14  1  0  0  0  0
 15 14  2  0  0  0  0
 16 17  1  0  0  0  0
M  END
>  <minimizedAffinity>
-3.9180944

$$$$

 OpenBabel03272506353D

 17 18  0  0  0  0  0  0  0  0999 V2000
   35.2990   19.7820   31.5560 C   0  0  0  0  0  0  0  0  0  0  0  0
   36.3820   19.1640   30.8980 C   0  0  0  0  0  0  0  0  0  0  0  0
   37.4610   19.9430   30.5070 C   0  0  0  0  0  0  0  0  0  0  0  0
   37.4230   21.2850   30.7800 N   0  0  0  0  0  0  0  0  0  0  0  0
   36.3700   21.8480   31.4130 C   0  0  0  0  0  0  0  0  0  0  0  0
   35.3330   21.1120   31.7910 N   0  0  0  0  0  0  0  0  0  0  0  0
   36.4370   18.1090   30.6710 H   0  0  0  0  0  0  0  0  0  0  0  0
   38.3280   19.5130   29.9930 H   0  0  0  0  0  0  0  0  0  0  0  0
   36.3910   23.2800   31.6730 C   0  0  0  0  0  0  0  0  0  0  0  0
   35.5090   24.1240   31.0310 C   0  0  0  0  0  3  0  0  0  0  0  0
   35.4840   25.5060   31.2410 C   0  0  0  0  0  0  0  0  0  0  0  0
   34.7500   26.0990   30.6870 H   0  0  0  0  0  0  0  0  0  0  0  0
   36.3740   25.9760   32.1120 N   0  0  0  0  0  0  0  0  0  0  0  0
   37.2480   25.1820   32.7560 C   0  0  0  0  0  3  0  0  0  0  0  0
   37.2560   23.8370   32.5370 N   0  0  0  0  0  0  0  0  0  0  0  0
   34.3040   18.8840   31.8830 O   0  0  0  0  0  0  0  0  0  0  0  0
   33.3970   19.2740   32.1440 H   0  0  0  0  0  0  0  0  0  0  0  0
  1  6  1  0  0  0  0
  1 16  1  0  0  0  0
  2  1  2  0  0  0  0
  3  4  2  0  0  0  0
  3  2  1  0  0  0  0
  4  5  1  0  0  0  0
  5  9  1  0  0  0  0
  5  6  2  0  0  0  0
  7  2  1  0  0  0  0
  8  3  1  0  0  0  0
  9 15  1  0  0  0  0
 10 11  1  0  0  0  0
 10  9  2  0  0  0  0
 11 13  2  0  0  0  0
 12 11  1  0  0  0  0
 13 14  1  0  0  0  0
 15 14  2  0  0  0  0
 16 17  1  0  0  0  0
M  END
>  <minimizedAffinity>
-3.90515685

$$$$

 OpenBabel03272506353D

 17 18  0  0  0  0  0  0  0  0999 V2000
   35.5320   25.0420   30.9940 C   0  0  0  0  0  0  0  0  0  0  0  0
   35.6400   23.6380   30.9340 C   0  0  0  0  0  0  0  0  0  0  0  0
   36.4870   22.9920   31.8220 C   0  0  0  0  0  0  0  0  0  0  0  0
   37.1830   23.7530   32.7230 N   0  0  0  0  0  0  0  0  0  0  0  0
   37.0580   25.0990   32.7570 C   0  0  0  0  0  0  0  0  0  0  0  0
   36.2510   25.7260   31.9110 N   0  0  0  0  0  0  0  0  0  0  0  0
   35.1030   23.0140   30.2340 H   0  0  0  0  0  0  0  0  0  0  0  0
   36.6070   21.9020   31.8170 H   0  0  0  0  0  0  0  0  0  0  0  0
   37.8260   25.8510   33.7390 C   0  0  0  0  0  0  0  0  0  0  0  0
   37.2040   26.7570   34.5710 C   0  0  0  0  0  3  0  0  0  0  0  0
   37.8900   27.5070   35.5330 C   0  0  0  0  0  0  0  0  0  0  0  0
   37.3150   28.2040   36.1500 H   0  0  0  0  0  0  0  0  0  0  0  0
   39.2020   27.2960   35.6040 N   0  0  0  0  0  0  0  0  0  0  0  0
   39.8400   26.4200   34.8080 C   0  0  0  0  0  3  0  0  0  0  0  0
   39.1530   25.6990   33.8780 N   0  0  0  0  0  0  0  0  0  0  0  0
   34.6550   25.5410   30.0530 O   0  0  0  0  0  0  0  0  0  0  0  0
   34.6950   26.5460   29.8730 H   0  0  0  0  0  0  0  0  0  0  0  0
  1  6  1  0  0  0  0
  2  1  2  0  0  0  0
  2  3  1  0  0  0  0
  3  4  2  0  0  0  0
  4  5  1  0  0  0  0
  5  9  1  0  0  0  0
  6  5  2  0  0  0  0
  7  2  1  0  0  0  0
  8  3  1  0  0  0  0
  9 15  2  0  0  0  0
  9 10  1  0  0  0  0
 10 11  2  0  0  0  0
 11 13  1  0  0  0  0
 11 12  1  0  0  0  0
 14 13  2  0  0  0  0
 15 14  1  0  0  0  0
 16  1  1  0  0  0  0
 17 16  1  0  0  0  0
M  END
>  <minimizedAffinity>
-3.9032681

$$$$

 OpenBabel03272506353D

 17 18  0  0  0  0  0  0  0  0999 V2000
   38.2670   23.4770   37.7640 C   0  0  0  0  0  0  0  0  0  0  0  0
   39.6210   23.1030   37.8890 C   0  0  0  0  0  0  0  0  0  0  0  0
   40.1890   22.3010   36.9100 C   0  0  0  0  0  0  0  0  0  0  0  0
   39.4010   21.9060   35.8610 N   0  0  0  0  0  0  0  0  0  0  0  0
   38.1060   22.2800   35.7690 C   0  0  0  0  0  0  0  0  0  0  0  0
   37.5540   23.0480   36.7000 N   0  0  0  0  0  0  0  0  0  0  0  0
   40.2630   23.4010   38.7060 H   0  0  0  0  0  0  0  0  0  0  0  0
   41.2360   21.9820   36.9600 H   0  0  0  0  0  0  0  0  0  0  0  0
   37.3240   21.8260   34.6280 C   0  0  0  0  0  0  0  0  0  0  0  0
   37.6830   22.1820   33.3450 C   0  0  0  0  0  3  0  0  0  0  0  0
   36.9700   21.7770   32.2120 C   0  0  0  0  0  0  0  0  0  0  0  0
   37.3270   22.1070   31.2320 H   0  0  0  0  0  0  0  0  0  0  0  0
   35.9040   21.0130   32.4410 N   0  0  0  0  0  0  0  0  0  0  0  0
   35.5270   20.6470   33.6790 C   0  0  0  0  0  3  0  0  0  0  0  0
   36.2350   21.0530   34.7700 N   0  0  0  0  0  0  0  0  0  0  0  0
   37.8450   24.2730   38.8090 O   0  0  0  0  0  0  0  0  0  0  0  0
   36.8370   24.3910   38.9200 H   0  0  0  0  0  0  0  0  0  0  0  0
  1  2  1  0  0  0  0
  1 16  1  0  0  0  0
  2  7  1  0  0  0  0
  3  8  1  0  0  0  0
  3  2  2  0  0  0  0
  4  3  1  0  0  0  0
  5  4  2  0  0  0  0
  5  6  1  0  0  0  0
  6  1  2  0  0  0  0
  9 15  1  0  0  0  0
  9  5  1  0  0  0  0
 10  9  2  0  0  0  0
 11 13  2  0  0  0  0
 11 10  1  0  0  0  0
 12 11  1  0  0  0  0
 13 14  1  0  0  0  0
 14 15  2  0  0  0  0
 16 17  1  0  0  0  0
M  END
>  <minimizedAffinity>
-3.89852118

$$$$
