
 OpenBabel03272510163D

 26 28  0  0  0  0  0  0  0  0999 V2000
   37.3100   29.3330   51.0290 Br  0  0  0  0  0  0  0  0  0  0  0  0
   35.9640   29.3290   49.6790 C   0  0  0  0  0  0  0  0  0  0  0  0
   35.9930   30.2550   48.6390 C   0  0  0  0  0  0  0  0  0  0  0  0
   34.9890   30.1940   47.7020 C   0  0  0  0  0  0  0  0  0  0  0  0
   33.9660   29.2660   47.7460 C   0  0  0  0  0  0  0  0  0  0  0  0
   33.9630   28.3690   48.7800 C   0  0  0  0  0  0  0  0  0  0  0  0
   34.9590   28.4100   49.7320 C   0  0  0  0  0  0  0  0  0  0  0  0
   35.0260   30.9200   46.9010 H   0  0  0  0  0  0  0  0  0  0  0  0
   33.2120   27.6020   48.9120 H   0  0  0  0  0  0  0  0  0  0  0  0
   34.9610   27.6990   50.5530 H   0  0  0  0  0  0  0  0  0  0  0  0
   37.9920   33.1940   49.4620 C   0  0  0  0  0  0  0  0  0  0  0  0
   39.0230   33.1740   48.4730 C   0  0  0  0  0  0  0  0  0  0  0  0
   39.0070   32.1470   47.5440 C   0  0  0  0  0  0  0  0  0  0  0  0
   38.0140   31.2080   47.6140 N   0  0  0  0  0  0  0  0  0  0  0  0
   37.0520   31.2510   48.5590 C   0  0  0  0  0  0  0  0  0  0  0  0
   37.0470   32.2510   49.4830 N   0  0  0  0  0  0  0  0  0  0  0  0
   37.9330   33.9550   50.2190 H   0  0  0  0  0  0  0  0  0  0  0  0
   39.7630   33.9520   48.4930 H   0  0  0  0  0  0  0  0  0  0  0  0
   39.7770   32.1110   46.7860 H   0  0  0  0  0  0  0  0  0  0  0  0
   32.9030   29.2000   46.7560 C   0  0  0  0  0  0  0  0  0  0  0  0
   32.2640   28.0420   46.3650 C   0  0  0  0  0  3  0  0  0  0  0  0
   31.2540   28.0280   45.4160 C   0  0  0  0  0  0  0  0  0  0  0  0
   30.8110   27.0730   45.1740 H   0  0  0  0  0  0  0  0  0  0  0  0
   30.8700   29.1750   44.8450 N   0  0  0  0  0  0  0  0  0  0  0  0
   31.4860   30.3140   45.2170 C   0  0  0  0  0  3  0  0  0  0  0  0
   32.4590   30.3080   46.1350 N   0  0  0  0  0  0  0  0  0  0  0  0
  2  7  1  0  0  0  0
  2  1  1  0  0  0  0
  3  2  2  0  0  0  0
  4  5  2  0  0  0  0
  4  3  1  0  0  0  0
  5  6  1  0  0  0  0
  6  9  1  0  0  0  0
  6  7  2  0  0  0  0
  7 10  1  0  0  0  0
  8  4  1  0  0  0  0
 11 16  1  0  0  0  0
 11 17  1  0  0  0  0
 12 18  1  0  0  0  0
 12 11  2  0  0  0  0
 13 14  2  0  0  0  0
 13 12  1  0  0  0  0
 14 15  1  0  0  0  0
 15  3  1  0  0  0  0
 15 16  2  0  0  0  0
 19 13  1  0  0  0  0
 20  5  1  0  0  0  0
 21 20  1  0  0  0  0
 22 21  2  0  0  0  0
 23 22  1  0  0  0  0
 24 25  2  0  0  0  0
 24 22  1  0  0  0  0
 25 26  1  0  0  0  0
 26 20  2  0  0  0  0
M  END
>  <minimizedAffinity>
-5.89594316

>  <minimizedRMSD>
0.16248183

$$$$
