
 OpenBabel03272501123D

 23 25  0  0  1  0  0  0  0  0999 V2000
   37.4970   26.8730   35.2680 C   0  0  1  0  0  0  0  0  0  0  0  0
   38.4490   25.7870   35.0670 C   0  0  1  0  0  0  0  0  0  0  0  0
   38.9870   27.1800   35.2850 C   0  0  0  0  0  0  0  0  0  0  0  0
   36.9690   27.0120   36.2300 H   0  0  0  0  0  0  0  0  0  0  0  0
   38.5220   25.3920   34.0230 H   0  0  0  0  0  0  0  0  0  0  0  0
   39.4080   27.4270   36.2720 H   0  0  0  0  0  0  0  0  0  0  0  0
   39.4010   27.7480   34.4530 H   0  0  0  0  0  0  0  0  0  0  0  0
   36.7950   27.4900   34.0850 C   0  0  0  0  0  0  0  0  0  0  0  0
   36.0970   28.7060   34.3330 C   0  0  0  0  0  0  0  0  0  0  0  0
   35.4480   29.2530   33.2390 C   0  0  0  0  0  0  0  0  0  0  0  0
   35.5020   28.6330   32.0330 N   0  0  0  0  0  0  0  0  0  0  0  0
   36.1800   27.4700   31.8380 C   0  0  0  0  0  0  0  0  0  0  0  0
   36.8260   26.9010   32.8690 N   0  0  0  0  0  0  0  0  0  0  0  0
   36.1230   29.1090   35.3310 H   0  0  0  0  0  0  0  0  0  0  0  0
   34.9310   30.1620   33.4350 H   0  0  0  0  0  0  0  0  0  0  0  0
   36.1790   27.0330   30.8520 H   0  0  0  0  0  0  0  0  0  0  0  0
   38.7490   24.7770   36.0810 C   0  0  0  0  0  0  0  0  0  0  0  0
   37.9820   24.7880   37.2270 C   0  0  0  0  0  3  0  0  0  0  0  0
   38.2610   23.8330   38.1930 C   0  0  0  0  0  0  0  0  0  0  0  0
   37.6860   23.7920   39.1210 H   0  0  0  0  0  0  0  0  0  0  0  0
   39.2320   22.8960   38.0820 N   0  0  0  0  0  0  0  0  0  0  0  0
   39.9660   22.9220   36.9350 C   0  0  0  0  0  3  0  0  0  0  0  0
   39.7170   23.8290   35.9940 N   0  0  0  0  0  0  0  0  0  0  0  0
  1  3  1  0  0  0  0
  1  4  1  1  0  0  0
  2  5  1  6  0  0  0
  2  1  1  0  0  0  0
  2  3  1  0  0  0  0
  2 17  1  0  0  0  0
  3  6  1  0  0  0  0
  7  3  1  0  0  0  0
  8  9  1  0  0  0  0
  8  1  1  0  0  0  0
  9 14  1  0  0  0  0
 10 15  1  0  0  0  0
 10  9  2  0  0  0  0
 11 10  1  0  0  0  0
 12 11  2  0  0  0  0
 12 13  1  0  0  0  0
 13  8  2  0  0  0  0
 16 12  1  0  0  0  0
 17 18  1  0  0  0  0
 18 19  2  0  0  0  0
 19 20  1  0  0  0  0
 21 19  1  0  0  0  0
 22 21  2  0  0  0  0
 23 17  2  0  0  0  0
 23 22  1  0  0  0  0
M  END
>  <minimizedAffinity>
-4.57779932

$$$$

 OpenBabel03272501123D

 23 25  0  0  1  0  0  0  0  0999 V2000
   38.4750   25.6630   34.9510 C   0  0  1  0  0  0  0  0  0  0  0  0
   37.7280   26.8750   35.2680 C   0  0  1  0  0  0  0  0  0  0  0  0
   39.2260   26.9740   35.1230 C   0  0  0  0  0  0  0  0  0  0  0  0
   38.4820   25.2360   33.9310 H   0  0  0  0  0  0  0  0  0  0  0  0
   37.3320   26.9420   36.3130 H   0  0  0  0  0  0  0  0  0  0  0  0
   39.6310   27.4120   34.1970 H   0  0  0  0  0  0  0  0  0  0  0  0
   39.8590   27.0880   36.0020 H   0  0  0  0  0  0  0  0  0  0  0  0
   38.7950   24.6680   36.0370 C   0  0  0  0  0  0  0  0  0  0  0  0
   37.9560   24.7010   37.1870 C   0  0  0  0  0  0  0  0  0  0  0  0
   38.2720   23.7890   38.1800 C   0  0  0  0  0  0  0  0  0  0  0  0
   39.3200   22.9420   38.0210 N   0  0  0  0  0  0  0  0  0  0  0  0
   40.0990   22.9430   36.9060 C   0  0  0  0  0  0  0  0  0  0  0  0
   39.8320   23.8100   35.9140 N   0  0  0  0  0  0  0  0  0  0  0  0
   37.1510   25.4160   37.2050 H   0  0  0  0  0  0  0  0  0  0  0  0
   37.6380   23.8210   39.0350 H   0  0  0  0  0  0  0  0  0  0  0  0
   40.9160   22.2420   36.8490 H   0  0  0  0  0  0  0  0  0  0  0  0
   36.9020   27.5920   34.2980 C   0  0  0  0  0  0  0  0  0  0  0  0
   36.8730   27.1020   33.0100 C   0  0  0  0  0  3  0  0  0  0  0  0
   36.0920   27.7770   32.0850 C   0  0  0  0  0  0  0  0  0  0  0  0
   36.0300   27.4350   31.0500 H   0  0  0  0  0  0  0  0  0  0  0  0
   35.3600   28.8810   32.3650 N   0  0  0  0  0  0  0  0  0  0  0  0
   35.4170   29.3320   33.6490 C   0  0  0  0  0  3  0  0  0  0  0  0
   36.1600   28.7000   34.5550 N   0  0  0  0  0  0  0  0  0  0  0  0
  1  4  1  6  0  0  0
  1  3  1  0  0  0  0
  1  2  1  0  0  0  0
  1  8  1  0  0  0  0
  2  5  1  1  0  0  0
  3  2  1  0  0  0  0
  3  7  1  0  0  0  0
  6  3  1  0  0  0  0
  8  9  1  0  0  0  0
  9 14  1  0  0  0  0
  9 10  2  0  0  0  0
 10 15  1  0  0  0  0
 11 10  1  0  0  0  0
 12 11  2  0  0  0  0
 13  8  2  0  0  0  0
 13 12  1  0  0  0  0
 16 12  1  0  0  0  0
 17 23  1  0  0  0  0
 17  2  1  0  0  0  0
 18 17  2  0  0  0  0
 19 21  2  0  0  0  0
 19 18  1  0  0  0  0
 20 19  1  0  0  0  0
 21 22  1  0  0  0  0
 22 23  2  0  0  0  0
M  END
>  <minimizedAffinity>
-4.53693533

$$$$

 OpenBabel03272501123D

 23 25  0  0  1  0  0  0  0  0999 V2000
   37.4410   26.6870   35.0420 C   0  0  1  0  0  0  0  0  0  0  0  0
   38.5000   25.6840   35.0360 C   0  0  1  0  0  0  0  0  0  0  0  0
   38.8810   27.1270   35.2550 C   0  0  0  0  0  0  0  0  0  0  0  0
   36.7670   26.8140   35.9100 H   0  0  0  0  0  0  0  0  0  0  0  0
   38.7580   25.2570   34.0350 H   0  0  0  0  0  0  0  0  0  0  0  0
   39.1300   27.4500   36.2790 H   0  0  0  0  0  0  0  0  0  0  0  0
   39.3630   27.6980   34.4630 H   0  0  0  0  0  0  0  0  0  0  0  0
   36.8700   27.1910   33.7410 C   0  0  0  0  0  0  0  0  0  0  0  0
   37.0100   26.3280   32.6180 C   0  0  0  0  0  0  0  0  0  0  0  0
   36.4920   26.8110   31.4290 C   0  0  0  0  0  0  0  0  0  0  0  0
   35.9000   28.0300   31.3870 N   0  0  0  0  0  0  0  0  0  0  0  0
   35.7860   28.8270   32.4840 C   0  0  0  0  0  0  0  0  0  0  0  0
   36.2740   28.4010   33.6620 N   0  0  0  0  0  0  0  0  0  0  0  0
   37.4980   25.3800   32.7670 H   0  0  0  0  0  0  0  0  0  0  0  0
   36.6010   26.1570   30.5950 H   0  0  0  0  0  0  0  0  0  0  0  0
   35.3040   29.7850   32.3780 H   0  0  0  0  0  0  0  0  0  0  0  0
   38.7310   24.7460   36.1330 C   0  0  0  0  0  0  0  0  0  0  0  0
   37.9340   24.8740   37.2500 C   0  0  0  0  0  3  0  0  0  0  0  0
   38.1480   23.9880   38.2950 C   0  0  0  0  0  0  0  0  0  0  0  0
   37.5470   24.0410   39.2050 H   0  0  0  0  0  0  0  0  0  0  0  0
   39.0840   23.0090   38.2860 N   0  0  0  0  0  0  0  0  0  0  0  0
   39.8490   22.9180   37.1630 C   0  0  0  0  0  3  0  0  0  0  0  0
   39.6630   23.7580   36.1480 N   0  0  0  0  0  0  0  0  0  0  0  0
  1  3  1  0  0  0  0
  1  4  1  1  0  0  0
  2  5  1  6  0  0  0
  2  1  1  0  0  0  0
  2  3  1  0  0  0  0
  2 17  1  0  0  0  0
  3  6  1  0  0  0  0
  7  3  1  0  0  0  0
  8  1  1  0  0  0  0
  9 14  1  0  0  0  0
  9  8  2  0  0  0  0
 10  9  1  0  0  0  0
 11 10  2  0  0  0  0
 11 12  1  0  0  0  0
 12 13  2  0  0  0  0
 13  8  1  0  0  0  0
 15 10  1  0  0  0  0
 16 12  1  0  0  0  0
 17 23  2  0  0  0  0
 17 18  1  0  0  0  0
 18 19  2  0  0  0  0
 19 20  1  0  0  0  0
 21 19  1  0  0  0  0
 22 21  2  0  0  0  0
 23 22  1  0  0  0  0
M  END
>  <minimizedAffinity>
-4.45894432

$$$$

 OpenBabel03272501123D

 23 25  0  0  1  0  0  0  0  0999 V2000
   35.7000   30.8290   35.1370 C   0  0  1  0  0  0  0  0  0  0  0  0
   35.1020   29.9710   34.1200 C   0  0  1  0  0  0  0  0  0  0  0  0
   35.6810   31.2960   33.6890 C   0  0  0  0  0  0  0  0  0  0  0  0
   36.7000   30.6180   35.5600 H   0  0  0  0  0  0  0  0  0  0  0  0
   33.9850   29.9060   34.1340 H   0  0  0  0  0  0  0  0  0  0  0  0
   36.6580   31.2960   33.1800 H   0  0  0  0  0  0  0  0  0  0  0  0
   35.0260   32.1260   33.4290 H   0  0  0  0  0  0  0  0  0  0  0  0
   34.8200   31.6710   36.0250 C   0  0  0  0  0  0  0  0  0  0  0  0
   33.5050   31.1780   36.2580 C   0  0  0  0  0  0  0  0  0  0  0  0
   32.7070   31.9680   37.0660 C   0  0  0  0  0  0  0  0  0  0  0  0
   33.1910   33.1280   37.5790 N   0  0  0  0  0  0  0  0  0  0  0  0
   34.4550   33.5660   37.3320 C   0  0  0  0  0  0  0  0  0  0  0  0
   35.2680   32.8320   36.5530 N   0  0  0  0  0  0  0  0  0  0  0  0
   33.2280   30.2430   35.8000 H   0  0  0  0  0  0  0  0  0  0  0  0
   31.7260   31.5900   37.2350 H   0  0  0  0  0  0  0  0  0  0  0  0
   34.7720   34.4980   37.7720 H   0  0  0  0  0  0  0  0  0  0  0  0
   35.7370   28.7550   33.6130 C   0  0  0  0  0  0  0  0  0  0  0  0
   36.5620   28.0680   34.4780 C   0  0  0  0  0  3  0  0  0  0  0  0
   37.1680   26.9140   34.0040 C   0  0  0  0  0  0  0  0  0  0  0  0
   37.8320   26.3280   34.6430 H   0  0  0  0  0  0  0  0  0  0  0  0
   36.9990   26.4220   32.7540 N   0  0  0  0  0  0  0  0  0  0  0  0
   36.1760   27.1320   31.9330 C   0  0  0  0  0  3  0  0  0  0  0  0
   35.5840   28.2420   32.3650 N   0  0  0  0  0  0  0  0  0  0  0  0
  1  4  1  1  0  0  0
  1  8  1  0  0  0  0
  2  5  1  1  0  0  0
  2  1  1  0  0  0  0
  3  2  1  0  0  0  0
  3  1  1  0  0  0  0
  6  3  1  0  0  0  0
  7  3  1  0  0  0  0
  8  9  2  0  0  0  0
  8 13  1  0  0  0  0
  9 10  1  0  0  0  0
 10 15  1  0  0  0  0
 10 11  2  0  0  0  0
 12 11  1  0  0  0  0
 12 16  1  0  0  0  0
 13 12  2  0  0  0  0
 14  9  1  0  0  0  0
 17  2  1  0  0  0  0
 17 18  1  0  0  0  0
 19 18  2  0  0  0  0
 19 20  1  0  0  0  0
 21 19  1  0  0  0  0
 22 23  1  0  0  0  0
 22 21  2  0  0  0  0
 23 17  2  0  0  0  0
M  END
>  <minimizedAffinity>
-4.06317139

$$$$

 OpenBabel03272501123D

 23 25  0  0  1  0  0  0  0  0999 V2000
   38.5110   26.6310   34.7170 C   0  0  1  0  0  0  0  0  0  0  0  0
   37.1420   27.1270   34.7950 C   0  0  1  0  0  0  0  0  0  0  0  0
   38.1470   27.6360   35.7990 C   0  0  0  0  0  0  0  0  0  0  0  0
   39.2160   26.9920   33.9450 H   0  0  0  0  0  0  0  0  0  0  0  0
   36.3840   26.4030   35.1860 H   0  0  0  0  0  0  0  0  0  0  0  0
   38.5550   28.6500   35.6590 H   0  0  0  0  0  0  0  0  0  0  0  0
   38.1210   27.2880   36.8300 H   0  0  0  0  0  0  0  0  0  0  0  0
   38.8570   25.2760   35.2810 C   0  0  0  0  0  0  0  0  0  0  0  0
   40.1810   24.8130   35.0380 C   0  0  0  0  0  0  0  0  0  0  0  0
   40.4780   23.5630   35.5520 C   0  0  0  0  0  0  0  0  0  0  0  0
   39.5360   22.8640   36.2350 N   0  0  0  0  0  0  0  0  0  0  0  0
   38.2800   23.3410   36.4450 C   0  0  0  0  0  0  0  0  0  0  0  0
   37.9440   24.5510   35.9660 N   0  0  0  0  0  0  0  0  0  0  0  0
   40.8460   25.4540   34.4840 H   0  0  0  0  0  0  0  0  0  0  0  0
   41.4710   23.2270   35.3660 H   0  0  0  0  0  0  0  0  0  0  0  0
   37.5830   22.7310   36.9960 H   0  0  0  0  0  0  0  0  0  0  0  0
   36.5770   28.0910   33.8520 C   0  0  0  0  0  0  0  0  0  0  0  0
   36.9940   28.0080   32.5410 C   0  0  0  0  0  3  0  0  0  0  0  0
   36.4610   28.9190   31.6410 C   0  0  0  0  0  0  0  0  0  0  0  0
   36.7540   28.9010   30.5890 H   0  0  0  0  0  0  0  0  0  0  0  0
   35.5620   29.8770   31.9670 N   0  0  0  0  0  0  0  0  0  0  0  0
   35.1780   29.9240   33.2730 C   0  0  0  0  0  3  0  0  0  0  0  0
   35.6750   29.0600   34.1540 N   0  0  0  0  0  0  0  0  0  0  0  0
  1  4  1  6  0  0  0
  1  2  1  0  0  0  0
  1  8  1  0  0  0  0
  1  3  1  0  0  0  0
  2  5  1  1  0  0  0
  2  3  1  0  0  0  0
  3  7  1  0  0  0  0
  6  3  1  0  0  0  0
  8 13  1  0  0  0  0
  9  8  2  0  0  0  0
  9 10  1  0  0  0  0
 10 11  2  0  0  0  0
 11 12  1  0  0  0  0
 12 16  1  0  0  0  0
 13 12  2  0  0  0  0
 14  9  1  0  0  0  0
 15 10  1  0  0  0  0
 17 23  1  0  0  0  0
 17  2  1  0  0  0  0
 18 17  2  0  0  0  0
 19 21  2  0  0  0  0
 19 18  1  0  0  0  0
 20 19  1  0  0  0  0
 21 22  1  0  0  0  0
 22 23  2  0  0  0  0
M  END
>  <minimizedAffinity>
-4.037889

$$$$

 OpenBabel03272501123D

 23 25  0  0  1  0  0  0  0  0999 V2000
   38.7740   25.9170   34.0020 C   0  0  1  0  0  0  0  0  0  0  0  0
   38.0260   24.9180   34.7570 C   0  0  1  0  0  0  0  0  0  0  0  0
   38.5900   24.5270   33.4130 C   0  0  0  0  0  0  0  0  0  0  0  0
   39.8120   26.1900   34.2710 H   0  0  0  0  0  0  0  0  0  0  0  0
   36.9180   25.0690   34.7970 H   0  0  0  0  0  0  0  0  0  0  0  0
   39.4950   23.8990   33.3920 H   0  0  0  0  0  0  0  0  0  0  0  0
   37.9350   24.4210   32.5490 H   0  0  0  0  0  0  0  0  0  0  0  0
   38.0420   26.9770   33.2190 C   0  0  0  0  0  0  0  0  0  0  0  0
   36.9020   27.5490   33.8510 C   0  0  0  0  0  0  0  0  0  0  0  0
   36.2340   28.5120   33.1150 C   0  0  0  0  0  0  0  0  0  0  0  0
   36.6740   28.8530   31.8770 N   0  0  0  0  0  0  0  0  0  0  0  0
   37.7690   28.2800   31.3070 C   0  0  0  0  0  0  0  0  0  0  0  0
   38.4510   27.3410   31.9840 N   0  0  0  0  0  0  0  0  0  0  0  0
   36.6440   27.2030   34.8380 H   0  0  0  0  0  0  0  0  0  0  0  0
   35.3830   28.9350   33.5960 H   0  0  0  0  0  0  0  0  0  0  0  0
   38.0610   28.6000   30.3200 H   0  0  0  0  0  0  0  0  0  0  0  0
   38.5520   24.2370   35.9390 C   0  0  0  0  0  0  0  0  0  0  0  0
   37.8520   24.3880   37.1160 C   0  0  0  0  0  3  0  0  0  0  0  0
   38.3450   23.7450   38.2420 C   0  0  0  0  0  0  0  0  0  0  0  0
   37.8320   23.8280   39.2030 H   0  0  0  0  0  0  0  0  0  0  0  0
   39.4630   22.9810   38.2560 N   0  0  0  0  0  0  0  0  0  0  0  0
   40.1240   22.8590   37.0710 C   0  0  0  0  0  3  0  0  0  0  0  0
   39.6700   23.4670   35.9780 N   0  0  0  0  0  0  0  0  0  0  0  0
  1  4  1  1  0  0  0
  1  2  1  0  0  0  0
  2  5  1  1  0  0  0
  2 17  1  0  0  0  0
  3  1  1  0  0  0  0
  3  2  1  0  0  0  0
  6  3  1  0  0  0  0
  7  3  1  0  0  0  0
  8  9  1  0  0  0  0
  8  1  1  0  0  0  0
  9 14  1  0  0  0  0
 10 15  1  0  0  0  0
 10  9  2  0  0  0  0
 11 10  1  0  0  0  0
 12 11  2  0  0  0  0
 12 13  1  0  0  0  0
 13  8  2  0  0  0  0
 16 12  1  0  0  0  0
 17 23  2  0  0  0  0
 17 18  1  0  0  0  0
 18 19  2  0  0  0  0
 19 21  1  0  0  0  0
 19 20  1  0  0  0  0
 22 21  2  0  0  0  0
 23 22  1  0  0  0  0
M  END
>  <minimizedAffinity>
-3.97877645

$$$$

 OpenBabel03272501123D

 23 25  0  0  1  0  0  0  0  0999 V2000
   37.0010   23.9440   32.1920 C   0  0  1  0  0  0  0  0  0  0  0  0
   36.2980   23.1670   31.1780 C   0  0  1  0  0  0  0  0  0  0  0  0
   37.7230   23.5790   30.9040 C   0  0  0  0  0  0  0  0  0  0  0  0
   37.3950   23.4750   33.1130 H   0  0  0  0  0  0  0  0  0  0  0  0
   35.5110   23.7170   30.6040 H   0  0  0  0  0  0  0  0  0  0  0  0
   38.5130   22.8180   31.0050 H   0  0  0  0  0  0  0  0  0  0  0  0
   37.9400   24.3780   30.1970 H   0  0  0  0  0  0  0  0  0  0  0  0
   36.7530   25.4260   32.3150 C   0  0  0  0  0  0  0  0  0  0  0  0
   37.4860   26.1040   33.3300 C   0  0  0  0  0  0  0  0  0  0  0  0
   37.2380   27.4610   33.4370 C   0  0  0  0  0  0  0  0  0  0  0  0
   36.3470   28.0600   32.6070 N   0  0  0  0  0  0  0  0  0  0  0  0
   35.6660   27.3760   31.6480 C   0  0  0  0  0  0  0  0  0  0  0  0
   35.8730   26.0560   31.5050 N   0  0  0  0  0  0  0  0  0  0  0  0
   38.1680   25.5270   33.9310 H   0  0  0  0  0  0  0  0  0  0  0  0
   37.7910   27.9590   34.1980 H   0  0  0  0  0  0  0  0  0  0  0  0
   34.9730   27.9170   31.0240 H   0  0  0  0  0  0  0  0  0  0  0  0
   36.0160   21.7380   31.3050 C   0  0  0  0  0  0  0  0  0  0  0  0
   35.0780   21.3620   32.2420 C   0  0  0  0  0  3  0  0  0  0  0  0
   34.8050   20.0080   32.3680 C   0  0  0  0  0  0  0  0  0  0  0  0
   34.0710   19.6510   33.0930 H   0  0  0  0  0  0  0  0  0  0  0  0
   35.4000   19.0390   31.6330 N   0  0  0  0  0  0  0  0  0  0  0  0
   36.3210   19.4540   30.7200 C   0  0  0  0  0  3  0  0  0  0  0  0
   36.5980   20.7480   30.5810 N   0  0  0  0  0  0  0  0  0  0  0  0
  1  8  1  0  0  0  0
  1  4  1  1  0  0  0
  2  5  1  6  0  0  0
  2 17  1  0  0  0  0
  2  1  1  0  0  0  0
  3  6  1  0  0  0  0
  3  2  1  0  0  0  0
  3  1  1  0  0  0  0
  7  3  1  0  0  0  0
  8  9  1  0  0  0  0
  9 10  2  0  0  0  0
  9 14  1  0  0  0  0
 10 15  1  0  0  0  0
 11 10  1  0  0  0  0
 12 11  2  0  0  0  0
 13 12  1  0  0  0  0
 13  8  2  0  0  0  0
 16 12  1  0  0  0  0
 17 18  1  0  0  0  0
 18 19  2  0  0  0  0
 19 20  1  0  0  0  0
 21 19  1  0  0  0  0
 22 21  2  0  0  0  0
 23 22  1  0  0  0  0
 23 17  2  0  0  0  0
M  END
>  <minimizedAffinity>
-3.95705843

$$$$

 OpenBabel03272501123D

 23 25  0  0  1  0  0  0  0  0999 V2000
   35.0020   29.8110   33.8870 C   0  0  1  0  0  0  0  0  0  0  0  0
   35.5830   30.6480   34.9300 C   0  0  1  0  0  0  0  0  0  0  0  0
   35.7370   31.0830   33.4940 C   0  0  0  0  0  0  0  0  0  0  0  0
   33.9150   29.8040   33.6860 H   0  0  0  0  0  0  0  0  0  0  0  0
   36.5040   30.2440   35.4210 H   0  0  0  0  0  0  0  0  0  0  0  0
   35.0990   31.9030   33.1280 H   0  0  0  0  0  0  0  0  0  0  0  0
   36.6960   30.9830   32.9870 H   0  0  0  0  0  0  0  0  0  0  0  0
   35.7210   28.5660   33.4310 C   0  0  0  0  0  0  0  0  0  0  0  0
   36.5550   27.9330   34.3950 C   0  0  0  0  0  0  0  0  0  0  0  0
   37.2160   26.7990   33.9570 C   0  0  0  0  0  0  0  0  0  0  0  0
   37.0480   26.3590   32.6850 N   0  0  0  0  0  0  0  0  0  0  0  0
   36.2420   26.9940   31.7910 C   0  0  0  0  0  0  0  0  0  0  0  0
   35.5780   28.0990   32.1700 N   0  0  0  0  0  0  0  0  0  0  0  0
   36.6110   28.3690   35.3780 H   0  0  0  0  0  0  0  0  0  0  0  0
   37.8360   26.3320   34.6860 H   0  0  0  0  0  0  0  0  0  0  0  0
   36.1570   26.5890   30.7960 H   0  0  0  0  0  0  0  0  0  0  0  0
   34.7910   31.4990   35.8170 C   0  0  0  0  0  0  0  0  0  0  0  0
   33.4740   31.1470   36.0180 C   0  0  0  0  0  3  0  0  0  0  0  0
   32.7170   31.9490   36.8580 C   0  0  0  0  0  0  0  0  0  0  0  0
   31.6680   31.7190   37.0560 H   0  0  0  0  0  0  0  0  0  0  0  0
   33.1880   33.0510   37.4890 N   0  0  0  0  0  0  0  0  0  0  0  0
   34.4940   33.3640   37.2620 C   0  0  0  0  0  3  0  0  0  0  0  0
   35.2400   32.6080   36.4600 N   0  0  0  0  0  0  0  0  0  0  0  0
  1  4  1  6  0  0  0
  1  2  1  0  0  0  0
  2  5  1  1  0  0  0
  2 17  1  0  0  0  0
  3  1  1  0  0  0  0
  3  2  1  0  0  0  0
  6  3  1  0  0  0  0
  7  3  1  0  0  0  0
  8  1  1  0  0  0  0
  8  9  1  0  0  0  0
  9 14  1  0  0  0  0
 10  9  2  0  0  0  0
 10 15  1  0  0  0  0
 11 10  1  0  0  0  0
 12 13  1  0  0  0  0
 12 11  2  0  0  0  0
 13  8  2  0  0  0  0
 16 12  1  0  0  0  0
 17 18  2  0  0  0  0
 17 23  1  0  0  0  0
 18 19  1  0  0  0  0
 19 20  1  0  0  0  0
 19 21  2  0  0  0  0
 22 21  1  0  0  0  0
 23 22  2  0  0  0  0
M  END
>  <minimizedAffinity>
-3.93265271

$$$$

 OpenBabel03272501123D

 23 25  0  0  1  0  0  0  0  0999 V2000
   35.4060   29.3030   34.4670 C   0  0  1  0  0  0  0  0  0  0  0  0
   35.7610   30.5560   35.1220 C   0  0  1  0  0  0  0  0  0  0  0  0
   35.5930   30.5540   33.6230 C   0  0  0  0  0  0  0  0  0  0  0  0
   34.3770   28.8990   34.5050 H   0  0  0  0  0  0  0  0  0  0  0  0
   36.8130   30.6280   35.4960 H   0  0  0  0  0  0  0  0  0  0  0  0
   34.6690   30.9830   33.2030 H   0  0  0  0  0  0  0  0  0  0  0  0
   36.4620   30.6040   32.9700 H   0  0  0  0  0  0  0  0  0  0  0  0
   36.4650   28.2640   34.2000 C   0  0  0  0  0  0  0  0  0  0  0  0
   36.4080   27.6200   32.9320 C   0  0  0  0  0  0  0  0  0  0  0  0
   37.3800   26.6610   32.7070 C   0  0  0  0  0  0  0  0  0  0  0  0
   38.3040   26.3880   33.6630 N   0  0  0  0  0  0  0  0  0  0  0  0
   38.3240   27.0250   34.8650 C   0  0  0  0  0  0  0  0  0  0  0  0
   37.4010   27.9650   35.1290 N   0  0  0  0  0  0  0  0  0  0  0  0
   35.6310   27.9170   32.2490 H   0  0  0  0  0  0  0  0  0  0  0  0
   37.3300   26.1860   31.7560 H   0  0  0  0  0  0  0  0  0  0  0  0
   39.0870   26.7570   35.5770 H   0  0  0  0  0  0  0  0  0  0  0  0
   34.8200   31.3510   35.9100 C   0  0  0  0  0  0  0  0  0  0  0  0
   35.3030   32.5030   36.4930 C   0  0  0  0  0  3  0  0  0  0  0  0
   34.4160   33.2620   37.2420 C   0  0  0  0  0  0  0  0  0  0  0  0
   34.7410   34.1850   37.7270 H   0  0  0  0  0  0  0  0  0  0  0  0
   33.1140   32.9450   37.4350 N   0  0  0  0  0  0  0  0  0  0  0  0
   32.6790   31.7980   36.8420 C   0  0  0  0  0  3  0  0  0  0  0  0
   33.5120   31.0540   36.1190 N   0  0  0  0  0  0  0  0  0  0  0  0
  1  4  1  1  0  0  0
  1  2  1  0  0  0  0
  2  5  1  1  0  0  0
  2 17  1  0  0  0  0
  3  1  1  0  0  0  0
  3  2  1  0  0  0  0
  6  3  1  0  0  0  0
  7  3  1  0  0  0  0
  8  1  1  0  0  0  0
  8 13  1  0  0  0  0
  9  8  2  0  0  0  0
 10  9  1  0  0  0  0
 10 11  2  0  0  0  0
 11 12  1  0  0  0  0
 12 13  2  0  0  0  0
 12 16  1  0  0  0  0
 14  9  1  0  0  0  0
 15 10  1  0  0  0  0
 17 23  2  0  0  0  0
 17 18  1  0  0  0  0
 18 19  2  0  0  0  0
 19 21  1  0  0  0  0
 19 20  1  0  0  0  0
 22 21  2  0  0  0  0
 23 22  1  0  0  0  0
M  END
>  <minimizedAffinity>
-3.93100595

$$$$
