
 OpenBabel03272508393D

 30 32  0  0  1  0  0  0  0  0999 V2000
   33.1320   28.4220   47.6510 N   0  0  0  0  0  0  0  0  0  0  0  0
   33.9460   28.9690   48.7300 C   0  0  0  0  0  0  0  0  0  0  0  0
   34.6550   30.2360   48.3840 C   0  0  2  0  0  0  0  0  0  0  0  0
   35.0450   30.4050   47.0460 N   0  0  0  0  0  0  0  0  0  0  0  0
   34.0780   29.9120   46.0800 C   0  0  0  0  0  0  0  0  0  0  0  0
   33.8610   28.4690   46.4250 C   0  0  0  0  0  0  0  0  0  0  0  0
   34.6300   28.1380   49.0550 H   0  0  0  0  0  0  0  0  0  0  0  0
   33.2650   29.1440   49.5820 H   0  0  0  0  0  0  0  0  0  0  0  0
   33.9930   31.1070   48.6510 H   0  0  0  0  0  0  0  0  0  0  0  0
   36.0190   30.2600   46.7900 H   0  0  0  0  0  0  0  0  0  0  0  0
   33.1450   30.4730   46.1060 H   0  0  0  0  0  0  0  0  0  0  0  0
   34.5410   29.9710   45.0610 H   0  0  0  0  0  0  0  0  0  0  0  0
   33.2510   27.9440   45.6470 H   0  0  0  0  0  0  0  0  0  0  0  0
   34.8170   27.9230   46.5000 H   0  0  0  0  0  0  0  0  0  0  0  0
   31.8200   27.9210   47.8270 C   0  0  0  0  0  0  0  0  0  0  0  0
   30.9870   27.5840   46.7650 C   0  0  0  0  0  0  0  0  0  0  0  0
   29.7040   27.0910   47.0520 C   0  0  0  0  0  0  0  0  0  0  0  0
   29.3390   26.9680   48.3670 N   0  0  0  0  0  0  0  0  0  0  0  0
   30.1900   27.3110   49.3770 C   0  0  0  0  0  0  0  0  0  0  0  0
   31.4140   27.7810   49.1140 N   0  0  0  0  0  0  0  0  0  0  0  0
   31.3380   27.7060   45.7570 H   0  0  0  0  0  0  0  0  0  0  0  0
   29.0320   26.8200   46.2510 H   0  0  0  0  0  0  0  0  0  0  0  0
   29.8330   27.1860   50.3890 H   0  0  0  0  0  0  0  0  0  0  0  0
   35.8350   30.3630   49.2630 C   0  0  0  0  0  0  0  0  0  0  0  0
   36.1390   29.8110   50.4880 C   0  0  0  0  0  0  0  0  0  0  0  0
   37.3250   30.0720   51.1350 C   0  0  0  0  0  0  0  0  0  0  0  0
   37.4520   29.5820   52.0910 H   0  0  0  0  0  0  0  0  0  0  0  0
   38.2160   30.9070   50.5280 N   0  0  0  0  0  0  0  0  0  0  0  0
   37.9460   31.4590   49.3350 C   0  0  0  0  0  0  0  0  0  0  0  0
   36.7810   31.1890   48.7250 N   0  0  0  0  0  0  0  0  0  0  0  0
  1 15  1  0  0  0  0
  1  2  1  0  0  0  0
  2  7  1  0  0  0  0
  2  8  1  0  0  0  0
  3  9  1  1  0  0  0
  3  2  1  0  0  0  0
  3 24  1  0  0  0  0
  4  3  1  0  0  0  0
  5 11  1  0  0  0  0
  5  6  1  0  0  0  0
  5  4  1  0  0  0  0
  6 14  1  0  0  0  0
  6  1  1  0  0  0  0
 10  4  1  0  0  0  0
 12  5  1  0  0  0  0
 13  6  1  0  0  0  0
 15 20  1  0  0  0  0
 16 17  1  0  0  0  0
 16 15  2  0  0  0  0
 17 18  2  0  0  0  0
 18 19  1  0  0  0  0
 19 23  1  0  0  0  0
 20 19  2  0  0  0  0
 21 16  1  0  0  0  0
 22 17  1  0  0  0  0
 24 25  1  0  0  0  0
 25 26  2  0  0  0  0
 26 27  1  0  0  0  0
 28 26  1  0  0  0  0
 29 28  2  0  0  0  0
 30 24  2  0  0  0  0
 30 29  1  0  0  0  0
M  END
>  <minimizedAffinity>
-4.99891615

>  <minimizedRMSD>
4.38739109

$$$$
