
 OpenBabel03272505223D

 26 28  0  0  0  0  0  0  0  0999 V2000
   38.2000   31.0450   48.3870 Br  0  0  0  0  0  0  0  0  0  0  0  0
   36.9560   30.5950   47.0020 C   0  0  0  0  0  0  0  0  0  0  0  0
   35.7380   30.0030   47.3210 C   0  0  0  0  0  0  0  0  0  0  0  0
   34.8710   29.6900   46.3060 C   0  0  0  0  0  0  0  0  0  0  0  0
   35.2190   29.9680   44.9970 C   0  0  0  0  0  0  0  0  0  0  0  0
   36.4370   30.5620   44.6650 C   0  0  0  0  0  0  0  0  0  0  0  0
   37.2940   30.8680   45.7000 C   0  0  0  0  0  0  0  0  0  0  0  0
   33.9270   29.2300   46.5620 H   0  0  0  0  0  0  0  0  0  0  0  0
   34.5240   29.7150   44.2090 H   0  0  0  0  0  0  0  0  0  0  0  0
   36.6620   30.7580   43.6300 H   0  0  0  0  0  0  0  0  0  0  0  0
   36.1220   28.9560   50.9460 C   0  0  0  0  0  0  0  0  0  0  0  0
   36.3910   29.1800   49.5970 C   0  0  0  0  0  0  0  0  0  0  0  0
   35.4770   29.7590   48.7370 C   0  0  0  0  0  0  0  0  0  0  0  0
   34.2900   30.0930   49.3200 N   0  0  0  0  0  0  0  0  0  0  0  0
   34.0260   29.8790   50.6200 C   0  0  0  0  0  0  0  0  0  0  0  0
   34.9250   29.3200   51.4240 N   0  0  0  0  0  0  0  0  0  0  0  0
   36.8760   28.4960   51.5800 H   0  0  0  0  0  0  0  0  0  0  0  0
   37.3640   28.8870   49.1940 H   0  0  0  0  0  0  0  0  0  0  0  0
   33.0600   30.1680   51.0260 H   0  0  0  0  0  0  0  0  0  0  0  0
   38.5880   31.4900   45.4400 C   0  0  0  0  0  0  0  0  0  0  0  0
   39.8000   30.8420   45.4800 C   0  0  0  0  0  0  0  0  0  0  0  0
   41.0090   31.4480   45.2320 C   0  0  0  0  0  0  0  0  0  0  0  0
   41.9240   30.8700   45.2830 H   0  0  0  0  0  0  0  0  0  0  0  0
   41.0070   32.7730   44.9260 N   0  0  0  0  0  0  0  0  0  0  0  0
   39.8400   33.4380   44.8780 C   0  0  0  0  0  0  0  0  0  0  0  0
   38.6940   32.8030   45.1280 N   0  0  0  0  0  0  0  0  0  0  0  0
  2  3  1  0  0  0  0
  2  1  1  0  0  0  0
  3 13  1  0  0  0  0
  4  8  1  0  0  0  0
  4  3  2  0  0  0  0
  5  4  1  0  0  0  0
  6  5  2  0  0  0  0
  6  7  1  0  0  0  0
  7  2  2  0  0  0  0
  9  5  1  0  0  0  0
 10  6  1  0  0  0  0
 11 16  1  0  0  0  0
 11 17  1  0  0  0  0
 12 11  2  0  0  0  0
 13 14  2  0  0  0  0
 13 12  1  0  0  0  0
 14 15  1  0  0  0  0
 15 19  1  0  0  0  0
 15 16  2  0  0  0  0
 18 12  1  0  0  0  0
 20 21  1  0  0  0  0
 20  7  1  0  0  0  0
 22 23  1  0  0  0  0
 22 21  2  0  0  0  0
 24 22  1  0  0  0  0
 25 24  2  0  0  0  0
 25 26  1  0  0  0  0
 26 20  2  0  0  0  0
M  END
>  <minimizedAffinity>
-5.23504543

>  <minimizedRMSD>
3.39713621

$$$$
