
 OpenBabel03272508393D

 30 32  0  0  1  0  0  0  0  0999 V2000
   38.3750   24.9090   35.7700 N   0  0  0  0  0  0  0  0  0  0  0  0
   39.4430   23.9680   35.4550 C   0  0  0  0  0  0  0  0  0  0  0  0
   39.2740   22.6170   36.0670 C   0  0  2  0  0  0  0  0  0  0  0  0
   38.6160   22.5550   37.3060 N   0  0  0  0  0  0  0  0  0  0  0  0
   37.4990   23.4750   37.4300 C   0  0  0  0  0  0  0  0  0  0  0  0
   38.0630   24.8370   37.1610 C   0  0  0  0  0  0  0  0  0  0  0  0
   40.4030   24.4800   35.7410 H   0  0  0  0  0  0  0  0  0  0  0  0
   39.4710   23.8780   34.3540 H   0  0  0  0  0  0  0  0  0  0  0  0
   38.6990   21.9640   35.3510 H   0  0  0  0  0  0  0  0  0  0  0  0
   39.1640   22.4280   38.1530 H   0  0  0  0  0  0  0  0  0  0  0  0
   36.6880   23.2350   36.7430 H   0  0  0  0  0  0  0  0  0  0  0  0
   37.1340   23.4400   38.4890 H   0  0  0  0  0  0  0  0  0  0  0  0
   37.3210   25.6450   37.3840 H   0  0  0  0  0  0  0  0  0  0  0  0
   38.9490   25.0390   37.7860 H   0  0  0  0  0  0  0  0  0  0  0  0
   37.7630   25.7580   34.8160 C   0  0  0  0  0  0  0  0  0  0  0  0
   37.3460   27.0520   35.1090 C   0  0  0  0  0  0  0  0  0  0  0  0
   36.7550   27.8110   34.0860 C   0  0  0  0  0  0  0  0  0  0  0  0
   36.6190   27.2350   32.8500 N   0  0  0  0  0  0  0  0  0  0  0  0
   37.0440   25.9600   32.6080 C   0  0  0  0  0  0  0  0  0  0  0  0
   37.6090   25.2300   33.5760 N   0  0  0  0  0  0  0  0  0  0  0  0
   37.4830   27.4420   36.1010 H   0  0  0  0  0  0  0  0  0  0  0  0
   36.4190   28.8190   34.2790 H   0  0  0  0  0  0  0  0  0  0  0  0
   36.9050   25.5730   31.6100 H   0  0  0  0  0  0  0  0  0  0  0  0
   40.6040   21.9880   36.1810 C   0  0  0  0  0  0  0  0  0  0  0  0
   41.3160   21.5180   37.2630 C   0  0  0  0  0  3  0  0  0  0  0  0
   42.5640   20.9540   37.1320 C   0  0  0  0  0  0  0  0  0  0  0  0
   43.0240   20.6220   38.0520 H   0  0  0  0  0  0  0  0  0  0  0  0
   43.0980   20.8660   35.8790 N   0  0  0  0  0  0  0  0  0  0  0  0
   42.4280   21.3160   34.8080 C   0  0  0  0  0  3  0  0  0  0  0  0
   41.2120   21.8620   34.9630 N   0  0  0  0  0  0  0  0  0  0  0  0
  1  6  1  0  0  0  0
  2  7  1  0  0  0  0
  2  1  1  0  0  0  0
  2  3  1  0  0  0  0
  3  9  1  6  0  0  0
  3 24  1  0  0  0  0
  3  4  1  0  0  0  0
  4  5  1  0  0  0  0
  4 10  1  0  0  0  0
  5 12  1  0  0  0  0
  6 13  1  0  0  0  0
  6  5  1  0  0  0  0
  6 14  1  0  0  0  0
  8  2  1  0  0  0  0
 11  5  1  0  0  0  0
 15 16  1  0  0  0  0
 15  1  1  0  0  0  0
 16 21  1  0  0  0  0
 17 22  1  0  0  0  0
 17 16  2  0  0  0  0
 18 17  1  0  0  0  0
 19 18  2  0  0  0  0
 19 20  1  0  0  0  0
 20 15  2  0  0  0  0
 23 19  1  0  0  0  0
 24 25  1  0  0  0  0
 26 25  2  0  0  0  0
 26 27  1  0  0  0  0
 28 26  1  0  0  0  0
 29 30  1  0  0  0  0
 29 28  2  0  0  0  0
 30 24  2  0  0  0  0
M  END
>  <minimizedAffinity>
-4.72718906

$$$$

 OpenBabel03272508393D

 30 32  0  0  1  0  0  0  0  0999 V2000
   37.0540   26.5160   33.5870 N   0  0  0  0  0  0  0  0  0  0  0  0
   37.6240   26.1010   34.8620 C   0  0  0  0  0  0  0  0  0  0  0  0
   38.8450   25.2510   34.7430 C   0  0  2  0  0  0  0  0  0  0  0  0
   38.9330   24.4110   33.6220 N   0  0  0  0  0  0  0  0  0  0  0  0
   38.4270   25.0070   32.3960 C   0  0  0  0  0  0  0  0  0  0  0  0
   37.0120   25.4050   32.6920 C   0  0  0  0  0  0  0  0  0  0  0  0
   36.7870   25.6170   35.4350 H   0  0  0  0  0  0  0  0  0  0  0  0
   37.8670   27.0260   35.4170 H   0  0  0  0  0  0  0  0  0  0  0  0
   39.7530   25.9190   34.7320 H   0  0  0  0  0  0  0  0  0  0  0  0
   38.7390   23.4180   33.7270 H   0  0  0  0  0  0  0  0  0  0  0  0
   39.0230   25.8600   32.0750 H   0  0  0  0  0  0  0  0  0  0  0  0
   38.4180   24.2160   31.6020 H   0  0  0  0  0  0  0  0  0  0  0  0
   36.4720   25.7330   31.7680 H   0  0  0  0  0  0  0  0  0  0  0  0
   36.4360   24.5650   33.1150 H   0  0  0  0  0  0  0  0  0  0  0  0
   36.6120   27.8320   33.3100 C   0  0  0  0  0  0  0  0  0  0  0  0
   35.9830   28.6360   34.2550 C   0  0  0  0  0  0  0  0  0  0  0  0
   35.5890   29.9300   33.8750 C   0  0  0  0  0  0  0  0  0  0  0  0
   35.8450   30.3330   32.5910 N   0  0  0  0  0  0  0  0  0  0  0  0
   36.4660   29.5090   31.6970 C   0  0  0  0  0  0  0  0  0  0  0  0
   36.8450   28.2760   32.0490 N   0  0  0  0  0  0  0  0  0  0  0  0
   35.8130   28.2560   35.2450 H   0  0  0  0  0  0  0  0  0  0  0  0
   35.0980   30.5800   34.5840 H   0  0  0  0  0  0  0  0  0  0  0  0
   36.6350   29.8950   30.7030 H   0  0  0  0  0  0  0  0  0  0  0  0
   38.9730   24.4460   35.9740 C   0  0  0  0  0  0  0  0  0  0  0  0
   39.8380   23.4350   36.3330 C   0  0  0  0  0  3  0  0  0  0  0  0
   39.7750   22.8170   37.5610 C   0  0  0  0  0  0  0  0  0  0  0  0
   40.5060   22.0370   37.7280 H   0  0  0  0  0  0  0  0  0  0  0  0
   38.8180   23.2330   38.4390 N   0  0  0  0  0  0  0  0  0  0  0  0
   37.9620   24.2150   38.1170 C   0  0  0  0  0  3  0  0  0  0  0  0
   38.0450   24.8010   36.9120 N   0  0  0  0  0  0  0  0  0  0  0  0
  1  2  1  0  0  0  0
  2  8  1  0  0  0  0
  2  7  1  0  0  0  0
  3  9  1  6  0  0  0
  3  2  1  0  0  0  0
  3 24  1  0  0  0  0
  4 10  1  0  0  0  0
  4  3  1  0  0  0  0
  5  6  1  0  0  0  0
  5  4  1  0  0  0  0
  6 14  1  0  0  0  0
  6  1  1  0  0  0  0
 11  5  1  0  0  0  0
 12  5  1  0  0  0  0
 13  6  1  0  0  0  0
 15  1  1  0  0  0  0
 15 16  1  0  0  0  0
 16 21  1  0  0  0  0
 17 16  2  0  0  0  0
 17 22  1  0  0  0  0
 18 17  1  0  0  0  0
 19 20  1  0  0  0  0
 19 18  2  0  0  0  0
 20 15  2  0  0  0  0
 23 19  1  0  0  0  0
 24 25  2  0  0  0  0
 24 30  1  0  0  0  0
 25 26  1  0  0  0  0
 26 27  1  0  0  0  0
 26 28  2  0  0  0  0
 29 28  1  0  0  0  0
 30 29  2  0  0  0  0
M  END
>  <minimizedAffinity>
-4.72006893

$$$$

 OpenBabel03272508393D

 30 32  0  0  1  0  0  0  0  0999 V2000
   36.9960   26.6050   33.4890 N   0  0  0  0  0  0  0  0  0  0  0  0
   37.4900   26.2390   34.8110 C   0  0  0  0  0  0  0  0  0  0  0  0
   38.6910   25.3530   34.7960 C   0  0  2  0  0  0  0  0  0  0  0  0
   38.8110   24.4570   33.7220 N   0  0  0  0  0  0  0  0  0  0  0  0
   38.3850   25.0040   32.4450 C   0  0  0  0  0  0  0  0  0  0  0  0
   36.9690   25.4520   32.6480 C   0  0  0  0  0  0  0  0  0  0  0  0
   36.6110   25.8040   35.3620 H   0  0  0  0  0  0  0  0  0  0  0  0
   37.7300   27.1830   35.3330 H   0  0  0  0  0  0  0  0  0  0  0  0
   39.6160   25.9960   34.8000 H   0  0  0  0  0  0  0  0  0  0  0  0
   38.5850   23.4760   33.8640 H   0  0  0  0  0  0  0  0  0  0  0  0
   39.0210   25.8250   32.1140 H   0  0  0  0  0  0  0  0  0  0  0  0
   38.3940   24.1760   31.6890 H   0  0  0  0  0  0  0  0  0  0  0  0
   36.4850   25.7490   31.6830 H   0  0  0  0  0  0  0  0  0  0  0  0
   36.3490   24.6490   33.0800 H   0  0  0  0  0  0  0  0  0  0  0  0
   36.6060   27.9170   33.1280 C   0  0  0  0  0  0  0  0  0  0  0  0
   35.9210   28.7690   33.9880 C   0  0  0  0  0  0  0  0  0  0  0  0
   35.5860   30.0530   33.5290 C   0  0  0  0  0  0  0  0  0  0  0  0
   35.9520   30.4000   32.2540 N   0  0  0  0  0  0  0  0  0  0  0  0
   36.6240   29.5300   31.4450 C   0  0  0  0  0  0  0  0  0  0  0  0
   36.9480   28.3050   31.8730 N   0  0  0  0  0  0  0  0  0  0  0  0
   35.6650   28.4320   34.9750 H   0  0  0  0  0  0  0  0  0  0  0  0
   35.0550   30.7400   34.1700 H   0  0  0  0  0  0  0  0  0  0  0  0
   36.8790   29.8730   30.4530 H   0  0  0  0  0  0  0  0  0  0  0  0
   38.7340   24.6060   36.0690 C   0  0  0  0  0  0  0  0  0  0  0  0
   37.9520   24.6630   37.2020 C   0  0  0  0  0  3  0  0  0  0  0  0
   38.1780   23.8520   38.2910 C   0  0  0  0  0  0  0  0  0  0  0  0
   37.4990   23.9880   39.1220 H   0  0  0  0  0  0  0  0  0  0  0  0
   39.2150   22.9680   38.2260 N   0  0  0  0  0  0  0  0  0  0  0  0
   39.9920   22.8900   37.1360 C   0  0  0  0  0  3  0  0  0  0  0  0
   39.7510   23.6930   36.0880 N   0  0  0  0  0  0  0  0  0  0  0  0
  1  2  1  0  0  0  0
  2  8  1  0  0  0  0
  2  7  1  0  0  0  0
  3  9  1  6  0  0  0
  3  2  1  0  0  0  0
  3 24  1  0  0  0  0
  4 10  1  0  0  0  0
  4  3  1  0  0  0  0
  5  6  1  0  0  0  0
  5  4  1  0  0  0  0
  6 14  1  0  0  0  0
  6  1  1  0  0  0  0
 11  5  1  0  0  0  0
 12  5  1  0  0  0  0
 13  6  1  0  0  0  0
 15  1  1  0  0  0  0
 15 16  1  0  0  0  0
 16 21  1  0  0  0  0
 17 16  2  0  0  0  0
 17 22  1  0  0  0  0
 18 17  1  0  0  0  0
 19 20  1  0  0  0  0
 19 18  2  0  0  0  0
 20 15  2  0  0  0  0
 23 19  1  0  0  0  0
 24 30  2  0  0  0  0
 24 25  1  0  0  0  0
 25 26  2  0  0  0  0
 26 27  1  0  0  0  0
 28 26  1  0  0  0  0
 29 28  2  0  0  0  0
 30 29  1  0  0  0  0
M  END
>  <minimizedAffinity>
-4.66963673

$$$$

 OpenBabel03272508393D

 30 32  0  0  1  0  0  0  0  0999 V2000
   38.6380   24.7530   34.6430 N   0  0  0  0  0  0  0  0  0  0  0  0
   37.8270   25.8960   34.2430 C   0  0  0  0  0  0  0  0  0  0  0  0
   37.0500   25.6890   32.9850 C   0  0  2  0  0  0  0  0  0  0  0  0
   37.6180   24.8480   32.0150 N   0  0  0  0  0  0  0  0  0  0  0  0
   38.2980   23.6870   32.5620 C   0  0  0  0  0  0  0  0  0  0  0  0
   39.3270   24.2290   33.5090 C   0  0  0  0  0  0  0  0  0  0  0  0
   38.5260   26.7760   34.2070 H   0  0  0  0  0  0  0  0  0  0  0  0
   37.1340   26.1000   35.0790 H   0  0  0  0  0  0  0  0  0  0  0  0
   36.0410   25.2630   33.2480 H   0  0  0  0  0  0  0  0  0  0  0  0
   38.0630   25.2610   31.1980 H   0  0  0  0  0  0  0  0  0  0  0  0
   37.6130   23.0060   33.0650 H   0  0  0  0  0  0  0  0  0  0  0  0
   38.8240   23.1620   31.7230 H   0  0  0  0  0  0  0  0  0  0  0  0
   40.0190   23.4270   33.8720 H   0  0  0  0  0  0  0  0  0  0  0  0
   39.9560   24.9950   33.0260 H   0  0  0  0  0  0  0  0  0  0  0  0
   38.7140   24.2630   35.9700 C   0  0  0  0  0  0  0  0  0  0  0  0
   37.8500   24.6720   36.9800 C   0  0  0  0  0  0  0  0  0  0  0  0
   38.0100   24.1190   38.2610 C   0  0  0  0  0  0  0  0  0  0  0  0
   39.0120   23.2030   38.4480 N   0  0  0  0  0  0  0  0  0  0  0  0
   39.8360   22.8310   37.4260 C   0  0  0  0  0  0  0  0  0  0  0  0
   39.6910   23.3510   36.2030 N   0  0  0  0  0  0  0  0  0  0  0  0
   37.0860   25.3960   36.7640 H   0  0  0  0  0  0  0  0  0  0  0  0
   37.3560   24.4150   39.0680 H   0  0  0  0  0  0  0  0  0  0  0  0
   40.6030   22.1030   37.6480 H   0  0  0  0  0  0  0  0  0  0  0  0
   36.7690   27.0110   32.3900 C   0  0  0  0  0  0  0  0  0  0  0  0
   36.3940   28.2140   32.9460 C   0  0  0  0  0  3  0  0  0  0  0  0
   36.1850   29.3410   32.1840 C   0  0  0  0  0  0  0  0  0  0  0  0
   35.8930   30.2270   32.7310 H   0  0  0  0  0  0  0  0  0  0  0  0
   36.3620   29.2430   30.8340 N   0  0  0  0  0  0  0  0  0  0  0  0
   36.7270   28.0840   30.2660 C   0  0  0  0  0  3  0  0  0  0  0  0
   36.9230   26.9990   31.0320 N   0  0  0  0  0  0  0  0  0  0  0  0
  1 15  1  0  0  0  0
  2  1  1  0  0  0  0
  2  8  1  0  0  0  0
  3  9  1  1  0  0  0
  3  2  1  0  0  0  0
  4  5  1  0  0  0  0
  4  3  1  0  0  0  0
  5 11  1  0  0  0  0
  5  6  1  0  0  0  0
  6 13  1  0  0  0  0
  6  1  1  0  0  0  0
  7  2  1  0  0  0  0
 10  4  1  0  0  0  0
 12  5  1  0  0  0  0
 14  6  1  0  0  0  0
 15 20  2  0  0  0  0
 15 16  1  0  0  0  0
 16 17  2  0  0  0  0
 17 18  1  0  0  0  0
 17 22  1  0  0  0  0
 19 23  1  0  0  0  0
 19 18  2  0  0  0  0
 20 19  1  0  0  0  0
 21 16  1  0  0  0  0
 24 25  1  0  0  0  0
 24  3  1  0  0  0  0
 26 27  1  0  0  0  0
 26 25  2  0  0  0  0
 28 26  1  0  0  0  0
 29 28  2  0  0  0  0
 29 30  1  0  0  0  0
 30 24  2  0  0  0  0
M  END
>  <minimizedAffinity>
-4.66372299

$$$$

 OpenBabel03272508393D

 30 32  0  0  1  0  0  0  0  0999 V2000
   39.0260   24.0580   35.6210 N   0  0  0  0  0  0  0  0  0  0  0  0
   38.5050   24.0910   34.2600 C   0  0  0  0  0  0  0  0  0  0  0  0
   38.0660   25.4430   33.8020 C   0  0  2  0  0  0  0  0  0  0  0  0
   37.5560   26.3140   34.7780 N   0  0  0  0  0  0  0  0  0  0  0  0
   38.2520   26.2480   36.0520 C   0  0  0  0  0  0  0  0  0  0  0  0
   38.1750   24.8140   36.4830 C   0  0  0  0  0  0  0  0  0  0  0  0
   37.6960   23.3120   34.2180 H   0  0  0  0  0  0  0  0  0  0  0  0
   39.3120   23.7190   33.6030 H   0  0  0  0  0  0  0  0  0  0  0  0
   38.9390   25.9620   33.3140 H   0  0  0  0  0  0  0  0  0  0  0  0
   36.5500   26.4510   34.8450 H   0  0  0  0  0  0  0  0  0  0  0  0
   39.2840   26.5880   35.9760 H   0  0  0  0  0  0  0  0  0  0  0  0
   37.6880   26.8750   36.7900 H   0  0  0  0  0  0  0  0  0  0  0  0
   38.5440   24.6760   37.5310 H   0  0  0  0  0  0  0  0  0  0  0  0
   37.1380   24.4400   36.4600 H   0  0  0  0  0  0  0  0  0  0  0  0
   40.2000   23.3640   36.0010 C   0  0  0  0  0  0  0  0  0  0  0  0
   41.4410   23.5960   35.4160 C   0  0  0  0  0  0  0  0  0  0  0  0
   42.5430   22.8550   35.8720 C   0  0  0  0  0  0  0  0  0  0  0  0
   42.3380   21.9400   36.8720 N   0  0  0  0  0  0  0  0  0  0  0  0
   41.1020   21.7470   37.4160 C   0  0  0  0  0  0  0  0  0  0  0  0
   40.0460   22.4480   36.9900 N   0  0  0  0  0  0  0  0  0  0  0  0
   41.5310   24.3290   34.6360 H   0  0  0  0  0  0  0  0  0  0  0  0
   43.5210   23.0100   35.4400 H   0  0  0  0  0  0  0  0  0  0  0  0
   41.0170   21.0090   38.2010 H   0  0  0  0  0  0  0  0  0  0  0  0
   37.0700   25.2680   32.7260 C   0  0  0  0  0  0  0  0  0  0  0  0
   36.5830   24.1480   32.0890 C   0  0  0  0  0  3  0  0  0  0  0  0
   35.6340   24.2230   31.0960 C   0  0  0  0  0  0  0  0  0  0  0  0
   35.3300   23.2770   30.6690 H   0  0  0  0  0  0  0  0  0  0  0  0
   35.1710   25.4570   30.7450 N   0  0  0  0  0  0  0  0  0  0  0  0
   35.6260   26.5650   31.3490 C   0  0  0  0  0  3  0  0  0  0  0  0
   36.5540   26.4640   32.3140 N   0  0  0  0  0  0  0  0  0  0  0  0
  1 15  1  0  0  0  0
  1  6  1  0  0  0  0
  2  1  1  0  0  0  0
  3  9  1  6  0  0  0
  3  2  1  0  0  0  0
  3  4  1  0  0  0  0
  4 10  1  0  0  0  0
  4  5  1  0  0  0  0
  5  6  1  0  0  0  0
  5 12  1  0  0  0  0
  6 13  1  0  0  0  0
  7  2  1  0  0  0  0
  8  2  1  0  0  0  0
 11  5  1  0  0  0  0
 14  6  1  0  0  0  0
 15 20  1  0  0  0  0
 16 17  1  0  0  0  0
 16 15  2  0  0  0  0
 17 18  2  0  0  0  0
 18 19  1  0  0  0  0
 19 23  1  0  0  0  0
 20 19  2  0  0  0  0
 21 16  1  0  0  0  0
 22 17  1  0  0  0  0
 24  3  1  0  0  0  0
 25 24  2  0  0  0  0
 26 25  1  0  0  0  0
 27 26  1  0  0  0  0
 28 26  2  0  0  0  0
 28 29  1  0  0  0  0
 29 30  2  0  0  0  0
 30 24  1  0  0  0  0
M  END
>  <minimizedAffinity>
-4.64997959

$$$$

 OpenBabel03272508393D

 30 32  0  0  1  0  0  0  0  0999 V2000
   37.4400   25.7570   32.5300 N   0  0  0  0  0  0  0  0  0  0  0  0
   37.3980   27.1590   32.1330 C   0  0  0  0  0  0  0  0  0  0  0  0
   36.2210   27.5240   31.2910 C   0  0  2  0  0  0  0  0  0  0  0  0
   35.7100   26.5310   30.4400 N   0  0  0  0  0  0  0  0  0  0  0  0
   35.7130   25.1980   31.0180 C   0  0  0  0  0  0  0  0  0  0  0  0
   37.1350   24.9280   31.4090 C   0  0  0  0  0  0  0  0  0  0  0  0
   38.3890   27.3750   31.6480 H   0  0  0  0  0  0  0  0  0  0  0  0
   37.3870   27.7520   33.0660 H   0  0  0  0  0  0  0  0  0  0  0  0
   35.3790   27.8510   31.9650 H   0  0  0  0  0  0  0  0  0  0  0  0
   35.9260   26.5680   29.4470 H   0  0  0  0  0  0  0  0  0  0  0  0
   35.0420   25.1170   31.8720 H   0  0  0  0  0  0  0  0  0  0  0  0
   35.4160   24.4700   30.2190 H   0  0  0  0  0  0  0  0  0  0  0  0
   37.2840   23.8640   31.7230 H   0  0  0  0  0  0  0  0  0  0  0  0
   37.8260   25.1100   30.5690 H   0  0  0  0  0  0  0  0  0  0  0  0
   37.7480   25.3150   33.8390 C   0  0  0  0  0  0  0  0  0  0  0  0
   37.7680   26.1640   34.9410 C   0  0  0  0  0  0  0  0  0  0  0  0
   38.0810   25.6210   36.1980 C   0  0  0  0  0  0  0  0  0  0  0  0
   38.3510   24.2790   36.2730 N   0  0  0  0  0  0  0  0  0  0  0  0
   38.3190   23.4840   35.1640 C   0  0  0  0  0  0  0  0  0  0  0  0
   38.0210   23.9920   33.9630 N   0  0  0  0  0  0  0  0  0  0  0  0
   37.5470   27.2070   34.8110 H   0  0  0  0  0  0  0  0  0  0  0  0
   38.1060   26.2520   37.0740 H   0  0  0  0  0  0  0  0  0  0  0  0
   38.5420   22.4360   35.3000 H   0  0  0  0  0  0  0  0  0  0  0  0
   36.5690   28.7210   30.5000 C   0  0  0  0  0  0  0  0  0  0  0  0
   36.2980   30.0600   30.6790 C   0  0  0  0  0  3  0  0  0  0  0  0
   36.7350   31.0220   29.7980 C   0  0  0  0  0  0  0  0  0  0  0  0
   36.4600   32.0390   30.0440 H   0  0  0  0  0  0  0  0  0  0  0  0
   37.4600   30.6160   28.7160 N   0  0  0  0  0  0  0  0  0  0  0  0
   37.7390   29.3200   28.5150 C   0  0  0  0  0  3  0  0  0  0  0  0
   37.3000   28.4010   29.3900 N   0  0  0  0  0  0  0  0  0  0  0  0
  1 15  1  0  0  0  0
  2  1  1  0  0  0  0
  2  8  1  0  0  0  0
  3  9  1  1  0  0  0
  3  2  1  0  0  0  0
  4  5  1  0  0  0  0
  4  3  1  0  0  0  0
  5  6  1  0  0  0  0
  5 11  1  0  0  0  0
  6 13  1  0  0  0  0
  6  1  1  0  0  0  0
  7  2  1  0  0  0  0
 10  4  1  0  0  0  0
 12  5  1  0  0  0  0
 14  6  1  0  0  0  0
 15 20  2  0  0  0  0
 15 16  1  0  0  0  0
 16 17  2  0  0  0  0
 17 18  1  0  0  0  0
 17 22  1  0  0  0  0
 19 23  1  0  0  0  0
 19 18  2  0  0  0  0
 20 19  1  0  0  0  0
 21 16  1  0  0  0  0
 24 25  1  0  0  0  0
 24  3  1  0  0  0  0
 26 27  1  0  0  0  0
 26 25  2  0  0  0  0
 28 26  1  0  0  0  0
 29 28  2  0  0  0  0
 29 30  1  0  0  0  0
 30 24  2  0  0  0  0
M  END
>  <minimizedAffinity>
-4.6067977

$$$$

 OpenBabel03272508393D

 30 32  0  0  1  0  0  0  0  0999 V2000
   37.1900   25.7760   32.9400 N   0  0  0  0  0  0  0  0  0  0  0  0
   37.6040   25.6950   34.3350 C   0  0  0  0  0  0  0  0  0  0  0  0
   38.7680   24.7940   34.5800 C   0  0  2  0  0  0  0  0  0  0  0  0
   38.9040   23.6810   33.7350 N   0  0  0  0  0  0  0  0  0  0  0  0
   38.5620   23.9460   32.3480 C   0  0  0  0  0  0  0  0  0  0  0  0
   37.1570   24.4680   32.3690 C   0  0  0  0  0  0  0  0  0  0  0  0
   36.6840   25.4170   34.9170 H   0  0  0  0  0  0  0  0  0  0  0  0
   37.8570   26.7240   34.6510 H   0  0  0  0  0  0  0  0  0  0  0  0
   39.7170   25.3950   34.4950 H   0  0  0  0  0  0  0  0  0  0  0  0
   38.6330   22.7620   34.0750 H   0  0  0  0  0  0  0  0  0  0  0  0
   39.2450   24.6560   31.8820 H   0  0  0  0  0  0  0  0  0  0  0  0
   38.5750   22.9730   31.7930 H   0  0  0  0  0  0  0  0  0  0  0  0
   36.7320   24.5580   31.3370 H   0  0  0  0  0  0  0  0  0  0  0  0
   36.4850   23.7970   32.9310 H   0  0  0  0  0  0  0  0  0  0  0  0
   36.8690   26.9860   32.2800 C   0  0  0  0  0  0  0  0  0  0  0  0
   37.0270   27.1690   30.9100 C   0  0  0  0  0  0  0  0  0  0  0  0
   36.6740   28.4100   30.3560 C   0  0  0  0  0  0  0  0  0  0  0  0
   36.1890   29.3780   31.1960 N   0  0  0  0  0  0  0  0  0  0  0  0
   36.0510   29.1540   32.5350 C   0  0  0  0  0  0  0  0  0  0  0  0
   36.3850   27.9760   33.0720 N   0  0  0  0  0  0  0  0  0  0  0  0
   37.4130   26.3660   30.3090 H   0  0  0  0  0  0  0  0  0  0  0  0
   36.7840   28.5850   29.2960 H   0  0  0  0  0  0  0  0  0  0  0  0
   35.6620   29.9640   33.1350 H   0  0  0  0  0  0  0  0  0  0  0  0
   38.7200   24.3440   35.9860 C   0  0  0  0  0  0  0  0  0  0  0  0
   37.9160   24.7030   37.0450 C   0  0  0  0  0  3  0  0  0  0  0  0
   38.0500   24.1370   38.2930 C   0  0  0  0  0  0  0  0  0  0  0  0
   37.3620   24.5000   39.0440 H   0  0  0  0  0  0  0  0  0  0  0  0
   39.0170   23.1910   38.4660 N   0  0  0  0  0  0  0  0  0  0  0  0
   39.8140   22.8210   37.4520 C   0  0  0  0  0  3  0  0  0  0  0  0
   39.6630   23.3890   36.2450 N   0  0  0  0  0  0  0  0  0  0  0  0
  1  2  1  0  0  0  0
  2  3  1  0  0  0  0
  2  8  1  0  0  0  0
  2  7  1  0  0  0  0
  3  9  1  6  0  0  0
  3 24  1  0  0  0  0
  4 10  1  0  0  0  0
  4  3  1  0  0  0  0
  5  6  1  0  0  0  0
  5  4  1  0  0  0  0
  6 14  1  0  0  0  0
  6  1  1  0  0  0  0
 11  5  1  0  0  0  0
 12  5  1  0  0  0  0
 13  6  1  0  0  0  0
 15  1  1  0  0  0  0
 15 20  1  0  0  0  0
 16 15  2  0  0  0  0
 17 16  1  0  0  0  0
 17 18  2  0  0  0  0
 18 19  1  0  0  0  0
 19 20  2  0  0  0  0
 19 23  1  0  0  0  0
 21 16  1  0  0  0  0
 22 17  1  0  0  0  0
 24 30  2  0  0  0  0
 24 25  1  0  0  0  0
 25 26  2  0  0  0  0
 26 28  1  0  0  0  0
 26 27  1  0  0  0  0
 29 28  2  0  0  0  0
 30 29  1  0  0  0  0
M  END
>  <minimizedAffinity>
-4.60580921

$$$$

 OpenBabel03272508393D

 30 32  0  0  1  0  0  0  0  0999 V2000
   38.7280   25.3610   34.8490 N   0  0  0  0  0  0  0  0  0  0  0  0
   37.7750   26.4540   34.7020 C   0  0  0  0  0  0  0  0  0  0  0  0
   37.0530   26.4700   33.3960 C   0  0  2  0  0  0  0  0  0  0  0  0
   37.7440   25.9770   32.2780 N   0  0  0  0  0  0  0  0  0  0  0  0
   38.5670   24.8130   32.5570 C   0  0  0  0  0  0  0  0  0  0  0  0
   39.4990   25.2290   33.6550 C   0  0  0  0  0  0  0  0  0  0  0  0
   38.3480   27.3980   34.9170 H   0  0  0  0  0  0  0  0  0  0  0  0
   37.0480   26.3540   35.5290 H   0  0  0  0  0  0  0  0  0  0  0  0
   36.1070   25.8650   33.4970 H   0  0  0  0  0  0  0  0  0  0  0  0
   38.1410   26.6330   31.6100 H   0  0  0  0  0  0  0  0  0  0  0  0
   37.9740   23.9460   32.8430 H   0  0  0  0  0  0  0  0  0  0  0  0
   39.1720   24.5860   31.6410 H   0  0  0  0  0  0  0  0  0  0  0  0
   40.2880   24.4580   33.8440 H   0  0  0  0  0  0  0  0  0  0  0  0
   40.0250   26.1660   33.4060 H   0  0  0  0  0  0  0  0  0  0  0  0
   38.8500   24.5710   36.0170 C   0  0  0  0  0  0  0  0  0  0  0  0
   38.0070   24.7050   37.1150 C   0  0  0  0  0  0  0  0  0  0  0  0
   38.2130   23.8650   38.2220 C   0  0  0  0  0  0  0  0  0  0  0  0
   39.2370   22.9560   38.1620 N   0  0  0  0  0  0  0  0  0  0  0  0
   40.0390   22.8600   37.0620 C   0  0  0  0  0  0  0  0  0  0  0  0
   39.8510   23.6540   36.0030 N   0  0  0  0  0  0  0  0  0  0  0  0
   37.2240   25.4390   37.0960 H   0  0  0  0  0  0  0  0  0  0  0  0
   37.5770   23.9420   39.0920 H   0  0  0  0  0  0  0  0  0  0  0  0
   40.8260   22.1190   37.0860 H   0  0  0  0  0  0  0  0  0  0  0  0
   36.6020   27.8500   33.1300 C   0  0  0  0  0  0  0  0  0  0  0  0
   36.6000   28.6180   31.9860 C   0  0  0  0  0  3  0  0  0  0  0  0
   36.1170   29.9070   31.9690 C   0  0  0  0  0  0  0  0  0  0  0  0
   36.1680   30.4110   31.0130 H   0  0  0  0  0  0  0  0  0  0  0  0
   35.6290   30.4230   33.1330 N   0  0  0  0  0  0  0  0  0  0  0  0
   35.6190   29.6990   34.2620 C   0  0  0  0  0  3  0  0  0  0  0  0
   36.0960   28.4440   34.2520 N   0  0  0  0  0  0  0  0  0  0  0  0
  1 15  1  0  0  0  0
  2  1  1  0  0  0  0
  2  7  1  0  0  0  0
  2  8  1  0  0  0  0
  3  9  1  1  0  0  0
  3  2  1  0  0  0  0
  4  5  1  0  0  0  0
  4  3  1  0  0  0  0
  5 11  1  0  0  0  0
  5  6  1  0  0  0  0
  6 13  1  0  0  0  0
  6  1  1  0  0  0  0
 10  4  1  0  0  0  0
 12  5  1  0  0  0  0
 14  6  1  0  0  0  0
 15 16  1  0  0  0  0
 16 17  2  0  0  0  0
 17 22  1  0  0  0  0
 18 17  1  0  0  0  0
 19 23  1  0  0  0  0
 19 18  2  0  0  0  0
 20 15  2  0  0  0  0
 20 19  1  0  0  0  0
 21 16  1  0  0  0  0
 24  3  1  0  0  0  0
 24 30  1  0  0  0  0
 25 24  2  0  0  0  0
 26 25  1  0  0  0  0
 26 28  2  0  0  0  0
 27 26  1  0  0  0  0
 28 29  1  0  0  0  0
 30 29  2  0  0  0  0
M  END
>  <minimizedAffinity>
-4.5422473

$$$$

 OpenBabel03272508393D

 30 32  0  0  1  0  0  0  0  0999 V2000
   37.9480   24.9190   33.2450 N   0  0  0  0  0  0  0  0  0  0  0  0
   37.3290   26.2140   32.9930 C   0  0  0  0  0  0  0  0  0  0  0  0
   36.4120   26.2390   31.8150 C   0  0  2  0  0  0  0  0  0  0  0  0
   36.7200   25.3810   30.7480 N   0  0  0  0  0  0  0  0  0  0  0  0
   37.2220   24.0810   31.1590 C   0  0  0  0  0  0  0  0  0  0  0  0
   38.4180   24.3610   32.0180 C   0  0  0  0  0  0  0  0  0  0  0  0
   38.1720   26.9550   32.9300 H   0  0  0  0  0  0  0  0  0  0  0  0
   36.7680   26.4800   33.9080 H   0  0  0  0  0  0  0  0  0  0  0  0
   35.3710   25.9830   32.1600 H   0  0  0  0  0  0  0  0  0  0  0  0
   37.1550   25.7640   29.9120 H   0  0  0  0  0  0  0  0  0  0  0  0
   36.4720   23.5000   31.6950 H   0  0  0  0  0  0  0  0  0  0  0  0
   37.5600   23.5310   30.2430 H   0  0  0  0  0  0  0  0  0  0  0  0
   38.9810   23.4250   32.2640 H   0  0  0  0  0  0  0  0  0  0  0  0
   39.1300   25.0350   31.5130 H   0  0  0  0  0  0  0  0  0  0  0  0
   38.0570   24.3310   34.5290 C   0  0  0  0  0  0  0  0  0  0  0  0
   37.9660   25.0630   35.7080 C   0  0  0  0  0  0  0  0  0  0  0  0
   38.0830   24.3790   36.9290 C   0  0  0  0  0  0  0  0  0  0  0  0
   38.2800   23.0230   36.8940 N   0  0  0  0  0  0  0  0  0  0  0  0
   38.3620   22.3460   35.7120 C   0  0  0  0  0  0  0  0  0  0  0  0
   38.2520   22.9880   34.5440 N   0  0  0  0  0  0  0  0  0  0  0  0
   37.8110   26.1250   35.6630 H   0  0  0  0  0  0  0  0  0  0  0  0
   38.0180   24.9160   37.8640 H   0  0  0  0  0  0  0  0  0  0  0  0
   38.5170   21.2780   35.7620 H   0  0  0  0  0  0  0  0  0  0  0  0
   36.3260   27.6290   31.3230 C   0  0  0  0  0  0  0  0  0  0  0  0
   36.9440   28.2810   30.2790 C   0  0  0  0  0  3  0  0  0  0  0  0
   36.7050   29.6060   29.9970 C   0  0  0  0  0  0  0  0  0  0  0  0
   37.2490   30.0080   29.1530 H   0  0  0  0  0  0  0  0  0  0  0  0
   35.8210   30.2790   30.7880 N   0  0  0  0  0  0  0  0  0  0  0  0
   35.2040   29.6700   31.8110 C   0  0  0  0  0  3  0  0  0  0  0  0
   35.4560   28.3770   32.0660 N   0  0  0  0  0  0  0  0  0  0  0  0
  1 15  1  0  0  0  0
  2  1  1  0  0  0  0
  2  8  1  0  0  0  0
  3  9  1  1  0  0  0
  3  2  1  0  0  0  0
  4  5  1  0  0  0  0
  4  3  1  0  0  0  0
  5 11  1  0  0  0  0
  5  6  1  0  0  0  0
  6 13  1  0  0  0  0
  6  1  1  0  0  0  0
  7  2  1  0  0  0  0
 10  4  1  0  0  0  0
 12  5  1  0  0  0  0
 14  6  1  0  0  0  0
 15 20  2  0  0  0  0
 15 16  1  0  0  0  0
 16 17  2  0  0  0  0
 17 22  1  0  0  0  0
 18 17  1  0  0  0  0
 19 23  1  0  0  0  0
 19 18  2  0  0  0  0
 20 19  1  0  0  0  0
 21 16  1  0  0  0  0
 24  3  1  0  0  0  0
 24 30  1  0  0  0  0
 25 24  2  0  0  0  0
 26 25  1  0  0  0  0
 26 28  2  0  0  0  0
 27 26  1  0  0  0  0
 28 29  1  0  0  0  0
 29 30  2  0  0  0  0
M  END
>  <minimizedAffinity>
-4.50024128

$$$$
