
 OpenBabel03262523363D

 32 34  0  0  1  0  0  0  0  0999 V2000
   35.4060   30.1780   49.9390 C   0  0  2  0  0  0  0  0  0  0  0  0
   36.2510   31.2330   49.2590 C   0  0  0  0  0  0  0  0  0  0  0  0
   37.7190   30.9360   49.3510 C   0  0  2  0  0  0  0  0  0  0  0  0
   38.1930   30.7290   50.7670 C   0  0  0  0  0  0  0  0  0  0  0  0
   37.2500   29.9200   51.6010 C   0  0  0  0  0  0  0  0  0  0  0  0
   36.1920   29.2210   50.7660 C   0  0  0  0  0  0  0  0  0  0  0  0
   34.6220   30.6450   50.5770 H   0  0  0  0  0  0  0  0  0  0  0  0
   36.0920   32.1710   49.8320 H   0  0  0  0  0  0  0  0  0  0  0  0
   36.0200   31.3720   48.1890 H   0  0  0  0  0  0  0  0  0  0  0  0
   37.8840   29.9980   48.7500 H   0  0  0  0  0  0  0  0  0  0  0  0
   38.4010   31.7350   51.1990 H   0  0  0  0  0  0  0  0  0  0  0  0
   39.1620   30.1780   50.7170 H   0  0  0  0  0  0  0  0  0  0  0  0
   36.7350   30.5580   52.3650 H   0  0  0  0  0  0  0  0  0  0  0  0
   37.7630   29.1090   52.1710 H   0  0  0  0  0  0  0  0  0  0  0  0
   35.5440   28.6990   51.4770 H   0  0  0  0  0  0  0  0  0  0  0  0
   36.7270   28.5080   50.0770 H   0  0  0  0  0  0  0  0  0  0  0  0
   34.6540   29.3960   48.9200 C   0  0  0  0  0  0  0  0  0  0  0  0
   34.3270   30.0590   47.7220 C   0  0  0  0  0  0  0  0  0  0  0  0
   33.6180   29.3390   46.7680 C   0  0  0  0  0  0  0  0  0  0  0  0
   33.2670   28.0290   47.0240 N   0  0  0  0  0  0  0  0  0  0  0  0
   33.6060   27.4240   48.2040 C   0  0  0  0  0  0  0  0  0  0  0  0
   34.2900   28.1150   49.1280 N   0  0  0  0  0  0  0  0  0  0  0  0
   34.5660   31.0640   47.4660 H   0  0  0  0  0  0  0  0  0  0  0  0
   33.3090   29.7230   45.8190 H   0  0  0  0  0  0  0  0  0  0  0  0
   33.3170   26.3980   48.3760 H   0  0  0  0  0  0  0  0  0  0  0  0
   38.4950   32.0180   48.7460 C   0  0  0  0  0  0  0  0  0  0  0  0
   38.7880   33.1960   49.4030 C   0  0  0  0  0  0  0  0  0  0  0  0
   39.5260   34.2120   48.8120 C   0  0  0  0  0  0  0  0  0  0  0  0
   39.7730   35.1460   49.2990 H   0  0  0  0  0  0  0  0  0  0  0  0
   39.9860   34.0640   47.5410 N   0  0  0  0  0  0  0  0  0  0  0  0
   39.6930   32.9120   46.9140 C   0  0  0  0  0  0  0  0  0  0  0  0
   38.9780   31.9230   47.4800 N   0  0  0  0  0  0  0  0  0  0  0  0
  1  7  1  1  0  0  0
  1  6  1  0  0  0  0
  2  3  1  0  0  0  0
  2  8  1  0  0  0  0
  2  1  1  0  0  0  0
  3 10  1  6  0  0  0
  3  4  1  0  0  0  0
  4 11  1  0  0  0  0
  4  5  1  0  0  0  0
  5 14  1  0  0  0  0
  5 13  1  0  0  0  0
  6 15  1  0  0  0  0
  6  5  1  0  0  0  0
  9  2  1  0  0  0  0
 12  4  1  0  0  0  0
 16  6  1  0  0  0  0
 17 22  1  0  0  0  0
 17  1  1  0  0  0  0
 18 17  2  0  0  0  0
 19 20  2  0  0  0  0
 19 18  1  0  0  0  0
 20 21  1  0  0  0  0
 21 25  1  0  0  0  0
 21 22  2  0  0  0  0
 23 18  1  0  0  0  0
 24 19  1  0  0  0  0
 26  3  1  0  0  0  0
 26 27  1  0  0  0  0
 28 29  1  0  0  0  0
 28 27  2  0  0  0  0
 30 28  1  0  0  0  0
 31 32  1  0  0  0  0
 31 30  2  0  0  0  0
 32 26  2  0  0  0  0
M  END
>  <minimizedAffinity>
-6.32516718

>  <minimizedRMSD>
0.56657511

$$$$
