
 OpenBabel03272506303D

 32 34  0  0  1  0  0  0  0  0999 V2000
   33.7640   27.1360   46.1790 C   0  0  1  0  0  0  0  0  0  0  0  0
   32.8070   28.0370   45.5150 C   0  0  0  0  0  0  0  0  0  0  0  0
   31.4020   28.0480   46.0460 C   0  0  0  0  0  0  0  0  0  0  0  0
   31.2780   27.9010   47.5180 C   0  0  0  0  0  0  0  0  0  0  0  0
   32.2270   26.9790   48.1920 C   0  0  0  0  0  0  0  0  0  0  0  0
   33.6230   27.1090   47.6590 C   0  0  2  0  0  0  0  0  0  0  0  0
   34.8070   27.5670   46.0090 H   0  0  0  0  0  0  0  0  0  0  0  0
   32.7650   28.0330   44.4400 H   0  0  0  0  0  0  0  0  0  0  0  0
   33.1740   29.0860   45.7620 H   0  0  0  0  0  0  0  0  0  0  0  0
   30.8530   27.2170   45.5570 H   0  0  0  0  0  0  0  0  0  0  0  0
   30.9190   28.9890   45.7360 H   0  0  0  0  0  0  0  0  0  0  0  0
   31.3470   28.9270   47.9660 H   0  0  0  0  0  0  0  0  0  0  0  0
   30.2420   27.5640   47.7490 H   0  0  0  0  0  0  0  0  0  0  0  0
   31.9120   25.9130   48.1760 H   0  0  0  0  0  0  0  0  0  0  0  0
   32.2610   27.2700   49.2620 H   0  0  0  0  0  0  0  0  0  0  0  0
   34.1920   26.3050   48.1470 H   0  0  0  0  0  0  0  0  0  0  0  0
   33.4540   25.4740   44.2580 C   0  0  0  0  0  0  0  0  0  0  0  0
   33.8830   25.7910   45.5730 C   0  0  0  0  0  0  0  0  0  0  0  0
   34.4520   24.7630   46.2980 C   0  0  0  0  0  0  0  0  0  0  0  0
   34.5780   23.5270   45.7490 N   0  0  0  0  0  0  0  0  0  0  0  0
   34.1520   23.2720   44.4850 C   0  0  0  0  0  0  0  0  0  0  0  0
   33.5860   24.2590   43.7390 N   0  0  0  0  0  0  0  0  0  0  0  0
   33.0030   26.2320   43.6420 H   0  0  0  0  0  0  0  0  0  0  0  0
   34.8490   24.7720   47.2940 H   0  0  0  0  0  0  0  0  0  0  0  0
   34.2370   22.3000   44.0170 H   0  0  0  0  0  0  0  0  0  0  0  0
   34.2590   28.3660   48.2090 C   0  0  0  0  0  0  0  0  0  0  0  0
   34.2100   28.5960   49.5900 C   0  0  0  0  0  3  0  0  0  0  0  0
   34.7710   29.7340   50.1810 C   0  0  0  0  0  0  0  0  0  0  0  0
   34.7070   29.8670   51.2540 H   0  0  0  0  0  0  0  0  0  0  0  0
   35.3750   30.6260   49.3770 N   0  0  0  0  0  0  0  0  0  0  0  0
   35.4270   30.4100   48.0400 C   0  0  0  0  0  3  0  0  0  0  0  0
   34.8890   29.3260   47.5090 N   0  0  0  0  0  0  0  0  0  0  0  0
  1  7  1  6  0  0  0
  1  6  1  0  0  0  0
  2  9  1  0  0  0  0
  2  3  1  0  0  0  0
  2  1  1  0  0  0  0
  3  4  1  0  0  0  0
  4 13  1  0  0  0  0
  4 12  1  0  0  0  0
  4  5  1  0  0  0  0
  5 15  1  0  0  0  0
  6 16  1  1  0  0  0
  6  5  1  0  0  0  0
  6 26  1  0  0  0  0
  8  2  1  0  0  0  0
 10  3  1  0  0  0  0
 11  3  1  0  0  0  0
 14  5  1  0  0  0  0
 17 18  1  0  0  0  0
 18  1  1  0  0  0  0
 18 19  2  0  0  0  0
 19 24  1  0  0  0  0
 20 19  1  0  0  0  0
 21 20  2  0  0  0  0
 22 17  2  0  0  0  0
 22 21  1  0  0  0  0
 23 17  1  0  0  0  0
 25 21  1  0  0  0  0
 26 27  1  0  0  0  0
 27 28  2  0  0  0  0
 28 29  1  0  0  0  0
 30 28  1  0  0  0  0
 31 30  2  0  0  0  0
 32 31  1  0  0  0  0
 32 26  2  0  0  0  0
M  END
>  <minimizedAffinity>
-3.50718093

>  <minimizedRMSD>
5.88583755

$$$$
