
 OpenBabel03272506483D

 40 43  0  0  1  0  0  0  0  0999 V2000
   32.1390   28.4540   47.4650 C   0  0  2  0  0  0  0  0  0  0  0  0
   33.3900   28.2940   48.2780 C   0  0  1  0  0  0  0  0  0  0  0  0
   33.7960   26.9980   48.1740 O   0  0  0  0  0  0  0  0  0  0  0  0
   33.0870   26.3710   47.1550 C   0  0  0  0  0  0  0  0  0  0  0  0
   32.4690   27.4600   46.3110 C   0  0  1  0  0  0  0  0  0  0  0  0
   31.2240   28.1020   47.9350 H   0  0  0  0  0  0  0  0  0  0  0  0
   33.2220   28.6020   49.3340 H   0  0  0  0  0  0  0  0  0  0  0  0
   32.3980   25.6910   47.6380 H   0  0  0  0  0  0  0  0  0  0  0  0
   33.8200   25.7790   46.5220 H   0  0  0  0  0  0  0  0  0  0  0  0
   33.2030   27.9350   45.6660 H   0  0  0  0  0  0  0  0  0  0  0  0
   32.0530   29.7580   46.9400 O   0  0  0  0  0  0  0  0  0  0  0  0
   32.4470   30.3980   47.5840 H   0  0  0  0  0  0  0  0  0  0  0  0
   34.6860   29.3510   47.5130 S   0  0  0  0  0  0  0  0  0  0  0  0
   37.1190   29.2820   50.6390 C   0  0  0  0  0  0  0  0  0  0  0  0
   37.5930   30.5870   50.7620 C   0  0  0  0  0  0  0  0  0  0  0  0
   37.1390   31.5360   49.8300 C   0  0  0  0  0  0  0  0  0  0  0  0
   36.2660   31.1340   48.8660 N   0  0  0  0  0  0  0  0  0  0  0  0
   35.8330   29.8570   48.7890 C   0  0  0  0  0  0  0  0  0  0  0  0
   36.2530   28.9140   49.6720 N   0  0  0  0  0  0  0  0  0  0  0  0
   37.5020   28.5960   51.3820 H   0  0  0  0  0  0  0  0  0  0  0  0
   38.2870   30.8610   51.5440 H   0  0  0  0  0  0  0  0  0  0  0  0
   37.4760   32.5620   49.8810 H   0  0  0  0  0  0  0  0  0  0  0  0
   31.3240   26.9810   45.7250 O   0  0  0  0  0  0  0  0  0  0  0  0
   30.0090   29.1460   44.2270 Cl  0  0  0  0  0  0  0  0  0  0  0  0
   29.3650   28.1810   45.5370 C   0  0  0  0  0  0  0  0  0  0  0  0
   30.0810   27.1800   46.1530 C   0  0  0  0  0  0  0  0  0  0  0  0
   29.4520   26.4570   47.1690 C   0  0  0  0  0  0  0  0  0  0  0  0
   28.1540   26.7440   47.5360 C   0  0  0  0  0  0  0  0  0  0  0  0
   27.4280   27.7500   46.9200 C   0  0  0  0  0  0  0  0  0  0  0  0
   28.0500   28.4650   45.9160 C   0  0  0  0  0  0  0  0  0  0  0  0
   29.9230   25.6540   47.7080 H   0  0  0  0  0  0  0  0  0  0  0  0
   27.6690   26.1850   48.3220 H   0  0  0  0  0  0  0  0  0  0  0  0
   26.4190   27.9260   47.2510 H   0  0  0  0  0  0  0  0  0  0  0  0
   27.3380   29.5360   45.2290 C   0  0  0  0  0  0  0  0  0  0  0  0
   26.6150   29.3540   44.0790 C   0  0  0  0  0  3  0  0  0  0  0  0
   25.9340   30.3630   43.4180 C   0  0  0  0  0  0  0  0  0  0  0  0
   25.3780   30.1880   42.5170 H   0  0  0  0  0  0  0  0  0  0  0  0
   25.9730   31.6150   43.9250 N   0  0  0  0  0  0  0  0  0  0  0  0
   26.6770   31.8160   45.0530 C   0  0  0  0  0  3  0  0  0  0  0  0
   27.3260   30.8130   45.6710 N   0  0  0  0  0  0  0  0  0  0  0  0
  1  6  1  1  0  0  0
  1  2  1  0  0  0  0
  2  7  1  1  0  0  0
  3  2  1  0  0  0  0
  4  8  1  0  0  0  0
  4  3  1  0  0  0  0
  5 10  1  6  0  0  0
  5  4  1  0  0  0  0
  5  1  1  0  0  0  0
  9  4  1  0  0  0  0
 11  1  1  0  0  0  0
 11 12  1  0  0  0  0
 13  2  1  0  0  0  0
 13 18  1  0  0  0  0
 14 15  1  0  0  0  0
 14 20  1  0  0  0  0
 15 21  1  0  0  0  0
 16 22  1  0  0  0  0
 16 15  2  0  0  0  0
 17 16  1  0  0  0  0
 18 17  2  0  0  0  0
 18 19  1  0  0  0  0
 19 14  2  0  0  0  0
 23 26  1  0  0  0  0
 23  5  1  0  0  0  0
 24 25  1  0  0  0  0
 25 30  2  0  0  0  0
 25 26  1  0  0  0  0
 26 27  2  0  0  0  0
 27 28  1  0  0  0  0
 27 31  1  0  0  0  0
 28 32  1  0  0  0  0
 29 33  1  0  0  0  0
 29 28  2  0  0  0  0
 30 29  1  0  0  0  0
 34 40  1  0  0  0  0
 34 30  1  0  0  0  0
 35 34  2  0  0  0  0
 36 38  2  0  0  0  0
 36 35  1  0  0  0  0
 37 36  1  0  0  0  0
 38 39  1  0  0  0  0
 39 40  2  0  0  0  0
M  END
>  <minimizedAffinity>
-5.31737041

>  <minimizedRMSD>
0.483534604

$$$$
