
 OpenBabel03272506183D

 32 34  0  0  0  0  0  0  0  0999 V2000
   35.5200   30.2990   49.8190 C   0  0  0  0  0  0  0  0  0  0  0  0
   36.4420   31.2280   49.0570 C   0  0  0  0  0  0  0  0  0  0  0  0
   37.8920   30.8670   49.1930 C   0  0  0  0  0  0  0  0  0  0  0  0
   38.3360   30.7580   50.6280 C   0  0  0  0  0  0  0  0  0  0  0  0
   37.3280   30.0980   51.5180 C   0  0  0  0  0  0  0  0  0  0  0  0
   36.2550   29.3750   50.7290 C   0  0  0  0  0  0  0  0  0  0  0  0
   34.7620   30.8650   50.3990 H   0  0  0  0  0  0  0  0  0  0  0  0
   36.3320   32.2590   49.4890 H   0  0  0  0  0  0  0  0  0  0  0  0
   36.1900   31.3160   48.0040 H   0  0  0  0  0  0  0  0  0  0  0  0
   38.0880   29.9020   48.6600 H   0  0  0  0  0  0  0  0  0  0  0  0
   38.4760   31.6800   48.7180 H   0  0  0  0  0  0  0  0  0  0  0  0
   38.7130   31.7290   51.0140 H   0  0  0  0  0  0  0  0  0  0  0  0
   39.2360   30.0870   50.6230 H   0  0  0  0  0  0  0  0  0  0  0  0
   36.8010   30.9310   52.0560 H   0  0  0  0  0  0  0  0  0  0  0  0
   37.7530   29.4500   52.2910 H   0  0  0  0  0  0  0  0  0  0  0  0
   36.7670   28.5420   50.1850 H   0  0  0  0  0  0  0  0  0  0  0  0
   35.5650   28.8940   51.4280 H   0  0  0  0  0  0  0  0  0  0  0  0
   34.7490   29.4560   48.8560 C   0  0  0  0  0  0  0  0  0  0  0  0
   34.1780   30.1270   47.7510 C   0  0  0  0  0  0  0  0  0  0  0  0
   33.4570   29.3630   46.8480 C   0  0  0  0  0  0  0  0  0  0  0  0
   33.3230   28.0030   47.0540 N   0  0  0  0  0  0  0  0  0  0  0  0
   33.8950   27.4000   48.1420 C   0  0  0  0  0  0  0  0  0  0  0  0
   34.5930   28.1190   49.0200 N   0  0  0  0  0  0  0  0  0  0  0  0
   34.2350   31.1580   47.5350 H   0  0  0  0  0  0  0  0  0  0  0  0
   33.7670   26.3330   48.2670 H   0  0  0  0  0  0  0  0  0  0  0  0
   32.8020   29.8830   45.6560 C   0  0  0  0  0  0  0  0  0  0  0  0
   32.1560   31.0990   45.6250 C   0  0  0  0  0  3  0  0  0  0  0  0
   31.5230   31.6280   44.5150 C   0  0  0  0  0  0  0  0  0  0  0  0
   31.0250   32.5830   44.5220 H   0  0  0  0  0  0  0  0  0  0  0  0
   31.5380   30.8970   43.3640 N   0  0  0  0  0  0  0  0  0  0  0  0
   32.1770   29.6920   43.3890 C   0  0  0  0  0  3  0  0  0  0  0  0
   32.7790   29.2150   44.4890 N   0  0  0  0  0  0  0  0  0  0  0  0
  1  7  1  0  0  0  0
  1  6  1  0  0  0  0
  2  3  1  0  0  0  0
  2  8  1  0  0  0  0
  2  1  1  0  0  0  0
  3  4  1  0  0  0  0
  4 12  1  0  0  0  0
  4  5  1  0  0  0  0
  5 14  1  0  0  0  0
  5 15  1  0  0  0  0
  6 17  1  0  0  0  0
  6  5  1  0  0  0  0
  9  2  1  0  0  0  0
 10  3  1  0  0  0  0
 11  3  1  0  0  0  0
 13  4  1  0  0  0  0
 16  6  1  0  0  0  0
 18 23  1  0  0  0  0
 18  1  1  0  0  0  0
 19 18  2  0  0  0  0
 20 21  2  0  0  0  0
 20 19  1  0  0  0  0
 21 22  1  0  0  0  0
 22 25  1  0  0  0  0
 22 23  2  0  0  0  0
 24 19  1  0  0  0  0
 26 20  1  0  0  0  0
 27 26  1  0  0  0  0
 28 29  1  0  0  0  0
 28 27  2  0  0  0  0
 30 31  2  0  0  0  0
 30 28  1  0  0  0  0
 31 32  1  0  0  0  0
 32 26  2  0  0  0  0
M  END
>  <minimizedAffinity>
-5.25583982

>  <minimizedRMSD>
0.19315888

$$$$
