
 OpenBabel03272506473D

 40 43  0  0  1  0  0  0  0  0999 V2000
   32.1380   28.4510   47.4650 C   0  0  2  0  0  0  0  0  0  0  0  0
   33.3900   28.2910   48.2760 C   0  0  1  0  0  0  0  0  0  0  0  0
   33.7960   26.9950   48.1710 O   0  0  0  0  0  0  0  0  0  0  0  0
   33.0860   26.3690   47.1520 C   0  0  0  0  0  0  0  0  0  0  0  0
   32.4670   27.4580   46.3090 C   0  0  1  0  0  0  0  0  0  0  0  0
   31.2230   28.0990   47.9350 H   0  0  0  0  0  0  0  0  0  0  0  0
   33.2230   28.5980   49.3330 H   0  0  0  0  0  0  0  0  0  0  0  0
   32.3990   25.6880   47.6350 H   0  0  0  0  0  0  0  0  0  0  0  0
   33.8200   25.7770   46.5180 H   0  0  0  0  0  0  0  0  0  0  0  0
   33.2010   27.9340   45.6650 H   0  0  0  0  0  0  0  0  0  0  0  0
   32.0510   29.7560   46.9410 O   0  0  0  0  0  0  0  0  0  0  0  0
   32.4450   30.3950   47.5850 H   0  0  0  0  0  0  0  0  0  0  0  0
   34.6850   29.3490   47.5120 S   0  0  0  0  0  0  0  0  0  0  0  0
   37.1160   29.2830   50.6390 C   0  0  0  0  0  0  0  0  0  0  0  0
   37.5910   30.5870   50.7600 C   0  0  0  0  0  0  0  0  0  0  0  0
   37.1370   31.5360   49.8270 C   0  0  0  0  0  0  0  0  0  0  0  0
   36.2650   31.1330   48.8640 N   0  0  0  0  0  0  0  0  0  0  0  0
   35.8320   29.8560   48.7870 C   0  0  0  0  0  0  0  0  0  0  0  0
   36.2510   28.9130   49.6720 N   0  0  0  0  0  0  0  0  0  0  0  0
   37.4980   28.5970   51.3830 H   0  0  0  0  0  0  0  0  0  0  0  0
   38.2840   30.8620   51.5420 H   0  0  0  0  0  0  0  0  0  0  0  0
   37.4750   32.5610   49.8760 H   0  0  0  0  0  0  0  0  0  0  0  0
   31.3220   26.9790   45.7240 O   0  0  0  0  0  0  0  0  0  0  0  0
   30.0070   29.1440   44.2260 Cl  0  0  0  0  0  0  0  0  0  0  0  0
   29.3640   28.1800   45.5360 C   0  0  0  0  0  0  0  0  0  0  0  0
   30.0790   27.1790   46.1530 C   0  0  0  0  0  0  0  0  0  0  0  0
   29.4500   26.4560   47.1690 C   0  0  0  0  0  0  0  0  0  0  0  0
   28.1520   26.7440   47.5360 C   0  0  0  0  0  0  0  0  0  0  0  0
   27.4270   27.7500   46.9200 C   0  0  0  0  0  0  0  0  0  0  0  0
   28.0480   28.4650   45.9150 C   0  0  0  0  0  0  0  0  0  0  0  0
   29.9210   25.6530   47.7070 H   0  0  0  0  0  0  0  0  0  0  0  0
   27.6680   26.1850   48.3220 H   0  0  0  0  0  0  0  0  0  0  0  0
   26.4180   27.9260   47.2510 H   0  0  0  0  0  0  0  0  0  0  0  0
   27.3370   29.5360   45.2290 C   0  0  0  0  0  0  0  0  0  0  0  0
   26.6140   29.3530   44.0790 C   0  0  0  0  0  3  0  0  0  0  0  0
   25.9340   30.3640   43.4180 C   0  0  0  0  0  0  0  0  0  0  0  0
   25.3770   30.1880   42.5170 H   0  0  0  0  0  0  0  0  0  0  0  0
   25.9730   31.6150   43.9240 N   0  0  0  0  0  0  0  0  0  0  0  0
   26.6770   31.8160   45.0540 C   0  0  0  0  0  3  0  0  0  0  0  0
   27.3270   30.8130   45.6700 N   0  0  0  0  0  0  0  0  0  0  0  0
  1  6  1  1  0  0  0
  1  2  1  0  0  0  0
  2  7  1  1  0  0  0
  3  2  1  0  0  0  0
  4  8  1  0  0  0  0
  4  3  1  0  0  0  0
  5 10  1  6  0  0  0
  5  4  1  0  0  0  0
  5  1  1  0  0  0  0
  9  4  1  0  0  0  0
 11  1  1  0  0  0  0
 11 12  1  0  0  0  0
 13  2  1  0  0  0  0
 13 18  1  0  0  0  0
 14 15  1  0  0  0  0
 14 20  1  0  0  0  0
 15 21  1  0  0  0  0
 16 22  1  0  0  0  0
 16 15  2  0  0  0  0
 17 16  1  0  0  0  0
 18 17  2  0  0  0  0
 18 19  1  0  0  0  0
 19 14  2  0  0  0  0
 23 26  1  0  0  0  0
 23  5  1  0  0  0  0
 24 25  1  0  0  0  0
 25 30  2  0  0  0  0
 25 26  1  0  0  0  0
 26 27  2  0  0  0  0
 27 28  1  0  0  0  0
 27 31  1  0  0  0  0
 28 32  1  0  0  0  0
 29 33  1  0  0  0  0
 29 28  2  0  0  0  0
 30 29  1  0  0  0  0
 34 40  1  0  0  0  0
 34 30  1  0  0  0  0
 35 34  2  0  0  0  0
 36 38  2  0  0  0  0
 36 35  1  0  0  0  0
 37 36  1  0  0  0  0
 38 39  1  0  0  0  0
 39 40  2  0  0  0  0
M  END
>  <minimizedAffinity>
-5.31795073

>  <minimizedRMSD>
0.294894487

$$$$
