
 OpenBabel03272506473D

 40 43  0  0  1  0  0  0  0  0999 V2000
   31.5440   28.2830   47.4160 C   0  0  2  0  0  0  0  0  0  0  0  0
   32.7710   28.0730   48.2530 C   0  0  1  0  0  0  0  0  0  0  0  0
   33.0310   26.7370   48.2890 O   0  0  0  0  0  0  0  0  0  0  0  0
   32.2560   26.0880   47.3340 C   0  0  0  0  0  0  0  0  0  0  0  0
   31.7600   27.1440   46.3740 C   0  0  1  0  0  0  0  0  0  0  0  0
   30.5960   28.0850   47.9100 H   0  0  0  0  0  0  0  0  0  0  0  0
   32.6400   28.5060   49.2700 H   0  0  0  0  0  0  0  0  0  0  0  0
   31.4970   25.5420   47.8780 H   0  0  0  0  0  0  0  0  0  0  0  0
   32.9190   25.3560   46.7730 H   0  0  0  0  0  0  0  0  0  0  0  0
   32.5410   27.4650   45.6910 H   0  0  0  0  0  0  0  0  0  0  0  0
   31.6010   29.5270   46.7560 O   0  0  0  0  0  0  0  0  0  0  0  0
   32.0640   30.1830   47.3340 H   0  0  0  0  0  0  0  0  0  0  0  0
   34.1740   28.8950   47.3960 S   0  0  0  0  0  0  0  0  0  0  0  0
   36.2420   29.4040   50.7360 C   0  0  0  0  0  0  0  0  0  0  0  0
   36.9470   30.5920   50.5520 C   0  0  0  0  0  0  0  0  0  0  0  0
   36.7750   31.2700   49.3330 C   0  0  0  0  0  0  0  0  0  0  0  0
   35.9350   30.7360   48.4050 N   0  0  0  0  0  0  0  0  0  0  0  0
   35.2730   29.5810   48.6300 C   0  0  0  0  0  0  0  0  0  0  0  0
   35.4170   28.8980   49.7960 N   0  0  0  0  0  0  0  0  0  0  0  0
   36.4140   28.9260   51.6910 H   0  0  0  0  0  0  0  0  0  0  0  0
   37.6040   30.9800   51.3180 H   0  0  0  0  0  0  0  0  0  0  0  0
   37.2980   32.1960   49.1400 H   0  0  0  0  0  0  0  0  0  0  0  0
   30.5690   26.7350   45.8300 O   0  0  0  0  0  0  0  0  0  0  0  0
   29.4260   28.7210   43.9840 Cl  0  0  0  0  0  0  0  0  0  0  0  0
   28.7220   28.0580   45.4420 C   0  0  0  0  0  0  0  0  0  0  0  0
   29.3560   27.1160   46.2200 C   0  0  0  0  0  0  0  0  0  0  0  0
   28.6830   26.6380   47.3460 C   0  0  0  0  0  0  0  0  0  0  0  0
   27.4220   27.1010   47.6610 C   0  0  0  0  0  0  0  0  0  0  0  0
   26.7790   28.0480   46.8820 C   0  0  0  0  0  0  0  0  0  0  0  0
   27.4440   28.5210   45.7680 C   0  0  0  0  0  0  0  0  0  0  0  0
   29.0890   25.9000   48.0140 H   0  0  0  0  0  0  0  0  0  0  0  0
   26.9030   26.7300   48.5310 H   0  0  0  0  0  0  0  0  0  0  0  0
   25.7950   28.3690   47.1790 H   0  0  0  0  0  0  0  0  0  0  0  0
   26.8190   29.5190   44.9090 C   0  0  0  0  0  0  0  0  0  0  0  0
   26.0680   29.2080   43.8050 C   0  0  0  0  0  3  0  0  0  0  0  0
   25.4690   30.1480   42.9810 C   0  0  0  0  0  0  0  0  0  0  0  0
   24.8860   29.8710   42.1220 H   0  0  0  0  0  0  0  0  0  0  0  0
   25.6210   31.4580   43.2680 N   0  0  0  0  0  0  0  0  0  0  0  0
   26.3550   31.7860   44.3480 C   0  0  0  0  0  3  0  0  0  0  0  0
   26.9230   30.8480   45.1270 N   0  0  0  0  0  0  0  0  0  0  0  0
  1  6  1  1  0  0  0
  1  2  1  0  0  0  0
  2  3  1  0  0  0  0
  2  7  1  1  0  0  0
  4  8  1  0  0  0  0
  4  3  1  0  0  0  0
  5 10  1  6  0  0  0
  5  4  1  0  0  0  0
  5  1  1  0  0  0  0
  9  4  1  0  0  0  0
 11 12  1  0  0  0  0
 11  1  1  0  0  0  0
 13  2  1  0  0  0  0
 13 18  1  0  0  0  0
 14 20  1  0  0  0  0
 15 14  1  0  0  0  0
 15 21  1  0  0  0  0
 16 15  2  0  0  0  0
 17 18  2  0  0  0  0
 17 16  1  0  0  0  0
 18 19  1  0  0  0  0
 19 14  2  0  0  0  0
 22 16  1  0  0  0  0
 23 26  1  0  0  0  0
 23  5  1  0  0  0  0
 24 25  1  0  0  0  0
 25 30  2  0  0  0  0
 25 26  1  0  0  0  0
 26 27  2  0  0  0  0
 27 28  1  0  0  0  0
 27 31  1  0  0  0  0
 28 32  1  0  0  0  0
 29 33  1  0  0  0  0
 29 28  2  0  0  0  0
 30 29  1  0  0  0  0
 34 40  1  0  0  0  0
 34 30  1  0  0  0  0
 35 34  2  0  0  0  0
 36 38  2  0  0  0  0
 36 35  1  0  0  0  0
 37 36  1  0  0  0  0
 38 39  1  0  0  0  0
 39 40  2  0  0  0  0
M  END
>  <minimizedAffinity>
-5.33867359

>  <minimizedRMSD>
0.957137048

$$$$
