
 OpenBabel03272501233D

 38 41  0  0  0  0  0  0  0  0999 V2000
   36.4590   28.2570   33.6610 C   0  0  0  0  0  0  0  0  0  0  0  0
   35.8590   29.5010   33.5140 C   0  0  0  0  0  0  0  0  0  0  0  0
   35.9220   30.0310   32.2290 C   0  0  0  0  0  0  0  0  0  0  0  0
   36.5490   29.3360   31.1860 C   0  0  0  0  0  0  0  0  0  0  0  0
   37.1270   28.0950   31.4110 C   0  0  0  0  0  0  0  0  0  0  0  0
   37.0740   27.5550   32.6760 C   0  0  0  0  0  0  0  0  0  0  0  0
   35.4860   30.9960   32.0030 H   0  0  0  0  0  0  0  0  0  0  0  0
   36.5900   29.7610   30.1900 H   0  0  0  0  0  0  0  0  0  0  0  0
   37.6130   27.5460   30.6170 H   0  0  0  0  0  0  0  0  0  0  0  0
   33.8520   30.0900   34.7900 C   0  0  0  0  0  0  0  0  0  0  0  0
   35.2260   30.1990   34.5830 C   0  0  0  0  0  0  0  0  0  0  0  0
   35.9460   31.0190   35.4670 C   0  0  0  0  0  0  0  0  0  0  0  0
   35.2700   31.6550   36.4660 N   0  0  0  0  0  0  0  0  0  0  0  0
   33.9360   31.5120   36.6190 C   0  0  0  0  0  0  0  0  0  0  0  0
   33.2260   30.7320   35.7850 N   0  0  0  0  0  0  0  0  0  0  0  0
   33.2110   29.4840   34.1650 H   0  0  0  0  0  0  0  0  0  0  0  0
   37.0260   31.1290   35.3360 H   0  0  0  0  0  0  0  0  0  0  0  0
   33.4100   32.0260   37.4220 H   0  0  0  0  0  0  0  0  0  0  0  0
   36.4510   27.6380   34.9150 O   0  0  0  0  0  0  0  0  0  0  0  0
   36.7770   28.1440   35.7440 H   0  0  0  0  0  0  0  0  0  0  0  0
   37.6630   26.2990   32.8880 O   0  0  0  0  0  0  0  0  0  0  0  0
   38.0550   23.7140   34.3820 Cl  0  0  0  0  0  0  0  0  0  0  0  0
   39.2570   24.9890   34.2550 C   0  0  0  0  0  0  0  0  0  0  0  0
   38.8720   26.1000   33.5180 C   0  0  0  0  0  0  0  0  0  0  0  0
   39.7960   27.1070   33.4060 C   0  0  0  0  0  0  0  0  0  0  0  0
   41.0410   27.0670   33.9700 C   0  0  0  0  0  0  0  0  0  0  0  0
   41.4050   25.9590   34.6970 C   0  0  0  0  0  0  0  0  0  0  0  0
   40.5170   24.9220   34.8400 C   0  0  0  0  0  0  0  0  0  0  0  0
   39.5790   28.0120   32.8480 H   0  0  0  0  0  0  0  0  0  0  0  0
   41.7480   27.8670   33.8700 H   0  0  0  0  0  0  0  0  0  0  0  0
   42.3820   25.9000   35.1540 H   0  0  0  0  0  0  0  0  0  0  0  0
   40.8050   23.7040   35.5890 C   0  0  0  0  0  0  0  0  0  0  0  0
   41.6780   22.7290   35.1540 C   0  0  0  0  0  3  0  0  0  0  0  0
   41.9680   21.5690   35.8420 C   0  0  0  0  0  0  0  0  0  0  0  0
   42.6640   20.8350   35.4540 H   0  0  0  0  0  0  0  0  0  0  0  0
   41.3670   21.3530   37.0260 N   0  0  0  0  0  0  0  0  0  0  0  0
   40.5110   22.2900   37.4730 C   0  0  0  0  0  3  0  0  0  0  0  0
   40.2430   23.4130   36.7850 N   0  0  0  0  0  0  0  0  0  0  0  0
  1 19  1  0  0  0  0
  2  1  1  0  0  0  0
  2 11  1  0  0  0  0
  3  2  2  0  0  0  0
  4  5  2  0  0  0  0
  4  3  1  0  0  0  0
  5  6  1  0  0  0  0
  6 21  1  0  0  0  0
  6  1  2  0  0  0  0
  7  3  1  0  0  0  0
  8  4  1  0  0  0  0
  9  5  1  0  0  0  0
 10 15  1  0  0  0  0
 11 10  2  0  0  0  0
 11 12  1  0  0  0  0
 12 13  2  0  0  0  0
 13 14  1  0  0  0  0
 14 18  1  0  0  0  0
 15 14  2  0  0  0  0
 16 10  1  0  0  0  0
 17 12  1  0  0  0  0
 19 20  1  0  0  0  0
 21 24  1  0  0  0  0
 23 22  1  0  0  0  0
 23 28  1  0  0  0  0
 24 23  2  0  0  0  0
 25 24  1  0  0  0  0
 25 26  2  0  0  0  0
 26 27  1  0  0  0  0
 27 28  2  0  0  0  0
 27 31  1  0  0  0  0
 28 32  1  0  0  0  0
 29 25  1  0  0  0  0
 30 26  1  0  0  0  0
 32 38  1  0  0  0  0
 33 32  2  0  0  0  0
 33 34  1  0  0  0  0
 34 36  2  0  0  0  0
 35 34  1  0  0  0  0
 36 37  1  0  0  0  0
 38 37  2  0  0  0  0
M  END
>  <minimizedAffinity>
-6.04822683

$$$$

 OpenBabel03272501233D

 38 41  0  0  0  0  0  0  0  0999 V2000
   39.3460   25.0660   34.0310 C   0  0  0  0  0  0  0  0  0  0  0  0
   40.4840   24.8760   34.8040 C   0  0  0  0  0  0  0  0  0  0  0  0
   41.4260   25.8970   34.7150 C   0  0  0  0  0  0  0  0  0  0  0  0
   41.2110   27.0160   33.8980 C   0  0  0  0  0  0  0  0  0  0  0  0
   40.0470   27.1340   33.1540 C   0  0  0  0  0  0  0  0  0  0  0  0
   39.1030   26.1340   33.2300 C   0  0  0  0  0  0  0  0  0  0  0  0
   42.3510   25.8500   35.2760 H   0  0  0  0  0  0  0  0  0  0  0  0
   41.9540   27.8020   33.8400 H   0  0  0  0  0  0  0  0  0  0  0  0
   39.8660   27.9900   32.5210 H   0  0  0  0  0  0  0  0  0  0  0  0
   41.6590   22.7850   35.3030 C   0  0  0  0  0  0  0  0  0  0  0  0
   40.6920   23.7340   35.6290 C   0  0  0  0  0  0  0  0  0  0  0  0
   39.9420   23.5110   36.7960 C   0  0  0  0  0  0  0  0  0  0  0  0
   40.1980   22.3950   37.5350 N   0  0  0  0  0  0  0  0  0  0  0  0
   41.1500   21.5090   37.1700 C   0  0  0  0  0  0  0  0  0  0  0  0
   41.8800   21.7010   36.0570 N   0  0  0  0  0  0  0  0  0  0  0  0
   42.2880   22.8660   34.4270 H   0  0  0  0  0  0  0  0  0  0  0  0
   39.1730   24.2340   37.0840 H   0  0  0  0  0  0  0  0  0  0  0  0
   41.3430   20.6220   37.7710 H   0  0  0  0  0  0  0  0  0  0  0  0
   38.3380   24.0970   34.0490 O   0  0  0  0  0  0  0  0  0  0  0  0
   38.5630   23.1120   33.8800 H   0  0  0  0  0  0  0  0  0  0  0  0
   37.9300   26.2690   32.4710 O   0  0  0  0  0  0  0  0  0  0  0  0
   36.6490   27.4630   34.9200 Cl  0  0  0  0  0  0  0  0  0  0  0  0
   36.5690   28.1580   33.3090 C   0  0  0  0  0  0  0  0  0  0  0  0
   37.2310   27.4460   32.3190 C   0  0  0  0  0  0  0  0  0  0  0  0
   37.1810   27.9720   31.0530 C   0  0  0  0  0  0  0  0  0  0  0  0
   36.5290   29.1310   30.7330 C   0  0  0  0  0  0  0  0  0  0  0  0
   35.8800   29.8230   31.7270 C   0  0  0  0  0  0  0  0  0  0  0  0
   35.8990   29.3390   33.0110 C   0  0  0  0  0  0  0  0  0  0  0  0
   37.6700   27.4810   30.2190 H   0  0  0  0  0  0  0  0  0  0  0  0
   36.5030   29.5240   29.7360 H   0  0  0  0  0  0  0  0  0  0  0  0
   35.3560   30.7410   31.5030 H   0  0  0  0  0  0  0  0  0  0  0  0
   35.2420   29.9970   34.1360 C   0  0  0  0  0  0  0  0  0  0  0  0
   35.8710   30.9040   34.9630 C   0  0  0  0  0  3  0  0  0  0  0  0
   35.2750   31.5400   36.0320 C   0  0  0  0  0  0  0  0  0  0  0  0
   35.8160   32.2460   36.6500 H   0  0  0  0  0  0  0  0  0  0  0  0
   33.9850   31.2710   36.3050 N   0  0  0  0  0  0  0  0  0  0  0  0
   33.3480   30.3890   35.5130 C   0  0  0  0  0  3  0  0  0  0  0  0
   33.9500   29.7810   34.4770 N   0  0  0  0  0  0  0  0  0  0  0  0
  1 19  1  0  0  0  0
  1  2  1  0  0  0  0
  2 11  1  0  0  0  0
  3  2  2  0  0  0  0
  3  7  1  0  0  0  0
  4  3  1  0  0  0  0
  5  6  1  0  0  0  0
  5  4  2  0  0  0  0
  6  1  2  0  0  0  0
  8  4  1  0  0  0  0
  9  5  1  0  0  0  0
 10 11  2  0  0  0  0
 10 15  1  0  0  0  0
 11 12  1  0  0  0  0
 12 17  1  0  0  0  0
 12 13  2  0  0  0  0
 14 13  1  0  0  0  0
 14 18  1  0  0  0  0
 15 14  2  0  0  0  0
 16 10  1  0  0  0  0
 20 19  1  0  0  0  0
 21  6  1  0  0  0  0
 23 22  1  0  0  0  0
 24 21  1  0  0  0  0
 24 23  2  0  0  0  0
 25 24  1  0  0  0  0
 26 25  2  0  0  0  0
 26 27  1  0  0  0  0
 27 28  2  0  0  0  0
 28 23  1  0  0  0  0
 28 32  1  0  0  0  0
 29 25  1  0  0  0  0
 30 26  1  0  0  0  0
 31 27  1  0  0  0  0
 32 38  2  0  0  0  0
 32 33  1  0  0  0  0
 33 34  2  0  0  0  0
 34 36  1  0  0  0  0
 34 35  1  0  0  0  0
 37 36  2  0  0  0  0
 38 37  1  0  0  0  0
M  END
>  <minimizedAffinity>
-5.87087536

$$$$

 OpenBabel03272501233D

 38 41  0  0  0  0  0  0  0  0999 V2000
   35.9120   29.0140   33.6850 C   0  0  0  0  0  0  0  0  0  0  0  0
   34.7790   29.8150   33.6430 C   0  0  0  0  0  0  0  0  0  0  0  0
   34.4250   30.2600   32.3720 C   0  0  0  0  0  0  0  0  0  0  0  0
   35.1790   29.9070   31.2430 C   0  0  0  0  0  0  0  0  0  0  0  0
   36.3010   29.1010   31.3660 C   0  0  0  0  0  0  0  0  0  0  0  0
   36.6650   28.6520   32.6160 C   0  0  0  0  0  0  0  0  0  0  0  0
   33.5580   30.8910   32.2240 H   0  0  0  0  0  0  0  0  0  0  0  0
   34.8910   30.2600   30.2600 H   0  0  0  0  0  0  0  0  0  0  0  0
   36.8910   28.8200   30.5060 H   0  0  0  0  0  0  0  0  0  0  0  0
   32.8910   29.4380   35.1590 C   0  0  0  0  0  0  0  0  0  0  0  0
   34.0220   30.1680   34.7970 C   0  0  0  0  0  0  0  0  0  0  0  0
   34.3750   31.2540   35.6160 C   0  0  0  0  0  0  0  0  0  0  0  0
   33.6020   31.5300   36.7040 N   0  0  0  0  0  0  0  0  0  0  0  0
   32.5160   30.7870   37.0070 C   0  0  0  0  0  0  0  0  0  0  0  0
   32.1590   29.7440   36.2380 N   0  0  0  0  0  0  0  0  0  0  0  0
   32.5380   28.5860   34.5950 H   0  0  0  0  0  0  0  0  0  0  0  0
   35.2570   31.8500   35.3640 H   0  0  0  0  0  0  0  0  0  0  0  0
   31.9080   31.0200   37.8800 H   0  0  0  0  0  0  0  0  0  0  0  0
   36.3520   28.5170   34.9160 O   0  0  0  0  0  0  0  0  0  0  0  0
   36.4930   29.1480   35.7090 H   0  0  0  0  0  0  0  0  0  0  0  0
   37.8030   27.8380   32.7230 O   0  0  0  0  0  0  0  0  0  0  0  0
   39.1370   26.8820   35.2480 Cl  0  0  0  0  0  0  0  0  0  0  0  0
   38.3230   25.8420   34.0900 C   0  0  0  0  0  0  0  0  0  0  0  0
   37.7730   26.4870   32.9910 C   0  0  0  0  0  0  0  0  0  0  0  0
   37.1330   25.6930   32.0750 C   0  0  0  0  0  0  0  0  0  0  0  0
   37.0140   24.3350   32.1920 C   0  0  0  0  0  0  0  0  0  0  0  0
   37.5640   23.7140   33.2870 C   0  0  0  0  0  0  0  0  0  0  0  0
   38.2170   24.4620   34.2340 C   0  0  0  0  0  0  0  0  0  0  0  0
   36.6750   26.1140   31.1870 H   0  0  0  0  0  0  0  0  0  0  0  0
   36.5080   23.7340   31.4630 H   0  0  0  0  0  0  0  0  0  0  0  0
   37.4860   22.6420   33.4050 H   0  0  0  0  0  0  0  0  0  0  0  0
   38.8340   23.9000   35.4300 C   0  0  0  0  0  0  0  0  0  0  0  0
   38.1980   23.8200   36.6520 C   0  0  0  0  0  3  0  0  0  0  0  0
   38.7570   23.2930   37.7970 C   0  0  0  0  0  0  0  0  0  0  0  0
   38.2120   23.2540   38.7320 H   0  0  0  0  0  0  0  0  0  0  0  0
   40.0140   22.8170   37.7410 N   0  0  0  0  0  0  0  0  0  0  0  0
   40.6570   22.8830   36.5610 C   0  0  0  0  0  3  0  0  0  0  0  0
   40.0920   23.4010   35.4580 N   0  0  0  0  0  0  0  0  0  0  0  0
  1 19  1  0  0  0  0
  2  1  1  0  0  0  0
  2 11  1  0  0  0  0
  3  2  2  0  0  0  0
  4  5  2  0  0  0  0
  4  3  1  0  0  0  0
  5  6  1  0  0  0  0
  6 21  1  0  0  0  0
  6  1  2  0  0  0  0
  7  3  1  0  0  0  0
  8  4  1  0  0  0  0
  9  5  1  0  0  0  0
 10 15  1  0  0  0  0
 11 10  2  0  0  0  0
 11 12  1  0  0  0  0
 12 13  2  0  0  0  0
 13 14  1  0  0  0  0
 14 18  1  0  0  0  0
 15 14  2  0  0  0  0
 16 10  1  0  0  0  0
 17 12  1  0  0  0  0
 19 20  1  0  0  0  0
 21 24  1  0  0  0  0
 23 28  1  0  0  0  0
 23 22  1  0  0  0  0
 24 23  2  0  0  0  0
 25 26  2  0  0  0  0
 25 24  1  0  0  0  0
 26 27  1  0  0  0  0
 27 31  1  0  0  0  0
 27 28  2  0  0  0  0
 28 32  1  0  0  0  0
 29 25  1  0  0  0  0
 30 26  1  0  0  0  0
 32 38  2  0  0  0  0
 32 33  1  0  0  0  0
 33 34  2  0  0  0  0
 34 35  1  0  0  0  0
 36 34  1  0  0  0  0
 37 36  2  0  0  0  0
 38 37  1  0  0  0  0
M  END
>  <minimizedAffinity>
-5.82349443

$$$$

 OpenBabel03272501233D

 38 41  0  0  0  0  0  0  0  0999 V2000
   38.8730   25.0450   33.8910 C   0  0  0  0  0  0  0  0  0  0  0  0
   38.6940   23.7400   34.3310 C   0  0  0  0  0  0  0  0  0  0  0  0
   37.7750   22.9970   33.5970 C   0  0  0  0  0  0  0  0  0  0  0  0
   37.0990   23.5540   32.5020 C   0  0  0  0  0  0  0  0  0  0  0  0
   37.3320   24.8680   32.1220 C   0  0  0  0  0  0  0  0  0  0  0  0
   38.2380   25.6170   32.8370 C   0  0  0  0  0  0  0  0  0  0  0  0
   37.5590   21.9680   33.8540 H   0  0  0  0  0  0  0  0  0  0  0  0
   36.3870   22.9630   31.9390 H   0  0  0  0  0  0  0  0  0  0  0  0
   36.8200   25.3110   31.2800 H   0  0  0  0  0  0  0  0  0  0  0  0
   40.5550   22.4470   35.2660 C   0  0  0  0  0  0  0  0  0  0  0  0
   39.3860   23.1860   35.4470 C   0  0  0  0  0  0  0  0  0  0  0  0
   38.9310   23.3540   36.7650 C   0  0  0  0  0  0  0  0  0  0  0  0
   39.6470   22.7940   37.7800 N   0  0  0  0  0  0  0  0  0  0  0  0
   40.7740   22.0880   37.5450 C   0  0  0  0  0  0  0  0  0  0  0  0
   41.2290   21.9140   36.2920 N   0  0  0  0  0  0  0  0  0  0  0  0
   40.9860   22.2630   34.2920 H   0  0  0  0  0  0  0  0  0  0  0  0
   38.0170   23.9280   36.9460 H   0  0  0  0  0  0  0  0  0  0  0  0
   41.3350   21.6460   38.3670 H   0  0  0  0  0  0  0  0  0  0  0  0
   39.7760   25.8760   34.5620 O   0  0  0  0  0  0  0  0  0  0  0  0
   39.7190   25.9880   35.5790 H   0  0  0  0  0  0  0  0  0  0  0  0
   38.4620   26.9450   32.4400 O   0  0  0  0  0  0  0  0  0  0  0  0
   36.9060   27.8750   34.8440 Cl  0  0  0  0  0  0  0  0  0  0  0  0
   36.6390   28.4350   33.2000 C   0  0  0  0  0  0  0  0  0  0  0  0
   37.4680   27.8770   32.2380 C   0  0  0  0  0  0  0  0  0  0  0  0
   37.2760   28.3000   30.9480 C   0  0  0  0  0  0  0  0  0  0  0  0
   36.3320   29.2190   30.5780 C   0  0  0  0  0  0  0  0  0  0  0  0
   35.5200   29.7610   31.5450 C   0  0  0  0  0  0  0  0  0  0  0  0
   35.6710   29.3710   32.8520 C   0  0  0  0  0  0  0  0  0  0  0  0
   37.8790   27.9170   30.1320 H   0  0  0  0  0  0  0  0  0  0  0  0
   36.2000   29.5360   29.5620 H   0  0  0  0  0  0  0  0  0  0  0  0
   34.7660   30.4890   31.2830 H   0  0  0  0  0  0  0  0  0  0  0  0
   34.8610   29.8860   33.9510 C   0  0  0  0  0  0  0  0  0  0  0  0
   35.2500   30.9320   34.7620 C   0  0  0  0  0  3  0  0  0  0  0  0
   34.5050   31.4360   35.8070 C   0  0  0  0  0  0  0  0  0  0  0  0
   34.8580   32.2620   36.4120 H   0  0  0  0  0  0  0  0  0  0  0  0
   33.3070   30.8840   36.0720 N   0  0  0  0  0  0  0  0  0  0  0  0
   32.9040   29.8620   35.2950 C   0  0  0  0  0  3  0  0  0  0  0  0
   33.6480   29.3860   34.2820 N   0  0  0  0  0  0  0  0  0  0  0  0
  1  2  1  0  0  0  0
  1 19  1  0  0  0  0
  2 11  1  0  0  0  0
  3  7  1  0  0  0  0
  3  2  2  0  0  0  0
  4  3  1  0  0  0  0
  5  4  2  0  0  0  0
  5  6  1  0  0  0  0
  6  1  2  0  0  0  0
  8  4  1  0  0  0  0
  9  5  1  0  0  0  0
 10 11  2  0  0  0  0
 10 15  1  0  0  0  0
 11 12  1  0  0  0  0
 12 17  1  0  0  0  0
 12 13  2  0  0  0  0
 14 13  1  0  0  0  0
 14 18  1  0  0  0  0
 15 14  2  0  0  0  0
 16 10  1  0  0  0  0
 19 20  1  0  0  0  0
 21  6  1  0  0  0  0
 23 22  1  0  0  0  0
 24 21  1  0  0  0  0
 24 23  2  0  0  0  0
 25 24  1  0  0  0  0
 26 25  2  0  0  0  0
 26 27  1  0  0  0  0
 27 28  2  0  0  0  0
 28 23  1  0  0  0  0
 28 32  1  0  0  0  0
 29 25  1  0  0  0  0
 30 26  1  0  0  0  0
 31 27  1  0  0  0  0
 32 38  2  0  0  0  0
 32 33  1  0  0  0  0
 33 34  2  0  0  0  0
 34 36  1  0  0  0  0
 34 35  1  0  0  0  0
 37 36  2  0  0  0  0
 38 37  1  0  0  0  0
M  END
>  <minimizedAffinity>
-5.76331425

$$$$

 OpenBabel03272501233D

 38 41  0  0  0  0  0  0  0  0999 V2000
   37.3930   25.3210   31.6970 C   0  0  0  0  0  0  0  0  0  0  0  0
   36.8580   24.0540   31.5050 C   0  0  0  0  0  0  0  0  0  0  0  0
   35.5330   24.0390   31.0790 C   0  0  0  0  0  0  0  0  0  0  0  0
   34.8220   25.2300   30.8700 C   0  0  0  0  0  0  0  0  0  0  0  0
   35.4270   26.4600   31.0840 C   0  0  0  0  0  0  0  0  0  0  0  0
   36.7370   26.4940   31.5040 C   0  0  0  0  0  0  0  0  0  0  0  0
   35.0170   23.1040   30.8990 H   0  0  0  0  0  0  0  0  0  0  0  0
   33.7920   25.2020   30.5380 H   0  0  0  0  0  0  0  0  0  0  0  0
   34.8930   27.3860   30.9270 H   0  0  0  0  0  0  0  0  0  0  0  0
   37.6710   22.2860   32.9930 C   0  0  0  0  0  0  0  0  0  0  0  0
   37.5890   22.8510   31.7220 C   0  0  0  0  0  0  0  0  0  0  0  0
   38.2540   22.1850   30.6790 C   0  0  0  0  0  0  0  0  0  0  0  0
   38.9330   21.0390   30.9640 N   0  0  0  0  0  0  0  0  0  0  0  0
   38.9780   20.5360   32.2160 C   0  0  0  0  0  0  0  0  0  0  0  0
   38.3490   21.1560   33.2300 N   0  0  0  0  0  0  0  0  0  0  0  0
   37.1930   22.7210   33.8600 H   0  0  0  0  0  0  0  0  0  0  0  0
   38.2130   22.5990   29.6670 H   0  0  0  0  0  0  0  0  0  0  0  0
   39.5250   19.6190   32.4290 H   0  0  0  0  0  0  0  0  0  0  0  0
   38.7180   25.4460   32.1250 O   0  0  0  0  0  0  0  0  0  0  0  0
   39.0460   24.9360   32.9510 H   0  0  0  0  0  0  0  0  0  0  0  0
   37.3350   27.7460   31.7160 O   0  0  0  0  0  0  0  0  0  0  0  0
   36.3180   28.2960   34.4970 Cl  0  0  0  0  0  0  0  0  0  0  0  0
   36.0880   29.3600   33.1180 C   0  0  0  0  0  0  0  0  0  0  0  0
   36.6390   28.9170   31.9240 C   0  0  0  0  0  0  0  0  0  0  0  0
   36.4710   29.7330   30.8350 C   0  0  0  0  0  0  0  0  0  0  0  0
   35.8060   30.9280   30.8720 C   0  0  0  0  0  0  0  0  0  0  0  0
   35.2680   31.3510   32.0630 C   0  0  0  0  0  0  0  0  0  0  0  0
   35.4070   30.5710   33.1840 C   0  0  0  0  0  0  0  0  0  0  0  0
   36.8680   29.4650   29.8620 H   0  0  0  0  0  0  0  0  0  0  0  0
   35.6870   31.5500   30.0070 H   0  0  0  0  0  0  0  0  0  0  0  0
   34.7370   32.2900   32.1220 H   0  0  0  0  0  0  0  0  0  0  0  0
   34.8740   30.9290   34.4940 C   0  0  0  0  0  0  0  0  0  0  0  0
   35.5750   31.6620   35.4290 C   0  0  0  0  0  3  0  0  0  0  0  0
   35.0950   32.0140   36.6730 C   0  0  0  0  0  0  0  0  0  0  0  0
   35.6890   32.5920   37.3700 H   0  0  0  0  0  0  0  0  0  0  0  0
   33.8550   31.6250   37.0200 N   0  0  0  0  0  0  0  0  0  0  0  0
   33.1500   30.9090   36.1260 C   0  0  0  0  0  3  0  0  0  0  0  0
   33.6380   30.5770   34.9190 N   0  0  0  0  0  0  0  0  0  0  0  0
  1 19  1  0  0  0  0
  2  1  1  0  0  0  0
  2 11  1  0  0  0  0
  3  2  2  0  0  0  0
  4  3  1  0  0  0  0
  4  5  2  0  0  0  0
  5  6  1  0  0  0  0
  6  1  2  0  0  0  0
  6 21  1  0  0  0  0
  7  3  1  0  0  0  0
  8  4  1  0  0  0  0
  9  5  1  0  0  0  0
 10 15  1  0  0  0  0
 10 16  1  0  0  0  0
 11 10  2  0  0  0  0
 12 13  2  0  0  0  0
 12 11  1  0  0  0  0
 13 14  1  0  0  0  0
 14 18  1  0  0  0  0
 14 15  2  0  0  0  0
 17 12  1  0  0  0  0
 19 20  1  0  0  0  0
 21 24  1  0  0  0  0
 23 28  1  0  0  0  0
 23 22  1  0  0  0  0
 24 23  2  0  0  0  0
 25 26  2  0  0  0  0
 25 24  1  0  0  0  0
 26 27  1  0  0  0  0
 27 31  1  0  0  0  0
 27 28  2  0  0  0  0
 28 32  1  0  0  0  0
 29 25  1  0  0  0  0
 30 26  1  0  0  0  0
 32 38  2  0  0  0  0
 32 33  1  0  0  0  0
 33 34  2  0  0  0  0
 34 36  1  0  0  0  0
 34 35  1  0  0  0  0
 37 36  2  0  0  0  0
 38 37  1  0  0  0  0
M  END
>  <minimizedAffinity>
-5.7112112

$$$$

 OpenBabel03272501233D

 38 41  0  0  0  0  0  0  0  0999 V2000
   36.6720   28.4870   34.4500 C   0  0  0  0  0  0  0  0  0  0  0  0
   35.6000   29.3160   34.1490 C   0  0  0  0  0  0  0  0  0  0  0  0
   35.0560   29.1290   32.8810 C   0  0  0  0  0  0  0  0  0  0  0  0
   35.5760   28.1700   32.0010 C   0  0  0  0  0  0  0  0  0  0  0  0
   36.6520   27.3780   32.3750 C   0  0  0  0  0  0  0  0  0  0  0  0
   37.2020   27.5480   33.6260 C   0  0  0  0  0  0  0  0  0  0  0  0
   34.2160   29.7230   32.5430 H   0  0  0  0  0  0  0  0  0  0  0  0
   35.1420   28.0360   31.0180 H   0  0  0  0  0  0  0  0  0  0  0  0
   37.0640   26.6340   31.7090 H   0  0  0  0  0  0  0  0  0  0  0  0
   35.9120   31.2570   35.6110 C   0  0  0  0  0  0  0  0  0  0  0  0
   35.0810   30.2880   35.0510 C   0  0  0  0  0  0  0  0  0  0  0  0
   33.7240   30.3180   35.4150 C   0  0  0  0  0  0  0  0  0  0  0  0
   33.3020   31.2790   36.2840 N   0  0  0  0  0  0  0  0  0  0  0  0
   34.1530   32.1940   36.7950 C   0  0  0  0  0  0  0  0  0  0  0  0
   35.4560   32.1850   36.4610 N   0  0  0  0  0  0  0  0  0  0  0  0
   36.9690   31.3190   35.3930 H   0  0  0  0  0  0  0  0  0  0  0  0
   33.0410   29.5730   34.9960 H   0  0  0  0  0  0  0  0  0  0  0  0
   33.8010   32.9560   37.4890 H   0  0  0  0  0  0  0  0  0  0  0  0
   37.2900   28.5950   35.7000 O   0  0  0  0  0  0  0  0  0  0  0  0
   37.6070   29.5070   36.0440 H   0  0  0  0  0  0  0  0  0  0  0  0
   38.2900   26.7390   33.9890 O   0  0  0  0  0  0  0  0  0  0  0  0
   38.3590   24.4730   32.0070 Cl  0  0  0  0  0  0  0  0  0  0  0  0
   38.1870   24.2790   33.7440 C   0  0  0  0  0  0  0  0  0  0  0  0
   38.1780   25.4560   34.4780 C   0  0  0  0  0  0  0  0  0  0  0  0
   38.0450   25.3260   35.8370 C   0  0  0  0  0  0  0  0  0  0  0  0
   37.9230   24.1260   36.4810 C   0  0  0  0  0  0  0  0  0  0  0  0
   37.9340   22.9710   35.7380 C   0  0  0  0  0  0  0  0  0  0  0  0
   38.0650   23.0440   34.3740 C   0  0  0  0  0  0  0  0  0  0  0  0
   38.0280   26.1940   36.4870 H   0  0  0  0  0  0  0  0  0  0  0  0
   37.8200   24.0490   37.5460 H   0  0  0  0  0  0  0  0  0  0  0  0
   37.8390   22.0080   36.2200 H   0  0  0  0  0  0  0  0  0  0  0  0
   38.0880   21.8790   33.4960 C   0  0  0  0  0  0  0  0  0  0  0  0
   36.9510   21.2430   33.0430 C   0  0  0  0  0  3  0  0  0  0  0  0
   36.9440   20.1410   32.2140 C   0  0  0  0  0  0  0  0  0  0  0  0
   36.0200   19.6810   31.8850 H   0  0  0  0  0  0  0  0  0  0  0  0
   38.1200   19.6330   31.8050 N   0  0  0  0  0  0  0  0  0  0  0  0
   39.2440   20.2350   32.2340 C   0  0  0  0  0  3  0  0  0  0  0  0
   39.2270   21.3080   33.0420 N   0  0  0  0  0  0  0  0  0  0  0  0
  1 19  1  0  0  0  0
  2  1  1  0  0  0  0
  2 11  1  0  0  0  0
  3  2  2  0  0  0  0
  4  5  2  0  0  0  0
  4  3  1  0  0  0  0
  5  6  1  0  0  0  0
  6 21  1  0  0  0  0
  6  1  2  0  0  0  0
  7  3  1  0  0  0  0
  8  4  1  0  0  0  0
  9  5  1  0  0  0  0
 10 15  1  0  0  0  0
 11 12  1  0  0  0  0
 11 10  2  0  0  0  0
 12 13  2  0  0  0  0
 13 14  1  0  0  0  0
 14 18  1  0  0  0  0
 15 14  2  0  0  0  0
 16 10  1  0  0  0  0
 17 12  1  0  0  0  0
 19 20  1  0  0  0  0
 21 24  1  0  0  0  0
 22 23  1  0  0  0  0
 23 28  2  0  0  0  0
 23 24  1  0  0  0  0
 24 25  2  0  0  0  0
 25 26  1  0  0  0  0
 25 29  1  0  0  0  0
 26 30  1  0  0  0  0
 27 31  1  0  0  0  0
 27 26  2  0  0  0  0
 28 27  1  0  0  0  0
 32 28  1  0  0  0  0
 33 32  1  0  0  0  0
 34 33  2  0  0  0  0
 35 34  1  0  0  0  0
 36 34  1  0  0  0  0
 36 37  2  0  0  0  0
 37 38  1  0  0  0  0
 38 32  2  0  0  0  0
M  END
>  <minimizedAffinity>
-5.66871214

$$$$

 OpenBabel03272501233D

 38 41  0  0  0  0  0  0  0  0999 V2000
   37.9020   23.7530   33.3910 C   0  0  0  0  0  0  0  0  0  0  0  0
   37.6850   22.5240   33.9990 C   0  0  0  0  0  0  0  0  0  0  0  0
   37.8740   22.5140   35.3780 C   0  0  0  0  0  0  0  0  0  0  0  0
   38.2550   23.6740   36.0680 C   0  0  0  0  0  0  0  0  0  0  0  0
   38.4540   24.8670   35.3890 C   0  0  0  0  0  0  0  0  0  0  0  0
   38.2700   24.8950   34.0240 C   0  0  0  0  0  0  0  0  0  0  0  0
   37.7320   21.6070   35.9520 H   0  0  0  0  0  0  0  0  0  0  0  0
   38.3980   23.6510   37.1410 H   0  0  0  0  0  0  0  0  0  0  0  0
   38.7460   25.7690   35.9060 H   0  0  0  0  0  0  0  0  0  0  0  0
   38.2230   20.6540   32.5100 C   0  0  0  0  0  0  0  0  0  0  0  0
   37.3000   21.3520   33.2870 C   0  0  0  0  0  0  0  0  0  0  0  0
   35.9890   20.8490   33.3330 C   0  0  0  0  0  0  0  0  0  0  0  0
   35.6960   19.7220   32.6250 N   0  0  0  0  0  0  0  0  0  0  0  0
   36.6320   19.0860   31.8890 C   0  0  0  0  0  0  0  0  0  0  0  0
   37.8930   19.5490   31.8290 N   0  0  0  0  0  0  0  0  0  0  0  0
   39.2550   20.9590   32.4100 H   0  0  0  0  0  0  0  0  0  0  0  0
   35.2370   21.3700   33.9330 H   0  0  0  0  0  0  0  0  0  0  0  0
   36.3820   18.1870   31.3280 H   0  0  0  0  0  0  0  0  0  0  0  0
   37.7390   23.8690   32.0070 O   0  0  0  0  0  0  0  0  0  0  0  0
   38.2120   23.2180   31.3730 H   0  0  0  0  0  0  0  0  0  0  0  0
   38.4750   26.1100   33.3520 O   0  0  0  0  0  0  0  0  0  0  0  0
   37.4920   27.9450   35.5270 Cl  0  0  0  0  0  0  0  0  0  0  0  0
   36.8840   27.9300   33.8790 C   0  0  0  0  0  0  0  0  0  0  0  0
   37.4760   27.0030   33.0330 C   0  0  0  0  0  0  0  0  0  0  0  0
   37.0150   26.9750   31.7420 C   0  0  0  0  0  0  0  0  0  0  0  0
   36.0300   27.7940   31.2650 C   0  0  0  0  0  0  0  0  0  0  0  0
   35.4550   28.7060   32.1170 C   0  0  0  0  0  0  0  0  0  0  0  0
   35.8790   28.7750   33.4200 C   0  0  0  0  0  0  0  0  0  0  0  0
   37.4220   26.2820   31.0130 H   0  0  0  0  0  0  0  0  0  0  0  0
   35.6850   27.7540   30.2500 H   0  0  0  0  0  0  0  0  0  0  0  0
   34.6730   29.3660   31.7680 H   0  0  0  0  0  0  0  0  0  0  0  0
   35.3350   29.7060   34.4030 C   0  0  0  0  0  0  0  0  0  0  0  0
   34.0000   29.7590   34.7460 C   0  0  0  0  0  3  0  0  0  0  0  0
   33.4600   30.6280   35.6710 C   0  0  0  0  0  0  0  0  0  0  0  0
   32.4020   30.6270   35.9040 H   0  0  0  0  0  0  0  0  0  0  0  0
   34.2760   31.4960   36.2950 N   0  0  0  0  0  0  0  0  0  0  0  0
   35.5830   31.4650   35.9780 C   0  0  0  0  0  3  0  0  0  0  0  0
   36.0870   30.6090   35.0730 N   0  0  0  0  0  0  0  0  0  0  0  0
  1  2  2  0  0  0  0
  1  6  1  0  0  0  0
  2  3  1  0  0  0  0
  3  7  1  0  0  0  0
  3  4  2  0  0  0  0
  4  8  1  0  0  0  0
  5  9  1  0  0  0  0
  5  4  1  0  0  0  0
  6  5  2  0  0  0  0
 10 11  1  0  0  0  0
 11 12  2  0  0  0  0
 11  2  1  0  0  0  0
 12 17  1  0  0  0  0
 13 12  1  0  0  0  0
 14 13  2  0  0  0  0
 15 14  1  0  0  0  0
 15 10  2  0  0  0  0
 16 10  1  0  0  0  0
 18 14  1  0  0  0  0
 19  1  1  0  0  0  0
 20 19  1  0  0  0  0
 21  6  1  0  0  0  0
 23 22  1  0  0  0  0
 24 21  1  0  0  0  0
 24 23  2  0  0  0  0
 25 24  1  0  0  0  0
 26 25  2  0  0  0  0
 26 27  1  0  0  0  0
 27 28  2  0  0  0  0
 28 23  1  0  0  0  0
 28 32  1  0  0  0  0
 29 25  1  0  0  0  0
 30 26  1  0  0  0  0
 31 27  1  0  0  0  0
 32 33  2  0  0  0  0
 32 38  1  0  0  0  0
 33 34  1  0  0  0  0
 34 35  1  0  0  0  0
 34 36  2  0  0  0  0
 37 36  1  0  0  0  0
 38 37  2  0  0  0  0
M  END
>  <minimizedAffinity>
-5.64984703

$$$$

 OpenBabel03272501233D

 38 41  0  0  0  0  0  0  0  0999 V2000
   37.2190   26.1430   31.3210 C   0  0  0  0  0  0  0  0  0  0  0  0
   37.4700   27.5080   31.3610 C   0  0  0  0  0  0  0  0  0  0  0  0
   38.7180   27.8860   30.8740 C   0  0  0  0  0  0  0  0  0  0  0  0
   39.6280   26.9350   30.3890 C   0  0  0  0  0  0  0  0  0  0  0  0
   39.3030   25.5860   30.3820 C   0  0  0  0  0  0  0  0  0  0  0  0
   38.0730   25.1950   30.8590 C   0  0  0  0  0  0  0  0  0  0  0  0
   39.0180   28.9260   30.8590 H   0  0  0  0  0  0  0  0  0  0  0  0
   40.5950   27.2450   30.0130 H   0  0  0  0  0  0  0  0  0  0  0  0
   39.9930   24.8420   30.0110 H   0  0  0  0  0  0  0  0  0  0  0  0
   35.8920   29.3470   30.9930 C   0  0  0  0  0  0  0  0  0  0  0  0
   36.5380   28.4650   31.8570 C   0  0  0  0  0  0  0  0  0  0  0  0
   36.2300   28.5640   33.2240 C   0  0  0  0  0  0  0  0  0  0  0  0
   35.3280   29.5040   33.6240 N   0  0  0  0  0  0  0  0  0  0  0  0
   34.7310   30.3320   32.7400 C   0  0  0  0  0  0  0  0  0  0  0  0
   35.0110   30.2570   31.4270 N   0  0  0  0  0  0  0  0  0  0  0  0
   36.0610   29.3500   29.9240 H   0  0  0  0  0  0  0  0  0  0  0  0
   36.7170   27.8880   33.9330 H   0  0  0  0  0  0  0  0  0  0  0  0
   34.0130   31.0790   33.0750 H   0  0  0  0  0  0  0  0  0  0  0  0
   35.9920   25.6600   31.7880 O   0  0  0  0  0  0  0  0  0  0  0  0
   35.6510   25.9240   32.7170 H   0  0  0  0  0  0  0  0  0  0  0  0
   37.7600   23.8270   30.8450 O   0  0  0  0  0  0  0  0  0  0  0  0
   39.4680   24.2800   33.2830 Cl  0  0  0  0  0  0  0  0  0  0  0  0
   38.1440   23.1290   33.1880 C   0  0  0  0  0  0  0  0  0  0  0  0
   37.4850   23.0780   31.9680 C   0  0  0  0  0  0  0  0  0  0  0  0
   36.4480   22.1850   31.8730 C   0  0  0  0  0  0  0  0  0  0  0  0
   36.0470   21.3690   32.8950 C   0  0  0  0  0  0  0  0  0  0  0  0
   36.7120   21.4340   34.0950 C   0  0  0  0  0  0  0  0  0  0  0  0
   37.7570   22.3100   34.2440 C   0  0  0  0  0  0  0  0  0  0  0  0
   35.8780   22.0790   30.9570 H   0  0  0  0  0  0  0  0  0  0  0  0
   35.2330   20.6780   32.7970 H   0  0  0  0  0  0  0  0  0  0  0  0
   36.4170   20.8010   34.9200 H   0  0  0  0  0  0  0  0  0  0  0  0
   38.5260   22.4560   35.4750 C   0  0  0  0  0  0  0  0  0  0  0  0
   38.0790   23.1550   36.5760 C   0  0  0  0  0  3  0  0  0  0  0  0
   38.7850   23.3080   37.7510 C   0  0  0  0  0  0  0  0  0  0  0  0
   38.3850   23.8680   38.5880 H   0  0  0  0  0  0  0  0  0  0  0  0
   40.0000   22.7410   37.8520 N   0  0  0  0  0  0  0  0  0  0  0  0
   40.4600   22.0530   36.7920 C   0  0  0  0  0  3  0  0  0  0  0  0
   39.7550   21.9180   35.6560 N   0  0  0  0  0  0  0  0  0  0  0  0
  1  2  1  0  0  0  0
  1 19  1  0  0  0  0
  2 11  1  0  0  0  0
  3  2  2  0  0  0  0
  4  3  1  0  0  0  0
  5  4  2  0  0  0  0
  5  6  1  0  0  0  0
  6  1  2  0  0  0  0
  7  3  1  0  0  0  0
  8  4  1  0  0  0  0
  9  5  1  0  0  0  0
 10 15  2  0  0  0  0
 10 11  1  0  0  0  0
 11 12  2  0  0  0  0
 12 13  1  0  0  0  0
 12 17  1  0  0  0  0
 14 18  1  0  0  0  0
 14 13  2  0  0  0  0
 15 14  1  0  0  0  0
 16 10  1  0  0  0  0
 19 20  1  0  0  0  0
 21  6  1  0  0  0  0
 21 24  1  0  0  0  0
 23 22  1  0  0  0  0
 23 28  1  0  0  0  0
 24 23  2  0  0  0  0
 25 24  1  0  0  0  0
 25 26  2  0  0  0  0
 26 27  1  0  0  0  0
 27 28  2  0  0  0  0
 27 31  1  0  0  0  0
 28 32  1  0  0  0  0
 29 25  1  0  0  0  0
 30 26  1  0  0  0  0
 32 38  2  0  0  0  0
 32 33  1  0  0  0  0
 33 34  2  0  0  0  0
 34 36  1  0  0  0  0
 34 35  1  0  0  0  0
 37 36  2  0  0  0  0
 38 37  1  0  0  0  0
M  END
>  <minimizedAffinity>
-5.61990309

$$$$

 OpenBabel03272501233D

 38 41  0  0  0  0  0  0  0  0999 V2000
   38.7280   25.7820   33.6810 C   0  0  0  0  0  0  0  0  0  0  0  0
   39.5280   25.6390   34.8080 C   0  0  0  0  0  0  0  0  0  0  0  0
   40.7140   26.3680   34.7770 C   0  0  0  0  0  0  0  0  0  0  0  0
   41.0440   27.1740   33.6780 C   0  0  0  0  0  0  0  0  0  0  0  0
   40.1910   27.2650   32.5880 C   0  0  0  0  0  0  0  0  0  0  0  0
   39.0140   26.5520   32.6010 C   0  0  0  0  0  0  0  0  0  0  0  0
   41.4120   26.3290   35.6040 H   0  0  0  0  0  0  0  0  0  0  0  0
   41.9700   27.7350   33.6690 H   0  0  0  0  0  0  0  0  0  0  0  0
   40.4310   27.8820   31.7340 H   0  0  0  0  0  0  0  0  0  0  0  0
   38.1930   25.2090   36.8170 C   0  0  0  0  0  0  0  0  0  0  0  0
   39.1830   24.8160   35.9180 C   0  0  0  0  0  0  0  0  0  0  0  0
   39.8140   23.5840   36.1570 C   0  0  0  0  0  0  0  0  0  0  0  0
   39.4290   22.8520   37.2390 N   0  0  0  0  0  0  0  0  0  0  0  0
   38.4620   23.2830   38.0770 C   0  0  0  0  0  0  0  0  0  0  0  0
   37.8440   24.4590   37.8690 N   0  0  0  0  0  0  0  0  0  0  0  0
   37.6480   26.1380   36.7200 H   0  0  0  0  0  0  0  0  0  0  0  0
   40.5960   23.2420   35.4720 H   0  0  0  0  0  0  0  0  0  0  0  0
   38.1660   22.6860   38.9390 H   0  0  0  0  0  0  0  0  0  0  0  0
   37.5150   25.0910   33.6130 O   0  0  0  0  0  0  0  0  0  0  0  0
   37.4830   24.0810   33.7840 H   0  0  0  0  0  0  0  0  0  0  0  0
   38.1620   26.6550   31.4900 O   0  0  0  0  0  0  0  0  0  0  0  0
   36.2850   28.4330   33.0340 Cl  0  0  0  0  0  0  0  0  0  0  0  0
   36.9310   28.8010   31.4430 C   0  0  0  0  0  0  0  0  0  0  0  0
   37.7810   27.8440   30.9080 C   0  0  0  0  0  0  0  0  0  0  0  0
   38.2960   28.1120   29.6650 C   0  0  0  0  0  0  0  0  0  0  0  0
   38.0180   29.2450   28.9520 C   0  0  0  0  0  0  0  0  0  0  0  0
   37.1740   30.1820   29.4980 C   0  0  0  0  0  0  0  0  0  0  0  0
   36.6310   29.9630   30.7390 C   0  0  0  0  0  0  0  0  0  0  0  0
   38.9690   27.4190   29.1720 H   0  0  0  0  0  0  0  0  0  0  0  0
   38.4330   29.4340   27.9810 H   0  0  0  0  0  0  0  0  0  0  0  0
   36.9370   31.0870   28.9570 H   0  0  0  0  0  0  0  0  0  0  0  0
   35.7260   30.8930   31.4050 C   0  0  0  0  0  0  0  0  0  0  0  0
   36.1540   31.9580   32.1700 C   0  0  0  0  0  3  0  0  0  0  0  0
   35.3200   32.8510   32.8100 C   0  0  0  0  0  0  0  0  0  0  0  0
   35.7100   33.6730   33.3990 H   0  0  0  0  0  0  0  0  0  0  0  0
   33.9900   32.6910   32.6920 N   0  0  0  0  0  0  0  0  0  0  0  0
   33.5470   31.6600   31.9510 C   0  0  0  0  0  3  0  0  0  0  0  0
   34.3780   30.8010   31.3370 N   0  0  0  0  0  0  0  0  0  0  0  0
  1  2  1  0  0  0  0
  2 11  1  0  0  0  0
  3  2  2  0  0  0  0
  3  7  1  0  0  0  0
  4  3  1  0  0  0  0
  5  6  1  0  0  0  0
  5  4  2  0  0  0  0
  6  1  2  0  0  0  0
  8  4  1  0  0  0  0
  9  5  1  0  0  0  0
 10 15  1  0  0  0  0
 11 12  1  0  0  0  0
 11 10  2  0  0  0  0
 12 13  2  0  0  0  0
 13 14  1  0  0  0  0
 14 18  1  0  0  0  0
 15 14  2  0  0  0  0
 16 10  1  0  0  0  0
 17 12  1  0  0  0  0
 19  1  1  0  0  0  0
 19 20  1  0  0  0  0
 21  6  1  0  0  0  0
 23 22  1  0  0  0  0
 24 23  1  0  0  0  0
 24 21  1  0  0  0  0
 25 24  2  0  0  0  0
 26 27  2  0  0  0  0
 26 25  1  0  0  0  0
 27 28  1  0  0  0  0
 28 32  1  0  0  0  0
 28 23  2  0  0  0  0
 29 25  1  0  0  0  0
 30 26  1  0  0  0  0
 31 27  1  0  0  0  0
 32 33  1  0  0  0  0
 33 34  2  0  0  0  0
 34 35  1  0  0  0  0
 36 34  1  0  0  0  0
 37 36  2  0  0  0  0
 38 32  2  0  0  0  0
 38 37  1  0  0  0  0
M  END
>  <minimizedAffinity>
-5.61766052

$$$$
