
 OpenBabel03272509293D

 32 34  0  0  1  0  0  0  0  0999 V2000
   37.0080   30.9780   45.7280 C   0  0  2  0  0  0  0  0  0  0  0  0
   37.0540   30.7740   44.2310 C   0  0  0  0  0  0  0  0  0  0  0  0
   38.1550   29.8470   43.8060 C   0  0  0  0  0  0  0  0  0  0  0  0
   39.5020   30.3240   44.2940 C   0  0  0  0  0  0  0  0  0  0  0  0
   39.5020   30.6550   45.7450 C   0  0  0  0  0  0  0  0  0  0  0  0
   38.1880   30.4340   46.4480 C   0  0  1  0  0  0  0  0  0  0  0  0
   36.8470   32.0580   45.9070 H   0  0  0  0  0  0  0  0  0  0  0  0
   37.2480   31.7420   43.7230 H   0  0  0  0  0  0  0  0  0  0  0  0
   36.0940   30.3710   43.9110 H   0  0  0  0  0  0  0  0  0  0  0  0
   38.1760   29.8740   42.6950 H   0  0  0  0  0  0  0  0  0  0  0  0
   37.8950   28.8340   44.1700 H   0  0  0  0  0  0  0  0  0  0  0  0
   39.6970   31.2910   43.7530 H   0  0  0  0  0  0  0  0  0  0  0  0
   40.2760   29.6300   43.9760 H   0  0  0  0  0  0  0  0  0  0  0  0
   40.2090   29.9190   46.2300 H   0  0  0  0  0  0  0  0  0  0  0  0
   39.9560   31.6360   45.9750 H   0  0  0  0  0  0  0  0  0  0  0  0
   38.0400   29.3820   46.7590 H   0  0  0  0  0  0  0  0  0  0  0  0
   35.7920   30.3080   46.2900 C   0  0  0  0  0  0  0  0  0  0  0  0
   35.0650   29.4950   45.3980 C   0  0  0  0  0  0  0  0  0  0  0  0
   33.9280   28.8670   45.8900 C   0  0  0  0  0  0  0  0  0  0  0  0
   33.5670   29.0660   47.2070 N   0  0  0  0  0  0  0  0  0  0  0  0
   34.3000   29.8620   48.0350 C   0  0  0  0  0  0  0  0  0  0  0  0
   35.3950   30.4710   47.5750 N   0  0  0  0  0  0  0  0  0  0  0  0
   35.2690   29.2940   44.3820 H   0  0  0  0  0  0  0  0  0  0  0  0
   33.2970   28.2190   45.2850 H   0  0  0  0  0  0  0  0  0  0  0  0
   33.9700   29.9810   49.0560 H   0  0  0  0  0  0  0  0  0  0  0  0
   38.3130   31.2670   47.7000 C   0  0  0  0  0  0  0  0  0  0  0  0
   38.2430   30.5900   48.9020 C   0  0  0  0  0  3  0  0  0  0  0  0
   38.3560   31.3440   50.0520 C   0  0  0  0  0  0  0  0  0  0  0  0
   38.3050   30.8340   51.0230 H   0  0  0  0  0  0  0  0  0  0  0  0
   38.5280   32.6970   49.9980 N   0  0  0  0  0  0  0  0  0  0  0  0
   38.5900   33.3110   48.7860 C   0  0  0  0  0  3  0  0  0  0  0  0
   38.4810   32.5790   47.6380 N   0  0  0  0  0  0  0  0  0  0  0  0
  1  7  1  1  0  0  0
  1 17  1  0  0  0  0
  1  6  1  0  0  0  0
  2  1  1  0  0  0  0
  3 11  1  0  0  0  0
  3  2  1  0  0  0  0
  3  4  1  0  0  0  0
  4  5  1  0  0  0  0
  5 15  1  0  0  0  0
  5 14  1  0  0  0  0
  5  6  1  0  0  0  0
  6 16  1  1  0  0  0
  6 26  1  0  0  0  0
  8  2  1  0  0  0  0
  9  2  1  0  0  0  0
 10  3  1  0  0  0  0
 12  4  1  0  0  0  0
 13  4  1  0  0  0  0
 17 22  1  0  0  0  0
 18 19  1  0  0  0  0
 18 17  2  0  0  0  0
 19 20  2  0  0  0  0
 20 21  1  0  0  0  0
 21 25  1  0  0  0  0
 22 21  2  0  0  0  0
 23 18  1  0  0  0  0
 24 19  1  0  0  0  0
 26 27  1  0  0  0  0
 27 28  2  0  0  0  0
 28 29  1  0  0  0  0
 30 28  1  0  0  0  0
 31 30  2  0  0  0  0
 32 26  2  0  0  0  0
 32 31  1  0  0  0  0
M  END
>  <minimizedAffinity>
-4.80374527

>  <minimizedRMSD>
5.08664942

$$$$
