
 OpenBabel03272509043D

 31 33  0  0  0  0  0  0  0  0999 V2000
   36.8230   29.4600   49.5290 C   0  0  0  0  0  0  0  0  0  0  0  0
   35.5930   29.3050   49.1310 C   0  0  0  0  0  0  0  0  0  0  0  0
   38.3640   32.7760   49.5850 C   0  0  0  0  0  0  0  0  0  0  0  0
   38.8870   32.8780   48.2760 C   0  0  0  0  0  0  0  0  0  0  0  0
   38.6810   31.7770   47.4180 C   0  0  0  0  0  0  0  0  0  0  0  0
   38.0040   30.7070   47.8960 N   0  0  0  0  0  0  0  0  0  0  0  0
   37.5260   30.6660   49.1550 C   0  0  0  0  0  0  0  0  0  0  0  0
   37.7100   31.7040   49.9940 N   0  0  0  0  0  0  0  0  0  0  0  0
   38.5340   33.6400   50.2360 H   0  0  0  0  0  0  0  0  0  0  0  0
   39.4260   33.7450   47.9210 H   0  0  0  0  0  0  0  0  0  0  0  0
   39.2060   31.8420   46.0590 C   0  0  0  0  0  0  0  0  0  0  0  0
   40.3190   31.1060   45.7290 C   0  0  0  0  0  0  0  0  0  0  0  0
   40.7040   31.2670   44.4010 C   0  0  0  0  0  0  0  0  0  0  0  0
   41.5870   30.7120   44.0550 H   0  0  0  0  0  0  0  0  0  0  0  0
   40.0720   32.0510   43.5180 N   0  0  0  0  0  0  0  0  0  0  0  0
   38.9980   32.7380   43.9030 C   0  0  0  0  0  0  0  0  0  0  0  0
   38.5630   32.6330   45.1830 N   0  0  0  0  0  0  0  0  0  0  0  0
   34.7020   28.1670   49.3940 C   0  0  0  0  0  0  0  0  0  0  0  0
   35.2780   27.2800   49.7520 H   0  0  0  0  0  0  0  0  0  0  0  0
   33.9630   28.4070   50.1810 H   0  0  0  0  0  0  0  0  0  0  0  0
   33.9060   27.7830   48.1800 C   0  0  0  0  0  0  0  0  0  0  0  0
   33.7110   26.5010   47.7360 C   0  0  0  0  0  0  0  0  0  0  0  0
   32.9620   26.2440   46.6060 C   0  0  0  0  0  0  0  0  0  0  0  0
   32.3810   27.3030   45.8840 C   0  0  0  0  0  0  0  0  0  0  0  0
   32.5690   28.5860   46.3190 C   0  0  0  0  0  0  0  0  0  0  0  0
   33.3200   28.8220   47.4480 C   0  0  0  0  0  0  0  0  0  0  0  0
   34.1630   25.7130   48.3020 H   0  0  0  0  0  0  0  0  0  0  0  0
   32.8090   25.2300   46.2560 H   0  0  0  0  0  0  0  0  0  0  0  0
   31.7850   27.1540   44.9920 H   0  0  0  0  0  0  0  0  0  0  0  0
   32.1470   29.4450   45.8060 H   0  0  0  0  0  0  0  0  0  0  0  0
   33.4610   29.8260   47.7790 H   0  0  0  0  0  0  0  0  0  0  0  0
  2 18  1  0  0  0  0
  2  1  2  0  0  0  0
  3  8  1  0  0  0  0
  3  9  1  0  0  0  0
  4  3  2  0  0  0  0
  5  6  2  0  0  0  0
  5  4  1  0  0  0  0
  6  7  1  0  0  0  0
  7  1  1  0  0  0  0
  7  8  2  0  0  0  0
 10  4  1  0  0  0  0
 11  5  1  0  0  0  0
 12 11  1  0  0  0  0
 13 12  2  0  0  0  0
 14 13  1  0  0  0  0
 15 16  2  0  0  0  0
 15 13  1  0  0  0  0
 16 17  1  0  0  0  0
 17 11  2  0  0  0  0
 18 19  1  0  0  0  0
 18 20  1  0  0  0  0
 21 18  1  0  0  0  0
 22 21  1  0  0  0  0
 22 27  1  0  0  0  0
 23 22  2  0  0  0  0
 24 25  2  0  0  0  0
 24 23  1  0  0  0  0
 25 26  1  0  0  0  0
 26 31  1  0  0  0  0
 26 21  2  0  0  0  0
 28 23  1  0  0  0  0
 29 24  1  0  0  0  0
 30 25  1  0  0  0  0
M  END
>  <minimizedAffinity>
-6.17589474

>  <minimizedRMSD>
2.55835199

$$$$
