
 OpenBabel03272506183D

 32 34  0  0  0  0  0  0  0  0999 V2000
   35.5200   30.3000   49.8180 C   0  0  0  0  0  0  0  0  0  0  0  0
   36.4400   31.2160   49.0380 C   0  0  0  0  0  0  0  0  0  0  0  0
   37.8910   30.8550   49.1740 C   0  0  0  0  0  0  0  0  0  0  0  0
   38.3400   30.7670   50.6080 C   0  0  0  0  0  0  0  0  0  0  0  0
   37.3350   30.1210   51.5120 C   0  0  0  0  0  0  0  0  0  0  0  0
   36.2570   29.3880   50.7390 C   0  0  0  0  0  0  0  0  0  0  0  0
   34.7650   30.8740   50.3930 H   0  0  0  0  0  0  0  0  0  0  0  0
   36.3330   32.2530   49.4560 H   0  0  0  0  0  0  0  0  0  0  0  0
   36.1840   31.2890   47.9860 H   0  0  0  0  0  0  0  0  0  0  0  0
   38.0830   29.8820   48.6540 H   0  0  0  0  0  0  0  0  0  0  0  0
   38.4730   31.6600   48.6840 H   0  0  0  0  0  0  0  0  0  0  0  0
   38.7200   31.7420   50.9780 H   0  0  0  0  0  0  0  0  0  0  0  0
   39.2400   30.0940   50.6090 H   0  0  0  0  0  0  0  0  0  0  0  0
   36.8110   30.9620   52.0400 H   0  0  0  0  0  0  0  0  0  0  0  0
   37.7630   29.4830   52.2920 H   0  0  0  0  0  0  0  0  0  0  0  0
   36.7670   28.5470   50.2040 H   0  0  0  0  0  0  0  0  0  0  0  0
   35.5700   28.9180   51.4470 H   0  0  0  0  0  0  0  0  0  0  0  0
   34.7440   29.4430   48.8700 C   0  0  0  0  0  0  0  0  0  0  0  0
   34.1430   30.1050   47.7750 C   0  0  0  0  0  0  0  0  0  0  0  0
   33.4170   29.3280   46.8870 C   0  0  0  0  0  0  0  0  0  0  0  0
   33.3070   27.9660   47.0970 N   0  0  0  0  0  0  0  0  0  0  0  0
   33.9080   27.3740   48.1750 C   0  0  0  0  0  0  0  0  0  0  0  0
   34.6100   28.1050   49.0390 N   0  0  0  0  0  0  0  0  0  0  0  0
   34.1810   31.1350   47.5570 H   0  0  0  0  0  0  0  0  0  0  0  0
   33.7970   26.3050   48.3040 H   0  0  0  0  0  0  0  0  0  0  0  0
   32.7330   29.8360   45.7060 C   0  0  0  0  0  0  0  0  0  0  0  0
   32.1750   31.0950   45.6470 C   0  0  0  0  0  0  0  0  0  0  0  0
   31.5180   31.6150   44.5460 C   0  0  0  0  0  0  0  0  0  0  0  0
   31.0910   32.6040   44.5300 H   0  0  0  0  0  0  0  0  0  0  0  0
   31.4120   30.8290   43.4360 N   0  0  0  0  0  0  0  0  0  0  0  0
   31.9630   29.5830   43.4900 C   0  0  0  0  0  0  0  0  0  0  0  0
   32.5920   29.1160   44.5800 N   0  0  0  0  0  0  0  0  0  0  0  0
  1  7  1  0  0  0  0
  1  6  1  0  0  0  0
  2  3  1  0  0  0  0
  2  8  1  0  0  0  0
  2  1  1  0  0  0  0
  3  4  1  0  0  0  0
  4 13  1  0  0  0  0
  4 12  1  0  0  0  0
  4  5  1  0  0  0  0
  5 14  1  0  0  0  0
  5 15  1  0  0  0  0
  6 17  1  0  0  0  0
  6  5  1  0  0  0  0
  9  2  1  0  0  0  0
 10  3  1  0  0  0  0
 11  3  1  0  0  0  0
 16  6  1  0  0  0  0
 18 23  1  0  0  0  0
 18  1  1  0  0  0  0
 19 18  2  0  0  0  0
 20 21  2  0  0  0  0
 20 19  1  0  0  0  0
 21 22  1  0  0  0  0
 22 25  1  0  0  0  0
 22 23  2  0  0  0  0
 24 19  1  0  0  0  0
 26 20  1  0  0  0  0
 27 26  1  0  0  0  0
 28 27  2  0  0  0  0
 29 28  1  0  0  0  0
 30 31  2  0  0  0  0
 30 28  1  0  0  0  0
 31 32  1  0  0  0  0
 32 26  2  0  0  0  0
M  END
>  <minimizedAffinity>
-5.26176405

>  <minimizedRMSD>
0.395625532

$$$$
