
 OpenBabel03272510173D

 26 28  0  0  0  0  0  0  0  0999 V2000
   37.3160   29.3560   51.0520 Br  0  0  0  0  0  0  0  0  0  0  0  0
   35.9710   29.3380   49.7010 C   0  0  0  0  0  0  0  0  0  0  0  0
   36.0000   30.2560   48.6540 C   0  0  0  0  0  0  0  0  0  0  0  0
   34.9970   30.1860   47.7160 C   0  0  0  0  0  0  0  0  0  0  0  0
   33.9750   29.2580   47.7670 C   0  0  0  0  0  0  0  0  0  0  0  0
   33.9720   28.3690   48.8090 C   0  0  0  0  0  0  0  0  0  0  0  0
   34.9670   28.4190   49.7610 C   0  0  0  0  0  0  0  0  0  0  0  0
   35.0340   30.9050   46.9100 H   0  0  0  0  0  0  0  0  0  0  0  0
   33.2220   27.6020   48.9460 H   0  0  0  0  0  0  0  0  0  0  0  0
   34.9690   27.7150   50.5880 H   0  0  0  0  0  0  0  0  0  0  0  0
   37.9990   33.2000   49.4580 C   0  0  0  0  0  0  0  0  0  0  0  0
   39.0280   33.1760   48.4660 C   0  0  0  0  0  0  0  0  0  0  0  0
   39.0100   32.1440   47.5410 C   0  0  0  0  0  0  0  0  0  0  0  0
   38.0180   31.2060   47.6190 N   0  0  0  0  0  0  0  0  0  0  0  0
   37.0580   31.2520   48.5660 C   0  0  0  0  0  0  0  0  0  0  0  0
   37.0540   32.2560   49.4860 N   0  0  0  0  0  0  0  0  0  0  0  0
   37.9420   33.9650   50.2110 H   0  0  0  0  0  0  0  0  0  0  0  0
   39.7670   33.9550   48.4800 H   0  0  0  0  0  0  0  0  0  0  0  0
   39.7780   32.1060   46.7820 H   0  0  0  0  0  0  0  0  0  0  0  0
   32.9130   29.1820   46.7770 C   0  0  0  0  0  0  0  0  0  0  0  0
   31.7910   28.3870   46.8870 C   0  0  0  0  0  3  0  0  0  0  0  0
   30.8030   28.3470   45.9160 C   0  0  0  0  0  0  0  0  0  0  0  0
   29.9600   27.6940   46.0890 H   0  0  0  0  0  0  0  0  0  0  0  0
   30.9250   29.1030   44.8200 N   0  0  0  0  0  0  0  0  0  0  0  0
   32.0170   29.8850   44.7000 C   0  0  0  0  0  3  0  0  0  0  0  0
   32.9600   29.9100   45.6480 N   0  0  0  0  0  0  0  0  0  0  0  0
  2  7  1  0  0  0  0
  2  1  1  0  0  0  0
  3  2  2  0  0  0  0
  4  5  2  0  0  0  0
  4  3  1  0  0  0  0
  5  6  1  0  0  0  0
  6  9  1  0  0  0  0
  6  7  2  0  0  0  0
  7 10  1  0  0  0  0
  8  4  1  0  0  0  0
 11 16  1  0  0  0  0
 11 17  1  0  0  0  0
 12 18  1  0  0  0  0
 12 11  2  0  0  0  0
 13 14  2  0  0  0  0
 13 12  1  0  0  0  0
 14 15  1  0  0  0  0
 15  3  1  0  0  0  0
 15 16  2  0  0  0  0
 19 13  1  0  0  0  0
 20 21  1  0  0  0  0
 20  5  1  0  0  0  0
 22 23  1  0  0  0  0
 22 21  2  0  0  0  0
 24 22  1  0  0  0  0
 25 24  2  0  0  0  0
 25 26  1  0  0  0  0
 26 20  2  0  0  0  0
M  END
>  <minimizedAffinity>
-5.85049438

>  <minimizedRMSD>
0.474651098

$$$$
