
 OpenBabel03272509293D

 32 34  0  0  1  0  0  0  0  0999 V2000
   37.0520   31.0150   45.6930 C   0  0  2  0  0  0  0  0  0  0  0  0
   37.1090   30.9140   44.1860 C   0  0  0  0  0  0  0  0  0  0  0  0
   38.2130   30.0190   43.7070 C   0  0  0  0  0  0  0  0  0  0  0  0
   39.5560   30.4610   44.2370 C   0  0  0  0  0  0  0  0  0  0  0  0
   39.5450   30.6920   45.7070 C   0  0  0  0  0  0  0  0  0  0  0  0
   38.2270   30.4230   46.3840 C   0  0  1  0  0  0  0  0  0  0  0  0
   36.8880   32.0810   45.9450 H   0  0  0  0  0  0  0  0  0  0  0  0
   37.3060   31.9150   43.7480 H   0  0  0  0  0  0  0  0  0  0  0  0
   36.1510   30.5340   43.8330 H   0  0  0  0  0  0  0  0  0  0  0  0
   38.2420   30.1210   42.6010 H   0  0  0  0  0  0  0  0  0  0  0  0
   37.9510   28.9830   43.9990 H   0  0  0  0  0  0  0  0  0  0  0  0
   39.7540   31.4630   43.7650 H   0  0  0  0  0  0  0  0  0  0  0  0
   40.3330   29.7900   43.8780 H   0  0  0  0  0  0  0  0  0  0  0  0
   40.2490   29.9250   46.1460 H   0  0  0  0  0  0  0  0  0  0  0  0
   39.9970   31.6550   46.0070 H   0  0  0  0  0  0  0  0  0  0  0  0
   38.0760   29.3530   46.6210 H   0  0  0  0  0  0  0  0  0  0  0  0
   35.8320   30.3090   46.2000 C   0  0  0  0  0  0  0  0  0  0  0  0
   35.1570   29.4930   45.2690 C   0  0  0  0  0  0  0  0  0  0  0  0
   34.0180   28.8320   45.7080 C   0  0  0  0  0  0  0  0  0  0  0  0
   33.6040   29.0000   47.0140 N   0  0  0  0  0  0  0  0  0  0  0  0
   34.2870   29.7990   47.8810 C   0  0  0  0  0  0  0  0  0  0  0  0
   35.3840   30.4410   47.4710 N   0  0  0  0  0  0  0  0  0  0  0  0
   35.4040   29.3150   44.2570 H   0  0  0  0  0  0  0  0  0  0  0  0
   33.4260   28.1790   45.0700 H   0  0  0  0  0  0  0  0  0  0  0  0
   33.9170   29.8950   48.8900 H   0  0  0  0  0  0  0  0  0  0  0  0
   38.3410   31.1690   47.6900 C   0  0  0  0  0  0  0  0  0  0  0  0
   38.5990   32.5240   47.6070 C   0  0  0  0  0  3  0  0  0  0  0  0
   38.7050   33.2130   48.7980 C   0  0  0  0  0  0  0  0  0  0  0  0
   38.9090   34.2910   48.7650 H   0  0  0  0  0  0  0  0  0  0  0  0
   38.5620   32.5800   49.9980 N   0  0  0  0  0  0  0  0  0  0  0  0
   38.3100   31.2450   50.0190 C   0  0  0  0  0  3  0  0  0  0  0  0
   38.2010   30.5470   48.8520 N   0  0  0  0  0  0  0  0  0  0  0  0
  1  7  1  1  0  0  0
  1 17  1  0  0  0  0
  1  6  1  0  0  0  0
  2  1  1  0  0  0  0
  3 11  1  0  0  0  0
  3  2  1  0  0  0  0
  3  4  1  0  0  0  0
  4  5  1  0  0  0  0
  5 15  1  0  0  0  0
  5 14  1  0  0  0  0
  5  6  1  0  0  0  0
  6 16  1  1  0  0  0
  6 26  1  0  0  0  0
  8  2  1  0  0  0  0
  9  2  1  0  0  0  0
 10  3  1  0  0  0  0
 12  4  1  0  0  0  0
 13  4  1  0  0  0  0
 17 22  1  0  0  0  0
 18 19  1  0  0  0  0
 18 17  2  0  0  0  0
 19 20  2  0  0  0  0
 20 21  1  0  0  0  0
 21 25  1  0  0  0  0
 22 21  2  0  0  0  0
 23 18  1  0  0  0  0
 24 19  1  0  0  0  0
 26 32  1  0  0  0  0
 27 26  2  0  0  0  0
 27 28  1  0  0  0  0
 28 30  2  0  0  0  0
 29 28  1  0  0  0  0
 30 31  1  0  0  0  0
 32 31  2  0  0  0  0
M  END
>  <minimizedAffinity>
-4.79378128

>  <minimizedRMSD>
5.09986353

$$$$
