
 OpenBabel03272510173D

 26 28  0  0  0  0  0  0  0  0999 V2000
   37.4140   29.2040   50.8780 Br  0  0  0  0  0  0  0  0  0  0  0  0
   36.0130   29.2630   49.5860 C   0  0  0  0  0  0  0  0  0  0  0  0
   36.0000   30.2380   48.5920 C   0  0  0  0  0  0  0  0  0  0  0  0
   34.9570   30.2210   47.6960 C   0  0  0  0  0  0  0  0  0  0  0  0
   33.9350   29.2920   47.7380 C   0  0  0  0  0  0  0  0  0  0  0  0
   33.9750   28.3450   48.7270 C   0  0  0  0  0  0  0  0  0  0  0  0
   35.0100   28.3410   49.6370 C   0  0  0  0  0  0  0  0  0  0  0  0
   34.9610   30.9850   46.9310 H   0  0  0  0  0  0  0  0  0  0  0  0
   33.2300   27.5720   48.8530 H   0  0  0  0  0  0  0  0  0  0  0  0
   35.0460   27.5920   50.4220 H   0  0  0  0  0  0  0  0  0  0  0  0
   37.9980   33.1710   49.4370 C   0  0  0  0  0  0  0  0  0  0  0  0
   39.0210   33.1670   48.4380 C   0  0  0  0  0  0  0  0  0  0  0  0
   38.9990   32.1520   47.4960 C   0  0  0  0  0  0  0  0  0  0  0  0
   38.0090   31.2100   47.5630 N   0  0  0  0  0  0  0  0  0  0  0  0
   37.0550   31.2380   48.5160 C   0  0  0  0  0  0  0  0  0  0  0  0
   37.0550   32.2250   49.4540 N   0  0  0  0  0  0  0  0  0  0  0  0
   37.9440   33.9220   50.2040 H   0  0  0  0  0  0  0  0  0  0  0  0
   39.7580   33.9460   48.4620 H   0  0  0  0  0  0  0  0  0  0  0  0
   39.7620   32.1280   46.7310 H   0  0  0  0  0  0  0  0  0  0  0  0
   32.8320   29.2720   46.7920 C   0  0  0  0  0  0  0  0  0  0  0  0
   32.0570   28.1660   46.5110 C   0  0  0  0  0  3  0  0  0  0  0  0
   31.0140   28.1960   45.5990 C   0  0  0  0  0  0  0  0  0  0  0  0
   30.4620   27.2790   45.4440 H   0  0  0  0  0  0  0  0  0  0  0  0
   30.7310   29.3340   44.9570 N   0  0  0  0  0  0  0  0  0  0  0  0
   31.4800   30.4220   45.2210 C   0  0  0  0  0  3  0  0  0  0  0  0
   32.4830   30.3750   46.1050 N   0  0  0  0  0  0  0  0  0  0  0  0
  2  7  1  0  0  0  0
  2  1  1  0  0  0  0
  3  2  2  0  0  0  0
  4  5  2  0  0  0  0
  4  3  1  0  0  0  0
  5  6  1  0  0  0  0
  6  9  1  0  0  0  0
  6  7  2  0  0  0  0
  7 10  1  0  0  0  0
  8  4  1  0  0  0  0
 11 16  1  0  0  0  0
 11 17  1  0  0  0  0
 12 18  1  0  0  0  0
 12 11  2  0  0  0  0
 13 14  2  0  0  0  0
 13 12  1  0  0  0  0
 14 15  1  0  0  0  0
 15  3  1  0  0  0  0
 15 16  2  0  0  0  0
 19 13  1  0  0  0  0
 20  5  1  0  0  0  0
 21 20  1  0  0  0  0
 22 21  2  0  0  0  0
 23 22  1  0  0  0  0
 24 25  2  0  0  0  0
 24 22  1  0  0  0  0
 25 26  1  0  0  0  0
 26 20  2  0  0  0  0
M  END
>  <minimizedAffinity>
-5.86923885

>  <minimizedRMSD>
0.247769028

$$$$
