
 OpenBabel03272510173D

 26 28  0  0  0  0  0  0  0  0999 V2000
   37.3240   29.3480   51.0460 Br  0  0  0  0  0  0  0  0  0  0  0  0
   35.9700   29.3370   49.7040 C   0  0  0  0  0  0  0  0  0  0  0  0
   35.9950   30.2580   48.6580 C   0  0  0  0  0  0  0  0  0  0  0  0
   34.9850   30.1920   47.7270 C   0  0  0  0  0  0  0  0  0  0  0  0
   33.9600   29.2670   47.7830 C   0  0  0  0  0  0  0  0  0  0  0  0
   33.9620   28.3750   48.8230 C   0  0  0  0  0  0  0  0  0  0  0  0
   34.9630   28.4200   49.7680 C   0  0  0  0  0  0  0  0  0  0  0  0
   35.0190   30.9130   46.9220 H   0  0  0  0  0  0  0  0  0  0  0  0
   33.2110   27.6110   48.9630 H   0  0  0  0  0  0  0  0  0  0  0  0
   34.9690   27.7150   50.5940 H   0  0  0  0  0  0  0  0  0  0  0  0
   38.0030   33.1980   49.4520 C   0  0  0  0  0  0  0  0  0  0  0  0
   39.0280   33.1700   48.4570 C   0  0  0  0  0  0  0  0  0  0  0  0
   39.0050   32.1370   47.5340 C   0  0  0  0  0  0  0  0  0  0  0  0
   38.0110   31.2010   47.6160 N   0  0  0  0  0  0  0  0  0  0  0  0
   37.0540   31.2510   48.5660 C   0  0  0  0  0  0  0  0  0  0  0  0
   37.0560   32.2570   49.4840 N   0  0  0  0  0  0  0  0  0  0  0  0
   37.9490   33.9650   50.2030 H   0  0  0  0  0  0  0  0  0  0  0  0
   39.7690   33.9470   48.4680 H   0  0  0  0  0  0  0  0  0  0  0  0
   39.7710   32.0950   46.7730 H   0  0  0  0  0  0  0  0  0  0  0  0
   32.8920   29.1960   46.7990 C   0  0  0  0  0  0  0  0  0  0  0  0
   31.8540   28.2890   46.8310 C   0  0  0  0  0  3  0  0  0  0  0  0
   30.8540   28.2600   45.8700 C   0  0  0  0  0  0  0  0  0  0  0  0
   30.0830   27.5120   45.9770 H   0  0  0  0  0  0  0  0  0  0  0  0
   30.8820   29.1390   44.8630 N   0  0  0  0  0  0  0  0  0  0  0  0
   31.8920   30.0330   44.8200 C   0  0  0  0  0  3  0  0  0  0  0  0
   32.8460   30.0450   45.7570 N   0  0  0  0  0  0  0  0  0  0  0  0
  2  7  1  0  0  0  0
  2  1  1  0  0  0  0
  3  2  2  0  0  0  0
  4  5  2  0  0  0  0
  4  3  1  0  0  0  0
  5  6  1  0  0  0  0
  6  9  1  0  0  0  0
  6  7  2  0  0  0  0
  7 10  1  0  0  0  0
  8  4  1  0  0  0  0
 11 16  1  0  0  0  0
 11 17  1  0  0  0  0
 12 18  1  0  0  0  0
 12 11  2  0  0  0  0
 13 14  2  0  0  0  0
 13 12  1  0  0  0  0
 14 15  1  0  0  0  0
 15  3  1  0  0  0  0
 15 16  2  0  0  0  0
 19 13  1  0  0  0  0
 20 21  1  0  0  0  0
 20  5  1  0  0  0  0
 22 23  1  0  0  0  0
 22 21  2  0  0  0  0
 24 22  1  0  0  0  0
 25 24  2  0  0  0  0
 25 26  1  0  0  0  0
 26 20  2  0  0  0  0
M  END
>  <minimizedAffinity>
-5.83932018

>  <minimizedRMSD>
0.136196315

$$$$
