
 OpenBabel03272506183D

 32 34  0  0  0  0  0  0  0  0999 V2000
   35.5340   30.3050   49.8370 C   0  0  0  0  0  0  0  0  0  0  0  0
   36.4610   31.2370   49.0860 C   0  0  0  0  0  0  0  0  0  0  0  0
   37.9110   30.8720   49.2280 C   0  0  0  0  0  0  0  0  0  0  0  0
   38.3460   30.7530   50.6650 C   0  0  0  0  0  0  0  0  0  0  0  0
   37.3320   30.0890   51.5440 C   0  0  0  0  0  0  0  0  0  0  0  0
   36.2620   29.3730   50.7450 C   0  0  0  0  0  0  0  0  0  0  0  0
   34.7740   30.8670   50.4160 H   0  0  0  0  0  0  0  0  0  0  0  0
   36.3510   32.2650   49.5250 H   0  0  0  0  0  0  0  0  0  0  0  0
   36.2150   31.3320   48.0330 H   0  0  0  0  0  0  0  0  0  0  0  0
   38.1080   29.9100   48.6890 H   0  0  0  0  0  0  0  0  0  0  0  0
   38.4980   31.6870   48.7610 H   0  0  0  0  0  0  0  0  0  0  0  0
   38.7230   31.7210   51.0590 H   0  0  0  0  0  0  0  0  0  0  0  0
   39.2450   30.0800   50.6600 H   0  0  0  0  0  0  0  0  0  0  0  0
   36.8030   30.9190   52.0850 H   0  0  0  0  0  0  0  0  0  0  0  0
   37.7520   29.4350   52.3150 H   0  0  0  0  0  0  0  0  0  0  0  0
   36.7760   28.5430   50.1990 H   0  0  0  0  0  0  0  0  0  0  0  0
   35.5680   28.8890   51.4370 H   0  0  0  0  0  0  0  0  0  0  0  0
   34.7660   29.4690   48.8640 C   0  0  0  0  0  0  0  0  0  0  0  0
   34.2310   30.1430   47.7440 C   0  0  0  0  0  0  0  0  0  0  0  0
   33.5140   29.3860   46.8320 C   0  0  0  0  0  0  0  0  0  0  0  0
   33.3500   28.0300   47.0430 N   0  0  0  0  0  0  0  0  0  0  0  0
   33.8900   27.4240   48.1460 C   0  0  0  0  0  0  0  0  0  0  0  0
   34.5830   28.1370   49.0340 N   0  0  0  0  0  0  0  0  0  0  0  0
   34.3110   31.1710   47.5220 H   0  0  0  0  0  0  0  0  0  0  0  0
   33.7390   26.3600   48.2760 H   0  0  0  0  0  0  0  0  0  0  0  0
   32.8920   29.9100   45.6230 C   0  0  0  0  0  0  0  0  0  0  0  0
   31.7360   30.6570   45.6380 C   0  0  0  0  0  3  0  0  0  0  0  0
   31.1150   31.1730   44.5140 C   0  0  0  0  0  0  0  0  0  0  0  0
   30.2090   31.7550   44.5580 H   0  0  0  0  0  0  0  0  0  0  0  0
   31.6860   30.9260   43.3000 N   0  0  0  0  0  0  0  0  0  0  0  0
   32.8310   30.1850   43.2810 C   0  0  0  0  0  3  0  0  0  0  0  0
   33.4010   29.7040   44.3950 N   0  0  0  0  0  0  0  0  0  0  0  0
  1  7  1  0  0  0  0
  1  6  1  0  0  0  0
  2  3  1  0  0  0  0
  2  8  1  0  0  0  0
  2  1  1  0  0  0  0
  3  4  1  0  0  0  0
  4 12  1  0  0  0  0
  4  5  1  0  0  0  0
  5 14  1  0  0  0  0
  5 15  1  0  0  0  0
  6 17  1  0  0  0  0
  6  5  1  0  0  0  0
  9  2  1  0  0  0  0
 10  3  1  0  0  0  0
 11  3  1  0  0  0  0
 13  4  1  0  0  0  0
 16  6  1  0  0  0  0
 18 23  1  0  0  0  0
 18  1  1  0  0  0  0
 19 18  2  0  0  0  0
 20 21  2  0  0  0  0
 20 19  1  0  0  0  0
 21 22  1  0  0  0  0
 22 25  1  0  0  0  0
 22 23  2  0  0  0  0
 24 19  1  0  0  0  0
 26 27  1  0  0  0  0
 26 20  1  0  0  0  0
 28 29  1  0  0  0  0
 28 27  2  0  0  0  0
 30 28  1  0  0  0  0
 31 30  2  0  0  0  0
 31 32  1  0  0  0  0
 32 26  2  0  0  0  0
M  END
>  <minimizedAffinity>
-5.22363806

>  <minimizedRMSD>
0.171964139

$$$$
