
 OpenBabel03272506483D

 40 43  0  0  1  0  0  0  0  0999 V2000
   32.1410   28.4690   47.4680 C   0  0  2  0  0  0  0  0  0  0  0  0
   33.3990   28.2630   48.2600 C   0  0  1  0  0  0  0  0  0  0  0  0
   33.7650   26.9570   48.1340 O   0  0  0  0  0  0  0  0  0  0  0  0
   33.0230   26.3640   47.1180 C   0  0  0  0  0  0  0  0  0  0  0  0
   32.4250   27.4810   46.2970 C   0  0  1  0  0  0  0  0  0  0  0  0
   31.2230   28.1380   47.9470 H   0  0  0  0  0  0  0  0  0  0  0  0
   33.2550   28.5610   49.3230 H   0  0  0  0  0  0  0  0  0  0  0  0
   32.3220   25.6980   47.6020 H   0  0  0  0  0  0  0  0  0  0  0  0
   33.7300   25.7590   46.4670 H   0  0  0  0  0  0  0  0  0  0  0  0
   33.1630   27.9430   45.6470 H   0  0  0  0  0  0  0  0  0  0  0  0
   32.0860   29.7820   46.9600 O   0  0  0  0  0  0  0  0  0  0  0  0
   32.5080   30.4010   47.6060 H   0  0  0  0  0  0  0  0  0  0  0  0
   34.7140   29.2910   47.4900 S   0  0  0  0  0  0  0  0  0  0  0  0
   37.1060   29.2900   50.6470 C   0  0  0  0  0  0  0  0  0  0  0  0
   37.5720   30.6000   50.7530 C   0  0  0  0  0  0  0  0  0  0  0  0
   37.1250   31.5300   49.7990 C   0  0  0  0  0  0  0  0  0  0  0  0
   36.2670   31.1060   48.8310 N   0  0  0  0  0  0  0  0  0  0  0  0
   35.8420   29.8260   48.7710 C   0  0  0  0  0  0  0  0  0  0  0  0
   36.2550   28.9000   49.6750 N   0  0  0  0  0  0  0  0  0  0  0  0
   37.4840   28.6190   51.4070 H   0  0  0  0  0  0  0  0  0  0  0  0
   38.2540   30.8910   51.5390 H   0  0  0  0  0  0  0  0  0  0  0  0
   37.4560   32.5580   49.8360 H   0  0  0  0  0  0  0  0  0  0  0  0
   31.2580   27.0440   45.7220 O   0  0  0  0  0  0  0  0  0  0  0  0
   29.9890   29.3370   44.3850 Cl  0  0  0  0  0  0  0  0  0  0  0  0
   29.3360   28.3130   45.6430 C   0  0  0  0  0  0  0  0  0  0  0  0
   30.0290   27.2530   46.1840 C   0  0  0  0  0  0  0  0  0  0  0  0
   29.3930   26.4880   47.1630 C   0  0  0  0  0  0  0  0  0  0  0  0
   28.1110   26.7920   47.5710 C   0  0  0  0  0  0  0  0  0  0  0  0
   27.4090   27.8560   47.0310 C   0  0  0  0  0  0  0  0  0  0  0  0
   28.0360   28.6130   46.0620 C   0  0  0  0  0  0  0  0  0  0  0  0
   29.8470   25.6390   47.6430 H   0  0  0  0  0  0  0  0  0  0  0  0
   27.6210   26.2000   48.3280 H   0  0  0  0  0  0  0  0  0  0  0  0
   26.4110   28.0420   47.3900 H   0  0  0  0  0  0  0  0  0  0  0  0
   27.3480   29.7460   45.4560 C   0  0  0  0  0  0  0  0  0  0  0  0
   27.2570   30.9820   46.0420 C   0  0  0  0  0  3  0  0  0  0  0  0
   26.6050   32.0660   45.4760 C   0  0  0  0  0  0  0  0  0  0  0  0
   26.5530   33.0220   45.9620 H   0  0  0  0  0  0  0  0  0  0  0  0
   26.0160   31.9160   44.2710 N   0  0  0  0  0  0  0  0  0  0  0  0
   26.0940   30.7100   43.6780 C   0  0  0  0  0  3  0  0  0  0  0  0
   26.7340   29.6790   44.2550 N   0  0  0  0  0  0  0  0  0  0  0  0
  1  6  1  1  0  0  0
  1  2  1  0  0  0  0
  2  7  1  1  0  0  0
  3  2  1  0  0  0  0
  4  8  1  0  0  0  0
  4  3  1  0  0  0  0
  5 10  1  6  0  0  0
  5  4  1  0  0  0  0
  5  1  1  0  0  0  0
  9  4  1  0  0  0  0
 11  1  1  0  0  0  0
 11 12  1  0  0  0  0
 13  2  1  0  0  0  0
 13 18  1  0  0  0  0
 14 15  1  0  0  0  0
 14 20  1  0  0  0  0
 15 21  1  0  0  0  0
 16 22  1  0  0  0  0
 16 15  2  0  0  0  0
 17 16  1  0  0  0  0
 18 17  2  0  0  0  0
 18 19  1  0  0  0  0
 19 14  2  0  0  0  0
 23 26  1  0  0  0  0
 23  5  1  0  0  0  0
 24 25  1  0  0  0  0
 25 30  2  0  0  0  0
 25 26  1  0  0  0  0
 26 27  2  0  0  0  0
 27 28  1  0  0  0  0
 27 31  1  0  0  0  0
 28 32  1  0  0  0  0
 29 33  1  0  0  0  0
 29 28  2  0  0  0  0
 30 29  1  0  0  0  0
 34 35  1  0  0  0  0
 34 30  1  0  0  0  0
 36 37  1  0  0  0  0
 36 35  2  0  0  0  0
 38 36  1  0  0  0  0
 39 40  1  0  0  0  0
 39 38  2  0  0  0  0
 40 34  2  0  0  0  0
M  END
>  <minimizedAffinity>
-5.42041445

>  <minimizedRMSD>
0.67151624

$$$$
