
 OpenBabel03272506183D

 32 34  0  0  0  0  0  0  0  0999 V2000
   35.5340   30.3040   49.8430 C   0  0  0  0  0  0  0  0  0  0  0  0
   36.4560   31.2350   49.0840 C   0  0  0  0  0  0  0  0  0  0  0  0
   37.9060   30.8720   49.2190 C   0  0  0  0  0  0  0  0  0  0  0  0
   38.3500   30.7580   50.6540 C   0  0  0  0  0  0  0  0  0  0  0  0
   37.3410   30.0960   51.5410 C   0  0  0  0  0  0  0  0  0  0  0  0
   36.2670   29.3760   50.7510 C   0  0  0  0  0  0  0  0  0  0  0  0
   34.7760   30.8680   50.4250 H   0  0  0  0  0  0  0  0  0  0  0  0
   36.3470   32.2650   49.5200 H   0  0  0  0  0  0  0  0  0  0  0  0
   36.2040   31.3260   48.0320 H   0  0  0  0  0  0  0  0  0  0  0  0
   38.1020   29.9090   48.6830 H   0  0  0  0  0  0  0  0  0  0  0  0
   38.4900   31.6860   48.7470 H   0  0  0  0  0  0  0  0  0  0  0  0
   38.7270   31.7280   51.0430 H   0  0  0  0  0  0  0  0  0  0  0  0
   39.2500   30.0860   50.6460 H   0  0  0  0  0  0  0  0  0  0  0  0
   36.8150   30.9270   52.0820 H   0  0  0  0  0  0  0  0  0  0  0  0
   37.7660   29.4450   52.3120 H   0  0  0  0  0  0  0  0  0  0  0  0
   36.7790   28.5450   50.2040 H   0  0  0  0  0  0  0  0  0  0  0  0
   35.5780   28.8940   51.4480 H   0  0  0  0  0  0  0  0  0  0  0  0
   34.7620   29.4640   48.8770 C   0  0  0  0  0  0  0  0  0  0  0  0
   34.2050   30.1370   47.7660 C   0  0  0  0  0  0  0  0  0  0  0  0
   33.4840   29.3760   46.8610 C   0  0  0  0  0  0  0  0  0  0  0  0
   33.3360   28.0180   47.0690 N   0  0  0  0  0  0  0  0  0  0  0  0
   33.8960   27.4140   48.1630 C   0  0  0  0  0  0  0  0  0  0  0  0
   34.5930   28.1300   49.0440 N   0  0  0  0  0  0  0  0  0  0  0  0
   34.2720   31.1670   47.5470 H   0  0  0  0  0  0  0  0  0  0  0  0
   33.7570   26.3480   48.2910 H   0  0  0  0  0  0  0  0  0  0  0  0
   32.8420   29.8980   45.6620 C   0  0  0  0  0  0  0  0  0  0  0  0
   33.3670   29.7330   44.3980 C   0  0  0  0  0  3  0  0  0  0  0  0
   32.7900   30.2120   43.2360 C   0  0  0  0  0  0  0  0  0  0  0  0
   33.2230   30.0660   42.2610 H   0  0  0  0  0  0  0  0  0  0  0  0
   31.6150   30.9000   43.3440 N   0  0  0  0  0  0  0  0  0  0  0  0
   31.0930   31.0660   44.5920 C   0  0  0  0  0  3  0  0  0  0  0  0
   31.6860   30.5840   45.6950 N   0  0  0  0  0  0  0  0  0  0  0  0
  1  7  1  0  0  0  0
  1  6  1  0  0  0  0
  2  3  1  0  0  0  0
  2  8  1  0  0  0  0
  2  1  1  0  0  0  0
  3  4  1  0  0  0  0
  4 12  1  0  0  0  0
  4  5  1  0  0  0  0
  5 14  1  0  0  0  0
  5 15  1  0  0  0  0
  6 17  1  0  0  0  0
  6  5  1  0  0  0  0
  9  2  1  0  0  0  0
 10  3  1  0  0  0  0
 11  3  1  0  0  0  0
 13  4  1  0  0  0  0
 16  6  1  0  0  0  0
 18 23  1  0  0  0  0
 18  1  1  0  0  0  0
 19 18  2  0  0  0  0
 20 21  2  0  0  0  0
 20 19  1  0  0  0  0
 21 22  1  0  0  0  0
 22 25  1  0  0  0  0
 22 23  2  0  0  0  0
 24 19  1  0  0  0  0
 26 32  1  0  0  0  0
 26 20  1  0  0  0  0
 27 26  2  0  0  0  0
 28 30  2  0  0  0  0
 28 27  1  0  0  0  0
 29 28  1  0  0  0  0
 30 31  1  0  0  0  0
 31 32  2  0  0  0  0
M  END
>  <minimizedAffinity>
-5.20218515

>  <minimizedRMSD>
0.190675095

$$$$
