
 OpenBabel03272507453D

 31 33  0  0  0  0  0  0  0  0999 V2000
   35.4290   31.1000   43.8080 N   0  0  0  0  0  0  0  0  0  0  0  0
   35.0890   30.1380   44.8180 C   0  0  0  0  0  0  0  0  0  0  0  0
   35.8860   30.1350   46.0610 C   0  0  0  0  0  0  0  0  0  0  0  0
   37.3060   30.5570   45.9590 C   0  0  0  0  0  0  0  0  0  0  0  0
   37.5810   31.5150   44.8460 C   0  0  0  0  0  0  0  0  0  0  0  0
   36.8480   31.0290   43.5850 C   0  0  0  0  0  0  0  0  0  0  0  0
   35.1130   29.1350   44.3000 H   0  0  0  0  0  0  0  0  0  0  0  0
   34.0200   30.2900   45.0760 H   0  0  0  0  0  0  0  0  0  0  0  0
   35.8350   29.1250   46.5190 H   0  0  0  0  0  0  0  0  0  0  0  0
   35.3970   30.8200   46.7970 H   0  0  0  0  0  0  0  0  0  0  0  0
   37.9330   29.6440   45.7890 H   0  0  0  0  0  0  0  0  0  0  0  0
   37.2310   32.5350   45.0260 H   0  0  0  0  0  0  0  0  0  0  0  0
   38.6660   31.4930   44.6090 H   0  0  0  0  0  0  0  0  0  0  0  0
   37.2060   30.0050   43.3740 H   0  0  0  0  0  0  0  0  0  0  0  0
   37.2060   31.7220   42.7920 H   0  0  0  0  0  0  0  0  0  0  0  0
   34.5230   31.9690   43.1450 C   0  0  0  0  0  0  0  0  0  0  0  0
   34.8600   33.2210   42.6280 C   0  0  0  0  0  0  0  0  0  0  0  0
   33.8650   33.9700   42.0000 C   0  0  0  0  0  0  0  0  0  0  0  0
   32.6090   33.4430   41.9200 N   0  0  0  0  0  0  0  0  0  0  0  0
   32.3290   32.2320   42.4320 C   0  0  0  0  0  0  0  0  0  0  0  0
   33.2740   31.4990   43.0380 N   0  0  0  0  0  0  0  0  0  0  0  0
   35.8850   33.5470   42.7440 H   0  0  0  0  0  0  0  0  0  0  0  0
   34.1350   34.9400   41.6020 H   0  0  0  0  0  0  0  0  0  0  0  0
   31.3120   31.8290   42.3550 H   0  0  0  0  0  0  0  0  0  0  0  0
   37.7540   31.1230   47.2590 C   0  0  0  0  0  0  0  0  0  0  0  0
   38.3980   32.3610   47.2400 C   0  0  0  0  0  3  0  0  0  0  0  0
   38.7980   32.8470   48.4870 C   0  0  0  0  0  0  0  0  0  0  0  0
   39.3040   33.8200   48.4750 H   0  0  0  0  0  0  0  0  0  0  0  0
   38.6090   32.2240   49.6650 N   0  0  0  0  0  0  0  0  0  0  0  0
   37.9780   31.0250   49.6120 C   0  0  0  0  0  3  0  0  0  0  0  0
   37.5570   30.4800   48.4470 N   0  0  0  0  0  0  0  0  0  0  0  0
  1  2  1  0  0  0  0
  2  8  1  0  0  0  0
  2  3  1  0  0  0  0
  3  9  1  0  0  0  0
  3 10  1  0  0  0  0
  4  3  1  0  0  0  0
  4 25  1  0  0  0  0
  5 12  1  0  0  0  0
  5  4  1  0  0  0  0
  6  1  1  0  0  0  0
  6  5  1  0  0  0  0
  7  2  1  0  0  0  0
 11  4  1  0  0  0  0
 13  5  1  0  0  0  0
 14  6  1  0  0  0  0
 15  6  1  0  0  0  0
 16  1  1  0  0  0  0
 17 22  1  0  0  0  0
 17 16  2  0  0  0  0
 18 17  1  0  0  0  0
 19 18  2  0  0  0  0
 19 20  1  0  0  0  0
 20 21  2  0  0  0  0
 21 16  1  0  0  0  0
 23 18  1  0  0  0  0
 24 20  1  0  0  0  0
 25 31  1  0  0  0  0
 26 25  2  0  0  0  0
 26 27  1  0  0  0  0
 27 29  2  0  0  0  0
 28 27  1  0  0  0  0
 30 29  1  0  0  0  0
 31 30  2  0  0  0  0
M  END
>  <minimizedAffinity>
-3.9303093

>  <minimizedRMSD>
5.41734314

$$$$
