
 OpenBabel03262520083D

 16 17  0  0  0  0  0  0  0  0999 V2000
   37.2450   27.6830   34.8590 C   0  0  0  0  0  0  0  0  0  0  0  0
   36.9490   27.3310   33.5330 C   0  0  0  0  0  0  0  0  0  0  0  0
   37.2270   26.0020   33.1390 C   0  0  0  0  0  0  0  0  0  0  0  0
   37.7580   25.1570   34.0630 N   0  0  0  0  0  0  0  0  0  0  0  0
   38.0270   25.5380   35.3350 C   0  0  0  0  0  0  0  0  0  0  0  0
   37.7670   26.8080   35.7240 N   0  0  0  0  0  0  0  0  0  0  0  0
   37.0180   28.7200   35.1300 H   0  0  0  0  0  0  0  0  0  0  0  0
   36.5270   28.0030   32.7960 H   0  0  0  0  0  0  0  0  0  0  0  0
   37.0330   25.6310   32.1300 H   0  0  0  0  0  0  0  0  0  0  0  0
   38.5970   24.5650   36.2630 C   0  0  0  0  0  0  0  0  0  0  0  0
   38.0680   24.3300   37.4880 C   0  0  0  0  0  3  0  0  0  0  0  0
   38.6500   23.4060   38.3100 C   0  0  0  0  0  0  0  0  0  0  0  0
   38.2370   23.2070   39.2960 H   0  0  0  0  0  0  0  0  0  0  0  0
   39.7540   22.7270   37.8990 N   0  0  0  0  0  0  0  0  0  0  0  0
   40.2570   22.9800   36.6800 C   0  0  0  0  0  3  0  0  0  0  0  0
   39.6960   23.8920   35.8480 N   0  0  0  0  0  0  0  0  0  0  0  0
  1  7  1  0  0  0  0
  1  6  1  0  0  0  0
  2  1  2  0  0  0  0
  3  2  1  0  0  0  0
  3  4  2  0  0  0  0
  4  5  1  0  0  0  0
  5  6  2  0  0  0  0
  5 10  1  0  0  0  0
  8  2  1  0  0  0  0
  9  3  1  0  0  0  0
 10 11  1  0  0  0  0
 11 12  2  0  0  0  0
 12 13  1  0  0  0  0
 14 12  1  0  0  0  0
 15 14  2  0  0  0  0
 16 10  2  0  0  0  0
 16 15  1  0  0  0  0
M  END
>  <minimizedAffinity>
-3.74086022

$$$$

 OpenBabel03262520083D

 16 17  0  0  0  0  0  0  0  0999 V2000
   38.4870   23.6890   38.1910 C   0  0  0  0  0  0  0  0  0  0  0  0
   39.6160   22.9110   37.8940 C   0  0  0  0  0  0  0  0  0  0  0  0
   40.1610   23.0300   36.5950 C   0  0  0  0  0  0  0  0  0  0  0  0
   39.5600   23.8850   35.7240 N   0  0  0  0  0  0  0  0  0  0  0  0
   38.4700   24.6190   36.0520 C   0  0  0  0  0  0  0  0  0  0  0  0
   37.9390   24.5140   37.2930 N   0  0  0  0  0  0  0  0  0  0  0  0
   38.0910   23.5720   39.2060 H   0  0  0  0  0  0  0  0  0  0  0  0
   40.0950   22.2290   38.5860 H   0  0  0  0  0  0  0  0  0  0  0  0
   41.0370   22.4670   36.2670 H   0  0  0  0  0  0  0  0  0  0  0  0
   37.8880   25.5130   35.0550 C   0  0  0  0  0  0  0  0  0  0  0  0
   37.5040   26.7800   35.3470 C   0  0  0  0  0  3  0  0  0  0  0  0
   36.9660   27.5660   34.3680 C   0  0  0  0  0  0  0  0  0  0  0  0
   36.6520   28.5840   34.5870 H   0  0  0  0  0  0  0  0  0  0  0  0
   36.8160   27.0790   33.1070 N   0  0  0  0  0  0  0  0  0  0  0  0
   37.2060   25.8210   32.8460 C   0  0  0  0  0  3  0  0  0  0  0  0
   37.7420   25.0230   33.8020 N   0  0  0  0  0  0  0  0  0  0  0  0
  1  7  1  0  0  0  0
  2  1  1  0  0  0  0
  2  8  1  0  0  0  0
  3  2  2  0  0  0  0
  4  5  2  0  0  0  0
  4  3  1  0  0  0  0
  5  6  1  0  0  0  0
  6  1  2  0  0  0  0
  9  3  1  0  0  0  0
 10 11  1  0  0  0  0
 10  5  1  0  0  0  0
 12 13  1  0  0  0  0
 12 11  2  0  0  0  0
 14 12  1  0  0  0  0
 15 14  2  0  0  0  0
 15 16  1  0  0  0  0
 16 10  2  0  0  0  0
M  END
>  <minimizedAffinity>
-3.71892071

$$$$

 OpenBabel03262520083D

 16 17  0  0  0  0  0  0  0  0999 V2000
   39.8870   23.0160   36.8250 C   0  0  0  0  0  0  0  0  0  0  0  0
   39.3430   23.0110   38.1180 C   0  0  0  0  0  0  0  0  0  0  0  0
   38.2690   23.8950   38.3720 C   0  0  0  0  0  0  0  0  0  0  0  0
   37.8370   24.6870   37.3540 N   0  0  0  0  0  0  0  0  0  0  0  0
   38.3900   24.6600   36.1190 C   0  0  0  0  0  0  0  0  0  0  0  0
   39.4190   23.8180   35.8630 N   0  0  0  0  0  0  0  0  0  0  0  0
   40.7170   22.3190   36.6630 H   0  0  0  0  0  0  0  0  0  0  0  0
   39.6860   22.3810   38.9300 H   0  0  0  0  0  0  0  0  0  0  0  0
   37.7790   23.9660   39.3450 H   0  0  0  0  0  0  0  0  0  0  0  0
   37.8640   25.5450   35.0840 C   0  0  0  0  0  0  0  0  0  0  0  0
   37.5110   26.8290   35.3340 C   0  0  0  0  0  3  0  0  0  0  0  0
   37.0230   27.6060   34.3200 C   0  0  0  0  0  0  0  0  0  0  0  0
   36.7350   28.6380   34.5050 H   0  0  0  0  0  0  0  0  0  0  0  0
   36.8940   27.0920   33.0680 N   0  0  0  0  0  0  0  0  0  0  0  0
   37.2520   25.8160   32.8490 C   0  0  0  0  0  3  0  0  0  0  0  0
   37.7370   25.0270   33.8390 N   0  0  0  0  0  0  0  0  0  0  0  0
  1  2  1  0  0  0  0
  2  3  2  0  0  0  0
  2  8  1  0  0  0  0
  3  9  1  0  0  0  0
  4  3  1  0  0  0  0
  5  4  2  0  0  0  0
  6  5  1  0  0  0  0
  6  1  2  0  0  0  0
  7  1  1  0  0  0  0
 10 11  1  0  0  0  0
 10  5  1  0  0  0  0
 12 13  1  0  0  0  0
 12 11  2  0  0  0  0
 14 12  1  0  0  0  0
 15 14  2  0  0  0  0
 15 16  1  0  0  0  0
 16 10  2  0  0  0  0
M  END
>  <minimizedAffinity>
-3.71838331

$$$$

 OpenBabel03262520083D

 16 17  0  0  0  0  0  0  0  0999 V2000
   37.9150   23.4170   38.0670 C   0  0  0  0  0  0  0  0  0  0  0  0
   39.3010   23.2560   38.2180 C   0  0  0  0  0  0  0  0  0  0  0  0
   39.9900   22.5810   37.1850 C   0  0  0  0  0  0  0  0  0  0  0  0
   39.2720   22.1340   36.1200 N   0  0  0  0  0  0  0  0  0  0  0  0
   37.9330   22.3120   36.0130 C   0  0  0  0  0  0  0  0  0  0  0  0
   37.2620   22.9570   36.9950 N   0  0  0  0  0  0  0  0  0  0  0  0
   37.4130   23.9450   38.8850 H   0  0  0  0  0  0  0  0  0  0  0  0
   39.8750   23.6100   39.0660 H   0  0  0  0  0  0  0  0  0  0  0  0
   41.0680   22.4040   37.2100 H   0  0  0  0  0  0  0  0  0  0  0  0
   37.2400   21.8010   34.8340 C   0  0  0  0  0  0  0  0  0  0  0  0
   36.1720   20.9710   34.9200 C   0  0  0  0  0  3  0  0  0  0  0  0
   35.5670   20.5260   33.7780 C   0  0  0  0  0  0  0  0  0  0  0  0
   34.7100   19.8590   33.8300 H   0  0  0  0  0  0  0  0  0  0  0  0
   36.0360   20.9160   32.5620 N   0  0  0  0  0  0  0  0  0  0  0  0
   37.0950   21.7400   32.5070 C   0  0  0  0  0  3  0  0  0  0  0  0
   37.7100   22.1920   33.6270 N   0  0  0  0  0  0  0  0  0  0  0  0
  1  2  1  0  0  0  0
  1  7  1  0  0  0  0
  2  8  1  0  0  0  0
  3  9  1  0  0  0  0
  3  2  2  0  0  0  0
  4  3  1  0  0  0  0
  5  4  2  0  0  0  0
  5  6  1  0  0  0  0
  6  1  2  0  0  0  0
 10 11  1  0  0  0  0
 10  5  1  0  0  0  0
 12 13  1  0  0  0  0
 12 11  2  0  0  0  0
 14 12  1  0  0  0  0
 15 14  2  0  0  0  0
 15 16  1  0  0  0  0
 16 10  2  0  0  0  0
M  END
>  <minimizedAffinity>
-3.69421792

$$$$

 OpenBabel03262520083D

 16 17  0  0  0  0  0  0  0  0999 V2000
   39.9660   22.6430   37.3630 C   0  0  0  0  0  0  0  0  0  0  0  0
   39.2420   23.3000   38.3700 C   0  0  0  0  0  0  0  0  0  0  0  0
   37.8530   23.4650   38.1650 C   0  0  0  0  0  0  0  0  0  0  0  0
   37.3120   22.9800   37.0150 N   0  0  0  0  0  0  0  0  0  0  0  0
   38.0480   22.3510   36.0690 C   0  0  0  0  0  0  0  0  0  0  0  0
   39.3790   22.1870   36.2530 N   0  0  0  0  0  0  0  0  0  0  0  0
   41.0390   22.5330   37.5540 H   0  0  0  0  0  0  0  0  0  0  0  0
   39.6700   23.6880   39.2860 H   0  0  0  0  0  0  0  0  0  0  0  0
   37.2030   23.9630   38.8880 H   0  0  0  0  0  0  0  0  0  0  0  0
   37.3860   21.8600   34.8630 C   0  0  0  0  0  0  0  0  0  0  0  0
   37.8430   22.1370   33.6170 C   0  0  0  0  0  3  0  0  0  0  0  0
   37.1770   21.6480   32.5290 C   0  0  0  0  0  0  0  0  0  0  0  0
   37.5310   21.8610   31.5230 H   0  0  0  0  0  0  0  0  0  0  0  0
   36.0620   20.8880   32.6960 N   0  0  0  0  0  0  0  0  0  0  0  0
   35.6320   20.6290   33.9420 C   0  0  0  0  0  3  0  0  0  0  0  0
   36.2770   21.1040   35.0350 N   0  0  0  0  0  0  0  0  0  0  0  0
  1  7  1  0  0  0  0
  1  2  1  0  0  0  0
  2  8  1  0  0  0  0
  3  2  2  0  0  0  0
  3  9  1  0  0  0  0
  4  3  1  0  0  0  0
  5  6  1  0  0  0  0
  5  4  2  0  0  0  0
  6  1  2  0  0  0  0
 10 16  1  0  0  0  0
 10  5  1  0  0  0  0
 11 10  2  0  0  0  0
 12 14  2  0  0  0  0
 12 11  1  0  0  0  0
 13 12  1  0  0  0  0
 14 15  1  0  0  0  0
 15 16  2  0  0  0  0
M  END
>  <minimizedAffinity>
-3.65512538

$$$$

 OpenBabel03262520083D

 16 17  0  0  0  0  0  0  0  0999 V2000
   38.1920   26.3360   32.7640 C   0  0  0  0  0  0  0  0  0  0  0  0
   37.3340   27.4050   33.0670 C   0  0  0  0  0  0  0  0  0  0  0  0
   36.9070   27.5310   34.4090 C   0  0  0  0  0  0  0  0  0  0  0  0
   37.3530   26.6170   35.3120 N   0  0  0  0  0  0  0  0  0  0  0  0
   38.1820   25.6000   34.9770 C   0  0  0  0  0  0  0  0  0  0  0  0
   38.5980   25.4680   33.6950 N   0  0  0  0  0  0  0  0  0  0  0  0
   38.5030   26.2680   31.7150 H   0  0  0  0  0  0  0  0  0  0  0  0
   36.9770   28.1330   32.3490 H   0  0  0  0  0  0  0  0  0  0  0  0
   36.2400   28.3270   34.7450 H   0  0  0  0  0  0  0  0  0  0  0  0
   38.6120   24.6630   36.0100 C   0  0  0  0  0  0  0  0  0  0  0  0
   39.6510   23.8100   35.8350 C   0  0  0  0  0  3  0  0  0  0  0  0
   40.0030   22.9570   36.8420 C   0  0  0  0  0  0  0  0  0  0  0  0
   40.8340   22.2670   36.7160 H   0  0  0  0  0  0  0  0  0  0  0  0
   39.3140   22.9630   38.0140 N   0  0  0  0  0  0  0  0  0  0  0  0
   38.2890   23.8190   38.1610 C   0  0  0  0  0  3  0  0  0  0  0  0
   37.9220   24.6740   37.1750 N   0  0  0  0  0  0  0  0  0  0  0  0
  1  2  2  0  0  0  0
  1  6  1  0  0  0  0
  2  3  1  0  0  0  0
  3  9  1  0  0  0  0
  3  4  2  0  0  0  0
  5  4  1  0  0  0  0
  5 10  1  0  0  0  0
  6  5  2  0  0  0  0
  7  1  1  0  0  0  0
  8  2  1  0  0  0  0
 10 16  1  0  0  0  0
 11 10  2  0  0  0  0
 11 12  1  0  0  0  0
 12 14  2  0  0  0  0
 13 12  1  0  0  0  0
 14 15  1  0  0  0  0
 16 15  2  0  0  0  0
M  END
>  <minimizedAffinity>
-3.51921821

$$$$

 OpenBabel03262520083D

 16 17  0  0  0  0  0  0  0  0999 V2000
   37.1780   25.3480   32.5600 C   0  0  0  0  0  0  0  0  0  0  0  0
   36.3280   26.2150   31.8560 C   0  0  0  0  0  0  0  0  0  0  0  0
   35.3320   25.6270   31.0430 C   0  0  0  0  0  0  0  0  0  0  0  0
   35.2620   24.2690   30.9980 N   0  0  0  0  0  0  0  0  0  0  0  0
   36.1020   23.4680   31.6950 C   0  0  0  0  0  0  0  0  0  0  0  0
   37.0610   24.0200   32.4760 N   0  0  0  0  0  0  0  0  0  0  0  0
   37.9370   25.8380   33.1790 H   0  0  0  0  0  0  0  0  0  0  0  0
   36.3830   27.2970   31.8900 H   0  0  0  0  0  0  0  0  0  0  0  0
   34.6240   26.2150   30.4560 H   0  0  0  0  0  0  0  0  0  0  0  0
   35.9560   22.0190   31.5880 C   0  0  0  0  0  0  0  0  0  0  0  0
   34.9600   21.3400   32.2060 C   0  0  0  0  0  3  0  0  0  0  0  0
   34.8790   19.9830   32.0660 C   0  0  0  0  0  0  0  0  0  0  0  0
   34.0850   19.4230   32.5560 H   0  0  0  0  0  0  0  0  0  0  0  0
   35.7950   19.3190   31.3110 N   0  0  0  0  0  0  0  0  0  0  0  0
   36.7710   20.0180   30.7100 C   0  0  0  0  0  3  0  0  0  0  0  0
   36.8710   21.3640   30.8350 N   0  0  0  0  0  0  0  0  0  0  0  0
  1  7  1  0  0  0  0
  2  8  1  0  0  0  0
  2  1  2  0  0  0  0
  3  2  1  0  0  0  0
  4  3  2  0  0  0  0
  4  5  1  0  0  0  0
  5  6  2  0  0  0  0
  6  1  1  0  0  0  0
  9  3  1  0  0  0  0
 10  5  1  0  0  0  0
 10 11  1  0  0  0  0
 12 11  2  0  0  0  0
 12 13  1  0  0  0  0
 14 12  1  0  0  0  0
 15 16  1  0  0  0  0
 15 14  2  0  0  0  0
 16 10  2  0  0  0  0
M  END
>  <minimizedAffinity>
-3.50692225

$$$$

 OpenBabel03262520083D

 16 17  0  0  0  0  0  0  0  0999 V2000
   37.7070   23.2160   32.5480 C   0  0  0  0  0  0  0  0  0  0  0  0
   37.4320   24.5040   32.0650 C   0  0  0  0  0  0  0  0  0  0  0  0
   37.4940   25.5700   32.9920 C   0  0  0  0  0  0  0  0  0  0  0  0
   37.8150   25.2790   34.2820 N   0  0  0  0  0  0  0  0  0  0  0  0
   38.0750   24.0200   34.7060 C   0  0  0  0  0  0  0  0  0  0  0  0
   38.0180   22.9910   33.8290 N   0  0  0  0  0  0  0  0  0  0  0  0
   37.6490   22.4140   31.8040 H   0  0  0  0  0  0  0  0  0  0  0  0
   37.1750   24.7370   31.0390 H   0  0  0  0  0  0  0  0  0  0  0  0
   37.2970   26.6070   32.7160 H   0  0  0  0  0  0  0  0  0  0  0  0
   38.4120   23.7970   36.1100 C   0  0  0  0  0  0  0  0  0  0  0  0
   37.6960   24.3380   37.1250 C   0  0  0  0  0  3  0  0  0  0  0  0
   38.0640   24.0910   38.4180 C   0  0  0  0  0  0  0  0  0  0  0  0
   37.5000   24.5190   39.2440 H   0  0  0  0  0  0  0  0  0  0  0  0
   39.1430   23.3080   38.6830 N   0  0  0  0  0  0  0  0  0  0  0  0
   39.8340   22.7840   37.6570 C   0  0  0  0  0  3  0  0  0  0  0  0
   39.4870   23.0160   36.3670 N   0  0  0  0  0  0  0  0  0  0  0  0
  1  6  1  0  0  0  0
  2  1  2  0  0  0  0
  2  3  1  0  0  0  0
  3  4  2  0  0  0  0
  4  5  1  0  0  0  0
  5 10  1  0  0  0  0
  6  5  2  0  0  0  0
  7  1  1  0  0  0  0
  8  2  1  0  0  0  0
  9  3  1  0  0  0  0
 10 16  2  0  0  0  0
 10 11  1  0  0  0  0
 11 12  2  0  0  0  0
 12 14  1  0  0  0  0
 12 13  1  0  0  0  0
 15 14  2  0  0  0  0
 16 15  1  0  0  0  0
M  END
>  <minimizedAffinity>
-3.44675899

$$$$

 OpenBabel03262520083D

 16 17  0  0  0  0  0  0  0  0999 V2000
   42.4280   21.1280   34.9800 C   0  0  0  0  0  0  0  0  0  0  0  0
   43.0940   20.4190   35.9920 C   0  0  0  0  0  0  0  0  0  0  0  0
   42.6020   20.5560   37.3100 C   0  0  0  0  0  0  0  0  0  0  0  0
   41.5220   21.3590   37.5100 N   0  0  0  0  0  0  0  0  0  0  0  0
   40.9080   22.0250   36.5040 C   0  0  0  0  0  0  0  0  0  0  0  0
   41.3700   21.9030   35.2380 N   0  0  0  0  0  0  0  0  0  0  0  0
   42.8360   20.9990   33.9720 H   0  0  0  0  0  0  0  0  0  0  0  0
   43.9550   19.7800   35.8340 H   0  0  0  0  0  0  0  0  0  0  0  0
   43.0510   20.0470   38.1650 H   0  0  0  0  0  0  0  0  0  0  0  0
   39.7540   22.8660   36.8090 C   0  0  0  0  0  0  0  0  0  0  0  0
   39.2970   23.0470   38.0720 C   0  0  0  0  0  3  0  0  0  0  0  0
   38.2110   23.8480   38.2900 C   0  0  0  0  0  0  0  0  0  0  0  0
   37.8320   24.0020   39.2980 H   0  0  0  0  0  0  0  0  0  0  0  0
   37.5930   24.4590   37.2440 N   0  0  0  0  0  0  0  0  0  0  0  0
   38.0680   24.2630   36.0040 C   0  0  0  0  0  3  0  0  0  0  0  0
   39.1430   23.4730   35.7640 N   0  0  0  0  0  0  0  0  0  0  0  0
  1  6  2  0  0  0  0
  1  2  1  0  0  0  0
  2  3  2  0  0  0  0
  3  4  1  0  0  0  0
  3  9  1  0  0  0  0
  5 10  1  0  0  0  0
  5  4  2  0  0  0  0
  6  5  1  0  0  0  0
  7  1  1  0  0  0  0
  8  2  1  0  0  0  0
 10 11  1  0  0  0  0
 11 12  2  0  0  0  0
 12 13  1  0  0  0  0
 14 12  1  0  0  0  0
 15 14  2  0  0  0  0
 16 15  1  0  0  0  0
 16 10  2  0  0  0  0
M  END
>  <minimizedAffinity>
-3.43309903

$$$$
