
 OpenBabel03272507453D

 31 33  0  0  0  0  0  0  0  0999 V2000
   35.4430   31.0270   43.8300 N   0  0  0  0  0  0  0  0  0  0  0  0
   35.1090   30.1100   44.8830 C   0  0  0  0  0  0  0  0  0  0  0  0
   35.9170   30.1550   46.1180 C   0  0  0  0  0  0  0  0  0  0  0  0
   37.3380   30.5650   45.9850 C   0  0  0  0  0  0  0  0  0  0  0  0
   37.6070   31.4750   44.8300 C   0  0  0  0  0  0  0  0  0  0  0  0
   36.8600   30.9400   43.5980 C   0  0  0  0  0  0  0  0  0  0  0  0
   35.1240   29.0850   44.4080 H   0  0  0  0  0  0  0  0  0  0  0  0
   34.0420   30.2770   45.1440 H   0  0  0  0  0  0  0  0  0  0  0  0
   35.8660   29.1660   46.6190 H   0  0  0  0  0  0  0  0  0  0  0  0
   35.4380   30.8740   46.8290 H   0  0  0  0  0  0  0  0  0  0  0  0
   37.9590   29.6430   45.8480 H   0  0  0  0  0  0  0  0  0  0  0  0
   37.2630   32.5030   44.9700 H   0  0  0  0  0  0  0  0  0  0  0  0
   38.6900   31.4370   44.5850 H   0  0  0  0  0  0  0  0  0  0  0  0
   37.2120   29.9060   43.4270 H   0  0  0  0  0  0  0  0  0  0  0  0
   37.2140   31.5970   42.7730 H   0  0  0  0  0  0  0  0  0  0  0  0
   34.5360   31.8710   43.1400 C   0  0  0  0  0  0  0  0  0  0  0  0
   34.8880   33.0640   42.5050 C   0  0  0  0  0  0  0  0  0  0  0  0
   33.8890   33.7940   41.8630 C   0  0  0  0  0  0  0  0  0  0  0  0
   32.6130   33.3100   41.8850 N   0  0  0  0  0  0  0  0  0  0  0  0
   32.3190   32.1560   42.5090 C   0  0  0  0  0  0  0  0  0  0  0  0
   33.2680   31.4410   43.1300 N   0  0  0  0  0  0  0  0  0  0  0  0
   35.9280   33.3590   42.5450 H   0  0  0  0  0  0  0  0  0  0  0  0
   34.1710   34.7180   41.3720 H   0  0  0  0  0  0  0  0  0  0  0  0
   31.2870   31.7860   42.5130 H   0  0  0  0  0  0  0  0  0  0  0  0
   37.8000   31.1840   47.2560 C   0  0  0  0  0  0  0  0  0  0  0  0
   37.6510   30.4400   48.4290 C   0  0  0  0  0  3  0  0  0  0  0  0
   38.0990   31.0650   49.5940 C   0  0  0  0  0  0  0  0  0  0  0  0
   37.9840   30.4850   50.5180 H   0  0  0  0  0  0  0  0  0  0  0  0
   38.6480   32.2940   49.6610 N   0  0  0  0  0  0  0  0  0  0  0  0
   38.7630   32.9590   48.4850 C   0  0  0  0  0  3  0  0  0  0  0  0
   38.3540   32.4290   47.3100 N   0  0  0  0  0  0  0  0  0  0  0  0
  1  2  1  0  0  0  0
  2  8  1  0  0  0  0
  2  3  1  0  0  0  0
  3  9  1  0  0  0  0
  3 10  1  0  0  0  0
  4  3  1  0  0  0  0
  4 25  1  0  0  0  0
  5 12  1  0  0  0  0
  5  4  1  0  0  0  0
  6  1  1  0  0  0  0
  6  5  1  0  0  0  0
  7  2  1  0  0  0  0
 11  4  1  0  0  0  0
 13  5  1  0  0  0  0
 14  6  1  0  0  0  0
 15  6  1  0  0  0  0
 16  1  1  0  0  0  0
 17 22  1  0  0  0  0
 17 16  2  0  0  0  0
 18 19  2  0  0  0  0
 18 17  1  0  0  0  0
 19 20  1  0  0  0  0
 20 24  1  0  0  0  0
 20 21  2  0  0  0  0
 21 16  1  0  0  0  0
 23 18  1  0  0  0  0
 25 31  2  0  0  0  0
 25 26  1  0  0  0  0
 26 27  2  0  0  0  0
 27 29  1  0  0  0  0
 27 28  1  0  0  0  0
 30 29  2  0  0  0  0
 31 30  1  0  0  0  0
M  END
>  <minimizedAffinity>
-4.07079315

>  <minimizedRMSD>
5.37308025

$$$$
