
 OpenBabel03272503543D

 42 45  0  0  1  0  0  0  0  0999 V2000
   40.4180   25.4800   34.2890 C   0  0  1  0  0  0  0  0  0  0  0  0
   41.6710   26.3800   34.4660 C   0  0  0  0  0  0  0  0  0  0  0  0
   42.8370   25.4830   34.0340 C   0  0  0  0  0  0  0  0  0  0  0  0
   42.9990   24.4300   35.0770 C   0  0  0  0  0  0  0  0  0  0  0  0
   41.7310   23.6170   35.2000 C   0  0  0  0  0  0  0  0  0  0  0  0
   40.5230   24.4960   35.4150 C   0  0  2  0  0  0  0  0  0  0  0  0
   40.6140   24.9890   33.3200 H   0  0  0  0  0  0  0  0  0  0  0  0
   41.5770   27.2700   33.8420 H   0  0  0  0  0  0  0  0  0  0  0  0
   41.8080   26.6090   35.5410 H   0  0  0  0  0  0  0  0  0  0  0  0
   42.6470   24.9860   33.0780 H   0  0  0  0  0  0  0  0  0  0  0  0
   43.7290   26.1270   34.0530 H   0  0  0  0  0  0  0  0  0  0  0  0
   43.3160   24.8120   36.0610 H   0  0  0  0  0  0  0  0  0  0  0  0
   43.8090   23.7320   34.7430 H   0  0  0  0  0  0  0  0  0  0  0  0
   41.8530   22.9630   36.1110 H   0  0  0  0  0  0  0  0  0  0  0  0
   41.5900   22.9520   34.3250 H   0  0  0  0  0  0  0  0  0  0  0  0
   40.6770   25.0530   36.3640 H   0  0  0  0  0  0  0  0  0  0  0  0
   38.2270   26.2450   33.3290 C   0  0  0  0  0  0  0  0  0  0  0  0
   37.0590   26.9790   33.4610 C   0  0  0  0  0  0  0  0  0  0  0  0
   36.8370   27.7730   34.6030 C   0  0  0  0  0  0  0  0  0  0  0  0
   37.8310   27.7800   35.5640 C   0  0  0  0  0  0  0  0  0  0  0  0
   38.9920   27.0590   35.4430 C   0  0  0  0  0  0  0  0  0  0  0  0
   39.1860   26.2750   34.2950 C   0  0  0  0  0  0  0  0  0  0  0  0
   36.2790   26.9670   32.6940 H   0  0  0  0  0  0  0  0  0  0  0  0
   35.9110   28.3170   34.6450 H   0  0  0  0  0  0  0  0  0  0  0  0
   37.5890   28.4160   36.4150 H   0  0  0  0  0  0  0  0  0  0  0  0
   39.6810   27.1560   36.2640 H   0  0  0  0  0  0  0  0  0  0  0  0
   39.2060   25.0080   29.8900 C   0  0  0  0  0  0  0  0  0  0  0  0
   39.1750   25.8350   31.0350 C   0  0  0  0  0  0  0  0  0  0  0  0
   38.3440   25.4870   32.0990 C   0  0  0  0  0  0  0  0  0  0  0  0
   37.6190   24.3640   31.9450 N   0  0  0  0  0  0  0  0  0  0  0  0
   37.6490   23.5780   30.8550 C   0  0  0  0  0  0  0  0  0  0  0  0
   38.4350   23.9010   29.8390 N   0  0  0  0  0  0  0  0  0  0  0  0
   39.8820   25.3680   29.1230 H   0  0  0  0  0  0  0  0  0  0  0  0
   39.7610   26.7190   31.1280 H   0  0  0  0  0  0  0  0  0  0  0  0
   37.0530   22.6810   30.7640 H   0  0  0  0  0  0  0  0  0  0  0  0
   39.3370   23.6240   35.5740 C   0  0  0  0  0  0  0  0  0  0  0  0
   38.5940   23.7100   36.7350 C   0  0  0  0  0  3  0  0  0  0  0  0
   37.4880   22.8980   36.8840 C   0  0  0  0  0  0  0  0  0  0  0  0
   36.9040   22.9630   37.7940 H   0  0  0  0  0  0  0  0  0  0  0  0
   37.1550   22.0390   35.8930 N   0  0  0  0  0  0  0  0  0  0  0  0
   37.8780   21.9550   34.7610 C   0  0  0  0  0  3  0  0  0  0  0  0
   38.9620   22.7440   34.6050 N   0  0  0  0  0  0  0  0  0  0  0  0
  1  7  1  6  0  0  0
  1 22  1  0  0  0  0
  1  2  1  0  0  0  0
  1  6  1  0  0  0  0
  2  9  1  0  0  0  0
  3 11  1  0  0  0  0
  3  2  1  0  0  0  0
  3  4  1  0  0  0  0
  4  5  1  0  0  0  0
  4 12  1  0  0  0  0
  5  6  1  0  0  0  0
  5 14  1  0  0  0  0
  6 36  1  0  0  0  0
  6 16  1  1  0  0  0
  8  2  1  0  0  0  0
 10  3  1  0  0  0  0
 13  4  1  0  0  0  0
 15  5  1  0  0  0  0
 17 18  2  0  0  0  0
 17 22  1  0  0  0  0
 18 19  1  0  0  0  0
 19 24  1  0  0  0  0
 19 20  2  0  0  0  0
 20 25  1  0  0  0  0
 21 20  1  0  0  0  0
 21 26  1  0  0  0  0
 22 21  2  0  0  0  0
 23 18  1  0  0  0  0
 27 28  1  0  0  0  0
 28 34  1  0  0  0  0
 28 29  2  0  0  0  0
 29 17  1  0  0  0  0
 30 29  1  0  0  0  0
 31 30  2  0  0  0  0
 32 27  2  0  0  0  0
 32 31  1  0  0  0  0
 33 27  1  0  0  0  0
 35 31  1  0  0  0  0
 36 37  1  0  0  0  0
 37 38  2  0  0  0  0
 38 39  1  0  0  0  0
 40 38  1  0  0  0  0
 41 40  2  0  0  0  0
 42 41  1  0  0  0  0
 42 36  2  0  0  0  0
M  END
>  <minimizedAffinity>
-5.57032156

$$$$

 OpenBabel03272503543D

 42 45  0  0  1  0  0  0  0  0999 V2000
   38.1280   26.4760   33.1740 C   0  0  1  0  0  0  0  0  0  0  0  0
   38.1720   26.0000   34.6520 C   0  0  0  0  0  0  0  0  0  0  0  0
   39.0430   27.0490   35.3540 C   0  0  0  0  0  0  0  0  0  0  0  0
   40.4420   26.8590   34.8730 C   0  0  0  0  0  0  0  0  0  0  0  0
   40.5070   27.0440   33.3740 C   0  0  0  0  0  0  0  0  0  0  0  0
   39.5030   26.1720   32.6600 C   0  0  2  0  0  0  0  0  0  0  0  0
   37.9810   27.5640   33.2800 H   0  0  0  0  0  0  0  0  0  0  0  0
   37.1600   25.9600   35.0570 H   0  0  0  0  0  0  0  0  0  0  0  0
   38.7070   25.0310   34.7080 H   0  0  0  0  0  0  0  0  0  0  0  0
   38.7370   28.0710   35.1140 H   0  0  0  0  0  0  0  0  0  0  0  0
   39.0090   26.7920   36.4240 H   0  0  0  0  0  0  0  0  0  0  0  0
   40.8980   25.9020   35.1700 H   0  0  0  0  0  0  0  0  0  0  0  0
   41.0780   27.6590   35.3320 H   0  0  0  0  0  0  0  0  0  0  0  0
   41.5390   26.7200   33.0530 H   0  0  0  0  0  0  0  0  0  0  0  0
   40.3840   28.1080   33.0910 H   0  0  0  0  0  0  0  0  0  0  0  0
   39.7470   25.1150   32.8960 H   0  0  0  0  0  0  0  0  0  0  0  0
   36.1000   26.4530   31.6940 C   0  0  0  0  0  0  0  0  0  0  0  0
   35.1620   25.7370   30.9670 C   0  0  0  0  0  0  0  0  0  0  0  0
   35.1700   24.3280   30.9780 C   0  0  0  0  0  0  0  0  0  0  0  0
   36.1460   23.7140   31.7410 C   0  0  0  0  0  0  0  0  0  0  0  0
   37.0780   24.4130   32.4650 C   0  0  0  0  0  0  0  0  0  0  0  0
   37.0470   25.8160   32.4340 C   0  0  0  0  0  0  0  0  0  0  0  0
   34.3930   26.2330   30.3670 H   0  0  0  0  0  0  0  0  0  0  0  0
   34.4170   23.8320   30.3940 H   0  0  0  0  0  0  0  0  0  0  0  0
   36.0890   22.6260   31.7010 H   0  0  0  0  0  0  0  0  0  0  0  0
   37.7790   23.8090   33.0150 H   0  0  0  0  0  0  0  0  0  0  0  0
   35.3220   30.0860   32.4120 C   0  0  0  0  0  0  0  0  0  0  0  0
   35.3830   28.6870   32.6010 C   0  0  0  0  0  0  0  0  0  0  0  0
   35.9700   27.8950   31.6150 C   0  0  0  0  0  0  0  0  0  0  0  0
   36.4440   28.5430   30.5360 N   0  0  0  0  0  0  0  0  0  0  0  0
   36.3860   29.8730   30.3570 C   0  0  0  0  0  0  0  0  0  0  0  0
   35.8300   30.6340   31.2870 N   0  0  0  0  0  0  0  0  0  0  0  0
   34.8470   30.6070   33.2340 H   0  0  0  0  0  0  0  0  0  0  0  0
   34.9980   28.2020   33.4690 H   0  0  0  0  0  0  0  0  0  0  0  0
   36.7770   30.3620   29.4750 H   0  0  0  0  0  0  0  0  0  0  0  0
   39.6660   26.3740   31.2020 C   0  0  0  0  0  0  0  0  0  0  0  0
   39.7360   27.6610   30.7080 C   0  0  0  0  0  3  0  0  0  0  0  0
   39.8890   27.8500   29.3490 C   0  0  0  0  0  0  0  0  0  0  0  0
   39.9440   28.8590   28.9590 H   0  0  0  0  0  0  0  0  0  0  0  0
   39.9660   26.7740   28.5330 N   0  0  0  0  0  0  0  0  0  0  0  0
   39.8980   25.5180   29.0140 C   0  0  0  0  0  3  0  0  0  0  0  0
   39.7490   25.3230   30.3400 N   0  0  0  0  0  0  0  0  0  0  0  0
  1  7  1  6  0  0  0
  1  2  1  0  0  0  0
  2  9  1  0  0  0  0
  2  8  1  0  0  0  0
  2  3  1  0  0  0  0
  3 11  1  0  0  0  0
  4 12  1  0  0  0  0
  4 13  1  0  0  0  0
  4  3  1  0  0  0  0
  5  4  1  0  0  0  0
  6 16  1  1  0  0  0
  6  1  1  0  0  0  0
  6  5  1  0  0  0  0
 10  3  1  0  0  0  0
 14  5  1  0  0  0  0
 15  5  1  0  0  0  0
 17 22  1  0  0  0  0
 18 19  1  0  0  0  0
 18 17  2  0  0  0  0
 19 20  2  0  0  0  0
 20 21  1  0  0  0  0
 21 26  1  0  0  0  0
 22 21  2  0  0  0  0
 22  1  1  0  0  0  0
 23 18  1  0  0  0  0
 24 19  1  0  0  0  0
 25 20  1  0  0  0  0
 27 28  1  0  0  0  0
 27 33  1  0  0  0  0
 28 34  1  0  0  0  0
 29 17  1  0  0  0  0
 29 28  2  0  0  0  0
 30 29  1  0  0  0  0
 31 30  2  0  0  0  0
 31 32  1  0  0  0  0
 32 27  2  0  0  0  0
 35 31  1  0  0  0  0
 36  6  1  0  0  0  0
 37 36  1  0  0  0  0
 38 37  2  0  0  0  0
 39 38  1  0  0  0  0
 40 41  2  0  0  0  0
 40 38  1  0  0  0  0
 41 42  1  0  0  0  0
 42 36  2  0  0  0  0
M  END
>  <minimizedAffinity>
-5.48636961

$$$$

 OpenBabel03272503543D

 42 45  0  0  1  0  0  0  0  0999 V2000
   38.8550   23.7930   33.5230 C   0  0  1  0  0  0  0  0  0  0  0  0
   38.9630   23.1850   32.0990 C   0  0  0  0  0  0  0  0  0  0  0  0
   37.5540   22.6520   31.8140 C   0  0  0  0  0  0  0  0  0  0  0  0
   37.3390   21.4690   32.6950 C   0  0  0  0  0  0  0  0  0  0  0  0
   37.4620   21.8700   34.1470 C   0  0  0  0  0  0  0  0  0  0  0  0
   38.7590   22.5940   34.4170 C   0  0  2  0  0  0  0  0  0  0  0  0
   37.8900   24.3270   33.4800 H   0  0  0  0  0  0  0  0  0  0  0  0
   39.2690   23.9560   31.3900 H   0  0  0  0  0  0  0  0  0  0  0  0
   39.6490   22.3140   32.1240 H   0  0  0  0  0  0  0  0  0  0  0  0
   36.7770   23.3890   32.0400 H   0  0  0  0  0  0  0  0  0  0  0  0
   37.5750   22.3040   30.7700 H   0  0  0  0  0  0  0  0  0  0  0  0
   37.9910   20.6100   32.4690 H   0  0  0  0  0  0  0  0  0  0  0  0
   36.2900   21.1070   32.5410 H   0  0  0  0  0  0  0  0  0  0  0  0
   37.4640   20.9160   34.7480 H   0  0  0  0  0  0  0  0  0  0  0  0
   36.5930   22.4740   34.4760 H   0  0  0  0  0  0  0  0  0  0  0  0
   39.5900   21.8980   34.1730 H   0  0  0  0  0  0  0  0  0  0  0  0
   39.9090   26.0160   34.0260 C   0  0  0  0  0  0  0  0  0  0  0  0
   41.0310   26.7520   34.3700 C   0  0  0  0  0  0  0  0  0  0  0  0
   42.2850   26.1260   34.5090 C   0  0  0  0  0  0  0  0  0  0  0  0
   42.3310   24.7620   34.2860 C   0  0  0  0  0  0  0  0  0  0  0  0
   41.2270   24.0230   33.9450 C   0  0  0  0  0  0  0  0  0  0  0  0
   39.9900   24.6740   33.8140 C   0  0  0  0  0  0  0  0  0  0  0  0
   40.9830   27.8320   34.5430 H   0  0  0  0  0  0  0  0  0  0  0  0
   43.1150   26.7530   34.7780 H   0  0  0  0  0  0  0  0  0  0  0  0
   43.3320   24.3490   34.4120 H   0  0  0  0  0  0  0  0  0  0  0  0
   41.4050   22.9720   33.8000 H   0  0  0  0  0  0  0  0  0  0  0  0
   36.6910   27.8870   34.7030 C   0  0  0  0  0  0  0  0  0  0  0  0
   37.8550   27.1300   34.9590 C   0  0  0  0  0  0  0  0  0  0  0  0
   38.6850   26.7820   33.8940 C   0  0  0  0  0  0  0  0  0  0  0  0
   38.2980   27.2040   32.6770 N   0  0  0  0  0  0  0  0  0  0  0  0
   37.1900   27.9240   32.4340 C   0  0  0  0  0  0  0  0  0  0  0  0
   36.3960   28.2590   33.4390 N   0  0  0  0  0  0  0  0  0  0  0  0
   36.1180   28.1030   35.5970 H   0  0  0  0  0  0  0  0  0  0  0  0
   38.1350   26.8100   35.9360 H   0  0  0  0  0  0  0  0  0  0  0  0
   36.9090   28.2470   31.4410 H   0  0  0  0  0  0  0  0  0  0  0  0
   38.8240   22.9060   35.8630 C   0  0  0  0  0  0  0  0  0  0  0  0
   37.8300   23.6820   36.4270 C   0  0  0  0  0  3  0  0  0  0  0  0
   37.8900   23.9730   37.7750 C   0  0  0  0  0  0  0  0  0  0  0  0
   37.1110   24.5820   38.2180 H   0  0  0  0  0  0  0  0  0  0  0  0
   38.9160   23.4930   38.5130 N   0  0  0  0  0  0  0  0  0  0  0  0
   39.8860   22.7360   37.9660 C   0  0  0  0  0  3  0  0  0  0  0  0
   39.8370   22.4460   36.6490 N   0  0  0  0  0  0  0  0  0  0  0  0
  1  7  1  1  0  0  0
  1 22  1  0  0  0  0
  1  6  1  0  0  0  0
  2  9  1  0  0  0  0
  2  1  1  0  0  0  0
  3 10  1  0  0  0  0
  3  2  1  0  0  0  0
  3  4  1  0  0  0  0
  4  5  1  0  0  0  0
  5  6  1  0  0  0  0
  5 15  1  0  0  0  0
  5 14  1  0  0  0  0
  6 16  1  6  0  0  0
  6 36  1  0  0  0  0
  8  2  1  0  0  0  0
 11  3  1  0  0  0  0
 12  4  1  0  0  0  0
 13  4  1  0  0  0  0
 17 18  1  0  0  0  0
 18 19  2  0  0  0  0
 18 23  1  0  0  0  0
 19 24  1  0  0  0  0
 20 25  1  0  0  0  0
 20 19  1  0  0  0  0
 21 20  2  0  0  0  0
 22 21  1  0  0  0  0
 22 17  2  0  0  0  0
 26 21  1  0  0  0  0
 27 28  1  0  0  0  0
 27 33  1  0  0  0  0
 28 34  1  0  0  0  0
 29 17  1  0  0  0  0
 29 28  2  0  0  0  0
 30 29  1  0  0  0  0
 31 30  2  0  0  0  0
 31 32  1  0  0  0  0
 32 27  2  0  0  0  0
 35 31  1  0  0  0  0
 36 37  2  0  0  0  0
 36 42  1  0  0  0  0
 37 38  1  0  0  0  0
 38 39  1  0  0  0  0
 38 40  2  0  0  0  0
 41 40  1  0  0  0  0
 42 41  2  0  0  0  0
M  END
>  <minimizedAffinity>
-5.42032051

$$$$

 OpenBabel03272503543D

 42 45  0  0  1  0  0  0  0  0999 V2000
   39.3890   25.3900   32.5620 C   0  0  1  0  0  0  0  0  0  0  0  0
   39.5820   26.6080   31.6170 C   0  0  0  0  0  0  0  0  0  0  0  0
   41.0630   26.9730   31.7800 C   0  0  0  0  0  0  0  0  0  0  0  0
   41.2320   27.5470   33.1460 C   0  0  0  0  0  0  0  0  0  0  0  0
   40.8250   26.5330   34.1920 C   0  0  0  0  0  0  0  0  0  0  0  0
   39.4400   25.9910   33.9340 C   0  0  2  0  0  0  0  0  0  0  0  0
   40.2940   24.7910   32.3630 H   0  0  0  0  0  0  0  0  0  0  0  0
   39.3330   26.3240   30.5940 H   0  0  0  0  0  0  0  0  0  0  0  0
   38.9850   27.4620   31.9950 H   0  0  0  0  0  0  0  0  0  0  0  0
   41.7180   26.1010   31.6950 H   0  0  0  0  0  0  0  0  0  0  0  0
   41.2520   27.7710   31.0460 H   0  0  0  0  0  0  0  0  0  0  0  0
   40.7090   28.5040   33.3040 H   0  0  0  0  0  0  0  0  0  0  0  0
   42.3200   27.7610   33.3000 H   0  0  0  0  0  0  0  0  0  0  0  0
   40.8080   27.0770   35.1800 H   0  0  0  0  0  0  0  0  0  0  0  0
   41.5660   25.7130   34.2710 H   0  0  0  0  0  0  0  0  0  0  0  0
   38.7310   26.8450   33.9780 H   0  0  0  0  0  0  0  0  0  0  0  0
   36.9490   25.2640   31.9820 C   0  0  0  0  0  0  0  0  0  0  0  0
   35.8440   24.5030   31.6350 C   0  0  0  0  0  0  0  0  0  0  0  0
   35.9340   23.1000   31.5640 C   0  0  0  0  0  0  0  0  0  0  0  0
   37.1630   22.5360   31.8550 C   0  0  0  0  0  0  0  0  0  0  0  0
   38.2630   23.2780   32.2000 C   0  0  0  0  0  0  0  0  0  0  0  0
   38.1440   24.6750   32.2620 C   0  0  0  0  0  0  0  0  0  0  0  0
   34.8760   24.9600   31.4080 H   0  0  0  0  0  0  0  0  0  0  0  0
   35.0420   22.5680   31.2890 H   0  0  0  0  0  0  0  0  0  0  0  0
   37.1550   21.4480   31.7790 H   0  0  0  0  0  0  0  0  0  0  0  0
   39.1550   22.7110   32.4010 H   0  0  0  0  0  0  0  0  0  0  0  0
   36.3080   28.8060   33.1460 C   0  0  0  0  0  0  0  0  0  0  0  0
   36.5140   27.4110   33.2190 C   0  0  0  0  0  0  0  0  0  0  0  0
   36.7200   26.6940   32.0410 C   0  0  0  0  0  0  0  0  0  0  0  0
   36.7040   27.4080   30.9000 N   0  0  0  0  0  0  0  0  0  0  0  0
   36.5080   28.7360   30.8320 C   0  0  0  0  0  0  0  0  0  0  0  0
   36.3110   29.4250   31.9460 N   0  0  0  0  0  0  0  0  0  0  0  0
   36.1580   29.2660   34.1160 H   0  0  0  0  0  0  0  0  0  0  0  0
   36.5210   26.8730   34.1390 H   0  0  0  0  0  0  0  0  0  0  0  0
   36.5010   29.2780   29.8980 H   0  0  0  0  0  0  0  0  0  0  0  0
   39.1010   25.0490   35.0250 C   0  0  0  0  0  0  0  0  0  0  0  0
   37.9610   25.2720   35.7730 C   0  0  0  0  0  3  0  0  0  0  0  0
   37.6440   24.3930   36.7880 C   0  0  0  0  0  0  0  0  0  0  0  0
   36.7510   24.5660   37.3760 H   0  0  0  0  0  0  0  0  0  0  0  0
   38.4520   23.3350   37.0290 N   0  0  0  0  0  0  0  0  0  0  0  0
   39.5630   23.1160   36.3010 C   0  0  0  0  0  3  0  0  0  0  0  0
   39.8820   23.9690   35.3050 N   0  0  0  0  0  0  0  0  0  0  0  0
  1  7  1  6  0  0  0
  1  6  1  0  0  0  0
  2  3  1  0  0  0  0
  2  9  1  0  0  0  0
  2  1  1  0  0  0  0
  3  4  1  0  0  0  0
  4 13  1  0  0  0  0
  4 12  1  0  0  0  0
  4  5  1  0  0  0  0
  5 15  1  0  0  0  0
  5 14  1  0  0  0  0
  6 16  1  1  0  0  0
  6  5  1  0  0  0  0
  6 36  1  0  0  0  0
  8  2  1  0  0  0  0
 10  3  1  0  0  0  0
 11  3  1  0  0  0  0
 17 29  1  0  0  0  0
 17 22  1  0  0  0  0
 18 17  2  0  0  0  0
 19 18  1  0  0  0  0
 19 20  2  0  0  0  0
 20 21  1  0  0  0  0
 21 22  2  0  0  0  0
 21 26  1  0  0  0  0
 22  1  1  0  0  0  0
 23 18  1  0  0  0  0
 24 19  1  0  0  0  0
 25 20  1  0  0  0  0
 27 28  1  0  0  0  0
 27 33  1  0  0  0  0
 28 34  1  0  0  0  0
 29 28  2  0  0  0  0
 30 29  1  0  0  0  0
 31 30  2  0  0  0  0
 31 32  1  0  0  0  0
 32 27  2  0  0  0  0
 35 31  1  0  0  0  0
 36 42  2  0  0  0  0
 36 37  1  0  0  0  0
 37 38  2  0  0  0  0
 38 40  1  0  0  0  0
 38 39  1  0  0  0  0
 41 40  2  0  0  0  0
 42 41  1  0  0  0  0
M  END
>  <minimizedAffinity>
-5.37687302

$$$$

 OpenBabel03272503543D

 42 45  0  0  1  0  0  0  0  0999 V2000
   40.6500   24.8260   33.9360 C   0  0  1  0  0  0  0  0  0  0  0  0
   42.0010   24.3950   33.3030 C   0  0  0  0  0  0  0  0  0  0  0  0
   43.0550   25.1230   34.1460 C   0  0  0  0  0  0  0  0  0  0  0  0
   42.9550   26.5760   33.8270 C   0  0  0  0  0  0  0  0  0  0  0  0
   41.5730   27.0900   34.1610 C   0  0  0  0  0  0  0  0  0  0  0  0
   40.4960   26.2560   33.5110 C   0  0  2  0  0  0  0  0  0  0  0  0
   40.8630   24.7600   35.0170 H   0  0  0  0  0  0  0  0  0  0  0  0
   42.1030   23.3110   33.3530 H   0  0  0  0  0  0  0  0  0  0  0  0
   42.0650   24.7960   32.2720 H   0  0  0  0  0  0  0  0  0  0  0  0
   42.8870   24.9990   35.2200 H   0  0  0  0  0  0  0  0  0  0  0  0
   44.0270   24.7570   33.7830 H   0  0  0  0  0  0  0  0  0  0  0  0
   43.2290   26.8330   32.7910 H   0  0  0  0  0  0  0  0  0  0  0  0
   43.6790   27.1260   34.4820 H   0  0  0  0  0  0  0  0  0  0  0  0
   41.5060   28.1340   33.7410 H   0  0  0  0  0  0  0  0  0  0  0  0
   41.4200   27.1570   35.2560 H   0  0  0  0  0  0  0  0  0  0  0  0
   40.6380   26.3190   32.4120 H   0  0  0  0  0  0  0  0  0  0  0  0
   38.6770   23.3260   34.3400 C   0  0  0  0  0  0  0  0  0  0  0  0
   37.6280   22.5750   33.8360 C   0  0  0  0  0  0  0  0  0  0  0  0
   37.4480   22.4380   32.4460 C   0  0  0  0  0  0  0  0  0  0  0  0
   38.3600   23.0820   31.6300 C   0  0  0  0  0  0  0  0  0  0  0  0
   39.4020   23.8280   32.1180 C   0  0  0  0  0  0  0  0  0  0  0  0
   39.5570   23.9480   33.5080 C   0  0  0  0  0  0  0  0  0  0  0  0
   36.9120   22.0680   34.4900 H   0  0  0  0  0  0  0  0  0  0  0  0
   36.6160   21.8420   32.1190 H   0  0  0  0  0  0  0  0  0  0  0  0
   38.1570   22.9310   30.5700 H   0  0  0  0  0  0  0  0  0  0  0  0
   40.0370   24.2740   31.3720 H   0  0  0  0  0  0  0  0  0  0  0  0
   38.0430   23.9970   38.0100 C   0  0  0  0  0  0  0  0  0  0  0  0
   37.8540   24.0320   36.6110 C   0  0  0  0  0  0  0  0  0  0  0  0
   38.7640   23.3710   35.7870 C   0  0  0  0  0  0  0  0  0  0  0  0
   39.7760   22.7370   36.4070 N   0  0  0  0  0  0  0  0  0  0  0  0
   39.9550   22.7040   37.7390 C   0  0  0  0  0  0  0  0  0  0  0  0
   39.0960   23.3290   38.5290 N   0  0  0  0  0  0  0  0  0  0  0  0
   37.2820   24.5420   38.5560 H   0  0  0  0  0  0  0  0  0  0  0  0
   37.0420   24.5440   36.1480 H   0  0  0  0  0  0  0  0  0  0  0  0
   40.7800   22.1840   38.2050 H   0  0  0  0  0  0  0  0  0  0  0  0
   39.1820   26.8520   33.8450 C   0  0  0  0  0  0  0  0  0  0  0  0
   38.8990   27.1530   35.1630 C   0  0  0  0  0  3  0  0  0  0  0  0
   37.6750   27.7090   35.4750 C   0  0  0  0  0  0  0  0  0  0  0  0
   37.4500   27.9450   36.5080 H   0  0  0  0  0  0  0  0  0  0  0  0
   36.7820   27.9480   34.4870 N   0  0  0  0  0  0  0  0  0  0  0  0
   37.0570   27.6560   33.2020 C   0  0  0  0  0  3  0  0  0  0  0  0
   38.2510   27.1110   32.8860 N   0  0  0  0  0  0  0  0  0  0  0  0
  1  7  1  1  0  0  0
  2  8  1  0  0  0  0
  2  1  1  0  0  0  0
  2  3  1  0  0  0  0
  3 10  1  0  0  0  0
  4  3  1  0  0  0  0
  4  5  1  0  0  0  0
  4 13  1  0  0  0  0
  5 15  1  0  0  0  0
  6 16  1  6  0  0  0
  6 36  1  0  0  0  0
  6  1  1  0  0  0  0
  6  5  1  0  0  0  0
  9  2  1  0  0  0  0
 11  3  1  0  0  0  0
 12  4  1  0  0  0  0
 14  5  1  0  0  0  0
 17 29  1  0  0  0  0
 18 17  1  0  0  0  0
 18 23  1  0  0  0  0
 19 18  2  0  0  0  0
 20 21  2  0  0  0  0
 20 19  1  0  0  0  0
 21 22  1  0  0  0  0
 22  1  1  0  0  0  0
 22 17  2  0  0  0  0
 24 19  1  0  0  0  0
 25 20  1  0  0  0  0
 26 21  1  0  0  0  0
 27 32  1  0  0  0  0
 27 33  1  0  0  0  0
 28 27  2  0  0  0  0
 29 30  2  0  0  0  0
 29 28  1  0  0  0  0
 30 31  1  0  0  0  0
 31 35  1  0  0  0  0
 31 32  2  0  0  0  0
 34 28  1  0  0  0  0
 36 37  1  0  0  0  0
 37 38  2  0  0  0  0
 38 39  1  0  0  0  0
 40 38  1  0  0  0  0
 41 40  2  0  0  0  0
 42 41  1  0  0  0  0
 42 36  2  0  0  0  0
M  END
>  <minimizedAffinity>
-5.36876965

$$$$

 OpenBabel03272503543D

 42 45  0  0  1  0  0  0  0  0999 V2000
   38.4520   24.9560   32.0740 C   0  0  1  0  0  0  0  0  0  0  0  0
   38.5980   23.4900   32.5660 C   0  0  0  0  0  0  0  0  0  0  0  0
   37.7250   22.6840   31.5960 C   0  0  0  0  0  0  0  0  0  0  0  0
   36.3030   23.0230   31.8900 C   0  0  0  0  0  0  0  0  0  0  0  0
   36.0690   24.5040   31.6970 C   0  0  0  0  0  0  0  0  0  0  0  0
   37.0590   25.3310   32.4810 C   0  0  2  0  0  0  0  0  0  0  0  0
   38.5250   24.8460   30.9780 H   0  0  0  0  0  0  0  0  0  0  0  0
   39.6460   23.1910   32.5300 H   0  0  0  0  0  0  0  0  0  0  0  0
   38.1480   23.3950   33.5740 H   0  0  0  0  0  0  0  0  0  0  0  0
   37.9240   22.9360   30.5500 H   0  0  0  0  0  0  0  0  0  0  0  0
   37.8890   21.6280   31.8590 H   0  0  0  0  0  0  0  0  0  0  0  0
   35.9560   22.6970   32.8840 H   0  0  0  0  0  0  0  0  0  0  0  0
   35.6580   22.4870   31.1480 H   0  0  0  0  0  0  0  0  0  0  0  0
   35.0380   24.7230   32.0980 H   0  0  0  0  0  0  0  0  0  0  0  0
   36.0790   24.7790   30.6240 H   0  0  0  0  0  0  0  0  0  0  0  0
   36.9230   25.0910   33.5560 H   0  0  0  0  0  0  0  0  0  0  0  0
   39.9120   25.7960   33.9370 C   0  0  0  0  0  0  0  0  0  0  0  0
   40.9620   26.5930   34.3610 C   0  0  0  0  0  0  0  0  0  0  0  0
   41.6290   27.4420   33.4560 C   0  0  0  0  0  0  0  0  0  0  0  0
   41.1820   27.4350   32.1470 C   0  0  0  0  0  0  0  0  0  0  0  0
   40.1430   26.6510   31.7160 C   0  0  0  0  0  0  0  0  0  0  0  0
   39.4980   25.8130   32.6400 C   0  0  0  0  0  0  0  0  0  0  0  0
   41.3070   26.5920   35.3990 H   0  0  0  0  0  0  0  0  0  0  0  0
   42.4350   28.0350   33.8470 H   0  0  0  0  0  0  0  0  0  0  0  0
   41.7440   28.1150   31.5070 H   0  0  0  0  0  0  0  0  0  0  0  0
   39.8980   26.7440   30.6720 H   0  0  0  0  0  0  0  0  0  0  0  0
   37.6550   24.4730   36.6710 C   0  0  0  0  0  0  0  0  0  0  0  0
   38.1640   25.3550   35.6920 C   0  0  0  0  0  0  0  0  0  0  0  0
   39.2980   24.9840   34.9700 C   0  0  0  0  0  0  0  0  0  0  0  0
   39.8290   23.7860   35.2710 N   0  0  0  0  0  0  0  0  0  0  0  0
   39.3430   22.9470   36.2020 C   0  0  0  0  0  0  0  0  0  0  0  0
   38.2680   23.2900   36.8930 N   0  0  0  0  0  0  0  0  0  0  0  0
   36.7750   24.8570   37.1730 H   0  0  0  0  0  0  0  0  0  0  0  0
   37.7210   26.3000   35.4760 H   0  0  0  0  0  0  0  0  0  0  0  0
   39.7950   21.9890   36.4190 H   0  0  0  0  0  0  0  0  0  0  0  0
   36.7310   26.7610   32.2780 C   0  0  0  0  0  0  0  0  0  0  0  0
   36.5280   27.5650   33.3830 C   0  0  0  0  0  3  0  0  0  0  0  0
   36.2220   28.8980   33.1960 C   0  0  0  0  0  0  0  0  0  0  0  0
   36.0620   29.5290   34.0610 H   0  0  0  0  0  0  0  0  0  0  0  0
   36.1300   29.3880   31.9380 N   0  0  0  0  0  0  0  0  0  0  0  0
   36.3290   28.6060   30.8600 C   0  0  0  0  0  3  0  0  0  0  0  0
   36.6280   27.3010   31.0320 N   0  0  0  0  0  0  0  0  0  0  0  0
  1  7  1  6  0  0  0
  1  6  1  0  0  0  0
  1  2  1  0  0  0  0
  1 22  1  0  0  0  0
  2  9  1  0  0  0  0
  3 11  1  0  0  0  0
  3  4  1  0  0  0  0
  3  2  1  0  0  0  0
  4 12  1  0  0  0  0
  5  4  1  0  0  0  0
  5 14  1  0  0  0  0
  5  6  1  0  0  0  0
  6 16  1  1  0  0  0
  8  2  1  0  0  0  0
 10  3  1  0  0  0  0
 13  4  1  0  0  0  0
 15  5  1  0  0  0  0
 17 18  1  0  0  0  0
 17 29  1  0  0  0  0
 18 23  1  0  0  0  0
 19 24  1  0  0  0  0
 19 18  2  0  0  0  0
 20 19  1  0  0  0  0
 21 20  2  0  0  0  0
 21 22  1  0  0  0  0
 22 17  2  0  0  0  0
 25 20  1  0  0  0  0
 26 21  1  0  0  0  0
 27 32  1  0  0  0  0
 27 33  1  0  0  0  0
 28 27  2  0  0  0  0
 29 30  2  0  0  0  0
 29 28  1  0  0  0  0
 30 31  1  0  0  0  0
 31 35  1  0  0  0  0
 31 32  2  0  0  0  0
 34 28  1  0  0  0  0
 36  6  1  0  0  0  0
 36 37  1  0  0  0  0
 38 37  2  0  0  0  0
 38 39  1  0  0  0  0
 40 38  1  0  0  0  0
 41 42  1  0  0  0  0
 41 40  2  0  0  0  0
 42 36  2  0  0  0  0
M  END
>  <minimizedAffinity>
-5.35455275

$$$$

 OpenBabel03272503543D

 42 45  0  0  1  0  0  0  0  0999 V2000
   38.4890   26.6510   34.1080 C   0  0  1  0  0  0  0  0  0  0  0  0
   38.1490   27.8830   34.9900 C   0  0  0  0  0  0  0  0  0  0  0  0
   36.6200   27.9800   34.9200 C   0  0  0  0  0  0  0  0  0  0  0  0
   36.2650   28.4170   33.5390 C   0  0  0  0  0  0  0  0  0  0  0  0
   36.7730   27.4150   32.5280 C   0  0  0  0  0  0  0  0  0  0  0  0
   38.2450   27.1360   32.7100 C   0  0  2  0  0  0  0  0  0  0  0  0
   37.7180   25.9230   34.4110 H   0  0  0  0  0  0  0  0  0  0  0  0
   38.5100   27.7200   36.0070 H   0  0  0  0  0  0  0  0  0  0  0  0
   38.5620   28.7970   34.5190 H   0  0  0  0  0  0  0  0  0  0  0  0
   36.1340   27.0170   35.1070 H   0  0  0  0  0  0  0  0  0  0  0  0
   36.3420   28.7840   35.6180 H   0  0  0  0  0  0  0  0  0  0  0  0
   36.6010   29.4350   33.2850 H   0  0  0  0  0  0  0  0  0  0  0  0
   35.1480   28.4320   33.4570 H   0  0  0  0  0  0  0  0  0  0  0  0
   36.6300   27.8810   31.5110 H   0  0  0  0  0  0  0  0  0  0  0  0
   36.1830   26.4780   32.5540 H   0  0  0  0  0  0  0  0  0  0  0  0
   38.7900   28.0920   32.5620 H   0  0  0  0  0  0  0  0  0  0  0  0
   40.1930   24.9350   34.7840 C   0  0  0  0  0  0  0  0  0  0  0  0
   41.5200   24.5600   34.9140 C   0  0  0  0  0  0  0  0  0  0  0  0
   42.5540   25.4640   34.6030 C   0  0  0  0  0  0  0  0  0  0  0  0
   42.1770   26.7220   34.1700 C   0  0  0  0  0  0  0  0  0  0  0  0
   40.8660   27.1040   34.0370 C   0  0  0  0  0  0  0  0  0  0  0  0
   39.8570   26.1820   34.3540 C   0  0  0  0  0  0  0  0  0  0  0  0
   41.8080   23.5620   35.2590 H   0  0  0  0  0  0  0  0  0  0  0  0
   43.5620   25.1120   34.7250 H   0  0  0  0  0  0  0  0  0  0  0  0
   43.0290   27.3640   33.9490 H   0  0  0  0  0  0  0  0  0  0  0  0
   40.7140   28.1120   33.6910 H   0  0  0  0  0  0  0  0  0  0  0  0
   37.6660   22.8170   36.6390 C   0  0  0  0  0  0  0  0  0  0  0  0
   38.5970   23.8500   36.3980 C   0  0  0  0  0  0  0  0  0  0  0  0
   39.2260   23.9210   35.1560 C   0  0  0  0  0  0  0  0  0  0  0  0
   38.8860   22.9730   34.2630 N   0  0  0  0  0  0  0  0  0  0  0  0
   38.0000   21.9890   34.4930 C   0  0  0  0  0  0  0  0  0  0  0  0
   37.3980   21.9140   35.6700 N   0  0  0  0  0  0  0  0  0  0  0  0
   37.2360   22.8530   37.6330 H   0  0  0  0  0  0  0  0  0  0  0  0
   38.8460   24.5880   37.1260 H   0  0  0  0  0  0  0  0  0  0  0  0
   37.7500   21.2430   33.7520 H   0  0  0  0  0  0  0  0  0  0  0  0
   38.6720   26.1880   31.6550 C   0  0  0  0  0  0  0  0  0  0  0  0
   37.9940   24.9930   31.5130 C   0  0  0  0  0  3  0  0  0  0  0  0
   38.3910   24.1110   30.5290 C   0  0  0  0  0  0  0  0  0  0  0  0
   37.8610   23.1730   30.4160 H   0  0  0  0  0  0  0  0  0  0  0  0
   39.4320   24.4330   29.7270 N   0  0  0  0  0  0  0  0  0  0  0  0
   40.0940   25.5980   29.8640 C   0  0  0  0  0  3  0  0  0  0  0  0
   39.7130   26.4680   30.8230 N   0  0  0  0  0  0  0  0  0  0  0  0
  1 22  1  0  0  0  0
  1  7  1  1  0  0  0
  1  2  1  0  0  0  0
  2  8  1  0  0  0  0
  3  2  1  0  0  0  0
  3 10  1  0  0  0  0
  3 11  1  0  0  0  0
  4  3  1  0  0  0  0
  5 15  1  0  0  0  0
  5  6  1  0  0  0  0
  5  4  1  0  0  0  0
  6 16  1  6  0  0  0
  6  1  1  0  0  0  0
  9  2  1  0  0  0  0
 12  4  1  0  0  0  0
 13  4  1  0  0  0  0
 14  5  1  0  0  0  0
 17 18  1  0  0  0  0
 17 29  1  0  0  0  0
 18 23  1  0  0  0  0
 19 24  1  0  0  0  0
 19 18  2  0  0  0  0
 20 19  1  0  0  0  0
 21 20  2  0  0  0  0
 21 22  1  0  0  0  0
 22 17  2  0  0  0  0
 25 20  1  0  0  0  0
 26 21  1  0  0  0  0
 27 33  1  0  0  0  0
 28 27  1  0  0  0  0
 28 34  1  0  0  0  0
 29 28  2  0  0  0  0
 30 31  2  0  0  0  0
 30 29  1  0  0  0  0
 31 32  1  0  0  0  0
 32 27  2  0  0  0  0
 35 31  1  0  0  0  0
 36  6  1  0  0  0  0
 37 36  1  0  0  0  0
 38 37  2  0  0  0  0
 39 38  1  0  0  0  0
 40 41  2  0  0  0  0
 40 38  1  0  0  0  0
 41 42  1  0  0  0  0
 42 36  2  0  0  0  0
M  END
>  <minimizedAffinity>
-5.20478868

$$$$

 OpenBabel03272503543D

 42 45  0  0  1  0  0  0  0  0999 V2000
   38.3200   23.0040   33.4450 C   0  0  1  0  0  0  0  0  0  0  0  0
   37.9200   22.2620   32.1400 C   0  0  0  0  0  0  0  0  0  0  0  0
   36.4050   22.0640   32.2740 C   0  0  0  0  0  0  0  0  0  0  0  0
   36.1820   21.0530   33.3470 C   0  0  0  0  0  0  0  0  0  0  0  0
   36.7630   21.5420   34.6540 C   0  0  0  0  0  0  0  0  0  0  0  0
   38.2080   21.9500   34.5040 C   0  0  2  0  0  0  0  0  0  0  0  0
   37.5130   23.7500   33.5490 H   0  0  0  0  0  0  0  0  0  0  0  0
   38.1870   22.8690   31.2740 H   0  0  0  0  0  0  0  0  0  0  0  0
   38.3880   21.2570   32.1340 H   0  0  0  0  0  0  0  0  0  0  0  0
   35.8900   22.9850   32.5630 H   0  0  0  0  0  0  0  0  0  0  0  0
   36.0790   21.6290   31.3180 H   0  0  0  0  0  0  0  0  0  0  0  0
   36.5550   20.0450   33.1050 H   0  0  0  0  0  0  0  0  0  0  0  0
   35.0770   20.9450   33.4970 H   0  0  0  0  0  0  0  0  0  0  0  0
   36.7180   20.6730   35.3720 H   0  0  0  0  0  0  0  0  0  0  0  0
   36.1580   22.3650   35.0830 H   0  0  0  0  0  0  0  0  0  0  0  0
   38.7780   21.0540   34.1790 H   0  0  0  0  0  0  0  0  0  0  0  0
   39.9720   24.8800   33.6840 C   0  0  0  0  0  0  0  0  0  0  0  0
   41.2790   25.3340   33.6080 C   0  0  0  0  0  0  0  0  0  0  0  0
   42.3090   24.4830   33.1620 C   0  0  0  0  0  0  0  0  0  0  0  0
   41.9480   23.1960   32.8090 C   0  0  0  0  0  0  0  0  0  0  0  0
   40.6580   22.7350   32.8790 C   0  0  0  0  0  0  0  0  0  0  0  0
   39.6520   23.6050   33.3290 C   0  0  0  0  0  0  0  0  0  0  0  0
   41.5530   26.3550   33.8880 H   0  0  0  0  0  0  0  0  0  0  0  0
   43.3000   24.8950   33.1260 H   0  0  0  0  0  0  0  0  0  0  0  0
   42.7950   22.5980   32.4740 H   0  0  0  0  0  0  0  0  0  0  0  0
   40.5180   21.7130   32.5740 H   0  0  0  0  0  0  0  0  0  0  0  0
   38.0290   27.4100   35.7180 C   0  0  0  0  0  0  0  0  0  0  0  0
   39.0260   26.4630   35.3940 C   0  0  0  0  0  0  0  0  0  0  0  0
   39.0040   25.8590   34.1380 C   0  0  0  0  0  0  0  0  0  0  0  0
   38.0090   26.2350   33.3140 N   0  0  0  0  0  0  0  0  0  0  0  0
   37.0610   27.1360   33.6230 C   0  0  0  0  0  0  0  0  0  0  0  0
   37.0740   27.7160   34.8140 N   0  0  0  0  0  0  0  0  0  0  0  0
   38.1370   27.8180   36.7160 H   0  0  0  0  0  0  0  0  0  0  0  0
   39.8020   26.1850   36.0690 H   0  0  0  0  0  0  0  0  0  0  0  0
   36.2750   27.4160   32.9360 H   0  0  0  0  0  0  0  0  0  0  0  0
   38.7130   22.3660   35.8330 C   0  0  0  0  0  0  0  0  0  0  0  0
   37.9200   23.1670   36.6310 C   0  0  0  0  0  3  0  0  0  0  0  0
   38.3900   23.5540   37.8690 C   0  0  0  0  0  0  0  0  0  0  0  0
   37.7690   24.1820   38.4960 H   0  0  0  0  0  0  0  0  0  0  0  0
   39.6130   23.1430   38.2740 N   0  0  0  0  0  0  0  0  0  0  0  0
   40.3880   22.3610   37.4980 C   0  0  0  0  0  3  0  0  0  0  0  0
   39.9380   21.9770   36.2850 N   0  0  0  0  0  0  0  0  0  0  0  0
  1  7  1  1  0  0  0
  1  6  1  0  0  0  0
  2  3  1  0  0  0  0
  2  1  1  0  0  0  0
  3 10  1  0  0  0  0
  3  4  1  0  0  0  0
  4 13  1  0  0  0  0
  4  5  1  0  0  0  0
  5 15  1  0  0  0  0
  5 14  1  0  0  0  0
  6 16  1  6  0  0  0
  6  5  1  0  0  0  0
  6 36  1  0  0  0  0
  8  2  1  0  0  0  0
  9  2  1  0  0  0  0
 11  3  1  0  0  0  0
 12  4  1  0  0  0  0
 17 29  1  0  0  0  0
 18 17  1  0  0  0  0
 18 23  1  0  0  0  0
 19 18  2  0  0  0  0
 20 21  2  0  0  0  0
 20 19  1  0  0  0  0
 21 22  1  0  0  0  0
 22  1  1  0  0  0  0
 22 17  2  0  0  0  0
 24 19  1  0  0  0  0
 25 20  1  0  0  0  0
 26 21  1  0  0  0  0
 27 33  1  0  0  0  0
 28 27  1  0  0  0  0
 28 34  1  0  0  0  0
 29 28  2  0  0  0  0
 30 31  2  0  0  0  0
 30 29  1  0  0  0  0
 31 32  1  0  0  0  0
 32 27  2  0  0  0  0
 35 31  1  0  0  0  0
 36 42  2  0  0  0  0
 36 37  1  0  0  0  0
 37 38  2  0  0  0  0
 38 40  1  0  0  0  0
 38 39  1  0  0  0  0
 41 40  2  0  0  0  0
 42 41  1  0  0  0  0
M  END
>  <minimizedAffinity>
-5.19565725

$$$$

 OpenBabel03272503543D

 42 45  0  0  1  0  0  0  0  0999 V2000
   38.4910   26.6580   34.0160 C   0  0  1  0  0  0  0  0  0  0  0  0
   38.1280   27.8210   34.9790 C   0  0  0  0  0  0  0  0  0  0  0  0
   36.6000   27.9140   34.8910 C   0  0  0  0  0  0  0  0  0  0  0  0
   36.2630   28.4460   33.5400 C   0  0  0  0  0  0  0  0  0  0  0  0
   36.7940   27.5220   32.4670 C   0  0  0  0  0  0  0  0  0  0  0  0
   38.2650   27.2390   32.6530 C   0  0  2  0  0  0  0  0  0  0  0  0
   37.7200   25.9050   34.2540 H   0  0  0  0  0  0  0  0  0  0  0  0
   38.4740   27.5880   35.9870 H   0  0  0  0  0  0  0  0  0  0  0  0
   38.5420   28.7690   34.5800 H   0  0  0  0  0  0  0  0  0  0  0  0
   36.1170   26.9380   35.0010 H   0  0  0  0  0  0  0  0  0  0  0  0
   36.3060   28.6640   35.6400 H   0  0  0  0  0  0  0  0  0  0  0  0
   36.5960   29.4820   33.3650 H   0  0  0  0  0  0  0  0  0  0  0  0
   35.1480   28.4610   33.4410 H   0  0  0  0  0  0  0  0  0  0  0  0
   36.6630   28.0600   31.4840 H   0  0  0  0  0  0  0  0  0  0  0  0
   36.2100   26.5820   32.4180 H   0  0  0  0  0  0  0  0  0  0  0  0
   38.8050   28.2070   32.5820 H   0  0  0  0  0  0  0  0  0  0  0  0
   40.1960   24.9060   34.5870 C   0  0  0  0  0  0  0  0  0  0  0  0
   41.5240   24.5310   34.7120 C   0  0  0  0  0  0  0  0  0  0  0  0
   42.5560   25.4640   34.4920 C   0  0  0  0  0  0  0  0  0  0  0  0
   42.1760   26.7490   34.1520 C   0  0  0  0  0  0  0  0  0  0  0  0
   40.8650   27.1310   34.0250 C   0  0  0  0  0  0  0  0  0  0  0  0
   39.8570   26.1800   34.2490 C   0  0  0  0  0  0  0  0  0  0  0  0
   41.8140   23.5110   34.9830 H   0  0  0  0  0  0  0  0  0  0  0  0
   43.5650   25.1100   34.6050 H   0  0  0  0  0  0  0  0  0  0  0  0
   43.0260   27.4130   33.9970 H   0  0  0  0  0  0  0  0  0  0  0  0
   40.7110   28.1620   33.7560 H   0  0  0  0  0  0  0  0  0  0  0  0
   37.7060   22.5890   36.2430 C   0  0  0  0  0  0  0  0  0  0  0  0
   38.6390   23.6390   36.1040 C   0  0  0  0  0  0  0  0  0  0  0  0
   39.2310   23.8590   34.8610 C   0  0  0  0  0  0  0  0  0  0  0  0
   38.8560   23.0300   33.8690 N   0  0  0  0  0  0  0  0  0  0  0  0
   37.9680   22.0310   34.0030 C   0  0  0  0  0  0  0  0  0  0  0  0
   37.4010   21.8150   35.1800 N   0  0  0  0  0  0  0  0  0  0  0  0
   37.3070   22.5040   37.2480 H   0  0  0  0  0  0  0  0  0  0  0  0
   38.9160   24.2800   36.9090 H   0  0  0  0  0  0  0  0  0  0  0  0
   37.6890   21.3830   33.1840 H   0  0  0  0  0  0  0  0  0  0  0  0
   38.7150   26.3730   31.5400 C   0  0  0  0  0  0  0  0  0  0  0  0
   39.7170   26.8230   30.7030 C   0  0  0  0  0  3  0  0  0  0  0  0
   40.1380   26.0160   29.6660 C   0  0  0  0  0  0  0  0  0  0  0  0
   40.9240   26.3670   29.0090 H   0  0  0  0  0  0  0  0  0  0  0  0
   39.5620   24.8040   29.4910 N   0  0  0  0  0  0  0  0  0  0  0  0
   38.5840   24.3640   30.3060 C   0  0  0  0  0  3  0  0  0  0  0  0
   38.1660   25.1450   31.3230 N   0  0  0  0  0  0  0  0  0  0  0  0
  1 22  1  0  0  0  0
  1  7  1  1  0  0  0
  1  2  1  0  0  0  0
  2  8  1  0  0  0  0
  3  2  1  0  0  0  0
  3 10  1  0  0  0  0
  3 11  1  0  0  0  0
  4  3  1  0  0  0  0
  5  6  1  0  0  0  0
  5  4  1  0  0  0  0
  6 16  1  6  0  0  0
  6  1  1  0  0  0  0
  9  2  1  0  0  0  0
 12  4  1  0  0  0  0
 13  4  1  0  0  0  0
 14  5  1  0  0  0  0
 15  5  1  0  0  0  0
 17 18  1  0  0  0  0
 17 29  1  0  0  0  0
 18 23  1  0  0  0  0
 19 24  1  0  0  0  0
 19 18  2  0  0  0  0
 20 19  1  0  0  0  0
 21 20  2  0  0  0  0
 21 22  1  0  0  0  0
 22 17  2  0  0  0  0
 25 20  1  0  0  0  0
 26 21  1  0  0  0  0
 27 33  1  0  0  0  0
 28 27  1  0  0  0  0
 28 34  1  0  0  0  0
 29 28  2  0  0  0  0
 30 31  2  0  0  0  0
 30 29  1  0  0  0  0
 31 32  1  0  0  0  0
 32 27  2  0  0  0  0
 35 31  1  0  0  0  0
 36  6  1  0  0  0  0
 37 36  2  0  0  0  0
 38 37  1  0  0  0  0
 39 38  1  0  0  0  0
 40 38  2  0  0  0  0
 40 41  1  0  0  0  0
 41 42  2  0  0  0  0
 42 36  1  0  0  0  0
M  END
>  <minimizedAffinity>
-5.11661291

$$$$
