
 OpenBabel03272508563D

 38 41  0  0  1  0  0  0  0  0999 V2000
   38.3760   31.8600   44.5760 C   0  0  0  0  0  0  0  0  0  0  0  0
   37.2640   32.4180   44.4560 O   0  0  0  0  0  0  0  0  0  0  0  0
   38.9500   31.5940   45.8880 N   0  0  0  0  0  0  0  0  0  0  0  0
   39.9300   31.3290   46.0480 H   0  0  0  0  0  0  0  0  0  0  0  0
   39.1710   31.4390   43.3980 C   0  0  0  0  0  0  0  0  0  0  0  0
   40.1560   30.5050   43.5550 C   0  0  0  0  0  0  0  0  0  0  0  0
   40.8670   30.1540   42.4200 C   0  0  0  0  0  0  0  0  0  0  0  0
   40.5600   30.7420   41.2290 C   0  0  0  0  0  0  0  0  0  0  0  0
   39.5630   31.6860   41.0700 C   0  0  0  0  0  0  0  0  0  0  0  0
   38.8990   31.9990   42.1900 N   0  0  0  0  0  0  0  0  0  0  0  0
   40.3850   30.0510   44.5100 H   0  0  0  0  0  0  0  0  0  0  0  0
   41.6550   29.4170   42.5040 H   0  0  0  0  0  0  0  0  0  0  0  0
   41.1530   30.4260   40.3650 H   0  0  0  0  0  0  0  0  0  0  0  0
   39.2700   32.2890   39.7680 C   0  0  0  0  0  0  0  0  0  0  0  0
   38.7530   33.4280   39.7390 O   0  0  0  0  0  0  0  0  0  0  0  0
   39.5560   31.6180   38.5100 C   0  0  0  0  0  0  0  0  0  0  0  0
   40.6280   32.0820   37.7770 C   0  0  0  0  0  3  0  0  0  0  0  0
   40.9310   31.4650   36.5670 C   0  0  0  0  0  0  0  0  0  0  0  0
   41.7710   31.8060   35.9630 H   0  0  0  0  0  0  0  0  0  0  0  0
   40.1550   30.4300   36.1640 N   0  0  0  0  0  0  0  0  0  0  0  0
   39.1160   29.9890   36.8870 C   0  0  0  0  0  3  0  0  0  0  0  0
   38.8190   30.5860   38.0620 N   0  0  0  0  0  0  0  0  0  0  0  0
   38.4090   31.1120   48.2660 C   0  0  2  0  0  0  0  0  0  0  0  0
   38.6630   32.5730   48.1660 C   0  0  0  0  0  0  0  0  0  0  0  0
   38.0630   31.7160   47.0200 C   0  0  1  0  0  0  0  0  0  0  0  0
   39.3490   30.5060   48.3620 H   0  0  0  0  0  0  0  0  0  0  0  0
   37.9520   33.2010   48.7500 H   0  0  0  0  0  0  0  0  0  0  0  0
   39.6800   32.9630   48.0410 H   0  0  0  0  0  0  0  0  0  0  0  0
   36.9860   31.9660   46.8160 H   0  0  0  0  0  0  0  0  0  0  0  0
   35.0500   30.2080   49.5420 C   0  0  0  0  0  0  0  0  0  0  0  0
   35.3680   29.5780   50.7840 C   0  0  0  0  0  0  0  0  0  0  0  0
   36.7590   29.4860   51.1620 C   0  0  0  0  0  0  0  0  0  0  0  0
   37.7220   29.9990   50.3290 N   0  0  0  0  0  0  0  0  0  0  0  0
   37.3400   30.5810   49.1720 C   0  0  0  0  0  0  0  0  0  0  0  0
   36.0210   30.7020   48.7500 N   0  0  0  0  0  0  0  0  0  0  0  0
   33.9920   30.2410   49.3250 H   0  0  0  0  0  0  0  0  0  0  0  0
   34.6280   29.1720   51.4440 H   0  0  0  0  0  0  0  0  0  0  0  0
   36.9980   29.0080   52.1020 H   0  0  0  0  0  0  0  0  0  0  0  0
  1  3  1  0  0  0  0
  2  1  2  0  0  0  0
  3  4  1  0  0  0  0
  3 25  1  0  0  0  0
  5  6  1  0  0  0  0
  5  1  1  0  0  0  0
  6 11  1  0  0  0  0
  7 12  1  0  0  0  0
  7  6  2  0  0  0  0
  8  7  1  0  0  0  0
  9  8  2  0  0  0  0
  9 10  1  0  0  0  0
 10  5  2  0  0  0  0
 13  8  1  0  0  0  0
 14  9  1  0  0  0  0
 15 14  2  0  0  0  0
 16 14  1  0  0  0  0
 17 16  2  0  0  0  0
 18 17  1  0  0  0  0
 19 18  1  0  0  0  0
 20 18  2  0  0  0  0
 20 21  1  0  0  0  0
 21 22  2  0  0  0  0
 22 16  1  0  0  0  0
 23 26  1  6  0  0  0
 23 34  1  0  0  0  0
 24 23  1  0  0  0  0
 24 27  1  0  0  0  0
 25 29  1  6  0  0  0
 25 24  1  0  0  0  0
 25 23  1  0  0  0  0
 28 24  1  0  0  0  0
 30 31  1  0  0  0  0
 31 32  2  0  0  0  0
 31 37  1  0  0  0  0
 32 38  1  0  0  0  0
 33 32  1  0  0  0  0
 34 33  2  0  0  0  0
 35 34  1  0  0  0  0
 35 30  2  0  0  0  0
 36 30  1  0  0  0  0
M  END
>  <minimizedAffinity>
-4.94523144

>  <minimizedRMSD>
0.443018496

$$$$
