
 OpenBabel03272508563D

 38 41  0  0  1  0  0  0  0  0999 V2000
   38.3850   31.8540   44.5750 C   0  0  0  0  0  0  0  0  0  0  0  0
   37.3030   32.4690   44.4550 O   0  0  0  0  0  0  0  0  0  0  0  0
   38.9260   31.5280   45.8880 N   0  0  0  0  0  0  0  0  0  0  0  0
   39.8890   31.2120   46.0550 H   0  0  0  0  0  0  0  0  0  0  0  0
   39.1770   31.4230   43.3980 C   0  0  0  0  0  0  0  0  0  0  0  0
   40.1480   30.4760   43.5560 C   0  0  0  0  0  0  0  0  0  0  0  0
   40.8550   30.1150   42.4210 C   0  0  0  0  0  0  0  0  0  0  0  0
   40.5580   30.7090   41.2300 C   0  0  0  0  0  0  0  0  0  0  0  0
   39.5750   31.6680   41.0710 C   0  0  0  0  0  0  0  0  0  0  0  0
   38.9140   31.9880   42.1910 N   0  0  0  0  0  0  0  0  0  0  0  0
   40.3690   30.0170   44.5100 H   0  0  0  0  0  0  0  0  0  0  0  0
   41.6330   29.3680   42.5060 H   0  0  0  0  0  0  0  0  0  0  0  0
   41.1490   30.3860   40.3670 H   0  0  0  0  0  0  0  0  0  0  0  0
   39.2930   32.2760   39.7700 C   0  0  0  0  0  0  0  0  0  0  0  0
   38.7780   33.4160   39.7410 O   0  0  0  0  0  0  0  0  0  0  0  0
   39.5870   31.6090   38.5110 C   0  0  0  0  0  0  0  0  0  0  0  0
   38.6620   30.6960   38.0500 C   0  0  0  0  0  3  0  0  0  0  0  0
   38.9090   30.0390   36.8480 C   0  0  0  0  0  0  0  0  0  0  0  0
   38.2010   29.3120   36.4550 H   0  0  0  0  0  0  0  0  0  0  0  0
   40.0550   30.3290   36.1850 N   0  0  0  0  0  0  0  0  0  0  0  0
   40.9460   31.2170   36.6440 C   0  0  0  0  0  3  0  0  0  0  0  0
   40.7090   31.8590   37.8100 N   0  0  0  0  0  0  0  0  0  0  0  0
   38.2810   30.9480   48.2180 C   0  0  2  0  0  0  0  0  0  0  0  0
   38.6860   32.3780   48.2220 C   0  0  0  0  0  0  0  0  0  0  0  0
   38.0290   31.6660   47.0110 C   0  0  1  0  0  0  0  0  0  0  0  0
   39.1520   30.2430   48.2880 H   0  0  0  0  0  0  0  0  0  0  0  0
   38.0290   33.0360   48.8360 H   0  0  0  0  0  0  0  0  0  0  0  0
   39.7410   32.6680   48.1420 H   0  0  0  0  0  0  0  0  0  0  0  0
   36.9880   32.0400   46.8060 H   0  0  0  0  0  0  0  0  0  0  0  0
   34.8270   30.1350   49.2840 C   0  0  0  0  0  0  0  0  0  0  0  0
   35.0450   29.5670   50.5760 C   0  0  0  0  0  0  0  0  0  0  0  0
   36.4020   29.4850   51.0620 C   0  0  0  0  0  0  0  0  0  0  0  0
   37.4310   29.9480   50.2770 N   0  0  0  0  0  0  0  0  0  0  0  0
   37.1420   30.4720   49.0670 C   0  0  0  0  0  0  0  0  0  0  0  0
   35.8600   30.5800   48.5420 N   0  0  0  0  0  0  0  0  0  0  0  0
   33.7890   30.1640   48.9860 H   0  0  0  0  0  0  0  0  0  0  0  0
   34.2530   29.2010   51.1980 H   0  0  0  0  0  0  0  0  0  0  0  0
   36.5660   29.0550   52.0400 H   0  0  0  0  0  0  0  0  0  0  0  0
  1  3  1  0  0  0  0
  2  1  2  0  0  0  0
  3  4  1  0  0  0  0
  3 25  1  0  0  0  0
  5  6  1  0  0  0  0
  5  1  1  0  0  0  0
  6 11  1  0  0  0  0
  7 12  1  0  0  0  0
  7  6  2  0  0  0  0
  8  7  1  0  0  0  0
  9  8  2  0  0  0  0
  9 10  1  0  0  0  0
 10  5  2  0  0  0  0
 13  8  1  0  0  0  0
 14  9  1  0  0  0  0
 15 14  2  0  0  0  0
 16 14  1  0  0  0  0
 17 16  1  0  0  0  0
 18 17  2  0  0  0  0
 19 18  1  0  0  0  0
 20 21  2  0  0  0  0
 20 18  1  0  0  0  0
 21 22  1  0  0  0  0
 22 16  2  0  0  0  0
 23 24  1  0  0  0  0
 23 26  1  6  0  0  0
 23 34  1  0  0  0  0
 24 27  1  0  0  0  0
 25 29  1  6  0  0  0
 25 23  1  0  0  0  0
 25 24  1  0  0  0  0
 28 24  1  0  0  0  0
 30 31  1  0  0  0  0
 31 32  2  0  0  0  0
 31 37  1  0  0  0  0
 32 38  1  0  0  0  0
 33 32  1  0  0  0  0
 34 33  2  0  0  0  0
 35 34  1  0  0  0  0
 35 30  2  0  0  0  0
 36 30  1  0  0  0  0
M  END
>  <minimizedAffinity>
-4.93709087

>  <minimizedRMSD>
0.499309272

$$$$
