
 OpenBabel03272508563D

 38 41  0  0  1  0  0  0  0  0999 V2000
   38.3870   31.8220   44.6250 C   0  0  0  0  0  0  0  0  0  0  0  0
   37.2240   32.2780   44.5640 O   0  0  0  0  0  0  0  0  0  0  0  0
   39.0510   31.6190   45.9050 N   0  0  0  0  0  0  0  0  0  0  0  0
   40.0580   31.4430   46.0130 H   0  0  0  0  0  0  0  0  0  0  0  0
   39.1520   31.4630   43.4070 C   0  0  0  0  0  0  0  0  0  0  0  0
   40.1500   30.5340   43.4950 C   0  0  0  0  0  0  0  0  0  0  0  0
   40.8320   30.2420   42.3250 C   0  0  0  0  0  0  0  0  0  0  0  0
   40.4840   30.8800   41.1710 C   0  0  0  0  0  0  0  0  0  0  0  0
   39.4740   31.8190   41.0830 C   0  0  0  0  0  0  0  0  0  0  0  0
   38.8400   32.0740   42.2350 N   0  0  0  0  0  0  0  0  0  0  0  0
   40.4110   30.0400   44.4210 H   0  0  0  0  0  0  0  0  0  0  0  0
   41.6290   29.5120   42.3540 H   0  0  0  0  0  0  0  0  0  0  0  0
   41.0560   30.6090   40.2770 H   0  0  0  0  0  0  0  0  0  0  0  0
   39.1380   32.4760   39.8190 C   0  0  0  0  0  0  0  0  0  0  0  0
   38.6610   33.6320   39.8540 O   0  0  0  0  0  0  0  0  0  0  0  0
   39.3370   31.8400   38.5270 C   0  0  0  0  0  0  0  0  0  0  0  0
   40.3470   32.3340   37.7290 C   0  0  0  0  0  3  0  0  0  0  0  0
   40.5670   31.7500   36.4840 C   0  0  0  0  0  0  0  0  0  0  0  0
   41.3570   32.1160   35.8300 H   0  0  0  0  0  0  0  0  0  0  0  0
   39.7720   30.7170   36.1140 N   0  0  0  0  0  0  0  0  0  0  0  0
   38.7930   30.2460   36.8980 C   0  0  0  0  0  3  0  0  0  0  0  0
   38.5780   30.8100   38.1070 N   0  0  0  0  0  0  0  0  0  0  0  0
   38.7230   31.2050   48.3350 C   0  0  2  0  0  0  0  0  0  0  0  0
   38.7370   32.6790   48.1430 C   0  0  0  0  0  0  0  0  0  0  0  0
   38.2190   31.6720   47.0840 C   0  0  1  0  0  0  0  0  0  0  0  0
   39.7510   30.7590   48.4030 H   0  0  0  0  0  0  0  0  0  0  0  0
   37.9690   33.2250   48.7370 H   0  0  0  0  0  0  0  0  0  0  0  0
   39.6720   33.2140   47.9350 H   0  0  0  0  0  0  0  0  0  0  0  0
   37.1060   31.7400   46.9350 H   0  0  0  0  0  0  0  0  0  0  0  0
   35.9150   29.2280   49.7260 C   0  0  0  0  0  0  0  0  0  0  0  0
   36.1290   29.3650   51.1320 C   0  0  0  0  0  0  0  0  0  0  0  0
   37.2520   30.1580   51.5740 C   0  0  0  0  0  0  0  0  0  0  0  0
   38.0710   30.7490   50.6440 N   0  0  0  0  0  0  0  0  0  0  0  0
   37.8010   30.5720   49.3330 C   0  0  0  0  0  0  0  0  0  0  0  0
   36.7390   29.8230   48.8420 N   0  0  0  0  0  0  0  0  0  0  0  0
   35.0590   28.6220   49.4690 H   0  0  0  0  0  0  0  0  0  0  0  0
   35.4990   28.9090   51.8690 H   0  0  0  0  0  0  0  0  0  0  0  0
   37.4120   30.2610   52.6380 H   0  0  0  0  0  0  0  0  0  0  0  0
  1  3  1  0  0  0  0
  2  1  2  0  0  0  0
  3  4  1  0  0  0  0
  3 25  1  0  0  0  0
  5  6  1  0  0  0  0
  5  1  1  0  0  0  0
  6 11  1  0  0  0  0
  7 12  1  0  0  0  0
  7  6  2  0  0  0  0
  8  7  1  0  0  0  0
  9  8  2  0  0  0  0
  9 10  1  0  0  0  0
 10  5  2  0  0  0  0
 13  8  1  0  0  0  0
 14 15  2  0  0  0  0
 14  9  1  0  0  0  0
 16 14  1  0  0  0  0
 17 16  2  0  0  0  0
 18 17  1  0  0  0  0
 19 18  1  0  0  0  0
 20 18  2  0  0  0  0
 20 21  1  0  0  0  0
 21 22  2  0  0  0  0
 22 16  1  0  0  0  0
 23 26  1  6  0  0  0
 23 34  1  0  0  0  0
 24 23  1  0  0  0  0
 24 27  1  0  0  0  0
 25 29  1  6  0  0  0
 25 24  1  0  0  0  0
 25 23  1  0  0  0  0
 28 24  1  0  0  0  0
 30 31  1  0  0  0  0
 31 32  2  0  0  0  0
 31 37  1  0  0  0  0
 32 38  1  0  0  0  0
 33 32  1  0  0  0  0
 34 33  2  0  0  0  0
 35 34  1  0  0  0  0
 35 30  2  0  0  0  0
 36 30  1  0  0  0  0
M  END
>  <minimizedAffinity>
-5.05329847

>  <minimizedRMSD>
0.822754979

$$$$
