
 OpenBabel03272508563D

 38 41  0  0  1  0  0  0  0  0999 V2000
   38.3650   31.8800   44.5290 C   0  0  0  0  0  0  0  0  0  0  0  0
   37.2440   32.4230   44.4180 O   0  0  0  0  0  0  0  0  0  0  0  0
   38.9510   31.6230   45.8380 N   0  0  0  0  0  0  0  0  0  0  0  0
   39.9360   31.3720   45.9910 H   0  0  0  0  0  0  0  0  0  0  0  0
   39.1580   31.4700   43.3460 C   0  0  0  0  0  0  0  0  0  0  0  0
   40.1500   30.5430   43.4950 C   0  0  0  0  0  0  0  0  0  0  0  0
   40.8580   30.2020   42.3550 C   0  0  0  0  0  0  0  0  0  0  0  0
   40.5410   30.7920   41.1680 C   0  0  0  0  0  0  0  0  0  0  0  0
   39.5360   31.7300   41.0180 C   0  0  0  0  0  0  0  0  0  0  0  0
   38.8750   32.0330   42.1420 N   0  0  0  0  0  0  0  0  0  0  0  0
   40.3870   30.0870   44.4470 H   0  0  0  0  0  0  0  0  0  0  0  0
   41.6520   29.4710   42.4330 H   0  0  0  0  0  0  0  0  0  0  0  0
   41.1330   30.4840   40.3000 H   0  0  0  0  0  0  0  0  0  0  0  0
   39.2330   32.3360   39.7200 C   0  0  0  0  0  0  0  0  0  0  0  0
   38.6730   33.4550   39.6980 O   0  0  0  0  0  0  0  0  0  0  0  0
   39.5550   31.6900   38.4580 C   0  0  0  0  0  0  0  0  0  0  0  0
   38.6810   30.7260   38.0000 C   0  0  0  0  0  3  0  0  0  0  0  0
   38.9570   30.0880   36.7950 C   0  0  0  0  0  0  0  0  0  0  0  0
   38.2890   29.3220   36.4050 H   0  0  0  0  0  0  0  0  0  0  0  0
   40.0800   30.4440   36.1240 N   0  0  0  0  0  0  0  0  0  0  0  0
   40.9210   31.3820   36.5790 C   0  0  0  0  0  3  0  0  0  0  0  0
   40.6550   32.0050   37.7490 N   0  0  0  0  0  0  0  0  0  0  0  0
   38.4220   31.1130   48.2130 C   0  0  2  0  0  0  0  0  0  0  0  0
   38.6780   32.5750   48.1290 C   0  0  0  0  0  0  0  0  0  0  0  0
   38.0700   31.7330   46.9760 C   0  0  1  0  0  0  0  0  0  0  0  0
   39.3620   30.5050   48.2970 H   0  0  0  0  0  0  0  0  0  0  0  0
   37.9710   33.1970   48.7240 H   0  0  0  0  0  0  0  0  0  0  0  0
   39.6960   32.9650   48.0040 H   0  0  0  0  0  0  0  0  0  0  0  0
   36.9930   31.9880   46.7810 H   0  0  0  0  0  0  0  0  0  0  0  0
   35.0660   30.2400   49.5170 C   0  0  0  0  0  0  0  0  0  0  0  0
   35.3900   29.5560   50.7280 C   0  0  0  0  0  0  0  0  0  0  0  0
   36.7850   29.4180   51.0770 C   0  0  0  0  0  0  0  0  0  0  0  0
   37.7460   29.9400   50.2450 N   0  0  0  0  0  0  0  0  0  0  0  0
   37.3570   30.5730   49.1180 C   0  0  0  0  0  0  0  0  0  0  0  0
   36.0340   30.7400   48.7250 N   0  0  0  0  0  0  0  0  0  0  0  0
   34.0050   30.3060   49.3200 H   0  0  0  0  0  0  0  0  0  0  0  0
   34.6530   29.1430   51.3860 H   0  0  0  0  0  0  0  0  0  0  0  0
   37.0290   28.9000   51.9930 H   0  0  0  0  0  0  0  0  0  0  0  0
  1  3  1  0  0  0  0
  2  1  2  0  0  0  0
  3  4  1  0  0  0  0
  3 25  1  0  0  0  0
  5  6  1  0  0  0  0
  5  1  1  0  0  0  0
  6 11  1  0  0  0  0
  7 12  1  0  0  0  0
  7  6  2  0  0  0  0
  8  7  1  0  0  0  0
  9  8  2  0  0  0  0
  9 10  1  0  0  0  0
 10  5  2  0  0  0  0
 13  8  1  0  0  0  0
 14  9  1  0  0  0  0
 15 14  2  0  0  0  0
 16 14  1  0  0  0  0
 17 16  1  0  0  0  0
 18 17  2  0  0  0  0
 19 18  1  0  0  0  0
 20 21  2  0  0  0  0
 20 18  1  0  0  0  0
 21 22  1  0  0  0  0
 22 16  2  0  0  0  0
 23 26  1  6  0  0  0
 23 34  1  0  0  0  0
 24 23  1  0  0  0  0
 24 27  1  0  0  0  0
 25 29  1  6  0  0  0
 25 24  1  0  0  0  0
 25 23  1  0  0  0  0
 28 24  1  0  0  0  0
 30 31  1  0  0  0  0
 31 32  2  0  0  0  0
 31 37  1  0  0  0  0
 32 38  1  0  0  0  0
 33 32  1  0  0  0  0
 34 33  2  0  0  0  0
 35 34  1  0  0  0  0
 35 30  2  0  0  0  0
 36 30  1  0  0  0  0
M  END
>  <minimizedAffinity>
-4.94959879

>  <minimizedRMSD>
0.326623946

$$$$
