
 OpenBabel03272508563D

 38 41  0  0  1  0  0  0  0  0999 V2000
   38.3820   31.8540   44.5890 C   0  0  0  0  0  0  0  0  0  0  0  0
   37.2990   32.4660   44.4680 O   0  0  0  0  0  0  0  0  0  0  0  0
   38.9230   31.5300   45.9020 N   0  0  0  0  0  0  0  0  0  0  0  0
   39.8870   31.2150   46.0690 H   0  0  0  0  0  0  0  0  0  0  0  0
   39.1750   31.4240   43.4120 C   0  0  0  0  0  0  0  0  0  0  0  0
   40.1480   30.4780   43.5710 C   0  0  0  0  0  0  0  0  0  0  0  0
   40.8560   30.1190   42.4370 C   0  0  0  0  0  0  0  0  0  0  0  0
   40.5580   30.7110   41.2460 C   0  0  0  0  0  0  0  0  0  0  0  0
   39.5730   31.6670   41.0860 C   0  0  0  0  0  0  0  0  0  0  0  0
   38.9110   31.9870   42.2050 N   0  0  0  0  0  0  0  0  0  0  0  0
   40.3690   30.0210   44.5260 H   0  0  0  0  0  0  0  0  0  0  0  0
   41.6350   29.3730   42.5220 H   0  0  0  0  0  0  0  0  0  0  0  0
   41.1490   30.3880   40.3830 H   0  0  0  0  0  0  0  0  0  0  0  0
   39.2900   32.2740   39.7840 C   0  0  0  0  0  0  0  0  0  0  0  0
   38.7870   33.4200   39.7540 O   0  0  0  0  0  0  0  0  0  0  0  0
   39.5690   31.6000   38.5260 C   0  0  0  0  0  0  0  0  0  0  0  0
   40.6420   32.0560   37.7900 C   0  0  0  0  0  3  0  0  0  0  0  0
   40.9390   31.4350   36.5800 C   0  0  0  0  0  0  0  0  0  0  0  0
   41.7790   31.7700   35.9740 H   0  0  0  0  0  0  0  0  0  0  0  0
   40.1540   30.4050   36.1810 N   0  0  0  0  0  0  0  0  0  0  0  0
   39.1140   29.9700   36.9050 C   0  0  0  0  0  3  0  0  0  0  0  0
   38.8230   30.5720   38.0800 N   0  0  0  0  0  0  0  0  0  0  0  0
   38.2760   30.9450   48.2300 C   0  0  2  0  0  0  0  0  0  0  0  0
   38.6830   32.3740   48.2390 C   0  0  0  0  0  0  0  0  0  0  0  0
   38.0260   31.6670   47.0250 C   0  0  1  0  0  0  0  0  0  0  0  0
   39.1450   30.2380   48.2990 H   0  0  0  0  0  0  0  0  0  0  0  0
   38.0280   33.0320   48.8540 H   0  0  0  0  0  0  0  0  0  0  0  0
   39.7390   32.6620   48.1600 H   0  0  0  0  0  0  0  0  0  0  0  0
   36.9860   32.0440   46.8210 H   0  0  0  0  0  0  0  0  0  0  0  0
   34.8200   30.1330   49.2900 C   0  0  0  0  0  0  0  0  0  0  0  0
   35.0350   29.5650   50.5830 C   0  0  0  0  0  0  0  0  0  0  0  0
   36.3920   29.4820   51.0710 C   0  0  0  0  0  0  0  0  0  0  0  0
   37.4220   29.9450   50.2880 N   0  0  0  0  0  0  0  0  0  0  0  0
   37.1350   30.4690   49.0770 C   0  0  0  0  0  0  0  0  0  0  0  0
   35.8540   30.5780   48.5500 N   0  0  0  0  0  0  0  0  0  0  0  0
   33.7820   30.1620   48.9900 H   0  0  0  0  0  0  0  0  0  0  0  0
   34.2420   29.1990   51.2040 H   0  0  0  0  0  0  0  0  0  0  0  0
   36.5540   29.0520   52.0490 H   0  0  0  0  0  0  0  0  0  0  0  0
  1  3  1  0  0  0  0
  2  1  2  0  0  0  0
  3  4  1  0  0  0  0
  3 25  1  0  0  0  0
  5  6  1  0  0  0  0
  5  1  1  0  0  0  0
  6 11  1  0  0  0  0
  7 12  1  0  0  0  0
  7  6  2  0  0  0  0
  8  7  1  0  0  0  0
  9  8  2  0  0  0  0
  9 10  1  0  0  0  0
 10  5  2  0  0  0  0
 13  8  1  0  0  0  0
 14  9  1  0  0  0  0
 15 14  2  0  0  0  0
 16 14  1  0  0  0  0
 17 16  2  0  0  0  0
 18 17  1  0  0  0  0
 19 18  1  0  0  0  0
 20 18  2  0  0  0  0
 20 21  1  0  0  0  0
 21 22  2  0  0  0  0
 22 16  1  0  0  0  0
 23 24  1  0  0  0  0
 23 26  1  6  0  0  0
 23 34  1  0  0  0  0
 24 27  1  0  0  0  0
 25 29  1  6  0  0  0
 25 23  1  0  0  0  0
 25 24  1  0  0  0  0
 28 24  1  0  0  0  0
 30 31  1  0  0  0  0
 31 32  2  0  0  0  0
 31 37  1  0  0  0  0
 32 38  1  0  0  0  0
 33 32  1  0  0  0  0
 34 33  2  0  0  0  0
 35 34  1  0  0  0  0
 35 30  2  0  0  0  0
 36 30  1  0  0  0  0
M  END
>  <minimizedAffinity>
-4.94685459

>  <minimizedRMSD>
0.620174706

$$$$
