
 OpenBabel03272508563D

 38 41  0  0  1  0  0  0  0  0999 V2000
   38.4030   31.7900   44.5700 C   0  0  0  0  0  0  0  0  0  0  0  0
   37.3660   32.4760   44.4320 O   0  0  0  0  0  0  0  0  0  0  0  0
   38.8740   31.3930   45.8900 N   0  0  0  0  0  0  0  0  0  0  0  0
   39.8090   31.0110   46.0790 H   0  0  0  0  0  0  0  0  0  0  0  0
   39.2080   31.3450   43.4080 C   0  0  0  0  0  0  0  0  0  0  0  0
   40.1760   30.3980   43.5890 C   0  0  0  0  0  0  0  0  0  0  0  0
   40.8970   30.0230   42.4670 C   0  0  0  0  0  0  0  0  0  0  0  0
   40.6140   30.6020   41.2660 C   0  0  0  0  0  0  0  0  0  0  0  0
   39.6340   31.5590   41.0830 C   0  0  0  0  0  0  0  0  0  0  0  0
   38.9600   31.8940   42.1900 N   0  0  0  0  0  0  0  0  0  0  0  0
   40.3850   29.9510   44.5520 H   0  0  0  0  0  0  0  0  0  0  0  0
   41.6730   29.2770   42.5710 H   0  0  0  0  0  0  0  0  0  0  0  0
   41.2150   30.2680   40.4140 H   0  0  0  0  0  0  0  0  0  0  0  0
   39.3680   32.1510   39.7710 C   0  0  0  0  0  0  0  0  0  0  0  0
   38.7140   33.2170   39.7170 O   0  0  0  0  0  0  0  0  0  0  0  0
   39.8310   31.5510   38.5300 C   0  0  0  0  0  0  0  0  0  0  0  0
   39.0090   30.6170   37.9350 C   0  0  0  0  0  3  0  0  0  0  0  0
   39.4200   30.0210   36.7460 C   0  0  0  0  0  0  0  0  0  0  0  0
   38.7960   29.2810   36.2500 H   0  0  0  0  0  0  0  0  0  0  0  0
   40.6160   30.3900   36.2260 N   0  0  0  0  0  0  0  0  0  0  0  0
   41.4060   31.2980   36.8150 C   0  0  0  0  0  3  0  0  0  0  0  0
   41.0100   31.8800   37.9690 N   0  0  0  0  0  0  0  0  0  0  0  0
   38.2060   30.9220   48.2380 C   0  0  2  0  0  0  0  0  0  0  0  0
   38.5450   32.3670   48.1640 C   0  0  0  0  0  0  0  0  0  0  0  0
   37.9480   31.5550   46.9850 C   0  0  1  0  0  0  0  0  0  0  0  0
   39.1060   30.2640   48.3670 H   0  0  0  0  0  0  0  0  0  0  0  0
   37.8460   33.0300   48.7240 H   0  0  0  0  0  0  0  0  0  0  0  0
   39.5870   32.7020   48.0870 H   0  0  0  0  0  0  0  0  0  0  0  0
   36.8960   31.8680   46.7390 H   0  0  0  0  0  0  0  0  0  0  0  0
   34.7590   30.1010   49.3180 C   0  0  0  0  0  0  0  0  0  0  0  0
   34.9830   29.5370   50.6110 C   0  0  0  0  0  0  0  0  0  0  0  0
   36.3420   29.4610   51.0920 C   0  0  0  0  0  0  0  0  0  0  0  0
   37.3670   29.9250   50.3030 N   0  0  0  0  0  0  0  0  0  0  0  0
   37.0710   30.4450   49.0920 C   0  0  0  0  0  0  0  0  0  0  0  0
   35.7870   30.5470   48.5710 N   0  0  0  0  0  0  0  0  0  0  0  0
   33.7190   30.1250   49.0230 H   0  0  0  0  0  0  0  0  0  0  0  0
   34.1940   29.1700   51.2370 H   0  0  0  0  0  0  0  0  0  0  0  0
   36.5110   29.0340   52.0700 H   0  0  0  0  0  0  0  0  0  0  0  0
  1  3  1  0  0  0  0
  2  1  2  0  0  0  0
  3  4  1  0  0  0  0
  3 25  1  0  0  0  0
  5  6  1  0  0  0  0
  5  1  1  0  0  0  0
  6 11  1  0  0  0  0
  7 12  1  0  0  0  0
  7  6  2  0  0  0  0
  8  7  1  0  0  0  0
  9  8  2  0  0  0  0
  9 10  1  0  0  0  0
 10  5  2  0  0  0  0
 13  8  1  0  0  0  0
 14  9  1  0  0  0  0
 15 14  2  0  0  0  0
 16 14  1  0  0  0  0
 17 16  2  0  0  0  0
 18 17  1  0  0  0  0
 19 18  1  0  0  0  0
 20 18  2  0  0  0  0
 20 21  1  0  0  0  0
 21 22  2  0  0  0  0
 22 16  1  0  0  0  0
 23 26  1  6  0  0  0
 23 34  1  0  0  0  0
 24 23  1  0  0  0  0
 24 27  1  0  0  0  0
 25 29  1  6  0  0  0
 25 24  1  0  0  0  0
 25 23  1  0  0  0  0
 28 24  1  0  0  0  0
 30 31  1  0  0  0  0
 31 32  2  0  0  0  0
 31 37  1  0  0  0  0
 32 38  1  0  0  0  0
 33 32  1  0  0  0  0
 34 33  2  0  0  0  0
 35 34  1  0  0  0  0
 35 30  2  0  0  0  0
 36 30  1  0  0  0  0
M  END
>  <minimizedAffinity>
-4.97725821

>  <minimizedRMSD>
0.801116407

$$$$
