
 OpenBabel03272500593D

 33 35  0  0  0  0  0  0  0  0999 V2000
   39.9730   25.5510   34.3940 C   0  0  0  0  0  0  0  0  0  0  0  0
   40.9170   26.4660   34.7680 C   0  0  0  0  0  0  0  0  0  0  0  0
   41.4850   27.3500   33.8490 C   0  0  0  0  0  0  0  0  0  0  0  0
   41.0390   27.2670   32.4760 C   0  0  0  0  0  0  0  0  0  0  0  0
   40.0910   26.3310   32.1640 C   0  0  0  0  0  0  0  0  0  0  0  0
   39.5560   25.4890   33.0530 C   0  0  0  0  0  0  0  0  0  0  0  0
   41.2760   26.5560   35.7950 H   0  0  0  0  0  0  0  0  0  0  0  0
   42.2280   28.0560   34.1870 H   0  0  0  0  0  0  0  0  0  0  0  0
   41.5500   27.9940   31.8850 H   0  0  0  0  0  0  0  0  0  0  0  0
   39.8940   26.4650   31.1130 H   0  0  0  0  0  0  0  0  0  0  0  0
   38.3200   25.2140   36.1680 C   0  0  0  0  0  0  0  0  0  0  0  0
   39.4590   24.7250   35.4630 C   0  0  0  0  0  0  0  0  0  0  0  0
   39.9290   23.5080   35.8910 C   0  0  0  0  0  0  0  0  0  0  0  0
   39.3330   22.8570   36.9030 N   0  0  0  0  0  0  0  0  0  0  0  0
   38.2680   23.3310   37.5500 C   0  0  0  0  0  0  0  0  0  0  0  0
   37.7710   24.5080   37.1740 N   0  0  0  0  0  0  0  0  0  0  0  0
   37.9010   26.1630   35.8850 H   0  0  0  0  0  0  0  0  0  0  0  0
   40.7930   23.1830   35.3240 H   0  0  0  0  0  0  0  0  0  0  0  0
   37.9240   22.6680   38.3370 H   0  0  0  0  0  0  0  0  0  0  0  0
   37.2760   25.1630   32.5590 C   0  0  0  0  0  0  0  0  0  0  0  0
   37.1230   26.4020   32.8700 O   0  0  0  0  0  0  0  0  0  0  0  0
   38.6290   24.5490   32.6750 N   0  0  0  0  0  0  0  0  0  0  0  0
   38.7740   23.5360   32.4800 H   0  0  0  0  0  0  0  0  0  0  0  0
   36.2330   24.3020   32.0970 O   0  0  0  0  0  0  0  0  0  0  0  0
   36.5520   23.2220   31.3060 C   0  0  0  0  0  0  0  0  0  0  0  0
   37.3210   23.4780   30.3340 O   0  0  0  0  0  0  0  0  0  0  0  0
   36.1420   21.8010   31.3930 C   0  0  0  0  0  0  0  0  0  0  0  0
   35.0760   21.3380   32.1600 C   0  0  0  0  0  3  0  0  0  0  0  0
   34.7260   20.0230   32.2160 C   0  0  0  0  0  0  0  0  0  0  0  0
   33.8890   19.7010   32.8270 H   0  0  0  0  0  0  0  0  0  0  0  0
   35.4480   19.1320   31.4970 N   0  0  0  0  0  0  0  0  0  0  0  0
   36.4700   19.5550   30.7580 C   0  0  0  0  0  3  0  0  0  0  0  0
   36.7850   20.8450   30.7240 N   0  0  0  0  0  0  0  0  0  0  0  0
  1  2  1  0  0  0  0
  1 12  1  0  0  0  0
  2  7  1  0  0  0  0
  3  8  1  0  0  0  0
  3  2  2  0  0  0  0
  4  3  1  0  0  0  0
  5  4  2  0  0  0  0
  5  6  1  0  0  0  0
  6  1  2  0  0  0  0
  9  4  1  0  0  0  0
 10  5  1  0  0  0  0
 11 16  1  0  0  0  0
 12 13  1  0  0  0  0
 12 11  2  0  0  0  0
 13 14  2  0  0  0  0
 14 15  1  0  0  0  0
 15 19  1  0  0  0  0
 16 15  2  0  0  0  0
 17 11  1  0  0  0  0
 18 13  1  0  0  0  0
 20 22  1  0  0  0  0
 20 21  2  0  0  0  0
 22  6  1  0  0  0  0
 23 22  1  0  0  0  0
 24 20  1  0  0  0  0
 25 27  1  0  0  0  0
 25 24  1  0  0  0  0
 26 25  2  0  0  0  0
 27 28  1  0  0  0  0
 28 29  2  0  0  0  0
 29 30  1  0  0  0  0
 31 29  1  0  0  0  0
 32 31  2  0  0  0  0
 33 32  1  0  0  0  0
 33 27  2  0  0  0  0
M  END
>  <minimizedAffinity>
-5.24921656

$$$$

 OpenBabel03272500593D

 33 35  0  0  0  0  0  0  0  0999 V2000
   33.6150   30.4670   35.6110 C   0  0  0  0  0  0  0  0  0  0  0  0
   33.4190   31.5140   36.4680 C   0  0  0  0  0  0  0  0  0  0  0  0
   34.4440   32.4090   36.7770 C   0  0  0  0  0  0  0  0  0  0  0  0
   35.7320   32.1930   36.1570 C   0  0  0  0  0  0  0  0  0  0  0  0
   35.8660   31.1280   35.3090 C   0  0  0  0  0  0  0  0  0  0  0  0
   34.8770   30.2760   35.0220 C   0  0  0  0  0  0  0  0  0  0  0  0
   32.4600   31.7070   36.9530 H   0  0  0  0  0  0  0  0  0  0  0  0
   34.2460   33.2230   37.4590 H   0  0  0  0  0  0  0  0  0  0  0  0
   36.4190   32.9450   36.4770 H   0  0  0  0  0  0  0  0  0  0  0  0
   36.8820   31.1760   34.9500 H   0  0  0  0  0  0  0  0  0  0  0  0
   32.2040   28.5870   36.2940 C   0  0  0  0  0  0  0  0  0  0  0  0
   32.4520   29.6440   35.3690 C   0  0  0  0  0  0  0  0  0  0  0  0
   31.5370   29.7510   34.3510 C   0  0  0  0  0  0  0  0  0  0  0  0
   30.4980   28.9060   34.2660 N   0  0  0  0  0  0  0  0  0  0  0  0
   30.2830   27.9240   35.1420 C   0  0  0  0  0  0  0  0  0  0  0  0
   31.1400   27.7750   36.1490 N   0  0  0  0  0  0  0  0  0  0  0  0
   32.8820   28.4460   37.1160 H   0  0  0  0  0  0  0  0  0  0  0  0
   31.7720   30.5680   33.6780 H   0  0  0  0  0  0  0  0  0  0  0  0
   29.3950   27.3430   34.9130 H   0  0  0  0  0  0  0  0  0  0  0  0
   34.9710   29.6260   32.7600 C   0  0  0  0  0  0  0  0  0  0  0  0
   34.6540   30.8440   32.4900 O   0  0  0  0  0  0  0  0  0  0  0  0
   35.0790   29.2060   34.1850 N   0  0  0  0  0  0  0  0  0  0  0  0
   35.2820   28.2160   34.4360 H   0  0  0  0  0  0  0  0  0  0  0  0
   35.2360   28.6160   31.7850 O   0  0  0  0  0  0  0  0  0  0  0  0
   36.2650   27.7270   31.9990 C   0  0  0  0  0  0  0  0  0  0  0  0
   37.3730   28.2540   32.3080 O   0  0  0  0  0  0  0  0  0  0  0  0
   36.3000   26.2470   31.9250 C   0  0  0  0  0  0  0  0  0  0  0  0
   35.4240   25.4800   31.1620 C   0  0  0  0  0  3  0  0  0  0  0  0
   35.4860   24.1200   31.1160 C   0  0  0  0  0  0  0  0  0  0  0  0
   34.7850   23.5570   30.5090 H   0  0  0  0  0  0  0  0  0  0  0  0
   36.4380   23.4930   31.8470 N   0  0  0  0  0  0  0  0  0  0  0  0
   37.2840   24.2080   32.5820 C   0  0  0  0  0  3  0  0  0  0  0  0
   37.1980   25.5340   32.6040 N   0  0  0  0  0  0  0  0  0  0  0  0
  1  2  1  0  0  0  0
  2  3  2  0  0  0  0
  2  7  1  0  0  0  0
  3  8  1  0  0  0  0
  4  9  1  0  0  0  0
  4  3  1  0  0  0  0
  5  4  2  0  0  0  0
  6  5  1  0  0  0  0
  6  1  2  0  0  0  0
 10  5  1  0  0  0  0
 11 17  1  0  0  0  0
 12  1  1  0  0  0  0
 12 11  2  0  0  0  0
 13 12  1  0  0  0  0
 14 13  2  0  0  0  0
 14 15  1  0  0  0  0
 15 16  2  0  0  0  0
 16 11  1  0  0  0  0
 18 13  1  0  0  0  0
 19 15  1  0  0  0  0
 20 22  1  0  0  0  0
 21 20  2  0  0  0  0
 22 23  1  0  0  0  0
 22  6  1  0  0  0  0
 24 25  1  0  0  0  0
 24 20  1  0  0  0  0
 25 26  2  0  0  0  0
 27 25  1  0  0  0  0
 27 33  1  0  0  0  0
 28 27  2  0  0  0  0
 29 28  1  0  0  0  0
 29 31  2  0  0  0  0
 30 29  1  0  0  0  0
 31 32  1  0  0  0  0
 32 33  2  0  0  0  0
M  END
>  <minimizedAffinity>
-5.24052858

$$$$

 OpenBabel03272500593D

 33 35  0  0  0  0  0  0  0  0999 V2000
   38.4570   25.4900   35.2780 C   0  0  0  0  0  0  0  0  0  0  0  0
   38.5000   26.7150   35.8840 C   0  0  0  0  0  0  0  0  0  0  0  0
   37.8280   27.8170   35.3550 C   0  0  0  0  0  0  0  0  0  0  0  0
   37.0760   27.6220   34.1360 C   0  0  0  0  0  0  0  0  0  0  0  0
   37.0710   26.3730   33.5770 C   0  0  0  0  0  0  0  0  0  0  0  0
   37.7210   25.3250   34.0920 C   0  0  0  0  0  0  0  0  0  0  0  0
   39.0570   26.8980   36.8050 H   0  0  0  0  0  0  0  0  0  0  0  0
   37.8890   28.7670   35.8660 H   0  0  0  0  0  0  0  0  0  0  0  0
   36.6140   28.5390   33.8440 H   0  0  0  0  0  0  0  0  0  0  0  0
   36.4380   26.4530   32.7080 H   0  0  0  0  0  0  0  0  0  0  0  0
   38.5830   23.9020   37.1380 C   0  0  0  0  0  0  0  0  0  0  0  0
   39.1810   24.4400   35.9600 C   0  0  0  0  0  0  0  0  0  0  0  0
   40.3850   23.8810   35.6120 C   0  0  0  0  0  0  0  0  0  0  0  0
   40.9290   22.9020   36.3520 N   0  0  0  0  0  0  0  0  0  0  0  0
   40.3540   22.4120   37.4500 C   0  0  0  0  0  0  0  0  0  0  0  0
   39.1840   22.9180   37.8320 N   0  0  0  0  0  0  0  0  0  0  0  0
   37.6380   24.2960   37.4680 H   0  0  0  0  0  0  0  0  0  0  0  0
   40.7950   24.3250   34.7120 H   0  0  0  0  0  0  0  0  0  0  0  0
   40.9380   21.6250   37.9160 H   0  0  0  0  0  0  0  0  0  0  0  0
   38.6910   24.0650   32.3550 C   0  0  0  0  0  0  0  0  0  0  0  0
   39.3540   25.1310   32.0730 O   0  0  0  0  0  0  0  0  0  0  0  0
   37.7040   24.1010   33.4700 N   0  0  0  0  0  0  0  0  0  0  0  0
   37.1150   23.2700   33.6890 H   0  0  0  0  0  0  0  0  0  0  0  0
   38.8250   22.8160   31.6740 O   0  0  0  0  0  0  0  0  0  0  0  0
   38.4180   21.6600   32.3010 C   0  0  0  0  0  0  0  0  0  0  0  0
   39.2470   21.1770   33.1260 O   0  0  0  0  0  0  0  0  0  0  0  0
   37.1680   20.8750   32.1720 C   0  0  0  0  0  0  0  0  0  0  0  0
   37.1170   19.5410   31.7760 C   0  0  0  0  0  3  0  0  0  0  0  0
   35.9490   18.8490   31.6680 C   0  0  0  0  0  0  0  0  0  0  0  0
   35.9500   17.8100   31.3560 H   0  0  0  0  0  0  0  0  0  0  0  0
   34.7910   19.4900   31.9570 N   0  0  0  0  0  0  0  0  0  0  0  0
   34.8190   20.7640   32.3370 C   0  0  0  0  0  3  0  0  0  0  0  0
   35.9760   21.4100   32.4320 N   0  0  0  0  0  0  0  0  0  0  0  0
  1  2  1  0  0  0  0
  1 12  1  0  0  0  0
  2  7  1  0  0  0  0
  3  8  1  0  0  0  0
  3  2  2  0  0  0  0
  4  3  1  0  0  0  0
  5  6  1  0  0  0  0
  5  4  2  0  0  0  0
  6  1  2  0  0  0  0
  9  4  1  0  0  0  0
 10  5  1  0  0  0  0
 11 17  1  0  0  0  0
 11 16  1  0  0  0  0
 12 11  2  0  0  0  0
 13 12  1  0  0  0  0
 13 14  2  0  0  0  0
 14 15  1  0  0  0  0
 15 16  2  0  0  0  0
 15 19  1  0  0  0  0
 18 13  1  0  0  0  0
 20 22  1  0  0  0  0
 21 20  2  0  0  0  0
 22 23  1  0  0  0  0
 22  6  1  0  0  0  0
 24 25  1  0  0  0  0
 24 20  1  0  0  0  0
 25 26  2  0  0  0  0
 27 25  1  0  0  0  0
 27 33  1  0  0  0  0
 28 27  2  0  0  0  0
 29 28  1  0  0  0  0
 29 31  2  0  0  0  0
 30 29  1  0  0  0  0
 31 32  1  0  0  0  0
 32 33  2  0  0  0  0
M  END
>  <minimizedAffinity>
-5.18430185

$$$$

 OpenBabel03272500593D

 33 35  0  0  0  0  0  0  0  0999 V2000
   39.2170   23.6450   35.9610 C   0  0  0  0  0  0  0  0  0  0  0  0
   39.9350   22.9340   36.8820 C   0  0  0  0  0  0  0  0  0  0  0  0
   39.6510   23.0080   38.2460 C   0  0  0  0  0  0  0  0  0  0  0  0
   38.5640   23.8670   38.6600 C   0  0  0  0  0  0  0  0  0  0  0  0
   37.8830   24.5530   37.6900 C   0  0  0  0  0  0  0  0  0  0  0  0
   38.1660   24.4750   36.3870 C   0  0  0  0  0  0  0  0  0  0  0  0
   40.7610   22.2760   36.6060 H   0  0  0  0  0  0  0  0  0  0  0  0
   40.2430   22.4300   38.9400 H   0  0  0  0  0  0  0  0  0  0  0  0
   38.4550   23.8300   39.7210 H   0  0  0  0  0  0  0  0  0  0  0  0
   37.1150   25.0970   38.2140 H   0  0  0  0  0  0  0  0  0  0  0  0
   39.1440   22.2570   33.9460 C   0  0  0  0  0  0  0  0  0  0  0  0
   39.6120   23.4430   34.5850 C   0  0  0  0  0  0  0  0  0  0  0  0
   40.3850   24.2610   33.7990 C   0  0  0  0  0  0  0  0  0  0  0  0
   40.6600   23.9340   32.5260 N   0  0  0  0  0  0  0  0  0  0  0  0
   40.2130   22.8190   31.9460 C   0  0  0  0  0  0  0  0  0  0  0  0
   39.4580   21.9910   32.6640 N   0  0  0  0  0  0  0  0  0  0  0  0
   38.5330   21.5710   34.5050 H   0  0  0  0  0  0  0  0  0  0  0  0
   40.7140   25.1460   34.3310 H   0  0  0  0  0  0  0  0  0  0  0  0
   40.5360   22.7230   30.9140 H   0  0  0  0  0  0  0  0  0  0  0  0
   38.0210   26.5900   35.3600 C   0  0  0  0  0  0  0  0  0  0  0  0
   38.9810   26.9370   36.1440 O   0  0  0  0  0  0  0  0  0  0  0  0
   37.4660   25.2110   35.4620 N   0  0  0  0  0  0  0  0  0  0  0  0
   36.6560   24.9170   34.8770 H   0  0  0  0  0  0  0  0  0  0  0  0
   37.4260   27.4360   34.3740 O   0  0  0  0  0  0  0  0  0  0  0  0
   37.4730   27.0610   33.0500 C   0  0  0  0  0  0  0  0  0  0  0  0
   38.2970   27.7060   32.3390 O   0  0  0  0  0  0  0  0  0  0  0  0
   36.7130   26.0280   32.3070 C   0  0  0  0  0  0  0  0  0  0  0  0
   35.6530   26.3010   31.4470 C   0  0  0  0  0  3  0  0  0  0  0  0
   34.9770   25.3250   30.7790 C   0  0  0  0  0  0  0  0  0  0  0  0
   34.1560   25.5780   30.1170 H   0  0  0  0  0  0  0  0  0  0  0  0
   35.3540   24.0370   30.9640 N   0  0  0  0  0  0  0  0  0  0  0  0
   36.3640   23.7570   31.7820 C   0  0  0  0  0  3  0  0  0  0  0  0
   37.0030   24.7320   32.4180 N   0  0  0  0  0  0  0  0  0  0  0  0
  1  6  2  0  0  0  0
  1  2  1  0  0  0  0
  2  3  2  0  0  0  0
  3  4  1  0  0  0  0
  3  8  1  0  0  0  0
  4  9  1  0  0  0  0
  5 10  1  0  0  0  0
  5  4  2  0  0  0  0
  6  5  1  0  0  0  0
  7  2  1  0  0  0  0
 11 17  1  0  0  0  0
 11 12  1  0  0  0  0
 12  1  1  0  0  0  0
 13 18  1  0  0  0  0
 13 12  2  0  0  0  0
 14 13  1  0  0  0  0
 15 14  2  0  0  0  0
 15 16  1  0  0  0  0
 16 11  2  0  0  0  0
 19 15  1  0  0  0  0
 20 22  1  0  0  0  0
 20 21  2  0  0  0  0
 22  6  1  0  0  0  0
 23 22  1  0  0  0  0
 24 20  1  0  0  0  0
 25 24  1  0  0  0  0
 26 25  2  0  0  0  0
 27 33  1  0  0  0  0
 27 25  1  0  0  0  0
 28 27  2  0  0  0  0
 29 31  2  0  0  0  0
 29 28  1  0  0  0  0
 30 29  1  0  0  0  0
 31 32  1  0  0  0  0
 32 33  2  0  0  0  0
M  END
>  <minimizedAffinity>
-5.13899994

$$$$

 OpenBabel03272500593D

 33 35  0  0  0  0  0  0  0  0999 V2000
   41.4830   22.2030   36.3100 C   0  0  0  0  0  0  0  0  0  0  0  0
   41.8640   21.0970   37.0170 C   0  0  0  0  0  0  0  0  0  0  0  0
   43.1110   20.5000   36.8280 C   0  0  0  0  0  0  0  0  0  0  0  0
   43.9970   21.0930   35.8510 C   0  0  0  0  0  0  0  0  0  0  0  0
   43.5580   22.1990   35.1750 C   0  0  0  0  0  0  0  0  0  0  0  0
   42.3600   22.7610   35.3630 C   0  0  0  0  0  0  0  0  0  0  0  0
   41.2210   20.6240   37.7620 H   0  0  0  0  0  0  0  0  0  0  0  0
   43.3710   19.6270   37.4080 H   0  0  0  0  0  0  0  0  0  0  0  0
   44.9100   20.5420   35.8080 H   0  0  0  0  0  0  0  0  0  0  0  0
   44.3760   22.4810   34.5310 H   0  0  0  0  0  0  0  0  0  0  0  0
   39.8920   22.9420   38.0170 C   0  0  0  0  0  0  0  0  0  0  0  0
   40.1740   22.7220   36.6360 C   0  0  0  0  0  0  0  0  0  0  0  0
   39.1520   23.0410   35.7770 C   0  0  0  0  0  0  0  0  0  0  0  0
   37.9880   23.5230   36.2400 N   0  0  0  0  0  0  0  0  0  0  0  0
   37.7440   23.7220   37.5350 C   0  0  0  0  0  0  0  0  0  0  0  0
   38.7010   23.4300   38.4120 N   0  0  0  0  0  0  0  0  0  0  0  0
   40.6490   22.7130   38.7460 H   0  0  0  0  0  0  0  0  0  0  0  0
   39.4180   22.8560   34.7430 H   0  0  0  0  0  0  0  0  0  0  0  0
   36.7500   24.1170   37.7210 H   0  0  0  0  0  0  0  0  0  0  0  0
   42.6250   25.0900   35.1350 C   0  0  0  0  0  0  0  0  0  0  0  0
   43.3890   25.0140   36.1690 O   0  0  0  0  0  0  0  0  0  0  0  0
   41.9630   23.8530   34.6330 N   0  0  0  0  0  0  0  0  0  0  0  0
   41.2990   23.8920   33.8310 H   0  0  0  0  0  0  0  0  0  0  0  0
   42.3520   26.2890   34.4080 O   0  0  0  0  0  0  0  0  0  0  0  0
   41.1840   26.3870   33.6860 C   0  0  0  0  0  0  0  0  0  0  0  0
   41.2890   26.1150   32.4560 O   0  0  0  0  0  0  0  0  0  0  0  0
   39.8140   26.7650   34.1060 C   0  0  0  0  0  0  0  0  0  0  0  0
   39.4130   26.9180   35.4310 C   0  0  0  0  0  3  0  0  0  0  0  0
   38.1440   27.2680   35.7800 C   0  0  0  0  0  0  0  0  0  0  0  0
   37.8710   27.3760   36.8250 H   0  0  0  0  0  0  0  0  0  0  0  0
   37.2370   27.4730   34.7950 N   0  0  0  0  0  0  0  0  0  0  0  0
   37.6010   27.3320   33.5240 C   0  0  0  0  0  3  0  0  0  0  0  0
   38.8470   26.9900   33.2160 N   0  0  0  0  0  0  0  0  0  0  0  0
  1 12  1  0  0  0  0
  1  2  1  0  0  0  0
  2  7  1  0  0  0  0
  3  2  2  0  0  0  0
  3  8  1  0  0  0  0
  4  3  1  0  0  0  0
  5  6  1  0  0  0  0
  5  4  2  0  0  0  0
  6  1  2  0  0  0  0
  9  4  1  0  0  0  0
 10  5  1  0  0  0  0
 11 16  1  0  0  0  0
 11 17  1  0  0  0  0
 12 11  2  0  0  0  0
 13 14  2  0  0  0  0
 13 12  1  0  0  0  0
 14 15  1  0  0  0  0
 15 19  1  0  0  0  0
 15 16  2  0  0  0  0
 18 13  1  0  0  0  0
 20 21  2  0  0  0  0
 22 20  1  0  0  0  0
 22  6  1  0  0  0  0
 23 22  1  0  0  0  0
 24 20  1  0  0  0  0
 25 27  1  0  0  0  0
 25 24  1  0  0  0  0
 26 25  2  0  0  0  0
 27 28  1  0  0  0  0
 28 29  2  0  0  0  0
 29 30  1  0  0  0  0
 31 29  1  0  0  0  0
 32 31  2  0  0  0  0
 33 32  1  0  0  0  0
 33 27  2  0  0  0  0
M  END
>  <minimizedAffinity>
-5.06580496

$$$$

 OpenBabel03272500593D

 33 35  0  0  0  0  0  0  0  0999 V2000
   37.1930   21.8630   33.1420 C   0  0  0  0  0  0  0  0  0  0  0  0
   36.3960   20.9340   33.7510 C   0  0  0  0  0  0  0  0  0  0  0  0
   35.2900   20.3810   33.1040 C   0  0  0  0  0  0  0  0  0  0  0  0
   35.0120   20.8240   31.7560 C   0  0  0  0  0  0  0  0  0  0  0  0
   35.8460   21.7560   31.2010 C   0  0  0  0  0  0  0  0  0  0  0  0
   36.9010   22.2800   31.8320 C   0  0  0  0  0  0  0  0  0  0  0  0
   36.5770   20.5770   34.7660 H   0  0  0  0  0  0  0  0  0  0  0  0
   34.6870   19.6500   33.6220 H   0  0  0  0  0  0  0  0  0  0  0  0
   34.1460   20.3240   31.3810 H   0  0  0  0  0  0  0  0  0  0  0  0
   35.4710   21.9140   30.2030 H   0  0  0  0  0  0  0  0  0  0  0  0
   38.0510   23.3320   34.9030 C   0  0  0  0  0  0  0  0  0  0  0  0
   38.3150   22.3220   33.9300 C   0  0  0  0  0  0  0  0  0  0  0  0
   39.6200   21.9030   33.8660 C   0  0  0  0  0  0  0  0  0  0  0  0
   40.5520   22.4280   34.6770 N   0  0  0  0  0  0  0  0  0  0  0  0
   40.2860   23.3720   35.5800 C   0  0  0  0  0  0  0  0  0  0  0  0
   39.0350   23.8140   35.6850 N   0  0  0  0  0  0  0  0  0  0  0  0
   37.0490   23.7060   35.0050 H   0  0  0  0  0  0  0  0  0  0  0  0
   39.7660   21.1370   33.1130 H   0  0  0  0  0  0  0  0  0  0  0  0
   41.1630   23.6740   36.1440 H   0  0  0  0  0  0  0  0  0  0  0  0
   37.0680   24.5830   31.3720 C   0  0  0  0  0  0  0  0  0  0  0  0
   35.9150   24.6880   31.9340 O   0  0  0  0  0  0  0  0  0  0  0  0
   37.6860   23.2350   31.2340 N   0  0  0  0  0  0  0  0  0  0  0  0
   38.5930   23.1120   30.7370 H   0  0  0  0  0  0  0  0  0  0  0  0
   37.8270   25.6780   30.8550 O   0  0  0  0  0  0  0  0  0  0  0  0
   37.9800   26.8120   31.6210 C   0  0  0  0  0  0  0  0  0  0  0  0
   37.7810   27.9020   31.0130 O   0  0  0  0  0  0  0  0  0  0  0  0
   38.3480   26.9750   33.0480 C   0  0  0  0  0  0  0  0  0  0  0  0
   39.6490   26.8950   33.5370 C   0  0  0  0  0  3  0  0  0  0  0  0
   39.9510   27.0510   34.8550 C   0  0  0  0  0  0  0  0  0  0  0  0
   40.9780   26.9810   35.1980 H   0  0  0  0  0  0  0  0  0  0  0  0
   38.9400   27.2920   35.7240 N   0  0  0  0  0  0  0  0  0  0  0  0
   37.6910   27.3730   35.2760 C   0  0  0  0  0  3  0  0  0  0  0  0
   37.4300   27.2160   33.9830 N   0  0  0  0  0  0  0  0  0  0  0  0
  1  2  1  0  0  0  0
  1 12  1  0  0  0  0
  2  7  1  0  0  0  0
  3  8  1  0  0  0  0
  3  2  2  0  0  0  0
  4  3  1  0  0  0  0
  5  4  2  0  0  0  0
  5  6  1  0  0  0  0
  6  1  2  0  0  0  0
  9  4  1  0  0  0  0
 10  5  1  0  0  0  0
 11 17  1  0  0  0  0
 11 16  1  0  0  0  0
 12 11  2  0  0  0  0
 13 12  1  0  0  0  0
 13 14  2  0  0  0  0
 14 15  1  0  0  0  0
 15 16  2  0  0  0  0
 15 19  1  0  0  0  0
 18 13  1  0  0  0  0
 20 21  2  0  0  0  0
 22 20  1  0  0  0  0
 22  6  1  0  0  0  0
 23 22  1  0  0  0  0
 24 20  1  0  0  0  0
 24 25  1  0  0  0  0
 25 27  1  0  0  0  0
 26 25  2  0  0  0  0
 27 28  2  0  0  0  0
 27 33  1  0  0  0  0
 28 29  1  0  0  0  0
 29 30  1  0  0  0  0
 29 31  2  0  0  0  0
 32 31  1  0  0  0  0
 33 32  2  0  0  0  0
M  END
>  <minimizedAffinity>
-5.05926657

$$$$

 OpenBabel03272500593D

 33 35  0  0  0  0  0  0  0  0999 V2000
   36.4470   22.8730   31.8580 C   0  0  0  0  0  0  0  0  0  0  0  0
   35.4040   23.6410   31.4210 C   0  0  0  0  0  0  0  0  0  0  0  0
   35.5370   25.0160   31.2240 C   0  0  0  0  0  0  0  0  0  0  0  0
   36.8270   25.6090   31.4990 C   0  0  0  0  0  0  0  0  0  0  0  0
   37.8320   24.7890   31.9340 C   0  0  0  0  0  0  0  0  0  0  0  0
   37.6910   23.4730   32.1210 C   0  0  0  0  0  0  0  0  0  0  0  0
   34.4180   23.2260   31.2030 H   0  0  0  0  0  0  0  0  0  0  0  0
   34.6880   25.5840   30.8780 H   0  0  0  0  0  0  0  0  0  0  0  0
   36.7910   26.6590   31.3080 H   0  0  0  0  0  0  0  0  0  0  0  0
   38.6920   25.4290   32.0480 H   0  0  0  0  0  0  0  0  0  0  0  0
   35.7060   21.0090   33.2610 C   0  0  0  0  0  0  0  0  0  0  0  0
   36.1610   21.4620   31.9870 C   0  0  0  0  0  0  0  0  0  0  0  0
   36.2670   20.4870   31.0270 C   0  0  0  0  0  0  0  0  0  0  0  0
   35.9560   19.2110   31.3050 N   0  0  0  0  0  0  0  0  0  0  0  0
   35.5320   18.8060   32.5020 C   0  0  0  0  0  0  0  0  0  0  0  0
   35.4110   19.7120   33.4700 N   0  0  0  0  0  0  0  0  0  0  0  0
   35.6010   21.7210   34.0590 H   0  0  0  0  0  0  0  0  0  0  0  0
   36.6160   20.8830   30.0810 H   0  0  0  0  0  0  0  0  0  0  0  0
   35.3290   17.7410   32.5390 H   0  0  0  0  0  0  0  0  0  0  0  0
   38.8330   22.8110   34.0710 C   0  0  0  0  0  0  0  0  0  0  0  0
   38.0410   23.6080   34.6980 O   0  0  0  0  0  0  0  0  0  0  0  0
   38.7280   22.7050   32.5890 N   0  0  0  0  0  0  0  0  0  0  0  0
   39.3890   22.1080   32.0480 H   0  0  0  0  0  0  0  0  0  0  0  0
   39.8300   21.9960   34.6910 O   0  0  0  0  0  0  0  0  0  0  0  0
   40.5370   22.4960   35.7610 C   0  0  0  0  0  0  0  0  0  0  0  0
   40.1210   22.1290   36.8970 O   0  0  0  0  0  0  0  0  0  0  0  0
   41.7090   23.4010   35.8110 C   0  0  0  0  0  0  0  0  0  0  0  0
   42.8590   23.1560   36.5570 C   0  0  0  0  0  3  0  0  0  0  0  0
   43.9180   24.0110   36.5790 C   0  0  0  0  0  0  0  0  0  0  0  0
   44.7970   23.7840   37.1740 H   0  0  0  0  0  0  0  0  0  0  0  0
   43.8460   25.1470   35.8450 N   0  0  0  0  0  0  0  0  0  0  0  0
   42.7570   25.3990   35.1260 C   0  0  0  0  0  3  0  0  0  0  0  0
   41.7400   24.5440   35.1250 N   0  0  0  0  0  0  0  0  0  0  0  0
  1 12  1  0  0  0  0
  1  6  1  0  0  0  0
  2  1  2  0  0  0  0
  3  2  1  0  0  0  0
  3  4  2  0  0  0  0
  4  5  1  0  0  0  0
  5 10  1  0  0  0  0
  5  6  2  0  0  0  0
  6 22  1  0  0  0  0
  7  2  1  0  0  0  0
  8  3  1  0  0  0  0
  9  4  1  0  0  0  0
 11 16  1  0  0  0  0
 11 17  1  0  0  0  0
 12 11  2  0  0  0  0
 13 14  2  0  0  0  0
 13 12  1  0  0  0  0
 14 15  1  0  0  0  0
 15 19  1  0  0  0  0
 15 16  2  0  0  0  0
 18 13  1  0  0  0  0
 20 24  1  0  0  0  0
 20 21  2  0  0  0  0
 22 20  1  0  0  0  0
 23 22  1  0  0  0  0
 24 25  1  0  0  0  0
 25 27  1  0  0  0  0
 25 26  2  0  0  0  0
 27 28  1  0  0  0  0
 28 29  2  0  0  0  0
 29 30  1  0  0  0  0
 31 29  1  0  0  0  0
 32 31  2  0  0  0  0
 33 32  1  0  0  0  0
 33 27  2  0  0  0  0
M  END
>  <minimizedAffinity>
-5.05328512

$$$$

 OpenBabel03272500593D

 33 35  0  0  0  0  0  0  0  0999 V2000
   40.0860   25.0370   34.7380 C   0  0  0  0  0  0  0  0  0  0  0  0
   41.4020   24.7880   35.0100 C   0  0  0  0  0  0  0  0  0  0  0  0
   42.4030   25.7010   34.6820 C   0  0  0  0  0  0  0  0  0  0  0  0
   42.0020   26.9330   34.0390 C   0  0  0  0  0  0  0  0  0  0  0  0
   40.6700   27.1250   33.7930 C   0  0  0  0  0  0  0  0  0  0  0  0
   39.7190   26.2400   34.1100 C   0  0  0  0  0  0  0  0  0  0  0  0
   41.7400   23.8690   35.4940 H   0  0  0  0  0  0  0  0  0  0  0  0
   43.4310   25.4640   34.9140 H   0  0  0  0  0  0  0  0  0  0  0  0
   42.8610   27.5380   33.8450 H   0  0  0  0  0  0  0  0  0  0  0  0
   40.6020   28.1020   33.3420 H   0  0  0  0  0  0  0  0  0  0  0  0
   38.8420   22.9950   34.2100 C   0  0  0  0  0  0  0  0  0  0  0  0
   39.1630   24.0070   35.1620 C   0  0  0  0  0  0  0  0  0  0  0  0
   38.5520   23.8720   36.3830 C   0  0  0  0  0  0  0  0  0  0  0  0
   37.7180   22.8480   36.6260 N   0  0  0  0  0  0  0  0  0  0  0  0
   37.4300   21.9110   35.7220 C   0  0  0  0  0  0  0  0  0  0  0  0
   37.9960   21.9950   34.5210 N   0  0  0  0  0  0  0  0  0  0  0  0
   39.2860   23.0410   33.2320 H   0  0  0  0  0  0  0  0  0  0  0  0
   38.8300   24.6640   37.0680 H   0  0  0  0  0  0  0  0  0  0  0  0
   36.7380   21.1630   36.0970 H   0  0  0  0  0  0  0  0  0  0  0  0
   37.7500   27.2690   34.8920 C   0  0  0  0  0  0  0  0  0  0  0  0
   38.4300   27.5680   35.9430 O   0  0  0  0  0  0  0  0  0  0  0  0
   38.4000   26.4750   33.8110 N   0  0  0  0  0  0  0  0  0  0  0  0
   37.8610   26.1730   32.9730 H   0  0  0  0  0  0  0  0  0  0  0  0
   36.3910   27.6450   34.6640 O   0  0  0  0  0  0  0  0  0  0  0  0
   36.1190   28.7620   33.9070 C   0  0  0  0  0  0  0  0  0  0  0  0
   35.6130   29.7310   34.5420 O   0  0  0  0  0  0  0  0  0  0  0  0
   36.3130   29.0240   32.4610 C   0  0  0  0  0  0  0  0  0  0  0  0
   36.1460   30.2680   31.8600 C   0  0  0  0  0  3  0  0  0  0  0  0
   36.3340   30.4730   30.5270 C   0  0  0  0  0  0  0  0  0  0  0  0
   36.1930   31.4580   30.0950 H   0  0  0  0  0  0  0  0  0  0  0  0
   36.6980   29.4190   29.7570 N   0  0  0  0  0  0  0  0  0  0  0  0
   36.8630   28.2230   30.3130 C   0  0  0  0  0  3  0  0  0  0  0  0
   36.6720   28.0560   31.6170 N   0  0  0  0  0  0  0  0  0  0  0  0
  1  2  1  0  0  0  0
  1 12  1  0  0  0  0
  2  7  1  0  0  0  0
  3  8  1  0  0  0  0
  3  2  2  0  0  0  0
  4  3  1  0  0  0  0
  5  4  2  0  0  0  0
  5  6  1  0  0  0  0
  6  1  2  0  0  0  0
  9  4  1  0  0  0  0
 10  5  1  0  0  0  0
 11 16  2  0  0  0  0
 11 12  1  0  0  0  0
 12 13  2  0  0  0  0
 13 14  1  0  0  0  0
 13 18  1  0  0  0  0
 15 19  1  0  0  0  0
 15 14  2  0  0  0  0
 16 15  1  0  0  0  0
 17 11  1  0  0  0  0
 20 21  2  0  0  0  0
 22  6  1  0  0  0  0
 22 20  1  0  0  0  0
 23 22  1  0  0  0  0
 24 20  1  0  0  0  0
 25 26  2  0  0  0  0
 25 24  1  0  0  0  0
 27 25  1  0  0  0  0
 28 27  1  0  0  0  0
 29 28  2  0  0  0  0
 30 29  1  0  0  0  0
 31 32  2  0  0  0  0
 31 29  1  0  0  0  0
 32 33  1  0  0  0  0
 33 27  2  0  0  0  0
M  END
>  <minimizedAffinity>
-5.01057816

$$$$

 OpenBabel03272500593D

 33 35  0  0  0  0  0  0  0  0999 V2000
   39.6920   23.4650   36.3280 C   0  0  0  0  0  0  0  0  0  0  0  0
   39.9090   23.0150   37.6000 C   0  0  0  0  0  0  0  0  0  0  0  0
   39.0020   23.2660   38.6300 C   0  0  0  0  0  0  0  0  0  0  0  0
   37.8130   24.0230   38.3070 C   0  0  0  0  0  0  0  0  0  0  0  0
   37.6520   24.4460   37.0150 C   0  0  0  0  0  0  0  0  0  0  0  0
   38.5300   24.2010   36.0380 C   0  0  0  0  0  0  0  0  0  0  0  0
   40.7940   22.4410   37.8790 H   0  0  0  0  0  0  0  0  0  0  0  0
   39.2120   22.8920   39.6210 H   0  0  0  0  0  0  0  0  0  0  0  0
   37.2090   24.1400   39.1800 H   0  0  0  0  0  0  0  0  0  0  0  0
   36.7030   24.9570   37.0000 H   0  0  0  0  0  0  0  0  0  0  0  0
   41.8500   23.9530   35.2800 C   0  0  0  0  0  0  0  0  0  0  0  0
   40.7080   23.1030   35.3650 C   0  0  0  0  0  0  0  0  0  0  0  0
   40.7200   22.0270   34.5130 C   0  0  0  0  0  0  0  0  0  0  0  0
   41.7480   21.8240   33.6750 N   0  0  0  0  0  0  0  0  0  0  0  0
   42.8080   22.6300   33.6100 C   0  0  0  0  0  0  0  0  0  0  0  0
   42.8480   23.6890   34.4150 N   0  0  0  0  0  0  0  0  0  0  0  0
   41.9050   24.8160   35.9200 H   0  0  0  0  0  0  0  0  0  0  0  0
   39.8310   21.4150   34.6180 H   0  0  0  0  0  0  0  0  0  0  0  0
   43.5380   22.3080   32.8750 H   0  0  0  0  0  0  0  0  0  0  0  0
   38.7240   26.1110   34.6740 C   0  0  0  0  0  0  0  0  0  0  0  0
   39.1150   26.7210   35.7370 O   0  0  0  0  0  0  0  0  0  0  0  0
   38.3300   24.6770   34.7650 N   0  0  0  0  0  0  0  0  0  0  0  0
   37.9590   24.1710   33.9340 H   0  0  0  0  0  0  0  0  0  0  0  0
   38.6330   26.7060   33.3780 O   0  0  0  0  0  0  0  0  0  0  0  0
   37.4010   26.8250   32.7760 C   0  0  0  0  0  0  0  0  0  0  0  0
   36.7250   25.7580   32.7220 O   0  0  0  0  0  0  0  0  0  0  0  0
   36.7270   27.9980   32.1710 C   0  0  0  0  0  0  0  0  0  0  0  0
   35.6440   28.6620   32.7430 C   0  0  0  0  0  3  0  0  0  0  0  0
   35.0490   29.7380   32.1580 C   0  0  0  0  0  0  0  0  0  0  0  0
   34.2070   30.2280   32.6350 H   0  0  0  0  0  0  0  0  0  0  0  0
   35.5310   30.1760   30.9710 N   0  0  0  0  0  0  0  0  0  0  0  0
   36.5650   29.5560   30.4090 C   0  0  0  0  0  3  0  0  0  0  0  0
   37.1240   28.5080   31.0060 N   0  0  0  0  0  0  0  0  0  0  0  0
  1  2  1  0  0  0  0
  2  7  1  0  0  0  0
  2  3  2  0  0  0  0
  3  8  1  0  0  0  0
  4  3  1  0  0  0  0
  4  9  1  0  0  0  0
  5  4  2  0  0  0  0
  6  1  2  0  0  0  0
  6  5  1  0  0  0  0
 10  5  1  0  0  0  0
 11 12  1  0  0  0  0
 11 17  1  0  0  0  0
 12  1  1  0  0  0  0
 13 18  1  0  0  0  0
 13 12  2  0  0  0  0
 14 13  1  0  0  0  0
 15 14  2  0  0  0  0
 15 16  1  0  0  0  0
 16 11  2  0  0  0  0
 19 15  1  0  0  0  0
 20 22  1  0  0  0  0
 20 21  2  0  0  0  0
 22  6  1  0  0  0  0
 23 22  1  0  0  0  0
 24 20  1  0  0  0  0
 25 24  1  0  0  0  0
 26 25  2  0  0  0  0
 27 28  1  0  0  0  0
 27 25  1  0  0  0  0
 29 30  1  0  0  0  0
 29 28  2  0  0  0  0
 31 29  1  0  0  0  0
 32 31  2  0  0  0  0
 32 33  1  0  0  0  0
 33 27  2  0  0  0  0
M  END
>  <minimizedAffinity>
-4.98802185

$$$$
