
 OpenBabel03272508593D

 38 41  0  0  1  0  0  0  0  0999 V2000
   35.8880   24.7940   31.3580 C   0  0  0  0  0  0  0  0  0  0  0  0
   34.7640   25.0480   30.8730 O   0  0  0  0  0  0  0  0  0  0  0  0
   36.9520   25.7880   31.3570 N   0  0  0  0  0  0  0  0  0  0  0  0
   37.9400   25.5790   31.5510 H   0  0  0  0  0  0  0  0  0  0  0  0
   36.2020   23.4750   31.9560 C   0  0  0  0  0  0  0  0  0  0  0  0
   35.3780   22.4140   31.7060 C   0  0  0  0  0  0  0  0  0  0  0  0
   35.7210   21.2080   32.2940 C   0  0  0  0  0  0  0  0  0  0  0  0
   36.8350   21.1380   33.0770 C   0  0  0  0  0  0  0  0  0  0  0  0
   37.6680   22.2110   33.3290 C   0  0  0  0  0  0  0  0  0  0  0  0
   37.3040   23.3580   32.7430 N   0  0  0  0  0  0  0  0  0  0  0  0
   34.4980   22.4910   31.0820 H   0  0  0  0  0  0  0  0  0  0  0  0
   35.0930   20.3450   32.1200 H   0  0  0  0  0  0  0  0  0  0  0  0
   37.0580   20.1600   33.5160 H   0  0  0  0  0  0  0  0  0  0  0  0
   38.8550   22.0850   34.1770 C   0  0  0  0  0  0  0  0  0  0  0  0
   39.9040   21.6230   33.6740 O   0  0  0  0  0  0  0  0  0  0  0  0
   38.8640   22.4740   35.5780 C   0  0  0  0  0  0  0  0  0  0  0  0
   40.0440   22.3080   36.2720 C   0  0  0  0  0  3  0  0  0  0  0  0
   40.0910   22.6690   37.6160 C   0  0  0  0  0  0  0  0  0  0  0  0
   41.0060   22.5510   38.1920 H   0  0  0  0  0  0  0  0  0  0  0  0
   38.9660   23.1700   38.1820 N   0  0  0  0  0  0  0  0  0  0  0  0
   37.8260   23.3270   37.4970 C   0  0  0  0  0  3  0  0  0  0  0  0
   37.7770   22.9770   36.1920 N   0  0  0  0  0  0  0  0  0  0  0  0
   36.3280   28.0680   32.1290 C   0  0  2  0  0  0  0  0  0  0  0  0
   37.6540   28.1810   31.4670 C   0  0  0  0  0  0  0  0  0  0  0  0
   36.5680   27.1490   31.0640 C   0  0  1  0  0  0  0  0  0  0  0  0
   36.3960   27.7300   33.1970 H   0  0  0  0  0  0  0  0  0  0  0  0
   37.7630   29.0770   30.8140 H   0  0  0  0  0  0  0  0  0  0  0  0
   38.5640   27.8110   31.9550 H   0  0  0  0  0  0  0  0  0  0  0  0
   36.1290   27.3610   30.0500 H   0  0  0  0  0  0  0  0  0  0  0  0
   33.1960   29.9940   32.5860 C   0  0  0  0  0  0  0  0  0  0  0  0
   33.4280   31.1330   31.7560 C   0  0  0  0  0  0  0  0  0  0  0  0
   34.6790   31.2050   31.0370 C   0  0  0  0  0  0  0  0  0  0  0  0
   35.5970   30.1920   31.1720 N   0  0  0  0  0  0  0  0  0  0  0  0
   35.3020   29.1490   31.9770 C   0  0  0  0  0  0  0  0  0  0  0  0
   34.1190   29.0190   32.6940 N   0  0  0  0  0  0  0  0  0  0  0  0
   32.2420   30.0070   33.0930 H   0  0  0  0  0  0  0  0  0  0  0  0
   32.7230   31.9310   31.6420 H   0  0  0  0  0  0  0  0  0  0  0  0
   34.8540   32.0680   30.4100 H   0  0  0  0  0  0  0  0  0  0  0  0
  1  5  1  0  0  0  0
  2  1  2  0  0  0  0
  3  1  1  0  0  0  0
  3  4  1  0  0  0  0
  5 10  1  0  0  0  0
  6  5  2  0  0  0  0
  6  7  1  0  0  0  0
  7  8  2  0  0  0  0
  8  9  1  0  0  0  0
  8 13  1  0  0  0  0
  9 14  1  0  0  0  0
 10  9  2  0  0  0  0
 11  6  1  0  0  0  0
 12  7  1  0  0  0  0
 14 16  1  0  0  0  0
 15 14  2  0  0  0  0
 16 22  2  0  0  0  0
 16 17  1  0  0  0  0
 17 18  2  0  0  0  0
 18 20  1  0  0  0  0
 18 19  1  0  0  0  0
 21 20  2  0  0  0  0
 22 21  1  0  0  0  0
 23 26  1  1  0  0  0
 24 28  1  0  0  0  0
 24 23  1  0  0  0  0
 25 29  1  6  0  0  0
 25  3  1  0  0  0  0
 25 24  1  0  0  0  0
 25 23  1  0  0  0  0
 27 24  1  0  0  0  0
 30 35  1  0  0  0  0
 30 36  1  0  0  0  0
 31 30  2  0  0  0  0
 32 33  2  0  0  0  0
 32 31  1  0  0  0  0
 33 34  1  0  0  0  0
 34 23  1  0  0  0  0
 34 35  2  0  0  0  0
 37 31  1  0  0  0  0
 38 32  1  0  0  0  0
M  END
>  <minimizedAffinity>
-5.80442524

$$$$

 OpenBabel03272508593D

 38 41  0  0  1  0  0  0  0  0999 V2000
   38.1800   26.8600   32.9420 C   0  0  0  0  0  0  0  0  0  0  0  0
   39.1680   27.1740   33.6410 O   0  0  0  0  0  0  0  0  0  0  0  0
   37.9110   25.4710   32.5960 N   0  0  0  0  0  0  0  0  0  0  0  0
   37.2460   25.1740   31.8710 H   0  0  0  0  0  0  0  0  0  0  0  0
   37.2300   27.8760   32.4290 C   0  0  0  0  0  0  0  0  0  0  0  0
   37.4130   28.3890   31.1760 C   0  0  0  0  0  0  0  0  0  0  0  0
   36.4960   29.3360   30.7520 C   0  0  0  0  0  0  0  0  0  0  0  0
   35.4790   29.7020   31.5830 C   0  0  0  0  0  0  0  0  0  0  0  0
   35.2940   29.1820   32.8500 C   0  0  0  0  0  0  0  0  0  0  0  0
   36.2010   28.2700   33.2230 N   0  0  0  0  0  0  0  0  0  0  0  0
   38.2270   28.0840   30.5320 H   0  0  0  0  0  0  0  0  0  0  0  0
   36.6070   29.7650   29.7660 H   0  0  0  0  0  0  0  0  0  0  0  0
   34.7840   30.4540   31.1950 H   0  0  0  0  0  0  0  0  0  0  0  0
   34.1850   29.6090   33.7060 C   0  0  0  0  0  0  0  0  0  0  0  0
   33.0310   29.2110   33.4310 O   0  0  0  0  0  0  0  0  0  0  0  0
   34.3720   30.4740   34.8590 C   0  0  0  0  0  0  0  0  0  0  0  0
   35.6000   31.0850   34.9970 C   0  0  0  0  0  3  0  0  0  0  0  0
   35.8150   31.9210   36.0900 C   0  0  0  0  0  0  0  0  0  0  0  0
   36.7730   32.4190   36.2290 H   0  0  0  0  0  0  0  0  0  0  0  0
   34.8010   32.0960   36.9710 N   0  0  0  0  0  0  0  0  0  0  0  0
   33.6120   31.4960   36.8250 C   0  0  0  0  0  3  0  0  0  0  0  0
   33.3990   30.6840   35.7650 N   0  0  0  0  0  0  0  0  0  0  0  0
   38.0270   23.8150   34.4460 C   0  0  2  0  0  0  0  0  0  0  0  0
   38.0360   23.0460   33.1740 C   0  0  0  0  0  0  0  0  0  0  0  0
   38.6390   24.4660   33.3340 C   0  0  1  0  0  0  0  0  0  0  0  0
   36.9950   24.1050   34.7780 H   0  0  0  0  0  0  0  0  0  0  0  0
   38.7530   22.1940   33.1600 H   0  0  0  0  0  0  0  0  0  0  0  0
   37.1250   22.9360   32.5720 H   0  0  0  0  0  0  0  0  0  0  0  0
   39.7610   24.4680   33.2530 H   0  0  0  0  0  0  0  0  0  0  0  0
   39.0790   23.2030   37.9460 C   0  0  0  0  0  0  0  0  0  0  0  0
   40.3260   22.5320   37.7640 C   0  0  0  0  0  0  0  0  0  0  0  0
   40.7880   22.3110   36.4140 C   0  0  0  0  0  0  0  0  0  0  0  0
   40.0240   22.7450   35.3580 N   0  0  0  0  0  0  0  0  0  0  0  0
   38.8560   23.3720   35.6130 C   0  0  0  0  0  0  0  0  0  0  0  0
   38.3560   23.6160   36.8870 N   0  0  0  0  0  0  0  0  0  0  0  0
   38.7970   23.3340   38.9810 H   0  0  0  0  0  0  0  0  0  0  0  0
   40.9330   22.1870   38.5780 H   0  0  0  0  0  0  0  0  0  0  0  0
   41.7330   21.8030   36.2780 H   0  0  0  0  0  0  0  0  0  0  0  0
  1  2  2  0  0  0  0
  3  1  1  0  0  0  0
  3 25  1  0  0  0  0
  4  3  1  0  0  0  0
  5  1  1  0  0  0  0
  5 10  1  0  0  0  0
  6  5  2  0  0  0  0
  7  6  1  0  0  0  0
  7  8  2  0  0  0  0
  8  9  1  0  0  0  0
  9 10  2  0  0  0  0
  9 14  1  0  0  0  0
 11  6  1  0  0  0  0
 12  7  1  0  0  0  0
 13  8  1  0  0  0  0
 14 16  1  0  0  0  0
 15 14  2  0  0  0  0
 16 17  2  0  0  0  0
 16 22  1  0  0  0  0
 17 18  1  0  0  0  0
 18 19  1  0  0  0  0
 18 20  2  0  0  0  0
 21 20  1  0  0  0  0
 22 21  2  0  0  0  0
 23 26  1  1  0  0  0
 23 34  1  0  0  0  0
 24 25  1  0  0  0  0
 24 23  1  0  0  0  0
 25 29  1  1  0  0  0
 25 23  1  0  0  0  0
 27 24  1  0  0  0  0
 28 24  1  0  0  0  0
 30 36  1  0  0  0  0
 31 30  1  0  0  0  0
 31 37  1  0  0  0  0
 32 31  2  0  0  0  0
 33 34  2  0  0  0  0
 33 32  1  0  0  0  0
 34 35  1  0  0  0  0
 35 30  2  0  0  0  0
 38 32  1  0  0  0  0
M  END
>  <minimizedAffinity>
-5.68397522

$$$$

 OpenBabel03272508593D

 38 41  0  0  1  0  0  0  0  0999 V2000
   36.9580   26.2770   32.4630 C   0  0  0  0  0  0  0  0  0  0  0  0
   37.2520   26.0560   33.6580 O   0  0  0  0  0  0  0  0  0  0  0  0
   37.0800   25.2360   31.4520 N   0  0  0  0  0  0  0  0  0  0  0  0
   37.0490   25.4070   30.4390 H   0  0  0  0  0  0  0  0  0  0  0  0
   36.4720   27.6010   32.0080 C   0  0  0  0  0  0  0  0  0  0  0  0
   36.9880   28.1470   30.8670 C   0  0  0  0  0  0  0  0  0  0  0  0
   36.4970   29.3870   30.4940 C   0  0  0  0  0  0  0  0  0  0  0  0
   35.5470   29.9900   31.2630 C   0  0  0  0  0  0  0  0  0  0  0  0
   35.0240   29.4360   32.4160 C   0  0  0  0  0  0  0  0  0  0  0  0
   35.5230   28.2380   32.7440 N   0  0  0  0  0  0  0  0  0  0  0  0
   37.7430   27.6520   30.2710 H   0  0  0  0  0  0  0  0  0  0  0  0
   36.8820   29.8510   29.5960 H   0  0  0  0  0  0  0  0  0  0  0  0
   35.1950   30.9680   30.9190 H   0  0  0  0  0  0  0  0  0  0  0  0
   34.0020   30.1240   33.2080 C   0  0  0  0  0  0  0  0  0  0  0  0
   32.8380   30.1890   32.7550 O   0  0  0  0  0  0  0  0  0  0  0  0
   34.2870   30.7330   34.4980 C   0  0  0  0  0  0  0  0  0  0  0  0
   35.5960   31.0780   34.7570 C   0  0  0  0  0  3  0  0  0  0  0  0
   35.9070   31.6630   35.9820 C   0  0  0  0  0  0  0  0  0  0  0  0
   36.9300   31.9470   36.2190 H   0  0  0  0  0  0  0  0  0  0  0  0
   34.9000   31.8670   36.8660 N   0  0  0  0  0  0  0  0  0  0  0  0
   33.6320   31.5280   36.6010 C   0  0  0  0  0  3  0  0  0  0  0  0
   33.3270   30.9600   35.4130 N   0  0  0  0  0  0  0  0  0  0  0  0
   36.8730   22.7820   31.1060 C   0  0  2  0  0  0  0  0  0  0  0  0
   38.3250   23.0960   31.1330 C   0  0  0  0  0  0  0  0  0  0  0  0
   37.2520   23.8840   31.9290 C   0  0  1  0  0  0  0  0  0  0  0  0
   36.4020   22.9590   30.1020 H   0  0  0  0  0  0  0  0  0  0  0  0
   38.9400   22.3640   31.7050 H   0  0  0  0  0  0  0  0  0  0  0  0
   38.8130   23.5960   30.2870 H   0  0  0  0  0  0  0  0  0  0  0  0
   37.3420   23.7290   33.0400 H   0  0  0  0  0  0  0  0  0  0  0  0
   35.5900   20.4170   33.6530 C   0  0  0  0  0  0  0  0  0  0  0  0
   35.3500   19.2460   32.8710 C   0  0  0  0  0  0  0  0  0  0  0  0
   35.6520   19.2980   31.4600 C   0  0  0  0  0  0  0  0  0  0  0  0
   36.1520   20.4570   30.9170 N   0  0  0  0  0  0  0  0  0  0  0  0
   36.3500   21.5210   31.7230 C   0  0  0  0  0  0  0  0  0  0  0  0
   36.0820   21.5360   33.0870 N   0  0  0  0  0  0  0  0  0  0  0  0
   35.3420   20.3050   34.6980 H   0  0  0  0  0  0  0  0  0  0  0  0
   34.9600   18.3360   33.2800 H   0  0  0  0  0  0  0  0  0  0  0  0
   35.4700   18.4110   30.8690 H   0  0  0  0  0  0  0  0  0  0  0  0
  1  2  2  0  0  0  0
  3 25  1  0  0  0  0
  3  1  1  0  0  0  0
  4  3  1  0  0  0  0
  5  1  1  0  0  0  0
  5 10  1  0  0  0  0
  6  5  2  0  0  0  0
  7  6  1  0  0  0  0
  7  8  2  0  0  0  0
  8  9  1  0  0  0  0
  9 10  2  0  0  0  0
  9 14  1  0  0  0  0
 11  6  1  0  0  0  0
 12  7  1  0  0  0  0
 13  8  1  0  0  0  0
 14 16  1  0  0  0  0
 15 14  2  0  0  0  0
 16 17  2  0  0  0  0
 16 22  1  0  0  0  0
 17 18  1  0  0  0  0
 18 19  1  0  0  0  0
 18 20  2  0  0  0  0
 21 20  1  0  0  0  0
 22 21  2  0  0  0  0
 23 26  1  6  0  0  0
 23 24  1  0  0  0  0
 23 34  1  0  0  0  0
 23 25  1  0  0  0  0
 24 27  1  0  0  0  0
 24 25  1  0  0  0  0
 25 29  1  1  0  0  0
 28 24  1  0  0  0  0
 30 36  1  0  0  0  0
 31 37  1  0  0  0  0
 31 30  2  0  0  0  0
 32 31  1  0  0  0  0
 33 32  2  0  0  0  0
 33 34  1  0  0  0  0
 34 35  2  0  0  0  0
 35 30  1  0  0  0  0
 38 32  1  0  0  0  0
M  END
>  <minimizedAffinity>
-5.62085438

$$$$

 OpenBabel03272508593D

 38 41  0  0  1  0  0  0  0  0999 V2000
   37.8830   26.7020   35.4080 C   0  0  0  0  0  0  0  0  0  0  0  0
   38.7630   27.5460   35.6840 O   0  0  0  0  0  0  0  0  0  0  0  0
   36.6570   27.0870   34.7230 N   0  0  0  0  0  0  0  0  0  0  0  0
   35.8230   26.4900   34.6500 H   0  0  0  0  0  0  0  0  0  0  0  0
   38.0350   25.2700   35.7580 C   0  0  0  0  0  0  0  0  0  0  0  0
   38.0950   24.9060   37.0740 C   0  0  0  0  0  0  0  0  0  0  0  0
   38.2390   23.5550   37.3400 C   0  0  0  0  0  0  0  0  0  0  0  0
   38.3160   22.6730   36.3030 C   0  0  0  0  0  0  0  0  0  0  0  0
   38.2550   23.0410   34.9720 C   0  0  0  0  0  0  0  0  0  0  0  0
   38.1140   24.3560   34.7570 N   0  0  0  0  0  0  0  0  0  0  0  0
   38.0330   25.6220   37.8830 H   0  0  0  0  0  0  0  0  0  0  0  0
   38.2910   23.2280   38.3700 H   0  0  0  0  0  0  0  0  0  0  0  0
   38.4290   21.6180   36.5720 H   0  0  0  0  0  0  0  0  0  0  0  0
   38.3410   22.0550   33.8930 C   0  0  0  0  0  0  0  0  0  0  0  0
   39.4510   21.5310   33.6490 O   0  0  0  0  0  0  0  0  0  0  0  0
   37.1900   21.6620   33.0960 C   0  0  0  0  0  0  0  0  0  0  0  0
   36.2630   20.8350   33.6930 C   0  0  0  0  0  3  0  0  0  0  0  0
   35.1470   20.4360   32.9600 C   0  0  0  0  0  0  0  0  0  0  0  0
   34.3970   19.7840   33.4010 H   0  0  0  0  0  0  0  0  0  0  0  0
   35.0260   20.8840   31.6870 N   0  0  0  0  0  0  0  0  0  0  0  0
   35.9340   21.6880   31.1190 C   0  0  0  0  0  3  0  0  0  0  0  0
   37.0180   22.0770   31.8280 N   0  0  0  0  0  0  0  0  0  0  0  0
   35.7770   28.6540   33.0050 C   0  0  2  0  0  0  0  0  0  0  0  0
   35.2920   29.1380   34.3240 C   0  0  0  0  0  0  0  0  0  0  0  0
   36.6380   28.3960   34.1140 C   0  0  1  0  0  0  0  0  0  0  0  0
   35.1420   27.8340   32.5760 H   0  0  0  0  0  0  0  0  0  0  0  0
   35.3420   30.2440   34.4510 H   0  0  0  0  0  0  0  0  0  0  0  0
   34.4900   28.6150   34.8600 H   0  0  0  0  0  0  0  0  0  0  0  0
   37.5270   29.0640   34.2810 H   0  0  0  0  0  0  0  0  0  0  0  0
   36.5440   31.8580   31.3100 C   0  0  0  0  0  0  0  0  0  0  0  0
   36.9790   31.4130   30.0240 C   0  0  0  0  0  0  0  0  0  0  0  0
   36.9870   29.9920   29.7650 C   0  0  0  0  0  0  0  0  0  0  0  0
   36.5850   29.1220   30.7490 N   0  0  0  0  0  0  0  0  0  0  0  0
   36.1880   29.6220   31.9380 C   0  0  0  0  0  0  0  0  0  0  0  0
   36.1550   30.9760   32.2510 N   0  0  0  0  0  0  0  0  0  0  0  0
   36.5640   32.9310   31.4330 H   0  0  0  0  0  0  0  0  0  0  0  0
   37.2960   32.0790   29.2480 H   0  0  0  0  0  0  0  0  0  0  0  0
   37.3170   29.6570   28.7920 H   0  0  0  0  0  0  0  0  0  0  0  0
  1  2  2  0  0  0  0
  1  5  1  0  0  0  0
  3  1  1  0  0  0  0
  4  3  1  0  0  0  0
  5  6  1  0  0  0  0
  6  7  2  0  0  0  0
  6 11  1  0  0  0  0
  7 12  1  0  0  0  0
  8 13  1  0  0  0  0
  8  7  1  0  0  0  0
  9  8  2  0  0  0  0
 10  9  1  0  0  0  0
 10  5  2  0  0  0  0
 14  9  1  0  0  0  0
 15 14  2  0  0  0  0
 16 17  1  0  0  0  0
 16 14  1  0  0  0  0
 18 19  1  0  0  0  0
 18 17  2  0  0  0  0
 20 18  1  0  0  0  0
 21 20  2  0  0  0  0
 21 22  1  0  0  0  0
 22 16  2  0  0  0  0
 23 26  1  6  0  0  0
 23 25  1  0  0  0  0
 23 24  1  0  0  0  0
 24 27  1  0  0  0  0
 24 28  1  0  0  0  0
 25 29  1  1  0  0  0
 25 24  1  0  0  0  0
 25  3  1  0  0  0  0
 30 36  1  0  0  0  0
 30 35  1  0  0  0  0
 31 30  2  0  0  0  0
 32 31  1  0  0  0  0
 32 33  2  0  0  0  0
 33 34  1  0  0  0  0
 34 35  2  0  0  0  0
 34 23  1  0  0  0  0
 37 31  1  0  0  0  0
 38 32  1  0  0  0  0
M  END
>  <minimizedAffinity>
-5.5693059

$$$$

 OpenBabel03272508593D

 38 41  0  0  1  0  0  0  0  0999 V2000
   36.9150   26.4280   32.8900 C   0  0  0  0  0  0  0  0  0  0  0  0
   37.2570   25.9860   34.0090 O   0  0  0  0  0  0  0  0  0  0  0  0
   37.0250   25.6110   31.6900 N   0  0  0  0  0  0  0  0  0  0  0  0
   36.9540   25.9770   30.7320 H   0  0  0  0  0  0  0  0  0  0  0  0
   36.3820   27.8010   32.7210 C   0  0  0  0  0  0  0  0  0  0  0  0
   36.2230   28.3060   31.4610 C   0  0  0  0  0  0  0  0  0  0  0  0
   35.7240   29.5940   31.3660 C   0  0  0  0  0  0  0  0  0  0  0  0
   35.4230   30.2810   32.5040 C   0  0  0  0  0  0  0  0  0  0  0  0
   35.5830   29.7700   33.7780 C   0  0  0  0  0  0  0  0  0  0  0  0
   36.0670   28.5220   33.8280 N   0  0  0  0  0  0  0  0  0  0  0  0
   36.4690   27.7440   30.5700 H   0  0  0  0  0  0  0  0  0  0  0  0
   35.5850   30.0280   30.3850 H   0  0  0  0  0  0  0  0  0  0  0  0
   35.0310   31.2940   32.3690 H   0  0  0  0  0  0  0  0  0  0  0  0
   35.2440   30.5480   34.9710 C   0  0  0  0  0  0  0  0  0  0  0  0
   36.1520   31.1920   35.5430 O   0  0  0  0  0  0  0  0  0  0  0  0
   33.8970   30.6020   35.5170 C   0  0  0  0  0  0  0  0  0  0  0  0
   33.6620   31.5110   36.5260 C   0  0  0  0  0  3  0  0  0  0  0  0
   32.3840   31.5920   37.0730 C   0  0  0  0  0  0  0  0  0  0  0  0
   32.1640   32.2990   37.8710 H   0  0  0  0  0  0  0  0  0  0  0  0
   31.4270   30.7670   36.5850 N   0  0  0  0  0  0  0  0  0  0  0  0
   31.6680   29.8880   35.6030 C   0  0  0  0  0  3  0  0  0  0  0  0
   32.9080   29.8070   35.0700 N   0  0  0  0  0  0  0  0  0  0  0  0
   36.4740   23.2460   31.1530 C   0  0  2  0  0  0  0  0  0  0  0  0
   37.8440   23.5020   30.6350 C   0  0  0  0  0  0  0  0  0  0  0  0
   37.2460   24.1970   31.8860 C   0  0  1  0  0  0  0  0  0  0  0  0
   35.6670   23.5880   30.4520 H   0  0  0  0  0  0  0  0  0  0  0  0
   38.5640   22.6710   30.8170 H   0  0  0  0  0  0  0  0  0  0  0  0
   38.0050   24.1070   29.7340 H   0  0  0  0  0  0  0  0  0  0  0  0
   37.7480   23.8740   32.8380 H   0  0  0  0  0  0  0  0  0  0  0  0
   35.7990   20.6600   33.7190 C   0  0  0  0  0  0  0  0  0  0  0  0
   35.4370   19.5370   32.9140 C   0  0  0  0  0  0  0  0  0  0  0  0
   35.4440   19.6980   31.4790 C   0  0  0  0  0  0  0  0  0  0  0  0
   35.7920   20.9120   30.9370 N   0  0  0  0  0  0  0  0  0  0  0  0
   36.1220   21.9250   31.7650 C   0  0  0  0  0  0  0  0  0  0  0  0
   36.1360   21.8350   33.1520 N   0  0  0  0  0  0  0  0  0  0  0  0
   35.7720   20.4670   34.7810 H   0  0  0  0  0  0  0  0  0  0  0  0
   35.1630   18.5850   33.3230 H   0  0  0  0  0  0  0  0  0  0  0  0
   35.1690   18.8470   30.8720 H   0  0  0  0  0  0  0  0  0  0  0  0
  1  2  2  0  0  0  0
  3 25  1  0  0  0  0
  3  1  1  0  0  0  0
  4  3  1  0  0  0  0
  5  1  1  0  0  0  0
  5 10  1  0  0  0  0
  6  5  2  0  0  0  0
  7  6  1  0  0  0  0
  7  8  2  0  0  0  0
  8  9  1  0  0  0  0
  9 10  2  0  0  0  0
  9 14  1  0  0  0  0
 11  6  1  0  0  0  0
 12  7  1  0  0  0  0
 13  8  1  0  0  0  0
 14 16  1  0  0  0  0
 14 15  2  0  0  0  0
 16 17  1  0  0  0  0
 17 18  2  0  0  0  0
 18 19  1  0  0  0  0
 20 18  1  0  0  0  0
 21 20  2  0  0  0  0
 22 16  2  0  0  0  0
 22 21  1  0  0  0  0
 23 26  1  6  0  0  0
 23 34  1  0  0  0  0
 23 25  1  0  0  0  0
 24 27  1  0  0  0  0
 24 23  1  0  0  0  0
 24 25  1  0  0  0  0
 25 29  1  1  0  0  0
 28 24  1  0  0  0  0
 30 36  1  0  0  0  0
 31 37  1  0  0  0  0
 31 30  2  0  0  0  0
 32 31  1  0  0  0  0
 33 32  2  0  0  0  0
 33 34  1  0  0  0  0
 34 35  2  0  0  0  0
 35 30  1  0  0  0  0
 38 32  1  0  0  0  0
M  END
>  <minimizedAffinity>
-5.55496454

$$$$

 OpenBabel03272508593D

 38 41  0  0  1  0  0  0  0  0999 V2000
   36.3730   27.7920   32.6440 C   0  0  0  0  0  0  0  0  0  0  0  0
   35.4790   27.5770   31.7970 O   0  0  0  0  0  0  0  0  0  0  0  0
   36.3290   28.9650   33.5060 N   0  0  0  0  0  0  0  0  0  0  0  0
   37.1210   29.3000   34.0690 H   0  0  0  0  0  0  0  0  0  0  0  0
   37.5230   26.8740   32.8190 C   0  0  0  0  0  0  0  0  0  0  0  0
   38.7240   27.1880   32.2480 C   0  0  0  0  0  0  0  0  0  0  0  0
   39.7600   26.2910   32.4440 C   0  0  0  0  0  0  0  0  0  0  0  0
   39.5400   25.1640   33.1780 C   0  0  0  0  0  0  0  0  0  0  0  0
   38.3260   24.8470   33.7570 C   0  0  0  0  0  0  0  0  0  0  0  0
   37.3490   25.7380   33.5450 N   0  0  0  0  0  0  0  0  0  0  0  0
   38.8770   28.0880   31.6670 H   0  0  0  0  0  0  0  0  0  0  0  0
   40.7260   26.5060   32.0060 H   0  0  0  0  0  0  0  0  0  0  0  0
   40.3950   24.4910   33.3010 H   0  0  0  0  0  0  0  0  0  0  0  0
   38.1390   23.6220   34.5380 C   0  0  0  0  0  0  0  0  0  0  0  0
   37.7410   22.5920   33.9500 O   0  0  0  0  0  0  0  0  0  0  0  0
   38.3970   23.5560   35.9680 C   0  0  0  0  0  0  0  0  0  0  0  0
   39.5400   22.8990   36.3720 C   0  0  0  0  0  3  0  0  0  0  0  0
   39.8210   22.8160   37.7340 C   0  0  0  0  0  0  0  0  0  0  0  0
   40.7140   22.3040   38.0870 H   0  0  0  0  0  0  0  0  0  0  0  0
   38.9520   23.3880   38.6020 N   0  0  0  0  0  0  0  0  0  0  0  0
   37.8450   24.0250   38.1950 C   0  0  0  0  0  3  0  0  0  0  0  0
   37.5700   24.1080   36.8740 N   0  0  0  0  0  0  0  0  0  0  0  0
   34.2980   29.6790   34.7510 C   0  0  2  0  0  0  0  0  0  0  0  0
   35.1200   30.8970   34.5240 C   0  0  0  0  0  0  0  0  0  0  0  0
   35.0790   29.6860   33.5560 C   0  0  1  0  0  0  0  0  0  0  0  0
   34.6290   29.0840   35.6420 H   0  0  0  0  0  0  0  0  0  0  0  0
   34.5330   31.7970   34.2310 H   0  0  0  0  0  0  0  0  0  0  0  0
   36.0410   31.0730   35.0950 H   0  0  0  0  0  0  0  0  0  0  0  0
   34.5790   29.9350   32.5800 H   0  0  0  0  0  0  0  0  0  0  0  0
   30.8690   29.6170   33.3490 C   0  0  0  0  0  0  0  0  0  0  0  0
   30.0710   29.8020   34.5190 C   0  0  0  0  0  0  0  0  0  0  0  0
   30.7480   29.9560   35.7860 C   0  0  0  0  0  0  0  0  0  0  0  0
   32.1200   29.9190   35.8280 N   0  0  0  0  0  0  0  0  0  0  0  0
   32.8030   29.7410   34.6770 C   0  0  0  0  0  0  0  0  0  0  0  0
   32.2140   29.5870   33.4290 N   0  0  0  0  0  0  0  0  0  0  0  0
   30.2970   29.5080   32.4390 H   0  0  0  0  0  0  0  0  0  0  0  0
   29.0000   29.8310   34.5020 H   0  0  0  0  0  0  0  0  0  0  0  0
   30.1420   30.0960   36.6700 H   0  0  0  0  0  0  0  0  0  0  0  0
  1  5  1  0  0  0  0
  1  3  1  0  0  0  0
  2  1  2  0  0  0  0
  3 25  1  0  0  0  0
  3  4  1  0  0  0  0
  5 10  1  0  0  0  0
  6  7  1  0  0  0  0
  6  5  2  0  0  0  0
  7  8  2  0  0  0  0
  8 13  1  0  0  0  0
  8  9  1  0  0  0  0
  9 14  1  0  0  0  0
 10  9  2  0  0  0  0
 11  6  1  0  0  0  0
 12  7  1  0  0  0  0
 14 16  1  0  0  0  0
 15 14  2  0  0  0  0
 16 17  2  0  0  0  0
 16 22  1  0  0  0  0
 17 18  1  0  0  0  0
 18 19  1  0  0  0  0
 18 20  2  0  0  0  0
 21 20  1  0  0  0  0
 22 21  2  0  0  0  0
 23 26  1  1  0  0  0
 24 23  1  0  0  0  0
 24 28  1  0  0  0  0
 25 29  1  6  0  0  0
 25 24  1  0  0  0  0
 25 23  1  0  0  0  0
 27 24  1  0  0  0  0
 30 35  2  0  0  0  0
 30 31  1  0  0  0  0
 31 32  2  0  0  0  0
 32 33  1  0  0  0  0
 32 38  1  0  0  0  0
 34 23  1  0  0  0  0
 34 33  2  0  0  0  0
 35 34  1  0  0  0  0
 36 30  1  0  0  0  0
 37 31  1  0  0  0  0
M  END
>  <minimizedAffinity>
-5.43050909

$$$$

 OpenBabel03272508593D

 38 41  0  0  1  0  0  0  0  0999 V2000
   36.8950   27.6140   33.6890 C   0  0  0  0  0  0  0  0  0  0  0  0
   36.4720   27.4570   34.8560 O   0  0  0  0  0  0  0  0  0  0  0  0
   36.2220   28.5070   32.7570 N   0  0  0  0  0  0  0  0  0  0  0  0
   36.3950   28.5240   31.7440 H   0  0  0  0  0  0  0  0  0  0  0  0
   38.0970   26.9050   33.1900 C   0  0  0  0  0  0  0  0  0  0  0  0
   38.7350   27.3730   32.0770 C   0  0  0  0  0  0  0  0  0  0  0  0
   39.8510   26.6680   31.6560 C   0  0  0  0  0  0  0  0  0  0  0  0
   40.2490   25.5670   32.3550 C   0  0  0  0  0  0  0  0  0  0  0  0
   39.6030   25.0940   33.4820 C   0  0  0  0  0  0  0  0  0  0  0  0
   38.5310   25.8020   33.8560 N   0  0  0  0  0  0  0  0  0  0  0  0
   38.4020   28.2490   31.5360 H   0  0  0  0  0  0  0  0  0  0  0  0
   40.3820   27.0080   30.7780 H   0  0  0  0  0  0  0  0  0  0  0  0
   41.1370   25.0490   31.9780 H   0  0  0  0  0  0  0  0  0  0  0  0
   40.0710   23.9060   34.1980 C   0  0  0  0  0  0  0  0  0  0  0  0
   40.8330   23.1110   33.6040 O   0  0  0  0  0  0  0  0  0  0  0  0
   39.6860   23.6140   35.5690 C   0  0  0  0  0  0  0  0  0  0  0  0
   40.6460   23.0600   36.3900 C   0  0  0  0  0  3  0  0  0  0  0  0
   40.3140   22.7670   37.7100 C   0  0  0  0  0  0  0  0  0  0  0  0
   41.0480   22.3290   38.3840 H   0  0  0  0  0  0  0  0  0  0  0  0
   39.0550   23.0410   38.1280 N   0  0  0  0  0  0  0  0  0  0  0  0
   38.1310   23.5800   37.3210 C   0  0  0  0  0  3  0  0  0  0  0  0
   38.4500   23.8660   36.0390 N   0  0  0  0  0  0  0  0  0  0  0  0
   35.6860   30.5010   34.1420 C   0  0  2  0  0  0  0  0  0  0  0  0
   35.3670   30.8520   32.7340 C   0  0  0  0  0  0  0  0  0  0  0  0
   35.2530   29.4190   33.3180 C   0  0  1  0  0  0  0  0  0  0  0  0
   36.7730   30.6260   34.3930 H   0  0  0  0  0  0  0  0  0  0  0  0
   34.4170   31.4210   32.6080 H   0  0  0  0  0  0  0  0  0  0  0  0
   36.1630   31.0530   32.0060 H   0  0  0  0  0  0  0  0  0  0  0  0
   34.1870   29.0700   33.3920 H   0  0  0  0  0  0  0  0  0  0  0  0
   34.6240   32.3190   37.1910 C   0  0  0  0  0  0  0  0  0  0  0  0
   33.2550   31.9290   37.3040 C   0  0  0  0  0  0  0  0  0  0  0  0
   32.7240   31.0230   36.3130 C   0  0  0  0  0  0  0  0  0  0  0  0
   33.5380   30.5710   35.3030 N   0  0  0  0  0  0  0  0  0  0  0  0
   34.8220   30.9870   35.2660 C   0  0  0  0  0  0  0  0  0  0  0  0
   35.3940   31.8550   36.1880 N   0  0  0  0  0  0  0  0  0  0  0  0
   34.9530   32.9970   37.9660 H   0  0  0  0  0  0  0  0  0  0  0  0
   32.6080   32.2730   38.0850 H   0  0  0  0  0  0  0  0  0  0  0  0
   31.6870   30.7280   36.3990 H   0  0  0  0  0  0  0  0  0  0  0  0
  1  2  2  0  0  0  0
  3 25  1  0  0  0  0
  3  1  1  0  0  0  0
  4  3  1  0  0  0  0
  5  1  1  0  0  0  0
  5 10  1  0  0  0  0
  6  5  2  0  0  0  0
  7  6  1  0  0  0  0
  7  8  2  0  0  0  0
  8  9  1  0  0  0  0
  9 10  2  0  0  0  0
  9 14  1  0  0  0  0
 11  6  1  0  0  0  0
 12  7  1  0  0  0  0
 13  8  1  0  0  0  0
 14 16  1  0  0  0  0
 15 14  2  0  0  0  0
 16 22  2  0  0  0  0
 16 17  1  0  0  0  0
 17 18  2  0  0  0  0
 18 20  1  0  0  0  0
 18 19  1  0  0  0  0
 21 20  2  0  0  0  0
 22 21  1  0  0  0  0
 23 26  1  1  0  0  0
 23 34  1  0  0  0  0
 24 25  1  0  0  0  0
 24 23  1  0  0  0  0
 25 29  1  1  0  0  0
 25 23  1  0  0  0  0
 27 24  1  0  0  0  0
 28 24  1  0  0  0  0
 30 31  1  0  0  0  0
 30 36  1  0  0  0  0
 31 37  1  0  0  0  0
 32 38  1  0  0  0  0
 32 31  2  0  0  0  0
 33 32  1  0  0  0  0
 34 33  2  0  0  0  0
 34 35  1  0  0  0  0
 35 30  2  0  0  0  0
M  END
>  <minimizedAffinity>
-5.40145922

$$$$

 OpenBabel03272508593D

 38 41  0  0  1  0  0  0  0  0999 V2000
   35.9520   24.3500   31.5220 C   0  0  0  0  0  0  0  0  0  0  0  0
   35.1800   24.4210   30.5410 O   0  0  0  0  0  0  0  0  0  0  0  0
   36.4160   23.0650   32.0260 N   0  0  0  0  0  0  0  0  0  0  0  0
   36.8780   22.9330   32.9340 H   0  0  0  0  0  0  0  0  0  0  0  0
   36.4360   25.5620   32.2260 C   0  0  0  0  0  0  0  0  0  0  0  0
   35.9880   26.7900   31.8280 C   0  0  0  0  0  0  0  0  0  0  0  0
   36.4770   27.8850   32.5210 C   0  0  0  0  0  0  0  0  0  0  0  0
   37.3610   27.6910   33.5410 C   0  0  0  0  0  0  0  0  0  0  0  0
   37.8130   26.4490   33.9430 C   0  0  0  0  0  0  0  0  0  0  0  0
   37.3170   25.4160   33.2490 N   0  0  0  0  0  0  0  0  0  0  0  0
   35.2860   26.9220   31.0150 H   0  0  0  0  0  0  0  0  0  0  0  0
   36.1460   28.8740   32.2350 H   0  0  0  0  0  0  0  0  0  0  0  0
   37.7140   28.5920   34.0530 H   0  0  0  0  0  0  0  0  0  0  0  0
   38.7630   26.2930   35.0460 C   0  0  0  0  0  0  0  0  0  0  0  0
   39.5040   27.2580   35.3380 O   0  0  0  0  0  0  0  0  0  0  0  0
   38.8810   25.0630   35.8130 C   0  0  0  0  0  0  0  0  0  0  0  0
   37.9570   24.8550   36.8160 C   0  0  0  0  0  3  0  0  0  0  0  0
   38.0380   23.6880   37.5720 C   0  0  0  0  0  0  0  0  0  0  0  0
   37.3250   23.4930   38.3710 H   0  0  0  0  0  0  0  0  0  0  0  0
   39.0270   22.8080   37.2850 N   0  0  0  0  0  0  0  0  0  0  0  0
   39.9180   23.0220   36.3070 C   0  0  0  0  0  3  0  0  0  0  0  0
   39.8420   24.1530   35.5710 N   0  0  0  0  0  0  0  0  0  0  0  0
   37.1240   20.8290   31.2010 C   0  0  2  0  0  0  0  0  0  0  0  0
   35.8680   20.6310   31.9700 C   0  0  0  0  0  0  0  0  0  0  0  0
   36.2030   21.9190   31.1740 C   0  0  1  0  0  0  0  0  0  0  0  0
   38.0380   20.8730   31.8510 H   0  0  0  0  0  0  0  0  0  0  0  0
   35.1510   19.9200   31.4980 H   0  0  0  0  0  0  0  0  0  0  0  0
   35.8600   20.6870   33.0650 H   0  0  0  0  0  0  0  0  0  0  0  0
   35.5420   22.0520   30.2740 H   0  0  0  0  0  0  0  0  0  0  0  0
   38.8550   19.5570   28.1820 C   0  0  0  0  0  0  0  0  0  0  0  0
   37.9350   18.5700   27.7110 C   0  0  0  0  0  0  0  0  0  0  0  0
   36.7130   18.3710   28.4540 C   0  0  0  0  0  0  0  0  0  0  0  0
   36.4750   19.1240   29.5780 N   0  0  0  0  0  0  0  0  0  0  0  0
   37.3940   20.0370   29.9580 C   0  0  0  0  0  0  0  0  0  0  0  0
   38.5870   20.2780   29.2880 N   0  0  0  0  0  0  0  0  0  0  0  0
   39.7450   19.6510   27.5770 H   0  0  0  0  0  0  0  0  0  0  0  0
   38.1080   17.9750   26.8370 H   0  0  0  0  0  0  0  0  0  0  0  0
   36.0190   17.6240   28.0970 H   0  0  0  0  0  0  0  0  0  0  0  0
  1  3  1  0  0  0  0
  1  5  1  0  0  0  0
  2  1  2  0  0  0  0
  3  4  1  0  0  0  0
  5 10  1  0  0  0  0
  6  5  2  0  0  0  0
  6  7  1  0  0  0  0
  7  8  2  0  0  0  0
  8  9  1  0  0  0  0
  8 13  1  0  0  0  0
  9 14  1  0  0  0  0
 10  9  2  0  0  0  0
 11  6  1  0  0  0  0
 12  7  1  0  0  0  0
 14 15  2  0  0  0  0
 14 16  1  0  0  0  0
 16 17  1  0  0  0  0
 17 18  2  0  0  0  0
 18 19  1  0  0  0  0
 20 18  1  0  0  0  0
 21 20  2  0  0  0  0
 22 16  2  0  0  0  0
 22 21  1  0  0  0  0
 23 26  1  1  0  0  0
 23 24  1  0  0  0  0
 24 28  1  0  0  0  0
 25 29  1  6  0  0  0
 25 23  1  0  0  0  0
 25 24  1  0  0  0  0
 25  3  1  0  0  0  0
 27 24  1  0  0  0  0
 30 35  1  0  0  0  0
 31 30  2  0  0  0  0
 31 32  1  0  0  0  0
 32 33  2  0  0  0  0
 33 34  1  0  0  0  0
 34 23  1  0  0  0  0
 35 34  2  0  0  0  0
 36 30  1  0  0  0  0
 37 31  1  0  0  0  0
 38 32  1  0  0  0  0
M  END
>  <minimizedAffinity>
-5.37974215

$$$$

 OpenBabel03272508593D

 38 41  0  0  1  0  0  0  0  0999 V2000
   36.2580   26.7780   31.7410 C   0  0  0  0  0  0  0  0  0  0  0  0
   36.0270   27.0220   30.5370 O   0  0  0  0  0  0  0  0  0  0  0  0
   36.0400   27.7850   32.7700 N   0  0  0  0  0  0  0  0  0  0  0  0
   36.3960   27.7150   33.7320 H   0  0  0  0  0  0  0  0  0  0  0  0
   36.7650   25.4590   32.1890 C   0  0  0  0  0  0  0  0  0  0  0  0
   36.1800   24.3200   31.7090 C   0  0  0  0  0  0  0  0  0  0  0  0
   36.6940   23.1180   32.1650 C   0  0  0  0  0  0  0  0  0  0  0  0
   37.7320   23.1260   33.0490 C   0  0  0  0  0  0  0  0  0  0  0  0
   38.3230   24.2770   33.5330 C   0  0  0  0  0  0  0  0  0  0  0  0
   37.7980   25.4190   33.0690 N   0  0  0  0  0  0  0  0  0  0  0  0
   35.3560   24.3360   31.0080 H   0  0  0  0  0  0  0  0  0  0  0  0
   36.2570   22.1950   31.8080 H   0  0  0  0  0  0  0  0  0  0  0  0
   38.0980   22.1470   33.3750 H   0  0  0  0  0  0  0  0  0  0  0  0
   39.4370   24.2330   34.4830 C   0  0  0  0  0  0  0  0  0  0  0  0
   40.5860   24.5050   34.0690 O   0  0  0  0  0  0  0  0  0  0  0  0
   39.2610   23.8870   35.8840 C   0  0  0  0  0  0  0  0  0  0  0  0
   38.1790   24.4360   36.5390 C   0  0  0  0  0  3  0  0  0  0  0  0
   37.9780   24.1270   37.8810 C   0  0  0  0  0  0  0  0  0  0  0  0
   37.1350   24.5440   38.4280 H   0  0  0  0  0  0  0  0  0  0  0  0
   38.8620   23.2950   38.4840 N   0  0  0  0  0  0  0  0  0  0  0  0
   39.9080   22.7670   37.8370 C   0  0  0  0  0  3  0  0  0  0  0  0
   40.1060   23.0650   36.5330 N   0  0  0  0  0  0  0  0  0  0  0  0
   34.3060   29.4880   33.2920 C   0  0  2  0  0  0  0  0  0  0  0  0
   35.6100   30.1980   33.2370 C   0  0  0  0  0  0  0  0  0  0  0  0
   35.2690   28.9450   32.3900 C   0  0  1  0  0  0  0  0  0  0  0  0
   34.1130   28.9960   34.2820 H   0  0  0  0  0  0  0  0  0  0  0  0
   35.5730   31.1830   32.7170 H   0  0  0  0  0  0  0  0  0  0  0  0
   36.3460   30.0930   34.0440 H   0  0  0  0  0  0  0  0  0  0  0  0
   35.1830   29.1790   31.2940 H   0  0  0  0  0  0  0  0  0  0  0  0
   30.7440   30.4620   32.9880 C   0  0  0  0  0  0  0  0  0  0  0  0
   30.7750   31.3390   31.8610 C   0  0  0  0  0  0  0  0  0  0  0  0
   32.0460   31.5700   31.2150 C   0  0  0  0  0  0  0  0  0  0  0  0
   33.1730   30.9500   31.6970 N   0  0  0  0  0  0  0  0  0  0  0  0
   33.0600   30.1340   32.7680 C   0  0  0  0  0  0  0  0  0  0  0  0
   31.8690   29.8700   33.4330 N   0  0  0  0  0  0  0  0  0  0  0  0
   29.7610   30.3360   33.4200 H   0  0  0  0  0  0  0  0  0  0  0  0
   29.9050   31.8300   31.4740 H   0  0  0  0  0  0  0  0  0  0  0  0
   32.0680   32.2340   30.3620 H   0  0  0  0  0  0  0  0  0  0  0  0
  1  5  1  0  0  0  0
  1  3  1  0  0  0  0
  2  1  2  0  0  0  0
  3  4  1  0  0  0  0
  5 10  1  0  0  0  0
  6  7  1  0  0  0  0
  6  5  2  0  0  0  0
  7  8  2  0  0  0  0
  8 13  1  0  0  0  0
  8  9  1  0  0  0  0
  9 14  1  0  0  0  0
 10  9  2  0  0  0  0
 11  6  1  0  0  0  0
 12  7  1  0  0  0  0
 14 16  1  0  0  0  0
 15 14  2  0  0  0  0
 16 22  2  0  0  0  0
 16 17  1  0  0  0  0
 17 18  2  0  0  0  0
 18 19  1  0  0  0  0
 18 20  1  0  0  0  0
 21 20  2  0  0  0  0
 22 21  1  0  0  0  0
 23 26  1  1  0  0  0
 24 23  1  0  0  0  0
 24 28  1  0  0  0  0
 25 29  1  6  0  0  0
 25  3  1  0  0  0  0
 25 24  1  0  0  0  0
 25 23  1  0  0  0  0
 27 24  1  0  0  0  0
 30 36  1  0  0  0  0
 30 35  1  0  0  0  0
 31 30  2  0  0  0  0
 32 33  2  0  0  0  0
 32 31  1  0  0  0  0
 33 34  1  0  0  0  0
 34 23  1  0  0  0  0
 34 35  2  0  0  0  0
 37 31  1  0  0  0  0
 38 32  1  0  0  0  0
M  END
>  <minimizedAffinity>
-5.35346127

$$$$
