
 OpenBabel03272508153D

 28 30  0  0  0  0  0  0  0  0999 V2000
   35.3560   29.9580   43.9700 Cl  0  0  0  0  0  0  0  0  0  0  0  0
   37.0180   29.5840   43.6460 C   0  0  0  0  0  0  0  0  0  0  0  0
   37.1970   28.4240   42.9460 C   0  0  0  0  0  0  0  0  0  0  0  0
   38.5150   28.0370   42.6200 C   0  0  0  0  0  0  0  0  0  0  0  0
   39.5870   28.7900   42.9870 C   0  0  0  0  0  0  0  0  0  0  0  0
   39.3730   29.9610   43.6960 C   0  0  0  0  0  0  0  0  0  0  0  0
   40.7420   30.9430   44.1690 Cl  0  0  0  0  0  0  0  0  0  0  0  0
   38.0930   30.3360   44.0120 C   0  0  0  0  0  0  0  0  0  0  0  0
   38.7590   27.1380   42.0700 H   0  0  0  0  0  0  0  0  0  0  0  0
   40.6160   28.5110   42.7440 H   0  0  0  0  0  0  0  0  0  0  0  0
   35.9800   26.3010   43.2580 C   0  0  0  0  0  0  0  0  0  0  0  0
   36.2080   27.4600   42.4550 C   0  0  0  0  0  0  0  0  0  0  0  0
   35.4860   27.5800   41.2870 C   0  0  0  0  0  0  0  0  0  0  0  0
   34.6060   26.5920   40.9760 N   0  0  0  0  0  0  0  0  0  0  0  0
   34.4090   25.5130   41.7450 C   0  0  0  0  0  0  0  0  0  0  0  0
   35.1000   25.3690   42.8900 N   0  0  0  0  0  0  0  0  0  0  0  0
   36.5240   26.1660   44.1820 H   0  0  0  0  0  0  0  0  0  0  0  0
   35.6650   28.4610   40.6870 H   0  0  0  0  0  0  0  0  0  0  0  0
   33.6820   24.7840   41.3990 H   0  0  0  0  0  0  0  0  0  0  0  0
   37.8330   31.5510   44.7770 C   0  0  0  0  0  0  0  0  0  0  0  0
   37.4510   32.6780   44.3360 O   0  0  0  0  0  0  0  0  0  0  0  0
   38.0150   31.5530   46.2500 C   0  0  0  0  0  0  0  0  0  0  0  0
   37.4780   30.5330   47.0030 C   0  0  0  0  0  3  0  0  0  0  0  0
   37.5720   30.4350   48.3960 C   0  0  0  0  0  0  0  0  0  0  0  0
   37.1480   29.6320   48.9610 H   0  0  0  0  0  0  0  0  0  0  0  0
   38.2420   31.4210   49.0260 N   0  0  0  0  0  0  0  0  0  0  0  0
   38.7650   32.4150   48.2840 C   0  0  0  0  0  3  0  0  0  0  0  0
   38.6520   32.4720   46.9510 N   0  0  0  0  0  0  0  0  0  0  0  0
  2  1  1  0  0  0  0
  2  8  1  0  0  0  0
  3  2  2  0  0  0  0
  4  3  1  0  0  0  0
  4  5  2  0  0  0  0
  5  6  1  0  0  0  0
  6  8  2  0  0  0  0
  6  7  1  0  0  0  0
  8 20  1  0  0  0  0
  9  4  1  0  0  0  0
 10  5  1  0  0  0  0
 11 17  1  0  0  0  0
 12  3  1  0  0  0  0
 12 11  2  0  0  0  0
 13 12  1  0  0  0  0
 14 13  2  0  0  0  0
 14 15  1  0  0  0  0
 15 16  2  0  0  0  0
 16 11  1  0  0  0  0
 18 13  1  0  0  0  0
 19 15  1  0  0  0  0
 20 22  1  0  0  0  0
 21 20  2  0  0  0  0
 22 28  2  0  0  0  0
 22 23  1  0  0  0  0
 23 24  2  0  0  0  0
 24 25  1  0  0  0  0
 24 26  1  0  0  0  0
 27 26  2  0  0  0  0
 28 27  1  0  0  0  0
M  END
>  <minimizedAffinity>
-4.05676031

>  <minimizedRMSD>
5.45396948

$$$$
