
 OpenBabel03272503063D

 30 32  0  0  0  0  0  0  0  0999 V2000
   40.2150   23.9610   34.7540 F   0  0  0  0  0  0  0  0  0  0  0  0
   39.6350   23.8060   35.9660 C   0  0  0  0  0  0  0  0  0  0  0  0
   40.2920   23.1050   36.9590 C   0  0  0  0  0  0  0  0  0  0  0  0
   39.6510   22.9850   38.1590 C   0  0  0  0  0  0  0  0  0  0  0  0
   38.4140   23.5260   38.3950 C   0  0  0  0  0  0  0  0  0  0  0  0
   37.7720   24.2250   37.3910 C   0  0  0  0  0  0  0  0  0  0  0  0
   38.3990   24.3650   36.1530 C   0  0  0  0  0  0  0  0  0  0  0  0
   40.1540   22.4390   38.9450 H   0  0  0  0  0  0  0  0  0  0  0  0
   37.9410   23.4100   39.3590 H   0  0  0  0  0  0  0  0  0  0  0  0
   36.8070   24.6600   37.5390 H   0  0  0  0  0  0  0  0  0  0  0  0
   43.9810   22.7980   36.1750 C   0  0  0  0  0  0  0  0  0  0  0  0
   42.7350   23.3540   36.4760 C   0  0  0  0  0  0  0  0  0  0  0  0
   41.6090   22.5520   36.6430 C   0  0  0  0  0  0  0  0  0  0  0  0
   41.7900   21.2100   36.4960 N   0  0  0  0  0  0  0  0  0  0  0  0
   43.0010   20.6960   36.2040 C   0  0  0  0  0  0  0  0  0  0  0  0
   44.0700   21.4520   36.0460 N   0  0  0  0  0  0  0  0  0  0  0  0
   44.8020   23.5080   36.0630 H   0  0  0  0  0  0  0  0  0  0  0  0
   42.6050   24.4400   36.5910 H   0  0  0  0  0  0  0  0  0  0  0  0
   43.0430   19.6140   36.1070 H   0  0  0  0  0  0  0  0  0  0  0  0
   37.9160   26.5020   35.1880 C   0  0  0  0  0  0  0  0  0  0  0  0
   38.5790   26.9110   36.1860 O   0  0  0  0  0  0  0  0  0  0  0  0
   37.7670   25.0830   35.0830 N   0  0  0  0  0  0  0  0  0  0  0  0
   37.2320   24.6740   34.2720 H   0  0  0  0  0  0  0  0  0  0  0  0
   37.3290   27.3930   34.1920 C   0  0  0  0  0  0  0  0  0  0  0  0
   37.8120   27.3290   32.9020 C   0  0  0  0  0  3  0  0  0  0  0  0
   37.2460   28.1750   31.9820 C   0  0  0  0  0  0  0  0  0  0  0  0
   37.6240   28.1290   30.9580 H   0  0  0  0  0  0  0  0  0  0  0  0
   36.2710   29.0130   32.3560 N   0  0  0  0  0  0  0  0  0  0  0  0
   35.7870   29.0890   33.6170 C   0  0  0  0  0  3  0  0  0  0  0  0
   36.3620   28.2470   34.4940 N   0  0  0  0  0  0  0  0  0  0  0  0
  1  2  1  0  0  0  0
  2  7  2  0  0  0  0
  2  3  1  0  0  0  0
  3  4  2  0  0  0  0
  4  5  1  0  0  0  0
  4  8  1  0  0  0  0
  5  9  1  0  0  0  0
  6 10  1  0  0  0  0
  6  5  2  0  0  0  0
  7  6  1  0  0  0  0
 11 12  1  0  0  0  0
 12 18  1  0  0  0  0
 12 13  2  0  0  0  0
 13  3  1  0  0  0  0
 14 13  1  0  0  0  0
 15 14  2  0  0  0  0
 16 11  2  0  0  0  0
 16 15  1  0  0  0  0
 17 11  1  0  0  0  0
 19 15  1  0  0  0  0
 20 21  2  0  0  0  0
 22 20  1  0  0  0  0
 22  7  1  0  0  0  0
 23 22  1  0  0  0  0
 24 30  1  0  0  0  0
 24 20  1  0  0  0  0
 25 24  2  0  0  0  0
 26 28  2  0  0  0  0
 26 25  1  0  0  0  0
 27 26  1  0  0  0  0
 28 29  1  0  0  0  0
 29 30  2  0  0  0  0
M  END
>  <minimizedAffinity>
-5.54975605

$$$$

 OpenBabel03272503063D

 30 32  0  0  0  0  0  0  0  0999 V2000
   35.9370   28.0640   34.6270 F   0  0  0  0  0  0  0  0  0  0  0  0
   36.1170   28.7950   33.5030 C   0  0  0  0  0  0  0  0  0  0  0  0
   35.6870   30.1080   33.4600 C   0  0  0  0  0  0  0  0  0  0  0  0
   35.8980   30.7890   32.2960 C   0  0  0  0  0  0  0  0  0  0  0  0
   36.5060   30.2240   31.2060 C   0  0  0  0  0  0  0  0  0  0  0  0
   36.9300   28.9100   31.2660 C   0  0  0  0  0  0  0  0  0  0  0  0
   36.7280   28.1860   32.4410 C   0  0  0  0  0  0  0  0  0  0  0  0
   35.5670   31.8180   32.2490 H   0  0  0  0  0  0  0  0  0  0  0  0
   36.6550   30.7970   30.3030 H   0  0  0  0  0  0  0  0  0  0  0  0
   37.4060   28.4350   30.4360 H   0  0  0  0  0  0  0  0  0  0  0  0
   35.1000   31.9230   36.7280 C   0  0  0  0  0  0  0  0  0  0  0  0
   35.7380   31.4160   35.5940 C   0  0  0  0  0  0  0  0  0  0  0  0
   35.0460   30.6530   34.6570 C   0  0  0  0  0  0  0  0  0  0  0  0
   33.7260   30.4320   34.9080 N   0  0  0  0  0  0  0  0  0  0  0  0
   33.1300   30.9320   36.0090 C   0  0  0  0  0  0  0  0  0  0  0  0
   33.7820   31.6550   36.8980 N   0  0  0  0  0  0  0  0  0  0  0  0
   35.7270   32.5090   37.4030 H   0  0  0  0  0  0  0  0  0  0  0  0
   36.8060   31.6020   35.4060 H   0  0  0  0  0  0  0  0  0  0  0  0
   32.0730   30.7010   36.1200 H   0  0  0  0  0  0  0  0  0  0  0  0
   36.2530   25.8960   31.9250 C   0  0  0  0  0  0  0  0  0  0  0  0
   35.2350   26.4100   31.3740 O   0  0  0  0  0  0  0  0  0  0  0  0
   37.1530   26.8190   32.5460 N   0  0  0  0  0  0  0  0  0  0  0  0
   38.0250   26.4580   33.0180 H   0  0  0  0  0  0  0  0  0  0  0  0
   36.5200   24.4610   31.9420 C   0  0  0  0  0  0  0  0  0  0  0  0
   35.6730   23.6380   31.2300 C   0  0  0  0  0  3  0  0  0  0  0  0
   35.9420   22.2930   31.2600 C   0  0  0  0  0  0  0  0  0  0  0  0
   35.2760   21.6340   30.6980 H   0  0  0  0  0  0  0  0  0  0  0  0
   36.9890   21.8350   31.9590 N   0  0  0  0  0  0  0  0  0  0  0  0
   37.8280   22.6300   32.6630 C   0  0  0  0  0  3  0  0  0  0  0  0
   37.5380   23.9420   32.6130 N   0  0  0  0  0  0  0  0  0  0  0  0
  2  1  1  0  0  0  0
  3  2  1  0  0  0  0
  3 13  1  0  0  0  0
  4  3  2  0  0  0  0
  5  6  2  0  0  0  0
  5  4  1  0  0  0  0
  6  7  1  0  0  0  0
  7 22  1  0  0  0  0
  7  2  2  0  0  0  0
  8  4  1  0  0  0  0
  9  5  1  0  0  0  0
 10  6  1  0  0  0  0
 11 16  1  0  0  0  0
 11 17  1  0  0  0  0
 12 11  2  0  0  0  0
 13 14  2  0  0  0  0
 13 12  1  0  0  0  0
 14 15  1  0  0  0  0
 15 19  1  0  0  0  0
 15 16  2  0  0  0  0
 18 12  1  0  0  0  0
 20 24  1  0  0  0  0
 20 22  1  0  0  0  0
 21 20  2  0  0  0  0
 22 23  1  0  0  0  0
 24 30  1  0  0  0  0
 25 26  1  0  0  0  0
 25 24  2  0  0  0  0
 26 28  2  0  0  0  0
 27 26  1  0  0  0  0
 28 29  1  0  0  0  0
 30 29  2  0  0  0  0
M  END
>  <minimizedAffinity>
-5.4232049

$$$$

 OpenBabel03272503063D

 30 32  0  0  0  0  0  0  0  0999 V2000
   36.4660   28.0620   34.9320 F   0  0  0  0  0  0  0  0  0  0  0  0
   37.0430   27.9610   33.7140 C   0  0  0  0  0  0  0  0  0  0  0  0
   36.4840   28.6130   32.6310 C   0  0  0  0  0  0  0  0  0  0  0  0
   37.1160   28.4700   31.4290 C   0  0  0  0  0  0  0  0  0  0  0  0
   38.2530   27.7220   31.2740 C   0  0  0  0  0  0  0  0  0  0  0  0
   38.8000   27.0770   32.3670 C   0  0  0  0  0  0  0  0  0  0  0  0
   38.1780   27.2030   33.6100 C   0  0  0  0  0  0  0  0  0  0  0  0
   36.6880   28.9760   30.5730 H   0  0  0  0  0  0  0  0  0  0  0  0
   38.7240   27.6340   30.3060 H   0  0  0  0  0  0  0  0  0  0  0  0
   39.6850   26.4850   32.2850 H   0  0  0  0  0  0  0  0  0  0  0  0
   34.1280   31.4360   33.5240 C   0  0  0  0  0  0  0  0  0  0  0  0
   35.3030   30.7130   33.3120 C   0  0  0  0  0  0  0  0  0  0  0  0
   35.2690   29.3960   32.8620 C   0  0  0  0  0  0  0  0  0  0  0  0
   34.0360   28.8590   32.6450 N   0  0  0  0  0  0  0  0  0  0  0  0
   32.9150   29.5750   32.8560 C   0  0  0  0  0  0  0  0  0  0  0  0
   32.9430   30.8230   33.2820 N   0  0  0  0  0  0  0  0  0  0  0  0
   34.2580   32.4600   33.8770 H   0  0  0  0  0  0  0  0  0  0  0  0
   36.2920   31.1610   33.4930 H   0  0  0  0  0  0  0  0  0  0  0  0
   31.9800   29.0580   32.6530 H   0  0  0  0  0  0  0  0  0  0  0  0
   38.3200   25.1780   34.8810 C   0  0  0  0  0  0  0  0  0  0  0  0
   37.5780   24.7440   33.9500 O   0  0  0  0  0  0  0  0  0  0  0  0
   38.7120   26.5500   34.7710 N   0  0  0  0  0  0  0  0  0  0  0  0
   39.3350   26.9740   35.5090 H   0  0  0  0  0  0  0  0  0  0  0  0
   38.7620   24.3590   36.0050 C   0  0  0  0  0  0  0  0  0  0  0  0
   38.0240   24.4070   37.1690 C   0  0  0  0  0  3  0  0  0  0  0  0
   38.4580   23.6290   38.2130 C   0  0  0  0  0  0  0  0  0  0  0  0
   37.8780   23.6610   39.1390 H   0  0  0  0  0  0  0  0  0  0  0  0
   39.5520   22.8700   38.0720 N   0  0  0  0  0  0  0  0  0  0  0  0
   40.2860   22.8130   36.9370 C   0  0  0  0  0  3  0  0  0  0  0  0
   39.8350   23.5860   35.9340 N   0  0  0  0  0  0  0  0  0  0  0  0
  2  1  1  0  0  0  0
  3 13  1  0  0  0  0
  3  2  2  0  0  0  0
  4  3  1  0  0  0  0
  5  4  2  0  0  0  0
  5  6  1  0  0  0  0
  6  7  2  0  0  0  0
  7  2  1  0  0  0  0
  7 22  1  0  0  0  0
  8  4  1  0  0  0  0
  9  5  1  0  0  0  0
 10  6  1  0  0  0  0
 11 17  1  0  0  0  0
 12 18  1  0  0  0  0
 12 11  1  0  0  0  0
 13 12  2  0  0  0  0
 14 15  2  0  0  0  0
 14 13  1  0  0  0  0
 15 16  1  0  0  0  0
 16 11  2  0  0  0  0
 19 15  1  0  0  0  0
 20 24  1  0  0  0  0
 21 20  2  0  0  0  0
 22 20  1  0  0  0  0
 22 23  1  0  0  0  0
 24 25  1  0  0  0  0
 25 26  2  0  0  0  0
 26 27  1  0  0  0  0
 28 26  1  0  0  0  0
 29 28  2  0  0  0  0
 30 24  2  0  0  0  0
 30 29  1  0  0  0  0
M  END
>  <minimizedAffinity>
-5.1911211

$$$$

 OpenBabel03272503063D

 30 32  0  0  0  0  0  0  0  0999 V2000
   36.3760   27.2190   35.2250 F   0  0  0  0  0  0  0  0  0  0  0  0
   36.7080   27.5530   33.9570 C   0  0  0  0  0  0  0  0  0  0  0  0
   36.2060   28.7130   33.3980 C   0  0  0  0  0  0  0  0  0  0  0  0
   36.5800   28.9920   32.1150 C   0  0  0  0  0  0  0  0  0  0  0  0
   37.4120   28.1790   31.3920 C   0  0  0  0  0  0  0  0  0  0  0  0
   37.9050   27.0230   31.9660 C   0  0  0  0  0  0  0  0  0  0  0  0
   37.5420   26.7090   33.2760 C   0  0  0  0  0  0  0  0  0  0  0  0
   36.1950   29.8980   31.6650 H   0  0  0  0  0  0  0  0  0  0  0  0
   37.6850   28.4350   30.3780 H   0  0  0  0  0  0  0  0  0  0  0  0
   38.5560   26.3640   31.4330 H   0  0  0  0  0  0  0  0  0  0  0  0
   34.9360   31.3140   35.8350 C   0  0  0  0  0  0  0  0  0  0  0  0
   35.8030   30.5420   35.0590 C   0  0  0  0  0  0  0  0  0  0  0  0
   35.3230   29.5380   34.2220 C   0  0  0  0  0  0  0  0  0  0  0  0
   33.9730   29.3550   34.2050 N   0  0  0  0  0  0  0  0  0  0  0  0
   33.1550   30.1110   34.9620 C   0  0  0  0  0  0  0  0  0  0  0  0
   33.6060   31.0640   35.7560 N   0  0  0  0  0  0  0  0  0  0  0  0
   35.4080   32.0760   36.4580 H   0  0  0  0  0  0  0  0  0  0  0  0
   36.8910   30.7020   35.0850 H   0  0  0  0  0  0  0  0  0  0  0  0
   32.0940   29.8880   34.8780 H   0  0  0  0  0  0  0  0  0  0  0  0
   39.2190   25.7330   34.6800 C   0  0  0  0  0  0  0  0  0  0  0  0
   39.6530   26.9220   34.6960 O   0  0  0  0  0  0  0  0  0  0  0  0
   38.0310   25.5180   33.9110 N   0  0  0  0  0  0  0  0  0  0  0  0
   37.6120   24.5520   33.8600 H   0  0  0  0  0  0  0  0  0  0  0  0
   39.8630   24.6310   35.3880 C   0  0  0  0  0  0  0  0  0  0  0  0
   41.1840   24.3590   35.0960 C   0  0  0  0  0  3  0  0  0  0  0  0
   41.7700   23.3200   35.7730 C   0  0  0  0  0  0  0  0  0  0  0  0
   42.8160   23.0990   35.5470 H   0  0  0  0  0  0  0  0  0  0  0  0
   41.0620   22.6220   36.6700 N   0  0  0  0  0  0  0  0  0  0  0  0
   39.7660   22.8760   36.9670 C   0  0  0  0  0  3  0  0  0  0  0  0
   39.2220   23.9010   36.2880 N   0  0  0  0  0  0  0  0  0  0  0  0
  2  1  1  0  0  0  0
  3  2  1  0  0  0  0
  3 13  1  0  0  0  0
  4  3  2  0  0  0  0
  5  6  2  0  0  0  0
  5  4  1  0  0  0  0
  6  7  1  0  0  0  0
  7 22  1  0  0  0  0
  7  2  2  0  0  0  0
  8  4  1  0  0  0  0
  9  5  1  0  0  0  0
 10  6  1  0  0  0  0
 11 17  1  0  0  0  0
 12 18  1  0  0  0  0
 12 11  2  0  0  0  0
 13 12  1  0  0  0  0
 14 13  2  0  0  0  0
 14 15  1  0  0  0  0
 15 16  2  0  0  0  0
 16 11  1  0  0  0  0
 19 15  1  0  0  0  0
 20 21  2  0  0  0  0
 20 24  1  0  0  0  0
 22 20  1  0  0  0  0
 23 22  1  0  0  0  0
 24 30  1  0  0  0  0
 25 24  2  0  0  0  0
 25 26  1  0  0  0  0
 26 28  2  0  0  0  0
 27 26  1  0  0  0  0
 28 29  1  0  0  0  0
 30 29  2  0  0  0  0
M  END
>  <minimizedAffinity>
-5.03470516

$$$$

 OpenBabel03272503063D

 30 32  0  0  0  0  0  0  0  0999 V2000
   36.1850   27.2620   33.4350 F   0  0  0  0  0  0  0  0  0  0  0  0
   36.3430   28.0190   32.3250 C   0  0  0  0  0  0  0  0  0  0  0  0
   36.6380   27.4150   31.1180 C   0  0  0  0  0  0  0  0  0  0  0  0
   36.7850   28.2350   30.0360 C   0  0  0  0  0  0  0  0  0  0  0  0
   36.6530   29.5970   30.1150 C   0  0  0  0  0  0  0  0  0  0  0  0
   36.3580   30.1840   31.3310 C   0  0  0  0  0  0  0  0  0  0  0  0
   36.2010   29.3730   32.4560 C   0  0  0  0  0  0  0  0  0  0  0  0
   37.0150   27.7760   29.0840 H   0  0  0  0  0  0  0  0  0  0  0  0
   36.7760   30.2120   29.2360 H   0  0  0  0  0  0  0  0  0  0  0  0
   36.2480   31.2430   31.4310 H   0  0  0  0  0  0  0  0  0  0  0  0
   35.8140   23.7220   31.1040 C   0  0  0  0  0  0  0  0  0  0  0  0
   35.6620   25.1090   31.1220 C   0  0  0  0  0  0  0  0  0  0  0  0
   36.7660   25.9570   31.1000 C   0  0  0  0  0  0  0  0  0  0  0  0
   37.9900   25.3610   31.0610 N   0  0  0  0  0  0  0  0  0  0  0  0
   38.1140   24.0200   31.0440 C   0  0  0  0  0  0  0  0  0  0  0  0
   37.0710   23.2130   31.0650 N   0  0  0  0  0  0  0  0  0  0  0  0
   34.8900   23.1420   31.1240 H   0  0  0  0  0  0  0  0  0  0  0  0
   34.6660   25.5760   31.1540 H   0  0  0  0  0  0  0  0  0  0  0  0
   39.1330   23.6410   31.0130 H   0  0  0  0  0  0  0  0  0  0  0  0
   34.4900   30.0540   33.9860 C   0  0  0  0  0  0  0  0  0  0  0  0
   33.7350   29.6340   33.0600 O   0  0  0  0  0  0  0  0  0  0  0  0
   35.8950   29.9420   33.7370 N   0  0  0  0  0  0  0  0  0  0  0  0
   36.5810   30.2670   34.4690 H   0  0  0  0  0  0  0  0  0  0  0  0
   33.9930   30.6200   35.2360 C   0  0  0  0  0  0  0  0  0  0  0  0
   34.7800   31.5480   35.8850 C   0  0  0  0  0  3  0  0  0  0  0  0
   34.2930   32.0660   37.0580 C   0  0  0  0  0  0  0  0  0  0  0  0
   34.9120   32.8030   37.5770 H   0  0  0  0  0  0  0  0  0  0  0  0
   33.1030   31.6670   37.5230 N   0  0  0  0  0  0  0  0  0  0  0  0
   32.3190   30.7580   36.8980 C   0  0  0  0  0  3  0  0  0  0  0  0
   32.8240   30.2690   35.7520 N   0  0  0  0  0  0  0  0  0  0  0  0
  2  7  1  0  0  0  0
  2  1  1  0  0  0  0
  3  2  2  0  0  0  0
  4  5  2  0  0  0  0
  4  3  1  0  0  0  0
  5  6  1  0  0  0  0
  6 10  1  0  0  0  0
  6  7  2  0  0  0  0
  7 22  1  0  0  0  0
  8  4  1  0  0  0  0
  9  5  1  0  0  0  0
 11 12  1  0  0  0  0
 11 17  1  0  0  0  0
 12 18  1  0  0  0  0
 13  3  1  0  0  0  0
 13 12  2  0  0  0  0
 14 13  1  0  0  0  0
 15 14  2  0  0  0  0
 15 16  1  0  0  0  0
 16 11  2  0  0  0  0
 19 15  1  0  0  0  0
 20 24  1  0  0  0  0
 21 20  2  0  0  0  0
 22 20  1  0  0  0  0
 22 23  1  0  0  0  0
 24 30  2  0  0  0  0
 24 25  1  0  0  0  0
 25 26  2  0  0  0  0
 26 28  1  0  0  0  0
 26 27  1  0  0  0  0
 29 28  2  0  0  0  0
 30 29  1  0  0  0  0
M  END
>  <minimizedAffinity>
-5.00157166

$$$$

 OpenBabel03272503063D

 30 32  0  0  0  0  0  0  0  0999 V2000
   38.5000   26.3420   32.5130 F   0  0  0  0  0  0  0  0  0  0  0  0
   37.5380   25.4600   32.1610 C   0  0  0  0  0  0  0  0  0  0  0  0
   36.3890   25.9070   31.5360 C   0  0  0  0  0  0  0  0  0  0  0  0
   35.4570   24.9650   31.2080 C   0  0  0  0  0  0  0  0  0  0  0  0
   35.6260   23.6320   31.4730 C   0  0  0  0  0  0  0  0  0  0  0  0
   36.7810   23.2010   32.0980 C   0  0  0  0  0  0  0  0  0  0  0  0
   37.7530   24.1390   32.4470 C   0  0  0  0  0  0  0  0  0  0  0  0
   34.5530   25.3020   30.7180 H   0  0  0  0  0  0  0  0  0  0  0  0
   34.8640   22.9170   31.1970 H   0  0  0  0  0  0  0  0  0  0  0  0
   36.9470   22.1690   32.3210 H   0  0  0  0  0  0  0  0  0  0  0  0
   35.4270   29.5550   31.8350 C   0  0  0  0  0  0  0  0  0  0  0  0
   35.5240   28.1870   32.1020 C   0  0  0  0  0  0  0  0  0  0  0  0
   36.2690   27.3430   31.2820 C   0  0  0  0  0  0  0  0  0  0  0  0
   36.8890   27.9220   30.2160 N   0  0  0  0  0  0  0  0  0  0  0  0
   36.7820   29.2430   29.9770 C   0  0  0  0  0  0  0  0  0  0  0  0
   36.0780   30.0460   30.7520 N   0  0  0  0  0  0  0  0  0  0  0  0
   34.8210   30.1330   32.5340 H   0  0  0  0  0  0  0  0  0  0  0  0
   35.0170   27.7350   32.9660 H   0  0  0  0  0  0  0  0  0  0  0  0
   37.3140   29.6090   29.1030 H   0  0  0  0  0  0  0  0  0  0  0  0
   38.8820   23.7640   34.5250 C   0  0  0  0  0  0  0  0  0  0  0  0
   37.7650   24.1270   35.0000 O   0  0  0  0  0  0  0  0  0  0  0  0
   38.9670   23.7340   33.0970 N   0  0  0  0  0  0  0  0  0  0  0  0
   39.8670   23.4350   32.6350 H   0  0  0  0  0  0  0  0  0  0  0  0
   40.0260   23.3930   35.3520 C   0  0  0  0  0  0  0  0  0  0  0  0
   39.8170   22.4980   36.3810 C   0  0  0  0  0  3  0  0  0  0  0  0
   40.9060   22.1640   37.1460 C   0  0  0  0  0  0  0  0  0  0  0  0
   40.7480   21.4550   37.9620 H   0  0  0  0  0  0  0  0  0  0  0  0
   42.1020   22.7020   36.8780 N   0  0  0  0  0  0  0  0  0  0  0  0
   42.3230   23.5820   35.8730 C   0  0  0  0  0  3  0  0  0  0  0  0
   41.2370   23.8880   35.1420 N   0  0  0  0  0  0  0  0  0  0  0  0
  2  7  1  0  0  0  0
  2  1  1  0  0  0  0
  3  2  2  0  0  0  0
  4  5  2  0  0  0  0
  4  3  1  0  0  0  0
  5  6  1  0  0  0  0
  6 10  1  0  0  0  0
  6  7  2  0  0  0  0
  7 22  1  0  0  0  0
  8  4  1  0  0  0  0
  9  5  1  0  0  0  0
 11 12  1  0  0  0  0
 11 17  1  0  0  0  0
 12 18  1  0  0  0  0
 13  3  1  0  0  0  0
 13 12  2  0  0  0  0
 14 13  1  0  0  0  0
 15 14  2  0  0  0  0
 15 16  1  0  0  0  0
 16 11  2  0  0  0  0
 19 15  1  0  0  0  0
 20 21  2  0  0  0  0
 20 24  1  0  0  0  0
 22 20  1  0  0  0  0
 23 22  1  0  0  0  0
 24 25  1  0  0  0  0
 25 26  2  0  0  0  0
 26 27  1  0  0  0  0
 28 26  1  0  0  0  0
 29 28  2  0  0  0  0
 30 24  2  0  0  0  0
 30 29  1  0  0  0  0
M  END
>  <minimizedAffinity>
-4.9495883

$$$$

 OpenBabel03272503063D

 30 32  0  0  0  0  0  0  0  0999 V2000
   38.7120   25.4490   34.3680 F   0  0  0  0  0  0  0  0  0  0  0  0
   38.3330   24.3080   33.7500 C   0  0  0  0  0  0  0  0  0  0  0  0
   38.2010   23.1420   34.4790 C   0  0  0  0  0  0  0  0  0  0  0  0
   37.8150   22.0250   33.7950 C   0  0  0  0  0  0  0  0  0  0  0  0
   37.5630   22.0310   32.4480 C   0  0  0  0  0  0  0  0  0  0  0  0
   37.6990   23.2060   31.7340 C   0  0  0  0  0  0  0  0  0  0  0  0
   38.0930   24.3650   32.4040 C   0  0  0  0  0  0  0  0  0  0  0  0
   37.7060   21.1050   34.3540 H   0  0  0  0  0  0  0  0  0  0  0  0
   37.2580   21.1260   31.9430 H   0  0  0  0  0  0  0  0  0  0  0  0
   37.5120   23.2490   30.6820 H   0  0  0  0  0  0  0  0  0  0  0  0
   39.9280   22.8170   37.8300 C   0  0  0  0  0  0  0  0  0  0  0  0
   39.6840   22.7480   36.4570 C   0  0  0  0  0  0  0  0  0  0  0  0
   38.4850   23.2010   35.9140 C   0  0  0  0  0  0  0  0  0  0  0  0
   37.5730   23.7080   36.7890 N   0  0  0  0  0  0  0  0  0  0  0  0
   37.8290   23.7650   38.1100 C   0  0  0  0  0  0  0  0  0  0  0  0
   38.9640   23.3370   38.6290 N   0  0  0  0  0  0  0  0  0  0  0  0
   40.8970   22.4380   38.1600 H   0  0  0  0  0  0  0  0  0  0  0  0
   40.4310   22.3360   35.7620 H   0  0  0  0  0  0  0  0  0  0  0  0
   37.0390   24.1860   38.7270 H   0  0  0  0  0  0  0  0  0  0  0  0
   37.0300   26.3520   31.5940 C   0  0  0  0  0  0  0  0  0  0  0  0
   36.0150   25.8230   32.1350 O   0  0  0  0  0  0  0  0  0  0  0  0
   38.2470   25.6070   31.7000 N   0  0  0  0  0  0  0  0  0  0  0  0
   39.1330   25.9930   31.2780 H   0  0  0  0  0  0  0  0  0  0  0  0
   36.9960   27.6370   30.9020 C   0  0  0  0  0  0  0  0  0  0  0  0
   36.1540   28.6130   31.3920 C   0  0  0  0  0  3  0  0  0  0  0  0
   36.1370   29.8130   30.7260 C   0  0  0  0  0  0  0  0  0  0  0  0
   35.4730   30.5910   31.1090 H   0  0  0  0  0  0  0  0  0  0  0  0
   36.9160   29.9920   29.6520 N   0  0  0  0  0  0  0  0  0  0  0  0
   37.7470   29.0450   29.1590 C   0  0  0  0  0  3  0  0  0  0  0  0
   37.7410   27.8820   29.8340 N   0  0  0  0  0  0  0  0  0  0  0  0
  2  1  1  0  0  0  0
  2  3  1  0  0  0  0
  3 13  1  0  0  0  0
  4  8  1  0  0  0  0
  4  3  2  0  0  0  0
  5  4  1  0  0  0  0
  6  7  1  0  0  0  0
  6  5  2  0  0  0  0
  7  2  2  0  0  0  0
  9  5  1  0  0  0  0
 10  6  1  0  0  0  0
 11 17  1  0  0  0  0
 11 16  1  0  0  0  0
 12 11  2  0  0  0  0
 13 12  1  0  0  0  0
 13 14  2  0  0  0  0
 14 15  1  0  0  0  0
 15 16  2  0  0  0  0
 15 19  1  0  0  0  0
 18 12  1  0  0  0  0
 20 22  1  0  0  0  0
 20 21  2  0  0  0  0
 22  7  1  0  0  0  0
 23 22  1  0  0  0  0
 24 25  1  0  0  0  0
 24 20  1  0  0  0  0
 26 27  1  0  0  0  0
 26 25  2  0  0  0  0
 28 26  1  0  0  0  0
 29 28  2  0  0  0  0
 29 30  1  0  0  0  0
 30 24  2  0  0  0  0
M  END
>  <minimizedAffinity>
-4.92815161

$$$$

 OpenBabel03272503063D

 30 32  0  0  0  0  0  0  0  0999 V2000
   36.0760   27.7270   35.0630 F   0  0  0  0  0  0  0  0  0  0  0  0
   36.2530   28.2480   33.8270 C   0  0  0  0  0  0  0  0  0  0  0  0
   35.8270   29.5340   33.5550 C   0  0  0  0  0  0  0  0  0  0  0  0
   36.0360   29.9990   32.2880 C   0  0  0  0  0  0  0  0  0  0  0  0
   36.6390   29.2480   31.3130 C   0  0  0  0  0  0  0  0  0  0  0  0
   37.0600   27.9640   31.6030 C   0  0  0  0  0  0  0  0  0  0  0  0
   36.8600   27.4590   32.8880 C   0  0  0  0  0  0  0  0  0  0  0  0
   35.7080   31.0050   32.0620 H   0  0  0  0  0  0  0  0  0  0  0  0
   36.7870   29.6530   30.3230 H   0  0  0  0  0  0  0  0  0  0  0  0
   37.5330   27.3490   30.8680 H   0  0  0  0  0  0  0  0  0  0  0  0
   35.2710   31.8370   36.5050 C   0  0  0  0  0  0  0  0  0  0  0  0
   35.9050   31.1350   35.4780 C   0  0  0  0  0  0  0  0  0  0  0  0
   35.1910   30.2830   34.6390 C   0  0  0  0  0  0  0  0  0  0  0  0
   33.8540   30.1760   34.8760 N   0  0  0  0  0  0  0  0  0  0  0  0
   33.2630   30.8630   35.8720 C   0  0  0  0  0  0  0  0  0  0  0  0
   33.9360   31.6710   36.6690 N   0  0  0  0  0  0  0  0  0  0  0  0
   35.9150   32.4790   37.1080 H   0  0  0  0  0  0  0  0  0  0  0  0
   36.9860   31.2320   35.3000 H   0  0  0  0  0  0  0  0  0  0  0  0
   32.1920   30.7110   35.9800 H   0  0  0  0  0  0  0  0  0  0  0  0
   38.5990   26.0800   33.7870 C   0  0  0  0  0  0  0  0  0  0  0  0
   39.1880   27.1960   33.9030 O   0  0  0  0  0  0  0  0  0  0  0  0
   37.2820   26.1300   33.2310 N   0  0  0  0  0  0  0  0  0  0  0  0
   36.7320   25.2380   33.1130 H   0  0  0  0  0  0  0  0  0  0  0  0
   39.1970   24.8100   34.1860 C   0  0  0  0  0  0  0  0  0  0  0  0
   38.5000   23.6520   33.9080 C   0  0  0  0  0  3  0  0  0  0  0  0
   39.0810   22.4690   34.2920 C   0  0  0  0  0  0  0  0  0  0  0  0
   38.5350   21.5480   34.0740 H   0  0  0  0  0  0  0  0  0  0  0  0
   40.2700   22.4760   34.9060 N   0  0  0  0  0  0  0  0  0  0  0  0
   40.9650   23.6030   35.1870 C   0  0  0  0  0  3  0  0  0  0  0  0
   40.3700   24.7450   34.7980 N   0  0  0  0  0  0  0  0  0  0  0  0
  2  1  1  0  0  0  0
  3  2  1  0  0  0  0
  3 13  1  0  0  0  0
  4  3  2  0  0  0  0
  5  6  2  0  0  0  0
  5  4  1  0  0  0  0
  6  7  1  0  0  0  0
  7 22  1  0  0  0  0
  7  2  2  0  0  0  0
  8  4  1  0  0  0  0
  9  5  1  0  0  0  0
 10  6  1  0  0  0  0
 11 16  1  0  0  0  0
 11 17  1  0  0  0  0
 12 11  2  0  0  0  0
 13 14  2  0  0  0  0
 13 12  1  0  0  0  0
 14 15  1  0  0  0  0
 15 19  1  0  0  0  0
 15 16  2  0  0  0  0
 18 12  1  0  0  0  0
 20 21  2  0  0  0  0
 20 24  1  0  0  0  0
 22 20  1  0  0  0  0
 23 22  1  0  0  0  0
 24 30  1  0  0  0  0
 25 24  2  0  0  0  0
 25 26  1  0  0  0  0
 26 28  2  0  0  0  0
 27 26  1  0  0  0  0
 28 29  1  0  0  0  0
 30 29  2  0  0  0  0
M  END
>  <minimizedAffinity>
-4.90397501

$$$$

 OpenBabel03272503063D

 30 32  0  0  0  0  0  0  0  0999 V2000
   35.3990   26.0680   31.5350 F   0  0  0  0  0  0  0  0  0  0  0  0
   36.7250   26.3010   31.4060 C   0  0  0  0  0  0  0  0  0  0  0  0
   37.2350   27.5520   31.6990 C   0  0  0  0  0  0  0  0  0  0  0  0
   38.5820   27.7200   31.5490 C   0  0  0  0  0  0  0  0  0  0  0  0
   39.4120   26.7140   31.1300 C   0  0  0  0  0  0  0  0  0  0  0  0
   38.8850   25.4700   30.8410 C   0  0  0  0  0  0  0  0  0  0  0  0
   37.5130   25.2650   30.9840 C   0  0  0  0  0  0  0  0  0  0  0  0
   38.9950   28.6940   31.7750 H   0  0  0  0  0  0  0  0  0  0  0  0
   40.4730   26.8880   31.0240 H   0  0  0  0  0  0  0  0  0  0  0  0
   39.5020   24.6610   30.5110 H   0  0  0  0  0  0  0  0  0  0  0  0
   35.0450   29.7420   33.8730 C   0  0  0  0  0  0  0  0  0  0  0  0
   35.9440   28.7480   33.4790 C   0  0  0  0  0  0  0  0  0  0  0  0
   36.2960   28.5830   32.1420 C   0  0  0  0  0  0  0  0  0  0  0  0
   35.7180   29.4350   31.2510 N   0  0  0  0  0  0  0  0  0  0  0  0
   34.8530   30.3860   31.6520 C   0  0  0  0  0  0  0  0  0  0  0  0
   34.5170   30.5470   32.9180 N   0  0  0  0  0  0  0  0  0  0  0  0
   34.8320   29.7920   34.9410 H   0  0  0  0  0  0  0  0  0  0  0  0
   36.4020   28.0670   34.2110 H   0  0  0  0  0  0  0  0  0  0  0  0
   34.4460   31.0170   30.8660 H   0  0  0  0  0  0  0  0  0  0  0  0
   36.9330   23.0950   31.8130 C   0  0  0  0  0  0  0  0  0  0  0  0
   37.4420   23.5540   32.8780 O   0  0  0  0  0  0  0  0  0  0  0  0
   36.9240   23.9880   30.6960 N   0  0  0  0  0  0  0  0  0  0  0  0
   36.5090   23.6710   29.7790 H   0  0  0  0  0  0  0  0  0  0  0  0
   36.3840   21.7470   31.7010 C   0  0  0  0  0  0  0  0  0  0  0  0
   35.1570   21.4980   32.2780 C   0  0  0  0  0  3  0  0  0  0  0  0
   34.6600   20.2250   32.1600 C   0  0  0  0  0  0  0  0  0  0  0  0
   33.6870   20.0210   32.6150 H   0  0  0  0  0  0  0  0  0  0  0  0
   35.3620   19.2910   31.5070 N   0  0  0  0  0  0  0  0  0  0  0  0
   36.5680   19.5180   30.9360 C   0  0  0  0  0  3  0  0  0  0  0  0
   37.0260   20.7750   31.0690 N   0  0  0  0  0  0  0  0  0  0  0  0
  2  1  1  0  0  0  0
  2  3  1  0  0  0  0
  3 13  1  0  0  0  0
  4  3  2  0  0  0  0
  4  8  1  0  0  0  0
  5  4  1  0  0  0  0
  6  7  1  0  0  0  0
  6  5  2  0  0  0  0
  7  2  2  0  0  0  0
  9  5  1  0  0  0  0
 10  6  1  0  0  0  0
 11 17  1  0  0  0  0
 12 11  1  0  0  0  0
 12 18  1  0  0  0  0
 13 12  2  0  0  0  0
 14 15  2  0  0  0  0
 14 13  1  0  0  0  0
 15 16  1  0  0  0  0
 16 11  2  0  0  0  0
 19 15  1  0  0  0  0
 20 21  2  0  0  0  0
 22  7  1  0  0  0  0
 22 20  1  0  0  0  0
 23 22  1  0  0  0  0
 24 20  1  0  0  0  0
 24 25  1  0  0  0  0
 26 25  2  0  0  0  0
 26 27  1  0  0  0  0
 28 26  1  0  0  0  0
 29 30  1  0  0  0  0
 29 28  2  0  0  0  0
 30 24  2  0  0  0  0
M  END
>  <minimizedAffinity>
-4.87710762

$$$$
