
 OpenBabel03272503043D

 30 32  0  0  0  0  0  0  0  0999 V2000
   38.4040   30.3730   47.3420 F   0  0  0  0  0  0  0  0  0  0  0  0
   38.6960   31.6060   47.8140 C   0  0  0  0  0  0  0  0  0  0  0  0
   38.1370   32.0390   49.0010 C   0  0  0  0  0  0  0  0  0  0  0  0
   38.4730   33.2940   49.4210 C   0  0  0  0  0  0  0  0  0  0  0  0
   39.3230   34.1080   48.7190 C   0  0  0  0  0  0  0  0  0  0  0  0
   39.8730   33.6600   47.5340 C   0  0  0  0  0  0  0  0  0  0  0  0
   39.5490   32.3820   47.0760 C   0  0  0  0  0  0  0  0  0  0  0  0
   38.0430   33.6450   50.3500 H   0  0  0  0  0  0  0  0  0  0  0  0
   39.5640   35.0950   49.0860 H   0  0  0  0  0  0  0  0  0  0  0  0
   40.5390   34.2670   46.9580 H   0  0  0  0  0  0  0  0  0  0  0  0
   36.7380   29.5730   51.5070 C   0  0  0  0  0  0  0  0  0  0  0  0
   37.6170   30.4420   50.8570 C   0  0  0  0  0  0  0  0  0  0  0  0
   37.2380   31.1220   49.7030 C   0  0  0  0  0  0  0  0  0  0  0  0
   35.9750   30.8930   49.2490 N   0  0  0  0  0  0  0  0  0  0  0  0
   35.1430   30.0510   49.8910 C   0  0  0  0  0  0  0  0  0  0  0  0
   35.4980   29.4040   50.9850 N   0  0  0  0  0  0  0  0  0  0  0  0
   37.1270   29.0860   52.4030 H   0  0  0  0  0  0  0  0  0  0  0  0
   38.6350   30.6160   51.2370 H   0  0  0  0  0  0  0  0  0  0  0  0
   34.1560   29.9350   49.4510 H   0  0  0  0  0  0  0  0  0  0  0  0
   39.2500   32.0890   44.7190 C   0  0  0  0  0  0  0  0  0  0  0  0
   38.1600   32.6890   44.9570 O   0  0  0  0  0  0  0  0  0  0  0  0
   40.0990   31.8770   45.8500 N   0  0  0  0  0  0  0  0  0  0  0  0
   41.0250   31.3890   45.7220 H   0  0  0  0  0  0  0  0  0  0  0  0
   39.6430   31.6320   43.3900 C   0  0  0  0  0  0  0  0  0  0  0  0
   40.4750   30.5360   43.3030 C   0  0  0  0  0  0  0  0  0  0  0  0
   40.8320   30.1230   42.0440 C   0  0  0  0  0  0  0  0  0  0  0  0
   41.4910   29.2550   41.9670 H   0  0  0  0  0  0  0  0  0  0  0  0
   40.3740   30.7790   40.9700 N   0  0  0  0  0  0  0  0  0  0  0  0
   39.5570   31.8560   41.0390 C   0  0  0  0  0  0  0  0  0  0  0  0
   39.2260   32.2350   42.2860 N   0  0  0  0  0  0  0  0  0  0  0  0
  1  2  1  0  0  0  0
  2  3  1  0  0  0  0
  3  4  2  0  0  0  0
  3 13  1  0  0  0  0
  4  8  1  0  0  0  0
  5  9  1  0  0  0  0
  5  4  1  0  0  0  0
  6  5  2  0  0  0  0
  7  6  1  0  0  0  0
  7  2  2  0  0  0  0
 10  6  1  0  0  0  0
 11 17  1  0  0  0  0
 12 18  1  0  0  0  0
 12 11  2  0  0  0  0
 13 12  1  0  0  0  0
 14 13  2  0  0  0  0
 14 15  1  0  0  0  0
 15 16  2  0  0  0  0
 16 11  1  0  0  0  0
 19 15  1  0  0  0  0
 20 21  2  0  0  0  0
 20 22  1  0  0  0  0
 22  7  1  0  0  0  0
 23 22  1  0  0  0  0
 24 20  1  0  0  0  0
 25 24  1  0  0  0  0
 26 25  2  0  0  0  0
 27 26  1  0  0  0  0
 28 29  2  0  0  0  0
 28 26  1  0  0  0  0
 29 30  1  0  0  0  0
 30 24  2  0  0  0  0
M  END
>  <minimizedAffinity>
-6.67537785

>  <minimizedRMSD>
0.191366225

$$$$
