
 OpenBabel03272503253D

 30 32  0  0  1  0  0  0  0  0999 V2000
   36.4590   22.3380   32.2490 N   0  0  0  0  0  0  0  0  0  0  0  0
   36.5910   21.8270   33.5660 C   0  0  1  0  0  0  0  0  0  0  0  0
   35.8800   20.4980   33.5530 C   0  0  0  0  0  0  0  0  0  0  0  0
   35.3890   20.3590   32.0850 C   0  0  0  0  0  0  0  0  0  0  0  0
   36.4120   21.1920   31.3820 C   0  0  0  0  0  0  0  0  0  0  0  0
   35.9460   22.5260   34.2340 H   0  0  0  0  0  0  0  0  0  0  0  0
   36.5120   19.6570   33.8450 H   0  0  0  0  0  0  0  0  0  0  0  0
   34.9400   20.5640   34.1320 H   0  0  0  0  0  0  0  0  0  0  0  0
   34.3890   20.7910   31.9550 H   0  0  0  0  0  0  0  0  0  0  0  0
   35.4920   19.3070   31.8210 H   0  0  0  0  0  0  0  0  0  0  0  0
   36.0510   21.4800   30.3610 H   0  0  0  0  0  0  0  0  0  0  0  0
   37.3900   20.6820   31.3180 H   0  0  0  0  0  0  0  0  0  0  0  0
   36.3800   23.7120   31.8850 C   0  0  0  0  0  0  0  0  0  0  0  0
   35.2270   24.1670   31.2290 C   0  0  0  0  0  0  0  0  0  0  0  0
   35.1380   25.5120   30.8700 C   0  0  0  0  0  0  0  0  0  0  0  0
   36.2150   26.3100   31.1940 N   0  0  0  0  0  0  0  0  0  0  0  0
   37.3110   25.8330   31.8280 C   0  0  0  0  0  0  0  0  0  0  0  0
   37.4040   24.5230   32.1810 N   0  0  0  0  0  0  0  0  0  0  0  0
   34.3870   23.5760   30.9680 H   0  0  0  0  0  0  0  0  0  0  0  0
   34.2840   25.9010   30.3720 H   0  0  0  0  0  0  0  0  0  0  0  0
   38.1020   26.5080   32.0450 H   0  0  0  0  0  0  0  0  0  0  0  0
   37.8930   21.8580   34.1850 C   0  0  0  0  0  0  0  0  0  0  0  0
   38.8630   21.4460   33.5830 O   0  0  0  0  0  0  0  0  0  0  0  0
   38.3620   22.3060   35.5180 C   0  0  0  0  0  0  0  0  0  0  0  0
   39.6300   22.1810   35.9840 C   0  0  0  0  0  3  0  0  0  0  0  0
   40.0690   22.5790   37.2130 C   0  0  0  0  0  0  0  0  0  0  0  0
   41.0990   22.4400   37.5000 H   0  0  0  0  0  0  0  0  0  0  0  0
   39.1660   23.1430   38.0340 N   0  0  0  0  0  0  0  0  0  0  0  0
   37.9040   23.2790   37.5960 C   0  0  0  0  0  3  0  0  0  0  0  0
   37.5350   22.8730   36.3900 N   0  0  0  0  0  0  0  0  0  0  0  0
  1  2  1  0  0  0  0
  2 22  1  0  0  0  0
  2  6  1  1  0  0  0
  3  2  1  0  0  0  0
  3  7  1  0  0  0  0
  3  8  1  0  0  0  0
  4  3  1  0  0  0  0
  5  4  1  0  0  0  0
  5  1  1  0  0  0  0
  9  4  1  0  0  0  0
 10  4  1  0  0  0  0
 11  5  1  0  0  0  0
 12  5  1  0  0  0  0
 13 18  1  0  0  0  0
 13  1  1  0  0  0  0
 14 13  2  0  0  0  0
 15 16  2  0  0  0  0
 15 14  1  0  0  0  0
 16 17  1  0  0  0  0
 17 21  1  0  0  0  0
 17 18  2  0  0  0  0
 19 14  1  0  0  0  0
 20 15  1  0  0  0  0
 22 24  1  0  0  0  0
 23 22  2  0  0  0  0
 24 25  2  0  0  0  0
 24 30  1  0  0  0  0
 25 26  1  0  0  0  0
 26 27  1  0  0  0  0
 26 28  2  0  0  0  0
 29 28  1  0  0  0  0
 30 29  2  0  0  0  0
M  END
>  <minimizedAffinity>
-4.9960413

$$$$

 OpenBabel03272503253D

 30 32  0  0  1  0  0  0  0  0999 V2000
   38.0580   23.0850   36.3970 N   0  0  0  0  0  0  0  0  0  0  0  0
   37.7770   24.4580   36.6220 C   0  0  1  0  0  0  0  0  0  0  0  0
   38.1610   24.7150   38.0570 C   0  0  0  0  0  0  0  0  0  0  0  0
   38.6950   23.3390   38.5450 C   0  0  0  0  0  0  0  0  0  0  0  0
   39.1690   22.7630   37.2500 C   0  0  0  0  0  0  0  0  0  0  0  0
   36.6200   24.5460   36.5810 H   0  0  0  0  0  0  0  0  0  0  0  0
   38.9070   25.5010   38.1800 H   0  0  0  0  0  0  0  0  0  0  0  0
   37.2540   24.8690   38.6700 H   0  0  0  0  0  0  0  0  0  0  0  0
   37.8910   22.7240   38.9670 H   0  0  0  0  0  0  0  0  0  0  0  0
   39.5320   23.5500   39.2100 H   0  0  0  0  0  0  0  0  0  0  0  0
   39.2950   21.6520   37.3370 H   0  0  0  0  0  0  0  0  0  0  0  0
   40.1060   23.2330   36.9040 H   0  0  0  0  0  0  0  0  0  0  0  0
   37.3600   22.2200   35.5080 C   0  0  0  0  0  0  0  0  0  0  0  0
   37.7550   22.1820   34.1620 C   0  0  0  0  0  0  0  0  0  0  0  0
   37.0790   21.3360   33.2820 C   0  0  0  0  0  0  0  0  0  0  0  0
   36.0510   20.5860   33.8130 N   0  0  0  0  0  0  0  0  0  0  0  0
   35.6990   20.6510   35.1180 C   0  0  0  0  0  0  0  0  0  0  0  0
   36.3540   21.4730   35.9810 N   0  0  0  0  0  0  0  0  0  0  0  0
   38.5400   22.7470   33.7290 H   0  0  0  0  0  0  0  0  0  0  0  0
   37.3430   21.2740   32.2540 H   0  0  0  0  0  0  0  0  0  0  0  0
   34.8960   20.0440   35.4560 H   0  0  0  0  0  0  0  0  0  0  0  0
   38.2340   25.4180   35.6480 C   0  0  0  0  0  0  0  0  0  0  0  0
   39.4130   25.6990   35.5760 O   0  0  0  0  0  0  0  0  0  0  0  0
   37.5280   26.2290   34.6290 C   0  0  0  0  0  0  0  0  0  0  0  0
   37.0570   27.4880   34.8190 C   0  0  0  0  0  3  0  0  0  0  0  0
   36.3950   28.2380   33.8910 C   0  0  0  0  0  0  0  0  0  0  0  0
   36.0550   29.2330   34.1310 H   0  0  0  0  0  0  0  0  0  0  0  0
   36.1920   27.6830   32.6830 N   0  0  0  0  0  0  0  0  0  0  0  0
   36.6500   26.4380   32.4700 C   0  0  0  0  0  3  0  0  0  0  0  0
   37.2870   25.7560   33.4100 N   0  0  0  0  0  0  0  0  0  0  0  0
  1  2  1  0  0  0  0
  1  5  1  0  0  0  0
  2  6  1  6  0  0  0
  2  3  1  0  0  0  0
  3  7  1  0  0  0  0
  3  4  1  0  0  0  0
  3  8  1  0  0  0  0
  4  9  1  0  0  0  0
  4 10  1  0  0  0  0
  5 11  1  0  0  0  0
  5  4  1  0  0  0  0
 12  5  1  0  0  0  0
 13 18  1  0  0  0  0
 13  1  1  0  0  0  0
 14 13  2  0  0  0  0
 15 16  2  0  0  0  0
 15 14  1  0  0  0  0
 16 17  1  0  0  0  0
 17 21  1  0  0  0  0
 17 18  2  0  0  0  0
 19 14  1  0  0  0  0
 20 15  1  0  0  0  0
 22  2  1  0  0  0  0
 23 22  2  0  0  0  0
 24 25  1  0  0  0  0
 24 22  1  0  0  0  0
 26 27  1  0  0  0  0
 26 25  2  0  0  0  0
 28 26  1  0  0  0  0
 29 28  2  0  0  0  0
 29 30  1  0  0  0  0
 30 24  2  0  0  0  0
M  END
>  <minimizedAffinity>
-4.92871618

$$$$

 OpenBabel03272503253D

 30 32  0  0  1  0  0  0  0  0999 V2000
   37.9150   25.8780   34.0580 N   0  0  0  0  0  0  0  0  0  0  0  0
   39.3320   25.8190   34.1040 C   0  0  1  0  0  0  0  0  0  0  0  0
   39.7440   26.8690   35.1040 C   0  0  0  0  0  0  0  0  0  0  0  0
   38.3920   27.4590   35.5930 C   0  0  0  0  0  0  0  0  0  0  0  0
   37.4930   26.2860   35.3700 C   0  0  0  0  0  0  0  0  0  0  0  0
   39.6900   26.2080   33.0690 H   0  0  0  0  0  0  0  0  0  0  0  0
   40.3350   26.4790   35.9350 H   0  0  0  0  0  0  0  0  0  0  0  0
   40.2220   27.7210   34.5860 H   0  0  0  0  0  0  0  0  0  0  0  0
   38.0770   28.3070   34.9730 H   0  0  0  0  0  0  0  0  0  0  0  0
   38.5100   27.6660   36.6570 H   0  0  0  0  0  0  0  0  0  0  0  0
   36.4190   26.6100   35.3600 H   0  0  0  0  0  0  0  0  0  0  0  0
   37.6510   25.4930   36.1220 H   0  0  0  0  0  0  0  0  0  0  0  0
   37.0990   25.5940   32.9270 C   0  0  0  0  0  0  0  0  0  0  0  0
   36.5300   26.6660   32.2250 C   0  0  0  0  0  0  0  0  0  0  0  0
   35.7300   26.3990   31.1130 C   0  0  0  0  0  0  0  0  0  0  0  0
   35.5560   25.0720   30.7820 N   0  0  0  0  0  0  0  0  0  0  0  0
   36.1220   24.0650   31.4860 C   0  0  0  0  0  0  0  0  0  0  0  0
   36.9030   24.3180   32.5700 N   0  0  0  0  0  0  0  0  0  0  0  0
   36.6480   27.6930   32.4580 H   0  0  0  0  0  0  0  0  0  0  0  0
   35.2780   27.1800   30.5510 H   0  0  0  0  0  0  0  0  0  0  0  0
   35.9420   23.0660   31.1710 H   0  0  0  0  0  0  0  0  0  0  0  0
   39.9600   24.5280   34.2270 C   0  0  0  0  0  0  0  0  0  0  0  0
   40.2790   23.9080   33.2330 O   0  0  0  0  0  0  0  0  0  0  0  0
   40.3260   23.6950   35.3980 C   0  0  0  0  0  0  0  0  0  0  0  0
   41.5300   23.0970   35.5870 C   0  0  0  0  0  3  0  0  0  0  0  0
   41.8720   22.3200   36.6540 C   0  0  0  0  0  0  0  0  0  0  0  0
   42.8560   21.8830   36.7230 H   0  0  0  0  0  0  0  0  0  0  0  0
   40.9370   22.1300   37.6020 N   0  0  0  0  0  0  0  0  0  0  0  0
   39.7380   22.7120   37.4380 C   0  0  0  0  0  3  0  0  0  0  0  0
   39.4610   23.4580   36.3780 N   0  0  0  0  0  0  0  0  0  0  0  0
  1  2  1  0  0  0  0
  1  5  1  0  0  0  0
  2  6  1  6  0  0  0
  2 22  1  0  0  0  0
  2  3  1  0  0  0  0
  3  4  1  0  0  0  0
  3  7  1  0  0  0  0
  4 10  1  0  0  0  0
  5  4  1  0  0  0  0
  5 12  1  0  0  0  0
  8  3  1  0  0  0  0
  9  4  1  0  0  0  0
 11  5  1  0  0  0  0
 13  1  1  0  0  0  0
 14 19  1  0  0  0  0
 14 13  2  0  0  0  0
 15 14  1  0  0  0  0
 16 15  2  0  0  0  0
 16 17  1  0  0  0  0
 17 18  2  0  0  0  0
 18 13  1  0  0  0  0
 20 15  1  0  0  0  0
 21 17  1  0  0  0  0
 22 24  1  0  0  0  0
 23 22  2  0  0  0  0
 24 25  2  0  0  0  0
 24 30  1  0  0  0  0
 25 26  1  0  0  0  0
 26 27  1  0  0  0  0
 26 28  2  0  0  0  0
 29 28  1  0  0  0  0
 30 29  2  0  0  0  0
M  END
>  <minimizedAffinity>
-4.78588343

$$$$

 OpenBabel03272503253D

 30 32  0  0  1  0  0  0  0  0999 V2000
   38.5390   25.7380   35.3740 N   0  0  0  0  0  0  0  0  0  0  0  0
   37.4630   25.7360   34.4480 C   0  0  1  0  0  0  0  0  0  0  0  0
   36.9460   27.1520   34.4330 C   0  0  0  0  0  0  0  0  0  0  0  0
   37.8830   27.8950   35.4260 C   0  0  0  0  0  0  0  0  0  0  0  0
   39.1130   27.0540   35.3110 C   0  0  0  0  0  0  0  0  0  0  0  0
   36.6290   25.0990   34.9460 H   0  0  0  0  0  0  0  0  0  0  0  0
   36.9600   27.6170   33.4450 H   0  0  0  0  0  0  0  0  0  0  0  0
   35.9580   27.2010   34.9280 H   0  0  0  0  0  0  0  0  0  0  0  0
   37.4900   27.8610   36.4500 H   0  0  0  0  0  0  0  0  0  0  0  0
   38.0480   28.8900   35.0120 H   0  0  0  0  0  0  0  0  0  0  0  0
   39.7950   27.2330   36.1830 H   0  0  0  0  0  0  0  0  0  0  0  0
   39.6470   27.2280   34.3600 H   0  0  0  0  0  0  0  0  0  0  0  0
   38.9420   24.6470   36.1930 C   0  0  0  0  0  0  0  0  0  0  0  0
   38.2330   24.4010   37.3790 C   0  0  0  0  0  0  0  0  0  0  0  0
   38.6180   23.3330   38.1890 C   0  0  0  0  0  0  0  0  0  0  0  0
   39.6910   22.5840   37.7550 N   0  0  0  0  0  0  0  0  0  0  0  0
   40.3500   22.8530   36.6040 C   0  0  0  0  0  0  0  0  0  0  0  0
   39.9800   23.8920   35.8100 N   0  0  0  0  0  0  0  0  0  0  0  0
   37.4070   24.9610   37.7350 H   0  0  0  0  0  0  0  0  0  0  0  0
   38.1100   23.1090   39.0960 H   0  0  0  0  0  0  0  0  0  0  0  0
   41.1680   22.2310   36.3340 H   0  0  0  0  0  0  0  0  0  0  0  0
   37.6640   25.1080   33.1670 C   0  0  0  0  0  0  0  0  0  0  0  0
   38.2090   25.7150   32.2680 O   0  0  0  0  0  0  0  0  0  0  0  0
   37.3110   23.7680   32.6380 C   0  0  0  0  0  0  0  0  0  0  0  0
   36.3270   23.5160   31.7370 C   0  0  0  0  0  3  0  0  0  0  0  0
   35.9870   22.2870   31.2540 C   0  0  0  0  0  0  0  0  0  0  0  0
   35.1880   22.1800   30.5370 H   0  0  0  0  0  0  0  0  0  0  0  0
   36.6870   21.2330   31.7090 N   0  0  0  0  0  0  0  0  0  0  0  0
   37.6660   21.4560   32.6010 C   0  0  0  0  0  3  0  0  0  0  0  0
   37.9530   22.6740   33.0350 N   0  0  0  0  0  0  0  0  0  0  0  0
  1 13  1  0  0  0  0
  2  6  1  1  0  0  0
  2  1  1  0  0  0  0
  3  2  1  0  0  0  0
  3  8  1  0  0  0  0
  3  4  1  0  0  0  0
  4  9  1  0  0  0  0
  5  1  1  0  0  0  0
  5  4  1  0  0  0  0
  5 11  1  0  0  0  0
  7  3  1  0  0  0  0
 10  4  1  0  0  0  0
 12  5  1  0  0  0  0
 13 14  1  0  0  0  0
 14 19  1  0  0  0  0
 14 15  2  0  0  0  0
 15 20  1  0  0  0  0
 16 15  1  0  0  0  0
 17 16  2  0  0  0  0
 18 13  2  0  0  0  0
 18 17  1  0  0  0  0
 21 17  1  0  0  0  0
 22  2  1  0  0  0  0
 23 22  2  0  0  0  0
 24 30  1  0  0  0  0
 24 22  1  0  0  0  0
 25 24  2  0  0  0  0
 26 28  2  0  0  0  0
 26 25  1  0  0  0  0
 27 26  1  0  0  0  0
 28 29  1  0  0  0  0
 29 30  2  0  0  0  0
M  END
>  <minimizedAffinity>
-4.72888613

$$$$

 OpenBabel03272503253D

 30 32  0  0  1  0  0  0  0  0999 V2000
   37.1560   25.0520   32.4910 N   0  0  0  0  0  0  0  0  0  0  0  0
   38.1190   25.6010   33.3770 C   0  0  1  0  0  0  0  0  0  0  0  0
   38.4360   26.9680   32.8270 C   0  0  0  0  0  0  0  0  0  0  0  0
   37.5170   27.0830   31.5790 C   0  0  0  0  0  0  0  0  0  0  0  0
   36.4060   26.1680   31.9810 C   0  0  0  0  0  0  0  0  0  0  0  0
   39.0790   24.9650   33.2210 H   0  0  0  0  0  0  0  0  0  0  0  0
   38.2560   27.7810   33.5340 H   0  0  0  0  0  0  0  0  0  0  0  0
   39.4540   26.9780   32.3970 H   0  0  0  0  0  0  0  0  0  0  0  0
   38.0160   26.7070   30.6780 H   0  0  0  0  0  0  0  0  0  0  0  0
   37.1770   28.1180   31.5380 H   0  0  0  0  0  0  0  0  0  0  0  0
   35.8020   25.8650   31.0870 H   0  0  0  0  0  0  0  0  0  0  0  0
   35.7570   26.6170   32.7530 H   0  0  0  0  0  0  0  0  0  0  0  0
   36.9920   23.6740   32.1790 C   0  0  0  0  0  0  0  0  0  0  0  0
   35.8220   23.2710   31.5180 C   0  0  0  0  0  0  0  0  0  0  0  0
   35.6510   21.9220   31.2050 C   0  0  0  0  0  0  0  0  0  0  0  0
   36.6670   21.0680   31.5790 N   0  0  0  0  0  0  0  0  0  0  0  0
   37.7810   21.4950   32.2170 C   0  0  0  0  0  0  0  0  0  0  0  0
   37.9540   22.8090   32.5240 N   0  0  0  0  0  0  0  0  0  0  0  0
   35.0270   23.9050   31.2200 H   0  0  0  0  0  0  0  0  0  0  0  0
   34.7810   21.5710   30.7050 H   0  0  0  0  0  0  0  0  0  0  0  0
   38.5220   20.7790   32.4730 H   0  0  0  0  0  0  0  0  0  0  0  0
   37.8710   25.5160   34.7950 C   0  0  0  0  0  0  0  0  0  0  0  0
   37.1120   26.2970   35.3290 O   0  0  0  0  0  0  0  0  0  0  0  0
   38.3920   24.6180   35.8540 C   0  0  0  0  0  0  0  0  0  0  0  0
   37.9130   24.5430   37.1220 C   0  0  0  0  0  3  0  0  0  0  0  0
   38.3920   23.7290   38.1060 C   0  0  0  0  0  0  0  0  0  0  0  0
   37.9480   23.7360   39.0890 H   0  0  0  0  0  0  0  0  0  0  0  0
   39.4290   22.9320   37.7940 N   0  0  0  0  0  0  0  0  0  0  0  0
   39.9210   22.9880   36.5450 C   0  0  0  0  0  3  0  0  0  0  0  0
   39.4140   23.7990   35.6280 N   0  0  0  0  0  0  0  0  0  0  0  0
  1  2  1  0  0  0  0
  2  6  1  6  0  0  0
  2 22  1  0  0  0  0
  3  2  1  0  0  0  0
  3  7  1  0  0  0  0
  4  5  1  0  0  0  0
  4  3  1  0  0  0  0
  5  1  1  0  0  0  0
  5 12  1  0  0  0  0
  8  3  1  0  0  0  0
  9  4  1  0  0  0  0
 10  4  1  0  0  0  0
 11  5  1  0  0  0  0
 13  1  1  0  0  0  0
 13 18  1  0  0  0  0
 14 13  2  0  0  0  0
 15 14  1  0  0  0  0
 15 16  2  0  0  0  0
 16 17  1  0  0  0  0
 17 21  1  0  0  0  0
 17 18  2  0  0  0  0
 19 14  1  0  0  0  0
 20 15  1  0  0  0  0
 22 23  2  0  0  0  0
 22 24  1  0  0  0  0
 24 25  1  0  0  0  0
 25 26  2  0  0  0  0
 26 27  1  0  0  0  0
 28 26  1  0  0  0  0
 29 28  2  0  0  0  0
 30 24  2  0  0  0  0
 30 29  1  0  0  0  0
M  END
>  <minimizedAffinity>
-4.70654154

$$$$

 OpenBabel03272503253D

 30 32  0  0  1  0  0  0  0  0999 V2000
   38.8380   26.4420   33.7670 N   0  0  0  0  0  0  0  0  0  0  0  0
   39.3030   25.1010   33.7250 C   0  0  1  0  0  0  0  0  0  0  0  0
   40.8040   25.1960   33.8250 C   0  0  0  0  0  0  0  0  0  0  0  0
   41.0670   26.7220   33.9520 C   0  0  0  0  0  0  0  0  0  0  0  0
   39.7820   27.1640   34.5750 C   0  0  0  0  0  0  0  0  0  0  0  0
   39.0790   24.7310   32.6470 H   0  0  0  0  0  0  0  0  0  0  0  0
   41.2250   24.6450   34.6690 H   0  0  0  0  0  0  0  0  0  0  0  0
   41.2670   24.9360   32.8550 H   0  0  0  0  0  0  0  0  0  0  0  0
   41.1970   27.1900   32.9680 H   0  0  0  0  0  0  0  0  0  0  0  0
   41.9000   26.8370   34.6460 H   0  0  0  0  0  0  0  0  0  0  0  0
   39.6460   28.2700   34.4530 H   0  0  0  0  0  0  0  0  0  0  0  0
   39.7190   26.8800   35.6400 H   0  0  0  0  0  0  0  0  0  0  0  0
   37.6730   26.9460   33.1240 C   0  0  0  0  0  0  0  0  0  0  0  0
   36.9300   27.9450   33.7700 C   0  0  0  0  0  0  0  0  0  0  0  0
   35.7870   28.4490   33.1470 C   0  0  0  0  0  0  0  0  0  0  0  0
   35.4670   27.9130   31.9180 N   0  0  0  0  0  0  0  0  0  0  0  0
   36.2090   26.9490   31.3270 C   0  0  0  0  0  0  0  0  0  0  0  0
   37.3240   26.4540   31.9280 N   0  0  0  0  0  0  0  0  0  0  0  0
   37.1540   28.3730   34.7130 H   0  0  0  0  0  0  0  0  0  0  0  0
   35.1940   29.2070   33.6000 H   0  0  0  0  0  0  0  0  0  0  0  0
   35.9000   26.5840   30.3790 H   0  0  0  0  0  0  0  0  0  0  0  0
   38.6590   24.1270   34.5690 C   0  0  0  0  0  0  0  0  0  0  0  0
   37.8930   23.3160   34.0890 O   0  0  0  0  0  0  0  0  0  0  0  0
   38.7070   23.8720   36.0280 C   0  0  0  0  0  0  0  0  0  0  0  0
   37.8750   24.4230   36.9480 C   0  0  0  0  0  3  0  0  0  0  0  0
   37.9190   24.2040   38.2930 C   0  0  0  0  0  0  0  0  0  0  0  0
   37.2150   24.6880   38.9520 H   0  0  0  0  0  0  0  0  0  0  0  0
   38.8690   23.3700   38.7500 N   0  0  0  0  0  0  0  0  0  0  0  0
   39.7060   22.8100   37.8600 C   0  0  0  0  0  3  0  0  0  0  0  0
   39.6150   23.0600   36.5610 N   0  0  0  0  0  0  0  0  0  0  0  0
  1  5  1  0  0  0  0
  2  6  1  6  0  0  0
  2  1  1  0  0  0  0
  2  3  1  0  0  0  0
  2 22  1  0  0  0  0
  3  4  1  0  0  0  0
  3  7  1  0  0  0  0
  4  5  1  0  0  0  0
  4 10  1  0  0  0  0
  5 12  1  0  0  0  0
  8  3  1  0  0  0  0
  9  4  1  0  0  0  0
 11  5  1  0  0  0  0
 13  1  1  0  0  0  0
 13 14  1  0  0  0  0
 14 19  1  0  0  0  0
 15 20  1  0  0  0  0
 15 14  2  0  0  0  0
 16 15  1  0  0  0  0
 17 16  2  0  0  0  0
 17 18  1  0  0  0  0
 18 13  2  0  0  0  0
 21 17  1  0  0  0  0
 22 24  1  0  0  0  0
 23 22  2  0  0  0  0
 24 30  2  0  0  0  0
 24 25  1  0  0  0  0
 25 26  2  0  0  0  0
 26 28  1  0  0  0  0
 26 27  1  0  0  0  0
 29 28  2  0  0  0  0
 30 29  1  0  0  0  0
M  END
>  <minimizedAffinity>
-4.67784262

$$$$

 OpenBabel03272503253D

 30 32  0  0  1  0  0  0  0  0999 V2000
   39.7040   25.2310   34.9170 N   0  0  0  0  0  0  0  0  0  0  0  0
   39.5080   26.6230   34.7190 C   0  0  1  0  0  0  0  0  0  0  0  0
   40.6370   27.0630   33.8220 C   0  0  0  0  0  0  0  0  0  0  0  0
   41.4240   25.7500   33.5540 C   0  0  0  0  0  0  0  0  0  0  0  0
   40.3290   24.7450   33.7180 C   0  0  0  0  0  0  0  0  0  0  0  0
   39.7120   27.1130   35.7520 H   0  0  0  0  0  0  0  0  0  0  0  0
   40.3060   27.5290   32.8930 H   0  0  0  0  0  0  0  0  0  0  0  0
   41.3560   27.6800   34.3920 H   0  0  0  0  0  0  0  0  0  0  0  0
   42.2060   25.5900   34.3060 H   0  0  0  0  0  0  0  0  0  0  0  0
   41.7610   25.7960   32.5180 H   0  0  0  0  0  0  0  0  0  0  0  0
   40.7570   23.7210   33.8800 H   0  0  0  0  0  0  0  0  0  0  0  0
   39.6350   24.7440   32.8600 H   0  0  0  0  0  0  0  0  0  0  0  0
   39.3530   24.4920   36.0810 C   0  0  0  0  0  0  0  0  0  0  0  0
   40.1750   23.4240   36.4700 C   0  0  0  0  0  0  0  0  0  0  0  0
   39.8410   22.6930   37.6110 C   0  0  0  0  0  0  0  0  0  0  0  0
   38.7030   23.0840   38.2840 N   0  0  0  0  0  0  0  0  0  0  0  0
   37.9340   24.1200   37.8760 C   0  0  0  0  0  0  0  0  0  0  0  0
   38.2540   24.8370   36.7650 N   0  0  0  0  0  0  0  0  0  0  0  0
   41.0530   23.1030   35.9720 H   0  0  0  0  0  0  0  0  0  0  0  0
   40.4350   21.8760   37.9440 H   0  0  0  0  0  0  0  0  0  0  0  0
   37.0710   24.3630   38.4450 H   0  0  0  0  0  0  0  0  0  0  0  0
   38.1870   27.0840   34.3700 C   0  0  0  0  0  0  0  0  0  0  0  0
   37.5500   27.7580   35.1530 O   0  0  0  0  0  0  0  0  0  0  0  0
   37.3420   26.8950   33.1670 C   0  0  0  0  0  0  0  0  0  0  0  0
   36.9170   27.8870   32.3440 C   0  0  0  0  0  3  0  0  0  0  0  0
   36.1290   27.7240   31.2430 C   0  0  0  0  0  0  0  0  0  0  0  0
   35.8390   28.5730   30.6440 H   0  0  0  0  0  0  0  0  0  0  0  0
   35.7390   26.4720   30.9450 N   0  0  0  0  0  0  0  0  0  0  0  0
   36.1480   25.4720   31.7440 C   0  0  0  0  0  3  0  0  0  0  0  0
   36.9140   25.6900   32.8030 N   0  0  0  0  0  0  0  0  0  0  0  0
  1 13  1  0  0  0  0
  2  1  1  0  0  0  0
  2  6  1  1  0  0  0
  3  8  1  0  0  0  0
  3  2  1  0  0  0  0
  4  5  1  0  0  0  0
  4  3  1  0  0  0  0
  4  9  1  0  0  0  0
  5 11  1  0  0  0  0
  5  1  1  0  0  0  0
  7  3  1  0  0  0  0
 10  4  1  0  0  0  0
 12  5  1  0  0  0  0
 13 14  2  0  0  0  0
 13 18  1  0  0  0  0
 14 15  1  0  0  0  0
 15 20  1  0  0  0  0
 15 16  2  0  0  0  0
 17 16  1  0  0  0  0
 17 21  1  0  0  0  0
 18 17  2  0  0  0  0
 19 14  1  0  0  0  0
 22  2  1  0  0  0  0
 22 23  2  0  0  0  0
 24 22  1  0  0  0  0
 25 24  2  0  0  0  0
 26 25  1  0  0  0  0
 27 26  1  0  0  0  0
 28 26  2  0  0  0  0
 28 29  1  0  0  0  0
 29 30  2  0  0  0  0
 30 24  1  0  0  0  0
M  END
>  <minimizedAffinity>
-4.66289902

$$$$

 OpenBabel03272503253D

 30 32  0  0  1  0  0  0  0  0999 V2000
   38.4230   24.1780   36.2580 N   0  0  0  0  0  0  0  0  0  0  0  0
   39.5420   23.3440   35.9960 C   0  0  1  0  0  0  0  0  0  0  0  0
   39.9210   22.7530   37.3290 C   0  0  0  0  0  0  0  0  0  0  0  0
   38.8660   23.3440   38.3050 C   0  0  0  0  0  0  0  0  0  0  0  0
   37.7290   23.5750   37.3620 C   0  0  0  0  0  0  0  0  0  0  0  0
   40.4050   24.0680   35.7120 H   0  0  0  0  0  0  0  0  0  0  0  0
   39.9140   21.6620   37.3450 H   0  0  0  0  0  0  0  0  0  0  0  0
   40.8710   23.1930   37.6830 H   0  0  0  0  0  0  0  0  0  0  0  0
   39.2060   24.2950   38.7350 H   0  0  0  0  0  0  0  0  0  0  0  0
   38.6290   22.5570   39.0210 H   0  0  0  0  0  0  0  0  0  0  0  0
   36.9890   24.2900   37.8060 H   0  0  0  0  0  0  0  0  0  0  0  0
   37.2320   22.6310   37.0740 H   0  0  0  0  0  0  0  0  0  0  0  0
   38.0830   25.3710   35.5590 C   0  0  0  0  0  0  0  0  0  0  0  0
   38.3150   26.6040   36.1860 C   0  0  0  0  0  0  0  0  0  0  0  0
   37.9880   27.7800   35.5100 C   0  0  0  0  0  0  0  0  0  0  0  0
   37.4480   27.6370   34.2490 N   0  0  0  0  0  0  0  0  0  0  0  0
   37.2380   26.4290   33.6780 C   0  0  0  0  0  0  0  0  0  0  0  0
   37.5560   25.2790   34.3320 N   0  0  0  0  0  0  0  0  0  0  0  0
   38.7280   26.7410   37.1520 H   0  0  0  0  0  0  0  0  0  0  0  0
   38.1470   28.7360   35.9460 H   0  0  0  0  0  0  0  0  0  0  0  0
   36.8190   26.3970   32.7030 H   0  0  0  0  0  0  0  0  0  0  0  0
   39.4700   22.4340   34.8810 C   0  0  0  0  0  0  0  0  0  0  0  0
   40.4630   21.8430   34.5120 O   0  0  0  0  0  0  0  0  0  0  0  0
   38.3600   22.0250   33.9870 C   0  0  0  0  0  0  0  0  0  0  0  0
   37.1980   21.4510   34.3920 C   0  0  0  0  0  3  0  0  0  0  0  0
   36.1770   21.0620   33.5770 C   0  0  0  0  0  0  0  0  0  0  0  0
   35.2870   20.6120   33.9880 H   0  0  0  0  0  0  0  0  0  0  0  0
   36.3330   21.2630   32.2570 N   0  0  0  0  0  0  0  0  0  0  0  0
   37.4740   21.8300   31.8300 C   0  0  0  0  0  3  0  0  0  0  0  0
   38.4330   22.1890   32.6700 N   0  0  0  0  0  0  0  0  0  0  0  0
  1  5  1  0  0  0  0
  2  6  1  6  0  0  0
  2  1  1  0  0  0  0
  2  3  1  0  0  0  0
  3  7  1  0  0  0  0
  3  8  1  0  0  0  0
  3  4  1  0  0  0  0
  4  9  1  0  0  0  0
  4 10  1  0  0  0  0
  5 11  1  0  0  0  0
  5  4  1  0  0  0  0
 12  5  1  0  0  0  0
 13 14  1  0  0  0  0
 13  1  1  0  0  0  0
 14 19  1  0  0  0  0
 15 20  1  0  0  0  0
 15 14  2  0  0  0  0
 16 15  1  0  0  0  0
 17 16  2  0  0  0  0
 17 18  1  0  0  0  0
 18 13  2  0  0  0  0
 21 17  1  0  0  0  0
 22  2  1  0  0  0  0
 23 22  2  0  0  0  0
 24 25  1  0  0  0  0
 24 22  1  0  0  0  0
 26 27  1  0  0  0  0
 26 25  2  0  0  0  0
 28 26  1  0  0  0  0
 29 28  2  0  0  0  0
 29 30  1  0  0  0  0
 30 24  2  0  0  0  0
M  END
>  <minimizedAffinity>
-4.59979105

$$$$

 OpenBabel03272503253D

 30 32  0  0  1  0  0  0  0  0999 V2000
   37.8770   25.9280   34.1350 N   0  0  0  0  0  0  0  0  0  0  0  0
   38.8280   25.7810   35.1780 C   0  0  1  0  0  0  0  0  0  0  0  0
   38.7820   27.0760   35.9470 C   0  0  0  0  0  0  0  0  0  0  0  0
   37.6880   27.9000   35.2120 C   0  0  0  0  0  0  0  0  0  0  0  0
   36.8530   26.7940   34.6520 C   0  0  0  0  0  0  0  0  0  0  0  0
   39.8630   25.7610   34.6500 H   0  0  0  0  0  0  0  0  0  0  0  0
   38.5470   26.9530   37.0060 H   0  0  0  0  0  0  0  0  0  0  0  0
   39.7050   27.6580   35.7670 H   0  0  0  0  0  0  0  0  0  0  0  0
   38.1170   28.5040   34.4020 H   0  0  0  0  0  0  0  0  0  0  0  0
   37.1460   28.4510   35.9800 H   0  0  0  0  0  0  0  0  0  0  0  0
   36.1990   27.1750   33.8250 H   0  0  0  0  0  0  0  0  0  0  0  0
   36.2450   26.2990   35.4300 H   0  0  0  0  0  0  0  0  0  0  0  0
   37.9490   25.3350   32.8430 C   0  0  0  0  0  0  0  0  0  0  0  0
   36.7580   24.9230   32.2280 C   0  0  0  0  0  0  0  0  0  0  0  0
   36.8160   24.3420   30.9600 C   0  0  0  0  0  0  0  0  0  0  0  0
   38.0680   24.2130   30.3970 N   0  0  0  0  0  0  0  0  0  0  0  0
   39.1950   24.6220   31.0240 C   0  0  0  0  0  0  0  0  0  0  0  0
   39.1450   25.1900   32.2590 N   0  0  0  0  0  0  0  0  0  0  0  0
   35.7840   25.0100   32.6380 H   0  0  0  0  0  0  0  0  0  0  0  0
   35.9390   24.0150   30.4560 H   0  0  0  0  0  0  0  0  0  0  0  0
   40.1240   24.4910   30.5280 H   0  0  0  0  0  0  0  0  0  0  0  0
   38.8100   24.5670   35.9540 C   0  0  0  0  0  0  0  0  0  0  0  0
   37.8560   24.3070   36.6580 O   0  0  0  0  0  0  0  0  0  0  0  0
   39.7870   23.4640   36.1190 C   0  0  0  0  0  0  0  0  0  0  0  0
   40.0720   22.8380   37.2890 C   0  0  0  0  0  3  0  0  0  0  0  0
   40.9770   21.8320   37.4530 C   0  0  0  0  0  0  0  0  0  0  0  0
   41.1400   21.3920   38.4250 H   0  0  0  0  0  0  0  0  0  0  0  0
   41.6470   21.4230   36.3610 N   0  0  0  0  0  0  0  0  0  0  0  0
   41.3830   22.0260   35.1900 C   0  0  0  0  0  3  0  0  0  0  0  0
   40.4910   23.0010   35.0910 N   0  0  0  0  0  0  0  0  0  0  0  0
  1  5  1  0  0  0  0
  1  2  1  0  0  0  0
  2  6  1  6  0  0  0
  2  3  1  0  0  0  0
  2 22  1  0  0  0  0
  3  7  1  0  0  0  0
  4  3  1  0  0  0  0
  4 10  1  0  0  0  0
  5  4  1  0  0  0  0
  5 12  1  0  0  0  0
  8  3  1  0  0  0  0
  9  4  1  0  0  0  0
 11  5  1  0  0  0  0
 13  1  1  0  0  0  0
 14 19  1  0  0  0  0
 14 13  2  0  0  0  0
 15 14  1  0  0  0  0
 16 15  2  0  0  0  0
 16 17  1  0  0  0  0
 17 18  2  0  0  0  0
 18 13  1  0  0  0  0
 20 15  1  0  0  0  0
 21 17  1  0  0  0  0
 22 24  1  0  0  0  0
 22 23  2  0  0  0  0
 24 25  1  0  0  0  0
 25 26  2  0  0  0  0
 26 27  1  0  0  0  0
 28 26  1  0  0  0  0
 29 28  2  0  0  0  0
 30 29  1  0  0  0  0
 30 24  2  0  0  0  0
M  END
>  <minimizedAffinity>
-4.59892416

$$$$
