
 OpenBabel03272507303D

 27 29  0  0  0  0  0  0  0  0999 V2000
   35.8990   29.2130   49.8480 C   0  0  0  0  0  0  0  0  0  0  0  0
   34.9490   29.6880   50.6940 C   0  0  0  0  0  0  0  0  0  0  0  0
   33.7020   29.1990   50.2720 C   0  0  0  0  0  0  0  0  0  0  0  0
   34.0030   28.4290   49.1510 C   0  0  0  0  0  0  0  0  0  0  0  0
   35.3000   28.4830   48.9630 O   0  0  0  0  0  0  0  0  0  0  0  0
   35.0080   30.3300   51.5660 H   0  0  0  0  0  0  0  0  0  0  0  0
   32.7000   29.3360   50.6620 H   0  0  0  0  0  0  0  0  0  0  0  0
   37.3050   29.5310   50.0040 C   0  0  0  0  0  0  0  0  0  0  0  0
   37.9730   28.9020   50.8370 O   0  0  0  0  0  0  0  0  0  0  0  0
   37.8450   30.5860   49.1550 C   0  0  0  0  0  0  0  0  0  0  0  0
   38.1720   31.7770   49.7870 C   0  0  0  0  0  0  0  0  0  0  0  0
   38.6920   32.8150   49.0140 C   0  0  0  0  0  0  0  0  0  0  0  0
   38.8490   32.5990   47.6820 N   0  0  0  0  0  0  0  0  0  0  0  0
   38.5210   31.4310   47.1010 C   0  0  0  0  0  0  0  0  0  0  0  0
   38.0240   30.4360   47.8340 N   0  0  0  0  0  0  0  0  0  0  0  0
   38.0530   31.9650   50.8510 H   0  0  0  0  0  0  0  0  0  0  0  0
   38.9750   33.7760   49.4210 H   0  0  0  0  0  0  0  0  0  0  0  0
   38.6360   31.2320   46.0420 H   0  0  0  0  0  0  0  0  0  0  0  0
   33.0240   27.6900   48.3290 C   0  0  0  0  0  0  0  0  0  0  0  0
   31.8140   27.6880   48.6890 O   0  0  0  0  0  0  0  0  0  0  0  0
   33.4730   26.9990   47.1500 C   0  0  0  0  0  0  0  0  0  0  0  0
   33.8030   25.6570   47.2260 C   0  0  0  0  0  0  0  0  0  0  0  0
   34.2370   24.9560   46.1220 C   0  0  0  0  0  0  0  0  0  0  0  0
   34.4810   23.9240   46.2210 H   0  0  0  0  0  0  0  0  0  0  0  0
   34.3250   25.6440   44.9600 N   0  0  0  0  0  0  0  0  0  0  0  0
   34.0090   26.9450   44.8710 C   0  0  0  0  0  0  0  0  0  0  0  0
   33.5810   27.6160   45.9810 N   0  0  0  0  0  0  0  0  0  0  0  0
  1  8  1  0  0  0  0
  1  2  2  0  0  0  0
  2  6  1  0  0  0  0
  3  7  1  0  0  0  0
  3  2  1  0  0  0  0
  4  3  2  0  0  0  0
  5  4  1  0  0  0  0
  5  1  1  0  0  0  0
  8  9  2  0  0  0  0
 10 11  1  0  0  0  0
 10  8  1  0  0  0  0
 11 16  1  0  0  0  0
 12 17  1  0  0  0  0
 12 11  2  0  0  0  0
 13 12  1  0  0  0  0
 14 13  2  0  0  0  0
 14 15  1  0  0  0  0
 15 10  2  0  0  0  0
 18 14  1  0  0  0  0
 19 20  2  0  0  0  0
 19  4  1  0  0  0  0
 21 22  1  0  0  0  0
 21 19  1  0  0  0  0
 23 24  1  0  0  0  0
 23 22  2  0  0  0  0
 25 23  1  0  0  0  0
 26 25  2  0  0  0  0
 26 27  1  0  0  0  0
 27 21  2  0  0  0  0
M  END
>  <minimizedAffinity>
-5.14927006

>  <minimizedRMSD>
1.25761414

$$$$
