
 OpenBabel03272509323D

 36 38  0  0  1  0  0  0  0  0999 V2000
   38.4710   25.8670   34.2350 C   0  0  2  0  0  0  0  0  0  0  0  0
   38.3160   27.2010   34.9060 C   0  0  0  0  0  0  0  0  0  0  0  0
   36.9530   27.8160   34.6770 C   0  0  0  0  0  0  0  0  0  0  0  0
   36.6830   27.9650   33.1830 C   0  0  0  0  0  0  0  0  0  0  0  0
   37.1910   26.8090   32.3550 C   0  0  0  0  0  0  0  0  0  0  0  0
   37.3600   25.5860   33.2760 C   0  0  1  0  0  0  0  0  0  0  0  0
   39.4160   25.7760   33.6210 H   0  0  0  0  0  0  0  0  0  0  0  0
   39.0140   27.8880   34.3200 H   0  0  0  0  0  0  0  0  0  0  0  0
   38.6470   27.2850   35.9230 H   0  0  0  0  0  0  0  0  0  0  0  0
   36.9570   28.8090   35.1390 H   0  0  0  0  0  0  0  0  0  0  0  0
   36.1250   27.1820   35.0640 H   0  0  0  0  0  0  0  0  0  0  0  0
   35.5820   28.1320   33.0490 H   0  0  0  0  0  0  0  0  0  0  0  0
   37.1760   28.9020   32.8520 H   0  0  0  0  0  0  0  0  0  0  0  0
   36.3880   26.5520   31.6270 H   0  0  0  0  0  0  0  0  0  0  0  0
   38.1510   27.0600   31.8810 H   0  0  0  0  0  0  0  0  0  0  0  0
   36.4170   25.5960   33.7680 H   0  0  0  0  0  0  0  0  0  0  0  0
   38.5290   24.7690   35.2350 C   0  0  0  0  0  0  0  0  0  0  0  0
   37.8760   25.0280   36.4590 C   0  0  0  0  0  0  0  0  0  0  0  0
   37.9160   24.0030   37.4120 C   0  0  0  0  0  0  0  0  0  0  0  0
   38.5720   22.8320   37.1060 N   0  0  0  0  0  0  0  0  0  0  0  0
   39.1890   22.6340   35.8990 C   0  0  0  0  0  0  0  0  0  0  0  0
   39.1550   23.6160   34.9780 N   0  0  0  0  0  0  0  0  0  0  0  0
   37.3340   25.8820   36.8060 H   0  0  0  0  0  0  0  0  0  0  0  0
   37.4620   24.0590   38.3910 H   0  0  0  0  0  0  0  0  0  0  0  0
   39.6570   21.6820   35.7970 H   0  0  0  0  0  0  0  0  0  0  0  0
   36.4330   23.7140   31.8340 C   0  0  0  0  0  0  0  0  0  0  0  0
   35.2680   24.1210   31.4730 O   0  0  0  0  0  0  0  0  0  0  0  0
   37.4440   24.3390   32.6100 N   0  0  0  0  0  0  0  0  0  0  0  0
   38.3530   23.7770   32.6740 H   0  0  0  0  0  0  0  0  0  0  0  0
   36.6920   22.3450   31.3070 C   0  0  0  0  0  0  0  0  0  0  0  0
   35.8040   21.3100   31.3850 C   0  0  0  0  0  3  0  0  0  0  0  0
   35.9990   20.0490   30.9180 C   0  0  0  0  0  0  0  0  0  0  0  0
   35.2480   19.2800   31.0160 H   0  0  0  0  0  0  0  0  0  0  0  0
   37.1930   19.8140   30.3230 N   0  0  0  0  0  0  0  0  0  0  0  0
   38.0780   20.8180   30.2360 C   0  0  0  0  0  3  0  0  0  0  0  0
   37.8470   22.0460   30.7080 N   0  0  0  0  0  0  0  0  0  0  0  0
  1  7  1  6  0  0  0
  1  2  1  0  0  0  0
  1 17  1  0  0  0  0
  2  9  1  0  0  0  0
  3  2  1  0  0  0  0
  3 11  1  0  0  0  0
  3 10  1  0  0  0  0
  4  3  1  0  0  0  0
  5  4  1  0  0  0  0
  5  6  1  0  0  0  0
  6 16  1  1  0  0  0
  6  1  1  0  0  0  0
  8  2  1  0  0  0  0
 12  4  1  0  0  0  0
 13  4  1  0  0  0  0
 14  5  1  0  0  0  0
 15  5  1  0  0  0  0
 17 18  1  0  0  0  0
 18 23  1  0  0  0  0
 18 19  2  0  0  0  0
 19 24  1  0  0  0  0
 20 19  1  0  0  0  0
 21 20  2  0  0  0  0
 22 17  2  0  0  0  0
 22 21  1  0  0  0  0
 25 21  1  0  0  0  0
 26 28  1  0  0  0  0
 27 26  2  0  0  0  0
 28 29  1  0  0  0  0
 28  6  1  0  0  0  0
 30 31  1  0  0  0  0
 30 26  1  0  0  0  0
 32 33  1  0  0  0  0
 32 31  2  0  0  0  0
 34 32  1  0  0  0  0
 35 34  2  0  0  0  0
 35 36  1  0  0  0  0
 36 30  2  0  0  0  0
M  END
>  <minimizedAffinity>
-5.27890825

$$$$

 OpenBabel03272509323D

 36 38  0  0  1  0  0  0  0  0999 V2000
   38.8470   25.7650   34.6270 C   0  0  2  0  0  0  0  0  0  0  0  0
   38.6800   27.1440   35.1950 C   0  0  0  0  0  0  0  0  0  0  0  0
   37.2970   27.7120   34.9560 C   0  0  0  0  0  0  0  0  0  0  0  0
   36.9850   27.7360   33.4640 C   0  0  0  0  0  0  0  0  0  0  0  0
   37.4960   26.5280   32.7150 C   0  0  0  0  0  0  0  0  0  0  0  0
   37.7170   25.3860   33.7250 C   0  0  1  0  0  0  0  0  0  0  0  0
   39.7760   25.6440   33.9950 H   0  0  0  0  0  0  0  0  0  0  0  0
   39.3460   27.7970   34.5360 H   0  0  0  0  0  0  0  0  0  0  0  0
   39.0360   27.3150   36.1920 H   0  0  0  0  0  0  0  0  0  0  0  0
   37.2920   28.7380   35.3380 H   0  0  0  0  0  0  0  0  0  0  0  0
   36.4950   27.0940   35.4160 H   0  0  0  0  0  0  0  0  0  0  0  0
   35.8770   27.8700   33.3480 H   0  0  0  0  0  0  0  0  0  0  0  0
   37.4480   28.6530   33.0460 H   0  0  0  0  0  0  0  0  0  0  0  0
   36.6800   26.1980   32.0330 H   0  0  0  0  0  0  0  0  0  0  0  0
   38.4370   26.7600   32.1970 H   0  0  0  0  0  0  0  0  0  0  0  0
   36.7870   25.4160   34.2410 H   0  0  0  0  0  0  0  0  0  0  0  0
   38.9550   24.7510   35.7080 C   0  0  0  0  0  0  0  0  0  0  0  0
   38.0660   24.9200   36.7910 C   0  0  0  0  0  0  0  0  0  0  0  0
   38.1510   23.9730   37.8170 C   0  0  0  0  0  0  0  0  0  0  0  0
   39.0720   22.9550   37.7120 N   0  0  0  0  0  0  0  0  0  0  0  0
   39.9130   22.8380   36.6360 C   0  0  0  0  0  0  0  0  0  0  0  0
   39.8370   23.7480   35.6460 N   0  0  0  0  0  0  0  0  0  0  0  0
   37.3110   25.6540   36.9790 H   0  0  0  0  0  0  0  0  0  0  0  0
   37.5360   23.9750   38.7060 H   0  0  0  0  0  0  0  0  0  0  0  0
   40.5740   22.0050   36.6860 H   0  0  0  0  0  0  0  0  0  0  0  0
   36.8780   23.4690   32.2870 C   0  0  0  0  0  0  0  0  0  0  0  0
   35.8020   23.9130   31.7400 O   0  0  0  0  0  0  0  0  0  0  0  0
   37.8110   24.0920   33.1580 N   0  0  0  0  0  0  0  0  0  0  0  0
   38.6650   23.4870   33.3840 H   0  0  0  0  0  0  0  0  0  0  0  0
   37.1180   22.0550   31.8890 C   0  0  0  0  0  0  0  0  0  0  0  0
   38.2180   21.3300   32.2480 C   0  0  0  0  0  3  0  0  0  0  0  0
   38.4750   20.0400   31.9070 C   0  0  0  0  0  0  0  0  0  0  0  0
   39.3700   19.5300   32.2300 H   0  0  0  0  0  0  0  0  0  0  0  0
   37.5420   19.4320   31.1360 N   0  0  0  0  0  0  0  0  0  0  0  0
   36.4540   20.1270   30.7730 C   0  0  0  0  0  3  0  0  0  0  0  0
   36.2380   21.3960   31.1300 N   0  0  0  0  0  0  0  0  0  0  0  0
  1  7  1  6  0  0  0
  1  2  1  0  0  0  0
  1 17  1  0  0  0  0
  2  9  1  0  0  0  0
  3  2  1  0  0  0  0
  3 10  1  0  0  0  0
  3 11  1  0  0  0  0
  4  3  1  0  0  0  0
  5  4  1  0  0  0  0
  5  6  1  0  0  0  0
  6 16  1  1  0  0  0
  6  1  1  0  0  0  0
  8  2  1  0  0  0  0
 12  4  1  0  0  0  0
 13  4  1  0  0  0  0
 14  5  1  0  0  0  0
 15  5  1  0  0  0  0
 17 18  1  0  0  0  0
 18 23  1  0  0  0  0
 18 19  2  0  0  0  0
 19 24  1  0  0  0  0
 20 19  1  0  0  0  0
 21 25  1  0  0  0  0
 21 20  2  0  0  0  0
 22 17  2  0  0  0  0
 22 21  1  0  0  0  0
 26 28  1  0  0  0  0
 27 26  2  0  0  0  0
 28 29  1  0  0  0  0
 28  6  1  0  0  0  0
 30 31  1  0  0  0  0
 30 26  1  0  0  0  0
 32 33  1  0  0  0  0
 32 31  2  0  0  0  0
 34 32  1  0  0  0  0
 35 36  1  0  0  0  0
 35 34  2  0  0  0  0
 36 30  2  0  0  0  0
M  END
>  <minimizedAffinity>
-5.23575974

$$$$

 OpenBabel03272509323D

 36 38  0  0  1  0  0  0  0  0999 V2000
   36.1830   25.7860   32.0270 C   0  0  2  0  0  0  0  0  0  0  0  0
   35.9230   26.6430   30.8230 C   0  0  0  0  0  0  0  0  0  0  0  0
   36.9340   27.7600   30.6700 C   0  0  0  0  0  0  0  0  0  0  0  0
   36.9520   28.6330   31.9200 C   0  0  0  0  0  0  0  0  0  0  0  0
   36.8030   27.8560   33.2070 C   0  0  0  0  0  0  0  0  0  0  0  0
   37.1990   26.3910   32.9420 C   0  0  1  0  0  0  0  0  0  0  0  0
   35.2700   25.6230   32.6730 H   0  0  0  0  0  0  0  0  0  0  0  0
   34.9600   27.1990   31.0810 H   0  0  0  0  0  0  0  0  0  0  0  0
   35.7080   26.1450   29.8980 H   0  0  0  0  0  0  0  0  0  0  0  0
   36.6250   28.3700   29.8140 H   0  0  0  0  0  0  0  0  0  0  0  0
   37.9750   27.3840   30.5580 H   0  0  0  0  0  0  0  0  0  0  0  0
   37.8940   29.2420   31.8990 H   0  0  0  0  0  0  0  0  0  0  0  0
   36.1170   29.3580   31.8270 H   0  0  0  0  0  0  0  0  0  0  0  0
   37.5510   28.2650   33.9230 H   0  0  0  0  0  0  0  0  0  0  0  0
   35.7680   27.9070   33.5750 H   0  0  0  0  0  0  0  0  0  0  0  0
   38.1250   26.5400   32.4410 H   0  0  0  0  0  0  0  0  0  0  0  0
   36.6460   24.4310   31.6290 C   0  0  0  0  0  0  0  0  0  0  0  0
   35.6380   23.4490   31.5340 C   0  0  0  0  0  0  0  0  0  0  0  0
   36.0550   22.1670   31.1550 C   0  0  0  0  0  0  0  0  0  0  0  0
   37.3900   21.9460   30.9030 N   0  0  0  0  0  0  0  0  0  0  0  0
   38.3280   22.9400   31.0110 C   0  0  0  0  0  0  0  0  0  0  0  0
   37.9340   24.1750   31.3760 N   0  0  0  0  0  0  0  0  0  0  0  0
   34.5820   23.5000   31.6940 H   0  0  0  0  0  0  0  0  0  0  0  0
   35.3970   21.3180   31.0420 H   0  0  0  0  0  0  0  0  0  0  0  0
   39.3220   22.6290   30.7870 H   0  0  0  0  0  0  0  0  0  0  0  0
   38.6180   25.7720   34.9530 C   0  0  0  0  0  0  0  0  0  0  0  0
   39.5730   26.6320   34.9610 O   0  0  0  0  0  0  0  0  0  0  0  0
   37.4930   25.6290   34.0980 N   0  0  0  0  0  0  0  0  0  0  0  0
   36.8180   24.8540   34.3940 H   0  0  0  0  0  0  0  0  0  0  0  0
   38.7930   24.7910   36.0600 C   0  0  0  0  0  0  0  0  0  0  0  0
   38.0390   24.7740   37.1980 C   0  0  0  0  0  3  0  0  0  0  0  0
   38.1650   23.8990   38.2310 C   0  0  0  0  0  0  0  0  0  0  0  0
   37.5300   23.9470   39.1020 H   0  0  0  0  0  0  0  0  0  0  0  0
   39.1370   22.9650   38.1020 N   0  0  0  0  0  0  0  0  0  0  0  0
   39.8890   22.9660   36.9910 C   0  0  0  0  0  3  0  0  0  0  0  0
   39.7310   23.8440   35.9970 N   0  0  0  0  0  0  0  0  0  0  0  0
  1  7  1  1  0  0  0
  1  6  1  0  0  0  0
  2  8  1  0  0  0  0
  2  1  1  0  0  0  0
  3  2  1  0  0  0  0
  3  4  1  0  0  0  0
  4  5  1  0  0  0  0
  5 15  1  0  0  0  0
  5 14  1  0  0  0  0
  6 16  1  6  0  0  0
  6  5  1  0  0  0  0
  6 28  1  0  0  0  0
  9  2  1  0  0  0  0
 10  3  1  0  0  0  0
 11  3  1  0  0  0  0
 12  4  1  0  0  0  0
 13  4  1  0  0  0  0
 17  1  1  0  0  0  0
 18 17  1  0  0  0  0
 18 23  1  0  0  0  0
 19 18  2  0  0  0  0
 20 21  2  0  0  0  0
 20 19  1  0  0  0  0
 21 22  1  0  0  0  0
 22 17  2  0  0  0  0
 24 19  1  0  0  0  0
 25 21  1  0  0  0  0
 26 27  2  0  0  0  0
 26 30  1  0  0  0  0
 28 29  1  0  0  0  0
 28 26  1  0  0  0  0
 30 31  1  0  0  0  0
 31 32  2  0  0  0  0
 32 33  1  0  0  0  0
 34 32  1  0  0  0  0
 35 34  2  0  0  0  0
 36 30  2  0  0  0  0
 36 35  1  0  0  0  0
M  END
>  <minimizedAffinity>
-5.19339132

$$$$

 OpenBabel03272509323D

 36 38  0  0  1  0  0  0  0  0999 V2000
   40.0380   24.6770   34.4110 C   0  0  2  0  0  0  0  0  0  0  0  0
   40.6940   26.0120   34.6130 C   0  0  0  0  0  0  0  0  0  0  0  0
   39.9440   27.1400   33.9370 C   0  0  0  0  0  0  0  0  0  0  0  0
   39.8030   26.8630   32.4440 C   0  0  0  0  0  0  0  0  0  0  0  0
   39.5360   25.4130   32.1160 C   0  0  0  0  0  0  0  0  0  0  0  0
   38.9650   24.7260   33.3720 C   0  0  1  0  0  0  0  0  0  0  0  0
   40.7480   23.8710   34.0590 H   0  0  0  0  0  0  0  0  0  0  0  0
   41.6580   25.9400   34.0060 H   0  0  0  0  0  0  0  0  0  0  0  0
   41.0170   26.2600   35.6050 H   0  0  0  0  0  0  0  0  0  0  0  0
   40.5290   28.0550   34.0760 H   0  0  0  0  0  0  0  0  0  0  0  0
   38.9040   27.2510   34.3160 H   0  0  0  0  0  0  0  0  0  0  0  0
   39.0050   27.5420   32.0430 H   0  0  0  0  0  0  0  0  0  0  0  0
   40.7480   27.1830   31.9600 H   0  0  0  0  0  0  0  0  0  0  0  0
   38.7300   25.3950   31.3480 H   0  0  0  0  0  0  0  0  0  0  0  0
   40.4600   24.9090   31.7980 H   0  0  0  0  0  0  0  0  0  0  0  0
   38.2080   25.4250   33.6350 H   0  0  0  0  0  0  0  0  0  0  0  0
   39.4500   24.1740   35.6810 C   0  0  0  0  0  0  0  0  0  0  0  0
   40.2610   23.2840   36.4160 C   0  0  0  0  0  0  0  0  0  0  0  0
   39.7260   22.8030   37.6160 C   0  0  0  0  0  0  0  0  0  0  0  0
   38.4710   23.2180   38.0010 N   0  0  0  0  0  0  0  0  0  0  0  0
   37.7250   24.0850   37.2470 C   0  0  0  0  0  0  0  0  0  0  0  0
   38.2340   24.5510   36.0900 N   0  0  0  0  0  0  0  0  0  0  0  0
   41.2420   22.9000   36.2270 H   0  0  0  0  0  0  0  0  0  0  0  0
   40.2320   22.1170   38.2810 H   0  0  0  0  0  0  0  0  0  0  0  0
   36.7730   24.3200   37.6640 H   0  0  0  0  0  0  0  0  0  0  0  0
   37.0520   23.3100   32.4910 C   0  0  0  0  0  0  0  0  0  0  0  0
   36.2670   24.1430   31.9050 O   0  0  0  0  0  0  0  0  0  0  0  0
   38.3020   23.4970   33.1360 N   0  0  0  0  0  0  0  0  0  0  0  0
   38.7630   22.5880   33.4630 H   0  0  0  0  0  0  0  0  0  0  0  0
   36.4800   21.9360   32.4410 C   0  0  0  0  0  0  0  0  0  0  0  0
   36.2750   21.2290   31.2910 C   0  0  0  0  0  3  0  0  0  0  0  0
   35.7570   19.9760   31.2010 C   0  0  0  0  0  0  0  0  0  0  0  0
   35.6240   19.4790   30.2530 H   0  0  0  0  0  0  0  0  0  0  0  0
   35.4170   19.3880   32.3730 N   0  0  0  0  0  0  0  0  0  0  0  0
   35.6110   20.0660   33.5140 C   0  0  0  0  0  3  0  0  0  0  0  0
   36.1240   21.2990   33.5590 N   0  0  0  0  0  0  0  0  0  0  0  0
  1  7  1  6  0  0  0
  1  2  1  0  0  0  0
  1 17  1  0  0  0  0
  2  9  1  0  0  0  0
  3 10  1  0  0  0  0
  3 11  1  0  0  0  0
  3  2  1  0  0  0  0
  4  3  1  0  0  0  0
  5  4  1  0  0  0  0
  5  6  1  0  0  0  0
  6 16  1  1  0  0  0
  6  1  1  0  0  0  0
  8  2  1  0  0  0  0
 12  4  1  0  0  0  0
 13  4  1  0  0  0  0
 14  5  1  0  0  0  0
 15  5  1  0  0  0  0
 17 22  2  0  0  0  0
 17 18  1  0  0  0  0
 18 19  2  0  0  0  0
 19 20  1  0  0  0  0
 19 24  1  0  0  0  0
 21 25  1  0  0  0  0
 21 20  2  0  0  0  0
 22 21  1  0  0  0  0
 23 18  1  0  0  0  0
 26 28  1  0  0  0  0
 27 26  2  0  0  0  0
 28  6  1  0  0  0  0
 28 29  1  0  0  0  0
 30 26  1  0  0  0  0
 30 36  1  0  0  0  0
 31 30  2  0  0  0  0
 32 31  1  0  0  0  0
 32 34  2  0  0  0  0
 33 32  1  0  0  0  0
 34 35  1  0  0  0  0
 35 36  2  0  0  0  0
M  END
>  <minimizedAffinity>
-5.06430769

$$$$

 OpenBabel03272509323D

 36 38  0  0  1  0  0  0  0  0999 V2000
   36.3260   26.9900   32.1930 C   0  0  2  0  0  0  0  0  0  0  0  0
   35.9490   28.1480   31.3150 C   0  0  0  0  0  0  0  0  0  0  0  0
   36.4570   29.4720   31.8430 C   0  0  0  0  0  0  0  0  0  0  0  0
   35.9340   29.7150   33.2550 C   0  0  0  0  0  0  0  0  0  0  0  0
   35.8950   28.4720   34.1120 C   0  0  0  0  0  0  0  0  0  0  0  0
   36.8660   27.4360   33.5140 C   0  0  1  0  0  0  0  0  0  0  0  0
   35.4570   26.3130   32.4480 H   0  0  0  0  0  0  0  0  0  0  0  0
   34.8180   28.2340   31.4410 H   0  0  0  0  0  0  0  0  0  0  0  0
   36.0950   28.0360   30.2580 H   0  0  0  0  0  0  0  0  0  0  0  0
   36.0770   30.2590   31.1830 H   0  0  0  0  0  0  0  0  0  0  0  0
   37.5660   29.5030   31.9300 H   0  0  0  0  0  0  0  0  0  0  0  0
   36.5560   30.5280   33.7150 H   0  0  0  0  0  0  0  0  0  0  0  0
   34.9110   30.1310   33.1590 H   0  0  0  0  0  0  0  0  0  0  0  0
   36.3010   28.7510   35.1100 H   0  0  0  0  0  0  0  0  0  0  0  0
   34.8780   28.0570   34.1500 H   0  0  0  0  0  0  0  0  0  0  0  0
   37.7290   28.0450   33.3890 H   0  0  0  0  0  0  0  0  0  0  0  0
   37.3360   26.1240   31.5320 C   0  0  0  0  0  0  0  0  0  0  0  0
   36.8590   24.8800   31.0670 C   0  0  0  0  0  0  0  0  0  0  0  0
   37.7950   24.0520   30.4370 C   0  0  0  0  0  0  0  0  0  0  0  0
   39.0940   24.4900   30.3090 N   0  0  0  0  0  0  0  0  0  0  0  0
   39.5040   25.7100   30.7800 C   0  0  0  0  0  0  0  0  0  0  0  0
   38.6080   26.5110   31.3880 N   0  0  0  0  0  0  0  0  0  0  0  0
   35.8850   24.4380   31.1000 H   0  0  0  0  0  0  0  0  0  0  0  0
   37.5740   23.0740   30.0330 H   0  0  0  0  0  0  0  0  0  0  0  0
   40.5350   25.9200   30.6130 H   0  0  0  0  0  0  0  0  0  0  0  0
   38.2260   26.4460   35.4140 C   0  0  0  0  0  0  0  0  0  0  0  0
   38.9360   27.4230   35.8560 O   0  0  0  0  0  0  0  0  0  0  0  0
   37.2440   26.3900   34.3900 N   0  0  0  0  0  0  0  0  0  0  0  0
   36.7590   25.4410   34.3040 H   0  0  0  0  0  0  0  0  0  0  0  0
   38.5470   25.1940   36.1540 C   0  0  0  0  0  0  0  0  0  0  0  0
   39.4370   24.2520   35.7240 C   0  0  0  0  0  3  0  0  0  0  0  0
   39.7580   23.0990   36.3670 C   0  0  0  0  0  0  0  0  0  0  0  0
   40.4750   22.4000   35.9640 H   0  0  0  0  0  0  0  0  0  0  0  0
   39.1250   22.8790   37.5440 N   0  0  0  0  0  0  0  0  0  0  0  0
   38.2470   23.7930   37.9840 C   0  0  0  0  0  3  0  0  0  0  0  0
   37.9590   24.9150   37.3200 N   0  0  0  0  0  0  0  0  0  0  0  0
  1  7  1  1  0  0  0
  1  6  1  0  0  0  0
  2  8  1  0  0  0  0
  2  3  1  0  0  0  0
  2  1  1  0  0  0  0
  3 11  1  0  0  0  0
  3  4  1  0  0  0  0
  4 12  1  0  0  0  0
  4  5  1  0  0  0  0
  5 15  1  0  0  0  0
  5 14  1  0  0  0  0
  6 16  1  6  0  0  0
  6  5  1  0  0  0  0
  6 28  1  0  0  0  0
  9  2  1  0  0  0  0
 10  3  1  0  0  0  0
 13  4  1  0  0  0  0
 17  1  1  0  0  0  0
 18 23  1  0  0  0  0
 18 17  2  0  0  0  0
 19 18  1  0  0  0  0
 20 19  2  0  0  0  0
 20 21  1  0  0  0  0
 21 22  2  0  0  0  0
 22 17  1  0  0  0  0
 24 19  1  0  0  0  0
 25 21  1  0  0  0  0
 26 27  2  0  0  0  0
 26 30  1  0  0  0  0
 28 26  1  0  0  0  0
 29 28  1  0  0  0  0
 30 36  1  0  0  0  0
 31 30  2  0  0  0  0
 31 32  1  0  0  0  0
 32 34  2  0  0  0  0
 33 32  1  0  0  0  0
 34 35  1  0  0  0  0
 36 35  2  0  0  0  0
M  END
>  <minimizedAffinity>
-4.97051096

$$$$

 OpenBabel03272509323D

 36 38  0  0  1  0  0  0  0  0999 V2000
   37.9180   25.9710   32.6620 C   0  0  2  0  0  0  0  0  0  0  0  0
   38.1240   27.4570   32.6880 C   0  0  0  0  0  0  0  0  0  0  0  0
   36.8330   28.2300   32.5270 C   0  0  0  0  0  0  0  0  0  0  0  0
   36.1390   27.8370   31.2270 C   0  0  0  0  0  0  0  0  0  0  0  0
   36.2380   26.3640   30.9060 C   0  0  0  0  0  0  0  0  0  0  0  0
   36.5430   25.6000   32.2080 C   0  0  1  0  0  0  0  0  0  0  0  0
   38.6140   25.4290   31.9550 H   0  0  0  0  0  0  0  0  0  0  0  0
   38.6820   27.6770   31.7160 H   0  0  0  0  0  0  0  0  0  0  0  0
   38.7570   27.8560   33.4570 H   0  0  0  0  0  0  0  0  0  0  0  0
   37.0880   29.2950   32.4860 H   0  0  0  0  0  0  0  0  0  0  0  0
   36.0980   28.0100   33.3320 H   0  0  0  0  0  0  0  0  0  0  0  0
   35.0750   28.1880   31.2880 H   0  0  0  0  0  0  0  0  0  0  0  0
   36.6090   28.4260   30.4130 H   0  0  0  0  0  0  0  0  0  0  0  0
   35.2280   26.0350   30.5710 H   0  0  0  0  0  0  0  0  0  0  0  0
   37.0290   26.1800   30.1650 H   0  0  0  0  0  0  0  0  0  0  0  0
   35.8030   26.0210   32.8450 H   0  0  0  0  0  0  0  0  0  0  0  0
   38.1550   25.3750   34.0020 C   0  0  0  0  0  0  0  0  0  0  0  0
   37.8970   26.2240   35.0990 C   0  0  0  0  0  0  0  0  0  0  0  0
   38.1110   25.6790   36.3700 C   0  0  0  0  0  0  0  0  0  0  0  0
   38.5480   24.3770   36.4730 N   0  0  0  0  0  0  0  0  0  0  0  0
   38.7840   23.5960   35.3720 C   0  0  0  0  0  0  0  0  0  0  0  0
   38.5800   24.1150   34.1460 N   0  0  0  0  0  0  0  0  0  0  0  0
   37.5510   27.2350   35.1460 H   0  0  0  0  0  0  0  0  0  0  0  0
   37.9560   26.2090   37.2990 H   0  0  0  0  0  0  0  0  0  0  0  0
   39.1180   22.6100   35.5990 H   0  0  0  0  0  0  0  0  0  0  0  0
   36.8410   23.2620   31.2670 C   0  0  0  0  0  0  0  0  0  0  0  0
   37.7460   23.3820   30.3620 O   0  0  0  0  0  0  0  0  0  0  0  0
   36.2810   24.2090   32.1640 N   0  0  0  0  0  0  0  0  0  0  0  0
   35.5940   23.7880   32.8680 H   0  0  0  0  0  0  0  0  0  0  0  0
   36.3470   21.8580   31.3230 C   0  0  0  0  0  0  0  0  0  0  0  0
   35.2410   21.4580   32.0180 C   0  0  0  0  0  3  0  0  0  0  0  0
   34.7570   20.1910   32.0950 C   0  0  0  0  0  0  0  0  0  0  0  0
   33.8740   19.9500   32.6670 H   0  0  0  0  0  0  0  0  0  0  0  0
   35.4490   19.2480   31.4130 N   0  0  0  0  0  0  0  0  0  0  0  0
   36.5380   19.6210   30.7240 C   0  0  0  0  0  3  0  0  0  0  0  0
   36.9810   20.8800   30.6730 N   0  0  0  0  0  0  0  0  0  0  0  0
  1  7  1  6  0  0  0
  1  2  1  0  0  0  0
  1 17  1  0  0  0  0
  2  9  1  0  0  0  0
  3  2  1  0  0  0  0
  3 11  1  0  0  0  0
  4 12  1  0  0  0  0
  4  3  1  0  0  0  0
  5  4  1  0  0  0  0
  5  6  1  0  0  0  0
  6  1  1  0  0  0  0
  6 16  1  1  0  0  0
  8  2  1  0  0  0  0
 10  3  1  0  0  0  0
 13  4  1  0  0  0  0
 14  5  1  0  0  0  0
 15  5  1  0  0  0  0
 17 22  2  0  0  0  0
 17 18  1  0  0  0  0
 18 23  1  0  0  0  0
 18 19  2  0  0  0  0
 19 20  1  0  0  0  0
 19 24  1  0  0  0  0
 21 25  1  0  0  0  0
 21 20  2  0  0  0  0
 22 21  1  0  0  0  0
 26 30  1  0  0  0  0
 26 28  1  0  0  0  0
 27 26  2  0  0  0  0
 28  6  1  0  0  0  0
 28 29  1  0  0  0  0
 30 31  1  0  0  0  0
 31 32  2  0  0  0  0
 32 33  1  0  0  0  0
 34 32  1  0  0  0  0
 35 34  2  0  0  0  0
 36 35  1  0  0  0  0
 36 30  2  0  0  0  0
M  END
>  <minimizedAffinity>
-4.96966887

$$$$

 OpenBabel03272509323D

 36 38  0  0  1  0  0  0  0  0999 V2000
   39.2360   25.3410   34.7830 C   0  0  2  0  0  0  0  0  0  0  0  0
   39.5670   26.7110   35.3000 C   0  0  0  0  0  0  0  0  0  0  0  0
   38.3360   27.5100   35.6700 C   0  0  0  0  0  0  0  0  0  0  0  0
   37.4030   27.6310   34.4700 C   0  0  0  0  0  0  0  0  0  0  0  0
   37.3230   26.3770   33.6310 C   0  0  0  0  0  0  0  0  0  0  0  0
   37.7790   25.1840   34.4930 C   0  0  1  0  0  0  0  0  0  0  0  0
   39.7560   25.0840   33.8120 H   0  0  0  0  0  0  0  0  0  0  0  0
   39.9690   27.2620   34.3840 H   0  0  0  0  0  0  0  0  0  0  0  0
   40.3510   26.7890   36.0270 H   0  0  0  0  0  0  0  0  0  0  0  0
   38.6680   28.5100   35.9650 H   0  0  0  0  0  0  0  0  0  0  0  0
   37.7310   27.0220   36.4660 H   0  0  0  0  0  0  0  0  0  0  0  0
   36.3970   27.9520   34.8490 H   0  0  0  0  0  0  0  0  0  0  0  0
   37.7760   28.4700   33.8470 H   0  0  0  0  0  0  0  0  0  0  0  0
   36.2480   26.2100   33.3960 H   0  0  0  0  0  0  0  0  0  0  0  0
   37.9610   26.4640   32.7390 H   0  0  0  0  0  0  0  0  0  0  0  0
   37.1940   25.3540   35.3650 H   0  0  0  0  0  0  0  0  0  0  0  0
   39.6460   24.2910   35.7530 C   0  0  0  0  0  0  0  0  0  0  0  0
   40.8920   23.6800   35.4960 C   0  0  0  0  0  0  0  0  0  0  0  0
   41.2960   22.6920   36.4010 C   0  0  0  0  0  0  0  0  0  0  0  0
   40.4760   22.3830   37.4630 N   0  0  0  0  0  0  0  0  0  0  0  0
   39.2740   23.0090   37.6640 C   0  0  0  0  0  0  0  0  0  0  0  0
   38.8780   23.9600   36.7960 N   0  0  0  0  0  0  0  0  0  0  0  0
   41.6120   23.8380   34.7210 H   0  0  0  0  0  0  0  0  0  0  0  0
   42.2230   22.1400   36.3320 H   0  0  0  0  0  0  0  0  0  0  0  0
   38.7430   22.6720   38.5240 H   0  0  0  0  0  0  0  0  0  0  0  0
   37.6720   23.3700   32.7210 C   0  0  0  0  0  0  0  0  0  0  0  0
   38.3680   23.8240   31.7400 O   0  0  0  0  0  0  0  0  0  0  0  0
   37.3980   23.9100   34.0050 N   0  0  0  0  0  0  0  0  0  0  0  0
   36.8460   23.2540   34.6440 H   0  0  0  0  0  0  0  0  0  0  0  0
   37.0850   22.0470   32.3710 C   0  0  0  0  0  0  0  0  0  0  0  0
   36.3800   21.2630   33.2410 C   0  0  0  0  0  3  0  0  0  0  0  0
   35.8300   20.0520   32.9630 C   0  0  0  0  0  0  0  0  0  0  0  0
   35.2840   19.4890   33.7050 H   0  0  0  0  0  0  0  0  0  0  0  0
   36.0080   19.5940   31.7010 N   0  0  0  0  0  0  0  0  0  0  0  0
   36.6970   20.3490   30.8330 C   0  0  0  0  0  3  0  0  0  0  0  0
   37.2230   21.5360   31.1460 N   0  0  0  0  0  0  0  0  0  0  0  0
  1  7  1  6  0  0  0
  1  2  1  0  0  0  0
  1 17  1  0  0  0  0
  2  3  1  0  0  0  0
  2  9  1  0  0  0  0
  3 10  1  0  0  0  0
  3 11  1  0  0  0  0
  4 12  1  0  0  0  0
  4  3  1  0  0  0  0
  5  4  1  0  0  0  0
  5  6  1  0  0  0  0
  6  1  1  0  0  0  0
  6 16  1  1  0  0  0
  8  2  1  0  0  0  0
 13  4  1  0  0  0  0
 14  5  1  0  0  0  0
 15  5  1  0  0  0  0
 17 22  1  0  0  0  0
 18 17  2  0  0  0  0
 18 19  1  0  0  0  0
 19 20  2  0  0  0  0
 20 21  1  0  0  0  0
 21 25  1  0  0  0  0
 22 21  2  0  0  0  0
 23 18  1  0  0  0  0
 24 19  1  0  0  0  0
 26 28  1  0  0  0  0
 27 26  2  0  0  0  0
 28  6  1  0  0  0  0
 28 29  1  0  0  0  0
 30 26  1  0  0  0  0
 30 31  1  0  0  0  0
 32 31  2  0  0  0  0
 32 33  1  0  0  0  0
 34 32  1  0  0  0  0
 35 36  1  0  0  0  0
 35 34  2  0  0  0  0
 36 30  2  0  0  0  0
M  END
>  <minimizedAffinity>
-4.91251564

$$$$

 OpenBabel03272509323D

 36 38  0  0  1  0  0  0  0  0999 V2000
   33.8450   30.9320   35.7560 C   0  0  2  0  0  0  0  0  0  0  0  0
   33.4860   32.2960   36.2710 C   0  0  0  0  0  0  0  0  0  0  0  0
   34.3390   33.3920   35.6690 C   0  0  0  0  0  0  0  0  0  0  0  0
   35.8160   33.1200   35.9370 C   0  0  0  0  0  0  0  0  0  0  0  0
   36.1950   31.6610   35.8360 C   0  0  0  0  0  0  0  0  0  0  0  0
   35.1280   30.9380   34.9920 C   0  0  1  0  0  0  0  0  0  0  0  0
   33.9950   30.1650   36.5720 H   0  0  0  0  0  0  0  0  0  0  0  0
   33.8190   32.2760   37.3630 H   0  0  0  0  0  0  0  0  0  0  0  0
   32.4450   32.5520   36.3120 H   0  0  0  0  0  0  0  0  0  0  0  0
   34.0570   34.3330   36.1530 H   0  0  0  0  0  0  0  0  0  0  0  0
   34.2460   33.4490   34.5630 H   0  0  0  0  0  0  0  0  0  0  0  0
   36.4140   33.7630   35.2400 H   0  0  0  0  0  0  0  0  0  0  0  0
   36.0380   33.4900   36.9590 H   0  0  0  0  0  0  0  0  0  0  0  0
   37.1460   31.6110   35.2610 H   0  0  0  0  0  0  0  0  0  0  0  0
   36.2590   31.2050   36.8340 H   0  0  0  0  0  0  0  0  0  0  0  0
   35.0760   31.5980   34.1590 H   0  0  0  0  0  0  0  0  0  0  0  0
   32.7710   30.3920   34.8830 C   0  0  0  0  0  0  0  0  0  0  0  0
   31.9520   29.4030   35.4680 C   0  0  0  0  0  0  0  0  0  0  0  0
   30.9320   28.8840   34.6620 C   0  0  0  0  0  0  0  0  0  0  0  0
   30.7900   29.3590   33.3770 N   0  0  0  0  0  0  0  0  0  0  0  0
   31.6150   30.3230   32.8590 C   0  0  0  0  0  0  0  0  0  0  0  0
   32.5990   30.8250   33.6290 N   0  0  0  0  0  0  0  0  0  0  0  0
   31.9580   28.9640   36.4440 H   0  0  0  0  0  0  0  0  0  0  0  0
   30.2300   28.1240   34.9740 H   0  0  0  0  0  0  0  0  0  0  0  0
   31.3910   30.5960   31.8540 H   0  0  0  0  0  0  0  0  0  0  0  0
   35.9120   29.3880   33.1400 C   0  0  0  0  0  0  0  0  0  0  0  0
   36.0840   30.1520   32.1200 O   0  0  0  0  0  0  0  0  0  0  0  0
   35.5230   29.6800   34.4740 N   0  0  0  0  0  0  0  0  0  0  0  0
   35.5460   28.8340   35.1290 H   0  0  0  0  0  0  0  0  0  0  0  0
   36.1870   27.9700   32.7790 C   0  0  0  0  0  0  0  0  0  0  0  0
   36.9740   27.1280   33.5120 C   0  0  0  0  0  3  0  0  0  0  0  0
   37.2510   25.8300   33.2180 C   0  0  0  0  0  0  0  0  0  0  0  0
   37.8830   25.2240   33.8480 H   0  0  0  0  0  0  0  0  0  0  0  0
   36.6860   25.3430   32.0870 N   0  0  0  0  0  0  0  0  0  0  0  0
   35.9110   26.1550   31.3530 C   0  0  0  0  0  3  0  0  0  0  0  0
   35.6630   27.4270   31.6780 N   0  0  0  0  0  0  0  0  0  0  0  0
  1  2  1  0  0  0  0
  1  7  1  1  0  0  0
  2  9  1  0  0  0  0
  2  8  1  0  0  0  0
  3  4  1  0  0  0  0
  3 10  1  0  0  0  0
  3  2  1  0  0  0  0
  4 13  1  0  0  0  0
  5  4  1  0  0  0  0
  5 15  1  0  0  0  0
  6 16  1  6  0  0  0
  6  1  1  0  0  0  0
  6  5  1  0  0  0  0
 11  3  1  0  0  0  0
 12  4  1  0  0  0  0
 14  5  1  0  0  0  0
 17 18  1  0  0  0  0
 17  1  1  0  0  0  0
 18 23  1  0  0  0  0
 19 24  1  0  0  0  0
 19 18  2  0  0  0  0
 20 19  1  0  0  0  0
 21 20  2  0  0  0  0
 21 22  1  0  0  0  0
 22 17  2  0  0  0  0
 25 21  1  0  0  0  0
 26 28  1  0  0  0  0
 27 26  2  0  0  0  0
 28  6  1  0  0  0  0
 28 29  1  0  0  0  0
 30 26  1  0  0  0  0
 30 31  1  0  0  0  0
 32 31  2  0  0  0  0
 32 33  1  0  0  0  0
 34 32  1  0  0  0  0
 35 36  1  0  0  0  0
 35 34  2  0  0  0  0
 36 30  2  0  0  0  0
M  END
>  <minimizedAffinity>
-4.88958502

$$$$

 OpenBabel03272509323D

 36 38  0  0  1  0  0  0  0  0999 V2000
   36.2890   27.8490   32.0870 C   0  0  2  0  0  0  0  0  0  0  0  0
   37.0580   27.5770   30.8280 C   0  0  0  0  0  0  0  0  0  0  0  0
   37.7670   28.8050   30.2990 C   0  0  0  0  0  0  0  0  0  0  0  0
   36.7670   29.9290   30.0500 C   0  0  0  0  0  0  0  0  0  0  0  0
   35.6800   30.0180   31.0950 C   0  0  0  0  0  0  0  0  0  0  0  0
   36.1720   29.3110   32.3720 C   0  0  1  0  0  0  0  0  0  0  0  0
   35.2240   27.4720   32.0580 H   0  0  0  0  0  0  0  0  0  0  0  0
   36.2490   27.3870   30.0450 H   0  0  0  0  0  0  0  0  0  0  0  0
   37.6710   26.6970   30.8010 H   0  0  0  0  0  0  0  0  0  0  0  0
   38.2380   28.5310   29.3490 H   0  0  0  0  0  0  0  0  0  0  0  0
   38.5040   29.2200   31.0220 H   0  0  0  0  0  0  0  0  0  0  0  0
   37.3440   30.8860   29.9550 H   0  0  0  0  0  0  0  0  0  0  0  0
   36.3100   29.7480   29.0560 H   0  0  0  0  0  0  0  0  0  0  0  0
   35.5610   31.0950   31.3510 H   0  0  0  0  0  0  0  0  0  0  0  0
   34.7540   29.5460   30.7360 H   0  0  0  0  0  0  0  0  0  0  0  0
   37.1310   29.7600   32.4720 H   0  0  0  0  0  0  0  0  0  0  0  0
   36.9240   27.1840   33.2550 C   0  0  0  0  0  0  0  0  0  0  0  0
   37.1860   25.8060   33.1010 C   0  0  0  0  0  0  0  0  0  0  0  0
   37.7880   25.1630   34.1890 C   0  0  0  0  0  0  0  0  0  0  0  0
   38.0830   25.8960   35.3170 N   0  0  0  0  0  0  0  0  0  0  0  0
   37.8070   27.2340   35.4120 C   0  0  0  0  0  0  0  0  0  0  0  0
   37.2270   27.8580   34.3690 N   0  0  0  0  0  0  0  0  0  0  0  0
   37.0130   25.1390   32.2830 H   0  0  0  0  0  0  0  0  0  0  0  0
   38.0460   24.1140   34.2150 H   0  0  0  0  0  0  0  0  0  0  0  0
   38.0890   27.6740   36.3410 H   0  0  0  0  0  0  0  0  0  0  0  0
   34.0550   29.5590   33.7520 C   0  0  0  0  0  0  0  0  0  0  0  0
   33.1140   29.1200   32.9940 O   0  0  0  0  0  0  0  0  0  0  0  0
   35.4590   29.6360   33.5520 N   0  0  0  0  0  0  0  0  0  0  0  0
   36.0010   29.9790   34.4080 H   0  0  0  0  0  0  0  0  0  0  0  0
   33.4960   30.0530   35.0400 C   0  0  0  0  0  0  0  0  0  0  0  0
   32.4110   29.5100   35.6680 C   0  0  0  0  0  3  0  0  0  0  0  0
   31.8700   29.9290   36.8410 C   0  0  0  0  0  0  0  0  0  0  0  0
   31.0080   29.4480   37.2780 H   0  0  0  0  0  0  0  0  0  0  0  0
   32.4760   30.9880   37.4300 N   0  0  0  0  0  0  0  0  0  0  0  0
   33.5430   31.5350   36.8300 C   0  0  0  0  0  3  0  0  0  0  0  0
   34.0450   31.0920   35.6750 N   0  0  0  0  0  0  0  0  0  0  0  0
  1  7  1  6  0  0  0
  1  6  1  0  0  0  0
  1 17  1  0  0  0  0
  2  1  1  0  0  0  0
  3  2  1  0  0  0  0
  3 11  1  0  0  0  0
  4  3  1  0  0  0  0
  4  5  1  0  0  0  0
  5 14  1  0  0  0  0
  5  6  1  0  0  0  0
  6 16  1  1  0  0  0
  6 28  1  0  0  0  0
  8  2  1  0  0  0  0
  9  2  1  0  0  0  0
 10  3  1  0  0  0  0
 12  4  1  0  0  0  0
 13  4  1  0  0  0  0
 15  5  1  0  0  0  0
 17 22  1  0  0  0  0
 18 17  2  0  0  0  0
 18 19  1  0  0  0  0
 19 24  1  0  0  0  0
 19 20  2  0  0  0  0
 20 21  1  0  0  0  0
 21 25  1  0  0  0  0
 22 21  2  0  0  0  0
 23 18  1  0  0  0  0
 26 30  1  0  0  0  0
 27 26  2  0  0  0  0
 28 26  1  0  0  0  0
 28 29  1  0  0  0  0
 30 31  2  0  0  0  0
 30 36  1  0  0  0  0
 31 32  1  0  0  0  0
 32 33  1  0  0  0  0
 32 34  2  0  0  0  0
 35 34  1  0  0  0  0
 36 35  2  0  0  0  0
M  END
>  <minimizedAffinity>
-4.83581591

$$$$
