
 OpenBabel03272505083D

 27 29  0  0  0  0  0  0  0  0999 V2000
   35.3600   30.2420   46.2010 Cl  0  0  0  0  0  0  0  0  0  0  0  0
   35.4120   29.7970   47.8870 C   0  0  0  0  0  0  0  0  0  0  0  0
   36.5190   30.1850   48.5990 C   0  0  0  0  0  0  0  0  0  0  0  0
   36.5760   29.8360   49.9520 C   0  0  0  0  0  0  0  0  0  0  0  0
   35.5440   29.1290   50.5160 C   0  0  0  0  0  0  0  0  0  0  0  0
   34.4710   28.7750   49.7450 C   0  0  0  0  0  0  0  0  0  0  0  0
   34.3450   29.0840   48.4060 C   0  0  0  0  0  0  0  0  0  0  0  0
   37.4680   30.1600   50.4840 H   0  0  0  0  0  0  0  0  0  0  0  0
   35.6030   28.8670   51.5650 H   0  0  0  0  0  0  0  0  0  0  0  0
   33.6620   28.2150   50.2120 H   0  0  0  0  0  0  0  0  0  0  0  0
   38.8420   32.9180   47.9320 C   0  0  0  0  0  0  0  0  0  0  0  0
   39.6050   32.4530   46.8260 C   0  0  0  0  0  0  0  0  0  0  0  0
   39.2950   31.1890   46.3310 C   0  0  0  0  0  0  0  0  0  0  0  0
   38.2940   30.4860   46.9250 N   0  0  0  0  0  0  0  0  0  0  0  0
   37.5970   30.9390   47.9540 C   0  0  0  0  0  0  0  0  0  0  0  0
   37.8810   32.1600   48.4480 N   0  0  0  0  0  0  0  0  0  0  0  0
   39.1140   33.9040   48.2860 H   0  0  0  0  0  0  0  0  0  0  0  0
   40.3860   33.0090   46.3650 H   0  0  0  0  0  0  0  0  0  0  0  0
   39.8450   30.7730   45.4800 H   0  0  0  0  0  0  0  0  0  0  0  0
   32.9610   28.6310   47.4000 S   0  0  0  0  0  0  0  0  0  0  0  0
   32.8120   26.8490   47.2790 C   0  0  0  0  0  0  0  0  0  0  0  0
   33.8940   26.0020   47.3980 C   0  0  0  0  0  3  0  0  0  0  0  0
   33.8150   24.6260   47.3110 C   0  0  0  0  0  0  0  0  0  0  0  0
   34.6840   24.0030   47.4090 H   0  0  0  0  0  0  0  0  0  0  0  0
   32.5660   24.1650   47.0920 N   0  0  0  0  0  0  0  0  0  0  0  0
   31.4810   24.9520   46.9680 C   0  0  0  0  0  3  0  0  0  0  0  0
   31.6040   26.3080   47.0620 N   0  0  0  0  0  0  0  0  0  0  0  0
  1  2  1  0  0  0  0
  2  7  2  0  0  0  0
  2  3  1  0  0  0  0
  3  4  2  0  0  0  0
  4  8  1  0  0  0  0
  4  5  1  0  0  0  0
  5  9  1  0  0  0  0
  6 10  1  0  0  0  0
  6  5  2  0  0  0  0
  7  6  1  0  0  0  0
 11 17  1  0  0  0  0
 11 16  1  0  0  0  0
 12 11  2  0  0  0  0
 13 12  1  0  0  0  0
 13 14  2  0  0  0  0
 14 15  1  0  0  0  0
 15 16  2  0  0  0  0
 15  3  1  0  0  0  0
 18 12  1  0  0  0  0
 19 13  1  0  0  0  0
 20  7  1  0  0  0  0
 21 22  1  0  0  0  0
 21 20  1  0  0  0  0
 23 22  2  0  0  0  0
 23 24  1  0  0  0  0
 25 23  1  0  0  0  0
 26 27  1  0  0  0  0
 26 25  2  0  0  0  0
 27 21  2  0  0  0  0
M  END
>  <minimizedAffinity>
-5.15164661

>  <minimizedRMSD>
1.96688569

$$$$
