
 OpenBabel03272505083D

 27 29  0  0  0  0  0  0  0  0999 V2000
   36.3360   30.8870   45.7560 Cl  0  0  0  0  0  0  0  0  0  0  0  0
   36.6780   30.7210   47.4580 C   0  0  0  0  0  0  0  0  0  0  0  0
   37.9520   31.0220   47.8680 C   0  0  0  0  0  0  0  0  0  0  0  0
   38.2430   30.8940   49.2300 C   0  0  0  0  0  0  0  0  0  0  0  0
   37.2650   30.4790   50.0980 C   0  0  0  0  0  0  0  0  0  0  0  0
   36.0160   30.1960   49.6190 C   0  0  0  0  0  0  0  0  0  0  0  0
   35.6560   30.2990   48.2900 C   0  0  0  0  0  0  0  0  0  0  0  0
   39.2630   31.1410   49.5190 H   0  0  0  0  0  0  0  0  0  0  0  0
   37.5070   30.3860   51.1490 H   0  0  0  0  0  0  0  0  0  0  0  0
   35.2540   29.8690   50.3240 H   0  0  0  0  0  0  0  0  0  0  0  0
   40.1610   33.2700   46.0300 C   0  0  0  0  0  0  0  0  0  0  0  0
   40.8530   32.4100   45.1340 C   0  0  0  0  0  0  0  0  0  0  0  0
   40.5360   31.0550   45.1880 C   0  0  0  0  0  0  0  0  0  0  0  0
   39.5960   30.6420   46.0800 N   0  0  0  0  0  0  0  0  0  0  0  0
   38.9650   31.4620   46.9040 C   0  0  0  0  0  0  0  0  0  0  0  0
   39.2560   32.7760   46.8690 N   0  0  0  0  0  0  0  0  0  0  0  0
   40.4360   34.3150   45.9570 H   0  0  0  0  0  0  0  0  0  0  0  0
   41.5860   32.7390   44.4390 H   0  0  0  0  0  0  0  0  0  0  0  0
   41.0330   30.3390   44.5240 H   0  0  0  0  0  0  0  0  0  0  0  0
   34.0430   29.9350   47.6590 S   0  0  0  0  0  0  0  0  0  0  0  0
   33.9540   28.2480   47.0610 C   0  0  0  0  0  0  0  0  0  0  0  0
   33.8500   27.1630   47.9050 C   0  0  0  0  0  3  0  0  0  0  0  0
   33.7800   25.8510   47.4770 C   0  0  0  0  0  0  0  0  0  0  0  0
   33.6990   25.0350   48.1710 H   0  0  0  0  0  0  0  0  0  0  0  0
   33.8220   25.7130   46.1360 N   0  0  0  0  0  0  0  0  0  0  0  0
   33.9230   26.7410   45.2730 C   0  0  0  0  0  3  0  0  0  0  0  0
   33.9900   28.0230   45.7400 N   0  0  0  0  0  0  0  0  0  0  0  0
  1  2  1  0  0  0  0
  2  3  2  0  0  0  0
  2  7  1  0  0  0  0
  3  4  1  0  0  0  0
  4  8  1  0  0  0  0
  4  5  2  0  0  0  0
  5  9  1  0  0  0  0
  6  5  1  0  0  0  0
  6 10  1  0  0  0  0
  7  6  2  0  0  0  0
 11 16  1  0  0  0  0
 12 13  1  0  0  0  0
 12 11  2  0  0  0  0
 13 14  2  0  0  0  0
 14 15  1  0  0  0  0
 15  3  1  0  0  0  0
 16 15  2  0  0  0  0
 17 11  1  0  0  0  0
 18 12  1  0  0  0  0
 19 13  1  0  0  0  0
 20  7  1  0  0  0  0
 21 20  1  0  0  0  0
 21 22  1  0  0  0  0
 23 22  2  0  0  0  0
 23 24  1  0  0  0  0
 25 23  1  0  0  0  0
 26 27  1  0  0  0  0
 26 25  2  0  0  0  0
 27 21  2  0  0  0  0
M  END
>  <minimizedAffinity>
-5.44439077

>  <minimizedRMSD>
1.08615685

$$$$
