
 OpenBabel03272505083D

 27 29  0  0  0  0  0  0  0  0999 V2000
   36.2900   30.9020   45.3420 Cl  0  0  0  0  0  0  0  0  0  0  0  0
   36.4960   30.4940   47.0260 C   0  0  0  0  0  0  0  0  0  0  0  0
   37.7350   30.7190   47.5720 C   0  0  0  0  0  0  0  0  0  0  0  0
   37.9170   30.3970   48.9210 C   0  0  0  0  0  0  0  0  0  0  0  0
   36.8730   29.8760   49.6430 C   0  0  0  0  0  0  0  0  0  0  0  0
   35.6650   29.6790   49.0320 C   0  0  0  0  0  0  0  0  0  0  0  0
   35.4110   29.9720   47.7070 C   0  0  0  0  0  0  0  0  0  0  0  0
   38.9110   30.5880   49.3200 H   0  0  0  0  0  0  0  0  0  0  0  0
   37.0310   29.6330   50.6860 H   0  0  0  0  0  0  0  0  0  0  0  0
   34.8490   29.2650   49.6230 H   0  0  0  0  0  0  0  0  0  0  0  0
   40.0460   33.1880   46.2050 C   0  0  0  0  0  0  0  0  0  0  0  0
   40.8400   32.4420   45.2920 C   0  0  0  0  0  0  0  0  0  0  0  0
   40.5540   31.0850   45.1690 C   0  0  0  0  0  0  0  0  0  0  0  0
   39.5460   30.5620   45.9170 N   0  0  0  0  0  0  0  0  0  0  0  0
   38.8200   31.2770   46.7620 C   0  0  0  0  0  0  0  0  0  0  0  0
   39.0800   32.5910   46.8960 N   0  0  0  0  0  0  0  0  0  0  0  0
   40.3000   34.2390   46.2720 H   0  0  0  0  0  0  0  0  0  0  0  0
   41.6260   32.8570   44.7090 H   0  0  0  0  0  0  0  0  0  0  0  0
   41.1290   30.4540   44.4820 H   0  0  0  0  0  0  0  0  0  0  0  0
   33.8520   29.7200   46.9070 S   0  0  0  0  0  0  0  0  0  0  0  0
   33.1710   28.1150   47.3210 C   0  0  0  0  0  0  0  0  0  0  0  0
   33.8480   26.9350   47.0870 C   0  0  0  0  0  3  0  0  0  0  0  0
   33.3530   25.6840   47.3930 C   0  0  0  0  0  0  0  0  0  0  0  0
   33.9150   24.7910   47.1940 H   0  0  0  0  0  0  0  0  0  0  0  0
   32.1260   25.7040   47.9520 N   0  0  0  0  0  0  0  0  0  0  0  0
   31.4270   26.8270   48.1980 C   0  0  0  0  0  3  0  0  0  0  0  0
   31.9540   28.0470   47.8800 N   0  0  0  0  0  0  0  0  0  0  0  0
  1  2  1  0  0  0  0
  2  3  2  0  0  0  0
  2  7  1  0  0  0  0
  3  4  1  0  0  0  0
  4  8  1  0  0  0  0
  4  5  2  0  0  0  0
  5  9  1  0  0  0  0
  6 10  1  0  0  0  0
  6  5  1  0  0  0  0
  7  6  2  0  0  0  0
 11 17  1  0  0  0  0
 11 16  1  0  0  0  0
 12 11  2  0  0  0  0
 13 12  1  0  0  0  0
 13 14  2  0  0  0  0
 14 15  1  0  0  0  0
 15 16  2  0  0  0  0
 15  3  1  0  0  0  0
 18 12  1  0  0  0  0
 19 13  1  0  0  0  0
 20 21  1  0  0  0  0
 20  7  1  0  0  0  0
 21 27  1  0  0  0  0
 22 21  2  0  0  0  0
 22 23  1  0  0  0  0
 23 25  2  0  0  0  0
 24 23  1  0  0  0  0
 25 26  1  0  0  0  0
 27 26  2  0  0  0  0
M  END
>  <minimizedAffinity>
-5.48940992

>  <minimizedRMSD>
1.49992216

$$$$
