
 OpenBabel03272505083D

 27 29  0  0  0  0  0  0  0  0999 V2000
   35.3120   30.2110   46.2400 Cl  0  0  0  0  0  0  0  0  0  0  0  0
   35.3170   29.7510   47.9230 C   0  0  0  0  0  0  0  0  0  0  0  0
   36.3930   30.1540   48.6730 C   0  0  0  0  0  0  0  0  0  0  0  0
   36.4130   29.7940   50.0250 C   0  0  0  0  0  0  0  0  0  0  0  0
   35.3770   29.0630   50.5490 C   0  0  0  0  0  0  0  0  0  0  0  0
   34.3360   28.6960   49.7400 C   0  0  0  0  0  0  0  0  0  0  0  0
   34.2480   29.0140   48.4000 C   0  0  0  0  0  0  0  0  0  0  0  0
   37.2810   30.1300   50.5880 H   0  0  0  0  0  0  0  0  0  0  0  0
   35.4070   28.7930   51.5960 H   0  0  0  0  0  0  0  0  0  0  0  0
   33.5240   28.1160   50.1760 H   0  0  0  0  0  0  0  0  0  0  0  0
   38.7150   32.9160   48.1350 C   0  0  0  0  0  0  0  0  0  0  0  0
   39.4940   32.4940   47.0240 C   0  0  0  0  0  0  0  0  0  0  0  0
   39.1950   31.2470   46.4800 C   0  0  0  0  0  0  0  0  0  0  0  0
   38.1890   30.5200   47.0340 N   0  0  0  0  0  0  0  0  0  0  0  0
   37.4770   30.9340   48.0700 C   0  0  0  0  0  0  0  0  0  0  0  0
   37.7500   32.1360   48.6120 N   0  0  0  0  0  0  0  0  0  0  0  0
   38.9790   33.8900   48.5290 H   0  0  0  0  0  0  0  0  0  0  0  0
   40.2790   33.0680   46.5940 H   0  0  0  0  0  0  0  0  0  0  0  0
   39.7580   30.8640   45.6220 H   0  0  0  0  0  0  0  0  0  0  0  0
   32.9060   28.5440   47.3460 S   0  0  0  0  0  0  0  0  0  0  0  0
   32.7940   26.7610   47.2070 C   0  0  0  0  0  0  0  0  0  0  0  0
   31.6140   26.1090   46.9190 C   0  0  0  0  0  3  0  0  0  0  0  0
   31.4920   24.7390   46.8050 C   0  0  0  0  0  0  0  0  0  0  0  0
   30.5520   24.2720   46.5790 H   0  0  0  0  0  0  0  0  0  0  0  0
   32.6480   24.0710   47.0020 N   0  0  0  0  0  0  0  0  0  0  0  0
   33.8230   24.6620   47.2850 C   0  0  0  0  0  3  0  0  0  0  0  0
   33.8980   26.0210   47.3880 N   0  0  0  0  0  0  0  0  0  0  0  0
  1  2  1  0  0  0  0
  2  7  2  0  0  0  0
  2  3  1  0  0  0  0
  3  4  2  0  0  0  0
  4  5  1  0  0  0  0
  4  8  1  0  0  0  0
  5  9  1  0  0  0  0
  6 10  1  0  0  0  0
  6  5  2  0  0  0  0
  7  6  1  0  0  0  0
 11 17  1  0  0  0  0
 11 16  1  0  0  0  0
 12 11  2  0  0  0  0
 13 12  1  0  0  0  0
 13 14  2  0  0  0  0
 14 15  1  0  0  0  0
 15 16  2  0  0  0  0
 15  3  1  0  0  0  0
 18 12  1  0  0  0  0
 19 13  1  0  0  0  0
 20  7  1  0  0  0  0
 21 20  1  0  0  0  0
 21 27  1  0  0  0  0
 22 21  2  0  0  0  0
 23 22  1  0  0  0  0
 23 25  2  0  0  0  0
 24 23  1  0  0  0  0
 25 26  1  0  0  0  0
 26 27  2  0  0  0  0
M  END
>  <minimizedAffinity>
-5.09179306

>  <minimizedRMSD>
2.0870111

$$$$
