
 OpenBabel03262521543D

 37 39  0  0  1  0  0  0  0  0999 V2000
   31.9150   26.8250   48.2970 C   0  0  1  0  0  0  0  0  0  0  0  0
   32.5970   28.1720   48.3040 C   0  0  2  0  0  0  0  0  0  0  0  0
   32.5260   28.7180   46.9100 C   0  0  0  0  0  0  0  0  0  0  0  0
   31.8910   27.8750   46.0200 O   0  0  0  0  0  0  0  0  0  0  0  0
   30.5830   27.5920   46.4010 C   0  0  0  0  0  0  0  0  0  0  0  0
   30.4940   27.0560   47.7950 C   0  0  2  0  0  0  0  0  0  0  0  0
   31.9370   26.3220   49.2710 H   0  0  0  0  0  0  0  0  0  0  0  0
   32.0510   28.8120   49.0210 H   0  0  0  0  0  0  0  0  0  0  0  0
   31.9760   29.6860   46.9410 H   0  0  0  0  0  0  0  0  0  0  0  0
   33.5230   28.9520   46.4840 H   0  0  0  0  0  0  0  0  0  0  0  0
   30.2070   26.7970   45.7110 H   0  0  0  0  0  0  0  0  0  0  0  0
   29.8850   28.4540   46.2190 H   0  0  0  0  0  0  0  0  0  0  0  0
   29.9510   26.0920   47.8680 H   0  0  0  0  0  0  0  0  0  0  0  0
   32.5230   25.9540   47.3930 O   0  0  0  0  0  0  0  0  0  0  0  0
   31.8760   25.5060   46.7860 H   0  0  0  0  0  0  0  0  0  0  0  0
   34.2990   28.0660   48.8950 S   0  0  0  0  0  0  0  0  0  0  0  0
   34.6180   29.3530   50.1230 C   0  0  0  0  0  0  0  0  0  0  0  0
   34.0050   29.1310   51.0140 H   0  0  0  0  0  0  0  0  0  0  0  0
   34.3060   30.3460   49.7100 H   0  0  0  0  0  0  0  0  0  0  0  0
   36.3280   29.4690   50.6190 S   0  0  0  0  0  0  0  0  0  0  0  0
   37.1720   30.6240   49.5540 C   0  0  0  0  0  0  0  0  0  0  0  0
   37.2240   31.9230   50.0300 C   0  0  0  0  0  0  0  0  0  0  0  0
   37.8730   32.8910   49.2470 C   0  0  0  0  0  0  0  0  0  0  0  0
   38.4120   32.4930   48.0670 N   0  0  0  0  0  0  0  0  0  0  0  0
   38.3330   31.2060   47.6480 C   0  0  0  0  0  0  0  0  0  0  0  0
   37.7260   30.2960   48.3760 N   0  0  0  0  0  0  0  0  0  0  0  0
   36.8040   32.2650   50.9640 H   0  0  0  0  0  0  0  0  0  0  0  0
   37.9450   33.9150   49.5640 H   0  0  0  0  0  0  0  0  0  0  0  0
   38.7950   30.9940   46.6930 H   0  0  0  0  0  0  0  0  0  0  0  0
   29.9550   28.0040   48.6520 O   0  0  0  0  0  0  0  0  0  0  0  0
   28.9530   27.8640   49.5680 C   0  0  0  0  0  0  0  0  0  0  0  0
   28.9910   27.1130   50.7330 C   0  0  0  0  0  3  0  0  0  0  0  0
   27.9100   27.0480   51.5830 C   0  0  0  0  0  0  0  0  0  0  0  0
   27.9760   26.4440   52.4980 H   0  0  0  0  0  0  0  0  0  0  0  0
   26.7670   27.7320   51.2910 N   0  0  0  0  0  0  0  0  0  0  0  0
   26.7370   28.4670   50.1430 C   0  0  0  0  0  3  0  0  0  0  0  0
   27.7950   28.5340   49.3050 N   0  0  0  0  0  0  0  0  0  0  0  0
  1  2  1  0  0  0  0
  1  7  1  1  0  0  0
  2 16  1  0  0  0  0
  2  8  1  1  0  0  0
  3  9  1  0  0  0  0
  3  2  1  0  0  0  0
  4  5  1  0  0  0  0
  4  3  1  0  0  0  0
  5  6  1  0  0  0  0
  6 13  1  1  0  0  0
  6  1  1  0  0  0  0
  6 30  1  0  0  0  0
 10  3  1  0  0  0  0
 11  5  1  0  0  0  0
 12  5  1  0  0  0  0
 14  1  1  0  0  0  0
 15 14  1  0  0  0  0
 16 17  1  0  0  0  0
 17 20  1  0  0  0  0
 17 18  1  0  0  0  0
 19 17  1  0  0  0  0
 21 22  1  0  0  0  0
 21 20  1  0  0  0  0
 22 27  1  0  0  0  0
 23 28  1  0  0  0  0
 23 22  2  0  0  0  0
 24 23  1  0  0  0  0
 25 24  2  0  0  0  0
 25 26  1  0  0  0  0
 26 21  2  0  0  0  0
 29 25  1  0  0  0  0
 30 31  1  0  0  0  0
 31 32  1  0  0  0  0
 32 33  2  0  0  0  0
 33 34  1  0  0  0  0
 35 33  1  0  0  0  0
 36 35  2  0  0  0  0
 37 31  2  0  0  0  0
 37 36  1  0  0  0  0
M  END
>  <minimizedAffinity>
-5.63532972

>  <minimizedRMSD>
1.24032748

$$$$
