
 OpenBabel03262521543D

 37 39  0  0  1  0  0  0  0  0999 V2000
   32.6030   27.0260   48.3990 C   0  0  1  0  0  0  0  0  0  0  0  0
   33.2260   28.3800   48.6370 C   0  0  2  0  0  0  0  0  0  0  0  0
   32.9640   29.2150   47.4210 C   0  0  0  0  0  0  0  0  0  0  0  0
   32.2590   28.5490   46.4380 O   0  0  0  0  0  0  0  0  0  0  0  0
   31.0200   28.1020   46.8860 C   0  0  0  0  0  0  0  0  0  0  0  0
   31.1240   27.2670   48.1230 C   0  0  2  0  0  0  0  0  0  0  0  0
   32.7650   26.3220   49.2250 H   0  0  0  0  0  0  0  0  0  0  0  0
   32.7470   28.8080   49.5370 H   0  0  0  0  0  0  0  0  0  0  0  0
   32.3820   30.1130   47.7320 H   0  0  0  0  0  0  0  0  0  0  0  0
   33.8900   29.6040   46.9520 H   0  0  0  0  0  0  0  0  0  0  0  0
   30.5940   27.4570   46.0790 H   0  0  0  0  0  0  0  0  0  0  0  0
   30.2710   28.9340   46.9840 H   0  0  0  0  0  0  0  0  0  0  0  0
   30.6330   26.2770   48.0340 H   0  0  0  0  0  0  0  0  0  0  0  0
   33.1310   26.4200   47.2590 O   0  0  0  0  0  0  0  0  0  0  0  0
   32.4330   26.0750   46.6410 H   0  0  0  0  0  0  0  0  0  0  0  0
   34.9910   28.2600   48.9970 S   0  0  0  0  0  0  0  0  0  0  0  0
   35.4380   29.3940   50.3310 C   0  0  0  0  0  0  0  0  0  0  0  0
   35.0100   28.9990   51.2700 H   0  0  0  0  0  0  0  0  0  0  0  0
   34.9920   30.4000   50.1280 H   0  0  0  0  0  0  0  0  0  0  0  0
   37.1970   29.5980   50.5460 S   0  0  0  0  0  0  0  0  0  0  0  0
   37.8210   30.6870   49.2790 C   0  0  0  0  0  0  0  0  0  0  0  0
   38.2030   31.9400   49.7250 C   0  0  0  0  0  0  0  0  0  0  0  0
   38.7060   32.8550   48.7860 C   0  0  0  0  0  0  0  0  0  0  0  0
   38.7880   32.4530   47.4920 N   0  0  0  0  0  0  0  0  0  0  0  0
   38.3990   31.2110   47.1090 C   0  0  0  0  0  0  0  0  0  0  0  0
   37.9280   30.3510   47.9840 N   0  0  0  0  0  0  0  0  0  0  0  0
   38.1480   32.2840   50.7480 H   0  0  0  0  0  0  0  0  0  0  0  0
   39.0180   33.8420   49.0720 H   0  0  0  0  0  0  0  0  0  0  0  0
   38.5060   30.9910   46.0550 H   0  0  0  0  0  0  0  0  0  0  0  0
   30.6560   27.9630   49.2270 O   0  0  0  0  0  0  0  0  0  0  0  0
   29.4230   27.9200   49.8120 C   0  0  0  0  0  0  0  0  0  0  0  0
   28.9650   26.9760   50.7170 C   0  0  0  0  0  3  0  0  0  0  0  0
   27.6930   27.0390   51.2400 C   0  0  0  0  0  0  0  0  0  0  0  0
   27.3640   26.2730   51.9560 H   0  0  0  0  0  0  0  0  0  0  0  0
   26.8490   28.0440   50.8720 N   0  0  0  0  0  0  0  0  0  0  0  0
   27.3070   28.9700   49.9800 C   0  0  0  0  0  3  0  0  0  0  0  0
   28.5550   28.9130   49.4640 N   0  0  0  0  0  0  0  0  0  0  0  0
  1  2  1  0  0  0  0
  1  7  1  1  0  0  0
  2 16  1  0  0  0  0
  2  8  1  1  0  0  0
  3  9  1  0  0  0  0
  3  2  1  0  0  0  0
  4  5  1  0  0  0  0
  4  3  1  0  0  0  0
  5 12  1  0  0  0  0
  5  6  1  0  0  0  0
  6 13  1  6  0  0  0
  6  1  1  0  0  0  0
  6 30  1  0  0  0  0
 10  3  1  0  0  0  0
 11  5  1  0  0  0  0
 14  1  1  0  0  0  0
 15 14  1  0  0  0  0
 16 17  1  0  0  0  0
 17 20  1  0  0  0  0
 17 18  1  0  0  0  0
 19 17  1  0  0  0  0
 21 22  1  0  0  0  0
 21 20  1  0  0  0  0
 22 27  1  0  0  0  0
 23 28  1  0  0  0  0
 23 22  2  0  0  0  0
 24 23  1  0  0  0  0
 25 24  2  0  0  0  0
 25 26  1  0  0  0  0
 26 21  2  0  0  0  0
 29 25  1  0  0  0  0
 30 31  1  0  0  0  0
 31 32  1  0  0  0  0
 32 33  2  0  0  0  0
 33 34  1  0  0  0  0
 35 33  1  0  0  0  0
 36 35  2  0  0  0  0
 37 31  2  0  0  0  0
 37 36  1  0  0  0  0
M  END
>  <minimizedAffinity>
-5.58033466

>  <minimizedRMSD>
0.795300841

$$$$
