
 OpenBabel03262521573D

 37 39  0  0  1  0  0  0  0  0999 V2000
   37.6150   24.8210   31.1390 C   0  0  1  0  0  0  0  0  0  0  0  0
   37.4670   25.5410   32.4580 C   0  0  2  0  0  0  0  0  0  0  0  0
   36.2660   26.4310   32.3510 C   0  0  0  0  0  0  0  0  0  0  0  0
   35.6430   26.3690   31.1210 O   0  0  0  0  0  0  0  0  0  0  0  0
   35.2110   25.0830   30.8110 C   0  0  0  0  0  0  0  0  0  0  0  0
   36.3100   24.0720   30.9010 C   0  0  2  0  0  0  0  0  0  0  0  0
   38.4900   24.1600   31.1010 H   0  0  0  0  0  0  0  0  0  0  0  0
   37.3350   24.7700   33.2390 H   0  0  0  0  0  0  0  0  0  0  0  0
   35.5370   26.1300   33.1380 H   0  0  0  0  0  0  0  0  0  0  0  0
   36.4970   27.4980   32.5470 H   0  0  0  0  0  0  0  0  0  0  0  0
   34.8590   25.1040   29.7500 H   0  0  0  0  0  0  0  0  0  0  0  0
   34.2950   24.7850   31.3890 H   0  0  0  0  0  0  0  0  0  0  0  0
   36.4340   23.4660   29.9800 H   0  0  0  0  0  0  0  0  0  0  0  0
   37.7590   25.7220   30.0840 O   0  0  0  0  0  0  0  0  0  0  0  0
   37.1490   25.5340   29.3230 H   0  0  0  0  0  0  0  0  0  0  0  0
   38.9520   26.4710   32.8930 S   0  0  0  0  0  0  0  0  0  0  0  0
   38.9210   26.9200   34.6430 C   0  0  0  0  0  0  0  0  0  0  0  0
   38.6720   27.9920   34.7130 H   0  0  0  0  0  0  0  0  0  0  0  0
   39.9360   26.7560   35.0860 H   0  0  0  0  0  0  0  0  0  0  0  0
   37.7390   25.9930   35.6050 S   0  0  0  0  0  0  0  0  0  0  0  0
   38.5800   24.6680   36.4520 C   0  0  0  0  0  0  0  0  0  0  0  0
   38.1020   24.3930   37.7220 C   0  0  0  0  0  0  0  0  0  0  0  0
   38.7130   23.3620   38.4530 C   0  0  0  0  0  0  0  0  0  0  0  0
   39.7390   22.6930   37.8670 N   0  0  0  0  0  0  0  0  0  0  0  0
   40.1680   23.0030   36.6180 C   0  0  0  0  0  0  0  0  0  0  0  0
   39.5990   23.9680   35.9300 N   0  0  0  0  0  0  0  0  0  0  0  0
   37.2880   24.9090   38.2100 H   0  0  0  0  0  0  0  0  0  0  0  0
   38.3870   23.1030   39.4420 H   0  0  0  0  0  0  0  0  0  0  0  0
   40.9920   22.4100   36.2440 H   0  0  0  0  0  0  0  0  0  0  0  0
   36.1440   23.2640   32.0160 O   0  0  0  0  0  0  0  0  0  0  0  0
   36.0030   21.9090   32.0830 C   0  0  0  0  0  0  0  0  0  0  0  0
   35.5660   21.1710   33.1720 C   0  0  0  0  0  3  0  0  0  0  0  0
   35.4650   19.7990   33.1190 C   0  0  0  0  0  0  0  0  0  0  0  0
   35.1140   19.2470   34.0020 H   0  0  0  0  0  0  0  0  0  0  0  0
   35.7980   19.1320   31.9770 N   0  0  0  0  0  0  0  0  0  0  0  0
   36.2280   19.8640   30.9110 C   0  0  0  0  0  3  0  0  0  0  0  0
   36.3290   21.2110   30.9570 N   0  0  0  0  0  0  0  0  0  0  0  0
  1  7  1  1  0  0  0
  1  2  1  0  0  0  0
  2 16  1  0  0  0  0
  2  8  1  1  0  0  0
  3  2  1  0  0  0  0
  3 10  1  0  0  0  0
  3  9  1  0  0  0  0
  4  3  1  0  0  0  0
  5  6  1  0  0  0  0
  5  4  1  0  0  0  0
  5 12  1  0  0  0  0
  6 13  1  6  0  0  0
  6  1  1  0  0  0  0
  6 30  1  0  0  0  0
 11  5  1  0  0  0  0
 14  1  1  0  0  0  0
 15 14  1  0  0  0  0
 16 17  1  0  0  0  0
 17 18  1  0  0  0  0
 17 19  1  0  0  0  0
 17 20  1  0  0  0  0
 20 21  1  0  0  0  0
 21 22  1  0  0  0  0
 22 27  1  0  0  0  0
 22 23  2  0  0  0  0
 23 28  1  0  0  0  0
 24 23  1  0  0  0  0
 25 24  2  0  0  0  0
 26 21  2  0  0  0  0
 26 25  1  0  0  0  0
 29 25  1  0  0  0  0
 30 31  1  0  0  0  0
 31 32  1  0  0  0  0
 33 32  2  0  0  0  0
 33 34  1  0  0  0  0
 35 33  1  0  0  0  0
 36 37  1  0  0  0  0
 36 35  2  0  0  0  0
 37 31  2  0  0  0  0
M  END
>  <minimizedAffinity>
-5.19419909

$$$$

 OpenBabel03262521573D

 37 39  0  0  1  0  0  0  0  0999 V2000
   37.4360   24.2150   31.1790 C   0  0  1  0  0  0  0  0  0  0  0  0
   37.5380   24.7760   32.5760 C   0  0  2  0  0  0  0  0  0  0  0  0
   36.6740   26.0000   32.6330 C   0  0  0  0  0  0  0  0  0  0  0  0
   36.0470   26.2860   31.4380 O   0  0  0  0  0  0  0  0  0  0  0  0
   35.2300   25.2450   31.0060 C   0  0  0  0  0  0  0  0  0  0  0  0
   35.9590   23.9410   30.9240 C   0  0  2  0  0  0  0  0  0  0  0  0
   38.0600   23.3270   31.0210 H   0  0  0  0  0  0  0  0  0  0  0  0
   37.1820   23.9930   33.2710 H   0  0  0  0  0  0  0  0  0  0  0  0
   35.8980   25.8430   33.4170 H   0  0  0  0  0  0  0  0  0  0  0  0
   37.2290   26.9100   32.9370 H   0  0  0  0  0  0  0  0  0  0  0  0
   34.8880   25.5050   29.9740 H   0  0  0  0  0  0  0  0  0  0  0  0
   34.2750   25.1750   31.5930 H   0  0  0  0  0  0  0  0  0  0  0  0
   35.8750   23.4450   29.9360 H   0  0  0  0  0  0  0  0  0  0  0  0
   37.8400   25.1510   30.2270 O   0  0  0  0  0  0  0  0  0  0  0  0
   37.1910   25.2560   29.4820 H   0  0  0  0  0  0  0  0  0  0  0  0
   39.2450   25.1410   33.0370 S   0  0  0  0  0  0  0  0  0  0  0  0
   40.2190   23.6200   33.0870 C   0  0  0  0  0  0  0  0  0  0  0  0
   41.1640   23.8400   33.6150 H   0  0  0  0  0  0  0  0  0  0  0  0
   40.4570   23.2960   32.0420 H   0  0  0  0  0  0  0  0  0  0  0  0
   39.4040   22.2670   33.9170 S   0  0  0  0  0  0  0  0  0  0  0  0
   39.1960   22.6740   35.6410 C   0  0  0  0  0  0  0  0  0  0  0  0
   40.2540   22.3100   36.4560 C   0  0  0  0  0  0  0  0  0  0  0  0
   40.1660   22.5970   37.8270 C   0  0  0  0  0  0  0  0  0  0  0  0
   39.0440   23.2180   38.2730 N   0  0  0  0  0  0  0  0  0  0  0  0
   38.0360   23.5540   37.4290 C   0  0  0  0  0  0  0  0  0  0  0  0
   38.1140   23.2870   36.1450 N   0  0  0  0  0  0  0  0  0  0  0  0
   41.1570   21.8160   36.1270 H   0  0  0  0  0  0  0  0  0  0  0  0
   40.9540   22.3380   38.5090 H   0  0  0  0  0  0  0  0  0  0  0  0
   37.1870   24.0450   37.8860 H   0  0  0  0  0  0  0  0  0  0  0  0
   35.5640   23.0920   31.9470 O   0  0  0  0  0  0  0  0  0  0  0  0
   35.6420   21.7310   32.0150 C   0  0  0  0  0  0  0  0  0  0  0  0
   35.8380   20.8560   30.9580 C   0  0  0  0  0  3  0  0  0  0  0  0
   35.8990   19.4950   31.1520 C   0  0  0  0  0  0  0  0  0  0  0  0
   36.0570   18.8320   30.2900 H   0  0  0  0  0  0  0  0  0  0  0  0
   35.7650   18.9750   32.4050 N   0  0  0  0  0  0  0  0  0  0  0  0
   35.5710   19.8420   33.4390 C   0  0  0  0  0  3  0  0  0  0  0  0
   35.5100   21.1800   33.2550 N   0  0  0  0  0  0  0  0  0  0  0  0
  1  7  1  6  0  0  0
  1  2  1  0  0  0  0
  2  3  1  0  0  0  0
  2 16  1  0  0  0  0
  2  8  1  1  0  0  0
  3 10  1  0  0  0  0
  3  9  1  0  0  0  0
  4  3  1  0  0  0  0
  5  4  1  0  0  0  0
  5 12  1  0  0  0  0
  6 13  1  6  0  0  0
  6  5  1  0  0  0  0
  6  1  1  0  0  0  0
  6 30  1  0  0  0  0
 11  5  1  0  0  0  0
 14  1  1  0  0  0  0
 15 14  1  0  0  0  0
 16 17  1  0  0  0  0
 17 18  1  0  0  0  0
 17 20  1  0  0  0  0
 19 17  1  0  0  0  0
 20 21  1  0  0  0  0
 21 26  2  0  0  0  0
 21 22  1  0  0  0  0
 22 23  2  0  0  0  0
 23 24  1  0  0  0  0
 23 28  1  0  0  0  0
 25 29  1  0  0  0  0
 25 24  2  0  0  0  0
 26 25  1  0  0  0  0
 27 22  1  0  0  0  0
 30 31  1  0  0  0  0
 31 37  1  0  0  0  0
 32 33  1  0  0  0  0
 32 31  2  0  0  0  0
 33 35  2  0  0  0  0
 34 33  1  0  0  0  0
 35 36  1  0  0  0  0
 37 36  2  0  0  0  0
M  END
>  <minimizedAffinity>
-5.10615873

$$$$

 OpenBabel03262521573D

 37 39  0  0  1  0  0  0  0  0999 V2000
   35.8510   27.0270   31.7370 C   0  0  1  0  0  0  0  0  0  0  0  0
   37.1520   26.6160   32.3850 C   0  0  2  0  0  0  0  0  0  0  0  0
   38.2370   27.4560   31.7830 C   0  0  0  0  0  0  0  0  0  0  0  0
   37.7820   28.3390   30.8250 O   0  0  0  0  0  0  0  0  0  0  0  0
   36.8320   29.2230   31.3290 C   0  0  0  0  0  0  0  0  0  0  0  0
   35.6880   28.5210   31.9890 C   0  0  2  0  0  0  0  0  0  0  0  0
   34.9890   26.4470   32.0900 H   0  0  0  0  0  0  0  0  0  0  0  0
   37.0490   26.8000   33.4710 H   0  0  0  0  0  0  0  0  0  0  0  0
   38.7260   28.0340   32.6000 H   0  0  0  0  0  0  0  0  0  0  0  0
   39.0430   26.8540   31.3150 H   0  0  0  0  0  0  0  0  0  0  0  0
   36.4210   29.7910   30.4590 H   0  0  0  0  0  0  0  0  0  0  0  0
   37.2870   30.0210   31.9770 H   0  0  0  0  0  0  0  0  0  0  0  0
   34.6960   28.8210   31.5980 H   0  0  0  0  0  0  0  0  0  0  0  0
   35.8990   26.8560   30.3540 O   0  0  0  0  0  0  0  0  0  0  0  0
   35.5950   27.6570   29.8510 H   0  0  0  0  0  0  0  0  0  0  0  0
   37.4810   24.8530   32.1860 S   0  0  0  0  0  0  0  0  0  0  0  0
   38.7130   24.3050   33.3880 C   0  0  0  0  0  0  0  0  0  0  0  0
   38.8550   25.1170   34.1220 H   0  0  0  0  0  0  0  0  0  0  0  0
   39.6850   24.1180   32.8650 H   0  0  0  0  0  0  0  0  0  0  0  0
   38.2570   22.8180   34.2620 S   0  0  0  0  0  0  0  0  0  0  0  0
   38.4680   23.0770   36.0130 C   0  0  0  0  0  0  0  0  0  0  0  0
   39.6290   22.5430   36.5460 C   0  0  0  0  0  0  0  0  0  0  0  0
   39.8670   22.7070   37.9190 C   0  0  0  0  0  0  0  0  0  0  0  0
   38.9410   23.3830   38.6460 N   0  0  0  0  0  0  0  0  0  0  0  0
   37.8190   23.8870   38.0740 C   0  0  0  0  0  0  0  0  0  0  0  0
   37.5920   23.7360   36.7880 N   0  0  0  0  0  0  0  0  0  0  0  0
   40.3810   22.0020   35.9900 H   0  0  0  0  0  0  0  0  0  0  0  0
   40.7500   22.3140   38.3890 H   0  0  0  0  0  0  0  0  0  0  0  0
   37.1460   24.4080   38.7410 H   0  0  0  0  0  0  0  0  0  0  0  0
   35.7510   28.6670   33.3670 O   0  0  0  0  0  0  0  0  0  0  0  0
   35.0770   29.5400   34.1710 C   0  0  0  0  0  0  0  0  0  0  0  0
   35.6230   30.5650   34.9280 C   0  0  0  0  0  3  0  0  0  0  0  0
   34.8350   31.3840   35.7050 C   0  0  0  0  0  0  0  0  0  0  0  0
   35.3030   32.1870   36.2910 H   0  0  0  0  0  0  0  0  0  0  0  0
   33.4850   31.1990   35.7450 N   0  0  0  0  0  0  0  0  0  0  0  0
   32.9560   30.1890   34.9990 C   0  0  0  0  0  3  0  0  0  0  0  0
   33.7240   29.3810   34.2340 N   0  0  0  0  0  0  0  0  0  0  0  0
  1  6  1  0  0  0  0
  1  7  1  1  0  0  0
  1  2  1  0  0  0  0
  2  8  1  1  0  0  0
  3  2  1  0  0  0  0
  3  9  1  0  0  0  0
  4  5  1  0  0  0  0
  4  3  1  0  0  0  0
  5 12  1  0  0  0  0
  5  6  1  0  0  0  0
  6 13  1  6  0  0  0
  6 30  1  0  0  0  0
 10  3  1  0  0  0  0
 11  5  1  0  0  0  0
 14  1  1  0  0  0  0
 15 14  1  0  0  0  0
 16  2  1  0  0  0  0
 16 17  1  0  0  0  0
 17 18  1  0  0  0  0
 17 20  1  0  0  0  0
 19 17  1  0  0  0  0
 20 21  1  0  0  0  0
 21 22  2  0  0  0  0
 21 26  1  0  0  0  0
 22 23  1  0  0  0  0
 23 28  1  0  0  0  0
 23 24  2  0  0  0  0
 25 24  1  0  0  0  0
 25 29  1  0  0  0  0
 26 25  2  0  0  0  0
 27 22  1  0  0  0  0
 30 31  1  0  0  0  0
 31 37  2  0  0  0  0
 31 32  1  0  0  0  0
 32 33  2  0  0  0  0
 33 35  1  0  0  0  0
 33 34  1  0  0  0  0
 36 35  2  0  0  0  0
 37 36  1  0  0  0  0
M  END
>  <minimizedAffinity>
-5.10015965

$$$$

 OpenBabel03262521573D

 37 39  0  0  1  0  0  0  0  0999 V2000
   37.2860   26.4040   33.6290 C   0  0  1  0  0  0  0  0  0  0  0  0
   38.3300   25.5800   32.9140 C   0  0  2  0  0  0  0  0  0  0  0  0
   39.6720   26.1320   33.2910 C   0  0  0  0  0  0  0  0  0  0  0  0
   39.6020   27.2100   34.1490 O   0  0  0  0  0  0  0  0  0  0  0  0
   38.9540   26.8980   35.3410 C   0  0  0  0  0  0  0  0  0  0  0  0
   37.5970   26.3080   35.1180 C   0  0  2  0  0  0  0  0  0  0  0  0
   36.2580   26.0990   33.3960 H   0  0  0  0  0  0  0  0  0  0  0  0
   38.2090   24.5340   33.2510 H   0  0  0  0  0  0  0  0  0  0  0  0
   40.2570   25.3210   33.7820 H   0  0  0  0  0  0  0  0  0  0  0  0
   40.2730   26.4490   32.4150 H   0  0  0  0  0  0  0  0  0  0  0  0
   38.8160   27.8570   35.8980 H   0  0  0  0  0  0  0  0  0  0  0  0
   39.5910   26.2790   36.0280 H   0  0  0  0  0  0  0  0  0  0  0  0
   36.7880   26.8340   35.6640 H   0  0  0  0  0  0  0  0  0  0  0  0
   37.3820   27.7520   33.2850 O   0  0  0  0  0  0  0  0  0  0  0  0
   37.3940   28.3570   34.0730 H   0  0  0  0  0  0  0  0  0  0  0  0
   38.0850   25.5810   31.1260 S   0  0  0  0  0  0  0  0  0  0  0  0
   37.4130   23.9930   30.5840 C   0  0  0  0  0  0  0  0  0  0  0  0
   38.1770   23.2190   30.7730 H   0  0  0  0  0  0  0  0  0  0  0  0
   37.2050   24.0340   29.4850 H   0  0  0  0  0  0  0  0  0  0  0  0
   35.9070   23.5250   31.4180 S   0  0  0  0  0  0  0  0  0  0  0  0
   35.7920   21.7460   31.4680 C   0  0  0  0  0  0  0  0  0  0  0  0
   36.7960   21.0780   30.7870 C   0  0  0  0  0  0  0  0  0  0  0  0
   36.7750   19.6750   30.7810 C   0  0  0  0  0  0  0  0  0  0  0  0
   35.7680   19.0540   31.4470 N   0  0  0  0  0  0  0  0  0  0  0  0
   34.8090   19.7570   32.0990 C   0  0  0  0  0  0  0  0  0  0  0  0
   34.8240   21.0710   32.1070 N   0  0  0  0  0  0  0  0  0  0  0  0
   37.6080   21.5480   30.2510 H   0  0  0  0  0  0  0  0  0  0  0  0
   37.5270   19.1030   30.2700 H   0  0  0  0  0  0  0  0  0  0  0  0
   34.0510   19.1660   32.5970 H   0  0  0  0  0  0  0  0  0  0  0  0
   37.5980   24.9510   35.4040 O   0  0  0  0  0  0  0  0  0  0  0  0
   38.2660   24.2800   36.3860 C   0  0  0  0  0  0  0  0  0  0  0  0
   37.9700   24.2750   37.7400 C   0  0  0  0  0  3  0  0  0  0  0  0
   38.7230   23.5540   38.6390 C   0  0  0  0  0  0  0  0  0  0  0  0
   38.4570   23.5730   39.7050 H   0  0  0  0  0  0  0  0  0  0  0  0
   39.7900   22.8220   38.2080 N   0  0  0  0  0  0  0  0  0  0  0  0
   40.0760   22.8330   36.8750 C   0  0  0  0  0  3  0  0  0  0  0  0
   39.3400   23.5390   35.9870 N   0  0  0  0  0  0  0  0  0  0  0  0
  1  7  1  6  0  0  0
  1  6  1  0  0  0  0
  2  8  1  1  0  0  0
  2  3  1  0  0  0  0
  2  1  1  0  0  0  0
  3  9  1  0  0  0  0
  3  4  1  0  0  0  0
  4  5  1  0  0  0  0
  5 11  1  0  0  0  0
  5 12  1  0  0  0  0
  6  5  1  0  0  0  0
  6 30  1  0  0  0  0
  6 13  1  1  0  0  0
 10  3  1  0  0  0  0
 14  1  1  0  0  0  0
 14 15  1  0  0  0  0
 16  2  1  0  0  0  0
 17 18  1  0  0  0  0
 17 16  1  0  0  0  0
 17 20  1  0  0  0  0
 19 17  1  0  0  0  0
 20 21  1  0  0  0  0
 21 26  1  0  0  0  0
 22 21  2  0  0  0  0
 23 22  1  0  0  0  0
 23 24  2  0  0  0  0
 24 25  1  0  0  0  0
 25 26  2  0  0  0  0
 25 29  1  0  0  0  0
 27 22  1  0  0  0  0
 28 23  1  0  0  0  0
 30 31  1  0  0  0  0
 31 32  1  0  0  0  0
 32 33  2  0  0  0  0
 33 34  1  0  0  0  0
 35 33  1  0  0  0  0
 36 35  2  0  0  0  0
 37 31  2  0  0  0  0
 37 36  1  0  0  0  0
M  END
>  <minimizedAffinity>
-5.08895874

$$$$

 OpenBabel03262521573D

 37 39  0  0  1  0  0  0  0  0999 V2000
   37.6460   24.6390   31.0700 C   0  0  1  0  0  0  0  0  0  0  0  0
   37.7620   25.2690   32.4370 C   0  0  2  0  0  0  0  0  0  0  0  0
   36.6530   26.2690   32.5660 C   0  0  0  0  0  0  0  0  0  0  0  0
   35.8570   26.3550   31.4410 O   0  0  0  0  0  0  0  0  0  0  0  0
   35.2590   25.1400   31.1220 C   0  0  0  0  0  0  0  0  0  0  0  0
   36.2520   24.0290   30.9850 C   0  0  2  0  0  0  0  0  0  0  0  0
   38.4360   23.9070   30.8610 H   0  0  0  0  0  0  0  0  0  0  0  0
   37.6670   24.4560   33.1810 H   0  0  0  0  0  0  0  0  0  0  0  0
   36.0180   25.9760   33.4330 H   0  0  0  0  0  0  0  0  0  0  0  0
   37.0150   27.2930   32.7890 H   0  0  0  0  0  0  0  0  0  0  0  0
   34.7620   25.2710   30.1290 H   0  0  0  0  0  0  0  0  0  0  0  0
   34.4100   24.8830   31.8120 H   0  0  0  0  0  0  0  0  0  0  0  0
   36.1820   23.4850   30.0210 H   0  0  0  0  0  0  0  0  0  0  0  0
   37.7270   25.6000   30.0620 O   0  0  0  0  0  0  0  0  0  0  0  0
   36.9980   25.5240   29.3910 H   0  0  0  0  0  0  0  0  0  0  0  0
   39.3790   26.0260   32.7000 S   0  0  0  0  0  0  0  0  0  0  0  0
   40.5140   24.8370   33.4510 C   0  0  0  0  0  0  0  0  0  0  0  0
   40.9410   25.3020   34.3570 H   0  0  0  0  0  0  0  0  0  0  0  0
   41.3450   24.6130   32.7350 H   0  0  0  0  0  0  0  0  0  0  0  0
   39.7440   23.2940   33.9090 S   0  0  0  0  0  0  0  0  0  0  0  0
   39.3480   23.3290   35.6480 C   0  0  0  0  0  0  0  0  0  0  0  0
   40.2740   22.7060   36.4680 C   0  0  0  0  0  0  0  0  0  0  0  0
   40.0320   22.6910   37.8500 C   0  0  0  0  0  0  0  0  0  0  0  0
   38.9020   23.2920   38.3020 N   0  0  0  0  0  0  0  0  0  0  0  0
   38.0280   23.8890   37.4540 C   0  0  0  0  0  0  0  0  0  0  0  0
   38.2490   23.9050   36.1580 N   0  0  0  0  0  0  0  0  0  0  0  0
   41.1790   22.2210   36.1340 H   0  0  0  0  0  0  0  0  0  0  0  0
   40.7140   22.2230   38.5360 H   0  0  0  0  0  0  0  0  0  0  0  0
   37.1580   24.3380   37.9160 H   0  0  0  0  0  0  0  0  0  0  0  0
   36.1680   23.1590   32.0610 O   0  0  0  0  0  0  0  0  0  0  0  0
   36.0120   21.8040   32.0610 C   0  0  0  0  0  0  0  0  0  0  0  0
   35.6260   21.0110   33.1310 C   0  0  0  0  0  3  0  0  0  0  0  0
   35.5020   19.6450   33.0080 C   0  0  0  0  0  0  0  0  0  0  0  0
   35.1930   19.0500   33.8770 H   0  0  0  0  0  0  0  0  0  0  0  0
   35.7610   19.0390   31.8140 N   0  0  0  0  0  0  0  0  0  0  0  0
   36.1410   19.8250   30.7670 C   0  0  0  0  0  3  0  0  0  0  0  0
   36.2640   21.1660   30.8820 N   0  0  0  0  0  0  0  0  0  0  0  0
  1  7  1  6  0  0  0
  1  2  1  0  0  0  0
  2  3  1  0  0  0  0
  2 16  1  0  0  0  0
  2  8  1  1  0  0  0
  3 10  1  0  0  0  0
  3  9  1  0  0  0  0
  4  3  1  0  0  0  0
  5  4  1  0  0  0  0
  5 12  1  0  0  0  0
  6 13  1  6  0  0  0
  6  1  1  0  0  0  0
  6  5  1  0  0  0  0
  6 30  1  0  0  0  0
 11  5  1  0  0  0  0
 14  1  1  0  0  0  0
 15 14  1  0  0  0  0
 16 17  1  0  0  0  0
 17 20  1  0  0  0  0
 17 18  1  0  0  0  0
 19 17  1  0  0  0  0
 20 21  1  0  0  0  0
 21 26  2  0  0  0  0
 21 22  1  0  0  0  0
 22 23  2  0  0  0  0
 23 24  1  0  0  0  0
 23 28  1  0  0  0  0
 25 29  1  0  0  0  0
 25 24  2  0  0  0  0
 26 25  1  0  0  0  0
 27 22  1  0  0  0  0
 31 30  1  0  0  0  0
 31 32  1  0  0  0  0
 33 32  2  0  0  0  0
 33 34  1  0  0  0  0
 35 33  1  0  0  0  0
 36 37  1  0  0  0  0
 36 35  2  0  0  0  0
 37 31  2  0  0  0  0
M  END
>  <minimizedAffinity>
-5.00729275

$$$$

 OpenBabel03262521573D

 37 39  0  0  1  0  0  0  0  0999 V2000
   35.9450   26.9820   31.6710 C   0  0  1  0  0  0  0  0  0  0  0  0
   37.3850   26.8680   32.1100 C   0  0  2  0  0  0  0  0  0  0  0  0
   38.1700   27.8920   31.3470 C   0  0  0  0  0  0  0  0  0  0  0  0
   37.4020   28.6320   30.4710 O   0  0  0  0  0  0  0  0  0  0  0  0
   36.3770   29.3180   31.1140 C   0  0  0  0  0  0  0  0  0  0  0  0
   35.5160   28.4180   31.9440 C   0  0  2  0  0  0  0  0  0  0  0  0
   35.2850   26.2500   32.1520 H   0  0  0  0  0  0  0  0  0  0  0  0
   37.4120   27.0620   33.1980 H   0  0  0  0  0  0  0  0  0  0  0  0
   38.6460   28.5840   32.0780 H   0  0  0  0  0  0  0  0  0  0  0  0
   39.0020   27.4530   30.7610 H   0  0  0  0  0  0  0  0  0  0  0  0
   35.7300   29.7610   30.3180 H   0  0  0  0  0  0  0  0  0  0  0  0
   36.7480   30.2130   31.6840 H   0  0  0  0  0  0  0  0  0  0  0  0
   34.4350   28.4960   31.7100 H   0  0  0  0  0  0  0  0  0  0  0  0
   35.8180   26.7790   30.2960 O   0  0  0  0  0  0  0  0  0  0  0  0
   35.2830   27.4850   29.8460 H   0  0  0  0  0  0  0  0  0  0  0  0
   38.0390   25.2040   31.8630 S   0  0  0  0  0  0  0  0  0  0  0  0
   39.4780   24.9320   32.9220 C   0  0  0  0  0  0  0  0  0  0  0  0
   40.3770   25.2310   32.3560 H   0  0  0  0  0  0  0  0  0  0  0  0
   39.5550   23.8430   33.1710 H   0  0  0  0  0  0  0  0  0  0  0  0
   39.4330   25.8500   34.4510 S   0  0  0  0  0  0  0  0  0  0  0  0
   39.1710   24.7220   35.8070 C   0  0  0  0  0  0  0  0  0  0  0  0
   38.1650   25.0900   36.6840 C   0  0  0  0  0  0  0  0  0  0  0  0
   37.8980   24.2520   37.7780 C   0  0  0  0  0  0  0  0  0  0  0  0
   38.6440   23.1260   37.9090 N   0  0  0  0  0  0  0  0  0  0  0  0
   39.6180   22.8120   37.0190 C   0  0  0  0  0  0  0  0  0  0  0  0
   39.8720   23.5930   35.9940 N   0  0  0  0  0  0  0  0  0  0  0  0
   37.5580   25.9800   36.6020 H   0  0  0  0  0  0  0  0  0  0  0  0
   37.1310   24.4860   38.4920 H   0  0  0  0  0  0  0  0  0  0  0  0
   40.1540   21.8920   37.2150 H   0  0  0  0  0  0  0  0  0  0  0  0
   35.7550   28.6190   33.2950 O   0  0  0  0  0  0  0  0  0  0  0  0
   35.1250   29.4620   34.1640 C   0  0  0  0  0  0  0  0  0  0  0  0
   33.7600   29.5570   34.3880 C   0  0  0  0  0  3  0  0  0  0  0  0
   33.2400   30.4530   35.2950 C   0  0  0  0  0  0  0  0  0  0  0  0
   32.1530   30.4990   35.4480 H   0  0  0  0  0  0  0  0  0  0  0  0
   34.0700   31.2750   35.9990 N   0  0  0  0  0  0  0  0  0  0  0  0
   35.4110   31.1770   35.7720 C   0  0  0  0  0  3  0  0  0  0  0  0
   35.9270   30.2990   34.8820 N   0  0  0  0  0  0  0  0  0  0  0  0
  1  6  1  0  0  0  0
  1  2  1  0  0  0  0
  1  7  1  1  0  0  0
  2  8  1  1  0  0  0
  3  9  1  0  0  0  0
  3  2  1  0  0  0  0
  4  5  1  0  0  0  0
  4  3  1  0  0  0  0
  5 12  1  0  0  0  0
  5  6  1  0  0  0  0
  6 13  1  6  0  0  0
  6 30  1  0  0  0  0
 10  3  1  0  0  0  0
 11  5  1  0  0  0  0
 14  1  1  0  0  0  0
 15 14  1  0  0  0  0
 16  2  1  0  0  0  0
 16 17  1  0  0  0  0
 17 19  1  0  0  0  0
 17 20  1  0  0  0  0
 18 17  1  0  0  0  0
 20 21  1  0  0  0  0
 21 26  2  0  0  0  0
 21 22  1  0  0  0  0
 22 23  2  0  0  0  0
 23 24  1  0  0  0  0
 23 28  1  0  0  0  0
 25 29  1  0  0  0  0
 25 24  2  0  0  0  0
 26 25  1  0  0  0  0
 27 22  1  0  0  0  0
 30 31  1  0  0  0  0
 31 32  2  0  0  0  0
 31 37  1  0  0  0  0
 32 33  1  0  0  0  0
 33 34  1  0  0  0  0
 33 35  2  0  0  0  0
 36 35  1  0  0  0  0
 37 36  2  0  0  0  0
M  END
>  <minimizedAffinity>
-4.81734896

$$$$

 OpenBabel03262521573D

 37 39  0  0  1  0  0  0  0  0999 V2000
   37.8040   24.2440   31.7020 C   0  0  1  0  0  0  0  0  0  0  0  0
   36.3220   24.2870   31.9850 C   0  0  2  0  0  0  0  0  0  0  0  0
   35.7900   22.8980   31.8040 C   0  0  0  0  0  0  0  0  0  0  0  0
   36.7550   21.9840   31.4310 O   0  0  0  0  0  0  0  0  0  0  0  0
   37.7860   21.8940   32.3610 C   0  0  0  0  0  0  0  0  0  0  0  0
   38.4030   23.2240   32.6620 C   0  0  2  0  0  0  0  0  0  0  0  0
   38.2890   25.2250   31.7780 H   0  0  0  0  0  0  0  0  0  0  0  0
   36.1960   24.6400   33.0250 H   0  0  0  0  0  0  0  0  0  0  0  0
   35.3380   22.5690   32.7670 H   0  0  0  0  0  0  0  0  0  0  0  0
   34.9760   22.8380   31.0530 H   0  0  0  0  0  0  0  0  0  0  0  0
   38.5800   21.2510   31.9070 H   0  0  0  0  0  0  0  0  0  0  0  0
   37.4850   21.3330   33.2860 H   0  0  0  0  0  0  0  0  0  0  0  0
   39.5040   23.2440   32.5300 H   0  0  0  0  0  0  0  0  0  0  0  0
   38.0600   23.7800   30.4120 O   0  0  0  0  0  0  0  0  0  0  0  0
   38.7420   23.0580   30.3850 H   0  0  0  0  0  0  0  0  0  0  0  0
   35.4650   25.4740   30.9280 S   0  0  0  0  0  0  0  0  0  0  0  0
   36.3090   27.0710   30.9660 C   0  0  0  0  0  0  0  0  0  0  0  0
   35.8730   27.7040   30.1740 H   0  0  0  0  0  0  0  0  0  0  0  0
   37.3970   26.9210   30.7500 H   0  0  0  0  0  0  0  0  0  0  0  0
   36.1650   27.9270   32.5250 S   0  0  0  0  0  0  0  0  0  0  0  0
   37.5630   27.5160   33.5520 C   0  0  0  0  0  0  0  0  0  0  0  0
   37.3140   27.5480   34.9140 C   0  0  0  0  0  0  0  0  0  0  0  0
   38.3670   27.2360   35.7890 C   0  0  0  0  0  0  0  0  0  0  0  0
   39.5700   26.9200   35.2450 N   0  0  0  0  0  0  0  0  0  0  0  0
   39.7590   26.9030   33.9020 C   0  0  0  0  0  0  0  0  0  0  0  0
   38.7770   27.1950   33.0790 N   0  0  0  0  0  0  0  0  0  0  0  0
   36.3680   27.7960   35.3720 H   0  0  0  0  0  0  0  0  0  0  0  0
   38.2340   27.2440   36.8550 H   0  0  0  0  0  0  0  0  0  0  0  0
   40.7550   26.6390   33.5730 H   0  0  0  0  0  0  0  0  0  0  0  0
   38.0400   23.6580   33.9290 O   0  0  0  0  0  0  0  0  0  0  0  0
   38.6210   23.3810   35.1320 C   0  0  0  0  0  0  0  0  0  0  0  0
   39.8570   22.7900   35.3420 C   0  0  0  0  0  3  0  0  0  0  0  0
   40.3390   22.5600   36.6110 C   0  0  0  0  0  0  0  0  0  0  0  0
   41.3240   22.0900   36.7390 H   0  0  0  0  0  0  0  0  0  0  0  0
   39.5990   22.9140   37.7000 N   0  0  0  0  0  0  0  0  0  0  0  0
   38.3840   23.4940   37.4850 C   0  0  0  0  0  3  0  0  0  0  0  0
   37.9060   23.7220   36.2410 N   0  0  0  0  0  0  0  0  0  0  0  0
  1  7  1  1  0  0  0
  1  2  1  0  0  0  0
  1  6  1  0  0  0  0
  2  8  1  1  0  0  0
  3  2  1  0  0  0  0
  3  9  1  0  0  0  0
  4  3  1  0  0  0  0
  4  5  1  0  0  0  0
  5  6  1  0  0  0  0
  5 12  1  0  0  0  0
  6 13  1  6  0  0  0
  6 30  1  0  0  0  0
 10  3  1  0  0  0  0
 11  5  1  0  0  0  0
 14  1  1  0  0  0  0
 15 14  1  0  0  0  0
 16 17  1  0  0  0  0
 16  2  1  0  0  0  0
 17 20  1  0  0  0  0
 18 17  1  0  0  0  0
 19 17  1  0  0  0  0
 20 21  1  0  0  0  0
 21 22  1  0  0  0  0
 22 27  1  0  0  0  0
 22 23  2  0  0  0  0
 23 28  1  0  0  0  0
 24 23  1  0  0  0  0
 25 24  2  0  0  0  0
 26 21  2  0  0  0  0
 26 25  1  0  0  0  0
 29 25  1  0  0  0  0
 30 31  1  0  0  0  0
 31 32  2  0  0  0  0
 31 37  1  0  0  0  0
 32 33  1  0  0  0  0
 33 34  1  0  0  0  0
 33 35  2  0  0  0  0
 36 35  1  0  0  0  0
 37 36  2  0  0  0  0
M  END
>  <minimizedAffinity>
-4.7869606

$$$$

 OpenBabel03262521573D

 37 39  0  0  1  0  0  0  0  0999 V2000
   38.5360   26.5800   33.4650 C   0  0  1  0  0  0  0  0  0  0  0  0
   37.1170   26.3570   33.0000 C   0  0  2  0  0  0  0  0  0  0  0  0
   37.1660   25.3890   31.8570 C   0  0  0  0  0  0  0  0  0  0  0  0
   38.4460   24.9810   31.5360 O   0  0  0  0  0  0  0  0  0  0  0  0
   39.0880   24.3640   32.6050 C   0  0  0  0  0  0  0  0  0  0  0  0
   39.0950   25.2120   33.8380 C   0  0  2  0  0  0  0  0  0  0  0  0
   38.6150   27.3020   34.2870 H   0  0  0  0  0  0  0  0  0  0  0  0
   36.5520   25.9470   33.8580 H   0  0  0  0  0  0  0  0  0  0  0  0
   36.5630   24.4930   32.1310 H   0  0  0  0  0  0  0  0  0  0  0  0
   36.7090   25.7870   30.9290 H   0  0  0  0  0  0  0  0  0  0  0  0
   40.1520   24.2060   32.3000 H   0  0  0  0  0  0  0  0  0  0  0  0
   38.7090   23.3230   32.7940 H   0  0  0  0  0  0  0  0  0  0  0  0
   40.1060   25.3680   34.2660 H   0  0  0  0  0  0  0  0  0  0  0  0
   39.3350   27.0730   32.4330 O   0  0  0  0  0  0  0  0  0  0  0  0
   40.1880   26.5730   32.3270 H   0  0  0  0  0  0  0  0  0  0  0  0
   36.3060   27.9000   32.5340 S   0  0  0  0  0  0  0  0  0  0  0  0
   35.8660   28.8480   34.0090 C   0  0  0  0  0  0  0  0  0  0  0  0
   36.8000   29.2290   34.4580 H   0  0  0  0  0  0  0  0  0  0  0  0
   35.3610   28.1740   34.7460 H   0  0  0  0  0  0  0  0  0  0  0  0
   34.7830   30.2280   33.6840 S   0  0  0  0  0  0  0  0  0  0  0  0
   34.3490   31.0100   35.2260 C   0  0  0  0  0  0  0  0  0  0  0  0
   33.0770   30.7190   35.6890 C   0  0  0  0  0  0  0  0  0  0  0  0
   32.6620   31.2980   36.8990 C   0  0  0  0  0  0  0  0  0  0  0  0
   33.5370   32.1100   37.5450 N   0  0  0  0  0  0  0  0  0  0  0  0
   34.7730   32.3620   37.0470 C   0  0  0  0  0  0  0  0  0  0  0  0
   35.1660   31.8230   35.9140 N   0  0  0  0  0  0  0  0  0  0  0  0
   32.3630   30.0770   35.1950 H   0  0  0  0  0  0  0  0  0  0  0  0
   31.6870   31.1090   37.3080 H   0  0  0  0  0  0  0  0  0  0  0  0
   35.3920   33.0230   37.6390 H   0  0  0  0  0  0  0  0  0  0  0  0
   38.2190   24.7070   34.7870 O   0  0  0  0  0  0  0  0  0  0  0  0
   38.4930   24.1860   36.0180 C   0  0  0  0  0  0  0  0  0  0  0  0
   37.7740   24.3900   37.1860 C   0  0  0  0  0  3  0  0  0  0  0  0
   38.1500   23.8080   38.3750 C   0  0  0  0  0  0  0  0  0  0  0  0
   37.5550   23.9920   39.2800 H   0  0  0  0  0  0  0  0  0  0  0  0
   39.2530   23.0080   38.4260 N   0  0  0  0  0  0  0  0  0  0  0  0
   39.9560   22.8130   37.2750 C   0  0  0  0  0  3  0  0  0  0  0  0
   39.5910   23.3820   36.1040 N   0  0  0  0  0  0  0  0  0  0  0  0
  1  6  1  0  0  0  0
  1  7  1  1  0  0  0
  2  1  1  0  0  0  0
  2  8  1  1  0  0  0
  3  9  1  0  0  0  0
  3  2  1  0  0  0  0
  4  3  1  0  0  0  0
  4  5  1  0  0  0  0
  5 12  1  0  0  0  0
  5  6  1  0  0  0  0
  6 13  1  1  0  0  0
  6 30  1  0  0  0  0
 10  3  1  0  0  0  0
 11  5  1  0  0  0  0
 14  1  1  0  0  0  0
 15 14  1  0  0  0  0
 16  2  1  0  0  0  0
 16 17  1  0  0  0  0
 17 18  1  0  0  0  0
 17 19  1  0  0  0  0
 20 17  1  0  0  0  0
 20 21  1  0  0  0  0
 21 22  2  0  0  0  0
 21 26  1  0  0  0  0
 22 23  1  0  0  0  0
 23 28  1  0  0  0  0
 23 24  2  0  0  0  0
 25 24  1  0  0  0  0
 25 29  1  0  0  0  0
 26 25  2  0  0  0  0
 27 22  1  0  0  0  0
 30 31  1  0  0  0  0
 31 37  2  0  0  0  0
 31 32  1  0  0  0  0
 32 33  2  0  0  0  0
 33 35  1  0  0  0  0
 33 34  1  0  0  0  0
 36 35  2  0  0  0  0
 37 36  1  0  0  0  0
M  END
>  <minimizedAffinity>
-4.74715424

$$$$

 OpenBabel03262521573D

 37 39  0  0  1  0  0  0  0  0999 V2000
   37.9310   24.1070   36.2010 C   0  0  1  0  0  0  0  0  0  0  0  0
   38.8350   24.8780   35.2690 C   0  0  2  0  0  0  0  0  0  0  0  0
   40.2210   24.3330   35.4380 C   0  0  0  0  0  0  0  0  0  0  0  0
   40.3040   23.3190   36.3700 O   0  0  0  0  0  0  0  0  0  0  0  0
   39.4900   22.2360   36.0500 C   0  0  0  0  0  0  0  0  0  0  0  0
   38.0660   22.6360   35.8260 C   0  0  2  0  0  0  0  0  0  0  0  0
   36.8890   24.4510   36.1770 H   0  0  0  0  0  0  0  0  0  0  0  0
   38.4570   24.7210   34.2420 H   0  0  0  0  0  0  0  0  0  0  0  0
   40.5650   23.9420   34.4520 H   0  0  0  0  0  0  0  0  0  0  0  0
   40.9600   25.1060   35.7300 H   0  0  0  0  0  0  0  0  0  0  0  0
   39.5110   21.5420   36.9250 H   0  0  0  0  0  0  0  0  0  0  0  0
   39.9070   21.6180   35.2090 H   0  0  0  0  0  0  0  0  0  0  0  0
   37.3420   22.0650   36.4410 H   0  0  0  0  0  0  0  0  0  0  0  0
   38.3510   24.2240   37.5260 O   0  0  0  0  0  0  0  0  0  0  0  0
   38.4170   23.3500   37.9930 H   0  0  0  0  0  0  0  0  0  0  0  0
   38.7730   26.6540   35.5800 S   0  0  0  0  0  0  0  0  0  0  0  0
   37.2570   27.3580   34.8930 C   0  0  0  0  0  0  0  0  0  0  0  0
   37.2990   28.4530   35.0300 H   0  0  0  0  0  0  0  0  0  0  0  0
   36.3740   26.9580   35.4540 H   0  0  0  0  0  0  0  0  0  0  0  0
   37.0200   27.0080   33.1590 S   0  0  0  0  0  0  0  0  0  0  0  0
   36.2020   28.3920   32.3870 C   0  0  0  0  0  0  0  0  0  0  0  0
   36.8270   28.8780   31.2510 C   0  0  0  0  0  0  0  0  0  0  0  0
   36.2440   29.9670   30.5860 C   0  0  0  0  0  0  0  0  0  0  0  0
   35.0970   30.4810   31.0980 N   0  0  0  0  0  0  0  0  0  0  0  0
   34.5250   29.9660   32.2150 C   0  0  0  0  0  0  0  0  0  0  0  0
   35.0680   28.9470   32.8420 N   0  0  0  0  0  0  0  0  0  0  0  0
   37.7390   28.4870   30.8240 H   0  0  0  0  0  0  0  0  0  0  0  0
   36.6830   30.3870   29.7000 H   0  0  0  0  0  0  0  0  0  0  0  0
   33.6130   30.4490   32.5400 H   0  0  0  0  0  0  0  0  0  0  0  0
   37.7440   22.5720   34.4790 O   0  0  0  0  0  0  0  0  0  0  0  0
   37.1550   21.5570   33.7830 C   0  0  0  0  0  0  0  0  0  0  0  0
   35.9660   20.9160   34.0920 C   0  0  0  0  0  3  0  0  0  0  0  0
   35.4710   19.8980   33.3090 C   0  0  0  0  0  0  0  0  0  0  0  0
   34.5240   19.4150   33.5850 H   0  0  0  0  0  0  0  0  0  0  0  0
   36.1520   19.4960   32.1980 N   0  0  0  0  0  0  0  0  0  0  0  0
   37.3210   20.1290   31.9010 C   0  0  0  0  0  3  0  0  0  0  0  0
   37.8120   21.1300   32.6660 N   0  0  0  0  0  0  0  0  0  0  0  0
  1  7  1  6  0  0  0
  1 14  1  0  0  0  0
  2  8  1  6  0  0  0
  2  3  1  0  0  0  0
  2 16  1  0  0  0  0
  2  1  1  0  0  0  0
  3 10  1  0  0  0  0
  3  4  1  0  0  0  0
  5  4  1  0  0  0  0
  5 11  1  0  0  0  0
  6  5  1  0  0  0  0
  6  1  1  0  0  0  0
  6 13  1  1  0  0  0
  9  3  1  0  0  0  0
 12  5  1  0  0  0  0
 14 15  1  0  0  0  0
 17 18  1  0  0  0  0
 17 19  1  0  0  0  0
 17 16  1  0  0  0  0
 20 17  1  0  0  0  0
 21 26  1  0  0  0  0
 21 20  1  0  0  0  0
 22 21  2  0  0  0  0
 23 24  2  0  0  0  0
 23 22  1  0  0  0  0
 24 25  1  0  0  0  0
 25 29  1  0  0  0  0
 25 26  2  0  0  0  0
 27 22  1  0  0  0  0
 28 23  1  0  0  0  0
 30  6  1  0  0  0  0
 31 32  1  0  0  0  0
 31 30  1  0  0  0  0
 33 34  1  0  0  0  0
 33 32  2  0  0  0  0
 35 33  1  0  0  0  0
 36 35  2  0  0  0  0
 36 37  1  0  0  0  0
 37 31  2  0  0  0  0
M  END
>  <minimizedAffinity>
-4.72787619

$$$$
