
 OpenBabel03262521543D

 37 39  0  0  1  0  0  0  0  0999 V2000
   32.9340   27.0980   47.9750 C   0  0  1  0  0  0  0  0  0  0  0  0
   33.4210   28.4550   48.4220 C   0  0  2  0  0  0  0  0  0  0  0  0
   33.6350   29.2840   47.1920 C   0  0  0  0  0  0  0  0  0  0  0  0
   33.3530   28.6110   46.0200 O   0  0  0  0  0  0  0  0  0  0  0  0
   32.0360   28.1620   45.9710 C   0  0  0  0  0  0  0  0  0  0  0  0
   31.6680   27.3330   47.1600 C   0  0  2  0  0  0  0  0  0  0  0  0
   32.7740   26.3990   48.8040 H   0  0  0  0  0  0  0  0  0  0  0  0
   32.6370   28.8860   49.0730 H   0  0  0  0  0  0  0  0  0  0  0  0
   32.9780   30.1820   47.2570 H   0  0  0  0  0  0  0  0  0  0  0  0
   34.6690   29.6730   47.1040 H   0  0  0  0  0  0  0  0  0  0  0  0
   31.9470   27.5120   45.0660 H   0  0  0  0  0  0  0  0  0  0  0  0
   31.3050   28.9930   45.7740 H   0  0  0  0  0  0  0  0  0  0  0  0
   31.2480   26.3410   46.8990 H   0  0  0  0  0  0  0  0  0  0  0  0
   33.8530   26.4880   47.1210 O   0  0  0  0  0  0  0  0  0  0  0  0
   33.4390   26.1380   46.2880 H   0  0  0  0  0  0  0  0  0  0  0  0
   34.9200   28.3420   49.4210 S   0  0  0  0  0  0  0  0  0  0  0  0
   35.2770   29.9330   50.2000 C   0  0  0  0  0  0  0  0  0  0  0  0
   34.6920   29.9930   51.1340 H   0  0  0  0  0  0  0  0  0  0  0  0
   34.9530   30.7610   49.5180 H   0  0  0  0  0  0  0  0  0  0  0  0
   37.0010   30.1760   50.5890 S   0  0  0  0  0  0  0  0  0  0  0  0
   37.8000   31.0030   49.2260 C   0  0  0  0  0  0  0  0  0  0  0  0
   38.2440   32.2850   49.5040 C   0  0  0  0  0  0  0  0  0  0  0  0
   38.8840   33.0020   48.4810 C   0  0  0  0  0  0  0  0  0  0  0  0
   39.0310   32.3930   47.2760 N   0  0  0  0  0  0  0  0  0  0  0  0
   38.5770   31.1330   47.0580 C   0  0  0  0  0  0  0  0  0  0  0  0
   37.9770   30.4580   48.0130 N   0  0  0  0  0  0  0  0  0  0  0  0
   38.1400   32.7920   50.4520 H   0  0  0  0  0  0  0  0  0  0  0  0
   39.2500   34.0000   48.6360 H   0  0  0  0  0  0  0  0  0  0  0  0
   38.7440   30.7410   46.0640 H   0  0  0  0  0  0  0  0  0  0  0  0
   30.8170   28.0330   48.0030 O   0  0  0  0  0  0  0  0  0  0  0  0
   29.7160   27.5900   48.6750 C   0  0  0  0  0  0  0  0  0  0  0  0
   28.5100   27.1880   48.1220 C   0  0  0  0  0  3  0  0  0  0  0  0
   27.4660   26.7570   48.9070 C   0  0  0  0  0  0  0  0  0  0  0  0
   26.5240   26.4460   48.4340 H   0  0  0  0  0  0  0  0  0  0  0  0
   27.5980   26.7180   50.2630 N   0  0  0  0  0  0  0  0  0  0  0  0
   28.7880   27.1150   50.8020 C   0  0  0  0  0  3  0  0  0  0  0  0
   29.8180   27.5390   50.0340 N   0  0  0  0  0  0  0  0  0  0  0  0
  1  2  1  0  0  0  0
  1  7  1  1  0  0  0
  2  8  1  1  0  0  0
  2 16  1  0  0  0  0
  3  9  1  0  0  0  0
  3  2  1  0  0  0  0
  4  3  1  0  0  0  0
  5  4  1  0  0  0  0
  5  6  1  0  0  0  0
  6 13  1  6  0  0  0
  6  1  1  0  0  0  0
  6 30  1  0  0  0  0
 10  3  1  0  0  0  0
 11  5  1  0  0  0  0
 12  5  1  0  0  0  0
 14  1  1  0  0  0  0
 15 14  1  0  0  0  0
 16 17  1  0  0  0  0
 17 20  1  0  0  0  0
 17 18  1  0  0  0  0
 19 17  1  0  0  0  0
 21 22  1  0  0  0  0
 21 20  1  0  0  0  0
 22 27  1  0  0  0  0
 23 28  1  0  0  0  0
 23 22  2  0  0  0  0
 24 23  1  0  0  0  0
 25 24  2  0  0  0  0
 25 26  1  0  0  0  0
 26 21  2  0  0  0  0
 29 25  1  0  0  0  0
 30 31  1  0  0  0  0
 31 37  1  0  0  0  0
 32 31  2  0  0  0  0
 32 33  1  0  0  0  0
 33 35  2  0  0  0  0
 34 33  1  0  0  0  0
 35 36  1  0  0  0  0
 37 36  2  0  0  0  0
M  END
>  <minimizedAffinity>
-5.31092215

>  <minimizedRMSD>
0.486093313

$$$$
