
 OpenBabel03262521553D

 37 39  0  0  1  0  0  0  0  0999 V2000
   32.8350   27.0970   47.9260 C   0  0  1  0  0  0  0  0  0  0  0  0
   33.3400   28.4530   48.3570 C   0  0  2  0  0  0  0  0  0  0  0  0
   33.6130   29.2450   47.1140 C   0  0  0  0  0  0  0  0  0  0  0  0
   33.3510   28.5510   45.9500 O   0  0  0  0  0  0  0  0  0  0  0  0
   32.0260   28.1320   45.8690 C   0  0  0  0  0  0  0  0  0  0  0  0
   31.6010   27.3420   47.0660 C   0  0  2  0  0  0  0  0  0  0  0  0
   32.6320   26.4220   48.7670 H   0  0  0  0  0  0  0  0  0  0  0  0
   32.5470   28.9180   48.9710 H   0  0  0  0  0  0  0  0  0  0  0  0
   32.9760   30.1600   47.1360 H   0  0  0  0  0  0  0  0  0  0  0  0
   34.6590   29.6070   47.0500 H   0  0  0  0  0  0  0  0  0  0  0  0
   31.9500   27.4620   44.9790 H   0  0  0  0  0  0  0  0  0  0  0  0
   31.3220   28.9750   45.6300 H   0  0  0  0  0  0  0  0  0  0  0  0
   31.1650   26.3540   46.8150 H   0  0  0  0  0  0  0  0  0  0  0  0
   33.7650   26.4440   47.1170 O   0  0  0  0  0  0  0  0  0  0  0  0
   33.3690   26.0840   46.2800 H   0  0  0  0  0  0  0  0  0  0  0  0
   34.8030   28.3290   49.4060 S   0  0  0  0  0  0  0  0  0  0  0  0
   35.1860   29.9340   50.1410 C   0  0  0  0  0  0  0  0  0  0  0  0
   34.5850   30.0380   51.0610 H   0  0  0  0  0  0  0  0  0  0  0  0
   34.8970   30.7480   49.4280 H   0  0  0  0  0  0  0  0  0  0  0  0
   36.9090   30.1460   50.5560 S   0  0  0  0  0  0  0  0  0  0  0  0
   37.7420   30.9630   49.2080 C   0  0  0  0  0  0  0  0  0  0  0  0
   38.1960   32.2400   49.4920 C   0  0  0  0  0  0  0  0  0  0  0  0
   38.8630   32.9480   48.4800 C   0  0  0  0  0  0  0  0  0  0  0  0
   39.0250   32.3350   47.2790 N   0  0  0  0  0  0  0  0  0  0  0  0
   38.5600   31.0800   47.0550 C   0  0  0  0  0  0  0  0  0  0  0  0
   37.9350   30.4140   47.9980 N   0  0  0  0  0  0  0  0  0  0  0  0
   38.0800   32.7490   50.4370 H   0  0  0  0  0  0  0  0  0  0  0  0
   39.2370   33.9420   48.6410 H   0  0  0  0  0  0  0  0  0  0  0  0
   38.7410   30.6850   46.0640 H   0  0  0  0  0  0  0  0  0  0  0  0
   30.7420   28.0820   47.8640 O   0  0  0  0  0  0  0  0  0  0  0  0
   29.7400   27.6490   48.6830 C   0  0  0  0  0  0  0  0  0  0  0  0
   29.7470   27.6320   50.0680 C   0  0  0  0  0  3  0  0  0  0  0  0
   28.6710   27.1670   50.7890 C   0  0  0  0  0  0  0  0  0  0  0  0
   28.7130   27.1690   51.8870 H   0  0  0  0  0  0  0  0  0  0  0  0
   27.5600   26.7080   50.1440 N   0  0  0  0  0  0  0  0  0  0  0  0
   27.5600   26.7270   48.7790 C   0  0  0  0  0  3  0  0  0  0  0  0
   28.6150   27.1830   48.0670 N   0  0  0  0  0  0  0  0  0  0  0  0
  1  2  1  0  0  0  0
  1  7  1  1  0  0  0
  2  8  1  1  0  0  0
  2 16  1  0  0  0  0
  3  9  1  0  0  0  0
  3  2  1  0  0  0  0
  4  3  1  0  0  0  0
  5  4  1  0  0  0  0
  5  6  1  0  0  0  0
  6 13  1  6  0  0  0
  6 30  1  0  0  0  0
  6  1  1  0  0  0  0
 10  3  1  0  0  0  0
 11  5  1  0  0  0  0
 12  5  1  0  0  0  0
 14  1  1  0  0  0  0
 15 14  1  0  0  0  0
 16 17  1  0  0  0  0
 17 20  1  0  0  0  0
 17 18  1  0  0  0  0
 19 17  1  0  0  0  0
 21 22  1  0  0  0  0
 21 20  1  0  0  0  0
 22 27  1  0  0  0  0
 23 28  1  0  0  0  0
 23 22  2  0  0  0  0
 24 23  1  0  0  0  0
 25 24  2  0  0  0  0
 25 26  1  0  0  0  0
 26 21  2  0  0  0  0
 29 25  1  0  0  0  0
 30 31  1  0  0  0  0
 31 32  1  0  0  0  0
 32 33  2  0  0  0  0
 33 34  1  0  0  0  0
 35 33  1  0  0  0  0
 36 35  2  0  0  0  0
 37 31  2  0  0  0  0
 37 36  1  0  0  0  0
M  END
>  <minimizedAffinity>
-5.30528927

>  <minimizedRMSD>
0.53044796

$$$$
