
 OpenBabel03262521543D

 37 39  0  0  1  0  0  0  0  0999 V2000
   32.5780   26.9860   48.0760 C   0  0  1  0  0  0  0  0  0  0  0  0
   33.1740   28.3230   48.4470 C   0  0  2  0  0  0  0  0  0  0  0  0
   33.2080   29.1590   47.2040 C   0  0  0  0  0  0  0  0  0  0  0  0
   32.7150   28.5100   46.0900 O   0  0  0  0  0  0  0  0  0  0  0  0
   31.3950   28.1010   46.2560 C   0  0  0  0  0  0  0  0  0  0  0  0
   31.2030   27.2680   47.4840 C   0  0  2  0  0  0  0  0  0  0  0  0
   32.5350   26.2820   48.9160 H   0  0  0  0  0  0  0  0  0  0  0  0
   32.5210   28.7690   49.2210 H   0  0  0  0  0  0  0  0  0  0  0  0
   32.5990   30.0750   47.3830 H   0  0  0  0  0  0  0  0  0  0  0  0
   34.2250   29.5180   46.9500 H   0  0  0  0  0  0  0  0  0  0  0  0
   31.1380   27.4640   45.3740 H   0  0  0  0  0  0  0  0  0  0  0  0
   30.6680   28.9550   46.1890 H   0  0  0  0  0  0  0  0  0  0  0  0
   30.7140   26.2930   47.2880 H   0  0  0  0  0  0  0  0  0  0  0  0
   33.3240   26.3590   47.0780 O   0  0  0  0  0  0  0  0  0  0  0  0
   32.7680   26.0320   46.3220 H   0  0  0  0  0  0  0  0  0  0  0  0
   34.8120   28.1530   49.1840 S   0  0  0  0  0  0  0  0  0  0  0  0
   35.0870   29.4520   50.4090 C   0  0  0  0  0  0  0  0  0  0  0  0
   34.5770   29.1540   51.3410 H   0  0  0  0  0  0  0  0  0  0  0  0
   34.6360   30.4090   50.0430 H   0  0  0  0  0  0  0  0  0  0  0  0
   36.8090   29.7520   50.7700 S   0  0  0  0  0  0  0  0  0  0  0  0
   37.5160   30.7510   49.4740 C   0  0  0  0  0  0  0  0  0  0  0  0
   37.7670   32.0670   49.8250 C   0  0  0  0  0  0  0  0  0  0  0  0
   38.3240   32.9180   48.8570 C   0  0  0  0  0  0  0  0  0  0  0  0
   38.5850   32.3970   47.6310 N   0  0  0  0  0  0  0  0  0  0  0  0
   38.3200   31.0990   47.3400 C   0  0  0  0  0  0  0  0  0  0  0  0
   37.7980   30.2990   48.2420 N   0  0  0  0  0  0  0  0  0  0  0  0
   37.5680   32.5060   50.7920 H   0  0  0  0  0  0  0  0  0  0  0  0
   38.5400   33.9480   49.0710 H   0  0  0  0  0  0  0  0  0  0  0  0
   38.5650   30.7840   46.3350 H   0  0  0  0  0  0  0  0  0  0  0  0
   30.5250   27.9830   48.4610 O   0  0  0  0  0  0  0  0  0  0  0  0
   29.1900   28.0030   48.7410 C   0  0  0  0  0  0  0  0  0  0  0  0
   28.2030   27.2350   48.1430 C   0  0  0  0  0  3  0  0  0  0  0  0
   26.8820   27.3440   48.5130 C   0  0  0  0  0  0  0  0  0  0  0  0
   26.1270   26.7180   48.0160 H   0  0  0  0  0  0  0  0  0  0  0  0
   26.5140   28.2220   49.4890 N   0  0  0  0  0  0  0  0  0  0  0  0
   27.4900   28.9740   50.0730 C   0  0  0  0  0  3  0  0  0  0  0  0
   28.7900   28.8710   49.7140 N   0  0  0  0  0  0  0  0  0  0  0  0
  1  2  1  0  0  0  0
  1  7  1  1  0  0  0
  2 16  1  0  0  0  0
  2  8  1  1  0  0  0
  3  9  1  0  0  0  0
  3  2  1  0  0  0  0
  4  5  1  0  0  0  0
  4  3  1  0  0  0  0
  5  6  1  0  0  0  0
  6 13  1  6  0  0  0
  6  1  1  0  0  0  0
  6 30  1  0  0  0  0
 10  3  1  0  0  0  0
 11  5  1  0  0  0  0
 12  5  1  0  0  0  0
 14  1  1  0  0  0  0
 15 14  1  0  0  0  0
 16 17  1  0  0  0  0
 17 20  1  0  0  0  0
 17 18  1  0  0  0  0
 19 17  1  0  0  0  0
 21 22  1  0  0  0  0
 21 20  1  0  0  0  0
 22 27  1  0  0  0  0
 23 28  1  0  0  0  0
 23 22  2  0  0  0  0
 24 23  1  0  0  0  0
 25 24  2  0  0  0  0
 25 26  1  0  0  0  0
 26 21  2  0  0  0  0
 29 25  1  0  0  0  0
 30 31  1  0  0  0  0
 31 37  1  0  0  0  0
 32 33  1  0  0  0  0
 32 31  2  0  0  0  0
 33 35  2  0  0  0  0
 34 33  1  0  0  0  0
 35 36  1  0  0  0  0
 37 36  2  0  0  0  0
M  END
>  <minimizedAffinity>
-5.22790098

>  <minimizedRMSD>
0.713754654

$$$$
