
 OpenBabel03262521553D

 37 39  0  0  1  0  0  0  0  0999 V2000
   32.2650   26.9480   48.1490 C   0  0  1  0  0  0  0  0  0  0  0  0
   32.9210   28.2890   48.3780 C   0  0  2  0  0  0  0  0  0  0  0  0
   32.9600   29.0000   47.0600 C   0  0  0  0  0  0  0  0  0  0  0  0
   32.4170   28.2680   46.0240 O   0  0  0  0  0  0  0  0  0  0  0  0
   31.0860   27.9310   46.2520 C   0  0  0  0  0  0  0  0  0  0  0  0
   30.8890   27.2290   47.5590 C   0  0  2  0  0  0  0  0  0  0  0  0
   32.2140   26.3300   49.0540 H   0  0  0  0  0  0  0  0  0  0  0  0
   32.3040   28.8330   49.1180 H   0  0  0  0  0  0  0  0  0  0  0  0
   32.3910   29.9530   47.1610 H   0  0  0  0  0  0  0  0  0  0  0  0
   33.9840   29.2910   46.7530 H   0  0  0  0  0  0  0  0  0  0  0  0
   30.7840   27.2240   45.4410 H   0  0  0  0  0  0  0  0  0  0  0  0
   30.3920   28.8040   46.1170 H   0  0  0  0  0  0  0  0  0  0  0  0
   30.3580   26.2600   47.4670 H   0  0  0  0  0  0  0  0  0  0  0  0
   32.9630   26.1980   47.2020 O   0  0  0  0  0  0  0  0  0  0  0  0
   32.3780   25.8230   46.4930 H   0  0  0  0  0  0  0  0  0  0  0  0
   34.5680   28.1230   49.0970 S   0  0  0  0  0  0  0  0  0  0  0  0
   34.8460   29.4120   50.3320 C   0  0  0  0  0  0  0  0  0  0  0  0
   34.2980   29.1300   51.2480 H   0  0  0  0  0  0  0  0  0  0  0  0
   34.4380   30.3840   49.9530 H   0  0  0  0  0  0  0  0  0  0  0  0
   36.5640   29.6550   50.7480 S   0  0  0  0  0  0  0  0  0  0  0  0
   37.3260   30.6940   49.5150 C   0  0  0  0  0  0  0  0  0  0  0  0
   37.4940   32.0160   49.8900 C   0  0  0  0  0  0  0  0  0  0  0  0
   38.0880   32.8970   48.9730 C   0  0  0  0  0  0  0  0  0  0  0  0
   38.4630   32.3970   47.7680 N   0  0  0  0  0  0  0  0  0  0  0  0
   38.2750   31.0920   47.4510 C   0  0  0  0  0  0  0  0  0  0  0  0
   37.7200   30.2630   48.3060 N   0  0  0  0  0  0  0  0  0  0  0  0
   37.2050   32.4380   50.8420 H   0  0  0  0  0  0  0  0  0  0  0  0
   38.2440   33.9330   49.2070 H   0  0  0  0  0  0  0  0  0  0  0  0
   38.6100   30.7960   46.4650 H   0  0  0  0  0  0  0  0  0  0  0  0
   30.2620   28.0610   48.4740 O   0  0  0  0  0  0  0  0  0  0  0  0
   28.9290   28.2170   48.7230 C   0  0  0  0  0  0  0  0  0  0  0  0
   28.3290   29.2480   49.4280 C   0  0  0  0  0  3  0  0  0  0  0  0
   26.9670   29.2970   49.6130 C   0  0  0  0  0  0  0  0  0  0  0  0
   26.5260   30.1300   50.1780 H   0  0  0  0  0  0  0  0  0  0  0  0
   26.1700   28.3170   49.1000 N   0  0  0  0  0  0  0  0  0  0  0  0
   26.7670   27.3040   48.4080 C   0  0  0  0  0  3  0  0  0  0  0  0
   28.1050   27.2520   48.2210 N   0  0  0  0  0  0  0  0  0  0  0  0
  1  2  1  0  0  0  0
  1  7  1  1  0  0  0
  2 16  1  0  0  0  0
  2  8  1  1  0  0  0
  3  9  1  0  0  0  0
  3  2  1  0  0  0  0
  4  5  1  0  0  0  0
  4  3  1  0  0  0  0
  5  6  1  0  0  0  0
  6 13  1  6  0  0  0
  6  1  1  0  0  0  0
  6 30  1  0  0  0  0
 10  3  1  0  0  0  0
 11  5  1  0  0  0  0
 12  5  1  0  0  0  0
 14  1  1  0  0  0  0
 15 14  1  0  0  0  0
 16 17  1  0  0  0  0
 17 20  1  0  0  0  0
 17 18  1  0  0  0  0
 19 17  1  0  0  0  0
 21 22  1  0  0  0  0
 21 20  1  0  0  0  0
 22 27  1  0  0  0  0
 23 28  1  0  0  0  0
 23 22  2  0  0  0  0
 24 23  1  0  0  0  0
 25 24  2  0  0  0  0
 25 26  1  0  0  0  0
 26 21  2  0  0  0  0
 29 25  1  0  0  0  0
 30 31  1  0  0  0  0
 31 32  1  0  0  0  0
 32 33  2  0  0  0  0
 33 34  1  0  0  0  0
 35 33  1  0  0  0  0
 36 35  2  0  0  0  0
 37 36  1  0  0  0  0
 37 31  2  0  0  0  0
M  END
>  <minimizedAffinity>
-5.25463152

>  <minimizedRMSD>
1.03050017

$$$$
