
 OpenBabel03262521543D

 37 39  0  0  1  0  0  0  0  0999 V2000
   32.9310   27.0980   47.9730 C   0  0  1  0  0  0  0  0  0  0  0  0
   33.4180   28.4550   48.4220 C   0  0  2  0  0  0  0  0  0  0  0  0
   33.6330   29.2830   47.1910 C   0  0  0  0  0  0  0  0  0  0  0  0
   33.3520   28.6100   46.0190 O   0  0  0  0  0  0  0  0  0  0  0  0
   32.0350   28.1630   45.9690 C   0  0  0  0  0  0  0  0  0  0  0  0
   31.6660   27.3330   47.1580 C   0  0  2  0  0  0  0  0  0  0  0  0
   32.7700   26.3990   48.8030 H   0  0  0  0  0  0  0  0  0  0  0  0
   32.6340   28.8860   49.0710 H   0  0  0  0  0  0  0  0  0  0  0  0
   32.9770   30.1810   47.2550 H   0  0  0  0  0  0  0  0  0  0  0  0
   34.6680   29.6720   47.1040 H   0  0  0  0  0  0  0  0  0  0  0  0
   31.9460   27.5110   45.0650 H   0  0  0  0  0  0  0  0  0  0  0  0
   31.3050   28.9930   45.7720 H   0  0  0  0  0  0  0  0  0  0  0  0
   31.2450   26.3420   46.8960 H   0  0  0  0  0  0  0  0  0  0  0  0
   33.8510   26.4870   47.1200 O   0  0  0  0  0  0  0  0  0  0  0  0
   33.4370   26.1370   46.2870 H   0  0  0  0  0  0  0  0  0  0  0  0
   34.9160   28.3410   49.4220 S   0  0  0  0  0  0  0  0  0  0  0  0
   35.2750   29.9330   50.1970 C   0  0  0  0  0  0  0  0  0  0  0  0
   34.6900   29.9960   51.1310 H   0  0  0  0  0  0  0  0  0  0  0  0
   34.9530   30.7600   49.5140 H   0  0  0  0  0  0  0  0  0  0  0  0
   37.0000   30.1740   50.5860 S   0  0  0  0  0  0  0  0  0  0  0  0
   37.7990   31.0020   49.2250 C   0  0  0  0  0  0  0  0  0  0  0  0
   38.2440   32.2840   49.5030 C   0  0  0  0  0  0  0  0  0  0  0  0
   38.8840   33.0010   48.4810 C   0  0  0  0  0  0  0  0  0  0  0  0
   39.0310   32.3930   47.2760 N   0  0  0  0  0  0  0  0  0  0  0  0
   38.5770   31.1330   47.0570 C   0  0  0  0  0  0  0  0  0  0  0  0
   37.9760   30.4580   48.0110 N   0  0  0  0  0  0  0  0  0  0  0  0
   38.1390   32.7900   50.4520 H   0  0  0  0  0  0  0  0  0  0  0  0
   39.2500   33.9990   48.6370 H   0  0  0  0  0  0  0  0  0  0  0  0
   38.7440   30.7420   46.0630 H   0  0  0  0  0  0  0  0  0  0  0  0
   30.8150   28.0340   48.0000 O   0  0  0  0  0  0  0  0  0  0  0  0
   29.7130   27.5910   48.6730 C   0  0  0  0  0  0  0  0  0  0  0  0
   28.5070   27.1900   48.1210 C   0  0  0  0  0  3  0  0  0  0  0  0
   27.4630   26.7590   48.9070 C   0  0  0  0  0  0  0  0  0  0  0  0
   26.5210   26.4500   48.4350 H   0  0  0  0  0  0  0  0  0  0  0  0
   27.5980   26.7180   50.2640 N   0  0  0  0  0  0  0  0  0  0  0  0
   28.7890   27.1140   50.8010 C   0  0  0  0  0  3  0  0  0  0  0  0
   29.8170   27.5380   50.0320 N   0  0  0  0  0  0  0  0  0  0  0  0
  1  2  1  0  0  0  0
  1  7  1  1  0  0  0
  2  8  1  1  0  0  0
  2 16  1  0  0  0  0
  3  9  1  0  0  0  0
  3  2  1  0  0  0  0
  4  3  1  0  0  0  0
  5  4  1  0  0  0  0
  5  6  1  0  0  0  0
  6 13  1  6  0  0  0
  6  1  1  0  0  0  0
  6 30  1  0  0  0  0
 10  3  1  0  0  0  0
 11  5  1  0  0  0  0
 12  5  1  0  0  0  0
 14  1  1  0  0  0  0
 15 14  1  0  0  0  0
 16 17  1  0  0  0  0
 17 20  1  0  0  0  0
 17 18  1  0  0  0  0
 19 17  1  0  0  0  0
 21 22  1  0  0  0  0
 21 20  1  0  0  0  0
 22 27  1  0  0  0  0
 23 28  1  0  0  0  0
 23 22  2  0  0  0  0
 24 23  1  0  0  0  0
 25 24  2  0  0  0  0
 25 26  1  0  0  0  0
 26 21  2  0  0  0  0
 29 25  1  0  0  0  0
 30 31  1  0  0  0  0
 31 37  1  0  0  0  0
 32 31  2  0  0  0  0
 32 33  1  0  0  0  0
 33 35  2  0  0  0  0
 34 33  1  0  0  0  0
 35 36  1  0  0  0  0
 37 36  2  0  0  0  0
M  END
>  <minimizedAffinity>
-5.31169844

>  <minimizedRMSD>
0.539854527

$$$$
