
 OpenBabel03272510103D

 26 28  0  0  0  0  0  0  0  0999 V2000
   36.7910   30.3240   47.6430 C   0  0  0  0  0  0  0  0  0  0  0  0
   37.8150   30.7140   46.8350 C   0  0  0  0  0  0  0  0  0  0  0  0
   37.7080   30.8350   45.4660 C   0  0  0  0  0  0  0  0  0  0  0  0
   36.5380   30.5620   44.8280 C   0  0  0  0  0  0  0  0  0  0  0  0
   35.5000   30.1640   45.6760 C   0  0  0  0  0  0  0  0  0  0  0  0
   35.6130   30.0470   47.0190 N   0  0  0  0  0  0  0  0  0  0  0  0
   38.7700   30.9440   47.2900 H   0  0  0  0  0  0  0  0  0  0  0  0
   38.5290   31.1470   44.8400 H   0  0  0  0  0  0  0  0  0  0  0  0
   34.5150   29.9140   45.3090 H   0  0  0  0  0  0  0  0  0  0  0  0
   35.9770   29.5280   49.8950 C   0  0  0  0  0  0  0  0  0  0  0  0
   36.9110   30.1970   49.0830 C   0  0  0  0  0  0  0  0  0  0  0  0
   37.9970   30.7590   49.7190 C   0  0  0  0  0  0  0  0  0  0  0  0
   38.1060   30.6370   51.0790 N   0  0  0  0  0  0  0  0  0  0  0  0
   37.1900   29.9900   51.8020 C   0  0  0  0  0  0  0  0  0  0  0  0
   36.1040   29.4220   51.2150 N   0  0  0  0  0  0  0  0  0  0  0  0
   35.1290   29.0920   49.3760 H   0  0  0  0  0  0  0  0  0  0  0  0
   38.7560   31.2900   49.1580 H   0  0  0  0  0  0  0  0  0  0  0  0
   37.3370   29.9320   52.8720 H   0  0  0  0  0  0  0  0  0  0  0  0
   36.2130   30.6160   43.4870 O   0  0  0  0  0  0  0  0  0  0  0  0
   35.6300   29.5300   42.8750 C   0  0  0  0  0  0  0  0  0  0  0  0
   36.5970   28.5140   42.8670 C   0  0  0  0  0  3  0  0  0  0  0  0
   36.3480   27.2490   42.3140 C   0  0  0  0  0  0  0  0  0  0  0  0
   37.0130   26.4180   42.2600 H   0  0  0  0  0  0  0  0  0  0  0  0
   35.1200   27.0330   41.7760 N   0  0  0  0  0  0  0  0  0  0  0  0
   34.1850   28.0020   41.7790 C   0  0  0  0  0  3  0  0  0  0  0  0
   34.4710   29.1870   42.3160 N   0  0  0  0  0  0  0  0  0  0  0  0
  1 11  1  0  0  0  0
  2  7  1  0  0  0  0
  2  1  2  0  0  0  0
  3  2  1  0  0  0  0
  4  3  2  0  0  0  0
  4  5  1  0  0  0  0
  5  6  2  0  0  0  0
  6  1  1  0  0  0  0
  8  3  1  0  0  0  0
  9  5  1  0  0  0  0
 10 15  1  0  0  0  0
 11 12  1  0  0  0  0
 11 10  2  0  0  0  0
 12 13  2  0  0  0  0
 13 14  1  0  0  0  0
 14 18  1  0  0  0  0
 15 14  2  0  0  0  0
 16 10  1  0  0  0  0
 17 12  1  0  0  0  0
 19  4  1  0  0  0  0
 20 19  1  0  0  0  0
 21 20  1  0  0  0  0
 22 21  2  0  0  0  0
 23 22  1  0  0  0  0
 24 25  2  0  0  0  0
 24 22  1  0  0  0  0
 25 26  1  0  0  0  0
 26 20  2  0  0  0  0
M  END
>  <minimizedAffinity>
-3.90484023

>  <minimizedRMSD>
7.14784384

$$$$
