
 OpenBabel03272502263D

 28 30  0  0  0  0  0  0  0  0999 V2000
   37.5360   25.8280   32.1020 C   0  0  0  0  0  0  0  0  0  0  0  0
   38.2280   25.4640   33.2770 C   0  0  0  0  0  0  0  0  0  0  0  0
   38.1070   24.1340   33.6920 C   0  0  0  0  0  0  0  0  0  0  0  0
   37.3480   23.2920   32.9540 N   0  0  0  0  0  0  0  0  0  0  0  0
   36.7010   23.6580   31.8430 C   0  0  0  0  0  0  0  0  0  0  0  0
   36.7990   24.9400   31.4160 N   0  0  0  0  0  0  0  0  0  0  0  0
   37.6280   26.8560   31.7800 H   0  0  0  0  0  0  0  0  0  0  0  0
   38.8250   26.1480   33.8490 H   0  0  0  0  0  0  0  0  0  0  0  0
   38.7500   23.6300   34.8870 C   0  0  0  0  0  0  0  0  0  0  0  0
   39.8720   22.8400   34.8200 C   0  0  0  0  0  0  0  0  0  0  0  0
   40.5090   22.3320   35.9320 C   0  0  0  0  0  0  0  0  0  0  0  0
   40.0140   22.6190   37.1580 N   0  0  0  0  0  0  0  0  0  0  0  0
   38.9170   23.3910   37.2160 C   0  0  0  0  0  0  0  0  0  0  0  0
   38.2920   23.8900   36.1340 N   0  0  0  0  0  0  0  0  0  0  0  0
   40.3500   22.5560   33.9030 H   0  0  0  0  0  0  0  0  0  0  0  0
   41.4020   21.7020   35.8870 H   0  0  0  0  0  0  0  0  0  0  0  0
   38.3540   23.7220   38.5440 C   0  0  0  0  0  0  0  0  0  0  0  0
   37.8800   25.0420   38.4800 F   0  0  0  0  0  0  0  0  0  0  0  0
   37.3580   22.8530   38.9130 F   0  0  0  0  0  0  0  0  0  0  0  0
   39.3230   23.7300   39.5230 F   0  0  0  0  0  0  0  0  0  0  0  0
   35.9700   22.7240   31.1900 O   0  0  0  0  0  0  0  0  0  0  0  0
   35.7200   21.4330   31.3870 C   0  0  0  0  0  0  0  0  0  0  0  0
   34.8250   20.6610   32.0930 C   0  0  0  0  0  3  0  0  0  0  0  0
   34.8020   19.2850   32.1100 C   0  0  0  0  0  0  0  0  0  0  0  0
   34.0190   18.8930   32.7270 H   0  0  0  0  0  0  0  0  0  0  0  0
   35.7330   18.6630   31.3750 N   0  0  0  0  0  0  0  0  0  0  0  0
   36.6260   19.3810   30.6700 C   0  0  0  0  0  3  0  0  0  0  0  0
   36.6400   20.7500   30.6590 N   0  0  0  0  0  0  0  0  0  0  0  0
  1  2  1  0  0  0  0
  2  3  2  0  0  0  0
  2  8  1  0  0  0  0
  3  9  1  0  0  0  0
  4  3  1  0  0  0  0
  5  4  2  0  0  0  0
  6  5  1  0  0  0  0
  6  1  2  0  0  0  0
  7  1  1  0  0  0  0
  9 14  1  0  0  0  0
 10  9  2  0  0  0  0
 10 11  1  0  0  0  0
 11 12  2  0  0  0  0
 12 13  1  0  0  0  0
 13 17  1  0  0  0  0
 14 13  2  0  0  0  0
 15 10  1  0  0  0  0
 16 11  1  0  0  0  0
 17 19  1  0  0  0  0
 17 20  1  0  0  0  0
 18 17  1  0  0  0  0
 21 22  1  0  0  0  0
 21  5  1  0  0  0  0
 22 23  1  0  0  0  0
 23 24  2  0  0  0  0
 24 25  1  0  0  0  0
 26 24  1  0  0  0  0
 27 26  2  0  0  0  0
 28 27  1  0  0  0  0
 28 22  2  0  0  0  0
M  END
>  <minimizedAffinity>
-5.80504131

$$$$

 OpenBabel03272502263D

 28 30  0  0  0  0  0  0  0  0999 V2000
   37.7570   27.1570   32.0520 C   0  0  0  0  0  0  0  0  0  0  0  0
   38.1950   26.0040   32.7380 C   0  0  0  0  0  0  0  0  0  0  0  0
   37.7960   25.8750   34.0710 C   0  0  0  0  0  0  0  0  0  0  0  0
   37.0260   26.8450   34.6150 N   0  0  0  0  0  0  0  0  0  0  0  0
   36.6210   27.9310   33.9460 C   0  0  0  0  0  0  0  0  0  0  0  0
   36.9930   28.0840   32.6520 N   0  0  0  0  0  0  0  0  0  0  0  0
   38.0650   27.2590   31.0210 H   0  0  0  0  0  0  0  0  0  0  0  0
   38.8060   25.2450   32.2890 H   0  0  0  0  0  0  0  0  0  0  0  0
   38.1870   24.7510   34.8960 C   0  0  0  0  0  0  0  0  0  0  0  0
   38.6880   23.5970   34.3450 C   0  0  0  0  0  0  0  0  0  0  0  0
   39.0630   22.5000   35.0930 C   0  0  0  0  0  0  0  0  0  0  0  0
   38.9370   22.5520   36.4380 N   0  0  0  0  0  0  0  0  0  0  0  0
   38.4470   23.6820   36.9700 C   0  0  0  0  0  0  0  0  0  0  0  0
   38.0800   24.7550   36.2450 N   0  0  0  0  0  0  0  0  0  0  0  0
   38.8350   23.4490   33.2930 H   0  0  0  0  0  0  0  0  0  0  0  0
   39.4630   21.5780   34.6620 H   0  0  0  0  0  0  0  0  0  0  0  0
   38.2990   23.7680   38.4400 C   0  0  0  0  0  0  0  0  0  0  0  0
   37.3180   22.8360   38.8170 F   0  0  0  0  0  0  0  0  0  0  0  0
   39.4830   23.5350   39.0920 F   0  0  0  0  0  0  0  0  0  0  0  0
   37.8070   24.9930   38.8340 F   0  0  0  0  0  0  0  0  0  0  0  0
   35.8530   28.8350   34.5980 O   0  0  0  0  0  0  0  0  0  0  0  0
   35.6410   30.1420   34.4700 C   0  0  0  0  0  0  0  0  0  0  0  0
   35.1040   31.0050   33.5420 C   0  0  0  0  0  3  0  0  0  0  0  0
   35.0130   32.3700   33.6850 C   0  0  0  0  0  0  0  0  0  0  0  0
   34.5590   32.8450   32.8380 H   0  0  0  0  0  0  0  0  0  0  0  0
   35.4900   32.8850   34.8260 N   0  0  0  0  0  0  0  0  0  0  0  0
   36.0230   32.0760   35.7590 C   0  0  0  0  0  3  0  0  0  0  0  0
   36.1090   30.7180   35.6070 N   0  0  0  0  0  0  0  0  0  0  0  0
  1  6  2  0  0  0  0
  1  2  1  0  0  0  0
  2  3  2  0  0  0  0
  3  4  1  0  0  0  0
  3  9  1  0  0  0  0
  5 21  1  0  0  0  0
  5  4  2  0  0  0  0
  6  5  1  0  0  0  0
  7  1  1  0  0  0  0
  8  2  1  0  0  0  0
  9 14  1  0  0  0  0
 10  9  2  0  0  0  0
 10 11  1  0  0  0  0
 11 12  2  0  0  0  0
 12 13  1  0  0  0  0
 13 17  1  0  0  0  0
 14 13  2  0  0  0  0
 15 10  1  0  0  0  0
 16 11  1  0  0  0  0
 17 18  1  0  0  0  0
 17 20  1  0  0  0  0
 17 19  1  0  0  0  0
 22 21  1  0  0  0  0
 22 28  1  0  0  0  0
 23 24  1  0  0  0  0
 23 22  2  0  0  0  0
 24 26  2  0  0  0  0
 25 24  1  0  0  0  0
 26 27  1  0  0  0  0
 28 27  2  0  0  0  0
M  END
>  <minimizedAffinity>
-5.77648115

$$$$

 OpenBabel03272502263D

 28 30  0  0  0  0  0  0  0  0999 V2000
   37.0550   26.7710   31.9860 C   0  0  0  0  0  0  0  0  0  0  0  0
   37.5460   25.6410   32.6740 C   0  0  0  0  0  0  0  0  0  0  0  0
   37.5660   25.7130   34.0700 C   0  0  0  0  0  0  0  0  0  0  0  0
   37.1210   26.8420   34.6670 N   0  0  0  0  0  0  0  0  0  0  0  0
   36.6590   27.9030   33.9950 C   0  0  0  0  0  0  0  0  0  0  0  0
   36.6280   27.8620   32.6420 N   0  0  0  0  0  0  0  0  0  0  0  0
   37.0390   26.7170   30.9070 H   0  0  0  0  0  0  0  0  0  0  0  0
   37.8950   24.7530   32.1820 H   0  0  0  0  0  0  0  0  0  0  0  0
   38.0590   24.6320   34.8990 C   0  0  0  0  0  0  0  0  0  0  0  0
   38.6250   23.5080   34.3500 C   0  0  0  0  0  0  0  0  0  0  0  0
   39.0970   22.4530   35.1020 C   0  0  0  0  0  0  0  0  0  0  0  0
   39.0060   22.5170   36.4500 N   0  0  0  0  0  0  0  0  0  0  0  0
   38.4510   23.6190   36.9790 C   0  0  0  0  0  0  0  0  0  0  0  0
   37.9890   24.6510   36.2500 N   0  0  0  0  0  0  0  0  0  0  0  0
   38.7520   23.3540   33.2960 H   0  0  0  0  0  0  0  0  0  0  0  0
   39.5490   21.5540   34.6730 H   0  0  0  0  0  0  0  0  0  0  0  0
   38.3390   23.7180   38.4510 C   0  0  0  0  0  0  0  0  0  0  0  0
   37.3340   22.8230   38.8550 F   0  0  0  0  0  0  0  0  0  0  0  0
   39.5280   23.4460   39.0790 F   0  0  0  0  0  0  0  0  0  0  0  0
   37.8990   24.9610   38.8490 F   0  0  0  0  0  0  0  0  0  0  0  0
   36.2420   28.9780   34.7050 O   0  0  0  0  0  0  0  0  0  0  0  0
   35.3950   29.9760   34.4710 C   0  0  0  0  0  0  0  0  0  0  0  0
   35.4540   31.3240   34.1950 C   0  0  0  0  0  3  0  0  0  0  0  0
   34.3670   32.1420   33.9910 C   0  0  0  0  0  0  0  0  0  0  0  0
   34.6460   33.1570   33.7910 H   0  0  0  0  0  0  0  0  0  0  0  0
   33.1610   31.5640   34.0690 N   0  0  0  0  0  0  0  0  0  0  0  0
   33.0600   30.2500   34.3360 C   0  0  0  0  0  3  0  0  0  0  0  0
   34.1480   29.4440   34.5380 N   0  0  0  0  0  0  0  0  0  0  0  0
  1  6  2  0  0  0  0
  1  2  1  0  0  0  0
  2  3  2  0  0  0  0
  3  4  1  0  0  0  0
  3  9  1  0  0  0  0
  5  4  2  0  0  0  0
  5 21  1  0  0  0  0
  6  5  1  0  0  0  0
  7  1  1  0  0  0  0
  8  2  1  0  0  0  0
  9 14  1  0  0  0  0
 10  9  2  0  0  0  0
 10 11  1  0  0  0  0
 11 12  2  0  0  0  0
 12 13  1  0  0  0  0
 13 17  1  0  0  0  0
 14 13  2  0  0  0  0
 15 10  1  0  0  0  0
 16 11  1  0  0  0  0
 17 20  1  0  0  0  0
 17 18  1  0  0  0  0
 17 19  1  0  0  0  0
 22 28  1  0  0  0  0
 22 21  1  0  0  0  0
 23 22  2  0  0  0  0
 24 26  2  0  0  0  0
 24 23  1  0  0  0  0
 25 24  1  0  0  0  0
 26 27  1  0  0  0  0
 27 28  2  0  0  0  0
M  END
>  <minimizedAffinity>
-5.66295099

$$$$

 OpenBabel03272502263D

 28 30  0  0  0  0  0  0  0  0999 V2000
   37.0450   27.2600   34.0150 C   0  0  0  0  0  0  0  0  0  0  0  0
   37.5340   26.6180   35.1720 C   0  0  0  0  0  0  0  0  0  0  0  0
   37.9140   25.2800   35.0370 C   0  0  0  0  0  0  0  0  0  0  0  0
   37.7940   24.6910   33.8250 N   0  0  0  0  0  0  0  0  0  0  0  0
   37.3270   25.3190   32.7400 C   0  0  0  0  0  0  0  0  0  0  0  0
   36.9510   26.6160   32.8400 N   0  0  0  0  0  0  0  0  0  0  0  0
   36.7510   28.2950   34.1180 H   0  0  0  0  0  0  0  0  0  0  0  0
   37.6230   27.1030   36.1260 H   0  0  0  0  0  0  0  0  0  0  0  0
   38.4180   24.4970   36.1460 C   0  0  0  0  0  0  0  0  0  0  0  0
   37.7830   24.4880   37.3650 C   0  0  0  0  0  0  0  0  0  0  0  0
   38.2340   23.7650   38.4490 C   0  0  0  0  0  0  0  0  0  0  0  0
   39.3560   23.0210   38.3180 N   0  0  0  0  0  0  0  0  0  0  0  0
   39.9710   23.0340   37.1250 C   0  0  0  0  0  0  0  0  0  0  0  0
   39.5350   23.7370   36.0640 N   0  0  0  0  0  0  0  0  0  0  0  0
   36.8870   25.0370   37.5770 H   0  0  0  0  0  0  0  0  0  0  0  0
   37.7360   23.7540   39.4220 H   0  0  0  0  0  0  0  0  0  0  0  0
   41.2000   22.2280   36.9520 C   0  0  0  0  0  0  0  0  0  0  0  0
   42.2810   23.1220   36.8880 F   0  0  0  0  0  0  0  0  0  0  0  0
   41.3660   21.3180   37.9660 F   0  0  0  0  0  0  0  0  0  0  0  0
   41.2090   21.5590   35.7480 F   0  0  0  0  0  0  0  0  0  0  0  0
   37.2520   24.6230   31.5810 O   0  0  0  0  0  0  0  0  0  0  0  0
   37.2090   23.3300   31.2720 C   0  0  0  0  0  0  0  0  0  0  0  0
   38.0830   22.3450   30.8720 C   0  0  0  0  0  3  0  0  0  0  0  0
   37.7420   21.0370   30.6140 C   0  0  0  0  0  0  0  0  0  0  0  0
   38.5830   20.4420   30.3160 H   0  0  0  0  0  0  0  0  0  0  0  0
   36.4510   20.7140   30.7690 N   0  0  0  0  0  0  0  0  0  0  0  0
   35.5650   21.6470   31.1580 C   0  0  0  0  0  3  0  0  0  0  0  0
   35.9140   22.9460   31.4130 N   0  0  0  0  0  0  0  0  0  0  0  0
  1  7  1  0  0  0  0
  1  2  1  0  0  0  0
  2  8  1  0  0  0  0
  3  2  2  0  0  0  0
  3  9  1  0  0  0  0
  4  3  1  0  0  0  0
  5  6  1  0  0  0  0
  5  4  2  0  0  0  0
  6  1  2  0  0  0  0
  9 10  1  0  0  0  0
 10 15  1  0  0  0  0
 10 11  2  0  0  0  0
 11 16  1  0  0  0  0
 12 11  1  0  0  0  0
 13 12  2  0  0  0  0
 14  9  2  0  0  0  0
 14 13  1  0  0  0  0
 17 13  1  0  0  0  0
 17 19  1  0  0  0  0
 18 17  1  0  0  0  0
 20 17  1  0  0  0  0
 21  5  1  0  0  0  0
 22 28  1  0  0  0  0
 22 21  1  0  0  0  0
 23 22  2  0  0  0  0
 24 26  2  0  0  0  0
 24 23  1  0  0  0  0
 25 24  1  0  0  0  0
 26 27  1  0  0  0  0
 27 28  2  0  0  0  0
M  END
>  <minimizedAffinity>
-5.64000559

$$$$

 OpenBabel03272502263D

 28 30  0  0  0  0  0  0  0  0999 V2000
   37.2270   25.6450   31.3960 C   0  0  0  0  0  0  0  0  0  0  0  0
   37.7530   24.6840   32.2860 C   0  0  0  0  0  0  0  0  0  0  0  0
   37.8450   25.0560   33.6310 C   0  0  0  0  0  0  0  0  0  0  0  0
   37.4320   26.2920   33.9920 N   0  0  0  0  0  0  0  0  0  0  0  0
   36.9360   27.1880   33.1310 C   0  0  0  0  0  0  0  0  0  0  0  0
   36.8350   26.8570   31.8210 N   0  0  0  0  0  0  0  0  0  0  0  0
   37.1550   25.3600   30.3560 H   0  0  0  0  0  0  0  0  0  0  0  0
   38.0750   23.7070   31.9800 H   0  0  0  0  0  0  0  0  0  0  0  0
   38.3800   24.1740   34.6470 C   0  0  0  0  0  0  0  0  0  0  0  0
   39.1720   23.0990   34.3210 C   0  0  0  0  0  0  0  0  0  0  0  0
   39.6920   22.2300   35.2560 C   0  0  0  0  0  0  0  0  0  0  0  0
   39.4180   22.4350   36.5650 N   0  0  0  0  0  0  0  0  0  0  0  0
   38.6440   23.4870   36.8760 C   0  0  0  0  0  0  0  0  0  0  0  0
   38.1340   24.3390   35.9680 N   0  0  0  0  0  0  0  0  0  0  0  0
   39.4550   22.8470   33.3180 H   0  0  0  0  0  0  0  0  0  0  0  0
   40.3230   21.3730   35.0050 H   0  0  0  0  0  0  0  0  0  0  0  0
   38.3280   23.7370   38.3000 C   0  0  0  0  0  0  0  0  0  0  0  0
   38.0080   25.0990   38.4250 F   0  0  0  0  0  0  0  0  0  0  0  0
   37.3030   22.9430   38.7480 F   0  0  0  0  0  0  0  0  0  0  0  0
   39.4260   23.5450   39.1100 F   0  0  0  0  0  0  0  0  0  0  0  0
   36.5570   28.3960   33.6120 O   0  0  0  0  0  0  0  0  0  0  0  0
   35.4270   29.0970   33.5810 C   0  0  0  0  0  0  0  0  0  0  0  0
   34.3120   29.2040   32.7820 C   0  0  0  0  0  3  0  0  0  0  0  0
   33.2530   30.0540   33.0050 C   0  0  0  0  0  0  0  0  0  0  0  0
   32.4910   29.9710   32.2550 H   0  0  0  0  0  0  0  0  0  0  0  0
   33.3300   30.8330   34.0920 N   0  0  0  0  0  0  0  0  0  0  0  0
   34.4040   30.7590   34.8980 C   0  0  0  0  0  3  0  0  0  0  0  0
   35.4530   29.9100   34.6680 N   0  0  0  0  0  0  0  0  0  0  0  0
  1  6  2  0  0  0  0
  1  2  1  0  0  0  0
  2  3  2  0  0  0  0
  3  4  1  0  0  0  0
  3  9  1  0  0  0  0
  5 21  1  0  0  0  0
  5  4  2  0  0  0  0
  6  5  1  0  0  0  0
  7  1  1  0  0  0  0
  8  2  1  0  0  0  0
  9 14  1  0  0  0  0
 10  9  2  0  0  0  0
 10 11  1  0  0  0  0
 11 12  2  0  0  0  0
 12 13  1  0  0  0  0
 13 17  1  0  0  0  0
 14 13  2  0  0  0  0
 15 10  1  0  0  0  0
 16 11  1  0  0  0  0
 17 18  1  0  0  0  0
 17 19  1  0  0  0  0
 17 20  1  0  0  0  0
 22 21  1  0  0  0  0
 22 28  1  0  0  0  0
 23 24  1  0  0  0  0
 23 22  2  0  0  0  0
 24 26  2  0  0  0  0
 25 24  1  0  0  0  0
 26 27  1  0  0  0  0
 28 27  2  0  0  0  0
M  END
>  <minimizedAffinity>
-5.44666815

$$$$

 OpenBabel03272502263D

 28 30  0  0  0  0  0  0  0  0999 V2000
   37.1030   21.2230   31.8620 C   0  0  0  0  0  0  0  0  0  0  0  0
   37.8570   21.2040   33.0540 C   0  0  0  0  0  0  0  0  0  0  0  0
   38.0610   22.4320   33.6900 C   0  0  0  0  0  0  0  0  0  0  0  0
   37.5320   23.5460   33.1330 N   0  0  0  0  0  0  0  0  0  0  0  0
   36.8200   23.5410   32.0010 C   0  0  0  0  0  0  0  0  0  0  0  0
   36.6060   22.3660   31.3620 N   0  0  0  0  0  0  0  0  0  0  0  0
   36.9440   20.2740   31.3690 H   0  0  0  0  0  0  0  0  0  0  0  0
   38.2680   20.3090   33.4810 H   0  0  0  0  0  0  0  0  0  0  0  0
   38.8290   22.5600   34.9110 C   0  0  0  0  0  0  0  0  0  0  0  0
   40.1490   22.1840   34.9710 C   0  0  0  0  0  0  0  0  0  0  0  0
   40.9120   22.2800   36.1160 C   0  0  0  0  0  0  0  0  0  0  0  0
   40.3450   22.7680   37.2430 N   0  0  0  0  0  0  0  0  0  0  0  0
   39.0550   23.1330   37.1760 C   0  0  0  0  0  0  0  0  0  0  0  0
   38.3050   23.0420   36.0620 N   0  0  0  0  0  0  0  0  0  0  0  0
   40.6980   21.7900   34.1390 H   0  0  0  0  0  0  0  0  0  0  0  0
   41.9640   21.9830   36.1720 H   0  0  0  0  0  0  0  0  0  0  0  0
   38.4080   23.6710   38.3930 C   0  0  0  0  0  0  0  0  0  0  0  0
   37.3070   22.8470   38.6810 F   0  0  0  0  0  0  0  0  0  0  0  0
   39.2750   23.7310   39.4550 F   0  0  0  0  0  0  0  0  0  0  0  0
   37.8770   24.9240   38.1800 F   0  0  0  0  0  0  0  0  0  0  0  0
   36.3420   24.7210   31.5400 O   0  0  0  0  0  0  0  0  0  0  0  0
   36.8490   25.9440   31.4100 C   0  0  0  0  0  0  0  0  0  0  0  0
   38.0690   26.5220   31.1390 C   0  0  0  0  0  3  0  0  0  0  0  0
   38.3090   27.8750   31.0640 C   0  0  0  0  0  0  0  0  0  0  0  0
   39.3320   28.1010   30.8410 H   0  0  0  0  0  0  0  0  0  0  0  0
   37.2590   28.6800   31.2730 N   0  0  0  0  0  0  0  0  0  0  0  0
   36.0500   28.1550   31.5410 C   0  0  0  0  0  3  0  0  0  0  0  0
   35.8220   26.8070   31.6140 N   0  0  0  0  0  0  0  0  0  0  0  0
  1  2  1  0  0  0  0
  2  8  1  0  0  0  0
  2  3  2  0  0  0  0
  3  9  1  0  0  0  0
  4  3  1  0  0  0  0
  5  4  2  0  0  0  0
  6  1  2  0  0  0  0
  6  5  1  0  0  0  0
  7  1  1  0  0  0  0
  9 10  2  0  0  0  0
  9 14  1  0  0  0  0
 10 11  1  0  0  0  0
 11 16  1  0  0  0  0
 11 12  2  0  0  0  0
 13 12  1  0  0  0  0
 13 17  1  0  0  0  0
 14 13  2  0  0  0  0
 15 10  1  0  0  0  0
 17 18  1  0  0  0  0
 17 19  1  0  0  0  0
 20 17  1  0  0  0  0
 21  5  1  0  0  0  0
 22 21  1  0  0  0  0
 22 28  1  0  0  0  0
 23 22  2  0  0  0  0
 24 23  1  0  0  0  0
 24 26  2  0  0  0  0
 25 24  1  0  0  0  0
 26 27  1  0  0  0  0
 27 28  2  0  0  0  0
M  END
>  <minimizedAffinity>
-5.4241519

$$$$

 OpenBabel03272502263D

 28 30  0  0  0  0  0  0  0  0999 V2000
   37.1960   24.0560   32.0820 C   0  0  0  0  0  0  0  0  0  0  0  0
   37.6810   23.4810   33.2750 C   0  0  0  0  0  0  0  0  0  0  0  0
   37.9670   24.3580   34.3260 C   0  0  0  0  0  0  0  0  0  0  0  0
   37.7650   25.6820   34.1380 N   0  0  0  0  0  0  0  0  0  0  0  0
   37.3030   26.2060   32.9970 C   0  0  0  0  0  0  0  0  0  0  0  0
   37.0170   25.3810   31.9620 N   0  0  0  0  0  0  0  0  0  0  0  0
   36.9740   23.3790   31.2680 H   0  0  0  0  0  0  0  0  0  0  0  0
   37.8350   22.4270   33.4050 H   0  0  0  0  0  0  0  0  0  0  0  0
   38.4860   23.9050   35.6000 C   0  0  0  0  0  0  0  0  0  0  0  0
   37.8090   24.1350   36.7730 C   0  0  0  0  0  0  0  0  0  0  0  0
   38.2730   23.7290   38.0070 C   0  0  0  0  0  0  0  0  0  0  0  0
   39.4510   23.0690   38.0790 N   0  0  0  0  0  0  0  0  0  0  0  0
   40.1060   22.8470   36.9290 C   0  0  0  0  0  0  0  0  0  0  0  0
   39.6590   23.2410   35.7220 N   0  0  0  0  0  0  0  0  0  0  0  0
   36.8670   24.6430   36.8310 H   0  0  0  0  0  0  0  0  0  0  0  0
   37.7410   23.9090   38.9460 H   0  0  0  0  0  0  0  0  0  0  0  0
   41.3980   22.1270   36.9770 C   0  0  0  0  0  0  0  0  0  0  0  0
   41.4700   21.3200   35.8300 F   0  0  0  0  0  0  0  0  0  0  0  0
   42.4650   22.9860   37.0490 F   0  0  0  0  0  0  0  0  0  0  0  0
   41.4570   21.2530   38.0400 F   0  0  0  0  0  0  0  0  0  0  0  0
   37.1420   27.5490   32.9290 O   0  0  0  0  0  0  0  0  0  0  0  0
   36.2020   28.3970   33.3380 C   0  0  0  0  0  0  0  0  0  0  0  0
   35.9070   29.1290   34.4660 C   0  0  0  0  0  3  0  0  0  0  0  0
   34.8180   29.9580   34.6120 C   0  0  0  0  0  0  0  0  0  0  0  0
   34.7850   30.4290   35.5740 H   0  0  0  0  0  0  0  0  0  0  0  0
   33.9900   30.0480   33.5640 N   0  0  0  0  0  0  0  0  0  0  0  0
   34.2440   29.3490   32.4430 C   0  0  0  0  0  3  0  0  0  0  0  0
   35.3300   28.5260   32.3070 N   0  0  0  0  0  0  0  0  0  0  0  0
  1  2  1  0  0  0  0
  2  8  1  0  0  0  0
  2  3  2  0  0  0  0
  3  9  1  0  0  0  0
  4  3  1  0  0  0  0
  5  4  2  0  0  0  0
  6  1  2  0  0  0  0
  6  5  1  0  0  0  0
  7  1  1  0  0  0  0
  9 14  2  0  0  0  0
  9 10  1  0  0  0  0
 10 15  1  0  0  0  0
 10 11  2  0  0  0  0
 11 12  1  0  0  0  0
 11 16  1  0  0  0  0
 13 17  1  0  0  0  0
 13 12  2  0  0  0  0
 14 13  1  0  0  0  0
 17 19  1  0  0  0  0
 17 20  1  0  0  0  0
 18 17  1  0  0  0  0
 21  5  1  0  0  0  0
 21 22  1  0  0  0  0
 22 23  1  0  0  0  0
 23 24  2  0  0  0  0
 24 25  1  0  0  0  0
 26 24  1  0  0  0  0
 27 26  2  0  0  0  0
 28 27  1  0  0  0  0
 28 22  2  0  0  0  0
M  END
>  <minimizedAffinity>
-5.32691765

$$$$

 OpenBabel03272502263D

 28 30  0  0  0  0  0  0  0  0999 V2000
   36.5370   28.6680   31.1290 C   0  0  0  0  0  0  0  0  0  0  0  0
   37.4980   27.8270   31.7280 C   0  0  0  0  0  0  0  0  0  0  0  0
   37.3830   27.6190   33.1060 C   0  0  0  0  0  0  0  0  0  0  0  0
   36.3730   28.2260   33.7700 N   0  0  0  0  0  0  0  0  0  0  0  0
   35.4710   29.0200   33.1820 C   0  0  0  0  0  0  0  0  0  0  0  0
   35.5580   29.2400   31.8490 N   0  0  0  0  0  0  0  0  0  0  0  0
   36.6250   28.8290   30.0640 H   0  0  0  0  0  0  0  0  0  0  0  0
   38.2930   27.3530   31.1840 H   0  0  0  0  0  0  0  0  0  0  0  0
   38.3110   26.7930   33.8500 C   0  0  0  0  0  0  0  0  0  0  0  0
   39.6690   26.9750   33.7540 C   0  0  0  0  0  0  0  0  0  0  0  0
   40.5860   26.2050   34.4370 C   0  0  0  0  0  0  0  0  0  0  0  0
   40.1390   25.2180   35.2470 N   0  0  0  0  0  0  0  0  0  0  0  0
   38.8110   25.0460   35.3360 C   0  0  0  0  0  0  0  0  0  0  0  0
   37.9110   25.7950   34.6720 N   0  0  0  0  0  0  0  0  0  0  0  0
   40.1320   27.7280   33.1470 H   0  0  0  0  0  0  0  0  0  0  0  0
   41.6700   26.3420   34.3660 H   0  0  0  0  0  0  0  0  0  0  0  0
   38.2920   23.9750   36.2150 C   0  0  0  0  0  0  0  0  0  0  0  0
   37.8400   22.9360   35.3860 F   0  0  0  0  0  0  0  0  0  0  0  0
   39.2420   23.5280   37.0990 F   0  0  0  0  0  0  0  0  0  0  0  0
   37.1840   24.3850   36.9220 F   0  0  0  0  0  0  0  0  0  0  0  0
   34.5050   29.5730   33.9540 O   0  0  0  0  0  0  0  0  0  0  0  0
   34.5040   30.4170   34.9820 C   0  0  0  0  0  0  0  0  0  0  0  0
   35.3890   31.2630   35.6110 C   0  0  0  0  0  3  0  0  0  0  0  0
   35.0970   32.0500   36.7020 C   0  0  0  0  0  0  0  0  0  0  0  0
   35.9370   32.6300   37.0290 H   0  0  0  0  0  0  0  0  0  0  0  0
   33.8460   31.9760   37.1750 N   0  0  0  0  0  0  0  0  0  0  0  0
   32.9510   31.1620   36.5880 C   0  0  0  0  0  3  0  0  0  0  0  0
   33.2510   30.3820   35.5030 N   0  0  0  0  0  0  0  0  0  0  0  0
  1  2  2  0  0  0  0
  1  6  1  0  0  0  0
  2  3  1  0  0  0  0
  3  4  2  0  0  0  0
  3  9  1  0  0  0  0
  5  4  1  0  0  0  0
  5 21  1  0  0  0  0
  6  5  2  0  0  0  0
  7  1  1  0  0  0  0
  8  2  1  0  0  0  0
  9 14  1  0  0  0  0
 10  9  2  0  0  0  0
 10 11  1  0  0  0  0
 11 12  2  0  0  0  0
 12 13  1  0  0  0  0
 13 17  1  0  0  0  0
 14 13  2  0  0  0  0
 15 10  1  0  0  0  0
 16 11  1  0  0  0  0
 17 20  1  0  0  0  0
 17 19  1  0  0  0  0
 18 17  1  0  0  0  0
 21 22  1  0  0  0  0
 22 28  2  0  0  0  0
 22 23  1  0  0  0  0
 23 24  2  0  0  0  0
 24 25  1  0  0  0  0
 24 26  1  0  0  0  0
 27 26  2  0  0  0  0
 28 27  1  0  0  0  0
M  END
>  <minimizedAffinity>
-5.24322081

$$$$

 OpenBabel03272502263D

 28 30  0  0  0  0  0  0  0  0999 V2000
   38.7430   25.2420   36.0040 C   0  0  0  0  0  0  0  0  0  0  0  0
   38.0870   26.4290   35.6180 C   0  0  0  0  0  0  0  0  0  0  0  0
   37.4320   26.4140   34.3820 C   0  0  0  0  0  0  0  0  0  0  0  0
   37.4670   25.2800   33.6450 N   0  0  0  0  0  0  0  0  0  0  0  0
   38.0960   24.1640   34.0300 C   0  0  0  0  0  0  0  0  0  0  0  0
   38.7390   24.1500   35.2220 N   0  0  0  0  0  0  0  0  0  0  0  0
   39.2500   25.2520   36.9590 H   0  0  0  0  0  0  0  0  0  0  0  0
   38.0700   27.3190   36.2180 H   0  0  0  0  0  0  0  0  0  0  0  0
   36.7330   27.5680   33.8560 C   0  0  0  0  0  0  0  0  0  0  0  0
   36.3980   27.6600   32.5270 C   0  0  0  0  0  0  0  0  0  0  0  0
   35.7420   28.7440   31.9850 C   0  0  0  0  0  0  0  0  0  0  0  0
   35.4030   29.7760   32.7920 N   0  0  0  0  0  0  0  0  0  0  0  0
   35.7330   29.6790   34.0890 C   0  0  0  0  0  0  0  0  0  0  0  0
   36.3730   28.6230   34.6240 N   0  0  0  0  0  0  0  0  0  0  0  0
   36.6140   26.9010   31.8010 H   0  0  0  0  0  0  0  0  0  0  0  0
   35.4730   28.8260   30.9280 H   0  0  0  0  0  0  0  0  0  0  0  0
   35.3740   30.7910   34.9970 C   0  0  0  0  0  0  0  0  0  0  0  0
   35.4360   31.9780   34.2490 F   0  0  0  0  0  0  0  0  0  0  0  0
   34.1330   30.6200   35.5560 F   0  0  0  0  0  0  0  0  0  0  0  0
   36.2990   30.9480   36.0050 F   0  0  0  0  0  0  0  0  0  0  0  0
   38.0610   23.0920   33.2040 O   0  0  0  0  0  0  0  0  0  0  0  0
   37.0890   22.3740   32.6500 C   0  0  0  0  0  0  0  0  0  0  0  0
   36.4120   22.3210   31.4530 C   0  0  0  0  0  3  0  0  0  0  0  0
   35.4060   21.4320   31.1470 C   0  0  0  0  0  0  0  0  0  0  0  0
   35.0200   21.5710   30.1570 H   0  0  0  0  0  0  0  0  0  0  0  0
   35.0720   20.5550   32.1030 N   0  0  0  0  0  0  0  0  0  0  0  0
   35.7100   20.5740   33.2870 C   0  0  0  0  0  3  0  0  0  0  0  0
   36.7090   21.4620   33.5820 N   0  0  0  0  0  0  0  0  0  0  0  0
  1  7  1  0  0  0  0
  2  1  1  0  0  0  0
  2  8  1  0  0  0  0
  3  2  2  0  0  0  0
  4  5  2  0  0  0  0
  4  3  1  0  0  0  0
  5  6  1  0  0  0  0
  6  1  2  0  0  0  0
  9  3  1  0  0  0  0
  9 14  1  0  0  0  0
 10  9  2  0  0  0  0
 11 10  1  0  0  0  0
 11 12  2  0  0  0  0
 12 13  1  0  0  0  0
 13 14  2  0  0  0  0
 13 17  1  0  0  0  0
 15 10  1  0  0  0  0
 16 11  1  0  0  0  0
 17 19  1  0  0  0  0
 17 20  1  0  0  0  0
 18 17  1  0  0  0  0
 21  5  1  0  0  0  0
 22 21  1  0  0  0  0
 22 28  1  0  0  0  0
 23 22  2  0  0  0  0
 24 23  1  0  0  0  0
 24 26  2  0  0  0  0
 25 24  1  0  0  0  0
 26 27  1  0  0  0  0
 27 28  2  0  0  0  0
M  END
>  <minimizedAffinity>
-5.21036291

$$$$
