
 OpenBabel03272510103D

 26 28  0  0  0  0  0  0  0  0999 V2000
   36.6140   30.5560   47.9190 C   0  0  0  0  0  0  0  0  0  0  0  0
   37.7220   31.3450   47.8770 C   0  0  0  0  0  0  0  0  0  0  0  0
   38.2920   31.8060   46.7100 C   0  0  0  0  0  0  0  0  0  0  0  0
   37.7640   31.4860   45.4990 C   0  0  0  0  0  0  0  0  0  0  0  0
   36.6260   30.6750   45.5630 C   0  0  0  0  0  0  0  0  0  0  0  0
   36.0730   30.2260   46.7140 N   0  0  0  0  0  0  0  0  0  0  0  0
   38.1840   31.6310   48.8130 H   0  0  0  0  0  0  0  0  0  0  0  0
   39.1700   32.4330   46.6950 H   0  0  0  0  0  0  0  0  0  0  0  0
   36.1010   30.3410   44.6800 H   0  0  0  0  0  0  0  0  0  0  0  0
   36.7530   29.7610   50.3090 C   0  0  0  0  0  0  0  0  0  0  0  0
   36.0200   30.0730   49.1510 C   0  0  0  0  0  0  0  0  0  0  0  0
   34.6540   29.8980   49.2140 C   0  0  0  0  0  0  0  0  0  0  0  0
   34.0970   29.4420   50.3790 N   0  0  0  0  0  0  0  0  0  0  0  0
   34.8400   29.1610   51.4520 C   0  0  0  0  0  0  0  0  0  0  0  0
   36.1900   29.3190   51.4310 N   0  0  0  0  0  0  0  0  0  0  0  0
   37.8270   29.9050   50.2410 H   0  0  0  0  0  0  0  0  0  0  0  0
   34.0250   30.1180   48.3600 H   0  0  0  0  0  0  0  0  0  0  0  0
   34.3360   28.8040   52.3380 H   0  0  0  0  0  0  0  0  0  0  0  0
   38.1660   31.8320   44.2240 O   0  0  0  0  0  0  0  0  0  0  0  0
   39.1230   31.0840   43.5760 C   0  0  0  0  0  0  0  0  0  0  0  0
   38.4400   30.3040   42.6280 C   0  0  0  0  0  3  0  0  0  0  0  0
   39.1070   29.4120   41.7760 C   0  0  0  0  0  0  0  0  0  0  0  0
   38.6820   28.7810   41.0300 H   0  0  0  0  0  0  0  0  0  0  0  0
   40.4560   29.3220   41.8990 N   0  0  0  0  0  0  0  0  0  0  0  0
   41.1200   30.0660   42.8040 C   0  0  0  0  0  3  0  0  0  0  0  0
   40.4400   30.8990   43.5900 N   0  0  0  0  0  0  0  0  0  0  0  0
  1 11  1  0  0  0  0
  2  1  1  0  0  0  0
  2  7  1  0  0  0  0
  3  2  2  0  0  0  0
  4  5  2  0  0  0  0
  4  3  1  0  0  0  0
  5  6  1  0  0  0  0
  6  1  2  0  0  0  0
  8  3  1  0  0  0  0
  9  5  1  0  0  0  0
 10 15  1  0  0  0  0
 11 12  1  0  0  0  0
 11 10  2  0  0  0  0
 12 13  2  0  0  0  0
 13 14  1  0  0  0  0
 14 18  1  0  0  0  0
 15 14  2  0  0  0  0
 16 10  1  0  0  0  0
 17 12  1  0  0  0  0
 19  4  1  0  0  0  0
 20 26  1  0  0  0  0
 20 19  1  0  0  0  0
 21 20  2  0  0  0  0
 22 24  2  0  0  0  0
 22 21  1  0  0  0  0
 23 22  1  0  0  0  0
 24 25  1  0  0  0  0
 25 26  2  0  0  0  0
M  END
>  <minimizedAffinity>
-4.26488066

>  <minimizedRMSD>
4.90647984

$$$$
