
 OpenBabel03272503123D

 44 48  0  0  0  0  0  0  0  0999 V2000
   39.2620   31.9180   44.9440 C   0  0  0  0  0  0  0  0  0  0  0  0
   38.1760   32.5740   45.0610 O   0  0  0  0  0  0  0  0  0  0  0  0
   39.9630   31.6420   46.1610 N   0  0  0  0  0  0  0  0  0  0  0  0
   40.8600   31.1130   46.1130 H   0  0  0  0  0  0  0  0  0  0  0  0
   39.2040   32.2330   42.5760 C   0  0  0  0  0  0  0  0  0  0  0  0
   39.7200   31.4970   43.6320 C   0  0  0  0  0  0  0  0  0  0  0  0
   40.5880   30.4610   43.4660 C   0  0  0  0  0  0  0  0  0  0  0  0
   40.9940   30.0990   42.1900 C   0  0  0  0  0  0  0  0  0  0  0  0
   41.8160   29.1490   41.7300 N   0  0  0  0  0  0  0  0  0  0  0  0
   41.8450   29.2500   40.4020 C   0  0  0  0  0  0  0  0  0  0  0  0
   41.0340   30.2740   40.0250 N   0  0  0  0  0  0  0  0  0  0  0  0
   40.4950   30.8140   41.1310 C   0  0  0  0  0  0  0  0  0  0  0  0
   39.6040   31.8830   41.2640 C   0  0  0  0  0  0  0  0  0  0  0  0
   38.5230   33.0490   42.6880 H   0  0  0  0  0  0  0  0  0  0  0  0
   40.9640   29.9150   44.3260 H   0  0  0  0  0  0  0  0  0  0  0  0
   42.3220   28.4700   42.3490 H   0  0  0  0  0  0  0  0  0  0  0  0
   42.4420   28.5880   39.7840 H   0  0  0  0  0  0  0  0  0  0  0  0
   39.0970   32.6070   40.2090 O   0  0  0  0  0  0  0  0  0  0  0  0
   37.7180   32.7270   40.1110 C   0  0  0  0  0  0  0  0  0  0  0  0
   37.2360   34.0290   40.0720 C   0  0  0  0  0  3  0  0  0  0  0  0
   35.8710   34.2350   39.9760 C   0  0  0  0  0  0  0  0  0  0  0  0
   35.4880   35.2470   39.9450 H   0  0  0  0  0  0  0  0  0  0  0  0
   35.0120   33.1940   39.9190 N   0  0  0  0  0  0  0  0  0  0  0  0
   35.5100   31.9290   39.9590 C   0  0  0  0  0  3  0  0  0  0  0  0
   36.8330   31.7110   40.0520 N   0  0  0  0  0  0  0  0  0  0  0  0
   38.1150   30.1540   47.4970 F   0  0  0  0  0  0  0  0  0  0  0  0
   38.3760   31.4040   47.9870 C   0  0  0  0  0  0  0  0  0  0  0  0
   37.7080   31.8330   49.1000 C   0  0  0  0  0  0  0  0  0  0  0  0
   38.0160   33.0970   49.5420 C   0  0  0  0  0  0  0  0  0  0  0  0
   38.9310   33.8930   48.9180 C   0  0  0  0  0  0  0  0  0  0  0  0
   39.5900   33.4210   47.7880 C   0  0  0  0  0  0  0  0  0  0  0  0
   39.2990   32.1560   47.3260 C   0  0  0  0  0  0  0  0  0  0  0  0
   37.4960   33.4630   50.4270 H   0  0  0  0  0  0  0  0  0  0  0  0
   39.1510   34.8850   49.2910 H   0  0  0  0  0  0  0  0  0  0  0  0
   40.3270   34.0390   47.2720 H   0  0  0  0  0  0  0  0  0  0  0  0
   36.0840   29.3550   51.4510 C   0  0  0  0  0  0  0  0  0  0  0  0
   37.0380   30.2140   50.8640 C   0  0  0  0  0  0  0  0  0  0  0  0
   36.7410   30.9400   49.7250 C   0  0  0  0  0  0  0  0  0  0  0  0
   35.4900   30.7850   49.2030 N   0  0  0  0  0  0  0  0  0  0  0  0
   34.5850   29.9660   49.7640 C   0  0  0  0  0  0  0  0  0  0  0  0
   34.8720   29.2710   50.8570 N   0  0  0  0  0  0  0  0  0  0  0  0
   36.4380   28.8440   52.3380 H   0  0  0  0  0  0  0  0  0  0  0  0
   38.0370   30.3470   51.2690 H   0  0  0  0  0  0  0  0  0  0  0  0
   33.5810   29.8410   49.3460 H   0  0  0  0  0  0  0  0  0  0  0  0
  1  2  2  0  0  0  0
  1  3  1  0  0  0  0
  3 32  1  0  0  0  0
  4  3  1  0  0  0  0
  5 14  1  0  0  0  0
  5  6  1  0  0  0  0
  6  1  1  0  0  0  0
  7  6  2  0  0  0  0
  7 15  1  0  0  0  0
  8  7  1  0  0  0  0
  9  8  1  0  0  0  0
  9 16  1  0  0  0  0
 10  9  1  0  0  0  0
 11 10  2  0  0  0  0
 11 12  1  0  0  0  0
 12 13  1  0  0  0  0
 12  8  2  0  0  0  0
 13  5  2  0  0  0  0
 17 10  1  0  0  0  0
 18 13  1  0  0  0  0
 19 18  1  0  0  0  0
 20 19  1  0  0  0  0
 21 20  2  0  0  0  0
 22 21  1  0  0  0  0
 23 24  2  0  0  0  0
 23 21  1  0  0  0  0
 24 25  1  0  0  0  0
 25 19  2  0  0  0  0
 26 27  1  0  0  0  0
 27 28  1  0  0  0  0
 28 29  2  0  0  0  0
 28 38  1  0  0  0  0
 29 33  1  0  0  0  0
 30 34  1  0  0  0  0
 30 29  1  0  0  0  0
 31 30  2  0  0  0  0
 32 31  1  0  0  0  0
 32 27  2  0  0  0  0
 35 31  1  0  0  0  0
 36 42  1  0  0  0  0
 37 43  1  0  0  0  0
 37 36  1  0  0  0  0
 38 37  2  0  0  0  0
 39 38  1  0  0  0  0
 39 40  2  0  0  0  0
 40 41  1  0  0  0  0
 41 36  2  0  0  0  0
 44 40  1  0  0  0  0
M  END
>  <minimizedAffinity>
-7.33055639

>  <minimizedRMSD>
1.27409422

$$$$
