
 OpenBabel03262520353D

 40 42  0  0  0  0  0  0  0  0999 V2000
   30.2280   28.2380   48.1370 O   0  0  0  0  0  0  0  0  0  0  0  0
   27.9760   28.1220   48.6030 C   0  0  0  0  0  0  0  0  0  0  0  0
   29.2800   27.9170   49.0740 C   0  0  0  0  0  0  0  0  0  0  0  0
   29.5200   27.4430   50.3510 C   0  0  0  0  0  0  0  0  0  0  0  0
   28.4550   27.1690   51.1660 C   0  0  0  0  0  0  0  0  0  0  0  0
   27.1880   27.3650   50.7200 C   0  0  0  0  0  0  0  0  0  0  0  0
   26.8970   27.8330   49.4630 C   0  0  0  0  0  0  0  0  0  0  0  0
   30.5530   27.3140   50.6310 H   0  0  0  0  0  0  0  0  0  0  0  0
   28.7460   26.8030   52.1460 H   0  0  0  0  0  0  0  0  0  0  0  0
   26.3900   27.1250   51.4270 H   0  0  0  0  0  0  0  0  0  0  0  0
   25.8820   27.9870   49.1130 H   0  0  0  0  0  0  0  0  0  0  0  0
   27.5930   28.7170   47.0070 S   0  0  0  0  0  0  0  0  0  0  0  0
   28.7890   28.6470   46.1170 O   0  0  0  0  0  0  0  0  0  0  0  0
   26.4470   27.8790   46.4460 O   0  0  0  0  0  0  0  0  0  0  0  0
   26.9710   30.3340   47.0610 C   0  0  0  0  0  0  0  0  0  0  0  0
   26.5260   30.9460   48.2360 C   0  0  0  0  0  0  0  0  0  0  0  0
   26.0440   32.2490   48.1800 C   0  0  0  0  0  0  0  0  0  0  0  0
   25.6930   32.7350   49.0940 H   0  0  0  0  0  0  0  0  0  0  0  0
   26.0040   32.9210   47.0040 N   0  0  0  0  0  0  0  0  0  0  0  0
   26.4340   32.3280   45.8800 C   0  0  0  0  0  0  0  0  0  0  0  0
   26.8920   31.0840   45.9460 N   0  0  0  0  0  0  0  0  0  0  0  0
   31.7200   26.0620   48.1860 O   0  0  0  0  0  0  0  0  0  0  0  0
   31.7580   27.5720   47.9600 P   0  0  1  0  0  0  0  0  0  0  0  0
   32.4190   27.9460   46.4420 O   0  0  0  0  0  0  0  0  0  0  0  0
   32.1330   28.8800   46.2620 H   0  0  0  0  0  0  0  0  0  0  0  0
   32.8270   28.1570   49.1570 O   0  0  0  0  0  0  0  0  0  0  0  0
   34.1410   27.8250   48.7780 C   0  0  0  0  0  0  0  0  0  0  0  0
   34.0750   27.2850   47.8160 H   0  0  0  0  0  0  0  0  0  0  0  0
   34.5920   27.1150   49.5100 H   0  0  0  0  0  0  0  0  0  0  0  0
   36.1320   29.1800   49.2980 C   0  0  0  0  0  0  0  0  0  0  0  0
   35.0050   29.0230   48.6560 C   0  0  0  0  0  0  0  0  0  0  0  0
   37.4520   32.5800   49.6120 C   0  0  0  0  0  0  0  0  0  0  0  0
   38.3720   32.6340   48.5690 C   0  0  0  0  0  0  0  0  0  0  0  0
   38.5300   31.4970   47.7650 C   0  0  0  0  0  0  0  0  0  0  0  0
   37.7470   30.4250   48.0940 N   0  0  0  0  0  0  0  0  0  0  0  0
   36.8820   30.4000   49.0890 C   0  0  0  0  0  0  0  0  0  0  0  0
   36.7550   31.4930   49.8330 N   0  0  0  0  0  0  0  0  0  0  0  0
   37.2910   33.4300   50.2640 H   0  0  0  0  0  0  0  0  0  0  0  0
   38.9540   33.5340   48.3800 H   0  0  0  0  0  0  0  0  0  0  0  0
   39.2310   31.4890   46.9450 H   0  0  0  0  0  0  0  0  0  0  0  0
  1  3  1  0  0  0  0
  2  3  2  0  0  0  0
  2  7  1  0  0  0  0
  3  4  1  0  0  0  0
  4  8  1  0  0  0  0
  4  5  2  0  0  0  0
  5  9  1  0  0  0  0
  6  5  1  0  0  0  0
  6 10  1  0  0  0  0
  7  6  2  0  0  0  0
 11  7  1  0  0  0  0
 12 15  1  0  0  0  0
 12  2  1  0  0  0  0
 13 12  2  0  0  0  0
 14 12  2  0  0  0  0
 15 16  1  0  0  0  0
 17 16  2  0  0  0  0
 17 18  1  0  0  0  0
 19 17  1  0  0  0  0
 20 21  1  0  0  0  0
 20 19  2  0  0  0  0
 21 15  2  0  0  0  0
 23  1  1  0  0  0  0
 23 22  2  1  0  0  0
 23 26  1  0  0  0  0
 24 23  1  0  0  0  0
 25 24  1  0  0  0  0
 27 26  1  0  0  0  0
 27 29  1  0  0  0  0
 28 27  1  0  0  0  0
 31 27  1  0  0  0  0
 31 30  2  0  0  0  0
 32 37  1  0  0  0  0
 32 38  1  0  0  0  0
 33 32  2  0  0  0  0
 34 35  2  0  0  0  0
 34 33  1  0  0  0  0
 35 36  1  0  0  0  0
 36 30  1  0  0  0  0
 36 37  2  0  0  0  0
 39 33  1  0  0  0  0
 40 34  1  0  0  0  0
M  END
>  <minimizedAffinity>
-6.89327812

>  <minimizedRMSD>
2.34447837

$$$$
