
 OpenBabel03272507163D

 24 26  0  0  1  0  0  0  0  0999 V2000
   36.2910   30.5930   50.3810 C   0  0  1  0  0  0  0  0  0  0  0  0
   35.5650   29.3440   50.3990 C   0  0  2  0  0  0  0  0  0  0  0  0
   36.9420   29.3640   51.0170 C   0  0  0  0  0  0  0  0  0  0  0  0
   36.1070   31.4450   51.0870 H   0  0  0  0  0  0  0  0  0  0  0  0
   34.6870   29.2530   51.0700 H   0  0  0  0  0  0  0  0  0  0  0  0
   36.9370   29.3790   52.1210 H   0  0  0  0  0  0  0  0  0  0  0  0
   37.7860   28.8930   50.5230 H   0  0  0  0  0  0  0  0  0  0  0  0
   37.0240   31.0600   49.1450 C   0  0  0  0  0  0  0  0  0  0  0  0
   38.0920   31.9340   49.3510 C   0  0  0  0  0  0  0  0  0  0  0  0
   38.7300   32.3690   48.1900 C   0  0  0  0  0  0  0  0  0  0  0  0
   38.3070   31.9450   46.9510 N   0  0  0  0  0  0  0  0  0  0  0  0
   37.2640   31.0970   46.8130 C   0  0  0  0  0  0  0  0  0  0  0  0
   36.6100   30.6440   47.9220 N   0  0  0  0  0  0  0  0  0  0  0  0
   38.3950   32.2440   50.3240 H   0  0  0  0  0  0  0  0  0  0  0  0
   39.5660   33.0470   48.2810 H   0  0  0  0  0  0  0  0  0  0  0  0
   36.9210   30.7560   45.8450 H   0  0  0  0  0  0  0  0  0  0  0  0
   35.4180   28.6170   49.2080 O   0  0  0  0  0  0  0  0  0  0  0  0
   34.1860   28.0490   48.8360 C   0  0  0  0  0  0  0  0  0  0  0  0
   34.2270   27.0450   47.8680 C   0  0  0  0  0  3  0  0  0  0  0  0
   32.9600   26.5500   47.5700 C   0  0  0  0  0  0  0  0  0  0  0  0
   32.8720   25.7540   46.8190 H   0  0  0  0  0  0  0  0  0  0  0  0
   31.7970   26.9400   48.1030 N   0  0  0  0  0  0  0  0  0  0  0  0
   31.8600   27.9230   49.0360 C   0  0  0  0  0  3  0  0  0  0  0  0
   33.0340   28.4680   49.3960 N   0  0  0  0  0  0  0  0  0  0  0  0
  1  2  1  0  0  0  0
  1  3  1  0  0  0  0
  1  4  1  1  0  0  0
  2  3  1  0  0  0  0
  2  5  1  1  0  0  0
  3  6  1  0  0  0  0
  7  3  1  0  0  0  0
  8  9  1  0  0  0  0
  8  1  1  0  0  0  0
  9 14  1  0  0  0  0
 10 15  1  0  0  0  0
 10  9  2  0  0  0  0
 11 10  1  0  0  0  0
 12 11  2  0  0  0  0
 12 13  1  0  0  0  0
 13  8  2  0  0  0  0
 16 12  1  0  0  0  0
 17  2  1  0  0  0  0
 18 17  1  0  0  0  0
 18 24  1  0  0  0  0
 19 18  2  0  0  0  0
 20 19  1  0  0  0  0
 20 22  2  0  0  0  0
 21 20  1  0  0  0  0
 22 23  1  0  0  0  0
 23 24  2  0  0  0  0
M  END
>  <minimizedAffinity>
-4.681252

>  <minimizedRMSD>
1.35290384

$$$$
