
 OpenBabel03272503143D

 44 48  0  0  0  0  0  0  0  0999 V2000
   36.5040   25.6060   32.1160 C   0  0  0  0  0  0  0  0  0  0  0  0
   35.4540   26.0440   31.5420 O   0  0  0  0  0  0  0  0  0  0  0  0
   37.3720   26.5960   32.6770 N   0  0  0  0  0  0  0  0  0  0  0  0
   38.2470   26.2830   33.1510 H   0  0  0  0  0  0  0  0  0  0  0  0
   37.7300   23.7990   33.0880 C   0  0  0  0  0  0  0  0  0  0  0  0
   36.7600   24.1780   32.1710 C   0  0  0  0  0  0  0  0  0  0  0  0
   36.0950   23.2920   31.3790 C   0  0  0  0  0  0  0  0  0  0  0  0
   36.3790   21.9370   31.4710 C   0  0  0  0  0  0  0  0  0  0  0  0
   35.8990   20.8610   30.8380 N   0  0  0  0  0  0  0  0  0  0  0  0
   36.5330   19.7930   31.3210 C   0  0  0  0  0  0  0  0  0  0  0  0
   37.4190   20.2040   32.2680 N   0  0  0  0  0  0  0  0  0  0  0  0
   37.3340   21.5410   32.3720 C   0  0  0  0  0  0  0  0  0  0  0  0
   38.0360   22.4220   33.2000 C   0  0  0  0  0  0  0  0  0  0  0  0
   38.2600   24.4810   33.7170 H   0  0  0  0  0  0  0  0  0  0  0  0
   35.3440   23.6380   30.6750 H   0  0  0  0  0  0  0  0  0  0  0  0
   35.1560   20.9040   30.0990 H   0  0  0  0  0  0  0  0  0  0  0  0
   36.3250   18.7880   30.9700 H   0  0  0  0  0  0  0  0  0  0  0  0
   38.9960   22.0360   34.1070 O   0  0  0  0  0  0  0  0  0  0  0  0
   38.8270   22.4220   35.4300 C   0  0  0  0  0  0  0  0  0  0  0  0
   39.9890   22.4760   36.1860 C   0  0  0  0  0  3  0  0  0  0  0  0
   39.9060   22.8520   37.5150 C   0  0  0  0  0  0  0  0  0  0  0  0
   40.8090   22.8970   38.1130 H   0  0  0  0  0  0  0  0  0  0  0  0
   38.7170   23.1640   38.0780 N   0  0  0  0  0  0  0  0  0  0  0  0
   37.5940   23.1020   37.3150 C   0  0  0  0  0  3  0  0  0  0  0  0
   37.6570   22.7390   36.0230 N   0  0  0  0  0  0  0  0  0  0  0  0
   36.1080   27.9160   34.6960 F   0  0  0  0  0  0  0  0  0  0  0  0
   36.2600   28.5890   33.5150 C   0  0  0  0  0  0  0  0  0  0  0  0
   35.7790   29.8640   33.4110 C   0  0  0  0  0  0  0  0  0  0  0  0
   35.9630   30.4850   32.2000 C   0  0  0  0  0  0  0  0  0  0  0  0
   36.5880   29.8790   31.1490 C   0  0  0  0  0  0  0  0  0  0  0  0
   37.0640   28.5810   31.2930 C   0  0  0  0  0  0  0  0  0  0  0  0
   36.8910   27.9370   32.4990 C   0  0  0  0  0  0  0  0  0  0  0  0
   35.5880   31.5020   32.0920 H   0  0  0  0  0  0  0  0  0  0  0  0
   36.7170   30.3960   30.2070 H   0  0  0  0  0  0  0  0  0  0  0  0
   37.5670   28.0750   30.4670 H   0  0  0  0  0  0  0  0  0  0  0  0
   35.1390   31.8270   36.5800 C   0  0  0  0  0  0  0  0  0  0  0  0
   35.7980   31.2610   35.4680 C   0  0  0  0  0  0  0  0  0  0  0  0
   35.1210   30.4600   34.5670 C   0  0  0  0  0  0  0  0  0  0  0  0
   33.7950   30.2490   34.8050 N   0  0  0  0  0  0  0  0  0  0  0  0
   33.1700   30.7900   35.8650 C   0  0  0  0  0  0  0  0  0  0  0  0
   33.8220   31.5570   36.7280 N   0  0  0  0  0  0  0  0  0  0  0  0
   35.7790   32.4340   37.2100 H   0  0  0  0  0  0  0  0  0  0  0  0
   36.8540   31.4210   35.2670 H   0  0  0  0  0  0  0  0  0  0  0  0
   32.1060   30.6210   36.0570 H   0  0  0  0  0  0  0  0  0  0  0  0
  1  6  1  0  0  0  0
  1  3  1  0  0  0  0
  2  1  2  0  0  0  0
  3  4  1  0  0  0  0
  5 13  1  0  0  0  0
  5 14  1  0  0  0  0
  6  5  2  0  0  0  0
  7  8  2  0  0  0  0
  7  6  1  0  0  0  0
  8 12  1  0  0  0  0
  9 10  1  0  0  0  0
  9  8  1  0  0  0  0
 10 11  2  0  0  0  0
 11 12  1  0  0  0  0
 12 13  2  0  0  0  0
 13 18  1  0  0  0  0
 15  7  1  0  0  0  0
 16  9  1  0  0  0  0
 17 10  1  0  0  0  0
 18 19  1  0  0  0  0
 19 25  2  0  0  0  0
 19 20  1  0  0  0  0
 20 21  2  0  0  0  0
 21 23  1  0  0  0  0
 21 22  1  0  0  0  0
 24 23  2  0  0  0  0
 25 24  1  0  0  0  0
 27 26  1  0  0  0  0
 28 27  1  0  0  0  0
 28 38  1  0  0  0  0
 29 28  2  0  0  0  0
 30 31  2  0  0  0  0
 30 29  1  0  0  0  0
 31 32  1  0  0  0  0
 32  3  1  0  0  0  0
 32 27  2  0  0  0  0
 33 29  1  0  0  0  0
 34 30  1  0  0  0  0
 35 31  1  0  0  0  0
 36 41  1  0  0  0  0
 36 42  1  0  0  0  0
 37 36  2  0  0  0  0
 38 39  2  0  0  0  0
 38 37  1  0  0  0  0
 39 40  1  0  0  0  0
 40 44  1  0  0  0  0
 40 41  2  0  0  0  0
 43 37  1  0  0  0  0
M  END
>  <minimizedAffinity>
-7.15623617

$$$$

 OpenBabel03272503143D

 44 48  0  0  0  0  0  0  0  0999 V2000
   37.9380   26.3970   35.0270 C   0  0  0  0  0  0  0  0  0  0  0  0
   38.6960   26.8570   35.9420 O   0  0  0  0  0  0  0  0  0  0  0  0
   37.6880   24.9880   35.0680 N   0  0  0  0  0  0  0  0  0  0  0  0
   37.0780   24.5670   34.3340 H   0  0  0  0  0  0  0  0  0  0  0  0
   36.2850   28.0220   34.4430 C   0  0  0  0  0  0  0  0  0  0  0  0
   37.3860   27.2890   34.0230 C   0  0  0  0  0  0  0  0  0  0  0  0
   37.9160   27.3880   32.7720 C   0  0  0  0  0  0  0  0  0  0  0  0
   37.3490   28.2560   31.8500 C   0  0  0  0  0  0  0  0  0  0  0  0
   37.6450   28.5570   30.5810 N   0  0  0  0  0  0  0  0  0  0  0  0
   36.7650   29.4670   30.1670 C   0  0  0  0  0  0  0  0  0  0  0  0
   35.9080   29.7400   31.1870 N   0  0  0  0  0  0  0  0  0  0  0  0
   36.2610   28.9900   32.2450 C   0  0  0  0  0  0  0  0  0  0  0  0
   35.6910   28.9150   33.5190 C   0  0  0  0  0  0  0  0  0  0  0  0
   35.8580   27.9560   35.4200 H   0  0  0  0  0  0  0  0  0  0  0  0
   38.7780   26.7920   32.4910 H   0  0  0  0  0  0  0  0  0  0  0  0
   38.4410   28.1250   30.0510 H   0  0  0  0  0  0  0  0  0  0  0  0
   36.7870   29.8810   29.1650 H   0  0  0  0  0  0  0  0  0  0  0  0
   34.5980   29.6470   33.9260 O   0  0  0  0  0  0  0  0  0  0  0  0
   34.8010   30.6310   34.8840 C   0  0  0  0  0  0  0  0  0  0  0  0
   33.7570   30.8110   35.7810 C   0  0  0  0  0  3  0  0  0  0  0  0
   33.8810   31.7740   36.7670 C   0  0  0  0  0  0  0  0  0  0  0  0
   33.0710   31.9220   37.4700 H   0  0  0  0  0  0  0  0  0  0  0  0
   34.9960   32.5320   36.8640 N   0  0  0  0  0  0  0  0  0  0  0  0
   36.0030   32.3360   35.9730 C   0  0  0  0  0  3  0  0  0  0  0  0
   35.8990   31.4060   35.0090 N   0  0  0  0  0  0  0  0  0  0  0  0
   40.1510   23.8670   34.7670 F   0  0  0  0  0  0  0  0  0  0  0  0
   39.5730   23.7720   36.0030 C   0  0  0  0  0  0  0  0  0  0  0  0
   40.2490   23.1310   37.0040 C   0  0  0  0  0  0  0  0  0  0  0  0
   39.6150   23.0700   38.2210 C   0  0  0  0  0  0  0  0  0  0  0  0
   38.3810   23.6100   38.4370 C   0  0  0  0  0  0  0  0  0  0  0  0
   37.7250   24.2540   37.3940 C   0  0  0  0  0  0  0  0  0  0  0  0
   38.3410   24.3290   36.1640 C   0  0  0  0  0  0  0  0  0  0  0  0
   40.1330   22.5630   39.0350 H   0  0  0  0  0  0  0  0  0  0  0  0
   37.9080   23.5450   39.4090 H   0  0  0  0  0  0  0  0  0  0  0  0
   36.7380   24.6950   37.5420 H   0  0  0  0  0  0  0  0  0  0  0  0
   43.0920   20.6940   36.4690 C   0  0  0  0  0  0  0  0  0  0  0  0
   41.8100   21.2120   36.7520 C   0  0  0  0  0  0  0  0  0  0  0  0
   41.5640   22.5720   36.7150 C   0  0  0  0  0  0  0  0  0  0  0  0
   42.6140   23.3800   36.3930 N   0  0  0  0  0  0  0  0  0  0  0  0
   43.8340   22.8840   36.1250 C   0  0  0  0  0  0  0  0  0  0  0  0
   44.0670   21.5790   36.1610 N   0  0  0  0  0  0  0  0  0  0  0  0
   43.1550   19.6150   36.5320 H   0  0  0  0  0  0  0  0  0  0  0  0
   40.9650   20.5800   37.0100 H   0  0  0  0  0  0  0  0  0  0  0  0
   44.6770   23.5320   35.8660 H   0  0  0  0  0  0  0  0  0  0  0  0
  1  3  1  0  0  0  0
  1  2  2  0  0  0  0
  3 32  1  0  0  0  0
  4  3  1  0  0  0  0
  5 14  1  0  0  0  0
  6  5  1  0  0  0  0
  6  1  1  0  0  0  0
  7  6  2  0  0  0  0
  8 12  2  0  0  0  0
  8  7  1  0  0  0  0
  9  8  1  0  0  0  0
 10  9  1  0  0  0  0
 10 11  2  0  0  0  0
 11 12  1  0  0  0  0
 12 13  1  0  0  0  0
 13 18  1  0  0  0  0
 13  5  2  0  0  0  0
 15  7  1  0  0  0  0
 16  9  1  0  0  0  0
 17 10  1  0  0  0  0
 18 19  1  0  0  0  0
 19 25  2  0  0  0  0
 19 20  1  0  0  0  0
 20 21  2  0  0  0  0
 21 23  1  0  0  0  0
 21 22  1  0  0  0  0
 24 23  2  0  0  0  0
 25 24  1  0  0  0  0
 26 27  1  0  0  0  0
 27 32  2  0  0  0  0
 27 28  1  0  0  0  0
 28 29  2  0  0  0  0
 29 30  1  0  0  0  0
 29 33  1  0  0  0  0
 30 34  1  0  0  0  0
 31 35  1  0  0  0  0
 31 30  2  0  0  0  0
 32 31  1  0  0  0  0
 36 42  1  0  0  0  0
 36 37  1  0  0  0  0
 37 43  1  0  0  0  0
 38 37  2  0  0  0  0
 38 28  1  0  0  0  0
 39 38  1  0  0  0  0
 40 41  1  0  0  0  0
 40 39  2  0  0  0  0
 41 36  2  0  0  0  0
 44 40  1  0  0  0  0
M  END
>  <minimizedAffinity>
-7.10622883

$$$$

 OpenBabel03272503143D

 44 48  0  0  0  0  0  0  0  0999 V2000
   37.9800   26.4390   35.0150 C   0  0  0  0  0  0  0  0  0  0  0  0
   38.7430   26.8830   35.9330 O   0  0  0  0  0  0  0  0  0  0  0  0
   37.7030   25.0350   35.0520 N   0  0  0  0  0  0  0  0  0  0  0  0
   37.0880   24.6270   34.3160 H   0  0  0  0  0  0  0  0  0  0  0  0
   36.4750   28.2170   34.4770 C   0  0  0  0  0  0  0  0  0  0  0  0
   37.4470   27.3430   34.0120 C   0  0  0  0  0  0  0  0  0  0  0  0
   37.8760   27.3250   32.7190 C   0  0  0  0  0  0  0  0  0  0  0  0
   37.3340   28.2100   31.7990 C   0  0  0  0  0  0  0  0  0  0  0  0
   37.5530   28.4180   30.4960 N   0  0  0  0  0  0  0  0  0  0  0  0
   36.7480   29.4050   30.1050 C   0  0  0  0  0  0  0  0  0  0  0  0
   36.0160   29.8200   31.1740 N   0  0  0  0  0  0  0  0  0  0  0  0
   36.3720   29.0830   32.2390 C   0  0  0  0  0  0  0  0  0  0  0  0
   35.9080   29.1300   33.5570 C   0  0  0  0  0  0  0  0  0  0  0  0
   36.1280   28.2450   35.4870 H   0  0  0  0  0  0  0  0  0  0  0  0
   38.6400   26.6210   32.4030 H   0  0  0  0  0  0  0  0  0  0  0  0
   38.2470   27.8730   29.9290 H   0  0  0  0  0  0  0  0  0  0  0  0
   36.7310   29.7670   29.0830 H   0  0  0  0  0  0  0  0  0  0  0  0
   34.9430   30.0010   34.0090 O   0  0  0  0  0  0  0  0  0  0  0  0
   33.6300   29.5520   34.0410 C   0  0  0  0  0  0  0  0  0  0  0  0
   33.0380   29.5360   35.2960 C   0  0  0  0  0  3  0  0  0  0  0  0
   31.7290   29.1000   35.4140 C   0  0  0  0  0  0  0  0  0  0  0  0
   31.2600   29.0850   36.3900 H   0  0  0  0  0  0  0  0  0  0  0  0
   31.0310   28.6940   34.3300 N   0  0  0  0  0  0  0  0  0  0  0  0
   31.6350   28.7190   33.1120 C   0  0  0  0  0  3  0  0  0  0  0  0
   32.9040   29.1390   32.9810 N   0  0  0  0  0  0  0  0  0  0  0  0
   40.1410   23.8590   34.7540 F   0  0  0  0  0  0  0  0  0  0  0  0
   39.5600   23.7770   35.9890 C   0  0  0  0  0  0  0  0  0  0  0  0
   40.2210   23.1220   36.9900 C   0  0  0  0  0  0  0  0  0  0  0  0
   39.5850   23.0740   38.2070 C   0  0  0  0  0  0  0  0  0  0  0  0
   38.3630   23.6430   38.4220 C   0  0  0  0  0  0  0  0  0  0  0  0
   37.7230   24.3010   37.3780 C   0  0  0  0  0  0  0  0  0  0  0  0
   38.3410   24.3620   36.1490 C   0  0  0  0  0  0  0  0  0  0  0  0
   40.0910   22.5560   39.0220 H   0  0  0  0  0  0  0  0  0  0  0  0
   37.8880   23.5880   39.3930 H   0  0  0  0  0  0  0  0  0  0  0  0
   36.7450   24.7640   37.5260 H   0  0  0  0  0  0  0  0  0  0  0  0
   43.8890   22.7150   36.1620 C   0  0  0  0  0  0  0  0  0  0  0  0
   42.6380   23.3070   36.4380 C   0  0  0  0  0  0  0  0  0  0  0  0
   41.5230   22.5330   36.7030 C   0  0  0  0  0  0  0  0  0  0  0  0
   41.6930   21.1810   36.6830 N   0  0  0  0  0  0  0  0  0  0  0  0
   42.8850   20.6190   36.4200 C   0  0  0  0  0  0  0  0  0  0  0  0
   43.9530   21.3640   36.1670 N   0  0  0  0  0  0  0  0  0  0  0  0
   44.6820   23.4280   35.9720 H   0  0  0  0  0  0  0  0  0  0  0  0
   42.4890   24.3830   36.4570 H   0  0  0  0  0  0  0  0  0  0  0  0
   43.0230   19.5340   36.4050 H   0  0  0  0  0  0  0  0  0  0  0  0
  1  3  1  0  0  0  0
  1  2  2  0  0  0  0
  3 32  1  0  0  0  0
  4  3  1  0  0  0  0
  5 14  1  0  0  0  0
  6  5  1  0  0  0  0
  6  1  1  0  0  0  0
  7  6  2  0  0  0  0
  8 12  2  0  0  0  0
  8  7  1  0  0  0  0
  9  8  1  0  0  0  0
 10  9  1  0  0  0  0
 10 11  2  0  0  0  0
 11 12  1  0  0  0  0
 12 13  1  0  0  0  0
 13 18  1  0  0  0  0
 13  5  2  0  0  0  0
 15  7  1  0  0  0  0
 16  9  1  0  0  0  0
 17 10  1  0  0  0  0
 18 19  1  0  0  0  0
 19 20  1  0  0  0  0
 20 21  2  0  0  0  0
 21 22  1  0  0  0  0
 23 21  1  0  0  0  0
 24 23  2  0  0  0  0
 25 24  1  0  0  0  0
 25 19  2  0  0  0  0
 26 27  1  0  0  0  0
 27 32  2  0  0  0  0
 27 28  1  0  0  0  0
 28 29  2  0  0  0  0
 29 30  1  0  0  0  0
 29 33  1  0  0  0  0
 30 34  1  0  0  0  0
 31 35  1  0  0  0  0
 31 30  2  0  0  0  0
 32 31  1  0  0  0  0
 36 41  2  0  0  0  0
 36 37  1  0  0  0  0
 37 43  1  0  0  0  0
 37 38  2  0  0  0  0
 38 28  1  0  0  0  0
 39 38  1  0  0  0  0
 40 39  2  0  0  0  0
 41 40  1  0  0  0  0
 42 36  1  0  0  0  0
 44 40  1  0  0  0  0
M  END
>  <minimizedAffinity>
-7.10325623

$$$$

 OpenBabel03272503143D

 44 48  0  0  0  0  0  0  0  0999 V2000
   36.7830   26.6510   32.3920 C   0  0  0  0  0  0  0  0  0  0  0  0
   37.7090   27.3610   32.9020 O   0  0  0  0  0  0  0  0  0  0  0  0
   35.6900   27.3680   31.8070 N   0  0  0  0  0  0  0  0  0  0  0  0
   34.9070   26.8270   31.3830 H   0  0  0  0  0  0  0  0  0  0  0  0
   37.8810   24.7050   33.2410 C   0  0  0  0  0  0  0  0  0  0  0  0
   36.8750   25.2020   32.4260 C   0  0  0  0  0  0  0  0  0  0  0  0
   36.0330   24.4060   31.7090 C   0  0  0  0  0  0  0  0  0  0  0  0
   36.1640   23.0270   31.7770 C   0  0  0  0  0  0  0  0  0  0  0  0
   35.5000   22.0190   31.2010 N   0  0  0  0  0  0  0  0  0  0  0  0
   36.0500   20.8810   31.6220 C   0  0  0  0  0  0  0  0  0  0  0  0
   37.0700   21.1780   32.4720 N   0  0  0  0  0  0  0  0  0  0  0  0
   37.1530   22.5150   32.5780 C   0  0  0  0  0  0  0  0  0  0  0  0
   38.0340   23.3010   33.3270 C   0  0  0  0  0  0  0  0  0  0  0  0
   38.5490   25.3150   33.8100 H   0  0  0  0  0  0  0  0  0  0  0  0
   35.2610   24.8430   31.0840 H   0  0  0  0  0  0  0  0  0  0  0  0
   34.6960   22.1550   30.5410 H   0  0  0  0  0  0  0  0  0  0  0  0
   35.6920   19.9100   31.2980 H   0  0  0  0  0  0  0  0  0  0  0  0
   39.0290   22.7980   34.1340 O   0  0  0  0  0  0  0  0  0  0  0  0
   38.8760   22.9300   35.5070 C   0  0  0  0  0  0  0  0  0  0  0  0
   40.0210   22.7020   36.2570 C   0  0  0  0  0  3  0  0  0  0  0  0
   39.9530   22.8140   37.6350 C   0  0  0  0  0  0  0  0  0  0  0  0
   40.8410   22.6370   38.2280 H   0  0  0  0  0  0  0  0  0  0  0  0
   38.7940   23.1400   38.2500 N   0  0  0  0  0  0  0  0  0  0  0  0
   37.6870   23.3580   37.4920 C   0  0  0  0  0  3  0  0  0  0  0  0
   37.7360   23.2530   36.1530 N   0  0  0  0  0  0  0  0  0  0  0  0
   34.7980   28.7490   33.9780 F   0  0  0  0  0  0  0  0  0  0  0  0
   35.3900   29.4750   32.9820 C   0  0  0  0  0  0  0  0  0  0  0  0
   35.5010   30.8300   33.1250 C   0  0  0  0  0  0  0  0  0  0  0  0
   36.1060   31.5010   32.0910 C   0  0  0  0  0  0  0  0  0  0  0  0
   36.5740   30.8690   30.9760 C   0  0  0  0  0  0  0  0  0  0  0  0
   36.4430   29.4900   30.8670 C   0  0  0  0  0  0  0  0  0  0  0  0
   35.8400   28.7940   31.8920 C   0  0  0  0  0  0  0  0  0  0  0  0
   36.2060   32.5830   32.1810 H   0  0  0  0  0  0  0  0  0  0  0  0
   37.0460   31.4280   30.1780 H   0  0  0  0  0  0  0  0  0  0  0  0
   36.8100   28.9610   29.9850 H   0  0  0  0  0  0  0  0  0  0  0  0
   35.2320   32.2130   36.6360 C   0  0  0  0  0  0  0  0  0  0  0  0
   35.7560   31.6080   35.4730 C   0  0  0  0  0  0  0  0  0  0  0  0
   34.9830   31.4510   34.3380 C   0  0  0  0  0  0  0  0  0  0  0  0
   33.6990   31.9070   34.3990 N   0  0  0  0  0  0  0  0  0  0  0  0
   33.2020   32.4810   35.5070 C   0  0  0  0  0  0  0  0  0  0  0  0
   33.9470   32.6310   36.5940 N   0  0  0  0  0  0  0  0  0  0  0  0
   35.9370   32.2770   37.4550 H   0  0  0  0  0  0  0  0  0  0  0  0
   36.7770   31.2410   35.4110 H   0  0  0  0  0  0  0  0  0  0  0  0
   32.1720   32.8470   35.5570 H   0  0  0  0  0  0  0  0  0  0  0  0
  1  6  1  0  0  0  0
  1  2  2  0  0  0  0
  3 32  1  0  0  0  0
  3  1  1  0  0  0  0
  4  3  1  0  0  0  0
  5 13  1  0  0  0  0
  5 14  1  0  0  0  0
  6  5  2  0  0  0  0
  7  8  2  0  0  0  0
  7  6  1  0  0  0  0
  8 12  1  0  0  0  0
  9 10  1  0  0  0  0
  9  8  1  0  0  0  0
 10 11  2  0  0  0  0
 11 12  1  0  0  0  0
 12 13  2  0  0  0  0
 13 18  1  0  0  0  0
 15  7  1  0  0  0  0
 16  9  1  0  0  0  0
 17 10  1  0  0  0  0
 18 19  1  0  0  0  0
 19 25  2  0  0  0  0
 19 20  1  0  0  0  0
 20 21  2  0  0  0  0
 21 22  1  0  0  0  0
 21 23  1  0  0  0  0
 24 23  2  0  0  0  0
 25 24  1  0  0  0  0
 27 28  1  0  0  0  0
 27 26  1  0  0  0  0
 28 38  1  0  0  0  0
 29 33  1  0  0  0  0
 29 28  2  0  0  0  0
 30 29  1  0  0  0  0
 31 30  2  0  0  0  0
 31 32  1  0  0  0  0
 32 27  2  0  0  0  0
 34 30  1  0  0  0  0
 35 31  1  0  0  0  0
 36 42  1  0  0  0  0
 37 36  2  0  0  0  0
 38 39  2  0  0  0  0
 38 37  1  0  0  0  0
 39 40  1  0  0  0  0
 40 44  1  0  0  0  0
 40 41  2  0  0  0  0
 41 36  1  0  0  0  0
 43 37  1  0  0  0  0
M  END
>  <minimizedAffinity>
-6.77953577

$$$$

 OpenBabel03272503143D

 44 48  0  0  0  0  0  0  0  0999 V2000
   36.7400   27.1000   31.5790 C   0  0  0  0  0  0  0  0  0  0  0  0
   37.3980   26.7060   32.5960 O   0  0  0  0  0  0  0  0  0  0  0  0
   36.7030   26.2000   30.4670 N   0  0  0  0  0  0  0  0  0  0  0  0
   36.1810   26.4840   29.6110 H   0  0  0  0  0  0  0  0  0  0  0  0
   35.1910   28.5800   32.6410 C   0  0  0  0  0  0  0  0  0  0  0  0
   36.0840   28.3950   31.5950 C   0  0  0  0  0  0  0  0  0  0  0  0
   36.3340   29.3450   30.6510 C   0  0  0  0  0  0  0  0  0  0  0  0
   35.6790   30.5660   30.7120 C   0  0  0  0  0  0  0  0  0  0  0  0
   35.7210   31.6620   29.9450 N   0  0  0  0  0  0  0  0  0  0  0  0
   34.8780   32.5520   30.4670 C   0  0  0  0  0  0  0  0  0  0  0  0
   34.3020   32.0090   31.5730 N   0  0  0  0  0  0  0  0  0  0  0  0
   34.7930   30.7690   31.7390 C   0  0  0  0  0  0  0  0  0  0  0  0
   34.5120   29.8180   32.7240 C   0  0  0  0  0  0  0  0  0  0  0  0
   34.9850   27.8460   33.3890 H   0  0  0  0  0  0  0  0  0  0  0  0
   37.0410   29.1530   29.8510 H   0  0  0  0  0  0  0  0  0  0  0  0
   36.3260   31.7520   29.0930 H   0  0  0  0  0  0  0  0  0  0  0  0
   34.7250   33.5320   30.0290 H   0  0  0  0  0  0  0  0  0  0  0  0
   33.6250   30.0110   33.7580 O   0  0  0  0  0  0  0  0  0  0  0  0
   34.0720   30.7090   34.8710 C   0  0  0  0  0  0  0  0  0  0  0  0
   33.1110   30.9600   35.8410 C   0  0  0  0  0  3  0  0  0  0  0  0
   33.4770   31.6520   36.9820 C   0  0  0  0  0  0  0  0  0  0  0  0
   32.7330   31.8520   37.7440 H   0  0  0  0  0  0  0  0  0  0  0  0
   34.7470   32.0800   37.1600 N   0  0  0  0  0  0  0  0  0  0  0  0
   35.6680   31.8210   36.1950 C   0  0  0  0  0  3  0  0  0  0  0  0
   35.3300   31.1520   35.0810 N   0  0  0  0  0  0  0  0  0  0  0  0
   35.4440   23.9940   31.4500 F   0  0  0  0  0  0  0  0  0  0  0  0
   36.7830   23.8810   31.1950 C   0  0  0  0  0  0  0  0  0  0  0  0
   37.4080   22.6910   31.4430 C   0  0  0  0  0  0  0  0  0  0  0  0
   38.7530   22.6430   31.1660 C   0  0  0  0  0  0  0  0  0  0  0  0
   39.4420   23.7120   30.6730 C   0  0  0  0  0  0  0  0  0  0  0  0
   38.7710   24.9070   30.4350 C   0  0  0  0  0  0  0  0  0  0  0  0
   37.4220   24.9790   30.7040 C   0  0  0  0  0  0  0  0  0  0  0  0
   39.2740   21.7050   31.3560 H   0  0  0  0  0  0  0  0  0  0  0  0
   40.5020   23.6420   30.4660 H   0  0  0  0  0  0  0  0  0  0  0  0
   39.3010   25.7760   30.0400 H   0  0  0  0  0  0  0  0  0  0  0  0
   35.3240   19.5440   31.6840 C   0  0  0  0  0  0  0  0  0  0  0  0
   36.0830   20.6080   31.1500 C   0  0  0  0  0  0  0  0  0  0  0  0
   36.6210   21.5830   31.9700 C   0  0  0  0  0  0  0  0  0  0  0  0
   36.3840   21.4650   33.3070 N   0  0  0  0  0  0  0  0  0  0  0  0
   35.6610   20.4510   33.8120 C   0  0  0  0  0  0  0  0  0  0  0  0
   35.1450   19.5170   33.0240 N   0  0  0  0  0  0  0  0  0  0  0  0
   34.9580   18.8470   30.9400 H   0  0  0  0  0  0  0  0  0  0  0  0
   36.2790   20.7140   30.0870 H   0  0  0  0  0  0  0  0  0  0  0  0
   35.4700   20.3550   34.8850 H   0  0  0  0  0  0  0  0  0  0  0  0
  1  6  1  0  0  0  0
  1  2  2  0  0  0  0
  3 32  1  0  0  0  0
  3  1  1  0  0  0  0
  4  3  1  0  0  0  0
  5 13  1  0  0  0  0
  5 14  1  0  0  0  0
  6  5  2  0  0  0  0
  7  8  2  0  0  0  0
  7  6  1  0  0  0  0
  8 12  1  0  0  0  0
  9 10  1  0  0  0  0
  9  8  1  0  0  0  0
 10 11  2  0  0  0  0
 11 12  1  0  0  0  0
 12 13  2  0  0  0  0
 13 18  1  0  0  0  0
 15  7  1  0  0  0  0
 16  9  1  0  0  0  0
 17 10  1  0  0  0  0
 18 19  1  0  0  0  0
 19 25  2  0  0  0  0
 19 20  1  0  0  0  0
 20 21  2  0  0  0  0
 21 23  1  0  0  0  0
 21 22  1  0  0  0  0
 24 23  2  0  0  0  0
 25 24  1  0  0  0  0
 27 28  1  0  0  0  0
 27 26  1  0  0  0  0
 28 38  1  0  0  0  0
 29 33  1  0  0  0  0
 29 28  2  0  0  0  0
 30 29  1  0  0  0  0
 31 30  2  0  0  0  0
 31 32  1  0  0  0  0
 32 27  2  0  0  0  0
 34 30  1  0  0  0  0
 35 31  1  0  0  0  0
 36 41  1  0  0  0  0
 37 36  2  0  0  0  0
 37 38  1  0  0  0  0
 38 39  2  0  0  0  0
 39 40  1  0  0  0  0
 40 44  1  0  0  0  0
 41 40  2  0  0  0  0
 42 36  1  0  0  0  0
 43 37  1  0  0  0  0
M  END
>  <minimizedAffinity>
-6.45690298

$$$$

 OpenBabel03272503143D

 44 48  0  0  0  0  0  0  0  0999 V2000
   36.3280   26.1690   31.8620 C   0  0  0  0  0  0  0  0  0  0  0  0
   35.2310   26.6240   31.4010 O   0  0  0  0  0  0  0  0  0  0  0  0
   37.2160   27.1340   32.4370 N   0  0  0  0  0  0  0  0  0  0  0  0
   38.1280   26.8070   32.8200 H   0  0  0  0  0  0  0  0  0  0  0  0
   37.9050   24.3980   32.1570 C   0  0  0  0  0  0  0  0  0  0  0  0
   36.6150   24.7480   31.7860 C   0  0  0  0  0  0  0  0  0  0  0  0
   35.6830   23.8410   31.3800 C   0  0  0  0  0  0  0  0  0  0  0  0
   36.0100   22.4950   31.3240 C   0  0  0  0  0  0  0  0  0  0  0  0
   35.3200   21.4030   30.9740 N   0  0  0  0  0  0  0  0  0  0  0  0
   36.1300   20.3540   31.1080 C   0  0  0  0  0  0  0  0  0  0  0  0
   37.3410   20.7920   31.5480 N   0  0  0  0  0  0  0  0  0  0  0  0
   37.2800   22.1270   31.6870 C   0  0  0  0  0  0  0  0  0  0  0  0
   38.2620   23.0290   32.1080 C   0  0  0  0  0  0  0  0  0  0  0  0
   38.6480   25.0960   32.4780 H   0  0  0  0  0  0  0  0  0  0  0  0
   34.6860   24.1650   31.0990 H   0  0  0  0  0  0  0  0  0  0  0  0
   34.3210   21.4250   30.6570 H   0  0  0  0  0  0  0  0  0  0  0  0
   35.8090   19.3420   30.8850 H   0  0  0  0  0  0  0  0  0  0  0  0
   39.5390   22.6710   32.4750 O   0  0  0  0  0  0  0  0  0  0  0  0
   39.9120   22.8710   33.7970 C   0  0  0  0  0  0  0  0  0  0  0  0
   39.2060   22.1270   34.7320 C   0  0  0  0  0  3  0  0  0  0  0  0
   39.5170   22.2690   36.0730 C   0  0  0  0  0  0  0  0  0  0  0  0
   38.9700   21.6920   36.8090 H   0  0  0  0  0  0  0  0  0  0  0  0
   40.4910   23.1150   36.4760 N   0  0  0  0  0  0  0  0  0  0  0  0
   41.1670   23.8320   35.5400 C   0  0  0  0  0  3  0  0  0  0  0  0
   40.8770   23.7070   34.2340 N   0  0  0  0  0  0  0  0  0  0  0  0
   35.9480   28.2100   34.5930 F   0  0  0  0  0  0  0  0  0  0  0  0
   36.0640   29.0010   33.4840 C   0  0  0  0  0  0  0  0  0  0  0  0
   35.5480   30.2670   33.5150 C   0  0  0  0  0  0  0  0  0  0  0  0
   35.6980   31.0110   32.3700 C   0  0  0  0  0  0  0  0  0  0  0  0
   36.3230   30.5310   31.2560 C   0  0  0  0  0  0  0  0  0  0  0  0
   36.8350   29.2380   31.2630 C   0  0  0  0  0  0  0  0  0  0  0  0
   36.6970   28.4730   32.4000 C   0  0  0  0  0  0  0  0  0  0  0  0
   35.2950   32.0230   32.3690 H   0  0  0  0  0  0  0  0  0  0  0  0
   36.4250   31.1430   30.3690 H   0  0  0  0  0  0  0  0  0  0  0  0
   37.3390   28.8320   30.3840 H   0  0  0  0  0  0  0  0  0  0  0  0
   32.9580   30.8770   36.2030 C   0  0  0  0  0  0  0  0  0  0  0  0
   33.5730   30.4200   35.0180 C   0  0  0  0  0  0  0  0  0  0  0  0
   34.8910   30.7260   34.7320 C   0  0  0  0  0  0  0  0  0  0  0  0
   35.5600   31.4840   35.6470 N   0  0  0  0  0  0  0  0  0  0  0  0
   34.9720   31.9180   36.7750 C   0  0  0  0  0  0  0  0  0  0  0  0
   33.7080   31.6220   37.0460 N   0  0  0  0  0  0  0  0  0  0  0  0
   31.9250   30.5700   36.3100 H   0  0  0  0  0  0  0  0  0  0  0  0
   33.0520   29.8160   34.2800 H   0  0  0  0  0  0  0  0  0  0  0  0
   35.5080   32.5260   37.5090 H   0  0  0  0  0  0  0  0  0  0  0  0
  1  3  1  0  0  0  0
  2  1  2  0  0  0  0
  3  4  1  0  0  0  0
  5 14  1  0  0  0  0
  6  1  1  0  0  0  0
  6  5  2  0  0  0  0
  7  6  1  0  0  0  0
  8  7  2  0  0  0  0
  8 12  1  0  0  0  0
  9 10  1  0  0  0  0
  9  8  1  0  0  0  0
 10 11  2  0  0  0  0
 11 12  1  0  0  0  0
 12 13  2  0  0  0  0
 13  5  1  0  0  0  0
 13 18  1  0  0  0  0
 15  7  1  0  0  0  0
 16  9  1  0  0  0  0
 17 10  1  0  0  0  0
 18 19  1  0  0  0  0
 19 25  2  0  0  0  0
 19 20  1  0  0  0  0
 20 21  2  0  0  0  0
 21 23  1  0  0  0  0
 21 22  1  0  0  0  0
 24 23  2  0  0  0  0
 25 24  1  0  0  0  0
 27 28  1  0  0  0  0
 27 26  1  0  0  0  0
 28 38  1  0  0  0  0
 29 28  2  0  0  0  0
 30 31  2  0  0  0  0
 30 29  1  0  0  0  0
 31 32  1  0  0  0  0
 32  3  1  0  0  0  0
 32 27  2  0  0  0  0
 33 29  1  0  0  0  0
 34 30  1  0  0  0  0
 35 31  1  0  0  0  0
 36 42  1  0  0  0  0
 36 41  1  0  0  0  0
 37 36  2  0  0  0  0
 38 37  1  0  0  0  0
 38 39  2  0  0  0  0
 39 40  1  0  0  0  0
 40 41  2  0  0  0  0
 40 44  1  0  0  0  0
 43 37  1  0  0  0  0
M  END
>  <minimizedAffinity>
-6.38919735

$$$$

 OpenBabel03272503143D

 44 48  0  0  0  0  0  0  0  0999 V2000
   37.0160   27.4470   33.9430 C   0  0  0  0  0  0  0  0  0  0  0  0
   37.5920   27.9870   32.9430 O   0  0  0  0  0  0  0  0  0  0  0  0
   35.9150   28.1730   34.5010 N   0  0  0  0  0  0  0  0  0  0  0  0
   35.4180   27.7720   35.3240 H   0  0  0  0  0  0  0  0  0  0  0  0
   37.6170   25.1790   33.4890 C   0  0  0  0  0  0  0  0  0  0  0  0
   37.4850   26.1700   34.4500 C   0  0  0  0  0  0  0  0  0  0  0  0
   37.7680   25.9740   35.7680 C   0  0  0  0  0  0  0  0  0  0  0  0
   38.2120   24.7340   36.2010 C   0  0  0  0  0  0  0  0  0  0  0  0
   38.5600   24.2580   37.4020 N   0  0  0  0  0  0  0  0  0  0  0  0
   38.9140   22.9840   37.2440 C   0  0  0  0  0  0  0  0  0  0  0  0
   38.7880   22.6560   35.9290 N   0  0  0  0  0  0  0  0  0  0  0  0
   38.3500   23.7400   35.2660 C   0  0  0  0  0  0  0  0  0  0  0  0
   38.0690   23.9040   33.9060 C   0  0  0  0  0  0  0  0  0  0  0  0
   37.3990   25.3160   32.4520 H   0  0  0  0  0  0  0  0  0  0  0  0
   37.6480   26.7820   36.4830 H   0  0  0  0  0  0  0  0  0  0  0  0
   38.5390   24.8290   38.2810 H   0  0  0  0  0  0  0  0  0  0  0  0
   39.2400   22.3660   38.0730 H   0  0  0  0  0  0  0  0  0  0  0  0
   38.2040   22.9140   32.9600 O   0  0  0  0  0  0  0  0  0  0  0  0
   37.1040   22.1050   32.7110 C   0  0  0  0  0  0  0  0  0  0  0  0
   36.5660   22.2100   31.4360 C   0  0  0  0  0  3  0  0  0  0  0  0
   35.4670   21.4360   31.1070 C   0  0  0  0  0  0  0  0  0  0  0  0
   35.0410   21.5120   30.1140 H   0  0  0  0  0  0  0  0  0  0  0  0
   34.9190   20.5880   32.0060 N   0  0  0  0  0  0  0  0  0  0  0  0
   35.4650   20.5050   33.2480 C   0  0  0  0  0  3  0  0  0  0  0  0
   36.5310   21.2490   33.5830 N   0  0  0  0  0  0  0  0  0  0  0  0
   36.3310   30.5780   35.7080 F   0  0  0  0  0  0  0  0  0  0  0  0
   35.8550   30.6020   34.4260 C   0  0  0  0  0  0  0  0  0  0  0  0
   35.6160   31.8080   33.8290 C   0  0  0  0  0  0  0  0  0  0  0  0
   35.1390   31.7640   32.5420 C   0  0  0  0  0  0  0  0  0  0  0  0
   34.9090   30.5930   31.8810 C   0  0  0  0  0  0  0  0  0  0  0  0
   35.1640   29.3860   32.5220 C   0  0  0  0  0  0  0  0  0  0  0  0
   35.6430   29.4040   33.8140 C   0  0  0  0  0  0  0  0  0  0  0  0
   34.9400   32.7130   32.0440 H   0  0  0  0  0  0  0  0  0  0  0  0
   34.5320   30.5920   30.8670 H   0  0  0  0  0  0  0  0  0  0  0  0
   34.9880   28.4350   32.0150 H   0  0  0  0  0  0  0  0  0  0  0  0
   37.3510   34.8210   35.3200 C   0  0  0  0  0  0  0  0  0  0  0  0
   37.1200   33.6410   34.5810 C   0  0  0  0  0  0  0  0  0  0  0  0
   35.8800   33.0270   34.5830 C   0  0  0  0  0  0  0  0  0  0  0  0
   34.9020   33.6170   35.3280 N   0  0  0  0  0  0  0  0  0  0  0  0
   35.1250   34.7410   36.0310 C   0  0  0  0  0  0  0  0  0  0  0  0
   36.3150   35.3270   36.0270 N   0  0  0  0  0  0  0  0  0  0  0  0
   38.3610   35.2020   35.2360 H   0  0  0  0  0  0  0  0  0  0  0  0
   37.8890   33.1610   33.9840 H   0  0  0  0  0  0  0  0  0  0  0  0
   34.3410   35.2150   36.6280 H   0  0  0  0  0  0  0  0  0  0  0  0
  1  6  1  0  0  0  0
  1  3  1  0  0  0  0
  2  1  2  0  0  0  0
  3  4  1  0  0  0  0
  5 13  2  0  0  0  0
  5  6  1  0  0  0  0
  6  7  2  0  0  0  0
  7  8  1  0  0  0  0
  7 15  1  0  0  0  0
  8  9  1  0  0  0  0
  9 16  1  0  0  0  0
 10  9  1  0  0  0  0
 10 17  1  0  0  0  0
 11 10  2  0  0  0  0
 12 11  1  0  0  0  0
 12  8  2  0  0  0  0
 13 12  1  0  0  0  0
 14  5  1  0  0  0  0
 18 13  1  0  0  0  0
 19 18  1  0  0  0  0
 19 25  1  0  0  0  0
 20 19  2  0  0  0  0
 21 20  1  0  0  0  0
 21 23  2  0  0  0  0
 22 21  1  0  0  0  0
 23 24  1  0  0  0  0
 24 25  2  0  0  0  0
 27 26  1  0  0  0  0
 28 27  1  0  0  0  0
 28 38  1  0  0  0  0
 29 28  2  0  0  0  0
 30 31  2  0  0  0  0
 30 29  1  0  0  0  0
 31 32  1  0  0  0  0
 32 27  2  0  0  0  0
 32  3  1  0  0  0  0
 33 29  1  0  0  0  0
 34 30  1  0  0  0  0
 35 31  1  0  0  0  0
 36 41  1  0  0  0  0
 37 38  1  0  0  0  0
 37 36  2  0  0  0  0
 38 39  2  0  0  0  0
 39 40  1  0  0  0  0
 40 44  1  0  0  0  0
 41 40  2  0  0  0  0
 42 36  1  0  0  0  0
 43 37  1  0  0  0  0
M  END
>  <minimizedAffinity>
-6.34764481

$$$$

 OpenBabel03272503143D

 44 48  0  0  0  0  0  0  0  0999 V2000
   36.8560   26.4540   32.1560 C   0  0  0  0  0  0  0  0  0  0  0  0
   37.8160   27.1600   32.6070 O   0  0  0  0  0  0  0  0  0  0  0  0
   35.7810   27.1730   31.5420 N   0  0  0  0  0  0  0  0  0  0  0  0
   34.9720   26.6360   31.1650 H   0  0  0  0  0  0  0  0  0  0  0  0
   37.8980   24.5260   33.1120 C   0  0  0  0  0  0  0  0  0  0  0  0
   36.8960   25.0080   32.2830 C   0  0  0  0  0  0  0  0  0  0  0  0
   36.0130   24.1990   31.6320 C   0  0  0  0  0  0  0  0  0  0  0  0
   36.0940   22.8240   31.7870 C   0  0  0  0  0  0  0  0  0  0  0  0
   35.3840   21.8070   31.2870 N   0  0  0  0  0  0  0  0  0  0  0  0
   35.8990   20.6780   31.7720 C   0  0  0  0  0  0  0  0  0  0  0  0
   36.9440   20.9900   32.5850 N   0  0  0  0  0  0  0  0  0  0  0  0
   37.0780   22.3270   32.6040 C   0  0  0  0  0  0  0  0  0  0  0  0
   38.0000   23.1260   33.2860 C   0  0  0  0  0  0  0  0  0  0  0  0
   38.5970   25.1460   33.6300 H   0  0  0  0  0  0  0  0  0  0  0  0
   35.2460   24.6250   30.9920 H   0  0  0  0  0  0  0  0  0  0  0  0
   34.5730   21.9300   30.6330 H   0  0  0  0  0  0  0  0  0  0  0  0
   35.5000   19.7030   31.5170 H   0  0  0  0  0  0  0  0  0  0  0  0
   38.9910   22.6380   34.1080 O   0  0  0  0  0  0  0  0  0  0  0  0
   38.8480   22.8290   35.4750 C   0  0  0  0  0  0  0  0  0  0  0  0
   40.0070   22.6700   36.2220 C   0  0  0  0  0  3  0  0  0  0  0  0
   39.9490   22.8430   37.5940 C   0  0  0  0  0  0  0  0  0  0  0  0
   40.8480   22.7210   38.1840 H   0  0  0  0  0  0  0  0  0  0  0  0
   38.7870   23.1620   38.2060 N   0  0  0  0  0  0  0  0  0  0  0  0
   37.6660   23.3120   37.4520 C   0  0  0  0  0  3  0  0  0  0  0  0
   37.7050   23.1470   36.1200 N   0  0  0  0  0  0  0  0  0  0  0  0
   37.1070   28.3910   29.4980 F   0  0  0  0  0  0  0  0  0  0  0  0
   36.6490   29.1940   30.5060 C   0  0  0  0  0  0  0  0  0  0  0  0
   36.8750   30.5400   30.4370 C   0  0  0  0  0  0  0  0  0  0  0  0
   36.3900   31.2910   31.4790 C   0  0  0  0  0  0  0  0  0  0  0  0
   35.7180   30.7430   32.5320 C   0  0  0  0  0  0  0  0  0  0  0  0
   35.5070   29.3690   32.5670 C   0  0  0  0  0  0  0  0  0  0  0  0
   35.9840   28.5940   31.5330 C   0  0  0  0  0  0  0  0  0  0  0  0
   36.5580   32.3680   31.4470 H   0  0  0  0  0  0  0  0  0  0  0  0
   35.3480   31.3630   33.3380 H   0  0  0  0  0  0  0  0  0  0  0  0
   34.9720   28.9070   33.3990 H   0  0  0  0  0  0  0  0  0  0  0  0
   37.6860   32.2660   27.1690 C   0  0  0  0  0  0  0  0  0  0  0  0
   36.9630   31.7620   28.2730 C   0  0  0  0  0  0  0  0  0  0  0  0
   37.5990   31.0700   29.2880 C   0  0  0  0  0  0  0  0  0  0  0  0
   38.9470   30.9030   29.1690 N   0  0  0  0  0  0  0  0  0  0  0  0
   39.6320   31.3830   28.1170 C   0  0  0  0  0  0  0  0  0  0  0  0
   39.0190   32.0460   27.1460 N   0  0  0  0  0  0  0  0  0  0  0  0
   37.0740   32.7880   26.4440 H   0  0  0  0  0  0  0  0  0  0  0  0
   35.8900   31.8880   28.3790 H   0  0  0  0  0  0  0  0  0  0  0  0
   40.7130   31.2490   28.0220 H   0  0  0  0  0  0  0  0  0  0  0  0
  1  6  1  0  0  0  0
  1  2  2  0  0  0  0
  3  1  1  0  0  0  0
  4  3  1  0  0  0  0
  5 13  1  0  0  0  0
  5 14  1  0  0  0  0
  6  5  2  0  0  0  0
  7  8  2  0  0  0  0
  7  6  1  0  0  0  0
  8 12  1  0  0  0  0
  9 10  1  0  0  0  0
  9  8  1  0  0  0  0
 10 11  2  0  0  0  0
 11 12  1  0  0  0  0
 12 13  2  0  0  0  0
 13 18  1  0  0  0  0
 15  7  1  0  0  0  0
 16  9  1  0  0  0  0
 17 10  1  0  0  0  0
 18 19  1  0  0  0  0
 19 25  2  0  0  0  0
 19 20  1  0  0  0  0
 20 21  2  0  0  0  0
 21 22  1  0  0  0  0
 21 23  1  0  0  0  0
 24 23  2  0  0  0  0
 25 24  1  0  0  0  0
 26 27  1  0  0  0  0
 27 32  1  0  0  0  0
 28 27  2  0  0  0  0
 28 29  1  0  0  0  0
 29 30  2  0  0  0  0
 30 31  1  0  0  0  0
 30 34  1  0  0  0  0
 31 35  1  0  0  0  0
 32  3  1  0  0  0  0
 32 31  2  0  0  0  0
 33 29  1  0  0  0  0
 36 37  1  0  0  0  0
 37 43  1  0  0  0  0
 37 38  2  0  0  0  0
 38 28  1  0  0  0  0
 39 38  1  0  0  0  0
 40 39  2  0  0  0  0
 41 36  2  0  0  0  0
 41 40  1  0  0  0  0
 42 36  1  0  0  0  0
 44 40  1  0  0  0  0
M  END
>  <minimizedAffinity>
-6.20861626

$$$$

 OpenBabel03272503143D

 44 48  0  0  0  0  0  0  0  0999 V2000
   36.5120   28.1670   33.4820 C   0  0  0  0  0  0  0  0  0  0  0  0
   36.4600   27.8580   34.7170 O   0  0  0  0  0  0  0  0  0  0  0  0
   35.8880   29.4030   33.1170 N   0  0  0  0  0  0  0  0  0  0  0  0
   35.9010   29.6930   32.1160 H   0  0  0  0  0  0  0  0  0  0  0  0
   36.4600   26.1430   32.2130 C   0  0  0  0  0  0  0  0  0  0  0  0
   37.1760   27.2850   32.5390 C   0  0  0  0  0  0  0  0  0  0  0  0
   38.4050   27.5690   32.0240 C   0  0  0  0  0  0  0  0  0  0  0  0
   38.9950   26.6920   31.1270 C   0  0  0  0  0  0  0  0  0  0  0  0
   40.1620   26.7050   30.4730 N   0  0  0  0  0  0  0  0  0  0  0  0
   40.2220   25.6000   29.7310 C   0  0  0  0  0  0  0  0  0  0  0  0
   39.0790   24.8860   29.9210 N   0  0  0  0  0  0  0  0  0  0  0  0
   38.3040   25.5560   30.7900 C   0  0  0  0  0  0  0  0  0  0  0  0
   37.0420   25.2330   31.2980 C   0  0  0  0  0  0  0  0  0  0  0  0
   35.4960   25.9060   32.6070 H   0  0  0  0  0  0  0  0  0  0  0  0
   38.9260   28.4770   32.3110 H   0  0  0  0  0  0  0  0  0  0  0  0
   40.8710   27.4730   30.5650 H   0  0  0  0  0  0  0  0  0  0  0  0
   41.0740   25.3710   29.1010 H   0  0  0  0  0  0  0  0  0  0  0  0
   36.3400   24.0970   30.9670 O   0  0  0  0  0  0  0  0  0  0  0  0
   36.3860   23.0280   31.8520 C   0  0  0  0  0  0  0  0  0  0  0  0
   35.3320   22.1310   31.7560 C   0  0  0  0  0  3  0  0  0  0  0  0
   35.3030   21.0370   32.6040 C   0  0  0  0  0  0  0  0  0  0  0  0
   34.4840   20.3330   32.5360 H   0  0  0  0  0  0  0  0  0  0  0  0
   36.2820   20.8370   33.5140 N   0  0  0  0  0  0  0  0  0  0  0  0
   37.3040   21.7310   33.5880 C   0  0  0  0  0  3  0  0  0  0  0  0
   37.3460   22.7980   32.7730 N   0  0  0  0  0  0  0  0  0  0  0  0
   33.2860   29.0120   33.8200 F   0  0  0  0  0  0  0  0  0  0  0  0
   34.0070   29.8930   34.5770 C   0  0  0  0  0  0  0  0  0  0  0  0
   33.3960   30.5200   35.6270 C   0  0  0  0  0  0  0  0  0  0  0  0
   34.1740   31.3930   36.3480 C   0  0  0  0  0  0  0  0  0  0  0  0
   35.4830   31.6340   36.0480 C   0  0  0  0  0  0  0  0  0  0  0  0
   36.0690   30.9770   34.9720 C   0  0  0  0  0  0  0  0  0  0  0  0
   35.3090   30.0960   34.2340 C   0  0  0  0  0  0  0  0  0  0  0  0
   33.7100   31.9060   37.1900 H   0  0  0  0  0  0  0  0  0  0  0  0
   36.0690   32.3280   36.6360 H   0  0  0  0  0  0  0  0  0  0  0  0
   37.1150   31.1520   34.7120 H   0  0  0  0  0  0  0  0  0  0  0  0
   30.2490   28.9720   37.0420 C   0  0  0  0  0  0  0  0  0  0  0  0
   31.6120   29.2400   36.7930 C   0  0  0  0  0  0  0  0  0  0  0  0
   31.9960   30.2240   35.9010 C   0  0  0  0  0  0  0  0  0  0  0  0
   30.9980   30.9160   35.2790 N   0  0  0  0  0  0  0  0  0  0  0  0
   29.7010   30.6570   35.5180 C   0  0  0  0  0  0  0  0  0  0  0  0
   29.3360   29.7130   36.3740 N   0  0  0  0  0  0  0  0  0  0  0  0
   30.0800   28.1790   37.7610 H   0  0  0  0  0  0  0  0  0  0  0  0
   32.4160   28.6970   37.2810 H   0  0  0  0  0  0  0  0  0  0  0  0
   28.9000   31.2120   35.0200 H   0  0  0  0  0  0  0  0  0  0  0  0
  1  2  2  0  0  0  0
  3  1  1  0  0  0  0
  3 32  1  0  0  0  0
  4  3  1  0  0  0  0
  5  6  1  0  0  0  0
  5 14  1  0  0  0  0
  6  1  1  0  0  0  0
  7 15  1  0  0  0  0
  7  6  2  0  0  0  0
  8  7  1  0  0  0  0
  9 16  1  0  0  0  0
  9  8  1  0  0  0  0
 10 11  2  0  0  0  0
 10  9  1  0  0  0  0
 11 12  1  0  0  0  0
 12  8  2  0  0  0  0
 12 13  1  0  0  0  0
 13  5  2  0  0  0  0
 17 10  1  0  0  0  0
 18 13  1  0  0  0  0
 18 19  1  0  0  0  0
 19 25  1  0  0  0  0
 20 19  2  0  0  0  0
 20 21  1  0  0  0  0
 21 23  2  0  0  0  0
 22 21  1  0  0  0  0
 23 24  1  0  0  0  0
 25 24  2  0  0  0  0
 26 27  1  0  0  0  0
 27 28  1  0  0  0  0
 28 38  1  0  0  0  0
 28 29  2  0  0  0  0
 29 33  1  0  0  0  0
 30 29  1  0  0  0  0
 30 34  1  0  0  0  0
 31 30  2  0  0  0  0
 32 27  2  0  0  0  0
 32 31  1  0  0  0  0
 35 31  1  0  0  0  0
 36 42  1  0  0  0  0
 37 36  1  0  0  0  0
 37 43  1  0  0  0  0
 38 37  2  0  0  0  0
 39 40  2  0  0  0  0
 39 38  1  0  0  0  0
 40 41  1  0  0  0  0
 41 36  2  0  0  0  0
 44 40  1  0  0  0  0
M  END
>  <minimizedAffinity>
-6.20460367

$$$$
