
 OpenBabel03272507163D

 24 26  0  0  1  0  0  0  0  0999 V2000
   36.8180   31.4420   50.2900 C   0  0  1  0  0  0  0  0  0  0  0  0
   36.1560   30.1570   50.2990 C   0  0  2  0  0  0  0  0  0  0  0  0
   37.4680   30.2750   51.0360 C   0  0  0  0  0  0  0  0  0  0  0  0
   36.5290   32.3100   50.9400 H   0  0  0  0  0  0  0  0  0  0  0  0
   35.2260   30.0470   50.8910 H   0  0  0  0  0  0  0  0  0  0  0  0
   37.3620   30.3340   52.1330 H   0  0  0  0  0  0  0  0  0  0  0  0
   38.3760   29.8300   50.6400 H   0  0  0  0  0  0  0  0  0  0  0  0
   37.6370   31.8980   49.1060 C   0  0  0  0  0  0  0  0  0  0  0  0
   38.5470   32.9300   49.3420 C   0  0  0  0  0  0  0  0  0  0  0  0
   39.2670   33.3480   48.2240 C   0  0  0  0  0  0  0  0  0  0  0  0
   39.0660   32.7620   46.9950 N   0  0  0  0  0  0  0  0  0  0  0  0
   38.1690   31.7660   46.8260 C   0  0  0  0  0  0  0  0  0  0  0  0
   37.4420   31.3230   47.8930 N   0  0  0  0  0  0  0  0  0  0  0  0
   38.6790   33.3640   50.3070 H   0  0  0  0  0  0  0  0  0  0  0  0
   39.9890   34.1440   48.3400 H   0  0  0  0  0  0  0  0  0  0  0  0
   38.0010   31.2960   45.8660 H   0  0  0  0  0  0  0  0  0  0  0  0
   36.1550   29.3770   49.1320 O   0  0  0  0  0  0  0  0  0  0  0  0
   34.9580   28.9730   48.5150 C   0  0  0  0  0  0  0  0  0  0  0  0
   34.0770   28.2220   49.2950 C   0  0  0  0  0  3  0  0  0  0  0  0
   32.9230   27.8730   48.5960 C   0  0  0  0  0  0  0  0  0  0  0  0
   32.1570   27.2790   49.1110 H   0  0  0  0  0  0  0  0  0  0  0  0
   32.6240   28.1830   47.3280 N   0  0  0  0  0  0  0  0  0  0  0  0
   33.5440   28.9160   46.6530 C   0  0  0  0  0  3  0  0  0  0  0  0
   34.6910   29.3040   47.2370 N   0  0  0  0  0  0  0  0  0  0  0  0
  1  2  1  0  0  0  0
  1  4  1  1  0  0  0
  1  3  1  0  0  0  0
  2  5  1  1  0  0  0
  2  3  1  0  0  0  0
  3  6  1  0  0  0  0
  7  3  1  0  0  0  0
  8  9  1  0  0  0  0
  8  1  1  0  0  0  0
  9 14  1  0  0  0  0
 10 15  1  0  0  0  0
 10  9  2  0  0  0  0
 11 10  1  0  0  0  0
 12 11  2  0  0  0  0
 12 13  1  0  0  0  0
 13  8  2  0  0  0  0
 16 12  1  0  0  0  0
 17  2  1  0  0  0  0
 18 17  1  0  0  0  0
 18 19  1  0  0  0  0
 20 21  1  0  0  0  0
 20 19  2  0  0  0  0
 22 20  1  0  0  0  0
 23 24  1  0  0  0  0
 23 22  2  0  0  0  0
 24 18  2  0  0  0  0
M  END
>  <minimizedAffinity>
-5.01669741

>  <minimizedRMSD>
1.66131413

$$$$
