
 OpenBabel03272503123D

 44 48  0  0  0  0  0  0  0  0999 V2000
   39.2630   31.9150   44.9450 C   0  0  0  0  0  0  0  0  0  0  0  0
   38.1750   32.5680   45.0630 O   0  0  0  0  0  0  0  0  0  0  0  0
   39.9670   31.6420   46.1620 N   0  0  0  0  0  0  0  0  0  0  0  0
   40.8650   31.1160   46.1120 H   0  0  0  0  0  0  0  0  0  0  0  0
   39.1980   32.2260   42.5760 C   0  0  0  0  0  0  0  0  0  0  0  0
   39.7200   31.4950   43.6330 C   0  0  0  0  0  0  0  0  0  0  0  0
   40.5930   30.4620   43.4660 C   0  0  0  0  0  0  0  0  0  0  0  0
   40.9980   30.1000   42.1900 C   0  0  0  0  0  0  0  0  0  0  0  0
   41.8230   29.1530   41.7300 N   0  0  0  0  0  0  0  0  0  0  0  0
   41.8490   29.2520   40.4020 C   0  0  0  0  0  0  0  0  0  0  0  0
   41.0320   30.2720   40.0250 N   0  0  0  0  0  0  0  0  0  0  0  0
   40.4930   30.8110   41.1310 C   0  0  0  0  0  0  0  0  0  0  0  0
   39.5980   31.8760   41.2640 C   0  0  0  0  0  0  0  0  0  0  0  0
   38.5140   33.0390   42.6890 H   0  0  0  0  0  0  0  0  0  0  0  0
   40.9730   29.9190   44.3260 H   0  0  0  0  0  0  0  0  0  0  0  0
   42.3330   28.4770   42.3480 H   0  0  0  0  0  0  0  0  0  0  0  0
   42.4480   28.5920   39.7840 H   0  0  0  0  0  0  0  0  0  0  0  0
   39.0860   32.5960   40.2090 O   0  0  0  0  0  0  0  0  0  0  0  0
   37.7370   32.9220   40.2430 C   0  0  0  0  0  0  0  0  0  0  0  0
   36.8700   31.9020   39.8740 C   0  0  0  0  0  3  0  0  0  0  0  0
   35.5080   32.1460   39.8810 C   0  0  0  0  0  0  0  0  0  0  0  0
   34.8250   31.3560   39.5950 H   0  0  0  0  0  0  0  0  0  0  0  0
   35.0180   33.3530   40.2400 N   0  0  0  0  0  0  0  0  0  0  0  0
   35.8890   34.3340   40.5970 C   0  0  0  0  0  3  0  0  0  0  0  0
   37.2140   34.1150   40.5950 N   0  0  0  0  0  0  0  0  0  0  0  0
   38.1140   30.1560   47.4930 F   0  0  0  0  0  0  0  0  0  0  0  0
   38.3780   31.4040   47.9860 C   0  0  0  0  0  0  0  0  0  0  0  0
   37.7100   31.8320   49.0990 C   0  0  0  0  0  0  0  0  0  0  0  0
   38.0200   33.0950   49.5430 C   0  0  0  0  0  0  0  0  0  0  0  0
   38.9370   33.8910   48.9220 C   0  0  0  0  0  0  0  0  0  0  0  0
   39.5960   33.4190   47.7910 C   0  0  0  0  0  0  0  0  0  0  0  0
   39.3020   32.1560   47.3270 C   0  0  0  0  0  0  0  0  0  0  0  0
   37.5000   33.4600   50.4290 H   0  0  0  0  0  0  0  0  0  0  0  0
   39.1590   34.8810   49.2970 H   0  0  0  0  0  0  0  0  0  0  0  0
   40.3340   34.0360   47.2770 H   0  0  0  0  0  0  0  0  0  0  0  0
   36.0790   29.3540   51.4450 C   0  0  0  0  0  0  0  0  0  0  0  0
   37.0340   30.2130   50.8600 C   0  0  0  0  0  0  0  0  0  0  0  0
   36.7400   30.9400   49.7210 C   0  0  0  0  0  0  0  0  0  0  0  0
   35.4910   30.7860   49.1980 N   0  0  0  0  0  0  0  0  0  0  0  0
   34.5830   29.9680   49.7560 C   0  0  0  0  0  0  0  0  0  0  0  0
   34.8680   29.2720   50.8490 N   0  0  0  0  0  0  0  0  0  0  0  0
   36.4310   28.8420   52.3320 H   0  0  0  0  0  0  0  0  0  0  0  0
   38.0330   30.3440   51.2670 H   0  0  0  0  0  0  0  0  0  0  0  0
   33.5800   29.8450   49.3370 H   0  0  0  0  0  0  0  0  0  0  0  0
  1  2  2  0  0  0  0
  1  3  1  0  0  0  0
  3 32  1  0  0  0  0
  4  3  1  0  0  0  0
  5 14  1  0  0  0  0
  5  6  1  0  0  0  0
  6  1  1  0  0  0  0
  7  6  2  0  0  0  0
  7 15  1  0  0  0  0
  8  7  1  0  0  0  0
  9  8  1  0  0  0  0
  9 16  1  0  0  0  0
 10  9  1  0  0  0  0
 11 10  2  0  0  0  0
 11 12  1  0  0  0  0
 12 13  1  0  0  0  0
 12  8  2  0  0  0  0
 13  5  2  0  0  0  0
 17 10  1  0  0  0  0
 18 19  1  0  0  0  0
 18 13  1  0  0  0  0
 19 25  1  0  0  0  0
 20 21  1  0  0  0  0
 20 19  2  0  0  0  0
 21 23  2  0  0  0  0
 22 21  1  0  0  0  0
 23 24  1  0  0  0  0
 25 24  2  0  0  0  0
 26 27  1  0  0  0  0
 27 28  1  0  0  0  0
 28 29  2  0  0  0  0
 28 38  1  0  0  0  0
 29 33  1  0  0  0  0
 30 34  1  0  0  0  0
 30 29  1  0  0  0  0
 31 30  2  0  0  0  0
 32 31  1  0  0  0  0
 32 27  2  0  0  0  0
 35 31  1  0  0  0  0
 36 42  1  0  0  0  0
 37 43  1  0  0  0  0
 37 36  1  0  0  0  0
 38 37  2  0  0  0  0
 39 38  1  0  0  0  0
 39 40  2  0  0  0  0
 40 41  1  0  0  0  0
 41 36  2  0  0  0  0
 44 40  1  0  0  0  0
M  END
>  <minimizedAffinity>
-7.3826828

>  <minimizedRMSD>
1.564623

$$$$
