
 OpenBabel03272510113D

 26 28  0  0  0  0  0  0  0  0999 V2000
   36.4220   27.7720   33.0490 C   0  0  0  0  0  0  0  0  0  0  0  0
   36.9360   27.8220   34.3080 C   0  0  0  0  0  0  0  0  0  0  0  0
   37.5820   26.7670   34.9150 C   0  0  0  0  0  0  0  0  0  0  0  0
   37.7470   25.5810   34.2700 C   0  0  0  0  0  0  0  0  0  0  0  0
   37.2120   25.5500   32.9780 C   0  0  0  0  0  0  0  0  0  0  0  0
   36.5770   26.5910   32.3890 N   0  0  0  0  0  0  0  0  0  0  0  0
   36.8340   28.7430   34.8680 H   0  0  0  0  0  0  0  0  0  0  0  0
   37.9860   26.8240   35.9140 H   0  0  0  0  0  0  0  0  0  0  0  0
   37.2670   24.6740   32.3480 H   0  0  0  0  0  0  0  0  0  0  0  0
   34.4610   29.3380   32.7860 C   0  0  0  0  0  0  0  0  0  0  0  0
   35.7400   28.8850   32.4160 C   0  0  0  0  0  0  0  0  0  0  0  0
   36.3620   29.5550   31.3850 C   0  0  0  0  0  0  0  0  0  0  0  0
   35.7160   30.6060   30.7900 N   0  0  0  0  0  0  0  0  0  0  0  0
   34.5010   30.9960   31.1820 C   0  0  0  0  0  0  0  0  0  0  0  0
   33.8510   30.3620   32.1930 N   0  0  0  0  0  0  0  0  0  0  0  0
   33.9860   28.7980   33.6000 H   0  0  0  0  0  0  0  0  0  0  0  0
   37.3480   29.2620   31.0470 H   0  0  0  0  0  0  0  0  0  0  0  0
   34.0470   31.8320   30.6680 H   0  0  0  0  0  0  0  0  0  0  0  0
   38.3530   24.4110   34.6820 O   0  0  0  0  0  0  0  0  0  0  0  0
   38.3670   24.0740   36.0160 C   0  0  0  0  0  0  0  0  0  0  0  0
   39.5720   23.3900   36.2390 C   0  0  0  0  0  3  0  0  0  0  0  0
   39.9270   22.8940   37.5030 C   0  0  0  0  0  0  0  0  0  0  0  0
   40.8130   22.3660   37.7700 H   0  0  0  0  0  0  0  0  0  0  0  0
   39.0530   23.0980   38.5200 N   0  0  0  0  0  0  0  0  0  0  0  0
   37.8950   23.7510   38.3170 C   0  0  0  0  0  3  0  0  0  0  0  0
   37.6050   24.2050   37.0990 N   0  0  0  0  0  0  0  0  0  0  0  0
  1  2  1  0  0  0  0
  2  7  1  0  0  0  0
  2  3  2  0  0  0  0
  3  8  1  0  0  0  0
  4 19  1  0  0  0  0
  4  3  1  0  0  0  0
  5  4  2  0  0  0  0
  6  5  1  0  0  0  0
  6  1  2  0  0  0  0
  9  5  1  0  0  0  0
 10 16  1  0  0  0  0
 11 10  1  0  0  0  0
 11  1  1  0  0  0  0
 12 11  2  0  0  0  0
 13 14  2  0  0  0  0
 13 12  1  0  0  0  0
 14 15  1  0  0  0  0
 15 10  2  0  0  0  0
 17 12  1  0  0  0  0
 18 14  1  0  0  0  0
 19 20  1  0  0  0  0
 20 21  2  0  0  0  0
 20 26  1  0  0  0  0
 21 22  1  0  0  0  0
 22 23  1  0  0  0  0
 22 24  2  0  0  0  0
 25 24  1  0  0  0  0
 26 25  2  0  0  0  0
M  END
>  <minimizedAffinity>
-4.90884256

$$$$

 OpenBabel03272510113D

 26 28  0  0  0  0  0  0  0  0999 V2000
   38.4980   25.4840   35.4250 C   0  0  0  0  0  0  0  0  0  0  0  0
   38.4840   26.6950   36.0460 C   0  0  0  0  0  0  0  0  0  0  0  0
   37.7860   27.7880   35.5790 C   0  0  0  0  0  0  0  0  0  0  0  0
   37.0530   27.7150   34.4360 C   0  0  0  0  0  0  0  0  0  0  0  0
   37.0820   26.4630   33.8130 C   0  0  0  0  0  0  0  0  0  0  0  0
   37.7700   25.3950   34.2780 N   0  0  0  0  0  0  0  0  0  0  0  0
   39.0500   26.8090   36.9620 H   0  0  0  0  0  0  0  0  0  0  0  0
   37.7840   28.7410   36.0850 H   0  0  0  0  0  0  0  0  0  0  0  0
   36.5470   26.2590   32.8970 H   0  0  0  0  0  0  0  0  0  0  0  0
   40.3640   23.7910   35.2830 C   0  0  0  0  0  0  0  0  0  0  0  0
   39.2360   24.3380   35.9210 C   0  0  0  0  0  0  0  0  0  0  0  0
   38.8240   23.7260   37.0860 C   0  0  0  0  0  0  0  0  0  0  0  0
   39.5230   22.6440   37.5510 N   0  0  0  0  0  0  0  0  0  0  0  0
   40.5890   22.1660   36.9060 C   0  0  0  0  0  0  0  0  0  0  0  0
   41.0280   22.7380   35.7540 N   0  0  0  0  0  0  0  0  0  0  0  0
   40.6740   24.2850   34.3680 H   0  0  0  0  0  0  0  0  0  0  0  0
   37.9630   24.0920   37.6310 H   0  0  0  0  0  0  0  0  0  0  0  0
   41.0940   21.3080   37.3280 H   0  0  0  0  0  0  0  0  0  0  0  0
   36.2900   28.6720   33.7960 O   0  0  0  0  0  0  0  0  0  0  0  0
   35.6550   29.6500   34.5270 C   0  0  0  0  0  0  0  0  0  0  0  0
   34.2790   29.4080   34.3990 C   0  0  0  0  0  3  0  0  0  0  0  0
   33.3170   30.2200   35.0210 C   0  0  0  0  0  0  0  0  0  0  0  0
   32.2560   30.1180   34.9850 H   0  0  0  0  0  0  0  0  0  0  0  0
   33.7670   31.2630   35.7620 N   0  0  0  0  0  0  0  0  0  0  0  0
   35.0840   31.5040   35.8900 C   0  0  0  0  0  3  0  0  0  0  0  0
   35.9570   30.7040   35.2810 N   0  0  0  0  0  0  0  0  0  0  0  0
  1 11  1  0  0  0  0
  1  2  1  0  0  0  0
  2  7  1  0  0  0  0
  3  2  2  0  0  0  0
  3  8  1  0  0  0  0
  4  3  1  0  0  0  0
  5  6  1  0  0  0  0
  5  4  2  0  0  0  0
  6  1  2  0  0  0  0
  9  5  1  0  0  0  0
 10 15  2  0  0  0  0
 10 11  1  0  0  0  0
 11 12  2  0  0  0  0
 12 13  1  0  0  0  0
 12 17  1  0  0  0  0
 14 18  1  0  0  0  0
 14 13  2  0  0  0  0
 15 14  1  0  0  0  0
 16 10  1  0  0  0  0
 19  4  1  0  0  0  0
 19 20  1  0  0  0  0
 20 26  1  0  0  0  0
 21 20  2  0  0  0  0
 21 22  1  0  0  0  0
 22 24  2  0  0  0  0
 23 22  1  0  0  0  0
 24 25  1  0  0  0  0
 26 25  2  0  0  0  0
M  END
>  <minimizedAffinity>
-4.8091855

$$$$

 OpenBabel03272510113D

 26 28  0  0  0  0  0  0  0  0999 V2000
   38.3360   25.5440   35.4600 C   0  0  0  0  0  0  0  0  0  0  0  0
   38.2450   26.8170   35.9340 C   0  0  0  0  0  0  0  0  0  0  0  0
   37.6290   27.8450   35.2550 C   0  0  0  0  0  0  0  0  0  0  0  0
   37.0620   27.6410   34.0370 C   0  0  0  0  0  0  0  0  0  0  0  0
   37.1670   26.3270   33.5670 C   0  0  0  0  0  0  0  0  0  0  0  0
   37.7740   25.3220   34.2400 N   0  0  0  0  0  0  0  0  0  0  0  0
   38.6790   27.0370   36.9010 H   0  0  0  0  0  0  0  0  0  0  0  0
   37.5640   28.8490   35.6460 H   0  0  0  0  0  0  0  0  0  0  0  0
   36.7630   26.0180   32.6140 H   0  0  0  0  0  0  0  0  0  0  0  0
   38.5410   23.9600   37.4130 C   0  0  0  0  0  0  0  0  0  0  0  0
   38.9870   24.4660   36.1780 C   0  0  0  0  0  0  0  0  0  0  0  0
   40.1160   23.8850   35.6410 C   0  0  0  0  0  0  0  0  0  0  0  0
   40.7280   22.8670   36.3220 N   0  0  0  0  0  0  0  0  0  0  0  0
   40.2620   22.4240   37.4920 C   0  0  0  0  0  0  0  0  0  0  0  0
   39.1530   22.9690   38.0580 N   0  0  0  0  0  0  0  0  0  0  0  0
   37.6520   24.4290   37.8210 H   0  0  0  0  0  0  0  0  0  0  0  0
   40.5170   24.2230   34.6930 H   0  0  0  0  0  0  0  0  0  0  0  0
   40.7940   21.6180   37.9770 H   0  0  0  0  0  0  0  0  0  0  0  0
   36.4040   28.5140   33.1930 O   0  0  0  0  0  0  0  0  0  0  0  0
   35.3130   29.2210   33.6470 C   0  0  0  0  0  0  0  0  0  0  0  0
   34.2960   29.0290   32.6990 C   0  0  0  0  0  3  0  0  0  0  0  0
   33.0260   29.6100   32.8390 C   0  0  0  0  0  0  0  0  0  0  0  0
   32.1940   29.5240   32.1780 H   0  0  0  0  0  0  0  0  0  0  0  0
   32.8080   30.3750   33.9370 N   0  0  0  0  0  0  0  0  0  0  0  0
   33.7770   30.5660   34.8520 C   0  0  0  0  0  3  0  0  0  0  0  0
   34.9650   29.9920   34.6740 N   0  0  0  0  0  0  0  0  0  0  0  0
  1  2  1  0  0  0  0
  1 11  1  0  0  0  0
  2  7  1  0  0  0  0
  3  8  1  0  0  0  0
  3  2  2  0  0  0  0
  4  3  1  0  0  0  0
  5  4  2  0  0  0  0
  5  6  1  0  0  0  0
  6  1  2  0  0  0  0
  9  5  1  0  0  0  0
 10 16  1  0  0  0  0
 10 15  1  0  0  0  0
 11 10  2  0  0  0  0
 12 11  1  0  0  0  0
 12 13  2  0  0  0  0
 13 14  1  0  0  0  0
 14 18  1  0  0  0  0
 14 15  2  0  0  0  0
 17 12  1  0  0  0  0
 19 20  1  0  0  0  0
 19  4  1  0  0  0  0
 20 26  1  0  0  0  0
 21 22  1  0  0  0  0
 21 20  2  0  0  0  0
 22 24  2  0  0  0  0
 23 22  1  0  0  0  0
 24 25  1  0  0  0  0
 26 25  2  0  0  0  0
M  END
>  <minimizedAffinity>
-4.77850628

$$$$

 OpenBabel03272510113D

 26 28  0  0  0  0  0  0  0  0999 V2000
   37.9080   25.5750   35.0330 C   0  0  0  0  0  0  0  0  0  0  0  0
   37.5690   26.8660   35.2980 C   0  0  0  0  0  0  0  0  0  0  0  0
   37.0610   27.7340   34.3550 C   0  0  0  0  0  0  0  0  0  0  0  0
   36.8650   27.3360   33.0700 C   0  0  0  0  0  0  0  0  0  0  0  0
   37.2190   26.0060   32.8190 C   0  0  0  0  0  0  0  0  0  0  0  0
   37.7180   25.1610   33.7500 N   0  0  0  0  0  0  0  0  0  0  0  0
   37.7040   27.2360   36.3060 H   0  0  0  0  0  0  0  0  0  0  0  0
   36.7960   28.7550   34.5820 H   0  0  0  0  0  0  0  0  0  0  0  0
   37.1180   25.5540   31.8430 H   0  0  0  0  0  0  0  0  0  0  0  0
   37.8540   24.4380   37.2850 C   0  0  0  0  0  0  0  0  0  0  0  0
   38.4440   24.6670   36.0290 C   0  0  0  0  0  0  0  0  0  0  0  0
   39.6040   23.9760   35.7530 C   0  0  0  0  0  0  0  0  0  0  0  0
   40.1070   23.1190   36.6950 N   0  0  0  0  0  0  0  0  0  0  0  0
   39.5060   22.9380   37.8730 C   0  0  0  0  0  0  0  0  0  0  0  0
   38.3610   23.6000   38.1870 N   0  0  0  0  0  0  0  0  0  0  0  0
   36.9410   24.9910   37.4860 H   0  0  0  0  0  0  0  0  0  0  0  0
   40.1140   24.1020   34.8060 H   0  0  0  0  0  0  0  0  0  0  0  0
   39.9570   22.2480   38.5720 H   0  0  0  0  0  0  0  0  0  0  0  0
   36.3750   28.0280   31.9800 O   0  0  0  0  0  0  0  0  0  0  0  0
   35.2880   28.8600   32.1230 C   0  0  0  0  0  0  0  0  0  0  0  0
   35.5500   29.9920   31.3360 C   0  0  0  0  0  3  0  0  0  0  0  0
   34.6460   31.0620   31.2410 C   0  0  0  0  0  0  0  0  0  0  0  0
   34.7540   31.9580   30.6750 H   0  0  0  0  0  0  0  0  0  0  0  0
   33.4900   30.9650   31.9450 N   0  0  0  0  0  0  0  0  0  0  0  0
   33.2290   29.8840   32.7020 C   0  0  0  0  0  3  0  0  0  0  0  0
   34.1190   28.8950   32.7590 N   0  0  0  0  0  0  0  0  0  0  0  0
  1  2  1  0  0  0  0
  1 11  1  0  0  0  0
  2  7  1  0  0  0  0
  3  8  1  0  0  0  0
  3  2  2  0  0  0  0
  4  3  1  0  0  0  0
  5  4  2  0  0  0  0
  5  6  1  0  0  0  0
  6  1  2  0  0  0  0
  9  5  1  0  0  0  0
 10 16  1  0  0  0  0
 10 15  1  0  0  0  0
 11 10  2  0  0  0  0
 12 11  1  0  0  0  0
 12 13  2  0  0  0  0
 13 14  1  0  0  0  0
 14 15  2  0  0  0  0
 14 18  1  0  0  0  0
 17 12  1  0  0  0  0
 19 20  1  0  0  0  0
 19  4  1  0  0  0  0
 20 26  1  0  0  0  0
 21 20  2  0  0  0  0
 22 21  1  0  0  0  0
 22 24  2  0  0  0  0
 23 22  1  0  0  0  0
 24 25  1  0  0  0  0
 25 26  2  0  0  0  0
M  END
>  <minimizedAffinity>
-4.76947689

$$$$

 OpenBabel03272510113D

 26 28  0  0  0  0  0  0  0  0999 V2000
   36.2570   22.8160   32.0150 C   0  0  0  0  0  0  0  0  0  0  0  0
   35.4970   23.6820   31.2910 C   0  0  0  0  0  0  0  0  0  0  0  0
   35.7330   25.0380   31.2240 C   0  0  0  0  0  0  0  0  0  0  0  0
   36.7680   25.6040   31.8990 C   0  0  0  0  0  0  0  0  0  0  0  0
   37.5370   24.6970   32.6380 C   0  0  0  0  0  0  0  0  0  0  0  0
   37.2980   23.3670   32.6990 N   0  0  0  0  0  0  0  0  0  0  0  0
   34.6590   23.2860   30.7320 H   0  0  0  0  0  0  0  0  0  0  0  0
   35.1210   25.7110   30.6430 H   0  0  0  0  0  0  0  0  0  0  0  0
   38.3900   25.0040   33.2240 H   0  0  0  0  0  0  0  0  0  0  0  0
   35.6440   20.7090   33.2600 C   0  0  0  0  0  0  0  0  0  0  0  0
   36.0030   21.3900   32.0830 C   0  0  0  0  0  0  0  0  0  0  0  0
   36.1160   20.6320   30.9380 C   0  0  0  0  0  0  0  0  0  0  0  0
   35.8760   19.2850   31.0060 N   0  0  0  0  0  0  0  0  0  0  0  0
   35.5360   18.6890   32.1510 C   0  0  0  0  0  0  0  0  0  0  0  0
   35.4150   19.3980   33.3030 N   0  0  0  0  0  0  0  0  0  0  0  0
   35.5590   21.3220   34.1530 H   0  0  0  0  0  0  0  0  0  0  0  0
   36.3900   21.0880   29.9940 H   0  0  0  0  0  0  0  0  0  0  0  0
   35.3610   17.6220   32.1340 H   0  0  0  0  0  0  0  0  0  0  0  0
   37.1810   26.9190   31.9730 O   0  0  0  0  0  0  0  0  0  0  0  0
   36.2960   27.9000   32.3600 C   0  0  0  0  0  0  0  0  0  0  0  0
   36.5420   28.1410   33.7200 C   0  0  0  0  0  3  0  0  0  0  0  0
   35.8160   29.0920   34.4530 C   0  0  0  0  0  0  0  0  0  0  0  0
   35.9280   29.3460   35.4820 H   0  0  0  0  0  0  0  0  0  0  0  0
   34.8510   29.7830   33.7950 N   0  0  0  0  0  0  0  0  0  0  0  0
   34.6070   29.5580   32.4910 C   0  0  0  0  0  3  0  0  0  0  0  0
   35.3240   28.6450   31.8390 N   0  0  0  0  0  0  0  0  0  0  0  0
  1 11  1  0  0  0  0
  1  6  1  0  0  0  0
  2  1  2  0  0  0  0
  3  2  1  0  0  0  0
  3  4  2  0  0  0  0
  4 19  1  0  0  0  0
  4  5  1  0  0  0  0
  5  6  2  0  0  0  0
  5  9  1  0  0  0  0
  7  2  1  0  0  0  0
  8  3  1  0  0  0  0
 10 15  1  0  0  0  0
 10 16  1  0  0  0  0
 11 10  2  0  0  0  0
 12 13  2  0  0  0  0
 12 11  1  0  0  0  0
 13 14  1  0  0  0  0
 14 15  2  0  0  0  0
 17 12  1  0  0  0  0
 18 14  1  0  0  0  0
 19 20  1  0  0  0  0
 20 21  1  0  0  0  0
 21 22  2  0  0  0  0
 22 23  1  0  0  0  0
 24 22  1  0  0  0  0
 25 24  2  0  0  0  0
 26 20  2  0  0  0  0
 26 25  1  0  0  0  0
M  END
>  <minimizedAffinity>
-4.73219824

$$$$

 OpenBabel03272510113D

 26 28  0  0  0  0  0  0  0  0999 V2000
   35.5520   29.2400   34.0060 C   0  0  0  0  0  0  0  0  0  0  0  0
   36.4940   28.3120   34.3290 C   0  0  0  0  0  0  0  0  0  0  0  0
   36.9860   27.3790   33.4430 C   0  0  0  0  0  0  0  0  0  0  0  0
   36.5430   27.3300   32.1580 C   0  0  0  0  0  0  0  0  0  0  0  0
   35.5750   28.2910   31.8470 C   0  0  0  0  0  0  0  0  0  0  0  0
   35.0970   29.2040   32.7230 N   0  0  0  0  0  0  0  0  0  0  0  0
   36.8830   28.3050   35.3390 H   0  0  0  0  0  0  0  0  0  0  0  0
   37.7340   26.6500   33.7150 H   0  0  0  0  0  0  0  0  0  0  0  0
   35.1320   28.3700   30.8650 H   0  0  0  0  0  0  0  0  0  0  0  0
   33.6680   30.4270   35.1920 C   0  0  0  0  0  0  0  0  0  0  0  0
   35.0360   30.2190   34.9440 C   0  0  0  0  0  0  0  0  0  0  0  0
   35.9220   31.0070   35.6470 C   0  0  0  0  0  0  0  0  0  0  0  0
   35.4320   31.9310   36.5310 N   0  0  0  0  0  0  0  0  0  0  0  0
   34.1210   32.0870   36.7300 C   0  0  0  0  0  0  0  0  0  0  0  0
   33.2140   31.3310   36.0580 N   0  0  0  0  0  0  0  0  0  0  0  0
   32.9850   29.7970   34.6310 H   0  0  0  0  0  0  0  0  0  0  0  0
   36.9910   30.9020   35.5070 H   0  0  0  0  0  0  0  0  0  0  0  0
   33.8020   32.8350   37.4420 H   0  0  0  0  0  0  0  0  0  0  0  0
   36.8920   26.4910   31.1180 O   0  0  0  0  0  0  0  0  0  0  0  0
   36.6160   25.1450   31.1950 C   0  0  0  0  0  0  0  0  0  0  0  0
   37.7770   24.4780   30.7750 C   0  0  0  0  0  3  0  0  0  0  0  0
   37.8580   23.0780   30.7250 C   0  0  0  0  0  0  0  0  0  0  0  0
   38.6890   22.4840   30.4220 H   0  0  0  0  0  0  0  0  0  0  0  0
   36.7600   22.3760   31.1040 N   0  0  0  0  0  0  0  0  0  0  0  0
   35.6420   23.0060   31.5080 C   0  0  0  0  0  3  0  0  0  0  0  0
   35.6150   24.3370   31.5380 N   0  0  0  0  0  0  0  0  0  0  0  0
  1  2  1  0  0  0  0
  1 11  1  0  0  0  0
  2  7  1  0  0  0  0
  3  8  1  0  0  0  0
  3  2  2  0  0  0  0
  4  3  1  0  0  0  0
  5  4  2  0  0  0  0
  5  6  1  0  0  0  0
  6  1  2  0  0  0  0
  9  5  1  0  0  0  0
 10 15  1  0  0  0  0
 11 10  2  0  0  0  0
 11 12  1  0  0  0  0
 12 13  2  0  0  0  0
 13 14  1  0  0  0  0
 14 18  1  0  0  0  0
 15 14  2  0  0  0  0
 16 10  1  0  0  0  0
 17 12  1  0  0  0  0
 19 20  1  0  0  0  0
 19  4  1  0  0  0  0
 20 26  1  0  0  0  0
 21 20  2  0  0  0  0
 22 21  1  0  0  0  0
 22 24  2  0  0  0  0
 23 22  1  0  0  0  0
 24 25  1  0  0  0  0
 25 26  2  0  0  0  0
M  END
>  <minimizedAffinity>
-4.7026906

$$$$

 OpenBabel03272510113D

 26 28  0  0  0  0  0  0  0  0999 V2000
   36.3690   26.5490   31.0100 C   0  0  0  0  0  0  0  0  0  0  0  0
   35.3190   25.6880   31.0970 C   0  0  0  0  0  0  0  0  0  0  0  0
   35.4490   24.3160   31.0780 C   0  0  0  0  0  0  0  0  0  0  0  0
   36.6700   23.7290   30.9660 C   0  0  0  0  0  0  0  0  0  0  0  0
   37.7360   24.6310   30.8780 C   0  0  0  0  0  0  0  0  0  0  0  0
   37.6000   25.9770   30.8970 N   0  0  0  0  0  0  0  0  0  0  0  0
   34.3230   26.1000   31.1880 H   0  0  0  0  0  0  0  0  0  0  0  0
   34.6060   23.6470   31.1490 H   0  0  0  0  0  0  0  0  0  0  0  0
   38.7630   24.3080   30.7850 H   0  0  0  0  0  0  0  0  0  0  0  0
   36.7850   28.8510   30.0660 C   0  0  0  0  0  0  0  0  0  0  0  0
   36.2260   27.9920   31.0290 C   0  0  0  0  0  0  0  0  0  0  0  0
   35.5040   28.5830   32.0440 C   0  0  0  0  0  0  0  0  0  0  0  0
   35.3710   29.9450   32.0580 N   0  0  0  0  0  0  0  0  0  0  0  0
   35.9220   30.7150   31.1170 C   0  0  0  0  0  0  0  0  0  0  0  0
   36.6420   30.1750   30.1000 N   0  0  0  0  0  0  0  0  0  0  0  0
   37.3500   28.3690   29.2740 H   0  0  0  0  0  0  0  0  0  0  0  0
   35.0450   27.9830   32.8200 H   0  0  0  0  0  0  0  0  0  0  0  0
   35.7790   31.7840   31.1890 H   0  0  0  0  0  0  0  0  0  0  0  0
   37.0260   22.3950   30.9270 O   0  0  0  0  0  0  0  0  0  0  0  0
   36.4760   21.5080   31.8240 C   0  0  0  0  0  0  0  0  0  0  0  0
   36.1270   20.3660   31.0860 C   0  0  0  0  0  3  0  0  0  0  0  0
   35.5340   19.2430   31.6840 C   0  0  0  0  0  0  0  0  0  0  0  0
   35.2340   18.3360   31.2120 H   0  0  0  0  0  0  0  0  0  0  0  0
   35.3040   19.2970   33.0200 N   0  0  0  0  0  0  0  0  0  0  0  0
   35.6340   20.3870   33.7360 C   0  0  0  0  0  3  0  0  0  0  0  0
   36.1970   21.4270   33.1220 N   0  0  0  0  0  0  0  0  0  0  0  0
  1 11  1  0  0  0  0
  1  2  1  0  0  0  0
  2  7  1  0  0  0  0
  3  2  2  0  0  0  0
  3  8  1  0  0  0  0
  4  3  1  0  0  0  0
  5  6  1  0  0  0  0
  5  4  2  0  0  0  0
  6  1  2  0  0  0  0
  9  5  1  0  0  0  0
 10 15  2  0  0  0  0
 10 11  1  0  0  0  0
 11 12  2  0  0  0  0
 12 13  1  0  0  0  0
 12 17  1  0  0  0  0
 14 18  1  0  0  0  0
 14 13  2  0  0  0  0
 15 14  1  0  0  0  0
 16 10  1  0  0  0  0
 19  4  1  0  0  0  0
 19 20  1  0  0  0  0
 20 26  1  0  0  0  0
 21 22  1  0  0  0  0
 21 20  2  0  0  0  0
 22 24  2  0  0  0  0
 23 22  1  0  0  0  0
 24 25  1  0  0  0  0
 26 25  2  0  0  0  0
M  END
>  <minimizedAffinity>
-4.67857742

$$$$

 OpenBabel03272510113D

 26 28  0  0  0  0  0  0  0  0999 V2000
   37.7260   25.7640   34.5420 C   0  0  0  0  0  0  0  0  0  0  0  0
   37.3960   27.0340   34.9060 C   0  0  0  0  0  0  0  0  0  0  0  0
   36.7350   27.9200   34.0830 C   0  0  0  0  0  0  0  0  0  0  0  0
   36.3650   27.5650   32.8240 C   0  0  0  0  0  0  0  0  0  0  0  0
   36.7130   26.2570   32.4700 C   0  0  0  0  0  0  0  0  0  0  0  0
   37.3630   25.3930   33.2830 N   0  0  0  0  0  0  0  0  0  0  0  0
   37.6660   27.3700   35.8990 H   0  0  0  0  0  0  0  0  0  0  0  0
   36.4800   28.9230   34.3880 H   0  0  0  0  0  0  0  0  0  0  0  0
   36.4830   25.8380   31.5010 H   0  0  0  0  0  0  0  0  0  0  0  0
   39.6840   24.2840   35.1250 C   0  0  0  0  0  0  0  0  0  0  0  0
   38.4230   24.8370   35.4120 C   0  0  0  0  0  0  0  0  0  0  0  0
   37.8340   24.4550   36.5980 C   0  0  0  0  0  0  0  0  0  0  0  0
   38.4960   23.5800   37.4170 N   0  0  0  0  0  0  0  0  0  0  0  0
   39.6930   23.0850   37.0960 C   0  0  0  0  0  0  0  0  0  0  0  0
   40.3090   23.4340   35.9360 N   0  0  0  0  0  0  0  0  0  0  0  0
   40.1330   24.5950   34.1860 H   0  0  0  0  0  0  0  0  0  0  0  0
   36.8630   24.8410   36.8860 H   0  0  0  0  0  0  0  0  0  0  0  0
   40.1590   22.3970   37.7870 H   0  0  0  0  0  0  0  0  0  0  0  0
   35.7060   28.2820   31.8450 O   0  0  0  0  0  0  0  0  0  0  0  0
   36.4020   28.7810   30.7680 C   0  0  0  0  0  0  0  0  0  0  0  0
   36.4550   30.1720   30.9420 C   0  0  0  0  0  3  0  0  0  0  0  0
   37.0980   31.0160   30.0230 C   0  0  0  0  0  0  0  0  0  0  0  0
   37.1910   32.0770   30.0670 H   0  0  0  0  0  0  0  0  0  0  0  0
   37.6760   30.4350   28.9420 N   0  0  0  0  0  0  0  0  0  0  0  0
   37.6300   29.1020   28.7650 C   0  0  0  0  0  3  0  0  0  0  0  0
   37.0090   28.3440   29.6670 N   0  0  0  0  0  0  0  0  0  0  0  0
  1  2  1  0  0  0  0
  1 11  1  0  0  0  0
  2  7  1  0  0  0  0
  3  8  1  0  0  0  0
  3  2  2  0  0  0  0
  4  3  1  0  0  0  0
  5  4  2  0  0  0  0
  5  6  1  0  0  0  0
  6  1  2  0  0  0  0
  9  5  1  0  0  0  0
 10 11  2  0  0  0  0
 10 15  1  0  0  0  0
 11 12  1  0  0  0  0
 12 17  1  0  0  0  0
 12 13  2  0  0  0  0
 14 13  1  0  0  0  0
 14 18  1  0  0  0  0
 15 14  2  0  0  0  0
 16 10  1  0  0  0  0
 19  4  1  0  0  0  0
 20 21  1  0  0  0  0
 20 19  1  0  0  0  0
 22 23  1  0  0  0  0
 22 21  2  0  0  0  0
 24 22  1  0  0  0  0
 25 24  2  0  0  0  0
 25 26  1  0  0  0  0
 26 20  2  0  0  0  0
M  END
>  <minimizedAffinity>
-4.66282988

$$$$

 OpenBabel03272510113D

 26 28  0  0  0  0  0  0  0  0999 V2000
   37.3200   27.1300   33.8370 C   0  0  0  0  0  0  0  0  0  0  0  0
   37.7250   27.4660   35.0920 C   0  0  0  0  0  0  0  0  0  0  0  0
   38.1540   26.5520   36.0290 C   0  0  0  0  0  0  0  0  0  0  0  0
   38.1960   25.2230   35.7450 C   0  0  0  0  0  0  0  0  0  0  0  0
   37.7750   24.8990   34.4510 C   0  0  0  0  0  0  0  0  0  0  0  0
   37.3540   25.8030   33.5360 N   0  0  0  0  0  0  0  0  0  0  0  0
   37.7140   28.5120   35.3730 H   0  0  0  0  0  0  0  0  0  0  0  0
   38.4740   26.8350   37.0200 H   0  0  0  0  0  0  0  0  0  0  0  0
   37.7540   23.8820   34.0860 H   0  0  0  0  0  0  0  0  0  0  0  0
   37.3770   28.1890   31.5480 C   0  0  0  0  0  0  0  0  0  0  0  0
   36.8680   28.0970   32.8550 C   0  0  0  0  0  0  0  0  0  0  0  0
   35.8800   28.9940   33.2010 C   0  0  0  0  0  0  0  0  0  0  0  0
   35.4560   29.9060   32.2710 N   0  0  0  0  0  0  0  0  0  0  0  0
   35.9740   29.9490   31.0420 C   0  0  0  0  0  0  0  0  0  0  0  0
   36.9490   29.0840   30.6600 N   0  0  0  0  0  0  0  0  0  0  0  0
   38.1540   27.4740   31.2930 H   0  0  0  0  0  0  0  0  0  0  0  0
   35.4410   28.9830   34.1910 H   0  0  0  0  0  0  0  0  0  0  0  0
   35.5940   30.6940   30.3570 H   0  0  0  0  0  0  0  0  0  0  0  0
   38.5850   24.1490   36.5210 O   0  0  0  0  0  0  0  0  0  0  0  0
   39.8560   23.6360   36.4030 C   0  0  0  0  0  0  0  0  0  0  0  0
   39.9700   22.6330   37.3760 C   0  0  0  0  0  3  0  0  0  0  0  0
   41.1470   21.8860   37.5450 C   0  0  0  0  0  0  0  0  0  0  0  0
   41.3300   21.1090   38.2510 H   0  0  0  0  0  0  0  0  0  0  0  0
   42.1880   22.1690   36.7230 N   0  0  0  0  0  0  0  0  0  0  0  0
   42.0890   23.1300   35.7870 C   0  0  0  0  0  3  0  0  0  0  0  0
   40.9500   23.8100   35.6660 N   0  0  0  0  0  0  0  0  0  0  0  0
  1  2  1  0  0  0  0
  2  7  1  0  0  0  0
  2  3  2  0  0  0  0
  3  8  1  0  0  0  0
  4  3  1  0  0  0  0
  4 19  1  0  0  0  0
  5  4  2  0  0  0  0
  6  1  2  0  0  0  0
  6  5  1  0  0  0  0
  9  5  1  0  0  0  0
 10 11  1  0  0  0  0
 11 12  2  0  0  0  0
 11  1  1  0  0  0  0
 12 17  1  0  0  0  0
 13 12  1  0  0  0  0
 14 13  2  0  0  0  0
 15 14  1  0  0  0  0
 15 10  2  0  0  0  0
 16 10  1  0  0  0  0
 18 14  1  0  0  0  0
 20 19  1  0  0  0  0
 20 21  1  0  0  0  0
 21 22  2  0  0  0  0
 22 23  1  0  0  0  0
 24 22  1  0  0  0  0
 25 24  2  0  0  0  0
 26 25  1  0  0  0  0
 26 20  2  0  0  0  0
M  END
>  <minimizedAffinity>
-4.61658335

$$$$
