
 OpenBabel03272507163D

 24 26  0  0  1  0  0  0  0  0999 V2000
   36.7140   31.0520   50.3800 C   0  0  1  0  0  0  0  0  0  0  0  0
   35.9820   29.8100   50.2720 C   0  0  2  0  0  0  0  0  0  0  0  0
   37.3290   29.7740   50.9530 C   0  0  0  0  0  0  0  0  0  0  0  0
   36.5020   31.8510   51.1380 H   0  0  0  0  0  0  0  0  0  0  0  0
   35.0730   29.6780   50.8930 H   0  0  0  0  0  0  0  0  0  0  0  0
   37.2730   29.7080   52.0540 H   0  0  0  0  0  0  0  0  0  0  0  0
   38.1930   29.3330   50.4650 H   0  0  0  0  0  0  0  0  0  0  0  0
   37.5060   31.6020   49.2180 C   0  0  0  0  0  0  0  0  0  0  0  0
   38.3550   32.6740   49.4980 C   0  0  0  0  0  0  0  0  0  0  0  0
   39.0510   33.1770   48.3990 C   0  0  0  0  0  0  0  0  0  0  0  0
   38.8850   32.6320   47.1480 N   0  0  0  0  0  0  0  0  0  0  0  0
   38.0460   31.5930   46.9360 C   0  0  0  0  0  0  0  0  0  0  0  0
   37.3450   31.0660   47.9820 N   0  0  0  0  0  0  0  0  0  0  0  0
   38.4620   33.0750   50.4790 H   0  0  0  0  0  0  0  0  0  0  0  0
   39.7260   34.0080   48.5500 H   0  0  0  0  0  0  0  0  0  0  0  0
   37.9060   31.1540   45.9570 H   0  0  0  0  0  0  0  0  0  0  0  0
   35.8880   29.1740   49.0250 O   0  0  0  0  0  0  0  0  0  0  0  0
   34.6450   28.8320   48.4630 C   0  0  0  0  0  0  0  0  0  0  0  0
   34.4150   29.2550   47.1530 C   0  0  0  0  0  3  0  0  0  0  0  0
   33.1600   28.8690   46.6890 C   0  0  0  0  0  0  0  0  0  0  0  0
   32.8700   29.1480   45.6680 H   0  0  0  0  0  0  0  0  0  0  0  0
   32.2310   28.1740   47.3600 N   0  0  0  0  0  0  0  0  0  0  0  0
   32.5480   27.8090   48.6260 C   0  0  0  0  0  3  0  0  0  0  0  0
   33.7350   28.1320   49.1690 N   0  0  0  0  0  0  0  0  0  0  0  0
  1  3  1  0  0  0  0
  1  4  1  1  0  0  0
  2  1  1  0  0  0  0
  2  5  1  1  0  0  0
  2  3  1  0  0  0  0
  3  6  1  0  0  0  0
  7  3  1  0  0  0  0
  8  9  1  0  0  0  0
  8  1  1  0  0  0  0
  9 14  1  0  0  0  0
 10 15  1  0  0  0  0
 10  9  2  0  0  0  0
 11 10  1  0  0  0  0
 12 11  2  0  0  0  0
 12 13  1  0  0  0  0
 13  8  2  0  0  0  0
 16 12  1  0  0  0  0
 17  2  1  0  0  0  0
 18 17  1  0  0  0  0
 18 24  1  0  0  0  0
 19 18  2  0  0  0  0
 20 19  1  0  0  0  0
 20 22  2  0  0  0  0
 21 20  1  0  0  0  0
 22 23  1  0  0  0  0
 23 24  2  0  0  0  0
M  END
>  <minimizedAffinity>
-4.98895311

>  <minimizedRMSD>
1.64713073

$$$$
