
 OpenBabel03272502253D

 28 30  0  0  0  0  0  0  0  0999 V2000
   37.5930   30.3200   51.0570 C   0  0  0  0  0  0  0  0  0  0  0  0
   38.0510   30.8860   49.8480 C   0  0  0  0  0  0  0  0  0  0  0  0
   37.3290   30.5710   48.6930 C   0  0  0  0  0  0  0  0  0  0  0  0
   36.2540   29.7580   48.8010 N   0  0  0  0  0  0  0  0  0  0  0  0
   35.8370   29.2320   49.9590 C   0  0  0  0  0  0  0  0  0  0  0  0
   36.5160   29.5190   51.0950 N   0  0  0  0  0  0  0  0  0  0  0  0
   38.1500   30.5630   51.9510 H   0  0  0  0  0  0  0  0  0  0  0  0
   38.9070   31.5300   49.7820 H   0  0  0  0  0  0  0  0  0  0  0  0
   37.6980   31.0700   47.3840 C   0  0  0  0  0  0  0  0  0  0  0  0
   36.9820   30.7340   46.2600 C   0  0  0  0  0  0  0  0  0  0  0  0
   37.3050   31.1780   44.9960 C   0  0  0  0  0  0  0  0  0  0  0  0
   38.3770   31.9880   44.8400 N   0  0  0  0  0  0  0  0  0  0  0  0
   39.0720   32.3120   45.9420 C   0  0  0  0  0  0  0  0  0  0  0  0
   38.7610   31.8810   47.1790 N   0  0  0  0  0  0  0  0  0  0  0  0
   36.1140   30.1040   46.2690 H   0  0  0  0  0  0  0  0  0  0  0  0
   36.7410   30.9160   44.0960 H   0  0  0  0  0  0  0  0  0  0  0  0
   40.2490   33.1970   45.8030 C   0  0  0  0  0  0  0  0  0  0  0  0
   40.3530   33.9450   46.9860 F   0  0  0  0  0  0  0  0  0  0  0  0
   41.4000   32.4900   45.5590 F   0  0  0  0  0  0  0  0  0  0  0  0
   40.0770   34.1250   44.8000 F   0  0  0  0  0  0  0  0  0  0  0  0
   34.7470   28.4290   49.9410 O   0  0  0  0  0  0  0  0  0  0  0  0
   34.0000   27.8940   48.9800 C   0  0  0  0  0  0  0  0  0  0  0  0
   34.1840   27.1440   47.8400 C   0  0  0  0  0  0  0  0  0  0  0  0
   33.1810   26.7150   47.0000 C   0  0  0  0  0  0  0  0  0  0  0  0
   33.5530   26.1450   46.1720 H   0  0  0  0  0  0  0  0  0  0  0  0
   31.9320   27.0630   47.3350 N   0  0  0  0  0  0  0  0  0  0  0  0
   31.7100   27.7950   48.4410 C   0  0  0  0  0  0  0  0  0  0  0  0
   32.7140   28.2170   49.2700 N   0  0  0  0  0  0  0  0  0  0  0  0
  1  6  1  0  0  0  0
  1  7  1  0  0  0  0
  2  1  2  0  0  0  0
  3  4  2  0  0  0  0
  3  2  1  0  0  0  0
  4  5  1  0  0  0  0
  5  6  2  0  0  0  0
  8  2  1  0  0  0  0
  9  3  1  0  0  0  0
 10 15  1  0  0  0  0
 10  9  2  0  0  0  0
 11 10  1  0  0  0  0
 12 11  2  0  0  0  0
 12 13  1  0  0  0  0
 13 14  2  0  0  0  0
 14  9  1  0  0  0  0
 16 11  1  0  0  0  0
 17 13  1  0  0  0  0
 17 18  1  0  0  0  0
 19 17  1  0  0  0  0
 20 17  1  0  0  0  0
 21  5  1  0  0  0  0
 22 28  1  0  0  0  0
 22 21  1  0  0  0  0
 23 22  2  0  0  0  0
 24 26  2  0  0  0  0
 24 23  1  0  0  0  0
 25 24  1  0  0  0  0
 26 27  1  0  0  0  0
 27 28  2  0  0  0  0
M  END
>  <minimizedAffinity>
-6.54421186

>  <minimizedRMSD>
0.426583022

$$$$
