
 OpenBabel03272510313D

 25 26  0  0  0  0  0  0  0  0999 V2000
   37.4340   31.5570   49.1630 C   0  0  0  0  0  0  0  0  0  0  0  0
   38.2720   32.6080   49.4880 C   0  0  0  0  0  0  0  0  0  0  0  0
   38.9920   33.1160   48.4310 C   0  0  0  0  0  0  0  0  0  0  0  0
   38.8620   32.5990   47.1720 N   0  0  0  0  0  0  0  0  0  0  0  0
   38.0290   31.5720   46.9020 C   0  0  0  0  0  0  0  0  0  0  0  0
   37.2990   31.0410   47.9260 N   0  0  0  0  0  0  0  0  0  0  0  0
   38.3200   32.9590   50.5010 H   0  0  0  0  0  0  0  0  0  0  0  0
   39.6700   33.9420   48.6150 H   0  0  0  0  0  0  0  0  0  0  0  0
   36.5890   30.9660   50.2680 C   0  0  0  0  0  0  0  0  0  0  0  0
   36.0970   29.6310   50.2460 C   0  0  0  0  0  0  0  0  0  0  0  0
   37.3550   29.8850   51.0630 C   0  0  0  0  0  0  0  0  0  0  0  0
   36.1480   31.7700   50.9090 H   0  0  0  0  0  0  0  0  0  0  0  0
   36.2360   28.9740   49.3580 H   0  0  0  0  0  0  0  0  0  0  0  0
   35.1850   29.3700   50.8040 H   0  0  0  0  0  0  0  0  0  0  0  0
   38.3180   29.5330   50.6690 H   0  0  0  0  0  0  0  0  0  0  0  0
   37.2890   29.9860   52.1410 H   0  0  0  0  0  0  0  0  0  0  0  0
   37.8800   31.0310   45.5610 C   0  0  0  0  0  0  0  0  0  0  0  0
   37.6910   31.8340   44.8250 H   0  0  0  0  0  0  0  0  0  0  0  0
   37.0580   30.2970   45.5200 H   0  0  0  0  0  0  0  0  0  0  0  0
   39.9450   30.8550   44.2000 C   0  0  0  0  0  0  0  0  0  0  0  0
   39.8020   31.9330   43.5610 O   0  0  0  0  0  0  0  0  0  0  0  0
   39.1110   30.3430   45.2200 N   0  0  0  0  0  0  0  0  0  0  0  0
   39.3740   29.4680   45.7330 H   0  0  0  0  0  0  0  0  0  0  0  0
   41.0960   30.1750   43.7580 O   0  0  0  0  0  0  0  0  0  0  0  0
   41.5270   29.4320   44.3120 H   0  0  0  0  0  0  0  0  0  0  0  0
  1  2  1  0  0  0  0
  1  9  1  0  0  0  0
  2  7  1  0  0  0  0
  3  8  1  0  0  0  0
  3  2  2  0  0  0  0
  4  3  1  0  0  0  0
  5  4  2  0  0  0  0
  5  6  1  0  0  0  0
  6  1  2  0  0  0  0
  9 12  1  0  0  0  0
  9 11  1  0  0  0  0
 10  9  1  0  0  0  0
 10 14  1  0  0  0  0
 10 11  1  0  0  0  0
 11 16  1  0  0  0  0
 13 10  1  0  0  0  0
 15 11  1  0  0  0  0
 17  5  1  0  0  0  0
 18 17  1  0  0  0  0
 19 17  1  0  0  0  0
 20 22  1  0  0  0  0
 21 20  2  0  0  0  0
 22 17  1  0  0  0  0
 22 23  1  0  0  0  0
 24 20  1  0  0  0  0
 24 25  1  0  0  0  0
M  END
>  <minimizedAffinity>
-4.91500235

>  <minimizedRMSD>
1.01344192

$$$$
