
 OpenBabel03272510313D

 25 26  0  0  0  0  0  0  0  0999 V2000
   38.7830   24.7120   36.2060 C   0  0  0  0  0  0  0  0  0  0  0  0
   38.0550   24.5110   37.3640 C   0  0  0  0  0  0  0  0  0  0  0  0
   38.5180   23.4900   38.1630 C   0  0  0  0  0  0  0  0  0  0  0  0
   39.6150   22.7550   37.8080 N   0  0  0  0  0  0  0  0  0  0  0  0
   40.2950   22.9890   36.6660 C   0  0  0  0  0  0  0  0  0  0  0  0
   39.8640   23.9940   35.8470 N   0  0  0  0  0  0  0  0  0  0  0  0
   37.2040   25.1300   37.5740 H   0  0  0  0  0  0  0  0  0  0  0  0
   37.9930   23.2770   39.0870 H   0  0  0  0  0  0  0  0  0  0  0  0
   38.3510   25.8370   35.2930 C   0  0  0  0  0  0  0  0  0  0  0  0
   38.0210   27.1400   35.7600 C   0  0  0  0  0  0  0  0  0  0  0  0
   39.4230   26.9470   35.2000 C   0  0  0  0  0  0  0  0  0  0  0  0
   38.0230   25.4420   34.2980 H   0  0  0  0  0  0  0  0  0  0  0  0
   37.9760   27.3750   36.8470 H   0  0  0  0  0  0  0  0  0  0  0  0
   37.3360   27.7770   35.1780 H   0  0  0  0  0  0  0  0  0  0  0  0
   40.2680   26.9140   35.9000 H   0  0  0  0  0  0  0  0  0  0  0  0
   39.6510   27.2690   34.1890 H   0  0  0  0  0  0  0  0  0  0  0  0
   41.4700   22.2180   36.2950 C   0  0  0  0  0  0  0  0  0  0  0  0
   42.3910   22.8200   36.3980 H   0  0  0  0  0  0  0  0  0  0  0  0
   41.3890   21.8480   35.2590 H   0  0  0  0  0  0  0  0  0  0  0  0
   42.6680   20.2140   37.1290 C   0  0  0  0  0  0  0  0  0  0  0  0
   43.7170   20.3640   36.4450 O   0  0  0  0  0  0  0  0  0  0  0  0
   41.5420   21.0680   37.1770 N   0  0  0  0  0  0  0  0  0  0  0  0
   40.7580   20.8760   37.8440 H   0  0  0  0  0  0  0  0  0  0  0  0
   42.7460   19.0290   37.8860 O   0  0  0  0  0  0  0  0  0  0  0  0
   43.0430   18.1430   37.4680 H   0  0  0  0  0  0  0  0  0  0  0  0
  1  2  1  0  0  0  0
  2  7  1  0  0  0  0
  2  3  2  0  0  0  0
  3  8  1  0  0  0  0
  4  3  1  0  0  0  0
  5  4  2  0  0  0  0
  6  1  2  0  0  0  0
  6  5  1  0  0  0  0
  9 10  1  0  0  0  0
  9  1  1  0  0  0  0
 10 13  1  0  0  0  0
 11  9  1  0  0  0  0
 11 10  1  0  0  0  0
 11 15  1  0  0  0  0
 12  9  1  0  0  0  0
 14 10  1  0  0  0  0
 16 11  1  0  0  0  0
 17 18  1  0  0  0  0
 17  5  1  0  0  0  0
 17 22  1  0  0  0  0
 19 17  1  0  0  0  0
 20 22  1  0  0  0  0
 20 24  1  0  0  0  0
 21 20  2  0  0  0  0
 22 23  1  0  0  0  0
 25 24  1  0  0  0  0
M  END
>  <minimizedAffinity>
-4.48497343

$$$$

 OpenBabel03272510313D

 25 26  0  0  0  0  0  0  0  0999 V2000
   36.6700   21.4880   33.4480 C   0  0  0  0  0  0  0  0  0  0  0  0
   35.7160   20.7100   34.0790 C   0  0  0  0  0  0  0  0  0  0  0  0
   35.7540   20.7600   35.4530 C   0  0  0  0  0  0  0  0  0  0  0  0
   36.6730   21.5300   36.1100 N   0  0  0  0  0  0  0  0  0  0  0  0
   37.5850   22.2740   35.4510 C   0  0  0  0  0  0  0  0  0  0  0  0
   37.5800   22.2500   34.0850 N   0  0  0  0  0  0  0  0  0  0  0  0
   35.0270   20.1320   33.4930 H   0  0  0  0  0  0  0  0  0  0  0  0
   35.0340   20.1730   36.0120 H   0  0  0  0  0  0  0  0  0  0  0  0
   36.6720   21.5080   31.9360 C   0  0  0  0  0  0  0  0  0  0  0  0
   35.5280   21.1960   31.1490 C   0  0  0  0  0  0  0  0  0  0  0  0
   35.8240   22.6710   31.3740 C   0  0  0  0  0  0  0  0  0  0  0  0
   37.7170   21.4770   31.5360 H   0  0  0  0  0  0  0  0  0  0  0  0
   34.5860   20.8270   31.6130 H   0  0  0  0  0  0  0  0  0  0  0  0
   35.6520   20.8140   30.1240 H   0  0  0  0  0  0  0  0  0  0  0  0
   35.1870   23.2340   32.0700 H   0  0  0  0  0  0  0  0  0  0  0  0
   36.3110   23.2500   30.5970 H   0  0  0  0  0  0  0  0  0  0  0  0
   38.5540   23.1040   36.1470 C   0  0  0  0  0  0  0  0  0  0  0  0
   38.0630   23.9620   36.6420 H   0  0  0  0  0  0  0  0  0  0  0  0
   39.3290   23.4750   35.4550 H   0  0  0  0  0  0  0  0  0  0  0  0
   40.5910   22.0110   37.0450 C   0  0  0  0  0  0  0  0  0  0  0  0
   41.4030   22.4800   36.2020 O   0  0  0  0  0  0  0  0  0  0  0  0
   39.2070   22.2800   37.1480 N   0  0  0  0  0  0  0  0  0  0  0  0
   38.6470   21.8870   37.9410 H   0  0  0  0  0  0  0  0  0  0  0  0
   41.2550   21.1360   37.9260 O   0  0  0  0  0  0  0  0  0  0  0  0
   41.8910   20.4110   37.5850 H   0  0  0  0  0  0  0  0  0  0  0  0
  1  2  2  0  0  0  0
  1  6  1  0  0  0  0
  2  3  1  0  0  0  0
  3  8  1  0  0  0  0
  3  4  2  0  0  0  0
  5  4  1  0  0  0  0
  5 17  1  0  0  0  0
  6  5  2  0  0  0  0
  7  2  1  0  0  0  0
  9  1  1  0  0  0  0
 10 11  1  0  0  0  0
 10 13  1  0  0  0  0
 10  9  1  0  0  0  0
 11  9  1  0  0  0  0
 11 15  1  0  0  0  0
 12  9  1  0  0  0  0
 14 10  1  0  0  0  0
 16 11  1  0  0  0  0
 17 18  1  0  0  0  0
 17 22  1  0  0  0  0
 19 17  1  0  0  0  0
 20 22  1  0  0  0  0
 20 24  1  0  0  0  0
 21 20  2  0  0  0  0
 22 23  1  0  0  0  0
 25 24  1  0  0  0  0
M  END
>  <minimizedAffinity>
-4.38666058

$$$$

 OpenBabel03272510313D

 25 26  0  0  0  0  0  0  0  0999 V2000
   37.8070   25.3630   34.2890 C   0  0  0  0  0  0  0  0  0  0  0  0
   37.3960   25.2820   32.9710 C   0  0  0  0  0  0  0  0  0  0  0  0
   37.2450   24.0000   32.4940 C   0  0  0  0  0  0  0  0  0  0  0  0
   37.4910   22.9160   33.2890 N   0  0  0  0  0  0  0  0  0  0  0  0
   37.8900   23.0430   34.5720 C   0  0  0  0  0  0  0  0  0  0  0  0
   38.0510   24.3010   35.0800 N   0  0  0  0  0  0  0  0  0  0  0  0
   37.2240   26.1810   32.4100 H   0  0  0  0  0  0  0  0  0  0  0  0
   36.9260   23.8640   31.4670 H   0  0  0  0  0  0  0  0  0  0  0  0
   37.9660   26.7400   34.8920 C   0  0  0  0  0  0  0  0  0  0  0  0
   38.4030   26.9620   36.2280 C   0  0  0  0  0  0  0  0  0  0  0  0
   39.4510   27.0950   35.1330 C   0  0  0  0  0  0  0  0  0  0  0  0
   37.4110   27.5060   34.2940 H   0  0  0  0  0  0  0  0  0  0  0  0
   38.5640   26.1180   36.9350 H   0  0  0  0  0  0  0  0  0  0  0  0
   38.1150   27.8840   36.7560 H   0  0  0  0  0  0  0  0  0  0  0  0
   40.2000   26.3000   35.0240 H   0  0  0  0  0  0  0  0  0  0  0  0
   39.7420   28.0780   34.7800 H   0  0  0  0  0  0  0  0  0  0  0  0
   38.1370   21.8910   35.4230 C   0  0  0  0  0  0  0  0  0  0  0  0
   39.0940   21.9930   35.9650 H   0  0  0  0  0  0  0  0  0  0  0  0
   38.1480   20.9590   34.8330 H   0  0  0  0  0  0  0  0  0  0  0  0
   35.8690   21.1000   36.0390 C   0  0  0  0  0  0  0  0  0  0  0  0
   35.6480   20.4300   34.9930 O   0  0  0  0  0  0  0  0  0  0  0  0
   37.0480   21.8020   36.3780 N   0  0  0  0  0  0  0  0  0  0  0  0
   37.1420   22.2620   37.3140 H   0  0  0  0  0  0  0  0  0  0  0  0
   34.7430   21.0680   36.8840 O   0  0  0  0  0  0  0  0  0  0  0  0
   33.7990   21.2420   36.5280 H   0  0  0  0  0  0  0  0  0  0  0  0
  1  9  1  0  0  0  0
  1  6  1  0  0  0  0
  2  1  2  0  0  0  0
  3  2  1  0  0  0  0
  3  4  2  0  0  0  0
  4  5  1  0  0  0  0
  5  6  2  0  0  0  0
  5 17  1  0  0  0  0
  7  2  1  0  0  0  0
  8  3  1  0  0  0  0
  9 11  1  0  0  0  0
  9 10  1  0  0  0  0
 10 14  1  0  0  0  0
 10 13  1  0  0  0  0
 11 10  1  0  0  0  0
 12  9  1  0  0  0  0
 15 11  1  0  0  0  0
 16 11  1  0  0  0  0
 17 18  1  0  0  0  0
 17 22  1  0  0  0  0
 19 17  1  0  0  0  0
 20 22  1  0  0  0  0
 20 24  1  0  0  0  0
 21 20  2  0  0  0  0
 22 23  1  0  0  0  0
 25 24  1  0  0  0  0
M  END
>  <minimizedAffinity>
-4.37575626

$$$$

 OpenBabel03272510313D

 25 26  0  0  0  0  0  0  0  0999 V2000
   38.3550   25.7380   34.5420 C   0  0  0  0  0  0  0  0  0  0  0  0
   38.3710   26.4310   35.7380 C   0  0  0  0  0  0  0  0  0  0  0  0
   38.1960   25.6490   36.8570 C   0  0  0  0  0  0  0  0  0  0  0  0
   38.0240   24.2960   36.7560 N   0  0  0  0  0  0  0  0  0  0  0  0
   38.0160   23.6620   35.5650 C   0  0  0  0  0  0  0  0  0  0  0  0
   38.1860   24.4060   34.4310 N   0  0  0  0  0  0  0  0  0  0  0  0
   38.5110   27.4950   35.7360 H   0  0  0  0  0  0  0  0  0  0  0  0
   38.1960   26.1280   37.8290 H   0  0  0  0  0  0  0  0  0  0  0  0
   38.5710   26.5260   33.2710 C   0  0  0  0  0  0  0  0  0  0  0  0
   38.1000   26.0990   31.9970 C   0  0  0  0  0  0  0  0  0  0  0  0
   37.2510   27.1250   32.7330 C   0  0  0  0  0  0  0  0  0  0  0  0
   39.3880   27.2790   33.4000 H   0  0  0  0  0  0  0  0  0  0  0  0
   37.6220   25.1040   31.8570 H   0  0  0  0  0  0  0  0  0  0  0  0
   38.6070   26.4380   31.0800 H   0  0  0  0  0  0  0  0  0  0  0  0
   36.3070   26.7960   33.1880 H   0  0  0  0  0  0  0  0  0  0  0  0
   37.3100   28.1730   32.4590 H   0  0  0  0  0  0  0  0  0  0  0  0
   37.8480   22.2220   35.4570 C   0  0  0  0  0  0  0  0  0  0  0  0
   38.8140   21.6980   35.5760 H   0  0  0  0  0  0  0  0  0  0  0  0
   37.4000   21.9480   34.4870 H   0  0  0  0  0  0  0  0  0  0  0  0
   35.7840   21.0540   36.1790 C   0  0  0  0  0  0  0  0  0  0  0  0
   35.4560   20.6040   35.0470 O   0  0  0  0  0  0  0  0  0  0  0  0
   36.9370   21.8020   36.5060 N   0  0  0  0  0  0  0  0  0  0  0  0
   37.1410   22.0570   37.5010 H   0  0  0  0  0  0  0  0  0  0  0  0
   34.8140   20.7080   37.1390 O   0  0  0  0  0  0  0  0  0  0  0  0
   33.8140   20.8410   36.9650 H   0  0  0  0  0  0  0  0  0  0  0  0
  1  2  1  0  0  0  0
  2  3  2  0  0  0  0
  3  8  1  0  0  0  0
  4  3  1  0  0  0  0
  5  4  2  0  0  0  0
  6  1  2  0  0  0  0
  6  5  1  0  0  0  0
  7  2  1  0  0  0  0
  9 12  1  0  0  0  0
  9  1  1  0  0  0  0
 10 11  1  0  0  0  0
 10  9  1  0  0  0  0
 11 15  1  0  0  0  0
 11  9  1  0  0  0  0
 13 10  1  0  0  0  0
 14 10  1  0  0  0  0
 16 11  1  0  0  0  0
 17  5  1  0  0  0  0
 17 18  1  0  0  0  0
 17 22  1  0  0  0  0
 19 17  1  0  0  0  0
 20 22  1  0  0  0  0
 20 24  1  0  0  0  0
 21 20  2  0  0  0  0
 22 23  1  0  0  0  0
 25 24  1  0  0  0  0
M  END
>  <minimizedAffinity>
-4.31593466

$$$$

 OpenBabel03272510313D

 25 26  0  0  0  0  0  0  0  0999 V2000
   36.0890   23.4070   31.6220 C   0  0  0  0  0  0  0  0  0  0  0  0
   35.4450   24.5040   31.0800 C   0  0  0  0  0  0  0  0  0  0  0  0
   35.8730   25.7190   31.5660 C   0  0  0  0  0  0  0  0  0  0  0  0
   36.8610   25.7960   32.5070 N   0  0  0  0  0  0  0  0  0  0  0  0
   37.4630   24.6970   33.0070 C   0  0  0  0  0  0  0  0  0  0  0  0
   37.0640   23.4730   32.5500 N   0  0  0  0  0  0  0  0  0  0  0  0
   34.6770   24.3620   30.3440 H   0  0  0  0  0  0  0  0  0  0  0  0
   35.4090   26.6210   31.1840 H   0  0  0  0  0  0  0  0  0  0  0  0
   35.6930   22.0390   31.1160 C   0  0  0  0  0  0  0  0  0  0  0  0
   36.3160   20.8350   31.5480 C   0  0  0  0  0  0  0  0  0  0  0  0
   34.9950   21.2000   32.2100 C   0  0  0  0  0  0  0  0  0  0  0  0
   35.1060   22.1180   30.1660 H   0  0  0  0  0  0  0  0  0  0  0  0
   37.2010   20.8480   32.2230 H   0  0  0  0  0  0  0  0  0  0  0  0
   36.3170   19.9490   30.8950 H   0  0  0  0  0  0  0  0  0  0  0  0
   35.0110   21.5750   33.2420 H   0  0  0  0  0  0  0  0  0  0  0  0
   34.0780   20.7160   31.8910 H   0  0  0  0  0  0  0  0  0  0  0  0
   38.5230   24.7790   33.9980 C   0  0  0  0  0  0  0  0  0  0  0  0
   39.4800   25.0800   33.5340 H   0  0  0  0  0  0  0  0  0  0  0  0
   38.6550   23.8150   34.5170 H   0  0  0  0  0  0  0  0  0  0  0  0
   39.0290   26.8030   35.3380 C   0  0  0  0  0  0  0  0  0  0  0  0
   40.1560   27.0490   34.8270 O   0  0  0  0  0  0  0  0  0  0  0  0
   38.1330   25.7690   34.9850 N   0  0  0  0  0  0  0  0  0  0  0  0
   37.1870   25.7090   35.4310 H   0  0  0  0  0  0  0  0  0  0  0  0
   38.7450   27.7280   36.3610 O   0  0  0  0  0  0  0  0  0  0  0  0
   39.4330   27.9590   37.0820 H   0  0  0  0  0  0  0  0  0  0  0  0
  1  6  1  0  0  0  0
  2  3  1  0  0  0  0
  2  1  2  0  0  0  0
  3  4  2  0  0  0  0
  4  5  1  0  0  0  0
  5 17  1  0  0  0  0
  6  5  2  0  0  0  0
  7  2  1  0  0  0  0
  8  3  1  0  0  0  0
  9 10  1  0  0  0  0
  9  1  1  0  0  0  0
  9 11  1  0  0  0  0
 10 11  1  0  0  0  0
 10 13  1  0  0  0  0
 11 15  1  0  0  0  0
 12  9  1  0  0  0  0
 14 10  1  0  0  0  0
 16 11  1  0  0  0  0
 17 19  1  0  0  0  0
 17 22  1  0  0  0  0
 18 17  1  0  0  0  0
 20 24  1  0  0  0  0
 21 20  2  0  0  0  0
 22 20  1  0  0  0  0
 22 23  1  0  0  0  0
 24 25  1  0  0  0  0
M  END
>  <minimizedAffinity>
-4.2895875

$$$$

 OpenBabel03272510313D

 25 26  0  0  0  0  0  0  0  0999 V2000
   36.2360   21.3320   33.1390 C   0  0  0  0  0  0  0  0  0  0  0  0
   35.9960   22.2100   32.0980 C   0  0  0  0  0  0  0  0  0  0  0  0
   36.7940   23.3310   32.0980 C   0  0  0  0  0  0  0  0  0  0  0  0
   37.7380   23.5280   33.0660 N   0  0  0  0  0  0  0  0  0  0  0  0
   37.9370   22.6420   34.0640 C   0  0  0  0  0  0  0  0  0  0  0  0
   37.1640   21.5170   34.0980 N   0  0  0  0  0  0  0  0  0  0  0  0
   35.2350   21.9850   31.3750 H   0  0  0  0  0  0  0  0  0  0  0  0
   36.6580   24.0620   31.3090 H   0  0  0  0  0  0  0  0  0  0  0  0
   35.4180   20.0620   33.1890 C   0  0  0  0  0  0  0  0  0  0  0  0
   34.7020   19.5490   32.0710 C   0  0  0  0  0  0  0  0  0  0  0  0
   36.0620   18.9300   32.3580 C   0  0  0  0  0  0  0  0  0  0  0  0
   35.1910   19.7720   34.2460 H   0  0  0  0  0  0  0  0  0  0  0  0
   34.6330   20.1150   31.1150 H   0  0  0  0  0  0  0  0  0  0  0  0
   33.8200   18.9090   32.2280 H   0  0  0  0  0  0  0  0  0  0  0  0
   36.9030   19.1820   31.6980 H   0  0  0  0  0  0  0  0  0  0  0  0
   36.1240   17.9750   32.8680 H   0  0  0  0  0  0  0  0  0  0  0  0
   38.9510   22.8440   35.0860 C   0  0  0  0  0  0  0  0  0  0  0  0
   39.1680   23.9190   35.2260 H   0  0  0  0  0  0  0  0  0  0  0  0
   39.8830   22.3120   34.8290 H   0  0  0  0  0  0  0  0  0  0  0  0
   37.8860   23.1410   37.3050 C   0  0  0  0  0  0  0  0  0  0  0  0
   37.6750   24.3810   37.2110 O   0  0  0  0  0  0  0  0  0  0  0  0
   38.4470   22.2880   36.3280 N   0  0  0  0  0  0  0  0  0  0  0  0
   38.5030   21.2550   36.4930 H   0  0  0  0  0  0  0  0  0  0  0  0
   37.4750   22.6720   38.5680 O   0  0  0  0  0  0  0  0  0  0  0  0
   37.7350   23.1560   39.4310 H   0  0  0  0  0  0  0  0  0  0  0  0
  1  9  1  0  0  0  0
  1  6  1  0  0  0  0
  2  3  1  0  0  0  0
  2  1  2  0  0  0  0
  3  4  2  0  0  0  0
  4  5  1  0  0  0  0
  5  6  2  0  0  0  0
  5 17  1  0  0  0  0
  7  2  1  0  0  0  0
  8  3  1  0  0  0  0
  9 12  1  0  0  0  0
 10 14  1  0  0  0  0
 10 11  1  0  0  0  0
 10  9  1  0  0  0  0
 11 16  1  0  0  0  0
 11  9  1  0  0  0  0
 13 10  1  0  0  0  0
 15 11  1  0  0  0  0
 17 18  1  0  0  0  0
 17 22  1  0  0  0  0
 19 17  1  0  0  0  0
 20 24  1  0  0  0  0
 21 20  2  0  0  0  0
 22 23  1  0  0  0  0
 22 20  1  0  0  0  0
 24 25  1  0  0  0  0
M  END
>  <minimizedAffinity>
-4.28648996

$$$$

 OpenBabel03272510313D

 25 26  0  0  0  0  0  0  0  0999 V2000
   37.2450   25.5950   32.8770 C   0  0  0  0  0  0  0  0  0  0  0  0
   36.8970   26.8060   33.4460 C   0  0  0  0  0  0  0  0  0  0  0  0
   37.3260   26.9740   34.7430 C   0  0  0  0  0  0  0  0  0  0  0  0
   38.0380   26.0000   35.3860 N   0  0  0  0  0  0  0  0  0  0  0  0
   38.3550   24.8330   34.7880 C   0  0  0  0  0  0  0  0  0  0  0  0
   37.9460   24.6290   33.5010 N   0  0  0  0  0  0  0  0  0  0  0  0
   36.3360   27.5210   32.8770 H   0  0  0  0  0  0  0  0  0  0  0  0
   37.0870   27.9020   35.2510 H   0  0  0  0  0  0  0  0  0  0  0  0
   36.8340   25.3490   31.4430 C   0  0  0  0  0  0  0  0  0  0  0  0
   36.7930   24.0550   30.8530 C   0  0  0  0  0  0  0  0  0  0  0  0
   35.4720   24.6240   31.3510 C   0  0  0  0  0  0  0  0  0  0  0  0
   36.8840   26.2940   30.8440 H   0  0  0  0  0  0  0  0  0  0  0  0
   37.1540   23.1550   31.3980 H   0  0  0  0  0  0  0  0  0  0  0  0
   36.9070   23.9420   29.7630 H   0  0  0  0  0  0  0  0  0  0  0  0
   35.0370   24.2140   32.2720 H   0  0  0  0  0  0  0  0  0  0  0  0
   34.7740   25.0650   30.6470 H   0  0  0  0  0  0  0  0  0  0  0  0
   39.1250   23.8020   35.4660 C   0  0  0  0  0  0  0  0  0  0  0  0
   40.1820   24.1040   35.5800 H   0  0  0  0  0  0  0  0  0  0  0  0
   39.0740   22.8460   34.9180 H   0  0  0  0  0  0  0  0  0  0  0  0
   39.2980   22.9970   37.8050 C   0  0  0  0  0  0  0  0  0  0  0  0
   40.5140   22.6670   37.7660 O   0  0  0  0  0  0  0  0  0  0  0  0
   38.5360   23.5980   36.7770 N   0  0  0  0  0  0  0  0  0  0  0  0
   37.5480   23.8980   36.9530 H   0  0  0  0  0  0  0  0  0  0  0  0
   38.7480   22.6820   39.0620 O   0  0  0  0  0  0  0  0  0  0  0  0
   38.8950   21.7680   39.4990 H   0  0  0  0  0  0  0  0  0  0  0  0
  1  2  2  0  0  0  0
  1  6  1  0  0  0  0
  2  3  1  0  0  0  0
  3  8  1  0  0  0  0
  3  4  2  0  0  0  0
  5  4  1  0  0  0  0
  5 17  1  0  0  0  0
  6  5  2  0  0  0  0
  7  2  1  0  0  0  0
  9  1  1  0  0  0  0
 10 11  1  0  0  0  0
 10 13  1  0  0  0  0
 10  9  1  0  0  0  0
 11  9  1  0  0  0  0
 11 15  1  0  0  0  0
 12  9  1  0  0  0  0
 14 10  1  0  0  0  0
 16 11  1  0  0  0  0
 17 18  1  0  0  0  0
 17 22  1  0  0  0  0
 19 17  1  0  0  0  0
 20 24  1  0  0  0  0
 21 20  2  0  0  0  0
 22 23  1  0  0  0  0
 22 20  1  0  0  0  0
 24 25  1  0  0  0  0
M  END
>  <minimizedAffinity>
-4.22311974

$$$$

 OpenBabel03272510313D

 25 26  0  0  0  0  0  0  0  0999 V2000
   39.8920   26.3720   34.8310 C   0  0  0  0  0  0  0  0  0  0  0  0
   39.0810   27.1820   35.6040 C   0  0  0  0  0  0  0  0  0  0  0  0
   38.1060   26.5130   36.3070 C   0  0  0  0  0  0  0  0  0  0  0  0
   37.9790   25.1540   36.2250 N   0  0  0  0  0  0  0  0  0  0  0  0
   38.7960   24.4040   35.4560 C   0  0  0  0  0  0  0  0  0  0  0  0
   39.7760   25.0330   34.7420 N   0  0  0  0  0  0  0  0  0  0  0  0
   39.2430   28.2430   35.6170 H   0  0  0  0  0  0  0  0  0  0  0  0
   37.4330   27.0870   36.9340 H   0  0  0  0  0  0  0  0  0  0  0  0
   41.0070   27.0330   34.0520 C   0  0  0  0  0  0  0  0  0  0  0  0
   41.8190   26.3410   33.1100 C   0  0  0  0  0  0  0  0  0  0  0  0
   40.6640   27.1590   32.5500 C   0  0  0  0  0  0  0  0  0  0  0  0
   41.3100   28.0000   34.5280 H   0  0  0  0  0  0  0  0  0  0  0  0
   41.7330   25.2410   32.9650 H   0  0  0  0  0  0  0  0  0  0  0  0
   42.8360   26.7010   32.8900 H   0  0  0  0  0  0  0  0  0  0  0  0
   39.7800   26.6280   32.1720 H   0  0  0  0  0  0  0  0  0  0  0  0
   40.8510   28.1390   32.1260 H   0  0  0  0  0  0  0  0  0  0  0  0
   38.6710   22.9580   35.3790 C   0  0  0  0  0  0  0  0  0  0  0  0
   39.3030   22.5460   34.5700 H   0  0  0  0  0  0  0  0  0  0  0  0
   37.6230   22.6590   35.2130 H   0  0  0  0  0  0  0  0  0  0  0  0
   40.4370   21.9950   36.8290 C   0  0  0  0  0  0  0  0  0  0  0  0
   41.3930   22.1200   36.0140 O   0  0  0  0  0  0  0  0  0  0  0  0
   39.0970   22.4070   36.6520 N   0  0  0  0  0  0  0  0  0  0  0  0
   38.4060   22.3170   37.4340 H   0  0  0  0  0  0  0  0  0  0  0  0
   40.8810   21.3600   38.0050 O   0  0  0  0  0  0  0  0  0  0  0  0
   41.4530   20.5120   37.9750 H   0  0  0  0  0  0  0  0  0  0  0  0
  1  2  1  0  0  0  0
  2  7  1  0  0  0  0
  2  3  2  0  0  0  0
  3  8  1  0  0  0  0
  4  3  1  0  0  0  0
  5  4  2  0  0  0  0
  6  1  2  0  0  0  0
  6  5  1  0  0  0  0
  9 12  1  0  0  0  0
  9  1  1  0  0  0  0
 10  9  1  0  0  0  0
 11 10  1  0  0  0  0
 11  9  1  0  0  0  0
 13 10  1  0  0  0  0
 14 10  1  0  0  0  0
 15 11  1  0  0  0  0
 16 11  1  0  0  0  0
 17  5  1  0  0  0  0
 17 22  1  0  0  0  0
 18 17  1  0  0  0  0
 19 17  1  0  0  0  0
 20 24  1  0  0  0  0
 21 20  2  0  0  0  0
 22 20  1  0  0  0  0
 22 23  1  0  0  0  0
 25 24  1  0  0  0  0
M  END
>  <minimizedAffinity>
-4.16735125

$$$$

 OpenBabel03272510313D

 25 26  0  0  0  0  0  0  0  0999 V2000
   40.8580   25.7480   34.6390 C   0  0  0  0  0  0  0  0  0  0  0  0
   42.0480   25.0720   34.8370 C   0  0  0  0  0  0  0  0  0  0  0  0
   41.9080   23.8000   35.3440 C   0  0  0  0  0  0  0  0  0  0  0  0
   40.6740   23.2790   35.6160 N   0  0  0  0  0  0  0  0  0  0  0  0
   39.5390   23.9770   35.4060 C   0  0  0  0  0  0  0  0  0  0  0  0
   39.6380   25.2440   34.9050 N   0  0  0  0  0  0  0  0  0  0  0  0
   42.9790   25.5500   34.5980 H   0  0  0  0  0  0  0  0  0  0  0  0
   42.8010   23.2140   35.5240 H   0  0  0  0  0  0  0  0  0  0  0  0
   40.9310   27.1410   34.0570 C   0  0  0  0  0  0  0  0  0  0  0  0
   41.9090   27.5390   33.1020 C   0  0  0  0  0  0  0  0  0  0  0  0
   40.5370   27.1620   32.5630 C   0  0  0  0  0  0  0  0  0  0  0  0
   40.3580   27.8690   34.6850 H   0  0  0  0  0  0  0  0  0  0  0  0
   42.7370   26.8600   32.8000 H   0  0  0  0  0  0  0  0  0  0  0  0
   42.2020   28.5970   33.0210 H   0  0  0  0  0  0  0  0  0  0  0  0
   40.4230   26.2030   32.0410 H   0  0  0  0  0  0  0  0  0  0  0  0
   39.8290   27.9390   32.2940 H   0  0  0  0  0  0  0  0  0  0  0  0
   38.2250   23.4180   35.6820 C   0  0  0  0  0  0  0  0  0  0  0  0
   37.8750   22.7900   34.8430 H   0  0  0  0  0  0  0  0  0  0  0  0
   37.4880   24.2160   35.8750 H   0  0  0  0  0  0  0  0  0  0  0  0
   38.1650   23.2050   38.1510 C   0  0  0  0  0  0  0  0  0  0  0  0
   37.8390   24.3970   38.4030 O   0  0  0  0  0  0  0  0  0  0  0  0
   38.3310   22.6080   36.8810 N   0  0  0  0  0  0  0  0  0  0  0  0
   38.5310   21.5830   36.7980 H   0  0  0  0  0  0  0  0  0  0  0  0
   38.3580   22.4900   39.3500 O   0  0  0  0  0  0  0  0  0  0  0  0
   38.9160   22.8710   40.1180 H   0  0  0  0  0  0  0  0  0  0  0  0
  1  2  2  0  0  0  0
  1  6  1  0  0  0  0
  2  3  1  0  0  0  0
  3  8  1  0  0  0  0
  3  4  2  0  0  0  0
  5  4  1  0  0  0  0
  5 17  1  0  0  0  0
  6  5  2  0  0  0  0
  7  2  1  0  0  0  0
  9  1  1  0  0  0  0
  9 12  1  0  0  0  0
 10  9  1  0  0  0  0
 11 10  1  0  0  0  0
 11  9  1  0  0  0  0
 13 10  1  0  0  0  0
 14 10  1  0  0  0  0
 15 11  1  0  0  0  0
 16 11  1  0  0  0  0
 17 19  1  0  0  0  0
 17 22  1  0  0  0  0
 18 17  1  0  0  0  0
 20 21  2  0  0  0  0
 20 24  1  0  0  0  0
 22 20  1  0  0  0  0
 23 22  1  0  0  0  0
 24 25  1  0  0  0  0
M  END
>  <minimizedAffinity>
-4.09295893

$$$$
