
 OpenBabel03272508593D

 33 35  0  0  1  0  0  0  0  0999 V2000
   37.5040   26.6420   34.3800 C   0  0  0  0  0  0  0  0  0  0  0  0
   37.7290   27.6980   35.0180 O   0  0  0  0  0  0  0  0  0  0  0  0
   36.8900   26.6850   33.0700 N   0  0  0  0  0  0  0  0  0  0  0  0
   36.4900   25.8530   32.5970 H   0  0  0  0  0  0  0  0  0  0  0  0
   37.8550   25.3220   34.9390 C   0  0  0  0  0  0  0  0  0  0  0  0
   38.1120   24.2890   34.0820 C   0  0  0  0  0  0  0  0  0  0  0  0
   38.4370   23.0630   34.6370 C   0  0  0  0  0  0  0  0  0  0  0  0
   38.4830   22.9530   36.0030 C   0  0  0  0  0  0  0  0  0  0  0  0
   38.2220   24.0010   36.8760 C   0  0  0  0  0  0  0  0  0  0  0  0
   37.9100   25.1740   36.2900 N   0  0  0  0  0  0  0  0  0  0  0  0
   38.0740   24.3790   32.9990 H   0  0  0  0  0  0  0  0  0  0  0  0
   38.6520   22.2010   34.0200 H   0  0  0  0  0  0  0  0  0  0  0  0
   38.7340   22.0050   36.4640 H   0  0  0  0  0  0  0  0  0  0  0  0
   38.2870   23.8180   38.3200 C   0  0  0  0  0  0  0  0  0  0  0  0
   37.9870   24.7810   39.0650 O   0  0  0  0  0  0  0  0  0  0  0  0
   38.6700   22.6180   38.8600 O   0  0  0  0  0  0  0  0  0  0  0  0
   39.1420   22.5900   39.7510 H   0  0  0  0  0  0  0  0  0  0  0  0
   36.2320   28.0680   31.1170 C   0  0  2  0  0  0  0  0  0  0  0  0
   35.3970   28.5170   32.2630 C   0  0  0  0  0  0  0  0  0  0  0  0
   36.8400   27.9590   32.4020 C   0  0  1  0  0  0  0  0  0  0  0  0
   35.8150   27.1820   30.5950 H   0  0  0  0  0  0  0  0  0  0  0  0
   35.2540   29.5930   32.4670 H   0  0  0  0  0  0  0  0  0  0  0  0
   34.5720   27.8860   32.6070 H   0  0  0  0  0  0  0  0  0  0  0  0
   37.5740   28.7530   32.7290 H   0  0  0  0  0  0  0  0  0  0  0  0
   37.9920   29.5160   28.1750 C   0  0  0  0  0  0  0  0  0  0  0  0
   37.6760   30.9100   28.3110 C   0  0  0  0  0  0  0  0  0  0  0  0
   36.8590   31.3210   29.4390 C   0  0  0  0  0  0  0  0  0  0  0  0
   36.4200   30.3760   30.3250 N   0  0  0  0  0  0  0  0  0  0  0  0
   36.7610   29.0830   30.1280 C   0  0  0  0  0  0  0  0  0  0  0  0
   37.5390   28.6200   29.0730 N   0  0  0  0  0  0  0  0  0  0  0  0
   38.6000   29.2550   27.3270 H   0  0  0  0  0  0  0  0  0  0  0  0
   38.0240   31.6520   27.6110 H   0  0  0  0  0  0  0  0  0  0  0  0
   36.6280   32.3530   29.5340 H   0  0  0  0  0  0  0  0  0  0  0  0
  1  5  1  0  0  0  0
  1  2  2  0  0  0  0
  3  1  1  0  0  0  0
  4  3  1  0  0  0  0
  5 10  1  0  0  0  0
  6  7  1  0  0  0  0
  6  5  2  0  0  0  0
  7  8  2  0  0  0  0
  8 13  1  0  0  0  0
  8  9  1  0  0  0  0
  9 14  1  0  0  0  0
 10  9  2  0  0  0  0
 11  6  1  0  0  0  0
 12  7  1  0  0  0  0
 14 16  1  0  0  0  0
 14 15  2  0  0  0  0
 16 17  1  0  0  0  0
 18 21  1  6  0  0  0
 18 19  1  0  0  0  0
 18 20  1  0  0  0  0
 19 20  1  0  0  0  0
 19 22  1  0  0  0  0
 19 23  1  0  0  0  0
 20 24  1  1  0  0  0
 20  3  1  0  0  0  0
 25 26  2  0  0  0  0
 25 30  1  0  0  0  0
 26 27  1  0  0  0  0
 27 33  1  0  0  0  0
 27 28  2  0  0  0  0
 29 28  1  0  0  0  0
 29 18  1  0  0  0  0
 30 29  2  0  0  0  0
 31 25  1  0  0  0  0
 32 26  1  0  0  0  0
M  END
>  <minimizedAffinity>
-5.38739491

$$$$

 OpenBabel03272508593D

 33 35  0  0  1  0  0  0  0  0999 V2000
   37.7530   25.1950   35.0270 C   0  0  0  0  0  0  0  0  0  0  0  0
   37.1440   26.2880   35.1140 O   0  0  0  0  0  0  0  0  0  0  0  0
   37.9750   24.5730   33.7380 N   0  0  0  0  0  0  0  0  0  0  0  0
   38.2740   23.5870   33.6220 H   0  0  0  0  0  0  0  0  0  0  0  0
   38.2620   24.5050   36.2270 C   0  0  0  0  0  0  0  0  0  0  0  0
   37.6780   24.7630   37.4350 C   0  0  0  0  0  0  0  0  0  0  0  0
   38.1790   24.1000   38.5430 C   0  0  0  0  0  0  0  0  0  0  0  0
   39.2250   23.2300   38.3690 C   0  0  0  0  0  0  0  0  0  0  0  0
   39.8210   22.9670   37.1420 C   0  0  0  0  0  0  0  0  0  0  0  0
   39.2990   23.6350   36.0940 N   0  0  0  0  0  0  0  0  0  0  0  0
   36.8490   25.4530   37.5700 H   0  0  0  0  0  0  0  0  0  0  0  0
   37.7660   24.2550   39.5300 H   0  0  0  0  0  0  0  0  0  0  0  0
   39.6370   22.6990   39.2180 H   0  0  0  0  0  0  0  0  0  0  0  0
   40.9300   22.0310   37.0250 C   0  0  0  0  0  0  0  0  0  0  0  0
   41.6860   22.1110   36.0260 O   0  0  0  0  0  0  0  0  0  0  0  0
   41.1500   21.0760   37.9830 O   0  0  0  0  0  0  0  0  0  0  0  0
   41.5710   20.1940   37.7350 H   0  0  0  0  0  0  0  0  0  0  0  0
   38.6720   26.4370   32.2540 C   0  0  2  0  0  0  0  0  0  0  0  0
   38.8600   25.1790   31.4830 C   0  0  0  0  0  0  0  0  0  0  0  0
   37.7650   25.3820   32.5650 C   0  0  1  0  0  0  0  0  0  0  0  0
   39.5330   26.6770   32.9130 H   0  0  0  0  0  0  0  0  0  0  0  0
   38.5220   25.1080   30.4330 H   0  0  0  0  0  0  0  0  0  0  0  0
   39.7000   24.5200   31.7240 H   0  0  0  0  0  0  0  0  0  0  0  0
   36.7260   25.4040   32.1220 H   0  0  0  0  0  0  0  0  0  0  0  0
   38.3260   29.1690   29.7510 C   0  0  0  0  0  0  0  0  0  0  0  0
   37.2000   29.8920   30.2710 C   0  0  0  0  0  0  0  0  0  0  0  0
   36.5870   29.4150   31.4990 C   0  0  0  0  0  0  0  0  0  0  0  0
   37.0960   28.3030   32.1110 N   0  0  0  0  0  0  0  0  0  0  0  0
   38.1590   27.6780   31.5580 C   0  0  0  0  0  0  0  0  0  0  0  0
   38.7950   28.0790   30.3880 N   0  0  0  0  0  0  0  0  0  0  0  0
   38.7500   29.5550   28.8410 H   0  0  0  0  0  0  0  0  0  0  0  0
   36.8020   30.7680   29.7860 H   0  0  0  0  0  0  0  0  0  0  0  0
   35.7550   29.9540   31.8790 H   0  0  0  0  0  0  0  0  0  0  0  0
  1  2  2  0  0  0  0
  1  5  1  0  0  0  0
  3  1  1  0  0  0  0
  4  3  1  0  0  0  0
  5  6  1  0  0  0  0
  6 11  1  0  0  0  0
  6  7  2  0  0  0  0
  7 12  1  0  0  0  0
  8  7  1  0  0  0  0
  8 13  1  0  0  0  0
  9  8  2  0  0  0  0
 10  5  2  0  0  0  0
 10  9  1  0  0  0  0
 14  9  1  0  0  0  0
 14 16  1  0  0  0  0
 15 14  2  0  0  0  0
 17 16  1  0  0  0  0
 18 20  1  0  0  0  0
 18 21  1  1  0  0  0
 19 23  1  0  0  0  0
 19 18  1  0  0  0  0
 19 20  1  0  0  0  0
 20 24  1  6  0  0  0
 20  3  1  0  0  0  0
 22 19  1  0  0  0  0
 25 26  2  0  0  0  0
 25 30  1  0  0  0  0
 26 27  1  0  0  0  0
 27 33  1  0  0  0  0
 27 28  2  0  0  0  0
 29 28  1  0  0  0  0
 29 18  1  0  0  0  0
 30 29  2  0  0  0  0
 31 25  1  0  0  0  0
 32 26  1  0  0  0  0
M  END
>  <minimizedAffinity>
-5.16498518

$$$$

 OpenBabel03272508593D

 33 35  0  0  1  0  0  0  0  0999 V2000
   38.1340   24.3070   34.4560 C   0  0  0  0  0  0  0  0  0  0  0  0
   38.6080   23.5120   33.6080 O   0  0  0  0  0  0  0  0  0  0  0  0
   38.1310   23.9700   35.8640 N   0  0  0  0  0  0  0  0  0  0  0  0
   37.5700   24.4780   36.5730 H   0  0  0  0  0  0  0  0  0  0  0  0
   37.5660   25.6070   34.0520 C   0  0  0  0  0  0  0  0  0  0  0  0
   37.4460   26.5940   34.9880 C   0  0  0  0  0  0  0  0  0  0  0  0
   36.9070   27.8030   34.5780 C   0  0  0  0  0  0  0  0  0  0  0  0
   36.5280   27.9410   33.2670 C   0  0  0  0  0  0  0  0  0  0  0  0
   36.6490   26.9370   32.3140 C   0  0  0  0  0  0  0  0  0  0  0  0
   37.1770   25.7810   32.7600 N   0  0  0  0  0  0  0  0  0  0  0  0
   37.7470   26.4820   36.0260 H   0  0  0  0  0  0  0  0  0  0  0  0
   36.7820   28.6290   35.2650 H   0  0  0  0  0  0  0  0  0  0  0  0
   36.1030   28.8750   32.9200 H   0  0  0  0  0  0  0  0  0  0  0  0
   36.2250   27.1480   30.9360 C   0  0  0  0  0  0  0  0  0  0  0  0
   36.5090   28.2340   30.3770 O   0  0  0  0  0  0  0  0  0  0  0  0
   35.5290   26.1810   30.2590 O   0  0  0  0  0  0  0  0  0  0  0  0
   34.8690   26.4400   29.5410 H   0  0  0  0  0  0  0  0  0  0  0  0
   40.3330   23.0790   36.5830 C   0  0  2  0  0  0  0  0  0  0  0  0
   39.4280   22.9910   37.7590 C   0  0  0  0  0  0  0  0  0  0  0  0
   38.9550   22.8670   36.2850 C   0  0  1  0  0  0  0  0  0  0  0  0
   40.8050   24.0770   36.4700 H   0  0  0  0  0  0  0  0  0  0  0  0
   39.3960   22.0740   38.3760 H   0  0  0  0  0  0  0  0  0  0  0  0
   39.1640   23.9010   38.3050 H   0  0  0  0  0  0  0  0  0  0  0  0
   38.6030   21.8230   36.0370 H   0  0  0  0  0  0  0  0  0  0  0  0
   42.6290   20.7900   34.7560 C   0  0  0  0  0  0  0  0  0  0  0  0
   43.1690   20.0080   35.8320 C   0  0  0  0  0  0  0  0  0  0  0  0
   42.7100   20.2900   37.1810 C   0  0  0  0  0  0  0  0  0  0  0  0
   41.7900   21.2820   37.3790 N   0  0  0  0  0  0  0  0  0  0  0  0
   41.3300   21.9730   36.3140 C   0  0  0  0  0  0  0  0  0  0  0  0
   41.7230   21.7570   34.9980 N   0  0  0  0  0  0  0  0  0  0  0  0
   42.9950   20.5500   33.7740 H   0  0  0  0  0  0  0  0  0  0  0  0
   43.8940   19.2270   35.6720 H   0  0  0  0  0  0  0  0  0  0  0  0
   43.1130   19.7080   37.9730 H   0  0  0  0  0  0  0  0  0  0  0  0
  1  3  1  0  0  0  0
  2  1  2  0  0  0  0
  3 20  1  0  0  0  0
  3  4  1  0  0  0  0
  5  1  1  0  0  0  0
  5  6  1  0  0  0  0
  6 11  1  0  0  0  0
  7  6  2  0  0  0  0
  7 12  1  0  0  0  0
  8  7  1  0  0  0  0
  9 10  1  0  0  0  0
  9  8  2  0  0  0  0
 10  5  2  0  0  0  0
 13  8  1  0  0  0  0
 14  9  1  0  0  0  0
 15 14  2  0  0  0  0
 16 14  1  0  0  0  0
 17 16  1  0  0  0  0
 18 21  1  6  0  0  0
 18 19  1  0  0  0  0
 19 23  1  0  0  0  0
 19 22  1  0  0  0  0
 20 24  1  6  0  0  0
 20 18  1  0  0  0  0
 20 19  1  0  0  0  0
 25 30  2  0  0  0  0
 25 26  1  0  0  0  0
 26 27  2  0  0  0  0
 27 28  1  0  0  0  0
 27 33  1  0  0  0  0
 29 18  1  0  0  0  0
 29 28  2  0  0  0  0
 30 29  1  0  0  0  0
 31 25  1  0  0  0  0
 32 26  1  0  0  0  0
M  END
>  <minimizedAffinity>
-5.10341501

$$$$

 OpenBabel03272508593D

 33 35  0  0  1  0  0  0  0  0999 V2000
   37.5950   26.8450   34.2190 C   0  0  0  0  0  0  0  0  0  0  0  0
   38.2630   27.2940   33.2580 O   0  0  0  0  0  0  0  0  0  0  0  0
   36.5470   27.6390   34.8270 N   0  0  0  0  0  0  0  0  0  0  0  0
   36.1160   27.4140   35.7430 H   0  0  0  0  0  0  0  0  0  0  0  0
   37.8490   25.4980   34.7650 C   0  0  0  0  0  0  0  0  0  0  0  0
   38.0010   24.4530   33.8980 C   0  0  0  0  0  0  0  0  0  0  0  0
   38.2380   23.2010   34.4410 C   0  0  0  0  0  0  0  0  0  0  0  0
   38.3050   23.0800   35.8060 C   0  0  0  0  0  0  0  0  0  0  0  0
   38.1490   24.1410   36.6880 C   0  0  0  0  0  0  0  0  0  0  0  0
   37.9210   25.3380   36.1140 N   0  0  0  0  0  0  0  0  0  0  0  0
   37.9470   24.5510   32.8170 H   0  0  0  0  0  0  0  0  0  0  0  0
   38.3680   22.3280   33.8160 H   0  0  0  0  0  0  0  0  0  0  0  0
   38.4880   22.1120   36.2570 H   0  0  0  0  0  0  0  0  0  0  0  0
   38.2320   23.9450   38.1290 C   0  0  0  0  0  0  0  0  0  0  0  0
   37.9230   24.8960   38.8870 O   0  0  0  0  0  0  0  0  0  0  0  0
   38.6400   22.7470   38.6540 O   0  0  0  0  0  0  0  0  0  0  0  0
   39.1210   22.7180   39.5410 H   0  0  0  0  0  0  0  0  0  0  0  0
   34.8260   29.3790   34.4130 C   0  0  2  0  0  0  0  0  0  0  0  0
   36.0040   30.0700   34.9990 C   0  0  0  0  0  0  0  0  0  0  0  0
   36.0930   28.8010   34.1080 C   0  0  1  0  0  0  0  0  0  0  0  0
   34.1550   28.9360   35.1780 H   0  0  0  0  0  0  0  0  0  0  0  0
   36.3750   31.0160   34.5640 H   0  0  0  0  0  0  0  0  0  0  0  0
   36.2170   29.9600   36.0660 H   0  0  0  0  0  0  0  0  0  0  0  0
   36.5670   29.0170   33.1050 H   0  0  0  0  0  0  0  0  0  0  0  0
   34.0250   31.1710   31.2510 C   0  0  0  0  0  0  0  0  0  0  0  0
   32.5910   31.2100   31.3000 C   0  0  0  0  0  0  0  0  0  0  0  0
   31.9280   30.6170   32.4490 C   0  0  0  0  0  0  0  0  0  0  0  0
   32.6850   30.0440   33.4330 N   0  0  0  0  0  0  0  0  0  0  0  0
   34.0300   30.0470   33.3130 C   0  0  0  0  0  0  0  0  0  0  0  0
   34.7300   30.5960   32.2450 N   0  0  0  0  0  0  0  0  0  0  0  0
   34.4760   31.6210   30.3840 H   0  0  0  0  0  0  0  0  0  0  0  0
   31.9980   31.6630   30.5220 H   0  0  0  0  0  0  0  0  0  0  0  0
   30.8670   30.6490   32.4800 H   0  0  0  0  0  0  0  0  0  0  0  0
  1  5  1  0  0  0  0
  1  3  1  0  0  0  0
  2  1  2  0  0  0  0
  3  4  1  0  0  0  0
  5 10  1  0  0  0  0
  6  7  1  0  0  0  0
  6  5  2  0  0  0  0
  7  8  2  0  0  0  0
  8 13  1  0  0  0  0
  8  9  1  0  0  0  0
  9 14  1  0  0  0  0
 10  9  2  0  0  0  0
 11  6  1  0  0  0  0
 12  7  1  0  0  0  0
 14 16  1  0  0  0  0
 14 15  2  0  0  0  0
 16 17  1  0  0  0  0
 18 19  1  0  0  0  0
 18 21  1  1  0  0  0
 19 23  1  0  0  0  0
 20 24  1  6  0  0  0
 20 18  1  0  0  0  0
 20  3  1  0  0  0  0
 20 19  1  0  0  0  0
 22 19  1  0  0  0  0
 25 26  2  0  0  0  0
 25 30  1  0  0  0  0
 26 27  1  0  0  0  0
 27 33  1  0  0  0  0
 27 28  2  0  0  0  0
 29 28  1  0  0  0  0
 29 18  1  0  0  0  0
 30 29  2  0  0  0  0
 31 25  1  0  0  0  0
 32 26  1  0  0  0  0
M  END
>  <minimizedAffinity>
-5.05454159

$$$$

 OpenBabel03272508593D

 33 35  0  0  1  0  0  0  0  0999 V2000
   36.5620   27.7810   32.7130 C   0  0  0  0  0  0  0  0  0  0  0  0
   36.2830   26.6160   32.3400 O   0  0  0  0  0  0  0  0  0  0  0  0
   36.8540   28.0620   34.1040 N   0  0  0  0  0  0  0  0  0  0  0  0
   36.8790   29.0190   34.5020 H   0  0  0  0  0  0  0  0  0  0  0  0
   36.6030   28.9020   31.7560 C   0  0  0  0  0  0  0  0  0  0  0  0
   36.1060   30.1160   32.1390 C   0  0  0  0  0  0  0  0  0  0  0  0
   36.1580   31.1480   31.2170 C   0  0  0  0  0  0  0  0  0  0  0  0
   36.7000   30.8980   29.9820 C   0  0  0  0  0  0  0  0  0  0  0  0
   37.2050   29.6650   29.5910 C   0  0  0  0  0  0  0  0  0  0  0  0
   37.1330   28.6920   30.5200 N   0  0  0  0  0  0  0  0  0  0  0  0
   35.6770   30.3110   33.1180 H   0  0  0  0  0  0  0  0  0  0  0  0
   35.7830   32.1360   31.4500 H   0  0  0  0  0  0  0  0  0  0  0  0
   36.7530   31.6870   29.2420 H   0  0  0  0  0  0  0  0  0  0  0  0
   37.7680   29.4640   28.2620 C   0  0  0  0  0  0  0  0  0  0  0  0
   37.9440   30.4630   27.5240 O   0  0  0  0  0  0  0  0  0  0  0  0
   38.1010   28.2100   27.8210 O   0  0  0  0  0  0  0  0  0  0  0  0
   38.0520   27.9880   26.8380 H   0  0  0  0  0  0  0  0  0  0  0  0
   38.3610   26.2420   34.8650 C   0  0  2  0  0  0  0  0  0  0  0  0
   38.2610   27.2150   35.9850 C   0  0  0  0  0  0  0  0  0  0  0  0
   37.1220   26.9400   34.9660 C   0  0  1  0  0  0  0  0  0  0  0  0
   39.1250   26.5220   34.1110 H   0  0  0  0  0  0  0  0  0  0  0  0
   38.1030   26.8650   37.0210 H   0  0  0  0  0  0  0  0  0  0  0  0
   38.7880   28.1720   35.9150 H   0  0  0  0  0  0  0  0  0  0  0  0
   36.2390   26.4220   35.4430 H   0  0  0  0  0  0  0  0  0  0  0  0
   38.5660   23.0400   36.7500 C   0  0  0  0  0  0  0  0  0  0  0  0
   38.4330   22.0770   35.6930 C   0  0  0  0  0  0  0  0  0  0  0  0
   38.2840   22.5680   34.3340 C   0  0  0  0  0  0  0  0  0  0  0  0
   38.2730   23.9170   34.1090 N   0  0  0  0  0  0  0  0  0  0  0  0
   38.4040   24.7580   35.1570 C   0  0  0  0  0  0  0  0  0  0  0  0
   38.5520   24.3600   36.4810 N   0  0  0  0  0  0  0  0  0  0  0  0
   38.6740   22.6350   37.7400 H   0  0  0  0  0  0  0  0  0  0  0  0
   38.4420   21.0150   35.8750 H   0  0  0  0  0  0  0  0  0  0  0  0
   38.1860   21.8510   33.5560 H   0  0  0  0  0  0  0  0  0  0  0  0
  1  3  1  0  0  0  0
  2  1  2  0  0  0  0
  3  4  1  0  0  0  0
  3 20  1  0  0  0  0
  5  6  1  0  0  0  0
  5  1  1  0  0  0  0
  6 11  1  0  0  0  0
  7 12  1  0  0  0  0
  7  6  2  0  0  0  0
  8  7  1  0  0  0  0
  9  8  2  0  0  0  0
  9 10  1  0  0  0  0
 10  5  2  0  0  0  0
 13  8  1  0  0  0  0
 14  9  1  0  0  0  0
 15 14  2  0  0  0  0
 16 14  1  0  0  0  0
 17 16  1  0  0  0  0
 18 21  1  6  0  0  0
 18 20  1  0  0  0  0
 18 29  1  0  0  0  0
 18 19  1  0  0  0  0
 19 22  1  0  0  0  0
 20 24  1  1  0  0  0
 20 19  1  0  0  0  0
 23 19  1  0  0  0  0
 25 31  1  0  0  0  0
 26 32  1  0  0  0  0
 26 25  2  0  0  0  0
 27 26  1  0  0  0  0
 28 27  2  0  0  0  0
 28 29  1  0  0  0  0
 29 30  2  0  0  0  0
 30 25  1  0  0  0  0
 33 27  1  0  0  0  0
M  END
>  <minimizedAffinity>
-5.00927114

$$$$

 OpenBabel03272508593D

 33 35  0  0  1  0  0  0  0  0999 V2000
   35.6840   25.0830   31.1270 C   0  0  0  0  0  0  0  0  0  0  0  0
   34.4490   25.2660   31.0080 O   0  0  0  0  0  0  0  0  0  0  0  0
   36.5950   26.2070   31.2020 N   0  0  0  0  0  0  0  0  0  0  0  0
   37.6210   26.1210   31.0860 H   0  0  0  0  0  0  0  0  0  0  0  0
   36.2540   23.7230   31.1940 C   0  0  0  0  0  0  0  0  0  0  0  0
   37.5020   23.5040   30.6840 C   0  0  0  0  0  0  0  0  0  0  0  0
   38.0080   22.2180   30.7610 C   0  0  0  0  0  0  0  0  0  0  0  0
   37.2360   21.2430   31.3410 C   0  0  0  0  0  0  0  0  0  0  0  0
   35.9670   21.4640   31.8600 C   0  0  0  0  0  0  0  0  0  0  0  0
   35.5170   22.7300   31.7620 N   0  0  0  0  0  0  0  0  0  0  0  0
   38.1110   24.2780   30.2240 H   0  0  0  0  0  0  0  0  0  0  0  0
   38.9890   21.9700   30.3770 H   0  0  0  0  0  0  0  0  0  0  0  0
   37.6070   20.2280   31.4140 H   0  0  0  0  0  0  0  0  0  0  0  0
   35.1980   20.3840   32.4630 C   0  0  0  0  0  0  0  0  0  0  0  0
   35.4240   20.0750   33.6580 O   0  0  0  0  0  0  0  0  0  0  0  0
   34.2440   19.7120   31.7430 O   0  0  0  0  0  0  0  0  0  0  0  0
   34.0420   18.7450   31.9470 H   0  0  0  0  0  0  0  0  0  0  0  0
   36.3200   28.1920   32.6670 C   0  0  2  0  0  0  0  0  0  0  0  0
   37.0880   28.6390   31.4750 C   0  0  0  0  0  0  0  0  0  0  0  0
   36.0260   27.5060   31.4520 C   0  0  1  0  0  0  0  0  0  0  0  0
   36.9600   27.7360   33.4510 H   0  0  0  0  0  0  0  0  0  0  0  0
   36.8270   29.5820   30.9600 H   0  0  0  0  0  0  0  0  0  0  0  0
   38.1400   28.3550   31.3740 H   0  0  0  0  0  0  0  0  0  0  0  0
   35.1040   27.7970   30.8690 H   0  0  0  0  0  0  0  0  0  0  0  0
   33.0650   29.8870   33.2770 C   0  0  0  0  0  0  0  0  0  0  0  0
   33.3790   30.7100   34.4110 C   0  0  0  0  0  0  0  0  0  0  0  0
   34.7330   30.6650   34.9370 C   0  0  0  0  0  0  0  0  0  0  0  0
   35.6520   29.8460   34.3410 N   0  0  0  0  0  0  0  0  0  0  0  0
   35.2780   29.1020   33.2780 C   0  0  0  0  0  0  0  0  0  0  0  0
   34.0030   29.0970   32.7220 N   0  0  0  0  0  0  0  0  0  0  0  0
   32.0520   29.9510   32.9200 H   0  0  0  0  0  0  0  0  0  0  0  0
   32.6520   31.3540   34.8770 H   0  0  0  0  0  0  0  0  0  0  0  0
   34.9600   31.2750   35.7750 H   0  0  0  0  0  0  0  0  0  0  0  0
  1  5  1  0  0  0  0
  1  3  1  0  0  0  0
  2  1  2  0  0  0  0
  3 20  1  0  0  0  0
  4  3  1  0  0  0  0
  5 10  1  0  0  0  0
  6  7  1  0  0  0  0
  6  5  2  0  0  0  0
  7  8  2  0  0  0  0
  8 13  1  0  0  0  0
  8  9  1  0  0  0  0
  9 14  1  0  0  0  0
 10  9  2  0  0  0  0
 11  6  1  0  0  0  0
 12  7  1  0  0  0  0
 14 15  2  0  0  0  0
 16 17  1  0  0  0  0
 16 14  1  0  0  0  0
 18 29  1  0  0  0  0
 18 21  1  1  0  0  0
 19 18  1  0  0  0  0
 20 24  1  6  0  0  0
 20 19  1  0  0  0  0
 20 18  1  0  0  0  0
 22 19  1  0  0  0  0
 23 19  1  0  0  0  0
 25 26  1  0  0  0  0
 26 32  1  0  0  0  0
 26 27  2  0  0  0  0
 27 33  1  0  0  0  0
 28 27  1  0  0  0  0
 29 28  2  0  0  0  0
 30 25  2  0  0  0  0
 30 29  1  0  0  0  0
 31 25  1  0  0  0  0
M  END
>  <minimizedAffinity>
-4.96929932

$$$$

 OpenBabel03272508593D

 33 35  0  0  1  0  0  0  0  0999 V2000
   37.0950   26.9540   33.8560 C   0  0  0  0  0  0  0  0  0  0  0  0
   36.6900   26.7640   32.6840 O   0  0  0  0  0  0  0  0  0  0  0  0
   36.7410   28.1610   34.5740 N   0  0  0  0  0  0  0  0  0  0  0  0
   37.2120   28.4690   35.4450 H   0  0  0  0  0  0  0  0  0  0  0  0
   37.9430   25.9620   34.5430 C   0  0  0  0  0  0  0  0  0  0  0  0
   39.1040   25.5590   33.9460 C   0  0  0  0  0  0  0  0  0  0  0  0
   39.8780   24.6260   34.6160 C   0  0  0  0  0  0  0  0  0  0  0  0
   39.4410   24.1620   35.8300 C   0  0  0  0  0  0  0  0  0  0  0  0
   38.2600   24.5690   36.4380 C   0  0  0  0  0  0  0  0  0  0  0  0
   37.5420   25.4780   35.7490 N   0  0  0  0  0  0  0  0  0  0  0  0
   39.4480   25.9290   32.9840 H   0  0  0  0  0  0  0  0  0  0  0  0
   40.8090   24.2620   34.2030 H   0  0  0  0  0  0  0  0  0  0  0  0
   40.0260   23.4310   36.3750 H   0  0  0  0  0  0  0  0  0  0  0  0
   37.8520   24.0360   37.7310 C   0  0  0  0  0  0  0  0  0  0  0  0
   37.9360   24.7730   38.7420 O   0  0  0  0  0  0  0  0  0  0  0  0
   37.3840   22.7530   37.8460 O   0  0  0  0  0  0  0  0  0  0  0  0
   37.5250   22.2360   38.7010 H   0  0  0  0  0  0  0  0  0  0  0  0
   34.6340   29.4350   34.8880 C   0  0  2  0  0  0  0  0  0  0  0  0
   35.6920   30.4270   34.5620 C   0  0  0  0  0  0  0  0  0  0  0  0
   35.6760   28.9660   34.0350 C   0  0  1  0  0  0  0  0  0  0  0  0
   34.6020   29.1700   35.9650 H   0  0  0  0  0  0  0  0  0  0  0  0
   35.5030   31.2280   33.8240 H   0  0  0  0  0  0  0  0  0  0  0  0
   36.4370   30.6880   35.3190 H   0  0  0  0  0  0  0  0  0  0  0  0
   35.4910   28.9160   32.9220 H   0  0  0  0  0  0  0  0  0  0  0  0
   31.8640   30.4110   32.6030 C   0  0  0  0  0  0  0  0  0  0  0  0
   30.7220   29.8830   33.2950 C   0  0  0  0  0  0  0  0  0  0  0  0
   30.9420   29.2020   34.5600 C   0  0  0  0  0  0  0  0  0  0  0  0
   32.2170   29.0860   35.0420 N   0  0  0  0  0  0  0  0  0  0  0  0
   33.2380   29.6100   34.3300 C   0  0  0  0  0  0  0  0  0  0  0  0
   33.1010   30.2740   33.1160 N   0  0  0  0  0  0  0  0  0  0  0  0
   31.6570   30.9080   31.6720 H   0  0  0  0  0  0  0  0  0  0  0  0
   29.7190   29.9770   32.9120 H   0  0  0  0  0  0  0  0  0  0  0  0
   30.0950   28.8130   35.0680 H   0  0  0  0  0  0  0  0  0  0  0  0
  1  5  1  0  0  0  0
  1  3  1  0  0  0  0
  2  1  2  0  0  0  0
  3  4  1  0  0  0  0
  5 10  1  0  0  0  0
  6  5  2  0  0  0  0
  6  7  1  0  0  0  0
  7  8  2  0  0  0  0
  8 13  1  0  0  0  0
  8  9  1  0  0  0  0
  9 14  1  0  0  0  0
 10  9  2  0  0  0  0
 11  6  1  0  0  0  0
 12  7  1  0  0  0  0
 14 16  1  0  0  0  0
 14 15  2  0  0  0  0
 16 17  1  0  0  0  0
 18 21  1  1  0  0  0
 19 18  1  0  0  0  0
 19 23  1  0  0  0  0
 20 24  1  6  0  0  0
 20 19  1  0  0  0  0
 20  3  1  0  0  0  0
 20 18  1  0  0  0  0
 22 19  1  0  0  0  0
 25 30  2  0  0  0  0
 25 26  1  0  0  0  0
 26 27  2  0  0  0  0
 27 28  1  0  0  0  0
 27 33  1  0  0  0  0
 29 18  1  0  0  0  0
 29 28  2  0  0  0  0
 30 29  1  0  0  0  0
 31 25  1  0  0  0  0
 32 26  1  0  0  0  0
M  END
>  <minimizedAffinity>
-4.95613241

$$$$

 OpenBabel03272508593D

 33 35  0  0  1  0  0  0  0  0999 V2000
   36.4060   28.2860   33.8010 C   0  0  0  0  0  0  0  0  0  0  0  0
   36.8150   28.0140   32.6460 O   0  0  0  0  0  0  0  0  0  0  0  0
   36.8310   27.4990   34.9400 N   0  0  0  0  0  0  0  0  0  0  0  0
   36.3690   27.5390   35.8680 H   0  0  0  0  0  0  0  0  0  0  0  0
   35.4830   29.4120   34.0410 C   0  0  0  0  0  0  0  0  0  0  0  0
   34.3490   29.5080   33.2860 C   0  0  0  0  0  0  0  0  0  0  0  0
   33.5030   30.5760   33.5340 C   0  0  0  0  0  0  0  0  0  0  0  0
   33.8470   31.4710   34.5150 C   0  0  0  0  0  0  0  0  0  0  0  0
   35.0010   31.3760   35.2830 C   0  0  0  0  0  0  0  0  0  0  0  0
   35.7920   30.3210   35.0050 N   0  0  0  0  0  0  0  0  0  0  0  0
   34.0780   28.7970   32.5090 H   0  0  0  0  0  0  0  0  0  0  0  0
   32.5870   30.7150   32.9750 H   0  0  0  0  0  0  0  0  0  0  0  0
   33.2040   32.3160   34.7300 H   0  0  0  0  0  0  0  0  0  0  0  0
   35.3090   32.3610   36.3100 C   0  0  0  0  0  0  0  0  0  0  0  0
   35.9420   33.3950   35.9850 O   0  0  0  0  0  0  0  0  0  0  0  0
   34.9200   32.1680   37.6100 O   0  0  0  0  0  0  0  0  0  0  0  0
   35.4670   32.5510   38.3660 H   0  0  0  0  0  0  0  0  0  0  0  0
   39.1990   26.9090   35.3920 C   0  0  2  0  0  0  0  0  0  0  0  0
   38.3630   25.8760   36.0590 C   0  0  0  0  0  0  0  0  0  0  0  0
   37.9550   26.6200   34.7570 C   0  0  1  0  0  0  0  0  0  0  0  0
   39.3370   27.8210   36.0090 H   0  0  0  0  0  0  0  0  0  0  0  0
   38.6150   24.8030   35.9660 H   0  0  0  0  0  0  0  0  0  0  0  0
   37.8270   26.1270   36.9790 H   0  0  0  0  0  0  0  0  0  0  0  0
   37.9460   25.9340   33.8600 H   0  0  0  0  0  0  0  0  0  0  0  0
   42.1240   24.8660   34.3340 C   0  0  0  0  0  0  0  0  0  0  0  0
   42.7990   25.7720   33.4490 C   0  0  0  0  0  0  0  0  0  0  0  0
   42.2230   27.0900   33.2460 C   0  0  0  0  0  0  0  0  0  0  0  0
   41.0660   27.4200   33.8960 N   0  0  0  0  0  0  0  0  0  0  0  0
   40.4910   26.5110   34.7140 C   0  0  0  0  0  0  0  0  0  0  0  0
   40.9870   25.2350   34.9550 N   0  0  0  0  0  0  0  0  0  0  0  0
   42.5840   23.9020   34.4570 H   0  0  0  0  0  0  0  0  0  0  0  0
   43.7110   25.5080   32.9380 H   0  0  0  0  0  0  0  0  0  0  0  0
   42.7270   27.7560   32.5900 H   0  0  0  0  0  0  0  0  0  0  0  0
  1  5  1  0  0  0  0
  1  3  1  0  0  0  0
  2  1  2  0  0  0  0
  3  4  1  0  0  0  0
  5 10  1  0  0  0  0
  6  7  1  0  0  0  0
  6  5  2  0  0  0  0
  7  8  2  0  0  0  0
  8 13  1  0  0  0  0
  8  9  1  0  0  0  0
  9 14  1  0  0  0  0
 10  9  2  0  0  0  0
 11  6  1  0  0  0  0
 12  7  1  0  0  0  0
 14 16  1  0  0  0  0
 15 14  2  0  0  0  0
 16 17  1  0  0  0  0
 18 21  1  1  0  0  0
 18 19  1  0  0  0  0
 19 23  1  0  0  0  0
 20 24  1  6  0  0  0
 20  3  1  0  0  0  0
 20 18  1  0  0  0  0
 20 19  1  0  0  0  0
 22 19  1  0  0  0  0
 25 31  1  0  0  0  0
 25 30  1  0  0  0  0
 26 25  2  0  0  0  0
 27 26  1  0  0  0  0
 27 28  2  0  0  0  0
 28 29  1  0  0  0  0
 29 30  2  0  0  0  0
 29 18  1  0  0  0  0
 32 26  1  0  0  0  0
 33 27  1  0  0  0  0
M  END
>  <minimizedAffinity>
-4.94785452

$$$$

 OpenBabel03272508593D

 33 35  0  0  1  0  0  0  0  0999 V2000
   38.0940   25.5300   34.4630 C   0  0  0  0  0  0  0  0  0  0  0  0
   37.2980   26.0250   35.2970 O   0  0  0  0  0  0  0  0  0  0  0  0
   37.8120   25.5960   33.0440 N   0  0  0  0  0  0  0  0  0  0  0  0
   38.3110   25.0290   32.3340 H   0  0  0  0  0  0  0  0  0  0  0  0
   39.3390   24.8670   34.8930 C   0  0  0  0  0  0  0  0  0  0  0  0
   40.4970   25.1360   34.2200 C   0  0  0  0  0  0  0  0  0  0  0  0
   41.6490   24.4970   34.6470 C   0  0  0  0  0  0  0  0  0  0  0  0
   41.5650   23.6360   35.7110 C   0  0  0  0  0  0  0  0  0  0  0  0
   40.3880   23.3600   36.3960 C   0  0  0  0  0  0  0  0  0  0  0  0
   39.2950   24.0050   35.9450 N   0  0  0  0  0  0  0  0  0  0  0  0
   40.5610   25.8190   33.3760 H   0  0  0  0  0  0  0  0  0  0  0  0
   42.6020   24.6620   34.1620 H   0  0  0  0  0  0  0  0  0  0  0  0
   42.4510   23.1220   36.0660 H   0  0  0  0  0  0  0  0  0  0  0  0
   40.3670   22.4340   37.5200 C   0  0  0  0  0  0  0  0  0  0  0  0
   41.2570   21.5530   37.5950 O   0  0  0  0  0  0  0  0  0  0  0  0
   39.3930   22.5170   38.4810 O   0  0  0  0  0  0  0  0  0  0  0  0
   39.0890   21.6880   38.9690 H   0  0  0  0  0  0  0  0  0  0  0  0
   37.0570   27.8960   32.4970 C   0  0  2  0  0  0  0  0  0  0  0  0
   37.0650   27.1310   31.2220 C   0  0  0  0  0  0  0  0  0  0  0  0
   36.7800   26.5020   32.6130 C   0  0  1  0  0  0  0  0  0  0  0  0
   38.0500   28.3150   32.7600 H   0  0  0  0  0  0  0  0  0  0  0  0
   36.2150   27.2020   30.5190 H   0  0  0  0  0  0  0  0  0  0  0  0
   38.0190   26.8960   30.7420 H   0  0  0  0  0  0  0  0  0  0  0  0
   35.7070   26.1640   32.7160 H   0  0  0  0  0  0  0  0  0  0  0  0
   34.6250   30.0280   34.3390 C   0  0  0  0  0  0  0  0  0  0  0  0
   34.0010   30.7440   33.2630 C   0  0  0  0  0  0  0  0  0  0  0  0
   34.4360   30.4590   31.9060 C   0  0  0  0  0  0  0  0  0  0  0  0
   35.4170   29.5290   31.7020 N   0  0  0  0  0  0  0  0  0  0  0  0
   35.9560   28.8980   32.7680 C   0  0  0  0  0  0  0  0  0  0  0  0
   35.5880   29.1190   34.0900 N   0  0  0  0  0  0  0  0  0  0  0  0
   34.2740   30.2680   35.3260 H   0  0  0  0  0  0  0  0  0  0  0  0
   33.2270   31.4760   33.4280 H   0  0  0  0  0  0  0  0  0  0  0  0
   33.9710   30.9920   31.1140 H   0  0  0  0  0  0  0  0  0  0  0  0
  1  5  1  0  0  0  0
  1  2  2  0  0  0  0
  3  1  1  0  0  0  0
  4  3  1  0  0  0  0
  5 10  1  0  0  0  0
  6  7  1  0  0  0  0
  6  5  2  0  0  0  0
  7  8  2  0  0  0  0
  8 13  1  0  0  0  0
  8  9  1  0  0  0  0
  9 14  1  0  0  0  0
 10  9  2  0  0  0  0
 11  6  1  0  0  0  0
 12  7  1  0  0  0  0
 14 15  2  0  0  0  0
 14 16  1  0  0  0  0
 16 17  1  0  0  0  0
 18 20  1  0  0  0  0
 18 21  1  1  0  0  0
 18 29  1  0  0  0  0
 19 18  1  0  0  0  0
 19 20  1  0  0  0  0
 20 24  1  1  0  0  0
 20  3  1  0  0  0  0
 22 19  1  0  0  0  0
 23 19  1  0  0  0  0
 25 31  1  0  0  0  0
 26 32  1  0  0  0  0
 26 25  2  0  0  0  0
 27 26  1  0  0  0  0
 28 27  2  0  0  0  0
 28 29  1  0  0  0  0
 29 30  2  0  0  0  0
 30 25  1  0  0  0  0
 33 27  1  0  0  0  0
M  END
>  <minimizedAffinity>
-4.92071962

$$$$
