
 OpenBabel03272504133D

 24 25  0  0  0  0  0  0  0  0999 V2000
   36.5540   29.7290   49.7790 C   0  0  0  0  0  0  0  0  0  0  0  0
   37.5950   30.3270   49.0510 C   0  0  0  0  0  0  0  0  0  0  0  0
   37.4410   30.6430   47.7170 C   0  0  0  0  0  0  0  0  0  0  0  0
   36.2180   30.3340   47.1720 N   0  0  0  0  0  0  0  0  0  0  0  0
   35.2350   29.7660   47.8780 C   0  0  0  0  0  0  0  0  0  0  0  0
   35.4130   29.4720   49.1650 N   0  0  0  0  0  0  0  0  0  0  0  0
   38.5260   30.5370   49.5510 H   0  0  0  0  0  0  0  0  0  0  0  0
   34.3290   29.5820   47.3150 H   0  0  0  0  0  0  0  0  0  0  0  0
   38.2520   33.3710   48.7290 Cl  0  0  0  0  0  0  0  0  0  0  0  0
   38.9310   32.5010   47.3350 C   0  0  0  0  0  0  0  0  0  0  0  0
   38.4910   31.2540   46.9520 C   0  0  0  0  0  0  0  0  0  0  0  0
   39.1060   30.7070   45.8600 C   0  0  0  0  0  0  0  0  0  0  0  0
   40.1010   31.3610   45.1900 C   0  0  0  0  0  0  0  0  0  0  0  0
   40.5560   32.6130   45.5590 C   0  0  0  0  0  0  0  0  0  0  0  0
   39.9320   33.1790   46.6740 C   0  0  0  0  0  0  0  0  0  0  0  0
   38.7770   29.7250   45.5380 H   0  0  0  0  0  0  0  0  0  0  0  0
   40.5370   30.8600   44.3350 H   0  0  0  0  0  0  0  0  0  0  0  0
   41.3450   33.1220   45.0200 H   0  0  0  0  0  0  0  0  0  0  0  0
   40.4010   34.4370   47.0340 O   0  0  0  0  0  0  0  0  0  0  0  0
   39.8910   35.1230   47.5620 H   0  0  0  0  0  0  0  0  0  0  0  0
   36.7760   29.4080   51.2220 C   0  0  0  0  0  0  0  0  0  0  0  0
   35.5670   29.0790   51.8070 F   0  0  0  0  0  0  0  0  0  0  0  0
   37.7190   28.4100   51.2820 F   0  0  0  0  0  0  0  0  0  0  0  0
   37.2560   30.5610   51.8410 F   0  0  0  0  0  0  0  0  0  0  0  0
  1 21  1  0  0  0  0
  2  7  1  0  0  0  0
  2  1  2  0  0  0  0
  3  2  1  0  0  0  0
  4  3  2  0  0  0  0
  4  5  1  0  0  0  0
  5  6  2  0  0  0  0
  6  1  1  0  0  0  0
  8  5  1  0  0  0  0
 10  9  1  0  0  0  0
 11 10  1  0  0  0  0
 11  3  1  0  0  0  0
 12 11  2  0  0  0  0
 13 14  2  0  0  0  0
 13 12  1  0  0  0  0
 14 15  1  0  0  0  0
 15 19  1  0  0  0  0
 15 10  2  0  0  0  0
 16 12  1  0  0  0  0
 17 13  1  0  0  0  0
 18 14  1  0  0  0  0
 19 20  1  0  0  0  0
 21 23  1  0  0  0  0
 21 22  1  0  0  0  0
 21 24  1  0  0  0  0
M  END
>  <minimizedAffinity>
-6.6150794

>  <minimizedRMSD>
0.21286507

$$$$
