
 OpenBabel03272507253D

 26 27  0  0  1  0  0  0  0  0999 V2000
   39.9690   25.7680   32.9990 C   0  0  0  0  0  0  0  0  0  0  0  0
   39.2400   25.2650   34.1010 C   0  0  0  0  0  0  0  0  0  0  0  0
   39.9410   24.5400   35.0750 C   0  0  0  0  0  0  0  0  0  0  0  0
   41.2670   24.3610   34.9140 N   0  0  0  0  0  0  0  0  0  0  0  0
   41.9450   24.8550   33.8470 C   0  0  0  0  0  0  0  0  0  0  0  0
   41.2900   25.5520   32.9020 N   0  0  0  0  0  0  0  0  0  0  0  0
   39.2780   24.0110   36.1910 N   0  0  0  0  0  0  0  0  0  0  0  0
   38.0700   24.5870   36.7930 C   0  0  0  0  0  0  0  0  0  0  0  0
   37.8140   23.7980   38.0510 C   0  0  0  0  0  0  0  0  0  0  0  0
   39.1710   23.2610   38.3430 C   0  0  0  0  0  0  0  0  0  0  0  0
   39.6010   22.8440   36.9550 C   0  0  2  0  0  0  0  0  0  0  0  0
   39.4160   26.3260   32.2550 H   0  0  0  0  0  0  0  0  0  0  0  0
   38.1800   25.4240   34.2040 H   0  0  0  0  0  0  0  0  0  0  0  0
   43.0070   24.6810   33.7680 H   0  0  0  0  0  0  0  0  0  0  0  0
   38.1190   25.6660   36.9170 H   0  0  0  0  0  0  0  0  0  0  0  0
   37.2380   24.3190   36.0890 H   0  0  0  0  0  0  0  0  0  0  0  0
   37.0510   23.0220   37.9640 H   0  0  0  0  0  0  0  0  0  0  0  0
   37.5820   24.5630   38.8480 H   0  0  0  0  0  0  0  0  0  0  0  0
   39.1640   22.3870   39.0310 H   0  0  0  0  0  0  0  0  0  0  0  0
   39.8460   24.0220   38.7660 H   0  0  0  0  0  0  0  0  0  0  0  0
   40.9840   22.3420   36.9120 C   0  0  0  0  0  0  0  0  0  0  0  0
   41.1020   21.3990   37.9300 F   0  0  0  0  0  0  0  0  0  0  0  0
   41.9640   23.2660   37.1310 F   0  0  0  0  0  0  0  0  0  0  0  0
   41.1260   21.6320   35.7360 F   0  0  0  0  0  0  0  0  0  0  0  0
   38.6900   21.8550   36.5200 O   0  0  0  0  0  0  0  0  0  0  0  0
   38.1530   21.6010   37.2960 H   0  0  0  0  0  0  0  0  0  0  0  0
  1  2  1  0  0  0  0
  2 13  1  0  0  0  0
  2  3  2  0  0  0  0
  3  7  1  0  0  0  0
  4  3  1  0  0  0  0
  5  4  2  0  0  0  0
  6  1  2  0  0  0  0
  6  5  1  0  0  0  0
  7  8  1  0  0  0  0
  7 11  1  0  0  0  0
  8 15  1  0  0  0  0
  8  9  1  0  0  0  0
  9 10  1  0  0  0  0
  9 18  1  0  0  0  0
 10 20  1  0  0  0  0
 10 19  1  0  0  0  0
 11 25  1  6  0  0  0
 11 10  1  0  0  0  0
 12  1  1  0  0  0  0
 14  5  1  0  0  0  0
 16  8  1  0  0  0  0
 17  9  1  0  0  0  0
 21 11  1  0  0  0  0
 21 23  1  0  0  0  0
 21 22  1  0  0  0  0
 24 21  1  0  0  0  0
 25 26  1  0  0  0  0
M  END
>  <minimizedAffinity>
-4.71165752

$$$$

 OpenBabel03272507253D

 26 27  0  0  1  0  0  0  0  0999 V2000
   37.0730   23.3770   31.1320 C   0  0  0  0  0  0  0  0  0  0  0  0
   37.6610   23.3060   32.4170 C   0  0  0  0  0  0  0  0  0  0  0  0
   37.5370   24.4220   33.2560 C   0  0  0  0  0  0  0  0  0  0  0  0
   36.8690   25.5000   32.7990 N   0  0  0  0  0  0  0  0  0  0  0  0
   36.3130   25.5440   31.5610 C   0  0  0  0  0  0  0  0  0  0  0  0
   36.4210   24.4830   30.7420 N   0  0  0  0  0  0  0  0  0  0  0  0
   38.0980   24.4200   34.5390 N   0  0  0  0  0  0  0  0  0  0  0  0
   38.2990   23.2180   35.3590 C   0  0  0  0  0  0  0  0  0  0  0  0
   38.7640   23.7060   36.7060 C   0  0  0  0  0  0  0  0  0  0  0  0
   38.2400   25.0980   36.7140 C   0  0  0  0  0  0  0  0  0  0  0  0
   38.5890   25.5250   35.3060 C   0  0  2  0  0  0  0  0  0  0  0  0
   37.1750   22.5090   30.4940 H   0  0  0  0  0  0  0  0  0  0  0  0
   38.1890   22.4310   32.7540 H   0  0  0  0  0  0  0  0  0  0  0  0
   35.7890   26.4330   31.2480 H   0  0  0  0  0  0  0  0  0  0  0  0
   37.4390   22.5530   35.3710 H   0  0  0  0  0  0  0  0  0  0  0  0
   39.1800   22.6980   34.9010 H   0  0  0  0  0  0  0  0  0  0  0  0
   39.8410   23.6480   36.8740 H   0  0  0  0  0  0  0  0  0  0  0  0
   38.1640   23.1220   37.4640 H   0  0  0  0  0  0  0  0  0  0  0  0
   38.7380   25.7570   37.4580 H   0  0  0  0  0  0  0  0  0  0  0  0
   37.1530   25.1420   36.8940 H   0  0  0  0  0  0  0  0  0  0  0  0
   38.0980   26.8740   34.9790 C   0  0  0  0  0  0  0  0  0  0  0  0
   38.5770   27.7280   35.9690 F   0  0  0  0  0  0  0  0  0  0  0  0
   36.7430   27.0300   34.9630 F   0  0  0  0  0  0  0  0  0  0  0  0
   38.7290   27.2690   33.8160 F   0  0  0  0  0  0  0  0  0  0  0  0
   39.9960   25.4580   35.1900 O   0  0  0  0  0  0  0  0  0  0  0  0
   40.3490   25.3240   36.0920 H   0  0  0  0  0  0  0  0  0  0  0  0
  1  2  1  0  0  0  0
  2 13  1  0  0  0  0
  2  3  2  0  0  0  0
  3  7  1  0  0  0  0
  4  3  1  0  0  0  0
  5  4  2  0  0  0  0
  6  1  2  0  0  0  0
  6  5  1  0  0  0  0
  7 11  1  0  0  0  0
  7  8  1  0  0  0  0
  8 15  1  0  0  0  0
  8  9  1  0  0  0  0
  9 10  1  0  0  0  0
  9 17  1  0  0  0  0
  9 18  1  0  0  0  0
 10 20  1  0  0  0  0
 10 19  1  0  0  0  0
 11 25  1  6  0  0  0
 11 10  1  0  0  0  0
 12  1  1  0  0  0  0
 14  5  1  0  0  0  0
 16  8  1  0  0  0  0
 21 11  1  0  0  0  0
 21 22  1  0  0  0  0
 23 21  1  0  0  0  0
 24 21  1  0  0  0  0
 25 26  1  0  0  0  0
M  END
>  <minimizedAffinity>
-4.41664791

$$$$

 OpenBabel03272507253D

 26 27  0  0  1  0  0  0  0  0999 V2000
   39.7010   24.2400   35.0780 C   0  0  0  0  0  0  0  0  0  0  0  0
   38.9100   24.8390   34.0690 C   0  0  0  0  0  0  0  0  0  0  0  0
   37.9010   24.0640   33.4810 C   0  0  0  0  0  0  0  0  0  0  0  0
   37.7360   22.7950   33.9020 N   0  0  0  0  0  0  0  0  0  0  0  0
   38.5080   22.2420   34.8730 C   0  0  0  0  0  0  0  0  0  0  0  0
   39.4810   22.9700   35.4490 N   0  0  0  0  0  0  0  0  0  0  0  0
   37.0840   24.5950   32.4740 N   0  0  0  0  0  0  0  0  0  0  0  0
   36.7410   26.0170   32.3420 C   0  0  0  0  0  0  0  0  0  0  0  0
   35.7200   26.0980   31.2380 C   0  0  0  0  0  0  0  0  0  0  0  0
   35.1640   24.7180   31.2480 C   0  0  0  0  0  0  0  0  0  0  0  0
   36.4370   23.9160   31.3930 C   0  0  2  0  0  0  0  0  0  0  0  0
   40.4760   24.8490   35.5230 H   0  0  0  0  0  0  0  0  0  0  0  0
   39.0660   25.8560   33.7520 H   0  0  0  0  0  0  0  0  0  0  0  0
   38.3310   21.2210   35.1720 H   0  0  0  0  0  0  0  0  0  0  0  0
   36.4560   26.4830   33.2820 H   0  0  0  0  0  0  0  0  0  0  0  0
   37.6680   26.5030   31.9390 H   0  0  0  0  0  0  0  0  0  0  0  0
   36.1120   26.4000   30.2660 H   0  0  0  0  0  0  0  0  0  0  0  0
   34.9100   26.7840   31.6240 H   0  0  0  0  0  0  0  0  0  0  0  0
   34.6330   24.4460   30.3090 H   0  0  0  0  0  0  0  0  0  0  0  0
   34.4750   24.5440   32.0900 H   0  0  0  0  0  0  0  0  0  0  0  0
   36.1890   22.4710   31.5250 C   0  0  0  0  0  0  0  0  0  0  0  0
   35.3160   22.1160   30.5000 F   0  0  0  0  0  0  0  0  0  0  0  0
   35.5990   22.0680   32.6870 F   0  0  0  0  0  0  0  0  0  0  0  0
   37.3760   21.8240   31.2380 F   0  0  0  0  0  0  0  0  0  0  0  0
   37.2310   24.1900   30.2560 O   0  0  0  0  0  0  0  0  0  0  0  0
   36.6650   24.6780   29.6260 H   0  0  0  0  0  0  0  0  0  0  0  0
  1  6  1  0  0  0  0
  1 12  1  0  0  0  0
  2  1  2  0  0  0  0
  3  4  2  0  0  0  0
  3  2  1  0  0  0  0
  4  5  1  0  0  0  0
  5 14  1  0  0  0  0
  5  6  2  0  0  0  0
  7  3  1  0  0  0  0
  8  7  1  0  0  0  0
  8 15  1  0  0  0  0
  9 10  1  0  0  0  0
  9 18  1  0  0  0  0
  9  8  1  0  0  0  0
 10 11  1  0  0  0  0
 10 20  1  0  0  0  0
 11 25  1  6  0  0  0
 11 21  1  0  0  0  0
 11  7  1  0  0  0  0
 13  2  1  0  0  0  0
 16  8  1  0  0  0  0
 17  9  1  0  0  0  0
 19 10  1  0  0  0  0
 21 23  1  0  0  0  0
 22 21  1  0  0  0  0
 24 21  1  0  0  0  0
 26 25  1  0  0  0  0
M  END
>  <minimizedAffinity>
-4.38667488

$$$$

 OpenBabel03272507253D

 26 27  0  0  1  0  0  0  0  0999 V2000
   36.9340   27.7680   30.7030 C   0  0  0  0  0  0  0  0  0  0  0  0
   38.0610   27.7750   31.5580 C   0  0  0  0  0  0  0  0  0  0  0  0
   38.1280   26.7980   32.5610 C   0  0  0  0  0  0  0  0  0  0  0  0
   37.1220   25.9070   32.6600 N   0  0  0  0  0  0  0  0  0  0  0  0
   36.0500   25.9200   31.8270 C   0  0  0  0  0  0  0  0  0  0  0  0
   35.9680   26.8490   30.8580 N   0  0  0  0  0  0  0  0  0  0  0  0
   39.2150   26.7500   33.4440 N   0  0  0  0  0  0  0  0  0  0  0  0
   40.5730   27.2040   33.1200 C   0  0  0  0  0  0  0  0  0  0  0  0
   41.4340   26.8100   34.2910 C   0  0  0  0  0  0  0  0  0  0  0  0
   40.6420   25.6970   34.8790 C   0  0  0  0  0  0  0  0  0  0  0  0
   39.2510   26.2830   34.7970 C   0  0  2  0  0  0  0  0  0  0  0  0
   36.8950   28.5270   29.9330 H   0  0  0  0  0  0  0  0  0  0  0  0
   38.8500   28.4990   31.4550 H   0  0  0  0  0  0  0  0  0  0  0  0
   35.2740   25.1820   31.9510 H   0  0  0  0  0  0  0  0  0  0  0  0
   40.9210   26.8690   32.1460 H   0  0  0  0  0  0  0  0  0  0  0  0
   40.5180   28.3240   33.1430 H   0  0  0  0  0  0  0  0  0  0  0  0
   41.6470   27.6110   35.0000 H   0  0  0  0  0  0  0  0  0  0  0  0
   42.3650   26.3530   33.8430 H   0  0  0  0  0  0  0  0  0  0  0  0
   40.9100   25.4690   35.9340 H   0  0  0  0  0  0  0  0  0  0  0  0
   40.7250   24.7630   34.2980 H   0  0  0  0  0  0  0  0  0  0  0  0
   38.2080   25.3420   35.2390 C   0  0  0  0  0  0  0  0  0  0  0  0
   38.5820   24.8910   36.5020 F   0  0  0  0  0  0  0  0  0  0  0  0
   38.0400   24.2290   34.4690 F   0  0  0  0  0  0  0  0  0  0  0  0
   37.0540   26.0750   35.4370 F   0  0  0  0  0  0  0  0  0  0  0  0
   39.2470   27.4520   35.5910 O   0  0  0  0  0  0  0  0  0  0  0  0
   40.0830   27.4530   36.0990 H   0  0  0  0  0  0  0  0  0  0  0  0
  1  6  2  0  0  0  0
  1  2  1  0  0  0  0
  2  3  2  0  0  0  0
  3  4  1  0  0  0  0
  3  7  1  0  0  0  0
  5 14  1  0  0  0  0
  5  4  2  0  0  0  0
  6  5  1  0  0  0  0
  7 11  1  0  0  0  0
  8 16  1  0  0  0  0
  8  7  1  0  0  0  0
  8  9  1  0  0  0  0
  9 10  1  0  0  0  0
  9 17  1  0  0  0  0
 10 19  1  0  0  0  0
 11 10  1  0  0  0  0
 11 21  1  0  0  0  0
 11 25  1  1  0  0  0
 12  1  1  0  0  0  0
 13  2  1  0  0  0  0
 15  8  1  0  0  0  0
 18  9  1  0  0  0  0
 20 10  1  0  0  0  0
 21 24  1  0  0  0  0
 21 22  1  0  0  0  0
 23 21  1  0  0  0  0
 25 26  1  0  0  0  0
M  END
>  <minimizedAffinity>
-4.31637192

$$$$

 OpenBabel03272507253D

 26 27  0  0  1  0  0  0  0  0999 V2000
   31.4720   29.4430   34.3720 C   0  0  0  0  0  0  0  0  0  0  0  0
   31.8300   30.4990   35.2420 C   0  0  0  0  0  0  0  0  0  0  0  0
   33.0800   31.1060   35.0560 C   0  0  0  0  0  0  0  0  0  0  0  0
   33.8730   30.6560   34.0650 N   0  0  0  0  0  0  0  0  0  0  0  0
   33.5070   29.6400   33.2410 C   0  0  0  0  0  0  0  0  0  0  0  0
   32.3120   29.0450   33.4040 N   0  0  0  0  0  0  0  0  0  0  0  0
   33.4970   32.1560   35.8850 N   0  0  0  0  0  0  0  0  0  0  0  0
   32.5930   33.1030   36.5500 C   0  0  0  0  0  0  0  0  0  0  0  0
   33.4770   34.1440   37.1870 C   0  0  0  0  0  0  0  0  0  0  0  0
   34.7110   34.0280   36.3640 C   0  0  0  0  0  0  0  0  0  0  0  0
   34.8270   32.5240   36.2640 C   0  0  2  0  0  0  0  0  0  0  0  0
   30.5050   28.9830   34.5260 H   0  0  0  0  0  0  0  0  0  0  0  0
   31.1750   30.8380   36.0260 H   0  0  0  0  0  0  0  0  0  0  0  0
   34.1820   29.3200   32.4630 H   0  0  0  0  0  0  0  0  0  0  0  0
   31.8100   33.4840   35.9000 H   0  0  0  0  0  0  0  0  0  0  0  0
   32.1400   32.5250   37.3990 H   0  0  0  0  0  0  0  0  0  0  0  0
   33.6540   34.0100   38.2550 H   0  0  0  0  0  0  0  0  0  0  0  0
   33.0030   35.1380   36.9360 H   0  0  0  0  0  0  0  0  0  0  0  0
   35.6120   34.4600   36.8520 H   0  0  0  0  0  0  0  0  0  0  0  0
   34.6040   34.4940   35.3710 H   0  0  0  0  0  0  0  0  0  0  0  0
   35.9430   32.0930   35.4050 C   0  0  0  0  0  0  0  0  0  0  0  0
   37.0580   32.8330   35.7910 F   0  0  0  0  0  0  0  0  0  0  0  0
   35.7860   32.3090   34.0670 F   0  0  0  0  0  0  0  0  0  0  0  0
   36.2360   30.7860   35.7390 F   0  0  0  0  0  0  0  0  0  0  0  0
   34.9850   32.0330   37.5810 O   0  0  0  0  0  0  0  0  0  0  0  0
   35.1450   32.8070   38.1550 H   0  0  0  0  0  0  0  0  0  0  0  0
  1 12  1  0  0  0  0
  1  2  1  0  0  0  0
  2 13  1  0  0  0  0
  3  2  2  0  0  0  0
  3  7  1  0  0  0  0
  4  3  1  0  0  0  0
  5  6  1  0  0  0  0
  5  4  2  0  0  0  0
  6  1  2  0  0  0  0
  7 11  1  0  0  0  0
  7  8  1  0  0  0  0
  8  9  1  0  0  0  0
  8 16  1  0  0  0  0
  9 17  1  0  0  0  0
 10 19  1  0  0  0  0
 10  9  1  0  0  0  0
 11 10  1  0  0  0  0
 11 25  1  1  0  0  0
 14  5  1  0  0  0  0
 15  8  1  0  0  0  0
 18  9  1  0  0  0  0
 20 10  1  0  0  0  0
 21 24  1  0  0  0  0
 21 22  1  0  0  0  0
 21 11  1  0  0  0  0
 23 21  1  0  0  0  0
 25 26  1  0  0  0  0
M  END
>  <minimizedAffinity>
-4.29674768

$$$$

 OpenBabel03272507253D

 26 27  0  0  1  0  0  0  0  0999 V2000
   38.3600   22.4250   36.0000 C   0  0  0  0  0  0  0  0  0  0  0  0
   38.4340   23.1530   34.7890 C   0  0  0  0  0  0  0  0  0  0  0  0
   38.3140   24.5480   34.8540 C   0  0  0  0  0  0  0  0  0  0  0  0
   38.1340   25.1230   36.0600 N   0  0  0  0  0  0  0  0  0  0  0  0
   38.0670   24.4030   37.2090 C   0  0  0  0  0  0  0  0  0  0  0  0
   38.1800   23.0640   37.1670 N   0  0  0  0  0  0  0  0  0  0  0  0
   38.3750   25.3280   33.6920 N   0  0  0  0  0  0  0  0  0  0  0  0
   39.1220   24.9630   32.4810 C   0  0  0  0  0  0  0  0  0  0  0  0
   39.0440   26.1580   31.5680 C   0  0  0  0  0  0  0  0  0  0  0  0
   38.7790   27.2550   32.5380 C   0  0  0  0  0  0  0  0  0  0  0  0
   37.7510   26.5880   33.4240 C   0  0  2  0  0  0  0  0  0  0  0  0
   38.4550   21.3500   35.9360 H   0  0  0  0  0  0  0  0  0  0  0  0
   38.5780   22.6660   33.8400 H   0  0  0  0  0  0  0  0  0  0  0  0
   37.9220   24.9160   38.1470 H   0  0  0  0  0  0  0  0  0  0  0  0
   40.1230   24.5910   32.6860 H   0  0  0  0  0  0  0  0  0  0  0  0
   38.5070   24.1620   31.9920 H   0  0  0  0  0  0  0  0  0  0  0  0
   38.2950   26.0890   30.7780 H   0  0  0  0  0  0  0  0  0  0  0  0
   40.0920   26.3090   31.1760 H   0  0  0  0  0  0  0  0  0  0  0  0
   38.3580   28.1710   32.0690 H   0  0  0  0  0  0  0  0  0  0  0  0
   39.6780   27.5450   33.1060 H   0  0  0  0  0  0  0  0  0  0  0  0
   37.3520   27.4260   34.5670 C   0  0  0  0  0  0  0  0  0  0  0  0
   36.8430   28.6100   34.0390 F   0  0  0  0  0  0  0  0  0  0  0  0
   38.3510   27.7870   35.4230 F   0  0  0  0  0  0  0  0  0  0  0  0
   36.2790   26.8050   35.1750 F   0  0  0  0  0  0  0  0  0  0  0  0
   36.6380   26.2820   32.6080 O   0  0  0  0  0  0  0  0  0  0  0  0
   36.7770   26.7380   31.7550 H   0  0  0  0  0  0  0  0  0  0  0  0
  1  6  1  0  0  0  0
  2  3  1  0  0  0  0
  2  1  2  0  0  0  0
  3  4  2  0  0  0  0
  4  5  1  0  0  0  0
  5 14  1  0  0  0  0
  6  5  2  0  0  0  0
  7  3  1  0  0  0  0
  8 15  1  0  0  0  0
  8  7  1  0  0  0  0
  9  8  1  0  0  0  0
  9 10  1  0  0  0  0
 10 20  1  0  0  0  0
 10 11  1  0  0  0  0
 11 25  1  6  0  0  0
 11  7  1  0  0  0  0
 11 21  1  0  0  0  0
 12  1  1  0  0  0  0
 13  2  1  0  0  0  0
 16  8  1  0  0  0  0
 17  9  1  0  0  0  0
 18  9  1  0  0  0  0
 19 10  1  0  0  0  0
 21 24  1  0  0  0  0
 21 23  1  0  0  0  0
 22 21  1  0  0  0  0
 26 25  1  0  0  0  0
M  END
>  <minimizedAffinity>
-4.21849012

$$$$

 OpenBabel03272507253D

 26 27  0  0  1  0  0  0  0  0999 V2000
   36.6490   26.3450   31.9060 C   0  0  0  0  0  0  0  0  0  0  0  0
   37.3350   25.1800   32.3240 C   0  0  0  0  0  0  0  0  0  0  0  0
   36.7690   23.9370   32.0070 C   0  0  0  0  0  0  0  0  0  0  0  0
   35.6070   23.9140   31.3250 N   0  0  0  0  0  0  0  0  0  0  0  0
   34.9670   25.0470   30.9340 C   0  0  0  0  0  0  0  0  0  0  0  0
   35.4950   26.2480   31.2290 N   0  0  0  0  0  0  0  0  0  0  0  0
   37.3950   22.7450   32.3940 N   0  0  0  0  0  0  0  0  0  0  0  0
   38.8430   22.5850   32.5760 C   0  0  0  0  0  0  0  0  0  0  0  0
   39.0720   21.1160   32.8220 C   0  0  0  0  0  0  0  0  0  0  0  0
   37.8600   20.5200   32.1970 C   0  0  0  0  0  0  0  0  0  0  0  0
   36.8010   21.4770   32.6940 C   0  0  2  0  0  0  0  0  0  0  0  0
   37.0970   27.2970   32.1570 H   0  0  0  0  0  0  0  0  0  0  0  0
   38.2620   25.2290   32.8680 H   0  0  0  0  0  0  0  0  0  0  0  0
   34.0400   24.9690   30.3900 H   0  0  0  0  0  0  0  0  0  0  0  0
   39.4320   23.0250   31.7750 H   0  0  0  0  0  0  0  0  0  0  0  0
   39.0720   23.0980   33.5470 H   0  0  0  0  0  0  0  0  0  0  0  0
   39.2010   20.8370   33.8690 H   0  0  0  0  0  0  0  0  0  0  0  0
   39.9520   20.8330   32.1740 H   0  0  0  0  0  0  0  0  0  0  0  0
   37.6460   19.4840   32.5420 H   0  0  0  0  0  0  0  0  0  0  0  0
   37.9120   20.5080   31.0960 H   0  0  0  0  0  0  0  0  0  0  0  0
   35.4650   21.1850   32.1490 C   0  0  0  0  0  0  0  0  0  0  0  0
   35.5640   21.2900   30.7640 F   0  0  0  0  0  0  0  0  0  0  0  0
   34.4660   22.0340   32.5260 F   0  0  0  0  0  0  0  0  0  0  0  0
   35.2040   19.8520   32.3990 F   0  0  0  0  0  0  0  0  0  0  0  0
   36.8000   21.3960   34.1060 O   0  0  0  0  0  0  0  0  0  0  0  0
   37.3550   20.6290   34.3470 H   0  0  0  0  0  0  0  0  0  0  0  0
  1 12  1  0  0  0  0
  1  2  1  0  0  0  0
  2 13  1  0  0  0  0
  3  2  2  0  0  0  0
  3  7  1  0  0  0  0
  4  3  1  0  0  0  0
  5  6  1  0  0  0  0
  5  4  2  0  0  0  0
  6  1  2  0  0  0  0
  7  8  1  0  0  0  0
  7 11  1  0  0  0  0
  8  9  1  0  0  0  0
  8 16  1  0  0  0  0
  9 17  1  0  0  0  0
 10 19  1  0  0  0  0
 10 11  1  0  0  0  0
 10  9  1  0  0  0  0
 11 25  1  1  0  0  0
 14  5  1  0  0  0  0
 15  8  1  0  0  0  0
 18  9  1  0  0  0  0
 20 10  1  0  0  0  0
 21 24  1  0  0  0  0
 21 23  1  0  0  0  0
 21 11  1  0  0  0  0
 22 21  1  0  0  0  0
 25 26  1  0  0  0  0
M  END
>  <minimizedAffinity>
-4.19990253

$$$$

 OpenBabel03272507253D

 26 27  0  0  1  0  0  0  0  0999 V2000
   35.5290   20.3640   33.7750 C   0  0  0  0  0  0  0  0  0  0  0  0
   36.0870   20.9440   34.9380 C   0  0  0  0  0  0  0  0  0  0  0  0
   37.2000   21.7820   34.7830 C   0  0  0  0  0  0  0  0  0  0  0  0
   37.6790   21.9930   33.5420 N   0  0  0  0  0  0  0  0  0  0  0  0
   37.1250   21.4260   32.4390 C   0  0  0  0  0  0  0  0  0  0  0  0
   36.0570   20.6180   32.5680 N   0  0  0  0  0  0  0  0  0  0  0  0
   37.8030   22.3860   35.8950 N   0  0  0  0  0  0  0  0  0  0  0  0
   37.1010   22.7370   37.1360 C   0  0  0  0  0  0  0  0  0  0  0  0
   38.0920   23.5060   37.9710 C   0  0  0  0  0  0  0  0  0  0  0  0
   39.0280   24.0090   36.9300 C   0  0  0  0  0  0  0  0  0  0  0  0
   39.1700   22.7700   36.0740 C   0  0  2  0  0  0  0  0  0  0  0  0
   34.6710   19.7190   33.9080 H   0  0  0  0  0  0  0  0  0  0  0  0
   35.6830   20.7570   35.9180 H   0  0  0  0  0  0  0  0  0  0  0  0
   37.5500   21.6300   31.4690 H   0  0  0  0  0  0  0  0  0  0  0  0
   36.1460   23.2280   36.9690 H   0  0  0  0  0  0  0  0  0  0  0  0
   36.9450   21.7610   37.6670 H   0  0  0  0  0  0  0  0  0  0  0  0
   38.5850   22.9280   38.7540 H   0  0  0  0  0  0  0  0  0  0  0  0
   37.5260   24.3990   38.3660 H   0  0  0  0  0  0  0  0  0  0  0  0
   40.0160   24.3210   37.3340 H   0  0  0  0  0  0  0  0  0  0  0  0
   38.6120   24.8530   36.3560 H   0  0  0  0  0  0  0  0  0  0  0  0
   39.9950   22.9950   34.8750 C   0  0  0  0  0  0  0  0  0  0  0  0
   41.1930   23.5560   35.3100 F   0  0  0  0  0  0  0  0  0  0  0  0
   39.4840   23.8570   33.9490 F   0  0  0  0  0  0  0  0  0  0  0  0
   40.3320   21.7540   34.3710 F   0  0  0  0  0  0  0  0  0  0  0  0
   39.7320   21.7640   36.8920 O   0  0  0  0  0  0  0  0  0  0  0  0
   40.0250   22.2000   37.7170 H   0  0  0  0  0  0  0  0  0  0  0  0
  1 12  1  0  0  0  0
  1  2  1  0  0  0  0
  2 13  1  0  0  0  0
  3  2  2  0  0  0  0
  3  7  1  0  0  0  0
  4  3  1  0  0  0  0
  5  6  1  0  0  0  0
  5  4  2  0  0  0  0
  6  1  2  0  0  0  0
  7 11  1  0  0  0  0
  7  8  1  0  0  0  0
  8 16  1  0  0  0  0
  8  9  1  0  0  0  0
  9 18  1  0  0  0  0
  9 17  1  0  0  0  0
 10 19  1  0  0  0  0
 10  9  1  0  0  0  0
 11 25  1  1  0  0  0
 11 10  1  0  0  0  0
 14  5  1  0  0  0  0
 15  8  1  0  0  0  0
 20 10  1  0  0  0  0
 21 22  1  0  0  0  0
 21 11  1  0  0  0  0
 23 21  1  0  0  0  0
 24 21  1  0  0  0  0
 25 26  1  0  0  0  0
M  END
>  <minimizedAffinity>
-4.16821003

$$$$

 OpenBabel03272507253D

 26 27  0  0  1  0  0  0  0  0999 V2000
   35.5980   24.3020   30.9440 C   0  0  0  0  0  0  0  0  0  0  0  0
   36.5540   23.9340   31.9200 C   0  0  0  0  0  0  0  0  0  0  0  0
   37.1030   24.9500   32.7150 C   0  0  0  0  0  0  0  0  0  0  0  0
   36.6960   26.2190   32.5110 N   0  0  0  0  0  0  0  0  0  0  0  0
   35.7760   26.5470   31.5670 C   0  0  0  0  0  0  0  0  0  0  0  0
   35.2380   25.5870   30.7950 N   0  0  0  0  0  0  0  0  0  0  0  0
   38.0570   24.6550   33.6980 N   0  0  0  0  0  0  0  0  0  0  0  0
   38.1460   23.3770   34.4160 C   0  0  0  0  0  0  0  0  0  0  0  0
   39.1950   23.5700   35.4800 C   0  0  0  0  0  0  0  0  0  0  0  0
   39.1810   25.0490   35.6440 C   0  0  0  0  0  0  0  0  0  0  0  0
   39.1150   25.4800   34.1970 C   0  0  2  0  0  0  0  0  0  0  0  0
   35.1820   23.5090   30.3380 H   0  0  0  0  0  0  0  0  0  0  0  0
   36.8600   22.9120   32.0600 H   0  0  0  0  0  0  0  0  0  0  0  0
   35.4870   27.5790   31.4470 H   0  0  0  0  0  0  0  0  0  0  0  0
   37.1840   23.0080   34.7640 H   0  0  0  0  0  0  0  0  0  0  0  0
   38.5880   22.6590   33.6760 H   0  0  0  0  0  0  0  0  0  0  0  0
   40.1800   23.1710   35.2370 H   0  0  0  0  0  0  0  0  0  0  0  0
   38.7560   23.1280   36.4220 H   0  0  0  0  0  0  0  0  0  0  0  0
   40.0960   25.4510   36.1320 H   0  0  0  0  0  0  0  0  0  0  0  0
   38.3070   25.4050   36.2140 H   0  0  0  0  0  0  0  0  0  0  0  0
   38.9960   26.9390   34.0400 C   0  0  0  0  0  0  0  0  0  0  0  0
   40.0330   27.5090   34.7730 F   0  0  0  0  0  0  0  0  0  0  0  0
   37.8440   27.5000   34.5090 F   0  0  0  0  0  0  0  0  0  0  0  0
   39.2740   27.2330   32.7200 F   0  0  0  0  0  0  0  0  0  0  0  0
   40.2860   24.9990   33.5680 O   0  0  0  0  0  0  0  0  0  0  0  0
   40.8780   24.6790   34.2770 H   0  0  0  0  0  0  0  0  0  0  0  0
  1  2  1  0  0  0  0
  2 13  1  0  0  0  0
  2  3  2  0  0  0  0
  3  7  1  0  0  0  0
  4  3  1  0  0  0  0
  5  4  2  0  0  0  0
  6  1  2  0  0  0  0
  6  5  1  0  0  0  0
  7 11  1  0  0  0  0
  7  8  1  0  0  0  0
  8 15  1  0  0  0  0
  8  9  1  0  0  0  0
  9 10  1  0  0  0  0
  9 18  1  0  0  0  0
 10 19  1  0  0  0  0
 10 20  1  0  0  0  0
 11 25  1  6  0  0  0
 11 10  1  0  0  0  0
 12  1  1  0  0  0  0
 14  5  1  0  0  0  0
 16  8  1  0  0  0  0
 17  9  1  0  0  0  0
 21 11  1  0  0  0  0
 21 23  1  0  0  0  0
 21 22  1  0  0  0  0
 24 21  1  0  0  0  0
 25 26  1  0  0  0  0
M  END
>  <minimizedAffinity>
-4.14394188

$$$$
