
 OpenBabel03272510283D

 38 41  0  0  1  0  0  0  0  0999 V2000
   37.4040   23.1940   33.0040 C   0  0  0  0  0  0  0  0  0  0  0  0
   36.5260   22.7810   32.0260 C   0  0  0  0  0  0  0  0  0  0  0  0
   35.9210   23.7010   31.1610 C   0  0  0  0  0  0  0  0  0  0  0  0
   36.2510   25.0330   31.3440 C   0  0  0  0  0  0  0  0  0  0  0  0
   35.7990   26.1070   30.6310 N   0  0  0  0  0  0  0  0  0  0  0  0
   36.3930   27.1860   31.1640 C   0  0  0  0  0  0  0  0  0  0  0  0
   37.1790   26.8360   32.1580 N   0  0  0  0  0  0  0  0  0  0  0  0
   37.1250   25.4870   32.3110 C   0  0  0  0  0  0  0  0  0  0  0  0
   37.7120   24.5400   33.1590 C   0  0  0  0  0  0  0  0  0  0  0  0
   37.8950   22.5340   33.6900 H   0  0  0  0  0  0  0  0  0  0  0  0
   35.2300   23.3680   30.3930 H   0  0  0  0  0  0  0  0  0  0  0  0
   35.1210   26.0920   29.8240 H   0  0  0  0  0  0  0  0  0  0  0  0
   38.3950   24.9020   33.9130 H   0  0  0  0  0  0  0  0  0  0  0  0
   36.1180   19.2360   30.8290 C   0  0  0  0  0  0  0  0  0  0  0  0
   36.4360   20.5860   30.7920 C   0  0  0  0  0  0  0  0  0  0  0  0
   36.2430   21.3610   31.9120 C   0  0  0  0  0  0  0  0  0  0  0  0
   35.7370   20.7410   33.0210 N   0  0  0  0  0  0  0  0  0  0  0  0
   35.4290   19.4300   33.0570 C   0  0  0  0  0  0  0  0  0  0  0  0
   35.6210   18.6910   31.9680 N   0  0  0  0  0  0  0  0  0  0  0  0
   36.2680   18.6210   29.9500 H   0  0  0  0  0  0  0  0  0  0  0  0
   36.8320   21.0730   29.9230 H   0  0  0  0  0  0  0  0  0  0  0  0
   35.0350   19.0720   34.0110 H   0  0  0  0  0  0  0  0  0  0  0  0
   36.1540   28.4750   30.6650 O   0  0  0  0  0  0  0  0  0  0  0  0
   37.3530   28.2580   28.7320 N   0  0  0  0  0  0  0  0  0  0  0  0
   37.2290   29.0790   29.9570 C   0  0  1  0  0  0  0  0  0  0  0  0
   36.9300   30.4520   29.5630 C   0  0  0  0  0  0  0  0  0  0  0  0
   38.0380   30.9630   28.8620 O   0  0  0  0  0  0  0  0  0  0  0  0
   38.4180   30.2390   27.7700 C   0  0  0  0  0  0  0  0  0  0  0  0
   38.5300   28.7610   28.0590 C   0  0  1  0  0  0  0  0  0  0  0  0
   37.5210   27.2680   28.9750 H   0  0  0  0  0  0  0  0  0  0  0  0
   38.1810   29.0390   30.5160 H   0  0  0  0  0  0  0  0  0  0  0  0
   36.1090   30.7540   28.9730 H   0  0  0  0  0  0  0  0  0  0  0  0
   36.9060   31.0820   30.5040 H   0  0  0  0  0  0  0  0  0  0  0  0
   39.4210   30.5750   27.4740 H   0  0  0  0  0  0  0  0  0  0  0  0
   37.6710   30.3800   26.9500 H   0  0  0  0  0  0  0  0  0  0  0  0
   38.5890   28.2320   27.0800 H   0  0  0  0  0  0  0  0  0  0  0  0
   39.6970   28.4580   28.7620 O   0  0  0  0  0  0  0  0  0  0  0  0
   39.5680   27.6430   29.3200 H   0  0  0  0  0  0  0  0  0  0  0  0
  1  9  1  0  0  0  0
  1 10  1  0  0  0  0
  2  1  2  0  0  0  0
  3  4  2  0  0  0  0
  3  2  1  0  0  0  0
  4  8  1  0  0  0  0
  5  6  1  0  0  0  0
  5  4  1  0  0  0  0
  6  7  2  0  0  0  0
  7  8  1  0  0  0  0
  8  9  2  0  0  0  0
  9 13  1  0  0  0  0
 11  3  1  0  0  0  0
 12  5  1  0  0  0  0
 14 19  1  0  0  0  0
 15 14  2  0  0  0  0
 15 16  1  0  0  0  0
 16  2  1  0  0  0  0
 16 17  2  0  0  0  0
 17 18  1  0  0  0  0
 18 22  1  0  0  0  0
 19 18  2  0  0  0  0
 20 14  1  0  0  0  0
 21 15  1  0  0  0  0
 23  6  1  0  0  0  0
 24 30  1  0  0  0  0
 24 25  1  0  0  0  0
 25 31  1  1  0  0  0
 25 23  1  0  0  0  0
 26 25  1  0  0  0  0
 26 33  1  0  0  0  0
 27 26  1  0  0  0  0
 28 29  1  0  0  0  0
 28 27  1  0  0  0  0
 29 36  1  6  0  0  0
 29 24  1  0  0  0  0
 29 37  1  0  0  0  0
 32 26  1  0  0  0  0
 34 28  1  0  0  0  0
 35 28  1  0  0  0  0
 37 38  1  0  0  0  0
M  END
>  <minimizedAffinity>
-5.51133156

$$$$

 OpenBabel03272510283D

 38 41  0  0  1  0  0  0  0  0999 V2000
   38.1870   25.0500   33.8010 C   0  0  0  0  0  0  0  0  0  0  0  0
   38.0400   25.4190   35.1200 C   0  0  0  0  0  0  0  0  0  0  0  0
   37.3980   26.6130   35.4710 C   0  0  0  0  0  0  0  0  0  0  0  0
   36.9270   27.3930   34.4280 C   0  0  0  0  0  0  0  0  0  0  0  0
   36.2700   28.5870   34.5140 N   0  0  0  0  0  0  0  0  0  0  0  0
   36.0100   28.9620   33.2520 C   0  0  0  0  0  0  0  0  0  0  0  0
   36.4680   28.0690   32.4020 N   0  0  0  0  0  0  0  0  0  0  0  0
   37.0550   27.0590   33.0940 C   0  0  0  0  0  0  0  0  0  0  0  0
   37.7010   25.8580   32.7800 C   0  0  0  0  0  0  0  0  0  0  0  0
   38.6670   24.1480   33.4780 H   0  0  0  0  0  0  0  0  0  0  0  0
   37.2850   26.8970   36.5120 H   0  0  0  0  0  0  0  0  0  0  0  0
   36.0180   29.1090   35.3930 H   0  0  0  0  0  0  0  0  0  0  0  0
   37.7980   25.6030   31.7360 H   0  0  0  0  0  0  0  0  0  0  0  0
   38.6320   23.4370   38.2650 C   0  0  0  0  0  0  0  0  0  0  0  0
   38.0150   24.3140   37.3850 C   0  0  0  0  0  0  0  0  0  0  0  0
   38.5680   24.5340   36.1440 C   0  0  0  0  0  0  0  0  0  0  0  0
   39.7200   23.8610   35.8450 N   0  0  0  0  0  0  0  0  0  0  0  0
   40.3190   23.0100   36.7000 C   0  0  0  0  0  0  0  0  0  0  0  0
   39.7750   22.8040   37.8960 N   0  0  0  0  0  0  0  0  0  0  0  0
   38.2020   23.2600   39.2430 H   0  0  0  0  0  0  0  0  0  0  0  0
   37.1110   24.8430   37.6190 H   0  0  0  0  0  0  0  0  0  0  0  0
   41.2330   22.5420   36.3240 H   0  0  0  0  0  0  0  0  0  0  0  0
   35.3340   30.1570   32.9670 O   0  0  0  0  0  0  0  0  0  0  0  0
   35.9070   31.8620   34.3780 N   0  0  0  0  0  0  0  0  0  0  0  0
   34.8400   30.8760   34.0910 C   0  0  1  0  0  0  0  0  0  0  0  0
   33.6120   31.6030   33.7870 C   0  0  0  0  0  0  0  0  0  0  0  0
   33.2060   32.2910   34.9450 O   0  0  0  0  0  0  0  0  0  0  0  0
   34.1330   33.1440   35.4680 C   0  0  0  0  0  0  0  0  0  0  0  0
   35.4980   32.5140   35.6010 C   0  0  1  0  0  0  0  0  0  0  0  0
   36.8050   31.3820   34.5540 H   0  0  0  0  0  0  0  0  0  0  0  0
   34.6960   30.2330   34.9770 H   0  0  0  0  0  0  0  0  0  0  0  0
   33.5000   32.3250   33.0240 H   0  0  0  0  0  0  0  0  0  0  0  0
   32.7890   30.8390   33.6370 H   0  0  0  0  0  0  0  0  0  0  0  0
   33.8120   33.4100   36.4840 H   0  0  0  0  0  0  0  0  0  0  0  0
   34.2250   34.0440   34.8110 H   0  0  0  0  0  0  0  0  0  0  0  0
   36.2300   33.3340   35.7860 H   0  0  0  0  0  0  0  0  0  0  0  0
   35.5640   31.6490   36.6950 O   0  0  0  0  0  0  0  0  0  0  0  0
   36.2380   30.9340   36.5360 H   0  0  0  0  0  0  0  0  0  0  0  0
  1  2  1  0  0  0  0
  2  3  2  0  0  0  0
  2 16  1  0  0  0  0
  3 11  1  0  0  0  0
  4  5  1  0  0  0  0
  4  3  1  0  0  0  0
  5 12  1  0  0  0  0
  6  5  1  0  0  0  0
  7  8  1  0  0  0  0
  7  6  2  0  0  0  0
  8  4  2  0  0  0  0
  9  8  1  0  0  0  0
  9  1  2  0  0  0  0
 10  1  1  0  0  0  0
 13  9  1  0  0  0  0
 14 20  1  0  0  0  0
 15 21  1  0  0  0  0
 15 14  2  0  0  0  0
 16 15  1  0  0  0  0
 17 16  2  0  0  0  0
 17 18  1  0  0  0  0
 18 19  2  0  0  0  0
 19 14  1  0  0  0  0
 22 18  1  0  0  0  0
 23  6  1  0  0  0  0
 23 25  1  0  0  0  0
 24 30  1  0  0  0  0
 24 29  1  0  0  0  0
 25 24  1  0  0  0  0
 25 31  1  1  0  0  0
 26 25  1  0  0  0  0
 26 27  1  0  0  0  0
 27 28  1  0  0  0  0
 28 29  1  0  0  0  0
 28 34  1  0  0  0  0
 29 36  1  1  0  0  0
 29 37  1  0  0  0  0
 32 26  1  0  0  0  0
 33 26  1  0  0  0  0
 35 28  1  0  0  0  0
 38 37  1  0  0  0  0
M  END
>  <minimizedAffinity>
-5.50920868

$$$$

 OpenBabel03272510283D

 38 41  0  0  1  0  0  0  0  0999 V2000
   37.8100   25.0480   33.6480 C   0  0  0  0  0  0  0  0  0  0  0  0
   37.9030   25.4710   34.9550 C   0  0  0  0  0  0  0  0  0  0  0  0
   37.4380   26.7340   35.3420 C   0  0  0  0  0  0  0  0  0  0  0  0
   36.8860   27.5230   34.3470 C   0  0  0  0  0  0  0  0  0  0  0  0
   36.3650   28.7790   34.4750 N   0  0  0  0  0  0  0  0  0  0  0  0
   35.9500   29.1370   33.2500 C   0  0  0  0  0  0  0  0  0  0  0  0
   36.1870   28.1780   32.3840 N   0  0  0  0  0  0  0  0  0  0  0  0
   36.7760   27.1360   33.0260 C   0  0  0  0  0  0  0  0  0  0  0  0
   37.2510   25.8670   32.6740 C   0  0  0  0  0  0  0  0  0  0  0  0
   38.1490   24.0930   33.2980 H   0  0  0  0  0  0  0  0  0  0  0  0
   37.5140   27.0600   36.3750 H   0  0  0  0  0  0  0  0  0  0  0  0
   36.3010   29.3510   35.3570 H   0  0  0  0  0  0  0  0  0  0  0  0
   37.1620   25.5710   31.6400 H   0  0  0  0  0  0  0  0  0  0  0  0
   40.0580   22.9580   36.7480 C   0  0  0  0  0  0  0  0  0  0  0  0
   39.5990   23.7720   35.7230 C   0  0  0  0  0  0  0  0  0  0  0  0
   38.4980   24.5710   35.9280 C   0  0  0  0  0  0  0  0  0  0  0  0
   37.9060   24.5130   37.1600 N   0  0  0  0  0  0  0  0  0  0  0  0
   38.3510   23.7230   38.1550 C   0  0  0  0  0  0  0  0  0  0  0  0
   39.4170   22.9560   37.9440 N   0  0  0  0  0  0  0  0  0  0  0  0
   40.9240   22.3280   36.5920 H   0  0  0  0  0  0  0  0  0  0  0  0
   40.0630   23.8180   34.7560 H   0  0  0  0  0  0  0  0  0  0  0  0
   37.7790   23.7820   39.0850 H   0  0  0  0  0  0  0  0  0  0  0  0
   35.3530   30.3840   33.0160 O   0  0  0  0  0  0  0  0  0  0  0  0
   33.4780   29.0890   33.1950 N   0  0  0  0  0  0  0  0  0  0  0  0
   33.9670   30.4800   33.3250 C   0  0  1  0  0  0  0  0  0  0  0  0
   33.7350   30.9230   34.6960 C   0  0  0  0  0  0  0  0  0  0  0  0
   32.3470   30.9770   34.9150 O   0  0  0  0  0  0  0  0  0  0  0  0
   31.6770   29.8110   34.6840 C   0  0  0  0  0  0  0  0  0  0  0  0
   32.0450   29.1770   33.3640 C   0  0  1  0  0  0  0  0  0  0  0  0
   33.6670   28.7260   32.2460 H   0  0  0  0  0  0  0  0  0  0  0  0
   33.4180   31.1240   32.6160 H   0  0  0  0  0  0  0  0  0  0  0  0
   34.1000   30.4450   35.5630 H   0  0  0  0  0  0  0  0  0  0  0  0
   34.0510   32.0090   34.7640 H   0  0  0  0  0  0  0  0  0  0  0  0
   30.6050   30.0410   34.6310 H   0  0  0  0  0  0  0  0  0  0  0  0
   31.9080   29.0800   35.4990 H   0  0  0  0  0  0  0  0  0  0  0  0
   31.6600   28.1310   33.3760 H   0  0  0  0  0  0  0  0  0  0  0  0
   31.4360   29.8280   32.2900 O   0  0  0  0  0  0  0  0  0  0  0  0
   31.9870   29.7340   31.4660 H   0  0  0  0  0  0  0  0  0  0  0  0
  1  2  1  0  0  0  0
  2  3  2  0  0  0  0
  2 16  1  0  0  0  0
  3 11  1  0  0  0  0
  4  5  1  0  0  0  0
  4  3  1  0  0  0  0
  5 12  1  0  0  0  0
  6  5  1  0  0  0  0
  7  8  1  0  0  0  0
  7  6  2  0  0  0  0
  8  4  2  0  0  0  0
  9  8  1  0  0  0  0
  9  1  2  0  0  0  0
 10  1  1  0  0  0  0
 13  9  1  0  0  0  0
 14 19  1  0  0  0  0
 15 16  1  0  0  0  0
 15 14  2  0  0  0  0
 16 17  2  0  0  0  0
 17 18  1  0  0  0  0
 18 22  1  0  0  0  0
 19 18  2  0  0  0  0
 20 14  1  0  0  0  0
 21 15  1  0  0  0  0
 23  6  1  0  0  0  0
 23 25  1  0  0  0  0
 24 25  1  0  0  0  0
 24 29  1  0  0  0  0
 25 31  1  6  0  0  0
 25 26  1  0  0  0  0
 26 33  1  0  0  0  0
 26 27  1  0  0  0  0
 26 32  1  0  0  0  0
 28 27  1  0  0  0  0
 28 35  1  0  0  0  0
 29 36  1  1  0  0  0
 29 28  1  0  0  0  0
 30 24  1  0  0  0  0
 34 28  1  0  0  0  0
 37 29  1  0  0  0  0
 38 37  1  0  0  0  0
M  END
>  <minimizedAffinity>
-5.49638557

$$$$

 OpenBabel03272510283D

 38 41  0  0  1  0  0  0  0  0999 V2000
   35.8830   28.4230   32.1240 C   0  0  0  0  0  0  0  0  0  0  0  0
   35.5610   28.9390   33.3600 C   0  0  0  0  0  0  0  0  0  0  0  0
   36.1970   28.4840   34.5220 C   0  0  0  0  0  0  0  0  0  0  0  0
   37.1560   27.4980   34.3580 C   0  0  0  0  0  0  0  0  0  0  0  0
   37.9090   26.9020   35.3290 N   0  0  0  0  0  0  0  0  0  0  0  0
   38.6970   26.0170   34.6990 C   0  0  0  0  0  0  0  0  0  0  0  0
   38.4690   26.0370   33.4040 N   0  0  0  0  0  0  0  0  0  0  0  0
   37.5060   26.9560   33.1380 C   0  0  0  0  0  0  0  0  0  0  0  0
   36.8500   27.4340   31.9970 C   0  0  0  0  0  0  0  0  0  0  0  0
   35.4280   28.7350   31.2050 H   0  0  0  0  0  0  0  0  0  0  0  0
   35.9390   28.8950   35.4930 H   0  0  0  0  0  0  0  0  0  0  0  0
   37.8790   27.0970   36.3630 H   0  0  0  0  0  0  0  0  0  0  0  0
   37.1290   27.0060   31.0460 H   0  0  0  0  0  0  0  0  0  0  0  0
   33.3960   31.8550   34.3500 C   0  0  0  0  0  0  0  0  0  0  0  0
   34.4250   30.9270   34.4130 C   0  0  0  0  0  0  0  0  0  0  0  0
   34.5410   29.9710   33.4300 C   0  0  0  0  0  0  0  0  0  0  0  0
   33.6120   29.9920   32.4260 N   0  0  0  0  0  0  0  0  0  0  0  0
   32.6130   30.8920   32.3660 C   0  0  0  0  0  0  0  0  0  0  0  0
   32.5120   31.8120   33.3220 N   0  0  0  0  0  0  0  0  0  0  0  0
   33.3000   32.6090   35.1210 H   0  0  0  0  0  0  0  0  0  0  0  0
   35.1540   30.9100   35.2000 H   0  0  0  0  0  0  0  0  0  0  0  0
   31.9470   30.7880   31.5060 H   0  0  0  0  0  0  0  0  0  0  0  0
   39.6120   25.2210   35.4030 O   0  0  0  0  0  0  0  0  0  0  0  0
   38.2590   24.6420   37.1520 N   0  0  0  0  0  0  0  0  0  0  0  0
   39.0720   24.0760   36.0520 C   0  0  1  0  0  0  0  0  0  0  0  0
   38.1910   23.3080   35.1770 C   0  0  0  0  0  0  0  0  0  0  0  0
   37.6970   22.2080   35.9020 O   0  0  0  0  0  0  0  0  0  0  0  0
   37.0440   22.5220   37.0590 C   0  0  0  0  0  0  0  0  0  0  0  0
   37.8120   23.5000   37.9160 C   0  0  1  0  0  0  0  0  0  0  0  0
   38.8440   25.2310   37.7680 H   0  0  0  0  0  0  0  0  0  0  0  0
   39.8530   23.4230   36.4800 H   0  0  0  0  0  0  0  0  0  0  0  0
   37.3340   23.6840   34.6900 H   0  0  0  0  0  0  0  0  0  0  0  0
   38.8350   22.8250   34.3800 H   0  0  0  0  0  0  0  0  0  0  0  0
   36.9440   21.6020   37.6500 H   0  0  0  0  0  0  0  0  0  0  0  0
   36.0510   22.9730   36.8160 H   0  0  0  0  0  0  0  0  0  0  0  0
   37.1110   23.8880   38.6900 H   0  0  0  0  0  0  0  0  0  0  0  0
   38.8670   22.8810   38.5880 O   0  0  0  0  0  0  0  0  0  0  0  0
   39.5990   23.5320   38.7650 H   0  0  0  0  0  0  0  0  0  0  0  0
  1  2  1  0  0  0  0
  2 16  1  0  0  0  0
  2  3  2  0  0  0  0
  3 11  1  0  0  0  0
  4  3  1  0  0  0  0
  4  5  1  0  0  0  0
  5 12  1  0  0  0  0
  6  5  1  0  0  0  0
  6 23  1  0  0  0  0
  7  6  2  0  0  0  0
  8  7  1  0  0  0  0
  8  4  2  0  0  0  0
  9  1  2  0  0  0  0
  9  8  1  0  0  0  0
 10  1  1  0  0  0  0
 13  9  1  0  0  0  0
 14 15  1  0  0  0  0
 14 20  1  0  0  0  0
 15 21  1  0  0  0  0
 16 15  2  0  0  0  0
 17 16  1  0  0  0  0
 18 17  2  0  0  0  0
 18 19  1  0  0  0  0
 19 14  2  0  0  0  0
 22 18  1  0  0  0  0
 23 25  1  0  0  0  0
 24 30  1  0  0  0  0
 24 29  1  0  0  0  0
 25 31  1  1  0  0  0
 25 24  1  0  0  0  0
 26 27  1  0  0  0  0
 26 25  1  0  0  0  0
 27 28  1  0  0  0  0
 28 34  1  0  0  0  0
 28 29  1  0  0  0  0
 29 37  1  0  0  0  0
 29 36  1  1  0  0  0
 32 26  1  0  0  0  0
 33 26  1  0  0  0  0
 35 28  1  0  0  0  0
 37 38  1  0  0  0  0
M  END
>  <minimizedAffinity>
-5.4933548

$$$$

 OpenBabel03272510283D

 38 41  0  0  1  0  0  0  0  0999 V2000
   35.6600   29.4370   32.8010 C   0  0  0  0  0  0  0  0  0  0  0  0
   35.8690   29.6600   34.1440 C   0  0  0  0  0  0  0  0  0  0  0  0
   36.4920   28.6980   34.9490 C   0  0  0  0  0  0  0  0  0  0  0  0
   36.8810   27.5250   34.3250 C   0  0  0  0  0  0  0  0  0  0  0  0
   37.5060   26.4490   34.8900 N   0  0  0  0  0  0  0  0  0  0  0  0
   37.6840   25.5590   33.9020 C   0  0  0  0  0  0  0  0  0  0  0  0
   37.2060   26.0250   32.7700 N   0  0  0  0  0  0  0  0  0  0  0  0
   36.6890   27.2630   32.9830 C   0  0  0  0  0  0  0  0  0  0  0  0
   36.0630   28.2470   32.2080 C   0  0  0  0  0  0  0  0  0  0  0  0
   35.1900   30.1380   32.1400 H   0  0  0  0  0  0  0  0  0  0  0  0
   36.6550   28.8810   36.0070 H   0  0  0  0  0  0  0  0  0  0  0  0
   37.7900   26.3410   35.8990 H   0  0  0  0  0  0  0  0  0  0  0  0
   35.9160   28.0360   31.1590 H   0  0  0  0  0  0  0  0  0  0  0  0
   35.2820   32.6550   36.3470 C   0  0  0  0  0  0  0  0  0  0  0  0
   35.7850   31.4300   35.9360 C   0  0  0  0  0  0  0  0  0  0  0  0
   35.4260   30.9230   34.7080 C   0  0  0  0  0  0  0  0  0  0  0  0
   34.5730   31.6740   33.9480 N   0  0  0  0  0  0  0  0  0  0  0  0
   34.0840   32.8640   34.3470 C   0  0  0  0  0  0  0  0  0  0  0  0
   34.4400   33.3430   35.5350 N   0  0  0  0  0  0  0  0  0  0  0  0
   35.5610   33.0590   37.3120 H   0  0  0  0  0  0  0  0  0  0  0  0
   36.4540   30.8390   36.5320 H   0  0  0  0  0  0  0  0  0  0  0  0
   33.4140   33.3520   33.6340 H   0  0  0  0  0  0  0  0  0  0  0  0
   38.3060   24.3240   34.1330 O   0  0  0  0  0  0  0  0  0  0  0  0
   37.8840   23.3190   36.1420 N   0  0  0  0  0  0  0  0  0  0  0  0
   38.8780   24.1460   35.4230 C   0  0  1  0  0  0  0  0  0  0  0  0
   40.1380   23.4100   35.3730 C   0  0  0  0  0  0  0  0  0  0  0  0
   40.6230   23.2720   36.6870 O   0  0  0  0  0  0  0  0  0  0  0  0
   39.7660   22.6680   37.5610 C   0  0  0  0  0  0  0  0  0  0  0  0
   38.3710   23.2400   37.5010 C   0  0  1  0  0  0  0  0  0  0  0  0
   36.9640   23.7910   36.1580 H   0  0  0  0  0  0  0  0  0  0  0  0
   39.0130   25.1000   35.9630 H   0  0  0  0  0  0  0  0  0  0  0  0
   40.2680   22.4460   34.9630 H   0  0  0  0  0  0  0  0  0  0  0  0
   40.9080   24.0810   34.8820 H   0  0  0  0  0  0  0  0  0  0  0  0
   40.1360   22.8530   38.5780 H   0  0  0  0  0  0  0  0  0  0  0  0
   39.7070   21.5760   37.3300 H   0  0  0  0  0  0  0  0  0  0  0  0
   37.6960   22.5370   38.0420 H   0  0  0  0  0  0  0  0  0  0  0  0
   38.2880   24.4720   38.1520 O   0  0  0  0  0  0  0  0  0  0  0  0
   37.5670   25.0320   37.7540 H   0  0  0  0  0  0  0  0  0  0  0  0
  1  2  1  0  0  0  0
  2 16  1  0  0  0  0
  2  3  2  0  0  0  0
  3 11  1  0  0  0  0
  4  5  1  0  0  0  0
  4  3  1  0  0  0  0
  5 12  1  0  0  0  0
  6 23  1  0  0  0  0
  6  5  1  0  0  0  0
  7  8  1  0  0  0  0
  7  6  2  0  0  0  0
  8  4  2  0  0  0  0
  9  1  2  0  0  0  0
  9  8  1  0  0  0  0
 10  1  1  0  0  0  0
 13  9  1  0  0  0  0
 14 20  1  0  0  0  0
 15 14  1  0  0  0  0
 15 21  1  0  0  0  0
 16 15  2  0  0  0  0
 17 18  2  0  0  0  0
 17 16  1  0  0  0  0
 18 19  1  0  0  0  0
 19 14  2  0  0  0  0
 22 18  1  0  0  0  0
 23 25  1  0  0  0  0
 24 30  1  0  0  0  0
 24 29  1  0  0  0  0
 25 31  1  1  0  0  0
 25 24  1  0  0  0  0
 26 25  1  0  0  0  0
 26 27  1  0  0  0  0
 27 28  1  0  0  0  0
 28 34  1  0  0  0  0
 29 28  1  0  0  0  0
 29 36  1  1  0  0  0
 29 37  1  0  0  0  0
 32 26  1  0  0  0  0
 33 26  1  0  0  0  0
 35 28  1  0  0  0  0
 38 37  1  0  0  0  0
M  END
>  <minimizedAffinity>
-5.47649145

$$$$

 OpenBabel03272510283D

 38 41  0  0  1  0  0  0  0  0999 V2000
   37.3660   23.6350   32.7390 C   0  0  0  0  0  0  0  0  0  0  0  0
   36.4110   23.2810   31.8120 C   0  0  0  0  0  0  0  0  0  0  0  0
   35.7770   24.2480   31.0210 C   0  0  0  0  0  0  0  0  0  0  0  0
   36.1600   25.5630   31.2230 C   0  0  0  0  0  0  0  0  0  0  0  0
   35.6940   26.6730   30.5790 N   0  0  0  0  0  0  0  0  0  0  0  0
   36.3570   27.7160   31.1040 C   0  0  0  0  0  0  0  0  0  0  0  0
   37.1970   27.3090   32.0290 N   0  0  0  0  0  0  0  0  0  0  0  0
   37.1120   25.9580   32.1420 C   0  0  0  0  0  0  0  0  0  0  0  0
   37.7260   24.9660   32.9160 C   0  0  0  0  0  0  0  0  0  0  0  0
   37.8820   22.9370   33.3680 H   0  0  0  0  0  0  0  0  0  0  0  0
   35.0250   23.9620   30.2920 H   0  0  0  0  0  0  0  0  0  0  0  0
   34.9620   26.7050   29.8220 H   0  0  0  0  0  0  0  0  0  0  0  0
   38.4690   25.2810   33.6320 H   0  0  0  0  0  0  0  0  0  0  0  0
   34.8490   19.8680   32.0850 C   0  0  0  0  0  0  0  0  0  0  0  0
   35.0510   21.2200   32.3160 C   0  0  0  0  0  0  0  0  0  0  0  0
   36.0760   21.8750   31.6720 C   0  0  0  0  0  0  0  0  0  0  0  0
   36.8530   21.1360   30.8240 N   0  0  0  0  0  0  0  0  0  0  0  0
   36.6570   19.8220   30.6000 C   0  0  0  0  0  0  0  0  0  0  0  0
   35.6620   19.2010   31.2280 N   0  0  0  0  0  0  0  0  0  0  0  0
   34.0440   19.3480   32.5890 H   0  0  0  0  0  0  0  0  0  0  0  0
   34.4430   21.8010   32.9820 H   0  0  0  0  0  0  0  0  0  0  0  0
   37.3540   19.3630   29.8960 H   0  0  0  0  0  0  0  0  0  0  0  0
   36.1240   29.0270   30.6650 O   0  0  0  0  0  0  0  0  0  0  0  0
   34.6440   28.8070   32.3930 N   0  0  0  0  0  0  0  0  0  0  0  0
   35.2050   29.7890   31.4380 C   0  0  1  0  0  0  0  0  0  0  0  0
   35.8650   30.8450   32.1990 C   0  0  0  0  0  0  0  0  0  0  0  0
   34.8860   31.5350   32.9390 O   0  0  0  0  0  0  0  0  0  0  0  0
   34.1370   30.7600   33.7740 C   0  0  0  0  0  0  0  0  0  0  0  0
   33.6030   29.5190   33.0990 C   0  0  1  0  0  0  0  0  0  0  0  0
   34.2070   28.0190   31.8860 H   0  0  0  0  0  0  0  0  0  0  0  0
   34.3850   30.2100   30.8300 H   0  0  0  0  0  0  0  0  0  0  0  0
   36.6420   30.7010   32.8990 H   0  0  0  0  0  0  0  0  0  0  0  0
   36.2290   31.6240   31.4610 H   0  0  0  0  0  0  0  0  0  0  0  0
   33.2610   31.3460   34.0840 H   0  0  0  0  0  0  0  0  0  0  0  0
   34.7580   30.4430   34.6480 H   0  0  0  0  0  0  0  0  0  0  0  0
   33.2330   28.8360   33.8970 H   0  0  0  0  0  0  0  0  0  0  0  0
   32.5190   29.8080   32.2680 O   0  0  0  0  0  0  0  0  0  0  0  0
   32.4630   29.1490   31.5240 H   0  0  0  0  0  0  0  0  0  0  0  0
  1  9  1  0  0  0  0
  1 10  1  0  0  0  0
  2  1  2  0  0  0  0
  3  4  2  0  0  0  0
  3  2  1  0  0  0  0
  4  8  1  0  0  0  0
  5  6  1  0  0  0  0
  5  4  1  0  0  0  0
  6  7  2  0  0  0  0
  7  8  1  0  0  0  0
  8  9  2  0  0  0  0
  9 13  1  0  0  0  0
 11  3  1  0  0  0  0
 12  5  1  0  0  0  0
 14 15  1  0  0  0  0
 14 20  1  0  0  0  0
 15 21  1  0  0  0  0
 16  2  1  0  0  0  0
 16 15  2  0  0  0  0
 17 16  1  0  0  0  0
 18 17  2  0  0  0  0
 18 19  1  0  0  0  0
 19 14  2  0  0  0  0
 22 18  1  0  0  0  0
 23  6  1  0  0  0  0
 23 25  1  0  0  0  0
 24 29  1  0  0  0  0
 25 31  1  6  0  0  0
 25 26  1  0  0  0  0
 25 24  1  0  0  0  0
 26 32  1  0  0  0  0
 26 27  1  0  0  0  0
 27 28  1  0  0  0  0
 28 34  1  0  0  0  0
 28 35  1  0  0  0  0
 29 28  1  0  0  0  0
 29 36  1  1  0  0  0
 30 24  1  0  0  0  0
 33 26  1  0  0  0  0
 37 29  1  0  0  0  0
 38 37  1  0  0  0  0
M  END
>  <minimizedAffinity>
-5.47432327

$$$$

 OpenBabel03272510283D

 38 41  0  0  1  0  0  0  0  0999 V2000
   37.6150   27.8270   35.0730 C   0  0  0  0  0  0  0  0  0  0  0  0
   37.2320   27.3090   33.8560 C   0  0  0  0  0  0  0  0  0  0  0  0
   37.3770   25.9450   33.5730 C   0  0  0  0  0  0  0  0  0  0  0  0
   37.9220   25.1590   34.5730 C   0  0  0  0  0  0  0  0  0  0  0  0
   38.1590   23.8140   34.5380 N   0  0  0  0  0  0  0  0  0  0  0  0
   38.6880   23.4960   35.7300 C   0  0  0  0  0  0  0  0  0  0  0  0
   38.7910   24.5650   36.4880 N   0  0  0  0  0  0  0  0  0  0  0  0
   38.3190   25.6400   35.8050 C   0  0  0  0  0  0  0  0  0  0  0  0
   38.1590   27.0080   36.0550 C   0  0  0  0  0  0  0  0  0  0  0  0
   37.5250   28.8610   35.3430 H   0  0  0  0  0  0  0  0  0  0  0  0
   37.0730   25.5430   32.6120 H   0  0  0  0  0  0  0  0  0  0  0  0
   37.9640   23.1580   33.7380 H   0  0  0  0  0  0  0  0  0  0  0  0
   38.4720   27.3780   37.0200 H   0  0  0  0  0  0  0  0  0  0  0  0
   35.2840   29.9880   32.0670 C   0  0  0  0  0  0  0  0  0  0  0  0
   35.7330   29.1930   33.1120 C   0  0  0  0  0  0  0  0  0  0  0  0
   36.6690   28.2140   32.8700 C   0  0  0  0  0  0  0  0  0  0  0  0
   37.1110   28.0780   31.5830 N   0  0  0  0  0  0  0  0  0  0  0  0
   36.6750   28.8490   30.5680 C   0  0  0  0  0  0  0  0  0  0  0  0
   35.7710   29.7930   30.8160 N   0  0  0  0  0  0  0  0  0  0  0  0
   34.5480   30.7600   32.2520 H   0  0  0  0  0  0  0  0  0  0  0  0
   35.3870   29.2990   34.1220 H   0  0  0  0  0  0  0  0  0  0  0  0
   37.1180   28.6270   29.5940 H   0  0  0  0  0  0  0  0  0  0  0  0
   39.0530   22.1780   36.0410 O   0  0  0  0  0  0  0  0  0  0  0  0
   41.0330   23.0710   35.3280 N   0  0  0  0  0  0  0  0  0  0  0  0
   40.4460   21.8920   36.0040 C   0  0  1  0  0  0  0  0  0  0  0  0
   41.0260   21.7920   37.3400 C   0  0  0  0  0  0  0  0  0  0  0  0
   42.4000   21.5210   37.2070 O   0  0  0  0  0  0  0  0  0  0  0  0
   43.1010   22.4260   36.4630 C   0  0  0  0  0  0  0  0  0  0  0  0
   42.4300   22.7460   35.1490 C   0  0  1  0  0  0  0  0  0  0  0  0
   40.6110   23.1990   34.3930 H   0  0  0  0  0  0  0  0  0  0  0  0
   40.6780   20.9870   35.4160 H   0  0  0  0  0  0  0  0  0  0  0  0
   40.9970   22.5470   38.0780 H   0  0  0  0  0  0  0  0  0  0  0  0
   40.6210   20.8500   37.8200 H   0  0  0  0  0  0  0  0  0  0  0  0
   44.0730   21.9790   36.2160 H   0  0  0  0  0  0  0  0  0  0  0  0
   43.2120   23.3770   37.0400 H   0  0  0  0  0  0  0  0  0  0  0  0
   42.9200   23.6580   34.7360 H   0  0  0  0  0  0  0  0  0  0  0  0
   42.6080   21.7240   34.2150 O   0  0  0  0  0  0  0  0  0  0  0  0
   41.8500   21.7040   33.5690 H   0  0  0  0  0  0  0  0  0  0  0  0
  1 10  1  0  0  0  0
  1  9  1  0  0  0  0
  2  1  2  0  0  0  0
  3  2  1  0  0  0  0
  3  4  2  0  0  0  0
  4  8  1  0  0  0  0
  5  4  1  0  0  0  0
  5  6  1  0  0  0  0
  6 23  1  0  0  0  0
  6  7  2  0  0  0  0
  8  9  2  0  0  0  0
  8  7  1  0  0  0  0
  9 13  1  0  0  0  0
 11  3  1  0  0  0  0
 12  5  1  0  0  0  0
 14 20  1  0  0  0  0
 14 15  1  0  0  0  0
 15 21  1  0  0  0  0
 16 15  2  0  0  0  0
 16  2  1  0  0  0  0
 17 16  1  0  0  0  0
 18 19  1  0  0  0  0
 18 17  2  0  0  0  0
 19 14  2  0  0  0  0
 22 18  1  0  0  0  0
 24 25  1  0  0  0  0
 25 31  1  6  0  0  0
 25 23  1  0  0  0  0
 25 26  1  0  0  0  0
 26 33  1  0  0  0  0
 26 32  1  0  0  0  0
 27 26  1  0  0  0  0
 28 35  1  0  0  0  0
 28 27  1  0  0  0  0
 29 36  1  6  0  0  0
 29 24  1  0  0  0  0
 29 28  1  0  0  0  0
 30 24  1  0  0  0  0
 34 28  1  0  0  0  0
 37 29  1  0  0  0  0
 38 37  1  0  0  0  0
M  END
>  <minimizedAffinity>
-5.32163286

$$$$

 OpenBabel03272510283D

 38 41  0  0  1  0  0  0  0  0999 V2000
   38.0270   24.5270   33.7250 C   0  0  0  0  0  0  0  0  0  0  0  0
   37.9280   25.1350   34.9570 C   0  0  0  0  0  0  0  0  0  0  0  0
   37.3960   26.4240   35.0880 C   0  0  0  0  0  0  0  0  0  0  0  0
   36.9810   27.0440   33.9210 C   0  0  0  0  0  0  0  0  0  0  0  0
   36.4300   28.2870   33.7920 N   0  0  0  0  0  0  0  0  0  0  0  0
   36.1870   28.4530   32.4820 C   0  0  0  0  0  0  0  0  0  0  0  0
   36.5570   27.3880   31.8060 N   0  0  0  0  0  0  0  0  0  0  0  0
   37.0640   26.4690   32.6690 C   0  0  0  0  0  0  0  0  0  0  0  0
   37.6010   25.1800   32.5750 C   0  0  0  0  0  0  0  0  0  0  0  0
   38.4250   23.5440   33.5690 H   0  0  0  0  0  0  0  0  0  0  0  0
   37.3210   26.8960   36.0620 H   0  0  0  0  0  0  0  0  0  0  0  0
   36.2340   28.9770   34.5640 H   0  0  0  0  0  0  0  0  0  0  0  0
   37.6620   24.7370   31.5930 H   0  0  0  0  0  0  0  0  0  0  0  0
   39.7710   22.8840   37.3470 C   0  0  0  0  0  0  0  0  0  0  0  0
   39.4400   23.5130   36.1550 C   0  0  0  0  0  0  0  0  0  0  0  0
   38.3910   24.4030   36.1230 C   0  0  0  0  0  0  0  0  0  0  0  0
   37.7190   24.6190   37.2950 N   0  0  0  0  0  0  0  0  0  0  0  0
   38.0400   24.0080   38.4510 C   0  0  0  0  0  0  0  0  0  0  0  0
   39.0570   23.1510   38.4700 N   0  0  0  0  0  0  0  0  0  0  0  0
   40.5950   22.1840   37.3780 H   0  0  0  0  0  0  0  0  0  0  0  0
   39.9660   23.3440   35.2360 H   0  0  0  0  0  0  0  0  0  0  0  0
   37.4170   24.2790   39.3070 H   0  0  0  0  0  0  0  0  0  0  0  0
   35.6130   29.6340   31.9880 O   0  0  0  0  0  0  0  0  0  0  0  0
   36.3810   29.6460   29.8360 N   0  0  0  0  0  0  0  0  0  0  0  0
   36.4250   30.4010   31.1080 C   0  0  1  0  0  0  0  0  0  0  0  0
   35.8790   31.7330   30.8720 C   0  0  0  0  0  0  0  0  0  0  0  0
   36.7360   32.4120   29.9860 O   0  0  0  0  0  0  0  0  0  0  0  0
   36.9560   31.7830   28.7950 C   0  0  0  0  0  0  0  0  0  0  0  0
   37.3110   30.3250   28.9620 C   0  0  1  0  0  0  0  0  0  0  0  0
   36.7190   28.6800   29.9760 H   0  0  0  0  0  0  0  0  0  0  0  0
   37.4730   30.4710   31.4490 H   0  0  0  0  0  0  0  0  0  0  0  0
   34.9180   31.9420   30.4890 H   0  0  0  0  0  0  0  0  0  0  0  0
   35.9820   32.3220   31.8340 H   0  0  0  0  0  0  0  0  0  0  0  0
   37.8210   32.2610   28.3160 H   0  0  0  0  0  0  0  0  0  0  0  0
   36.0370   31.8500   28.1620 H   0  0  0  0  0  0  0  0  0  0  0  0
   37.2200   29.8420   27.9620 H   0  0  0  0  0  0  0  0  0  0  0  0
   38.6310   30.1580   29.3820 O   0  0  0  0  0  0  0  0  0  0  0  0
   38.7290   29.3160   29.9040 H   0  0  0  0  0  0  0  0  0  0  0  0
  1  2  1  0  0  0  0
  2  3  2  0  0  0  0
  2 16  1  0  0  0  0
  3 11  1  0  0  0  0
  4  3  1  0  0  0  0
  5  4  1  0  0  0  0
  5 12  1  0  0  0  0
  6  5  1  0  0  0  0
  7  6  2  0  0  0  0
  7  8  1  0  0  0  0
  8  4  2  0  0  0  0
  9  8  1  0  0  0  0
  9  1  2  0  0  0  0
 10  1  1  0  0  0  0
 13  9  1  0  0  0  0
 14 20  1  0  0  0  0
 14 19  1  0  0  0  0
 15 14  2  0  0  0  0
 16 15  1  0  0  0  0
 16 17  2  0  0  0  0
 17 18  1  0  0  0  0
 18 19  2  0  0  0  0
 18 22  1  0  0  0  0
 21 15  1  0  0  0  0
 23  6  1  0  0  0  0
 24 30  1  0  0  0  0
 24 25  1  0  0  0  0
 25 31  1  1  0  0  0
 25 23  1  0  0  0  0
 26 25  1  0  0  0  0
 26 33  1  0  0  0  0
 27 26  1  0  0  0  0
 28 29  1  0  0  0  0
 28 27  1  0  0  0  0
 29 36  1  6  0  0  0
 29 37  1  0  0  0  0
 29 24  1  0  0  0  0
 32 26  1  0  0  0  0
 34 28  1  0  0  0  0
 35 28  1  0  0  0  0
 37 38  1  0  0  0  0
M  END
>  <minimizedAffinity>
-5.27439499

$$$$

 OpenBabel03272510283D

 38 41  0  0  1  0  0  0  0  0999 V2000
   36.9800   27.5210   33.7030 C   0  0  0  0  0  0  0  0  0  0  0  0
   36.2450   27.8890   32.5980 C   0  0  0  0  0  0  0  0  0  0  0  0
   36.0230   26.9930   31.5440 C   0  0  0  0  0  0  0  0  0  0  0  0
   36.5780   25.7310   31.6770 C   0  0  0  0  0  0  0  0  0  0  0  0
   36.4990   24.6910   30.7950 N   0  0  0  0  0  0  0  0  0  0  0  0
   37.1830   23.6790   31.3490 C   0  0  0  0  0  0  0  0  0  0  0  0
   37.6750   24.0380   32.5140 N   0  0  0  0  0  0  0  0  0  0  0  0
   37.3210   25.3240   32.7670 C   0  0  0  0  0  0  0  0  0  0  0  0
   37.5230   26.2450   33.8020 C   0  0  0  0  0  0  0  0  0  0  0  0
   37.1790   28.1650   34.5360 H   0  0  0  0  0  0  0  0  0  0  0  0
   35.4430   27.2900   30.6770 H   0  0  0  0  0  0  0  0  0  0  0  0
   36.0010   24.6850   29.8670 H   0  0  0  0  0  0  0  0  0  0  0  0
   38.1040   25.9200   34.6510 H   0  0  0  0  0  0  0  0  0  0  0  0
   34.8400   31.2780   33.4400 C   0  0  0  0  0  0  0  0  0  0  0  0
   35.3490   30.0030   33.6370 C   0  0  0  0  0  0  0  0  0  0  0  0
   35.7020   29.2360   32.5510 C   0  0  0  0  0  0  0  0  0  0  0  0
   35.5280   29.7890   31.3120 N   0  0  0  0  0  0  0  0  0  0  0  0
   35.0340   31.0270   31.1210 C   0  0  0  0  0  0  0  0  0  0  0  0
   34.6960   31.7590   32.1790 N   0  0  0  0  0  0  0  0  0  0  0  0
   34.5600   31.8860   34.2910 H   0  0  0  0  0  0  0  0  0  0  0  0
   35.4860   29.5680   34.6080 H   0  0  0  0  0  0  0  0  0  0  0  0
   34.9510   31.3370   30.0770 H   0  0  0  0  0  0  0  0  0  0  0  0
   37.3050   22.4390   30.7050 O   0  0  0  0  0  0  0  0  0  0  0  0
   35.5150   21.8560   32.0010 N   0  0  0  0  0  0  0  0  0  0  0  0
   36.7550   21.3220   31.3940 C   0  0  1  0  0  0  0  0  0  0  0  0
   36.3930   20.2370   30.4880 C   0  0  0  0  0  0  0  0  0  0  0  0
   35.8490   19.1870   31.2500 O   0  0  0  0  0  0  0  0  0  0  0  0
   34.7760   19.5250   32.0210 C   0  0  0  0  0  0  0  0  0  0  0  0
   35.0070   20.7820   32.8250 C   0  0  1  0  0  0  0  0  0  0  0  0
   35.7300   22.6580   32.6170 H   0  0  0  0  0  0  0  0  0  0  0  0
   37.4170   20.9490   32.1940 H   0  0  0  0  0  0  0  0  0  0  0  0
   35.7260   20.3160   29.6730 H   0  0  0  0  0  0  0  0  0  0  0  0
   37.3530   19.7930   30.0830 H   0  0  0  0  0  0  0  0  0  0  0  0
   34.6140   18.7170   32.7470 H   0  0  0  0  0  0  0  0  0  0  0  0
   33.8820   19.6860   31.3680 H   0  0  0  0  0  0  0  0  0  0  0  0
   34.0170   21.1180   33.2130 H   0  0  0  0  0  0  0  0  0  0  0  0
   35.8250   20.5460   33.9310 O   0  0  0  0  0  0  0  0  0  0  0  0
   36.3270   21.3700   34.1770 H   0  0  0  0  0  0  0  0  0  0  0  0
  1  9  1  0  0  0  0
  1 10  1  0  0  0  0
  2  1  2  0  0  0  0
  3  4  2  0  0  0  0
  3  2  1  0  0  0  0
  4  8  1  0  0  0  0
  5  6  1  0  0  0  0
  5  4  1  0  0  0  0
  6  7  2  0  0  0  0
  7  8  1  0  0  0  0
  8  9  2  0  0  0  0
  9 13  1  0  0  0  0
 11  3  1  0  0  0  0
 12  5  1  0  0  0  0
 14 15  1  0  0  0  0
 14 20  1  0  0  0  0
 15 21  1  0  0  0  0
 16  2  1  0  0  0  0
 16 15  2  0  0  0  0
 17 16  1  0  0  0  0
 18 17  2  0  0  0  0
 18 19  1  0  0  0  0
 19 14  2  0  0  0  0
 22 18  1  0  0  0  0
 23  6  1  0  0  0  0
 23 25  1  0  0  0  0
 24 30  1  0  0  0  0
 24 29  1  0  0  0  0
 25 24  1  0  0  0  0
 25 31  1  1  0  0  0
 26 27  1  0  0  0  0
 26 25  1  0  0  0  0
 27 28  1  0  0  0  0
 28 34  1  0  0  0  0
 28 29  1  0  0  0  0
 29 36  1  1  0  0  0
 29 37  1  0  0  0  0
 32 26  1  0  0  0  0
 33 26  1  0  0  0  0
 35 28  1  0  0  0  0
 37 38  1  0  0  0  0
M  END
>  <minimizedAffinity>
-5.25786209

$$$$
