
 OpenBabel03262523203D

 34 36  0  0  1  0  0  0  0  0999 V2000
   39.1670   32.7430   45.1930 C   0  0  0  0  0  0  0  0  0  0  0  0
   40.1040   31.8690   44.6540 C   0  0  0  0  0  0  0  0  0  0  0  0
   39.7540   30.5360   44.5110 C   0  0  0  0  0  0  0  0  0  0  0  0
   38.5190   30.1340   44.9020 N   0  0  0  0  0  0  0  0  0  0  0  0
   37.6340   30.9500   45.4090 C   0  0  0  0  0  0  0  0  0  0  0  0
   38.0190   32.1930   45.5190 N   0  0  0  0  0  0  0  0  0  0  0  0
   36.3580   30.4980   45.7950 N   0  0  0  0  0  0  0  0  0  0  0  0
   35.4360   29.8500   44.8570 C   0  0  0  0  0  0  0  0  0  0  0  0
   34.2960   29.4120   45.6680 C   0  0  0  0  0  0  0  0  0  0  0  0
   34.7960   29.4980   47.1120 C   0  0  0  0  0  0  0  0  0  0  0  0
   35.7110   30.6260   47.1110 C   0  0  1  0  0  0  0  0  0  0  0  0
   39.4540   33.7640   45.2960 H   0  0  0  0  0  0  0  0  0  0  0  0
   41.0890   32.1110   44.3270 H   0  0  0  0  0  0  0  0  0  0  0  0
   40.3860   29.7370   44.1030 H   0  0  0  0  0  0  0  0  0  0  0  0
   35.1200   30.6420   44.1460 H   0  0  0  0  0  0  0  0  0  0  0  0
   35.9410   29.0730   44.2670 H   0  0  0  0  0  0  0  0  0  0  0  0
   33.4050   30.0650   45.4890 H   0  0  0  0  0  0  0  0  0  0  0  0
   33.9650   28.4090   45.3690 H   0  0  0  0  0  0  0  0  0  0  0  0
   35.3980   28.5750   47.0630 H   0  0  0  0  0  0  0  0  0  0  0  0
   33.8640   29.5710   47.6200 H   0  0  0  0  0  0  0  0  0  0  0  0
   35.2130   31.6280   46.9250 H   0  0  0  0  0  0  0  0  0  0  0  0
   36.6770   29.9100   49.3370 C   0  0  0  0  0  0  0  0  0  0  0  0
   36.5650   30.7970   48.2500 C   0  0  0  0  0  0  0  0  0  0  0  0
   37.4800   31.8370   48.3470 C   0  0  0  0  0  0  0  0  0  0  0  0
   38.4040   32.0020   49.3670 C   0  0  0  0  0  0  0  0  0  0  0  0
   38.4420   31.0600   50.4090 C   0  0  0  0  0  0  0  0  0  0  0  0
   37.5620   29.9920   50.3990 C   0  0  0  0  0  0  0  0  0  0  0  0
   37.5810   32.6970   47.7320 H   0  0  0  0  0  0  0  0  0  0  0  0
   39.1330   32.7620   49.5060 H   0  0  0  0  0  0  0  0  0  0  0  0
   39.1260   31.1040   51.2450 H   0  0  0  0  0  0  0  0  0  0  0  0
   34.9500   28.0160   49.5230 N   0  0  0  0  0  0  0  0  0  0  0  0
   35.7070   28.8470   49.4300 C   0  0  0  0  0  0  0  0  0  0  0  0
   37.5930   29.0630   51.4220 O   0  0  0  0  0  0  0  0  0  0  0  0
   38.4540   28.6880   51.8140 H   0  0  0  0  0  0  0  0  0  0  0  0
  1 12  1  0  0  0  0
  1  6  1  0  0  0  0
  2  1  2  0  0  0  0
  3  2  1  0  0  0  0
  3  4  2  0  0  0  0
  4  5  1  0  0  0  0
  5  6  2  0  0  0  0
  5  7  1  0  0  0  0
  7 11  1  0  0  0  0
  8  9  1  0  0  0  0
  8  7  1  0  0  0  0
  9 10  1  0  0  0  0
 10 20  1  0  0  0  0
 11 21  1  6  0  0  0
 11 10  1  0  0  0  0
 11 23  1  0  0  0  0
 13  2  1  0  0  0  0
 14  3  1  0  0  0  0
 15  8  1  0  0  0  0
 16  8  1  0  0  0  0
 17  9  1  0  0  0  0
 18  9  1  0  0  0  0
 19 10  1  0  0  0  0
 22 32  1  0  0  0  0
 22 27  1  0  0  0  0
 23 24  1  0  0  0  0
 23 22  2  0  0  0  0
 24 25  2  0  0  0  0
 25 29  1  0  0  0  0
 25 26  1  0  0  0  0
 26 30  1  0  0  0  0
 27 26  2  0  0  0  0
 27 33  1  0  0  0  0
 28 24  1  0  0  0  0
 32 31  3  0  0  0  0
 33 34  1  0  0  0  0
M  END
>  <minimizedAffinity>
-6.28521538

>  <minimizedRMSD>
0.72868979

$$$$
