
 OpenBabel03272500373D

 29 30  0  0  1  0  0  0  0  0999 V2000
   37.3240   31.0940   49.3100 C   0  0  0  0  0  0  0  0  0  0  0  0
   37.4930   32.3860   49.8590 C   0  0  0  0  0  0  0  0  0  0  0  0
   38.1800   33.3440   49.0970 C   0  0  0  0  0  0  0  0  0  0  0  0
   38.6380   32.9530   47.8700 N   0  0  0  0  0  0  0  0  0  0  0  0
   38.4590   31.7200   47.3810 C   0  0  0  0  0  0  0  0  0  0  0  0
   37.8020   30.7890   48.1000 N   0  0  0  0  0  0  0  0  0  0  0  0
   38.9790   31.4240   46.0920 N   0  0  0  0  0  0  0  0  0  0  0  0
   40.3300   30.9030   45.9770 C   0  0  0  0  0  0  0  0  0  0  0  0
   40.9620   31.7060   44.8370 C   0  0  0  0  0  0  0  0  0  0  0  0
   40.2630   31.2120   43.5930 C   0  0  0  0  0  0  0  0  0  0  0  0
   38.8500   31.6850   43.6300 C   0  0  0  0  0  0  0  0  0  0  0  0
   38.1800   31.6380   44.9460 C   0  0  2  0  0  0  0  0  0  0  0  0
   37.0960   32.5980   50.8340 H   0  0  0  0  0  0  0  0  0  0  0  0
   38.3260   34.3380   49.4880 H   0  0  0  0  0  0  0  0  0  0  0  0
   40.3460   29.8300   45.7940 H   0  0  0  0  0  0  0  0  0  0  0  0
   40.9250   31.2090   46.8830 H   0  0  0  0  0  0  0  0  0  0  0  0
   40.7120   32.7720   44.9820 H   0  0  0  0  0  0  0  0  0  0  0  0
   42.0500   31.5450   44.7720 H   0  0  0  0  0  0  0  0  0  0  0  0
   40.3690   30.1110   43.5320 H   0  0  0  0  0  0  0  0  0  0  0  0
   40.7760   31.6360   42.6950 H   0  0  0  0  0  0  0  0  0  0  0  0
   38.8270   32.6820   43.1400 H   0  0  0  0  0  0  0  0  0  0  0  0
   38.2850   31.0150   42.9290 H   0  0  0  0  0  0  0  0  0  0  0  0
   37.3470   30.8810   44.9760 H   0  0  0  0  0  0  0  0  0  0  0  0
   36.5920   30.0810   50.1260 C   0  0  0  0  0  0  0  0  0  0  0  0
   35.2300   30.3860   50.1290 F   0  0  0  0  0  0  0  0  0  0  0  0
   36.8930   28.8470   49.6280 F   0  0  0  0  0  0  0  0  0  0  0  0
   37.0280   30.2150   51.4380 F   0  0  0  0  0  0  0  0  0  0  0  0
   37.5310   32.8710   45.1270 O   0  0  0  0  0  0  0  0  0  0  0  0
   37.7210   33.5140   44.4090 H   0  0  0  0  0  0  0  0  0  0  0  0
  1  2  1  0  0  0  0
  1 24  1  0  0  0  0
  2 13  1  0  0  0  0
  3 14  1  0  0  0  0
  3  2  2  0  0  0  0
  4  3  1  0  0  0  0
  5  4  2  0  0  0  0
  5  6  1  0  0  0  0
  6  1  2  0  0  0  0
  7  5  1  0  0  0  0
  8  7  1  0  0  0  0
  8 16  1  0  0  0  0
  9 17  1  0  0  0  0
  9  8  1  0  0  0  0
 10 11  1  0  0  0  0
 10  9  1  0  0  0  0
 11 12  1  0  0  0  0
 12 23  1  6  0  0  0
 12 28  1  0  0  0  0
 12  7  1  0  0  0  0
 15  8  1  0  0  0  0
 18  9  1  0  0  0  0
 19 10  1  0  0  0  0
 20 10  1  0  0  0  0
 21 11  1  0  0  0  0
 22 11  1  0  0  0  0
 24 25  1  0  0  0  0
 24 27  1  0  0  0  0
 26 24  1  0  0  0  0
 29 28  1  0  0  0  0
M  END
>  <minimizedAffinity>
-6.19439316

>  <minimizedRMSD>
0.774136901

$$$$
