
 OpenBabel03272509573D

 39 41  0  0  0  0  0  0  0  0999 V2000
   35.0090   28.3750   49.3460 O   0  0  0  0  0  0  0  0  0  0  0  0
   37.2810   30.1250   51.5340 C   0  0  0  0  0  0  0  0  0  0  0  0
   38.0320   30.8470   50.5870 C   0  0  0  0  0  0  0  0  0  0  0  0
   37.7070   30.6850   49.2370 C   0  0  0  0  0  0  0  0  0  0  0  0
   36.6800   29.8310   48.9810 N   0  0  0  0  0  0  0  0  0  0  0  0
   35.9750   29.1520   49.8880 C   0  0  0  0  0  0  0  0  0  0  0  0
   36.2990   29.3170   51.1910 N   0  0  0  0  0  0  0  0  0  0  0  0
   37.5710   30.2830   52.5830 H   0  0  0  0  0  0  0  0  0  0  0  0
   38.8500   31.5260   50.8090 H   0  0  0  0  0  0  0  0  0  0  0  0
   38.8530   33.3390   49.1550 F   0  0  0  0  0  0  0  0  0  0  0  0
   38.8980   32.5670   48.0770 C   0  0  0  0  0  0  0  0  0  0  0  0
   38.3630   31.3400   48.1300 C   0  0  0  0  0  0  0  0  0  0  0  0
   38.4640   30.6080   46.9430 C   0  0  0  0  0  0  0  0  0  0  0  0
   39.0600   31.1070   45.8200 C   0  0  0  0  0  0  0  0  0  0  0  0
   39.6040   32.3810   45.8000 C   0  0  0  0  0  0  0  0  0  0  0  0
   39.5080   33.1030   46.9630 C   0  0  0  0  0  0  0  0  0  0  0  0
   38.0660   29.6020   46.8660 H   0  0  0  0  0  0  0  0  0  0  0  0
   39.1230   30.5160   44.9150 H   0  0  0  0  0  0  0  0  0  0  0  0
   40.0650   32.7300   44.8880 H   0  0  0  0  0  0  0  0  0  0  0  0
   39.9250   34.0940   46.9670 H   0  0  0  0  0  0  0  0  0  0  0  0
   34.4200   28.7550   48.1210 C   0  0  0  0  0  0  0  0  0  0  0  0
   35.2360   28.9080   47.3650 H   0  0  0  0  0  0  0  0  0  0  0  0
   33.8030   29.6470   48.2660 H   0  0  0  0  0  0  0  0  0  0  0  0
   33.5480   27.6590   47.5730 C   0  0  0  0  0  0  0  0  0  0  0  0
   33.8200   26.7170   48.0640 H   0  0  0  0  0  0  0  0  0  0  0  0
   33.7220   27.4730   46.4790 H   0  0  0  0  0  0  0  0  0  0  0  0
   32.0990   27.9400   47.7530 C   0  0  0  0  0  0  0  0  0  0  0  0
   31.5180   27.5030   48.9480 C   0  0  0  0  0  0  0  0  0  0  0  0
   30.1840   27.7190   49.2000 C   0  0  0  0  0  0  0  0  0  0  0  0
   29.4340   28.3530   48.2950 N   0  0  0  0  0  0  0  0  0  0  0  0
   30.0260   28.7680   47.1380 C   0  0  0  0  0  0  0  0  0  0  0  0
   31.3270   28.5730   46.8580 N   0  0  0  0  0  0  0  0  0  0  0  0
   32.0530   26.9870   49.7280 H   0  0  0  0  0  0  0  0  0  0  0  0
   29.6850   27.3970   50.1200 H   0  0  0  0  0  0  0  0  0  0  0  0
   29.1620   29.4720   46.1460 C   0  0  0  0  0  0  0  0  0  0  0  0
   29.6520   30.3960   45.7810 H   0  0  0  0  0  0  0  0  0  0  0  0
   28.7800   28.8160   45.3480 H   0  0  0  0  0  0  0  0  0  0  0  0
   28.0330   29.8860   46.8890 O   0  0  0  0  0  0  0  0  0  0  0  0
   27.7570   30.8030   46.5700 H   0  0  0  0  0  0  0  0  0  0  0  0
  1  6  1  0  0  0  0
  2  8  1  0  0  0  0
  3  9  1  0  0  0  0
  3  2  2  0  0  0  0
  4  3  1  0  0  0  0
  5  4  2  0  0  0  0
  5  6  1  0  0  0  0
  6  7  2  0  0  0  0
  7  2  1  0  0  0  0
 11 12  1  0  0  0  0
 11 10  1  0  0  0  0
 12  4  1  0  0  0  0
 13 12  2  0  0  0  0
 14 13  1  0  0  0  0
 15 14  2  0  0  0  0
 15 16  1  0  0  0  0
 16 20  1  0  0  0  0
 16 11  2  0  0  0  0
 17 13  1  0  0  0  0
 18 14  1  0  0  0  0
 19 15  1  0  0  0  0
 21 23  1  0  0  0  0
 21  1  1  0  0  0  0
 22 21  1  0  0  0  0
 24 27  1  0  0  0  0
 24 25  1  0  0  0  0
 24 21  1  0  0  0  0
 26 24  1  0  0  0  0
 27 28  1  0  0  0  0
 28 29  2  0  0  0  0
 28 33  1  0  0  0  0
 29 34  1  0  0  0  0
 30 29  1  0  0  0  0
 31 30  2  0  0  0  0
 32 31  1  0  0  0  0
 32 27  2  0  0  0  0
 35 38  1  0  0  0  0
 35 31  1  0  0  0  0
 36 35  1  0  0  0  0
 37 35  1  0  0  0  0
 39 38  1  0  0  0  0
M  END
>  <minimizedAffinity>
-6.25007868

>  <minimizedRMSD>
0.537196279

$$$$
