
 OpenBabel03272510303D

 21 22  0  0  0  0  0  0  0  0999 V2000
   38.5550   24.9120   36.3260 C   0  0  0  0  0  0  0  0  0  0  0  0
   37.8370   25.0400   37.5240 C   0  0  0  0  0  0  0  0  0  0  0  0
   38.0840   24.0700   38.4800 C   0  0  0  0  0  0  0  0  0  0  0  0
   38.9870   23.0670   38.2170 N   0  0  0  0  0  0  0  0  0  0  0  0
   39.6590   22.9880   37.0360 C   0  0  0  0  0  0  0  0  0  0  0  0
   39.4320   23.9380   36.0680 N   0  0  0  0  0  0  0  0  0  0  0  0
   37.1460   25.8400   37.6780 H   0  0  0  0  0  0  0  0  0  0  0  0
   37.5690   24.0970   39.4320 H   0  0  0  0  0  0  0  0  0  0  0  0
   38.3500   25.9680   35.2830 C   0  0  0  0  0  0  0  0  0  0  0  0
   38.1490   27.3590   35.6070 C   0  0  0  0  0  0  0  0  0  0  0  0
   39.5310   26.9350   35.1590 C   0  0  0  0  0  0  0  0  0  0  0  0
   38.0110   25.4960   34.3290 H   0  0  0  0  0  0  0  0  0  0  0  0
   37.5330   27.9540   34.8750 H   0  0  0  0  0  0  0  0  0  0  0  0
   38.0750   27.7340   36.6420 H   0  0  0  0  0  0  0  0  0  0  0  0
   40.3230   26.8940   35.9180 H   0  0  0  0  0  0  0  0  0  0  0  0
   39.7680   27.1890   34.1090 H   0  0  0  0  0  0  0  0  0  0  0  0
   40.6340   21.9420   36.7500 C   0  0  0  0  0  0  0  0  0  0  0  0
   41.5830   22.3570   36.3480 H   0  0  0  0  0  0  0  0  0  0  0  0
   40.3090   21.1930   36.0050 H   0  0  0  0  0  0  0  0  0  0  0  0
   40.9650   21.3020   37.9550 O   0  0  0  0  0  0  0  0  0  0  0  0
   41.3840   20.4320   37.6750 H   0  0  0  0  0  0  0  0  0  0  0  0
  1  2  1  0  0  0  0
  2  7  1  0  0  0  0
  2  3  2  0  0  0  0
  3  8  1  0  0  0  0
  4  3  1  0  0  0  0
  5  4  2  0  0  0  0
  6  1  2  0  0  0  0
  6  5  1  0  0  0  0
  9 10  1  0  0  0  0
  9  1  1  0  0  0  0
 10 14  1  0  0  0  0
 11  9  1  0  0  0  0
 11 10  1  0  0  0  0
 11 15  1  0  0  0  0
 12  9  1  0  0  0  0
 13 10  1  0  0  0  0
 16 11  1  0  0  0  0
 17  5  1  0  0  0  0
 17 20  1  0  0  0  0
 18 17  1  0  0  0  0
 19 17  1  0  0  0  0
 21 20  1  0  0  0  0
M  END
>  <minimizedAffinity>
-4.23356342

$$$$

 OpenBabel03272510303D

 21 22  0  0  0  0  0  0  0  0999 V2000
   38.1780   24.9540   35.2280 C   0  0  0  0  0  0  0  0  0  0  0  0
   38.1890   23.9410   34.2580 C   0  0  0  0  0  0  0  0  0  0  0  0
   38.0410   22.6500   34.7330 C   0  0  0  0  0  0  0  0  0  0  0  0
   37.8960   22.4320   36.0830 N   0  0  0  0  0  0  0  0  0  0  0  0
   37.8910   23.4520   36.9860 C   0  0  0  0  0  0  0  0  0  0  0  0
   38.0370   24.7450   36.5400 N   0  0  0  0  0  0  0  0  0  0  0  0
   38.3050   24.1640   33.2200 H   0  0  0  0  0  0  0  0  0  0  0  0
   38.0400   21.8110   34.0480 H   0  0  0  0  0  0  0  0  0  0  0  0
   38.2900   26.3690   34.7500 C   0  0  0  0  0  0  0  0  0  0  0  0
   38.4980   27.4830   35.6430 C   0  0  0  0  0  0  0  0  0  0  0  0
   39.7000   26.9490   34.8950 C   0  0  0  0  0  0  0  0  0  0  0  0
   37.8320   26.4630   33.7360 H   0  0  0  0  0  0  0  0  0  0  0  0
   38.0820   28.4730   35.3050 H   0  0  0  0  0  0  0  0  0  0  0  0
   38.5320   27.3780   36.7420 H   0  0  0  0  0  0  0  0  0  0  0  0
   40.4440   26.3780   35.4660 H   0  0  0  0  0  0  0  0  0  0  0  0
   40.0030   27.5600   34.0240 H   0  0  0  0  0  0  0  0  0  0  0  0
   37.7190   23.2390   38.4170 C   0  0  0  0  0  0  0  0  0  0  0  0
   36.9070   22.5130   38.6360 H   0  0  0  0  0  0  0  0  0  0  0  0
   37.4590   24.1450   38.9960 H   0  0  0  0  0  0  0  0  0  0  0  0
   38.8980   22.6720   38.9270 O   0  0  0  0  0  0  0  0  0  0  0  0
   38.8460   22.8230   39.9200 H   0  0  0  0  0  0  0  0  0  0  0  0
  1  6  1  0  0  0  0
  2  3  1  0  0  0  0
  2  1  2  0  0  0  0
  3  4  2  0  0  0  0
  4  5  1  0  0  0  0
  5 17  1  0  0  0  0
  6  5  2  0  0  0  0
  7  2  1  0  0  0  0
  8  3  1  0  0  0  0
  9 11  1  0  0  0  0
  9  1  1  0  0  0  0
  9 10  1  0  0  0  0
 10 14  1  0  0  0  0
 11 15  1  0  0  0  0
 11 10  1  0  0  0  0
 12  9  1  0  0  0  0
 13 10  1  0  0  0  0
 16 11  1  0  0  0  0
 17 18  1  0  0  0  0
 17 20  1  0  0  0  0
 17 19  1  0  0  0  0
 20 21  1  0  0  0  0
M  END
>  <minimizedAffinity>
-4.03902197

$$$$

 OpenBabel03272510303D

 21 22  0  0  0  0  0  0  0  0999 V2000
   37.9910   24.0280   36.1840 C   0  0  0  0  0  0  0  0  0  0  0  0
   38.1600   23.2510   35.0290 C   0  0  0  0  0  0  0  0  0  0  0  0
   38.2390   23.9520   33.8390 C   0  0  0  0  0  0  0  0  0  0  0  0
   38.1520   25.3240   33.8470 N   0  0  0  0  0  0  0  0  0  0  0  0
   37.9890   26.0330   34.9970 C   0  0  0  0  0  0  0  0  0  0  0  0
   37.9060   25.3620   36.1950 N   0  0  0  0  0  0  0  0  0  0  0  0
   38.2220   22.1860   35.0770 H   0  0  0  0  0  0  0  0  0  0  0  0
   38.3680   23.4250   32.9010 H   0  0  0  0  0  0  0  0  0  0  0  0
   37.9470   23.3110   37.4980 C   0  0  0  0  0  0  0  0  0  0  0  0
   39.0810   23.2320   38.3860 C   0  0  0  0  0  0  0  0  0  0  0  0
   38.0090   24.2510   38.7060 C   0  0  0  0  0  0  0  0  0  0  0  0
   37.1030   22.5790   37.5010 H   0  0  0  0  0  0  0  0  0  0  0  0
   39.1330   22.3190   39.0430 H   0  0  0  0  0  0  0  0  0  0  0  0
   40.0740   23.6440   38.1350 H   0  0  0  0  0  0  0  0  0  0  0  0
   38.2440   25.3100   38.5330 H   0  0  0  0  0  0  0  0  0  0  0  0
   37.3220   23.9500   39.5190 H   0  0  0  0  0  0  0  0  0  0  0  0
   37.9150   27.4890   35.0260 C   0  0  0  0  0  0  0  0  0  0  0  0
   36.8650   27.8520   35.0460 H   0  0  0  0  0  0  0  0  0  0  0  0
   38.3780   27.9960   34.1600 H   0  0  0  0  0  0  0  0  0  0  0  0
   38.5090   27.9410   36.2160 O   0  0  0  0  0  0  0  0  0  0  0  0
   38.6990   28.9140   36.0520 H   0  0  0  0  0  0  0  0  0  0  0  0
  1  6  1  0  0  0  0
  1  9  1  0  0  0  0
  2  7  1  0  0  0  0
  2  1  2  0  0  0  0
  3  4  2  0  0  0  0
  3  2  1  0  0  0  0
  4  5  1  0  0  0  0
  5 17  1  0  0  0  0
  5  6  2  0  0  0  0
  8  3  1  0  0  0  0
  9 12  1  0  0  0  0
  9 10  1  0  0  0  0
  9 11  1  0  0  0  0
 10 11  1  0  0  0  0
 10 13  1  0  0  0  0
 11 16  1  0  0  0  0
 14 10  1  0  0  0  0
 15 11  1  0  0  0  0
 17 18  1  0  0  0  0
 17 20  1  0  0  0  0
 19 17  1  0  0  0  0
 21 20  1  0  0  0  0
M  END
>  <minimizedAffinity>
-3.82681632

$$$$

 OpenBabel03272510303D

 21 22  0  0  0  0  0  0  0  0999 V2000
   36.5250   26.6290   32.4320 C   0  0  0  0  0  0  0  0  0  0  0  0
   35.9090   27.8840   32.3200 C   0  0  0  0  0  0  0  0  0  0  0  0
   36.0080   28.7050   33.4300 C   0  0  0  0  0  0  0  0  0  0  0  0
   36.6820   28.2660   34.5460 N   0  0  0  0  0  0  0  0  0  0  0  0
   37.2640   27.0370   34.6040 C   0  0  0  0  0  0  0  0  0  0  0  0
   37.1800   26.2010   33.5150 N   0  0  0  0  0  0  0  0  0  0  0  0
   35.3970   28.1780   31.4300 H   0  0  0  0  0  0  0  0  0  0  0  0
   35.5580   29.6900   33.4250 H   0  0  0  0  0  0  0  0  0  0  0  0
   36.4790   25.7290   31.2370 C   0  0  0  0  0  0  0  0  0  0  0  0
   36.3450   24.2960   31.3400 C   0  0  0  0  0  0  0  0  0  0  0  0
   35.1040   25.0960   31.0070 C   0  0  0  0  0  0  0  0  0  0  0  0
   36.9230   26.2490   30.3540 H   0  0  0  0  0  0  0  0  0  0  0  0
   36.8050   23.6940   30.5080 H   0  0  0  0  0  0  0  0  0  0  0  0
   36.3240   23.7600   32.3050 H   0  0  0  0  0  0  0  0  0  0  0  0
   34.3400   25.2030   31.7890 H   0  0  0  0  0  0  0  0  0  0  0  0
   34.8180   25.0680   29.9390 H   0  0  0  0  0  0  0  0  0  0  0  0
   37.9980   26.5640   35.7710 C   0  0  0  0  0  0  0  0  0  0  0  0
   38.7190   25.7590   35.5120 H   0  0  0  0  0  0  0  0  0  0  0  0
   37.3710   26.1420   36.5770 H   0  0  0  0  0  0  0  0  0  0  0  0
   38.7650   27.6290   36.2740 O   0  0  0  0  0  0  0  0  0  0  0  0
   39.0010   27.3520   37.2120 H   0  0  0  0  0  0  0  0  0  0  0  0
  1  6  1  0  0  0  0
  2  1  2  0  0  0  0
  2  3  1  0  0  0  0
  3  4  2  0  0  0  0
  4  5  1  0  0  0  0
  5 17  1  0  0  0  0
  6  5  2  0  0  0  0
  7  2  1  0  0  0  0
  8  3  1  0  0  0  0
  9 10  1  0  0  0  0
  9  1  1  0  0  0  0
 10 14  1  0  0  0  0
 11  9  1  0  0  0  0
 11 10  1  0  0  0  0
 11 15  1  0  0  0  0
 12  9  1  0  0  0  0
 13 10  1  0  0  0  0
 16 11  1  0  0  0  0
 17 20  1  0  0  0  0
 17 19  1  0  0  0  0
 18 17  1  0  0  0  0
 20 21  1  0  0  0  0
M  END
>  <minimizedAffinity>
-3.61342764

$$$$

 OpenBabel03272510303D

 21 22  0  0  0  0  0  0  0  0999 V2000
   35.9440   21.8970   31.7530 C   0  0  0  0  0  0  0  0  0  0  0  0
   37.1540   21.4620   31.1930 C   0  0  0  0  0  0  0  0  0  0  0  0
   37.9370   22.4450   30.6150 C   0  0  0  0  0  0  0  0  0  0  0  0
   37.5060   23.7510   30.6180 N   0  0  0  0  0  0  0  0  0  0  0  0
   36.3220   24.1230   31.1760 C   0  0  0  0  0  0  0  0  0  0  0  0
   35.5230   23.1650   31.7570 N   0  0  0  0  0  0  0  0  0  0  0  0
   37.4430   20.4340   31.2170 H   0  0  0  0  0  0  0  0  0  0  0  0
   38.8870   22.1920   30.1590 H   0  0  0  0  0  0  0  0  0  0  0  0
   35.0880   20.8710   32.4290 C   0  0  0  0  0  0  0  0  0  0  0  0
   35.5520   19.5370   32.7260 C   0  0  0  0  0  0  0  0  0  0  0  0
   35.5420   20.5450   33.8550 C   0  0  0  0  0  0  0  0  0  0  0  0
   34.0100   21.1430   32.3170 H   0  0  0  0  0  0  0  0  0  0  0  0
   34.7640   18.7330   32.7500 H   0  0  0  0  0  0  0  0  0  0  0  0
   36.5460   19.1630   32.4260 H   0  0  0  0  0  0  0  0  0  0  0  0
   36.5090   20.9360   34.1980 H   0  0  0  0  0  0  0  0  0  0  0  0
   34.6960   20.4330   34.5590 H   0  0  0  0  0  0  0  0  0  0  0  0
   35.8600   25.5050   31.2050 C   0  0  0  0  0  0  0  0  0  0  0  0
   36.6900   26.2250   31.0430 H   0  0  0  0  0  0  0  0  0  0  0  0
   35.3870   25.8190   32.1540 H   0  0  0  0  0  0  0  0  0  0  0  0
   34.9630   25.6960   30.1410 O   0  0  0  0  0  0  0  0  0  0  0  0
   34.4620   26.5350   30.3780 H   0  0  0  0  0  0  0  0  0  0  0  0
  1  6  1  0  0  0  0
  1  9  1  0  0  0  0
  2  7  1  0  0  0  0
  2  1  2  0  0  0  0
  3  4  2  0  0  0  0
  3  2  1  0  0  0  0
  4  5  1  0  0  0  0
  5 17  1  0  0  0  0
  5  6  2  0  0  0  0
  8  3  1  0  0  0  0
  9 10  1  0  0  0  0
  9 11  1  0  0  0  0
 10 13  1  0  0  0  0
 10 11  1  0  0  0  0
 11 15  1  0  0  0  0
 11 16  1  0  0  0  0
 12  9  1  0  0  0  0
 14 10  1  0  0  0  0
 17 19  1  0  0  0  0
 18 17  1  0  0  0  0
 20 21  1  0  0  0  0
 20 17  1  0  0  0  0
M  END
>  <minimizedAffinity>
-3.59417224

$$$$

 OpenBabel03272510303D

 21 22  0  0  0  0  0  0  0  0999 V2000
   37.0080   27.3120   34.2150 C   0  0  0  0  0  0  0  0  0  0  0  0
   36.3230   28.5260   34.0620 C   0  0  0  0  0  0  0  0  0  0  0  0
   35.6350   28.6830   32.8720 C   0  0  0  0  0  0  0  0  0  0  0  0
   35.6570   27.6790   31.9330 N   0  0  0  0  0  0  0  0  0  0  0  0
   36.3380   26.5170   32.1300 C   0  0  0  0  0  0  0  0  0  0  0  0
   37.0310   26.3350   33.3050 N   0  0  0  0  0  0  0  0  0  0  0  0
   36.3370   29.2750   34.8240 H   0  0  0  0  0  0  0  0  0  0  0  0
   35.0810   29.5930   32.6760 H   0  0  0  0  0  0  0  0  0  0  0  0
   37.7280   27.0840   35.5090 C   0  0  0  0  0  0  0  0  0  0  0  0
   38.4770   25.8830   35.7870 C   0  0  0  0  0  0  0  0  0  0  0  0
   39.2530   27.1130   35.3680 C   0  0  0  0  0  0  0  0  0  0  0  0
   37.3040   27.7500   36.3000 H   0  0  0  0  0  0  0  0  0  0  0  0
   38.5430   25.5790   36.8690 H   0  0  0  0  0  0  0  0  0  0  0  0
   38.5250   25.0270   35.0920 H   0  0  0  0  0  0  0  0  0  0  0  0
   39.6850   27.1250   34.3590 H   0  0  0  0  0  0  0  0  0  0  0  0
   39.7500   27.6440   36.2020 H   0  0  0  0  0  0  0  0  0  0  0  0
   36.3550   25.4350   31.1540 C   0  0  0  0  0  0  0  0  0  0  0  0
   36.2960   24.4370   31.6380 H   0  0  0  0  0  0  0  0  0  0  0  0
   37.2590   25.3940   30.5180 H   0  0  0  0  0  0  0  0  0  0  0  0
   35.2110   25.5470   30.3470 O   0  0  0  0  0  0  0  0  0  0  0  0
   35.4160   24.9910   29.5350 H   0  0  0  0  0  0  0  0  0  0  0  0
  1  9  1  0  0  0  0
  2  1  1  0  0  0  0
  2  7  1  0  0  0  0
  3  2  2  0  0  0  0
  4  5  2  0  0  0  0
  4  3  1  0  0  0  0
  5  6  1  0  0  0  0
  6  1  2  0  0  0  0
  8  3  1  0  0  0  0
  9 10  1  0  0  0  0
  9 12  1  0  0  0  0
 10 13  1  0  0  0  0
 11  9  1  0  0  0  0
 11 10  1  0  0  0  0
 11 16  1  0  0  0  0
 14 10  1  0  0  0  0
 15 11  1  0  0  0  0
 17 18  1  0  0  0  0
 17  5  1  0  0  0  0
 19 17  1  0  0  0  0
 20 17  1  0  0  0  0
 21 20  1  0  0  0  0
M  END
>  <minimizedAffinity>
-3.57622409

$$$$

 OpenBabel03272510303D

 21 22  0  0  0  0  0  0  0  0999 V2000
   39.2860   22.6250   36.4160 C   0  0  0  0  0  0  0  0  0  0  0  0
   39.2210   22.6660   35.0150 C   0  0  0  0  0  0  0  0  0  0  0  0
   40.3150   22.1480   34.3460 C   0  0  0  0  0  0  0  0  0  0  0  0
   41.3730   21.6370   35.0610 N   0  0  0  0  0  0  0  0  0  0  0  0
   41.3880   21.6200   36.4220 C   0  0  0  0  0  0  0  0  0  0  0  0
   40.3130   22.1290   37.1120 N   0  0  0  0  0  0  0  0  0  0  0  0
   38.3740   23.0740   34.5080 H   0  0  0  0  0  0  0  0  0  0  0  0
   40.3440   22.1430   33.2630 H   0  0  0  0  0  0  0  0  0  0  0  0
   38.1010   23.1350   37.1770 C   0  0  0  0  0  0  0  0  0  0  0  0
   38.2130   23.7580   38.4740 C   0  0  0  0  0  0  0  0  0  0  0  0
   38.0520   24.6630   37.2710 C   0  0  0  0  0  0  0  0  0  0  0  0
   37.1710   22.6450   36.8010 H   0  0  0  0  0  0  0  0  0  0  0  0
   37.3230   23.6480   39.1540 H   0  0  0  0  0  0  0  0  0  0  0  0
   39.1680   23.8510   39.0190 H   0  0  0  0  0  0  0  0  0  0  0  0
   38.9300   25.2360   36.9420 H   0  0  0  0  0  0  0  0  0  0  0  0
   37.0310   25.0670   37.1380 H   0  0  0  0  0  0  0  0  0  0  0  0
   42.4920   21.0640   37.1940 C   0  0  0  0  0  0  0  0  0  0  0  0
   43.1740   21.8550   37.5740 H   0  0  0  0  0  0  0  0  0  0  0  0
   43.1440   20.3640   36.6390 H   0  0  0  0  0  0  0  0  0  0  0  0
   41.9640   20.4250   38.3280 O   0  0  0  0  0  0  0  0  0  0  0  0
   42.7030   19.8230   38.6490 H   0  0  0  0  0  0  0  0  0  0  0  0
  1  6  1  0  0  0  0
  1  9  1  0  0  0  0
  2  1  2  0  0  0  0
  3  2  1  0  0  0  0
  3  4  2  0  0  0  0
  4  5  1  0  0  0  0
  5  6  2  0  0  0  0
  5 17  1  0  0  0  0
  7  2  1  0  0  0  0
  8  3  1  0  0  0  0
  9 11  1  0  0  0  0
  9 10  1  0  0  0  0
 10 14  1  0  0  0  0
 10 13  1  0  0  0  0
 11 10  1  0  0  0  0
 12  9  1  0  0  0  0
 15 11  1  0  0  0  0
 16 11  1  0  0  0  0
 17 18  1  0  0  0  0
 17 20  1  0  0  0  0
 19 17  1  0  0  0  0
 20 21  1  0  0  0  0
M  END
>  <minimizedAffinity>
-3.55737042

$$$$

 OpenBabel03272510303D

 21 22  0  0  0  0  0  0  0  0999 V2000
   37.3720   26.9450   33.7340 C   0  0  0  0  0  0  0  0  0  0  0  0
   37.2470   25.5700   33.4890 C   0  0  0  0  0  0  0  0  0  0  0  0
   36.8520   25.2190   32.2100 C   0  0  0  0  0  0  0  0  0  0  0  0
   36.6100   26.2010   31.2780 N   0  0  0  0  0  0  0  0  0  0  0  0
   36.7470   27.5240   31.5660 C   0  0  0  0  0  0  0  0  0  0  0  0
   37.1380   27.9000   32.8300 N   0  0  0  0  0  0  0  0  0  0  0  0
   37.4460   24.8460   34.2500 H   0  0  0  0  0  0  0  0  0  0  0  0
   36.7300   24.1770   31.9400 H   0  0  0  0  0  0  0  0  0  0  0  0
   37.8410   27.3640   35.0930 C   0  0  0  0  0  0  0  0  0  0  0  0
   38.2580   26.4200   36.1030 C   0  0  0  0  0  0  0  0  0  0  0  0
   39.3380   27.1310   35.3160 C   0  0  0  0  0  0  0  0  0  0  0  0
   37.4750   28.3940   35.3190 H   0  0  0  0  0  0  0  0  0  0  0  0
   38.1080   26.7400   37.1710 H   0  0  0  0  0  0  0  0  0  0  0  0
   38.2070   25.3270   35.9650 H   0  0  0  0  0  0  0  0  0  0  0  0
   39.8940   26.5480   34.5700 H   0  0  0  0  0  0  0  0  0  0  0  0
   39.8250   27.9630   35.8600 H   0  0  0  0  0  0  0  0  0  0  0  0
   36.5140   28.5750   30.5830 C   0  0  0  0  0  0  0  0  0  0  0  0
   37.2480   29.4040   30.6790 H   0  0  0  0  0  0  0  0  0  0  0  0
   35.5220   29.0600   30.6440 H   0  0  0  0  0  0  0  0  0  0  0  0
   36.7010   28.0340   29.3010 O   0  0  0  0  0  0  0  0  0  0  0  0
   36.2500   28.6850   28.6810 H   0  0  0  0  0  0  0  0  0  0  0  0
  1  9  1  0  0  0  0
  2  1  1  0  0  0  0
  2  7  1  0  0  0  0
  3  2  2  0  0  0  0
  4  5  2  0  0  0  0
  4  3  1  0  0  0  0
  5  6  1  0  0  0  0
  6  1  2  0  0  0  0
  8  3  1  0  0  0  0
  9 11  1  0  0  0  0
  9 12  1  0  0  0  0
  9 10  1  0  0  0  0
 10 13  1  0  0  0  0
 11 16  1  0  0  0  0
 11 10  1  0  0  0  0
 14 10  1  0  0  0  0
 15 11  1  0  0  0  0
 17 19  1  0  0  0  0
 17 18  1  0  0  0  0
 17  5  1  0  0  0  0
 20 17  1  0  0  0  0
 21 20  1  0  0  0  0
M  END
>  <minimizedAffinity>
-3.55238438

$$$$

 OpenBabel03272510303D

 21 22  0  0  0  0  0  0  0  0999 V2000
   37.0320   27.5750   34.0180 C   0  0  0  0  0  0  0  0  0  0  0  0
   36.1070   28.5990   34.2720 C   0  0  0  0  0  0  0  0  0  0  0  0
   35.7040   29.3330   33.1710 C   0  0  0  0  0  0  0  0  0  0  0  0
   36.2110   29.0330   31.9280 N   0  0  0  0  0  0  0  0  0  0  0  0
   37.1070   28.0270   31.7340 C   0  0  0  0  0  0  0  0  0  0  0  0
   37.5250   27.2820   32.8120 N   0  0  0  0  0  0  0  0  0  0  0  0
   35.7440   28.7910   35.2580 H   0  0  0  0  0  0  0  0  0  0  0  0
   34.9930   30.1420   33.2830 H   0  0  0  0  0  0  0  0  0  0  0  0
   37.4590   26.7280   35.1770 C   0  0  0  0  0  0  0  0  0  0  0  0
   38.6950   25.9830   35.1890 C   0  0  0  0  0  0  0  0  0  0  0  0
   38.6600   27.2990   35.9360 C   0  0  0  0  0  0  0  0  0  0  0  0
   36.5710   26.4700   35.8040 H   0  0  0  0  0  0  0  0  0  0  0  0
   38.7000   25.0430   35.8080 H   0  0  0  0  0  0  0  0  0  0  0  0
   39.3820   25.9400   34.3270 H   0  0  0  0  0  0  0  0  0  0  0  0
   39.2000   28.1490   35.4980 H   0  0  0  0  0  0  0  0  0  0  0  0
   38.5620   27.1980   37.0330 H   0  0  0  0  0  0  0  0  0  0  0  0
   37.6390   27.6840   30.4210 C   0  0  0  0  0  0  0  0  0  0  0  0
   37.8330   26.5950   30.3220 H   0  0  0  0  0  0  0  0  0  0  0  0
   38.5960   28.1730   30.1630 H   0  0  0  0  0  0  0  0  0  0  0  0
   36.6690   27.9980   29.4540 O   0  0  0  0  0  0  0  0  0  0  0  0
   37.1760   28.0290   28.5860 H   0  0  0  0  0  0  0  0  0  0  0  0
  1  2  1  0  0  0  0
  1  9  1  0  0  0  0
  2  7  1  0  0  0  0
  3  8  1  0  0  0  0
  3  2  2  0  0  0  0
  4  3  1  0  0  0  0
  5  4  2  0  0  0  0
  5  6  1  0  0  0  0
  6  1  2  0  0  0  0
  9 10  1  0  0  0  0
  9 12  1  0  0  0  0
  9 11  1  0  0  0  0
 10 13  1  0  0  0  0
 10 11  1  0  0  0  0
 11 16  1  0  0  0  0
 14 10  1  0  0  0  0
 15 11  1  0  0  0  0
 17  5  1  0  0  0  0
 18 17  1  0  0  0  0
 19 17  1  0  0  0  0
 20 17  1  0  0  0  0
 21 20  1  0  0  0  0
M  END
>  <minimizedAffinity>
-3.53940058

$$$$
