
 OpenBabel03272509323D

 31 32  0  0  1  0  0  0  0  0999 V2000
   39.8520   24.3150   34.9230 C   0  0  2  0  0  0  0  0  0  0  0  0
   40.4710   25.4680   34.1900 C   0  0  0  0  0  0  0  0  0  0  0  0
   40.1950   26.8010   34.8500 C   0  0  0  0  0  0  0  0  0  0  0  0
   38.6930   27.0250   35.0070 C   0  0  0  0  0  0  0  0  0  0  0  0
   37.9180   25.7710   35.3250 C   0  0  0  0  0  0  0  0  0  0  0  0
   38.8890   24.7630   35.9700 C   0  0  1  0  0  0  0  0  0  0  0  0
   39.2840   23.6120   34.2510 H   0  0  0  0  0  0  0  0  0  0  0  0
   39.8800   25.5320   33.2140 H   0  0  0  0  0  0  0  0  0  0  0  0
   41.4930   25.3690   33.8840 H   0  0  0  0  0  0  0  0  0  0  0  0
   40.6980   26.9490   35.8100 H   0  0  0  0  0  0  0  0  0  0  0  0
   40.5510   27.5800   34.1490 H   0  0  0  0  0  0  0  0  0  0  0  0
   38.2630   27.5520   34.1410 H   0  0  0  0  0  0  0  0  0  0  0  0
   38.5640   27.7130   35.8780 H   0  0  0  0  0  0  0  0  0  0  0  0
   37.5150   25.3510   34.3820 H   0  0  0  0  0  0  0  0  0  0  0  0
   37.0870   25.9730   36.0040 H   0  0  0  0  0  0  0  0  0  0  0  0
   39.3520   25.3940   36.6900 H   0  0  0  0  0  0  0  0  0  0  0  0
   40.8950   23.4680   35.5590 C   0  0  0  0  0  0  0  0  0  0  0  0
   42.1620   24.0640   35.6990 C   0  0  0  0  0  0  0  0  0  0  0  0
   43.1560   23.2830   36.3000 C   0  0  0  0  0  0  0  0  0  0  0  0
   42.8430   22.0050   36.7100 N   0  0  0  0  0  0  0  0  0  0  0  0
   41.5890   21.4740   36.5480 C   0  0  0  0  0  0  0  0  0  0  0  0
   40.6320   22.2220   35.9710 N   0  0  0  0  0  0  0  0  0  0  0  0
   42.5270   25.0380   35.4350 H   0  0  0  0  0  0  0  0  0  0  0  0
   44.1680   23.6020   36.4730 H   0  0  0  0  0  0  0  0  0  0  0  0
   41.4100   20.4750   36.8890 H   0  0  0  0  0  0  0  0  0  0  0  0
   37.9410   23.7160   38.0850 C   0  0  0  0  0  0  0  0  0  0  0  0
   38.0670   24.6000   38.9820 O   0  0  0  0  0  0  0  0  0  0  0  0
   38.2680   23.7170   36.7010 N   0  0  0  0  0  0  0  0  0  0  0  0
   37.9880   22.8050   36.2110 H   0  0  0  0  0  0  0  0  0  0  0  0
   37.3700   22.6090   38.7070 O   0  0  0  0  0  0  0  0  0  0  0  0
   37.3720   22.3940   39.6770 H   0  0  0  0  0  0  0  0  0  0  0  0
  1  7  1  6  0  0  0
  1 17  1  0  0  0  0
  1  6  1  0  0  0  0
  2  3  1  0  0  0  0
  2  1  1  0  0  0  0
  3  4  1  0  0  0  0
  3 10  1  0  0  0  0
  4  5  1  0  0  0  0
  4 13  1  0  0  0  0
  5  6  1  0  0  0  0
  5 15  1  0  0  0  0
  6 16  1  1  0  0  0
  6 28  1  0  0  0  0
  8  2  1  0  0  0  0
  9  2  1  0  0  0  0
 11  3  1  0  0  0  0
 12  4  1  0  0  0  0
 14  5  1  0  0  0  0
 17 18  2  0  0  0  0
 17 22  1  0  0  0  0
 18 19  1  0  0  0  0
 19 24  1  0  0  0  0
 19 20  2  0  0  0  0
 21 20  1  0  0  0  0
 21 25  1  0  0  0  0
 22 21  2  0  0  0  0
 23 18  1  0  0  0  0
 26 30  1  0  0  0  0
 26 27  2  0  0  0  0
 28 26  1  0  0  0  0
 29 28  1  0  0  0  0
 30 31  1  0  0  0  0
M  END
>  <minimizedAffinity>
-4.6981554

$$$$

 OpenBabel03272509323D

 31 32  0  0  1  0  0  0  0  0999 V2000
   36.8370   27.8610   32.1380 C   0  0  2  0  0  0  0  0  0  0  0  0
   36.4170   28.3000   33.5090 C   0  0  0  0  0  0  0  0  0  0  0  0
   35.2850   29.3030   33.4840 C   0  0  0  0  0  0  0  0  0  0  0  0
   35.6580   30.5170   32.6360 C   0  0  0  0  0  0  0  0  0  0  0  0
   36.4910   30.1830   31.4250 C   0  0  0  0  0  0  0  0  0  0  0  0
   36.2380   28.7050   31.0650 C   0  0  1  0  0  0  0  0  0  0  0  0
   37.9520   27.8940   31.9810 H   0  0  0  0  0  0  0  0  0  0  0  0
   37.3020   28.9130   33.8930 H   0  0  0  0  0  0  0  0  0  0  0  0
   36.2700   27.5390   34.2490 H   0  0  0  0  0  0  0  0  0  0  0  0
   34.3230   28.9000   33.1570 H   0  0  0  0  0  0  0  0  0  0  0  0
   35.1700   29.6750   34.5210 H   0  0  0  0  0  0  0  0  0  0  0  0
   36.1280   31.3100   33.2390 H   0  0  0  0  0  0  0  0  0  0  0  0
   34.6990   30.9470   32.2590 H   0  0  0  0  0  0  0  0  0  0  0  0
   37.5610   30.3290   31.6750 H   0  0  0  0  0  0  0  0  0  0  0  0
   36.2390   30.8200   30.5750 H   0  0  0  0  0  0  0  0  0  0  0  0
   35.1750   28.6930   31.0990 H   0  0  0  0  0  0  0  0  0  0  0  0
   36.4660   26.4410   31.8970 C   0  0  0  0  0  0  0  0  0  0  0  0
   37.3310   25.4830   32.4560 C   0  0  0  0  0  0  0  0  0  0  0  0
   36.9950   24.1410   32.2440 C   0  0  0  0  0  0  0  0  0  0  0  0
   35.8620   23.8430   31.5180 N   0  0  0  0  0  0  0  0  0  0  0  0
   35.0540   24.8210   30.9950 C   0  0  0  0  0  0  0  0  0  0  0  0
   35.3750   26.1100   31.1970 N   0  0  0  0  0  0  0  0  0  0  0  0
   38.2250   25.5820   33.0410 H   0  0  0  0  0  0  0  0  0  0  0  0
   37.5590   23.3010   32.6080 H   0  0  0  0  0  0  0  0  0  0  0  0
   34.1880   24.5230   30.4410 H   0  0  0  0  0  0  0  0  0  0  0  0
   37.8610   28.5280   29.1170 C   0  0  0  0  0  0  0  0  0  0  0  0
   38.9540   29.0000   29.5470 O   0  0  0  0  0  0  0  0  0  0  0  0
   36.5980   28.3420   29.7430 N   0  0  0  0  0  0  0  0  0  0  0  0
   35.8840   27.8700   29.0960 H   0  0  0  0  0  0  0  0  0  0  0  0
   38.0870   28.1710   27.7900 O   0  0  0  0  0  0  0  0  0  0  0  0
   38.8000   28.5090   27.1870 H   0  0  0  0  0  0  0  0  0  0  0  0
  1  7  1  6  0  0  0
  1  2  1  0  0  0  0
  2  8  1  0  0  0  0
  2  9  1  0  0  0  0
  3  2  1  0  0  0  0
  3 11  1  0  0  0  0
  4 12  1  0  0  0  0
  4  3  1  0  0  0  0
  5 14  1  0  0  0  0
  5  4  1  0  0  0  0
  6 16  1  1  0  0  0
  6  5  1  0  0  0  0
  6  1  1  0  0  0  0
 10  3  1  0  0  0  0
 13  4  1  0  0  0  0
 15  5  1  0  0  0  0
 17  1  1  0  0  0  0
 17 18  1  0  0  0  0
 18 23  1  0  0  0  0
 19 18  2  0  0  0  0
 19 24  1  0  0  0  0
 20 19  1  0  0  0  0
 21 22  1  0  0  0  0
 21 20  2  0  0  0  0
 22 17  2  0  0  0  0
 25 21  1  0  0  0  0
 26 27  2  0  0  0  0
 26 28  1  0  0  0  0
 28  6  1  0  0  0  0
 29 28  1  0  0  0  0
 30 26  1  0  0  0  0
 31 30  1  0  0  0  0
M  END
>  <minimizedAffinity>
-4.61949968

$$$$

 OpenBabel03272509323D

 31 32  0  0  1  0  0  0  0  0999 V2000
   38.8680   25.8600   34.7680 C   0  0  2  0  0  0  0  0  0  0  0  0
   38.5670   27.2150   35.3350 C   0  0  0  0  0  0  0  0  0  0  0  0
   37.1830   27.7080   34.9760 C   0  0  0  0  0  0  0  0  0  0  0  0
   36.9890   27.7180   33.4620 C   0  0  0  0  0  0  0  0  0  0  0  0
   37.6670   26.5730   32.7510 C   0  0  0  0  0  0  0  0  0  0  0  0
   37.8530   25.4270   33.7660 C   0  0  1  0  0  0  0  0  0  0  0  0
   39.8670   25.8040   34.2510 H   0  0  0  0  0  0  0  0  0  0  0  0
   39.2550   27.9220   34.7570 H   0  0  0  0  0  0  0  0  0  0  0  0
   38.8050   27.3850   36.3660 H   0  0  0  0  0  0  0  0  0  0  0  0
   36.3650   27.1620   35.4540 H   0  0  0  0  0  0  0  0  0  0  0  0
   37.1300   28.7650   35.3000 H   0  0  0  0  0  0  0  0  0  0  0  0
   37.2680   28.6860   33.0180 H   0  0  0  0  0  0  0  0  0  0  0  0
   35.8920   27.6040   33.2810 H   0  0  0  0  0  0  0  0  0  0  0  0
   38.6560   26.9150   32.3870 H   0  0  0  0  0  0  0  0  0  0  0  0
   37.0800   26.2240   31.9000 H   0  0  0  0  0  0  0  0  0  0  0  0
   36.8750   25.3950   34.1810 H   0  0  0  0  0  0  0  0  0  0  0  0
   38.9460   24.8380   35.8450 C   0  0  0  0  0  0  0  0  0  0  0  0
   37.9880   24.9580   36.8690 C   0  0  0  0  0  0  0  0  0  0  0  0
   38.0430   24.0020   37.8890 C   0  0  0  0  0  0  0  0  0  0  0  0
   39.0090   23.0210   37.8340 N   0  0  0  0  0  0  0  0  0  0  0  0
   39.9200   22.9530   36.8100 C   0  0  0  0  0  0  0  0  0  0  0  0
   39.8700   23.8700   35.8290 N   0  0  0  0  0  0  0  0  0  0  0  0
   37.1890   25.6580   37.0220 H   0  0  0  0  0  0  0  0  0  0  0  0
   37.3790   23.9660   38.7350 H   0  0  0  0  0  0  0  0  0  0  0  0
   40.6450   22.1650   36.8250 H   0  0  0  0  0  0  0  0  0  0  0  0
   37.1890   23.4090   32.3700 C   0  0  0  0  0  0  0  0  0  0  0  0
   36.0360   23.6760   31.9210 O   0  0  0  0  0  0  0  0  0  0  0  0
   38.0820   24.1510   33.1900 N   0  0  0  0  0  0  0  0  0  0  0  0
   39.0110   23.6410   33.3530 H   0  0  0  0  0  0  0  0  0  0  0  0
   37.5060   22.1380   31.8960 O   0  0  0  0  0  0  0  0  0  0  0  0
   36.8760   21.4370   31.5800 H   0  0  0  0  0  0  0  0  0  0  0  0
  1  7  1  6  0  0  0
  1  2  1  0  0  0  0
  1 17  1  0  0  0  0
  2  9  1  0  0  0  0
  3 11  1  0  0  0  0
  3  2  1  0  0  0  0
  3 10  1  0  0  0  0
  4  3  1  0  0  0  0
  5  4  1  0  0  0  0
  5  6  1  0  0  0  0
  6 16  1  1  0  0  0
  6  1  1  0  0  0  0
  8  2  1  0  0  0  0
 12  4  1  0  0  0  0
 13  4  1  0  0  0  0
 14  5  1  0  0  0  0
 15  5  1  0  0  0  0
 17 18  1  0  0  0  0
 18 23  1  0  0  0  0
 18 19  2  0  0  0  0
 19 24  1  0  0  0  0
 20 19  1  0  0  0  0
 21 25  1  0  0  0  0
 21 20  2  0  0  0  0
 22 17  2  0  0  0  0
 22 21  1  0  0  0  0
 26 28  1  0  0  0  0
 27 26  2  0  0  0  0
 28 29  1  0  0  0  0
 28  6  1  0  0  0  0
 30 26  1  0  0  0  0
 31 30  1  0  0  0  0
M  END
>  <minimizedAffinity>
-4.54208803

$$$$

 OpenBabel03272509323D

 31 32  0  0  1  0  0  0  0  0999 V2000
   38.0260   26.5570   33.2750 C   0  0  2  0  0  0  0  0  0  0  0  0
   38.9900   27.2130   32.3320 C   0  0  0  0  0  0  0  0  0  0  0  0
   40.4270   26.8180   32.5900 C   0  0  0  0  0  0  0  0  0  0  0  0
   40.8190   27.1200   34.0340 C   0  0  0  0  0  0  0  0  0  0  0  0
   39.7090   26.8920   35.0290 C   0  0  0  0  0  0  0  0  0  0  0  0
   38.7170   25.8860   34.4130 C   0  0  1  0  0  0  0  0  0  0  0  0
   37.2900   27.2770   33.7330 H   0  0  0  0  0  0  0  0  0  0  0  0
   38.9650   28.3180   32.6250 H   0  0  0  0  0  0  0  0  0  0  0  0
   38.7470   27.2030   31.2890 H   0  0  0  0  0  0  0  0  0  0  0  0
   40.6660   25.7790   32.3480 H   0  0  0  0  0  0  0  0  0  0  0  0
   41.0540   27.4750   31.9570 H   0  0  0  0  0  0  0  0  0  0  0  0
   41.2510   28.1280   34.1410 H   0  0  0  0  0  0  0  0  0  0  0  0
   41.6390   26.4080   34.2970 H   0  0  0  0  0  0  0  0  0  0  0  0
   39.1950   27.8560   35.2190 H   0  0  0  0  0  0  0  0  0  0  0  0
   40.0910   26.5060   35.9760 H   0  0  0  0  0  0  0  0  0  0  0  0
   39.4010   25.1430   34.0790 H   0  0  0  0  0  0  0  0  0  0  0  0
   37.1840   25.5580   32.5660 C   0  0  0  0  0  0  0  0  0  0  0  0
   36.1290   26.0860   31.8000 C   0  0  0  0  0  0  0  0  0  0  0  0
   35.3280   25.1610   31.1210 C   0  0  0  0  0  0  0  0  0  0  0  0
   35.6140   23.8180   31.2380 N   0  0  0  0  0  0  0  0  0  0  0  0
   36.6580   23.3590   32.0000 C   0  0  0  0  0  0  0  0  0  0  0  0
   37.4280   24.2460   32.6540 N   0  0  0  0  0  0  0  0  0  0  0  0
   35.8100   27.0950   31.6210 H   0  0  0  0  0  0  0  0  0  0  0  0
   34.4870   25.4140   30.5000 H   0  0  0  0  0  0  0  0  0  0  0  0
   36.8280   22.3030   32.0490 H   0  0  0  0  0  0  0  0  0  0  0  0
   38.2080   24.2220   36.2670 C   0  0  0  0  0  0  0  0  0  0  0  0
   39.3130   23.6620   36.5280 O   0  0  0  0  0  0  0  0  0  0  0  0
   37.8600   25.2460   35.3440 N   0  0  0  0  0  0  0  0  0  0  0  0
   36.8250   25.5220   35.4070 H   0  0  0  0  0  0  0  0  0  0  0  0
   37.2660   23.6330   37.1070 O   0  0  0  0  0  0  0  0  0  0  0  0
   37.3280   22.7490   37.5570 H   0  0  0  0  0  0  0  0  0  0  0  0
  1  7  1  1  0  0  0
  1  6  1  0  0  0  0
  2  3  1  0  0  0  0
  2  8  1  0  0  0  0
  2  1  1  0  0  0  0
  3  4  1  0  0  0  0
  4 12  1  0  0  0  0
  4 13  1  0  0  0  0
  4  5  1  0  0  0  0
  5 14  1  0  0  0  0
  5 15  1  0  0  0  0
  6 16  1  6  0  0  0
  6  5  1  0  0  0  0
  6 28  1  0  0  0  0
  9  2  1  0  0  0  0
 10  3  1  0  0  0  0
 11  3  1  0  0  0  0
 17 22  1  0  0  0  0
 17  1  1  0  0  0  0
 18 17  2  0  0  0  0
 19 20  2  0  0  0  0
 19 18  1  0  0  0  0
 20 21  1  0  0  0  0
 21 25  1  0  0  0  0
 21 22  2  0  0  0  0
 23 18  1  0  0  0  0
 24 19  1  0  0  0  0
 26 27  2  0  0  0  0
 26 30  1  0  0  0  0
 28 29  1  0  0  0  0
 28 26  1  0  0  0  0
 30 31  1  0  0  0  0
M  END
>  <minimizedAffinity>
-4.44636726

$$$$

 OpenBabel03272509323D

 31 32  0  0  1  0  0  0  0  0999 V2000
   38.2150   24.7950   34.3540 C   0  0  2  0  0  0  0  0  0  0  0  0
   38.8180   25.9520   33.6160 C   0  0  0  0  0  0  0  0  0  0  0  0
   39.7320   26.7900   34.4810 C   0  0  0  0  0  0  0  0  0  0  0  0
   38.9950   27.2870   35.7220 C   0  0  0  0  0  0  0  0  0  0  0  0
   38.0060   26.2970   36.2840 C   0  0  0  0  0  0  0  0  0  0  0  0
   38.4340   24.8880   35.8260 C   0  0  1  0  0  0  0  0  0  0  0  0
   37.1020   24.7010   34.2050 H   0  0  0  0  0  0  0  0  0  0  0  0
   37.9350   26.6500   33.4140 H   0  0  0  0  0  0  0  0  0  0  0  0
   39.2380   25.7580   32.6490 H   0  0  0  0  0  0  0  0  0  0  0  0
   40.6640   26.2990   34.7730 H   0  0  0  0  0  0  0  0  0  0  0  0
   39.9860   27.6920   33.8920 H   0  0  0  0  0  0  0  0  0  0  0  0
   38.5250   28.2690   35.5550 H   0  0  0  0  0  0  0  0  0  0  0  0
   39.7710   27.4500   36.5100 H   0  0  0  0  0  0  0  0  0  0  0  0
   36.9990   26.5300   35.8850 H   0  0  0  0  0  0  0  0  0  0  0  0
   37.9700   26.3380   37.3740 H   0  0  0  0  0  0  0  0  0  0  0  0
   39.4680   24.9250   36.0720 H   0  0  0  0  0  0  0  0  0  0  0  0
   38.7690   23.5050   33.8650 C   0  0  0  0  0  0  0  0  0  0  0  0
   37.9880   22.8300   32.9090 C   0  0  0  0  0  0  0  0  0  0  0  0
   38.4960   21.6160   32.4330 C   0  0  0  0  0  0  0  0  0  0  0  0
   39.7040   21.1630   32.9170 N   0  0  0  0  0  0  0  0  0  0  0  0
   40.4240   21.8640   33.8500 C   0  0  0  0  0  0  0  0  0  0  0  0
   39.9380   23.0300   34.3100 N   0  0  0  0  0  0  0  0  0  0  0  0
   37.0500   23.0760   32.4510 H   0  0  0  0  0  0  0  0  0  0  0  0
   38.0120   20.9900   31.7050 H   0  0  0  0  0  0  0  0  0  0  0  0
   41.3570   21.4570   34.1850 H   0  0  0  0  0  0  0  0  0  0  0  0
   37.8810   23.6900   38.0000 C   0  0  0  0  0  0  0  0  0  0  0  0
   38.2990   24.4520   38.9190 O   0  0  0  0  0  0  0  0  0  0  0  0
   37.8850   23.8210   36.5840 N   0  0  0  0  0  0  0  0  0  0  0  0
   37.4070   22.9960   36.0930 H   0  0  0  0  0  0  0  0  0  0  0  0
   37.3500   22.5700   38.6350 O   0  0  0  0  0  0  0  0  0  0  0  0
   37.5480   22.2460   39.5530 H   0  0  0  0  0  0  0  0  0  0  0  0
  1  7  1  6  0  0  0
  1  6  1  0  0  0  0
  2  1  1  0  0  0  0
  2  3  1  0  0  0  0
  3 10  1  0  0  0  0
  3  4  1  0  0  0  0
  4  5  1  0  0  0  0
  4 13  1  0  0  0  0
  5 15  1  0  0  0  0
  6 16  1  1  0  0  0
  6  5  1  0  0  0  0
  6 28  1  0  0  0  0
  8  2  1  0  0  0  0
  9  2  1  0  0  0  0
 11  3  1  0  0  0  0
 12  4  1  0  0  0  0
 14  5  1  0  0  0  0
 17 22  1  0  0  0  0
 17  1  1  0  0  0  0
 18 17  2  0  0  0  0
 19 18  1  0  0  0  0
 19 20  2  0  0  0  0
 20 21  1  0  0  0  0
 21 25  1  0  0  0  0
 21 22  2  0  0  0  0
 23 18  1  0  0  0  0
 24 19  1  0  0  0  0
 26 30  1  0  0  0  0
 26 27  2  0  0  0  0
 28 26  1  0  0  0  0
 29 28  1  0  0  0  0
 30 31  1  0  0  0  0
M  END
>  <minimizedAffinity>
-4.40694046

$$$$

 OpenBabel03272509323D

 31 32  0  0  1  0  0  0  0  0999 V2000
   38.0640   24.6810   32.5940 C   0  0  2  0  0  0  0  0  0  0  0  0
   37.1250   25.1010   31.5040 C   0  0  0  0  0  0  0  0  0  0  0  0
   35.8500   24.2870   31.4800 C   0  0  0  0  0  0  0  0  0  0  0  0
   36.1630   22.7970   31.3580 C   0  0  0  0  0  0  0  0  0  0  0  0
   37.4010   22.3690   32.1040 C   0  0  0  0  0  0  0  0  0  0  0  0
   37.6570   23.3940   33.2280 C   0  0  1  0  0  0  0  0  0  0  0  0
   39.1240   24.5370   32.2390 H   0  0  0  0  0  0  0  0  0  0  0  0
   37.6530   24.7890   30.5390 H   0  0  0  0  0  0  0  0  0  0  0  0
   36.9390   26.1490   31.3860 H   0  0  0  0  0  0  0  0  0  0  0  0
   35.1810   24.4600   32.3270 H   0  0  0  0  0  0  0  0  0  0  0  0
   35.3140   24.5660   30.5530 H   0  0  0  0  0  0  0  0  0  0  0  0
   36.1960   22.4690   30.3070 H   0  0  0  0  0  0  0  0  0  0  0  0
   35.3040   22.2530   31.8200 H   0  0  0  0  0  0  0  0  0  0  0  0
   38.2580   22.3630   31.4020 H   0  0  0  0  0  0  0  0  0  0  0  0
   37.2890   21.3710   32.5310 H   0  0  0  0  0  0  0  0  0  0  0  0
   36.6800   23.4500   33.6450 H   0  0  0  0  0  0  0  0  0  0  0  0
   38.1600   25.7260   33.6460 C   0  0  0  0  0  0  0  0  0  0  0  0
   37.0260   26.5450   33.7950 C   0  0  0  0  0  0  0  0  0  0  0  0
   37.0950   27.5330   34.7850 C   0  0  0  0  0  0  0  0  0  0  0  0
   38.2440   27.6420   35.5390 N   0  0  0  0  0  0  0  0  0  0  0  0
   39.3210   26.8150   35.3500 C   0  0  0  0  0  0  0  0  0  0  0  0
   39.2570   25.8660   34.4000 N   0  0  0  0  0  0  0  0  0  0  0  0
   36.0810   26.5570   33.2870 H   0  0  0  0  0  0  0  0  0  0  0  0
   36.3100   28.2310   35.0130 H   0  0  0  0  0  0  0  0  0  0  0  0
   40.1830   26.9510   35.9700 H   0  0  0  0  0  0  0  0  0  0  0  0
   38.1320   22.1860   35.4140 C   0  0  0  0  0  0  0  0  0  0  0  0
   37.0200   21.7060   35.7810 O   0  0  0  0  0  0  0  0  0  0  0  0
   38.5070   22.9400   34.2680 N   0  0  0  0  0  0  0  0  0  0  0  0
   39.5580   23.1560   34.2440 H   0  0  0  0  0  0  0  0  0  0  0  0
   39.0520   21.8330   36.3990 O   0  0  0  0  0  0  0  0  0  0  0  0
   38.8610   21.5790   37.3400 H   0  0  0  0  0  0  0  0  0  0  0  0
  1  7  1  6  0  0  0
  1  6  1  0  0  0  0
  1 17  1  0  0  0  0
  2  1  1  0  0  0  0
  3  2  1  0  0  0  0
  3 10  1  0  0  0  0
  4  3  1  0  0  0  0
  4 13  1  0  0  0  0
  4  5  1  0  0  0  0
  5 15  1  0  0  0  0
  5  6  1  0  0  0  0
  6 16  1  1  0  0  0
  6 28  1  0  0  0  0
  8  2  1  0  0  0  0
  9  2  1  0  0  0  0
 11  3  1  0  0  0  0
 12  4  1  0  0  0  0
 14  5  1  0  0  0  0
 17 18  2  0  0  0  0
 17 22  1  0  0  0  0
 18 19  1  0  0  0  0
 19 24  1  0  0  0  0
 19 20  2  0  0  0  0
 21 20  1  0  0  0  0
 21 25  1  0  0  0  0
 22 21  2  0  0  0  0
 23 18  1  0  0  0  0
 26 27  2  0  0  0  0
 26 30  1  0  0  0  0
 28 26  1  0  0  0  0
 29 28  1  0  0  0  0
 30 31  1  0  0  0  0
M  END
>  <minimizedAffinity>
-4.31833553

$$$$

 OpenBabel03272509323D

 31 32  0  0  1  0  0  0  0  0999 V2000
   37.2670   26.8950   34.5430 C   0  0  2  0  0  0  0  0  0  0  0  0
   38.3380   27.3950   35.4650 C   0  0  0  0  0  0  0  0  0  0  0  0
   39.7070   26.8460   35.1280 C   0  0  0  0  0  0  0  0  0  0  0  0
   39.6900   25.3190   35.1220 C   0  0  0  0  0  0  0  0  0  0  0  0
   38.4100   24.7240   34.5930 C   0  0  0  0  0  0  0  0  0  0  0  0
   37.7390   25.7720   33.6830 C   0  0  1  0  0  0  0  0  0  0  0  0
   36.3530   26.5170   35.0840 H   0  0  0  0  0  0  0  0  0  0  0  0
   38.0990   26.9030   36.4690 H   0  0  0  0  0  0  0  0  0  0  0  0
   38.3620   28.4450   35.6740 H   0  0  0  0  0  0  0  0  0  0  0  0
   40.1310   27.2190   34.1920 H   0  0  0  0  0  0  0  0  0  0  0  0
   40.3790   27.1430   35.9560 H   0  0  0  0  0  0  0  0  0  0  0  0
   39.9480   24.9020   36.1080 H   0  0  0  0  0  0  0  0  0  0  0  0
   40.5060   24.9950   34.4300 H   0  0  0  0  0  0  0  0  0  0  0  0
   37.7440   24.4900   35.4480 H   0  0  0  0  0  0  0  0  0  0  0  0
   38.5940   23.8070   34.0300 H   0  0  0  0  0  0  0  0  0  0  0  0
   38.5740   26.0540   33.0870 H   0  0  0  0  0  0  0  0  0  0  0  0
   36.7620   27.9890   33.6730 C   0  0  0  0  0  0  0  0  0  0  0  0
   35.8450   28.8710   34.2740 C   0  0  0  0  0  0  0  0  0  0  0  0
   35.3620   29.9110   33.4710 C   0  0  0  0  0  0  0  0  0  0  0  0
   35.8030   30.0090   32.1690 N   0  0  0  0  0  0  0  0  0  0  0  0
   36.7000   29.1190   31.6350 C   0  0  0  0  0  0  0  0  0  0  0  0
   37.1650   28.1190   32.4030 N   0  0  0  0  0  0  0  0  0  0  0  0
   35.4340   28.9100   35.2640 H   0  0  0  0  0  0  0  0  0  0  0  0
   34.6580   30.6590   33.7910 H   0  0  0  0  0  0  0  0  0  0  0  0
   37.0030   29.2510   30.6170 H   0  0  0  0  0  0  0  0  0  0  0  0
   36.9950   24.7600   31.4730 C   0  0  0  0  0  0  0  0  0  0  0  0
   38.0540   24.6170   30.7960 O   0  0  0  0  0  0  0  0  0  0  0  0
   36.7690   25.2530   32.7870 N   0  0  0  0  0  0  0  0  0  0  0  0
   35.7370   25.1990   33.0750 H   0  0  0  0  0  0  0  0  0  0  0  0
   35.9530   24.3140   30.6630 O   0  0  0  0  0  0  0  0  0  0  0  0
   35.9510   24.2310   29.6730 H   0  0  0  0  0  0  0  0  0  0  0  0
  1  7  1  1  0  0  0
  1  2  1  0  0  0  0
  2  9  1  0  0  0  0
  2  8  1  0  0  0  0
  3  2  1  0  0  0  0
  3 11  1  0  0  0  0
  4  3  1  0  0  0  0
  4 12  1  0  0  0  0
  5  4  1  0  0  0  0
  5 14  1  0  0  0  0
  6 16  1  6  0  0  0
  6  1  1  0  0  0  0
  6  5  1  0  0  0  0
 10  3  1  0  0  0  0
 13  4  1  0  0  0  0
 15  5  1  0  0  0  0
 17 18  1  0  0  0  0
 17  1  1  0  0  0  0
 18 23  1  0  0  0  0
 19 24  1  0  0  0  0
 19 18  2  0  0  0  0
 20 19  1  0  0  0  0
 21 20  2  0  0  0  0
 21 22  1  0  0  0  0
 22 17  2  0  0  0  0
 25 21  1  0  0  0  0
 26 28  1  0  0  0  0
 27 26  2  0  0  0  0
 28 29  1  0  0  0  0
 28  6  1  0  0  0  0
 30 26  1  0  0  0  0
 31 30  1  0  0  0  0
M  END
>  <minimizedAffinity>
-4.30199718

$$$$

 OpenBabel03272509323D

 31 32  0  0  1  0  0  0  0  0999 V2000
   34.9340   31.0620   33.7860 C   0  0  2  0  0  0  0  0  0  0  0  0
   35.8490   32.0290   34.4750 C   0  0  0  0  0  0  0  0  0  0  0  0
   35.9590   31.7760   35.9620 C   0  0  0  0  0  0  0  0  0  0  0  0
   34.5810   31.8010   36.6180 C   0  0  0  0  0  0  0  0  0  0  0  0
   33.4860   31.2170   35.7610 C   0  0  0  0  0  0  0  0  0  0  0  0
   34.1370   30.2510   34.7510 C   0  0  1  0  0  0  0  0  0  0  0  0
   34.1900   31.5600   33.1020 H   0  0  0  0  0  0  0  0  0  0  0  0
   35.2970   33.0290   34.4190 H   0  0  0  0  0  0  0  0  0  0  0  0
   36.8020   32.2180   34.0230 H   0  0  0  0  0  0  0  0  0  0  0  0
   36.4850   30.8570   36.2320 H   0  0  0  0  0  0  0  0  0  0  0  0
   36.5180   32.6330   36.3870 H   0  0  0  0  0  0  0  0  0  0  0  0
   34.3140   32.8070   36.9760 H   0  0  0  0  0  0  0  0  0  0  0  0
   34.6520   31.1600   37.5310 H   0  0  0  0  0  0  0  0  0  0  0  0
   32.9790   32.0390   35.2190 H   0  0  0  0  0  0  0  0  0  0  0  0
   32.7460   30.6830   36.3610 H   0  0  0  0  0  0  0  0  0  0  0  0
   34.7600   29.6950   35.4100 H   0  0  0  0  0  0  0  0  0  0  0  0
   35.6990   30.1440   32.9020 C   0  0  0  0  0  0  0  0  0  0  0  0
   35.9640   30.6260   31.6070 C   0  0  0  0  0  0  0  0  0  0  0  0
   36.6880   29.7770   30.7620 C   0  0  0  0  0  0  0  0  0  0  0  0
   37.0900   28.5470   31.2360 N   0  0  0  0  0  0  0  0  0  0  0  0
   36.8030   28.1280   32.5100 C   0  0  0  0  0  0  0  0  0  0  0  0
   36.1080   28.9420   33.3240 N   0  0  0  0  0  0  0  0  0  0  0  0
   35.7190   31.5520   31.1250 H   0  0  0  0  0  0  0  0  0  0  0  0
   36.9630   30.0070   29.7480 H   0  0  0  0  0  0  0  0  0  0  0  0
   37.1450   27.1620   32.8180 H   0  0  0  0  0  0  0  0  0  0  0  0
   32.1810   29.5960   33.2640 C   0  0  0  0  0  0  0  0  0  0  0  0
   31.7770   30.6780   32.7460 O   0  0  0  0  0  0  0  0  0  0  0  0
   33.2490   29.3160   34.1610 N   0  0  0  0  0  0  0  0  0  0  0  0
   33.3430   28.2690   34.3730 H   0  0  0  0  0  0  0  0  0  0  0  0
   31.3410   28.5960   32.7810 O   0  0  0  0  0  0  0  0  0  0  0  0
   30.4270   28.7040   32.4070 H   0  0  0  0  0  0  0  0  0  0  0  0
  1  7  1  6  0  0  0
  1  2  1  0  0  0  0
  1  6  1  0  0  0  0
  2  3  1  0  0  0  0
  3 10  1  0  0  0  0
  3 11  1  0  0  0  0
  3  4  1  0  0  0  0
  4 12  1  0  0  0  0
  4 13  1  0  0  0  0
  5 15  1  0  0  0  0
  5  4  1  0  0  0  0
  6 16  1  1  0  0  0
  6  5  1  0  0  0  0
  8  2  1  0  0  0  0
  9  2  1  0  0  0  0
 14  5  1  0  0  0  0
 17 22  1  0  0  0  0
 17  1  1  0  0  0  0
 18 17  2  0  0  0  0
 19 20  2  0  0  0  0
 19 18  1  0  0  0  0
 20 21  1  0  0  0  0
 21 25  1  0  0  0  0
 21 22  2  0  0  0  0
 23 18  1  0  0  0  0
 24 19  1  0  0  0  0
 26 28  1  0  0  0  0
 27 26  2  0  0  0  0
 28 29  1  0  0  0  0
 28  6  1  0  0  0  0
 30 26  1  0  0  0  0
 31 30  1  0  0  0  0
M  END
>  <minimizedAffinity>
-4.24746323

$$$$

 OpenBabel03272509323D

 31 32  0  0  1  0  0  0  0  0999 V2000
   36.8250   27.4820   31.8590 C   0  0  2  0  0  0  0  0  0  0  0  0
   36.0420   26.7200   30.8320 C   0  0  0  0  0  0  0  0  0  0  0  0
   35.4770   25.4220   31.3660 C   0  0  0  0  0  0  0  0  0  0  0  0
   36.5890   24.5440   31.9350 C   0  0  0  0  0  0  0  0  0  0  0  0
   37.6830   25.3150   32.6290 C   0  0  0  0  0  0  0  0  0  0  0  0
   37.0980   26.6690   33.0790 C   0  0  1  0  0  0  0  0  0  0  0  0
   37.8270   27.8360   31.4840 H   0  0  0  0  0  0  0  0  0  0  0  0
   36.8270   26.3740   30.0770 H   0  0  0  0  0  0  0  0  0  0  0  0
   35.3260   27.2650   30.2500 H   0  0  0  0  0  0  0  0  0  0  0  0
   34.6800   25.5400   32.1040 H   0  0  0  0  0  0  0  0  0  0  0  0
   35.0670   24.8750   30.4960 H   0  0  0  0  0  0  0  0  0  0  0  0
   37.0020   23.8600   31.1760 H   0  0  0  0  0  0  0  0  0  0  0  0
   36.1150   23.8920   32.7080 H   0  0  0  0  0  0  0  0  0  0  0  0
   38.5110   25.4860   31.9120 H   0  0  0  0  0  0  0  0  0  0  0  0
   38.0720   24.7730   33.4930 H   0  0  0  0  0  0  0  0  0  0  0  0
   36.2010   26.3320   33.5400 H   0  0  0  0  0  0  0  0  0  0  0  0
   36.1130   28.7240   32.2580 C   0  0  0  0  0  0  0  0  0  0  0  0
   36.2130   29.7990   31.3550 C   0  0  0  0  0  0  0  0  0  0  0  0
   35.5440   30.9760   31.7110 C   0  0  0  0  0  0  0  0  0  0  0  0
   34.8430   31.0130   32.8970 N   0  0  0  0  0  0  0  0  0  0  0  0
   34.7800   29.9320   33.7390 C   0  0  0  0  0  0  0  0  0  0  0  0
   35.4210   28.8010   33.4000 N   0  0  0  0  0  0  0  0  0  0  0  0
   36.7110   29.8950   30.4100 H   0  0  0  0  0  0  0  0  0  0  0  0
   35.5310   31.8770   31.1240 H   0  0  0  0  0  0  0  0  0  0  0  0
   34.2170   30.0250   34.6450 H   0  0  0  0  0  0  0  0  0  0  0  0
   38.0680   26.8830   35.4190 C   0  0  0  0  0  0  0  0  0  0  0  0
   37.7340   25.8200   36.0190 O   0  0  0  0  0  0  0  0  0  0  0  0
   37.8390   27.3330   34.0900 N   0  0  0  0  0  0  0  0  0  0  0  0
   38.3010   28.2810   33.8910 H   0  0  0  0  0  0  0  0  0  0  0  0
   38.7760   27.6460   36.3450 O   0  0  0  0  0  0  0  0  0  0  0  0
   38.7460   27.5750   37.3350 H   0  0  0  0  0  0  0  0  0  0  0  0
  1  7  1  6  0  0  0
  1 17  1  0  0  0  0
  1  6  1  0  0  0  0
  2  3  1  0  0  0  0
  2  1  1  0  0  0  0
  3  4  1  0  0  0  0
  3 10  1  0  0  0  0
  4  5  1  0  0  0  0
  4 13  1  0  0  0  0
  5  6  1  0  0  0  0
  5 15  1  0  0  0  0
  6 16  1  1  0  0  0
  6 28  1  0  0  0  0
  8  2  1  0  0  0  0
  9  2  1  0  0  0  0
 11  3  1  0  0  0  0
 12  4  1  0  0  0  0
 14  5  1  0  0  0  0
 17 22  1  0  0  0  0
 18 19  1  0  0  0  0
 18 17  2  0  0  0  0
 19 20  2  0  0  0  0
 20 21  1  0  0  0  0
 21 25  1  0  0  0  0
 22 21  2  0  0  0  0
 23 18  1  0  0  0  0
 24 19  1  0  0  0  0
 26 27  2  0  0  0  0
 26 30  1  0  0  0  0
 28 26  1  0  0  0  0
 29 28  1  0  0  0  0
 30 31  1  0  0  0  0
M  END
>  <minimizedAffinity>
-4.19929457

$$$$
