
 OpenBabel03272507273D

 38 40  0  0  1  0  0  0  0  0999 V2000
   36.6540   29.4320   49.7900 C   0  0  0  0  0  0  0  0  0  0  0  0
   37.5940   30.1650   49.0380 C   0  0  0  0  0  0  0  0  0  0  0  0
   37.2330   30.5420   47.7380 C   0  0  0  0  0  0  0  0  0  0  0  0
   36.0270   30.1890   47.2870 N   0  0  0  0  0  0  0  0  0  0  0  0
   35.1500   29.4880   48.0310 C   0  0  0  0  0  0  0  0  0  0  0  0
   35.4670   29.1150   49.2730 N   0  0  0  0  0  0  0  0  0  0  0  0
   38.1330   31.2740   46.9370 N   0  0  0  0  0  0  0  0  0  0  0  0
   39.1530   32.2050   47.4330 C   0  0  0  0  0  0  0  0  0  0  0  0
   39.7130   32.9040   46.2460 C   0  0  0  0  0  0  0  0  0  0  0  0
   38.6820   32.6910   45.2160 C   0  0  0  0  0  0  0  0  0  0  0  0
   38.2540   31.2780   45.5120 C   0  0  2  0  0  0  0  0  0  0  0  0
   36.9330   29.1410   50.7930 H   0  0  0  0  0  0  0  0  0  0  0  0
   38.5610   30.4190   49.4660 H   0  0  0  0  0  0  0  0  0  0  0  0
   34.2020   29.2600   47.5580 H   0  0  0  0  0  0  0  0  0  0  0  0
   39.9000   31.6310   48.0290 H   0  0  0  0  0  0  0  0  0  0  0  0
   38.5880   32.9200   48.0650 H   0  0  0  0  0  0  0  0  0  0  0  0
   39.8450   33.9900   46.5320 H   0  0  0  0  0  0  0  0  0  0  0  0
   40.7410   32.5960   45.9500 H   0  0  0  0  0  0  0  0  0  0  0  0
   37.8430   33.3980   45.3680 H   0  0  0  0  0  0  0  0  0  0  0  0
   39.1060   32.7970   44.1930 H   0  0  0  0  0  0  0  0  0  0  0  0
   37.0680   30.8470   44.7100 C   0  0  0  0  0  0  0  0  0  0  0  0
   35.9490   31.3030   45.3940 F   0  0  0  0  0  0  0  0  0  0  0  0
   36.9210   29.5050   44.5390 F   0  0  0  0  0  0  0  0  0  0  0  0
   37.1190   31.5620   43.5200 F   0  0  0  0  0  0  0  0  0  0  0  0
   39.3810   30.3610   45.1960 C   0  0  0  0  0  0  0  0  0  0  0  0
   39.0180   29.3490   45.4720 H   0  0  0  0  0  0  0  0  0  0  0  0
   40.1880   30.5640   45.9600 H   0  0  0  0  0  0  0  0  0  0  0  0
   39.8420   30.7250   44.1000 O   0  0  0  0  0  0  0  0  0  0  0  0
   39.8740   30.2590   42.8270 C   0  0  0  0  0  0  0  0  0  0  0  0
   40.4130   31.1310   42.1020 O   0  0  0  0  0  0  0  0  0  0  0  0
   39.6040   29.2630   41.8710 N   0  0  0  0  0  0  0  0  0  0  0  0
   40.2660   29.3670   40.5890 C   0  0  0  0  0  3  0  0  0  0  0  0
   39.4950   29.2290   39.7710 H   0  0  0  0  0  0  0  0  0  0  0  0
   41.1680   28.1340   40.4710 C   0  0  0  0  0  3  0  0  0  0  0  0
   41.7630   28.2050   39.5610 H   0  0  0  0  0  0  0  0  0  0  0  0
   40.3450   27.0220   40.4620 O   0  0  0  0  0  0  0  0  0  0  0  0
   39.6920   26.8960   41.6890 C   0  0  0  0  0  2  0  0  0  0  0  0
   38.7530   28.0700   41.8780 C   0  0  0  0  0  2  0  0  0  0  0  0
  1 12  1  0  0  0  0
  2 13  1  0  0  0  0
  2  1  2  0  0  0  0
  3  2  1  0  0  0  0
  4  3  2  0  0  0  0
  4  5  1  0  0  0  0
  5  6  2  0  0  0  0
  6  1  1  0  0  0  0
  7  8  1  0  0  0  0
  7  3  1  0  0  0  0
  8 15  1  0  0  0  0
  8 16  1  0  0  0  0
  9 17  1  0  0  0  0
  9  8  1  0  0  0  0
 10 19  1  0  0  0  0
 10 11  1  0  0  0  0
 10  9  1  0  0  0  0
 11 21  1  6  0  0  0
 11  7  1  0  0  0  0
 14  5  1  0  0  0  0
 18  9  1  0  0  0  0
 20 10  1  0  0  0  0
 21 22  1  0  0  0  0
 23 21  1  0  0  0  0
 24 21  1  0  0  0  0
 25 26  1  0  0  0  0
 25 11  1  0  0  0  0
 25 27  1  0  0  0  0
 28 25  1  0  0  0  0
 29 28  1  0  0  0  0
 30 29  2  0  0  0  0
 31 38  1  0  0  0  0
 31 29  1  0  0  0  0
 32 31  1  0  0  0  0
 33 32  1  0  0  0  0
 34 32  1  0  0  0  0
 35 34  1  0  0  0  0
 36 34  1  0  0  0  0
 36 37  1  0  0  0  0
 37 38  1  0  0  0  0
M  END
>  <minimizedAffinity>
-5.0140543

>  <minimizedRMSD>
1.71633506

$$$$
