
 OpenBabel03272507303D

 28 30  0  0  0  0  0  0  0  0999 V2000
   35.8720   29.2710   49.7430 C   0  0  0  0  0  0  0  0  0  0  0  0
   34.8950   29.8470   50.4780 C   0  0  0  0  0  0  0  0  0  0  0  0
   33.6660   29.3240   50.0640 C   0  0  0  0  0  0  0  0  0  0  0  0
   33.9910   28.4200   49.0550 C   0  0  0  0  0  0  0  0  0  0  0  0
   35.2770   28.4540   48.9370 O   0  0  0  0  0  0  0  0  0  0  0  0
   34.8970   30.5850   51.2700 H   0  0  0  0  0  0  0  0  0  0  0  0
   32.6630   29.5410   50.4160 H   0  0  0  0  0  0  0  0  0  0  0  0
   33.0280   27.6040   48.2940 C   0  0  0  0  0  0  0  0  0  0  0  0
   31.8670   27.4230   48.7900 O   0  0  0  0  0  0  0  0  0  0  0  0
   33.4580   27.0680   47.0470 N   0  0  0  0  0  0  0  0  0  0  0  0
   33.4900   25.6370   46.7900 C   0  0  0  0  0  3  0  0  0  0  0  0
   32.4870   25.2130   46.6180 H   0  0  0  0  0  0  0  0  0  0  0  0
   34.3040   25.4180   45.5080 C   0  0  0  0  0  3  0  0  0  0  0  0
   34.2760   24.3630   45.2280 H   0  0  0  0  0  0  0  0  0  0  0  0
   33.6650   26.1690   44.5320 O   0  0  0  0  0  0  0  0  0  0  0  0
   34.0840   27.4700   44.6890 C   0  0  0  0  0  2  0  0  0  0  0  0
   33.8630   28.0540   46.0450 C   0  0  0  0  0  2  0  0  0  0  0  0
   37.2790   29.5830   49.9090 C   0  0  0  0  0  0  0  0  0  0  0  0
   37.9280   28.9790   50.7670 O   0  0  0  0  0  0  0  0  0  0  0  0
   37.8350   30.6100   49.0310 C   0  0  0  0  0  0  0  0  0  0  0  0
   38.1760   31.8200   49.6300 C   0  0  0  0  0  0  0  0  0  0  0  0
   38.7080   32.8130   48.8110 C   0  0  0  0  0  0  0  0  0  0  0  0
   38.8690   32.5630   47.4850 N   0  0  0  0  0  0  0  0  0  0  0  0
   38.5270   31.3720   46.9390 C   0  0  0  0  0  0  0  0  0  0  0  0
   38.0170   30.4140   47.7110 N   0  0  0  0  0  0  0  0  0  0  0  0
   38.0720   32.0800   50.6700 H   0  0  0  0  0  0  0  0  0  0  0  0
   39.0010   33.7830   49.1860 H   0  0  0  0  0  0  0  0  0  0  0  0
   38.6430   31.1400   45.8870 H   0  0  0  0  0  0  0  0  0  0  0  0
  1 18  1  0  0  0  0
  1  2  2  0  0  0  0
  2  6  1  0  0  0  0
  3  7  1  0  0  0  0
  3  2  1  0  0  0  0
  4  3  2  0  0  0  0
  5  4  1  0  0  0  0
  5  1  1  0  0  0  0
  8  9  2  0  0  0  0
  8  4  1  0  0  0  0
 10  8  1  0  0  0  0
 11 10  1  0  0  0  0
 12 11  1  0  0  0  0
 13 11  1  0  0  0  0
 14 13  1  0  0  0  0
 15 16  1  0  0  0  0
 15 13  1  0  0  0  0
 16 17  1  0  0  0  0
 17 10  1  0  0  0  0
 18 19  2  0  0  0  0
 20 21  1  0  0  0  0
 20 18  1  0  0  0  0
 21 26  1  0  0  0  0
 22 27  1  0  0  0  0
 22 21  2  0  0  0  0
 23 22  1  0  0  0  0
 24 23  2  0  0  0  0
 24 25  1  0  0  0  0
 25 20  2  0  0  0  0
 28 24  1  0  0  0  0
M  END
>  <minimizedAffinity>
-5.17196798

>  <minimizedRMSD>
1.29245031

$$$$
