
 OpenBabel03272507273D

 38 40  0  0  1  0  0  0  0  0999 V2000
   36.8950   30.1030   49.2240 C   0  0  0  0  0  0  0  0  0  0  0  0
   37.8730   30.7490   48.4410 C   0  0  0  0  0  0  0  0  0  0  0  0
   37.5750   30.9820   47.0920 C   0  0  0  0  0  0  0  0  0  0  0  0
   36.3890   30.5830   46.6260 N   0  0  0  0  0  0  0  0  0  0  0  0
   35.4750   29.9680   47.4010 C   0  0  0  0  0  0  0  0  0  0  0  0
   35.7310   29.7320   48.6890 N   0  0  0  0  0  0  0  0  0  0  0  0
   38.5150   31.6220   46.2600 N   0  0  0  0  0  0  0  0  0  0  0  0
   39.5170   32.6010   46.6980 C   0  0  0  0  0  0  0  0  0  0  0  0
   40.1350   33.1660   45.4700 C   0  0  0  0  0  0  0  0  0  0  0  0
   39.1510   32.8430   44.4220 C   0  0  0  0  0  0  0  0  0  0  0  0
   38.7020   31.4700   44.8500 C   0  0  2  0  0  0  0  0  0  0  0  0
   37.1250   29.9240   50.2640 H   0  0  0  0  0  0  0  0  0  0  0  0
   38.8200   31.0480   48.8840 H   0  0  0  0  0  0  0  0  0  0  0  0
   34.5480   29.6900   46.9110 H   0  0  0  0  0  0  0  0  0  0  0  0
   40.2310   32.0950   47.3880 H   0  0  0  0  0  0  0  0  0  0  0  0
   38.9260   33.3820   47.2220 H   0  0  0  0  0  0  0  0  0  0  0  0
   40.2600   34.2760   45.6410 H   0  0  0  0  0  0  0  0  0  0  0  0
   41.1740   32.8270   45.2580 H   0  0  0  0  0  0  0  0  0  0  0  0
   38.3110   33.5620   44.4570 H   0  0  0  0  0  0  0  0  0  0  0  0
   39.6230   32.8360   43.4140 H   0  0  0  0  0  0  0  0  0  0  0  0
   37.5530   30.9550   44.0450 C   0  0  0  0  0  0  0  0  0  0  0  0
   36.4280   31.6340   44.4940 F   0  0  0  0  0  0  0  0  0  0  0  0
   37.2970   29.6230   44.1580 F   0  0  0  0  0  0  0  0  0  0  0  0
   37.7690   31.3750   42.7380 F   0  0  0  0  0  0  0  0  0  0  0  0
   39.8380   30.5230   44.6890 C   0  0  0  0  0  0  0  0  0  0  0  0
   39.5490   29.6230   45.2690 H   0  0  0  0  0  0  0  0  0  0  0  0
   40.7000   30.9490   45.2820 H   0  0  0  0  0  0  0  0  0  0  0  0
   40.1800   30.5750   43.4950 O   0  0  0  0  0  0  0  0  0  0  0  0
   40.4240   29.7000   42.4870 C   0  0  0  0  0  0  0  0  0  0  0  0
   41.0570   30.3030   41.5870 O   0  0  0  0  0  0  0  0  0  0  0  0
   40.3260   28.4180   41.9180 N   0  0  0  0  0  0  0  0  0  0  0  0
   39.6390   27.3970   42.6810 C   0  0  0  0  0  3  0  0  0  0  0  0
   40.2790   26.4640   42.6930 H   0  0  0  0  0  0  0  0  0  0  0  0
   38.4090   27.0010   41.8580 C   0  0  0  0  0  3  0  0  0  0  0  0
   37.8020   26.2990   42.4280 H   0  0  0  0  0  0  0  0  0  0  0  0
   38.8640   26.4480   40.6760 O   0  0  0  0  0  0  0  0  0  0  0  0
   39.5310   27.4110   39.9180 C   0  0  0  0  0  2  0  0  0  0  0  0
   40.7840   27.8440   40.6510 C   0  0  0  0  0  2  0  0  0  0  0  0
  1 12  1  0  0  0  0
  2 13  1  0  0  0  0
  2  1  2  0  0  0  0
  3  2  1  0  0  0  0
  4  3  2  0  0  0  0
  4  5  1  0  0  0  0
  5  6  2  0  0  0  0
  6  1  1  0  0  0  0
  7  8  1  0  0  0  0
  7  3  1  0  0  0  0
  8 16  1  0  0  0  0
  8 15  1  0  0  0  0
  9 17  1  0  0  0  0
  9  8  1  0  0  0  0
 10 19  1  0  0  0  0
 10 11  1  0  0  0  0
 10  9  1  0  0  0  0
 11 21  1  6  0  0  0
 11  7  1  0  0  0  0
 14  5  1  0  0  0  0
 18  9  1  0  0  0  0
 20 10  1  0  0  0  0
 21 23  1  0  0  0  0
 21 22  1  0  0  0  0
 24 21  1  0  0  0  0
 25 11  1  0  0  0  0
 25 26  1  0  0  0  0
 25 27  1  0  0  0  0
 28 25  1  0  0  0  0
 29 28  1  0  0  0  0
 30 29  2  0  0  0  0
 31 29  1  0  0  0  0
 31 32  1  0  0  0  0
 32 33  1  0  0  0  0
 34 35  1  0  0  0  0
 34 32  1  0  0  0  0
 36 34  1  0  0  0  0
 37 38  1  0  0  0  0
 37 36  1  0  0  0  0
 38 31  1  0  0  0  0
M  END
>  <minimizedAffinity>
-5.17857933

>  <minimizedRMSD>
1.19152892

$$$$
