
 OpenBabel03272507313D

 28 30  0  0  0  0  0  0  0  0999 V2000
   38.1560   25.3610   36.1190 C   0  0  0  0  0  0  0  0  0  0  0  0
   38.3320   26.6720   36.3980 C   0  0  0  0  0  0  0  0  0  0  0  0
   38.0000   27.4130   35.2590 C   0  0  0  0  0  0  0  0  0  0  0  0
   37.6260   26.4580   34.3150 C   0  0  0  0  0  0  0  0  0  0  0  0
   37.7460   25.3090   34.8940 O   0  0  0  0  0  0  0  0  0  0  0  0
   38.6590   27.2070   37.2800 H   0  0  0  0  0  0  0  0  0  0  0  0
   38.0140   28.4860   35.0980 H   0  0  0  0  0  0  0  0  0  0  0  0
   37.1860   26.7430   32.9380 C   0  0  0  0  0  0  0  0  0  0  0  0
   36.8460   27.9380   32.6490 O   0  0  0  0  0  0  0  0  0  0  0  0
   37.1700   25.6610   32.0130 N   0  0  0  0  0  0  0  0  0  0  0  0
   38.3880   25.1210   31.4300 C   0  0  0  0  0  3  0  0  0  0  0  0
   38.9580   24.4990   32.1380 H   0  0  0  0  0  0  0  0  0  0  0  0
   37.9770   24.2220   30.2580 C   0  0  0  0  0  3  0  0  0  0  0  0
   38.8580   23.7230   29.8470 H   0  0  0  0  0  0  0  0  0  0  0  0
   37.1240   23.2730   30.8000 O   0  0  0  0  0  0  0  0  0  0  0  0
   35.8850   23.8610   30.9060 C   0  0  0  0  0  2  0  0  0  0  0  0
   35.8440   25.1300   31.6910 C   0  0  0  0  0  2  0  0  0  0  0  0
   38.4100   24.3050   37.0790 C   0  0  0  0  0  0  0  0  0  0  0  0
   37.7410   24.2660   38.1160 O   0  0  0  0  0  0  0  0  0  0  0  0
   39.4580   23.3440   36.7440 C   0  0  0  0  0  0  0  0  0  0  0  0
   40.0930   22.7200   37.8140 C   0  0  0  0  0  0  0  0  0  0  0  0
   41.0960   21.8000   37.5160 C   0  0  0  0  0  0  0  0  0  0  0  0
   41.4070   21.5560   36.2160 N   0  0  0  0  0  0  0  0  0  0  0  0
   40.7650   22.1830   35.2020 C   0  0  0  0  0  0  0  0  0  0  0  0
   39.8050   23.0640   35.4720 N   0  0  0  0  0  0  0  0  0  0  0  0
   39.8950   22.8700   38.8620 H   0  0  0  0  0  0  0  0  0  0  0  0
   41.6440   21.2680   38.2800 H   0  0  0  0  0  0  0  0  0  0  0  0
   40.9880   22.0110   34.1550 H   0  0  0  0  0  0  0  0  0  0  0  0
  1  2  2  0  0  0  0
  1 18  1  0  0  0  0
  2  6  1  0  0  0  0
  3  2  1  0  0  0  0
  4  5  1  0  0  0  0
  4  3  2  0  0  0  0
  5  1  1  0  0  0  0
  7  3  1  0  0  0  0
  8  4  1  0  0  0  0
  9  8  2  0  0  0  0
 10  8  1  0  0  0  0
 11 10  1  0  0  0  0
 11 12  1  0  0  0  0
 13 15  1  0  0  0  0
 13 11  1  0  0  0  0
 14 13  1  0  0  0  0
 15 16  1  0  0  0  0
 16 17  1  0  0  0  0
 17 10  1  0  0  0  0
 18 19  2  0  0  0  0
 20 18  1  0  0  0  0
 20 21  1  0  0  0  0
 21 26  1  0  0  0  0
 22 21  2  0  0  0  0
 22 27  1  0  0  0  0
 23 22  1  0  0  0  0
 24 25  1  0  0  0  0
 24 23  2  0  0  0  0
 25 20  2  0  0  0  0
 28 24  1  0  0  0  0
M  END
>  <minimizedAffinity>
-5.32049608

$$$$

 OpenBabel03272507313D

 28 30  0  0  0  0  0  0  0  0999 V2000
   37.6750   26.3270   34.1080 C   0  0  0  0  0  0  0  0  0  0  0  0
   37.2540   27.4220   33.4340 C   0  0  0  0  0  0  0  0  0  0  0  0
   36.5550   26.9990   32.2990 C   0  0  0  0  0  0  0  0  0  0  0  0
   36.5980   25.6070   32.3590 C   0  0  0  0  0  0  0  0  0  0  0  0
   37.2600   25.3100   33.4270 O   0  0  0  0  0  0  0  0  0  0  0  0
   37.3560   28.4850   33.6070 H   0  0  0  0  0  0  0  0  0  0  0  0
   36.0730   27.5810   31.5210 H   0  0  0  0  0  0  0  0  0  0  0  0
   35.9950   24.6900   31.3750 C   0  0  0  0  0  0  0  0  0  0  0  0
   35.0890   25.1460   30.6030 O   0  0  0  0  0  0  0  0  0  0  0  0
   36.4660   23.3470   31.3500 N   0  0  0  0  0  0  0  0  0  0  0  0
   37.7550   22.9880   30.7790 C   0  0  0  0  0  3  0  0  0  0  0  0
   38.5990   23.2650   31.4290 H   0  0  0  0  0  0  0  0  0  0  0  0
   37.7790   21.4620   30.6220 C   0  0  0  0  0  3  0  0  0  0  0  0
   38.7650   21.1410   30.2800 H   0  0  0  0  0  0  0  0  0  0  0  0
   37.5450   20.9550   31.8910 O   0  0  0  0  0  0  0  0  0  0  0  0
   36.1860   21.0070   32.1010 C   0  0  0  0  0  2  0  0  0  0  0  0
   35.5650   22.3550   31.9380 C   0  0  0  0  0  2  0  0  0  0  0  0
   38.4360   26.3980   35.3400 C   0  0  0  0  0  0  0  0  0  0  0  0
   38.7250   27.5060   35.8020 O   0  0  0  0  0  0  0  0  0  0  0  0
   38.8120   25.1290   35.9580 C   0  0  0  0  0  0  0  0  0  0  0  0
   38.0190   24.6960   37.0170 C   0  0  0  0  0  0  0  0  0  0  0  0
   38.3610   23.4870   37.6210 C   0  0  0  0  0  0  0  0  0  0  0  0
   39.4350   22.7960   37.1590 N   0  0  0  0  0  0  0  0  0  0  0  0
   40.1830   23.2510   36.1250 C   0  0  0  0  0  0  0  0  0  0  0  0
   39.8680   24.4030   35.5390 N   0  0  0  0  0  0  0  0  0  0  0  0
   37.1590   25.1950   37.4290 H   0  0  0  0  0  0  0  0  0  0  0  0
   37.8040   23.0720   38.4490 H   0  0  0  0  0  0  0  0  0  0  0  0
   41.0450   22.7240   35.7320 H   0  0  0  0  0  0  0  0  0  0  0  0
  1 18  1  0  0  0  0
  2  6  1  0  0  0  0
  2  1  2  0  0  0  0
  3  4  2  0  0  0  0
  3  2  1  0  0  0  0
  4  5  1  0  0  0  0
  5  1  1  0  0  0  0
  7  3  1  0  0  0  0
  8  4  1  0  0  0  0
  9  8  2  0  0  0  0
 10  8  1  0  0  0  0
 10 17  1  0  0  0  0
 11 10  1  0  0  0  0
 11 12  1  0  0  0  0
 13 11  1  0  0  0  0
 13 15  1  0  0  0  0
 14 13  1  0  0  0  0
 15 16  1  0  0  0  0
 17 16  1  0  0  0  0
 18 19  2  0  0  0  0
 18 20  1  0  0  0  0
 20 21  1  0  0  0  0
 21 26  1  0  0  0  0
 21 22  2  0  0  0  0
 22 27  1  0  0  0  0
 23 22  1  0  0  0  0
 24 23  2  0  0  0  0
 25 20  2  0  0  0  0
 25 24  1  0  0  0  0
 28 24  1  0  0  0  0
M  END
>  <minimizedAffinity>
-5.17480469

$$$$

 OpenBabel03272507313D

 28 30  0  0  0  0  0  0  0  0999 V2000
   36.6320   25.4210   32.2850 C   0  0  0  0  0  0  0  0  0  0  0  0
   36.5440   26.7710   32.2790 C   0  0  0  0  0  0  0  0  0  0  0  0
   37.3430   27.2680   33.3130 C   0  0  0  0  0  0  0  0  0  0  0  0
   37.8920   26.1350   33.9100 C   0  0  0  0  0  0  0  0  0  0  0  0
   37.4300   25.1210   33.2570 O   0  0  0  0  0  0  0  0  0  0  0  0
   36.0050   27.4770   31.6620 H   0  0  0  0  0  0  0  0  0  0  0  0
   37.5250   28.2930   33.6200 H   0  0  0  0  0  0  0  0  0  0  0  0
   38.8140   26.1360   35.0600 C   0  0  0  0  0  0  0  0  0  0  0  0
   39.3960   27.2280   35.3650 O   0  0  0  0  0  0  0  0  0  0  0  0
   38.9960   24.9090   35.7590 N   0  0  0  0  0  0  0  0  0  0  0  0
   37.9910   24.3760   36.6650 C   0  0  0  0  0  3  0  0  0  0  0  0
   37.1320   23.9380   36.1350 H   0  0  0  0  0  0  0  0  0  0  0  0
   38.6500   23.2540   37.4750 C   0  0  0  0  0  3  0  0  0  0  0  0
   37.9040   22.7640   38.1050 H   0  0  0  0  0  0  0  0  0  0  0  0
   39.1240   22.3490   36.5370 O   0  0  0  0  0  0  0  0  0  0  0  0
   40.3200   22.8430   36.0700 C   0  0  0  0  0  2  0  0  0  0  0  0
   40.2640   24.2240   35.5040 C   0  0  0  0  0  2  0  0  0  0  0  0
   35.9260   24.5760   31.3410 C   0  0  0  0  0  0  0  0  0  0  0  0
   34.8950   25.0010   30.8130 O   0  0  0  0  0  0  0  0  0  0  0  0
   36.4990   23.2580   31.0780 C   0  0  0  0  0  0  0  0  0  0  0  0
   35.6630   22.1650   31.2900 C   0  0  0  0  0  0  0  0  0  0  0  0
   36.1900   20.8980   31.0450 C   0  0  0  0  0  0  0  0  0  0  0  0
   37.4750   20.7870   30.6170 N   0  0  0  0  0  0  0  0  0  0  0  0
   38.2570   21.8750   30.4220 C   0  0  0  0  0  0  0  0  0  0  0  0
   37.7670   23.0900   30.6520 N   0  0  0  0  0  0  0  0  0  0  0  0
   34.6420   22.1860   31.6280 H   0  0  0  0  0  0  0  0  0  0  0  0
   35.6170   19.9930   31.1820 H   0  0  0  0  0  0  0  0  0  0  0  0
   39.2840   21.8200   30.0810 H   0  0  0  0  0  0  0  0  0  0  0  0
  1  5  1  0  0  0  0
  2  1  2  0  0  0  0
  2  3  1  0  0  0  0
  3  7  1  0  0  0  0
  3  4  2  0  0  0  0
  4  8  1  0  0  0  0
  5  4  1  0  0  0  0
  6  2  1  0  0  0  0
  8  9  2  0  0  0  0
  8 10  1  0  0  0  0
 10 11  1  0  0  0  0
 11 13  1  0  0  0  0
 12 11  1  0  0  0  0
 13 14  1  0  0  0  0
 15 13  1  0  0  0  0
 16 15  1  0  0  0  0
 17 10  1  0  0  0  0
 17 16  1  0  0  0  0
 18  1  1  0  0  0  0
 19 18  2  0  0  0  0
 20 21  1  0  0  0  0
 20 18  1  0  0  0  0
 21 26  1  0  0  0  0
 22 27  1  0  0  0  0
 22 21  2  0  0  0  0
 23 22  1  0  0  0  0
 24 23  2  0  0  0  0
 24 25  1  0  0  0  0
 25 20  2  0  0  0  0
 28 24  1  0  0  0  0
M  END
>  <minimizedAffinity>
-5.16583014

$$$$

 OpenBabel03272507313D

 28 30  0  0  0  0  0  0  0  0999 V2000
   37.8360   27.2030   34.3910 C   0  0  0  0  0  0  0  0  0  0  0  0
   37.6490   27.1690   33.0520 C   0  0  0  0  0  0  0  0  0  0  0  0
   36.6180   28.0570   32.7290 C   0  0  0  0  0  0  0  0  0  0  0  0
   36.2260   28.6010   33.9510 C   0  0  0  0  0  0  0  0  0  0  0  0
   36.9770   28.0540   34.8480 O   0  0  0  0  0  0  0  0  0  0  0  0
   38.1200   26.6170   32.2490 H   0  0  0  0  0  0  0  0  0  0  0  0
   36.1870   28.3020   31.7640 H   0  0  0  0  0  0  0  0  0  0  0  0
   35.1600   29.5990   34.1400 C   0  0  0  0  0  0  0  0  0  0  0  0
   33.9490   29.2220   34.0020 O   0  0  0  0  0  0  0  0  0  0  0  0
   35.5510   30.9290   34.4670 N   0  0  0  0  0  0  0  0  0  0  0  0
   36.0210   31.2940   35.7930 C   0  0  0  0  0  3  0  0  0  0  0  0
   37.0490   30.9510   35.9890 H   0  0  0  0  0  0  0  0  0  0  0  0
   36.0270   32.8260   35.8730 C   0  0  0  0  0  3  0  0  0  0  0  0
   36.4600   33.1450   36.8240 H   0  0  0  0  0  0  0  0  0  0  0  0
   36.8400   33.2480   34.8330 O   0  0  0  0  0  0  0  0  0  0  0  0
   36.0770   33.2170   33.6880 C   0  0  0  0  0  2  0  0  0  0  0  0
   35.4460   31.9000   33.3760 C   0  0  0  0  0  2  0  0  0  0  0  0
   38.8320   26.4000   35.0730 C   0  0  0  0  0  0  0  0  0  0  0  0
   39.9490   26.8820   35.2810 O   0  0  0  0  0  0  0  0  0  0  0  0
   38.4340   25.0520   35.4720 C   0  0  0  0  0  0  0  0  0  0  0  0
   38.0370   24.8890   36.7960 C   0  0  0  0  0  0  0  0  0  0  0  0
   37.6540   23.6110   37.1980 C   0  0  0  0  0  0  0  0  0  0  0  0
   37.6830   22.5960   36.2950 N   0  0  0  0  0  0  0  0  0  0  0  0
   38.0740   22.7950   35.0140 C   0  0  0  0  0  0  0  0  0  0  0  0
   38.4430   24.0100   34.6170 N   0  0  0  0  0  0  0  0  0  0  0  0
   37.9940   25.6490   37.5580 H   0  0  0  0  0  0  0  0  0  0  0  0
   37.3320   23.3890   38.2050 H   0  0  0  0  0  0  0  0  0  0  0  0
   38.1080   22.0080   34.2690 H   0  0  0  0  0  0  0  0  0  0  0  0
  1  5  1  0  0  0  0
  1 18  1  0  0  0  0
  2  1  2  0  0  0  0
  3  2  1  0  0  0  0
  3  4  2  0  0  0  0
  4  8  1  0  0  0  0
  4  5  1  0  0  0  0
  6  2  1  0  0  0  0
  7  3  1  0  0  0  0
  8 10  1  0  0  0  0
  9  8  2  0  0  0  0
 10 11  1  0  0  0  0
 11 13  1  0  0  0  0
 11 12  1  0  0  0  0
 13 14  1  0  0  0  0
 15 13  1  0  0  0  0
 16 15  1  0  0  0  0
 17 16  1  0  0  0  0
 17 10  1  0  0  0  0
 18 19  2  0  0  0  0
 18 20  1  0  0  0  0
 20 21  1  0  0  0  0
 21 22  2  0  0  0  0
 21 26  1  0  0  0  0
 22 27  1  0  0  0  0
 23 22  1  0  0  0  0
 24 23  2  0  0  0  0
 25 24  1  0  0  0  0
 25 20  2  0  0  0  0
 28 24  1  0  0  0  0
M  END
>  <minimizedAffinity>
-5.1313386

$$$$

 OpenBabel03272507313D

 28 30  0  0  0  0  0  0  0  0999 V2000
   38.1030   25.3930   35.7710 C   0  0  0  0  0  0  0  0  0  0  0  0
   38.4620   26.6970   35.7760 C   0  0  0  0  0  0  0  0  0  0  0  0
   37.9780   27.2900   34.6050 C   0  0  0  0  0  0  0  0  0  0  0  0
   37.3260   26.2590   33.9320 C   0  0  0  0  0  0  0  0  0  0  0  0
   37.4480   25.2080   34.6730 O   0  0  0  0  0  0  0  0  0  0  0  0
   39.0140   27.3130   36.4730 H   0  0  0  0  0  0  0  0  0  0  0  0
   38.0650   28.3140   34.2560 H   0  0  0  0  0  0  0  0  0  0  0  0
   36.6440   26.3830   32.6320 C   0  0  0  0  0  0  0  0  0  0  0  0
   36.2500   25.3170   32.0530 O   0  0  0  0  0  0  0  0  0  0  0  0
   36.4670   27.6930   32.1020 N   0  0  0  0  0  0  0  0  0  0  0  0
   35.4700   28.6130   32.6260 C   0  0  0  0  0  3  0  0  0  0  0  0
   35.7620   29.0510   33.5920 H   0  0  0  0  0  0  0  0  0  0  0  0
   35.3360   29.7650   31.6220 C   0  0  0  0  0  3  0  0  0  0  0  0
   34.6620   30.5270   32.0210 H   0  0  0  0  0  0  0  0  0  0  0  0
   36.6100   30.2990   31.4990 O   0  0  0  0  0  0  0  0  0  0  0  0
   37.3010   29.4930   30.6250 C   0  0  0  0  0  2  0  0  0  0  0  0
   37.3580   28.0480   30.9960 C   0  0  0  0  0  2  0  0  0  0  0  0
   38.4430   24.4740   36.8410 C   0  0  0  0  0  0  0  0  0  0  0  0
   37.8150   24.5320   37.9020 O   0  0  0  0  0  0  0  0  0  0  0  0
   39.5240   23.5260   36.5790 C   0  0  0  0  0  0  0  0  0  0  0  0
   39.9320   22.7400   37.6530 C   0  0  0  0  0  0  0  0  0  0  0  0
   40.9620   21.8290   37.4240 C   0  0  0  0  0  0  0  0  0  0  0  0
   41.5140   21.7500   36.1860 N   0  0  0  0  0  0  0  0  0  0  0  0
   41.0890   22.5330   35.1660 C   0  0  0  0  0  0  0  0  0  0  0  0
   40.1060   23.4060   35.3690 N   0  0  0  0  0  0  0  0  0  0  0  0
   39.5380   22.7550   38.6540 H   0  0  0  0  0  0  0  0  0  0  0  0
   41.3450   21.1780   38.1970 H   0  0  0  0  0  0  0  0  0  0  0  0
   41.5070   22.4940   34.1670 H   0  0  0  0  0  0  0  0  0  0  0  0
  1  2  2  0  0  0  0
  1 18  1  0  0  0  0
  2  6  1  0  0  0  0
  3  2  1  0  0  0  0
  4  3  2  0  0  0  0
  4  5  1  0  0  0  0
  5  1  1  0  0  0  0
  7  3  1  0  0  0  0
  8  4  1  0  0  0  0
  9  8  2  0  0  0  0
 10 11  1  0  0  0  0
 10  8  1  0  0  0  0
 11 12  1  0  0  0  0
 13 14  1  0  0  0  0
 13 11  1  0  0  0  0
 15 13  1  0  0  0  0
 16 17  1  0  0  0  0
 16 15  1  0  0  0  0
 17 10  1  0  0  0  0
 18 19  2  0  0  0  0
 20 18  1  0  0  0  0
 20 21  1  0  0  0  0
 21 26  1  0  0  0  0
 22 21  2  0  0  0  0
 22 27  1  0  0  0  0
 23 22  1  0  0  0  0
 24 25  1  0  0  0  0
 24 23  2  0  0  0  0
 25 20  2  0  0  0  0
 28 24  1  0  0  0  0
M  END
>  <minimizedAffinity>
-5.04814339

$$$$

 OpenBabel03272507313D

 28 30  0  0  0  0  0  0  0  0999 V2000
   36.1010   28.3950   33.6080 C   0  0  0  0  0  0  0  0  0  0  0  0
   36.7210   28.0630   32.4530 C   0  0  0  0  0  0  0  0  0  0  0  0
   37.8550   27.3050   32.7640 C   0  0  0  0  0  0  0  0  0  0  0  0
   37.8510   27.2210   34.1550 C   0  0  0  0  0  0  0  0  0  0  0  0
   36.8110   27.8740   34.5550 O   0  0  0  0  0  0  0  0  0  0  0  0
   36.5100   28.2650   31.4110 H   0  0  0  0  0  0  0  0  0  0  0  0
   38.5980   26.8620   32.1080 H   0  0  0  0  0  0  0  0  0  0  0  0
   38.8550   26.5170   34.9720 C   0  0  0  0  0  0  0  0  0  0  0  0
   39.9150   27.1460   35.2990 O   0  0  0  0  0  0  0  0  0  0  0  0
   38.5760   25.1720   35.3460 N   0  0  0  0  0  0  0  0  0  0  0  0
   37.6120   24.8400   36.3830 C   0  0  0  0  0  3  0  0  0  0  0  0
   36.5700   24.9550   36.0470 H   0  0  0  0  0  0  0  0  0  0  0  0
   37.8160   23.3630   36.7440 C   0  0  0  0  0  3  0  0  0  0  0  0
   37.0500   23.0470   37.4570 H   0  0  0  0  0  0  0  0  0  0  0  0
   37.6540   22.6660   35.5570 O   0  0  0  0  0  0  0  0  0  0  0  0
   38.8420   22.7600   34.8690 C   0  0  0  0  0  2  0  0  0  0  0  0
   39.3250   24.1490   34.6140 C   0  0  0  0  0  2  0  0  0  0  0  0
   34.8860   29.1840   33.6570 C   0  0  0  0  0  0  0  0  0  0  0  0
   34.0210   29.0050   32.7950 O   0  0  0  0  0  0  0  0  0  0  0  0
   34.7710   30.1530   34.7450 C   0  0  0  0  0  0  0  0  0  0  0  0
   35.9160   30.8840   35.0490 C   0  0  0  0  0  0  0  0  0  0  0  0
   35.8270   31.8130   36.0840 C   0  0  0  0  0  0  0  0  0  0  0  0
   34.6480   31.9620   36.7410 N   0  0  0  0  0  0  0  0  0  0  0  0
   33.5540   31.2320   36.4160 C   0  0  0  0  0  0  0  0  0  0  0  0
   33.6250   30.3410   35.4290 N   0  0  0  0  0  0  0  0  0  0  0  0
   36.8770   30.8120   34.5690 H   0  0  0  0  0  0  0  0  0  0  0  0
   36.6640   32.4240   36.3900 H   0  0  0  0  0  0  0  0  0  0  0  0
   32.5990   31.3270   36.9190 H   0  0  0  0  0  0  0  0  0  0  0  0
  1 18  1  0  0  0  0
  1  5  1  0  0  0  0
  2  3  1  0  0  0  0
  2  1  2  0  0  0  0
  3  4  2  0  0  0  0
  4  5  1  0  0  0  0
  4  8  1  0  0  0  0
  6  2  1  0  0  0  0
  7  3  1  0  0  0  0
  8  9  2  0  0  0  0
  8 10  1  0  0  0  0
 10 11  1  0  0  0  0
 11 13  1  0  0  0  0
 12 11  1  0  0  0  0
 13 14  1  0  0  0  0
 15 13  1  0  0  0  0
 16 15  1  0  0  0  0
 17 16  1  0  0  0  0
 17 10  1  0  0  0  0
 18 20  1  0  0  0  0
 19 18  2  0  0  0  0
 20 21  2  0  0  0  0
 20 25  1  0  0  0  0
 21 22  1  0  0  0  0
 22 27  1  0  0  0  0
 22 23  2  0  0  0  0
 24 23  1  0  0  0  0
 24 28  1  0  0  0  0
 25 24  2  0  0  0  0
 26 21  1  0  0  0  0
M  END
>  <minimizedAffinity>
-4.95394087

$$$$

 OpenBabel03272507313D

 28 30  0  0  0  0  0  0  0  0999 V2000
   37.1910   27.1980   34.3260 C   0  0  0  0  0  0  0  0  0  0  0  0
   38.0830   27.4150   35.3190 C   0  0  0  0  0  0  0  0  0  0  0  0
   38.7060   26.2010   35.6230 C   0  0  0  0  0  0  0  0  0  0  0  0
   38.1250   25.2800   34.7550 C   0  0  0  0  0  0  0  0  0  0  0  0
   37.2670   25.9380   34.0490 O   0  0  0  0  0  0  0  0  0  0  0  0
   38.3770   28.2960   35.8740 H   0  0  0  0  0  0  0  0  0  0  0  0
   39.4720   25.9770   36.3590 H   0  0  0  0  0  0  0  0  0  0  0  0
   38.4510   23.8440   34.6880 C   0  0  0  0  0  0  0  0  0  0  0  0
   37.6740   23.0800   34.0260 O   0  0  0  0  0  0  0  0  0  0  0  0
   39.6190   23.4000   35.3710 N   0  0  0  0  0  0  0  0  0  0  0  0
   40.9570   23.6480   34.8590 C   0  0  0  0  0  3  0  0  0  0  0  0
   41.2790   24.6910   35.0010 H   0  0  0  0  0  0  0  0  0  0  0  0
   41.9240   22.7590   35.6510 C   0  0  0  0  0  3  0  0  0  0  0  0
   42.9530   22.9810   35.3600 H   0  0  0  0  0  0  0  0  0  0  0  0
   41.7390   23.1020   36.9810 O   0  0  0  0  0  0  0  0  0  0  0  0
   40.6180   22.4340   37.4170 C   0  0  0  0  0  2  0  0  0  0  0  0
   39.3780   22.6780   36.6210 C   0  0  0  0  0  2  0  0  0  0  0  0
   36.3630   28.2460   33.7610 C   0  0  0  0  0  0  0  0  0  0  0  0
   35.5290   28.8020   34.4800 O   0  0  0  0  0  0  0  0  0  0  0  0
   36.5810   28.5730   32.3530 C   0  0  0  0  0  0  0  0  0  0  0  0
   36.1700   29.8380   31.9400 C   0  0  0  0  0  0  0  0  0  0  0  0
   36.3680   30.1700   30.6020 C   0  0  0  0  0  0  0  0  0  0  0  0
   36.9440   29.2620   29.7720 N   0  0  0  0  0  0  0  0  0  0  0  0
   37.3320   28.0410   30.2120 C   0  0  0  0  0  0  0  0  0  0  0  0
   37.1480   27.7110   31.4880 N   0  0  0  0  0  0  0  0  0  0  0  0
   35.7080   30.5990   32.5450 H   0  0  0  0  0  0  0  0  0  0  0  0
   36.0810   31.1280   30.1910 H   0  0  0  0  0  0  0  0  0  0  0  0
   37.7950   27.2950   29.5770 H   0  0  0  0  0  0  0  0  0  0  0  0
  1  2  2  0  0  0  0
  2  3  1  0  0  0  0
  2  6  1  0  0  0  0
  3  7  1  0  0  0  0
  4  3  2  0  0  0  0
  5  1  1  0  0  0  0
  5  4  1  0  0  0  0
  8  4  1  0  0  0  0
  8 10  1  0  0  0  0
  9  8  2  0  0  0  0
 10 17  1  0  0  0  0
 11 12  1  0  0  0  0
 11 10  1  0  0  0  0
 11 13  1  0  0  0  0
 13 15  1  0  0  0  0
 14 13  1  0  0  0  0
 15 16  1  0  0  0  0
 17 16  1  0  0  0  0
 18  1  1  0  0  0  0
 18 19  2  0  0  0  0
 20 18  1  0  0  0  0
 21 20  1  0  0  0  0
 21 26  1  0  0  0  0
 22 21  2  0  0  0  0
 23 24  2  0  0  0  0
 23 22  1  0  0  0  0
 24 25  1  0  0  0  0
 25 20  2  0  0  0  0
 27 22  1  0  0  0  0
 28 24  1  0  0  0  0
M  END
>  <minimizedAffinity>
-4.93677711

$$$$

 OpenBabel03272507313D

 28 30  0  0  0  0  0  0  0  0999 V2000
   37.0720   27.4120   34.6370 C   0  0  0  0  0  0  0  0  0  0  0  0
   38.0060   27.8840   35.4940 C   0  0  0  0  0  0  0  0  0  0  0  0
   38.5230   26.8060   36.2190 C   0  0  0  0  0  0  0  0  0  0  0  0
   37.8390   25.6950   35.7330 C   0  0  0  0  0  0  0  0  0  0  0  0
   37.0270   26.1350   34.8300 O   0  0  0  0  0  0  0  0  0  0  0  0
   38.3920   28.8740   35.7000 H   0  0  0  0  0  0  0  0  0  0  0  0
   39.2840   26.7890   36.9930 H   0  0  0  0  0  0  0  0  0  0  0  0
   38.0310   24.3060   36.1870 C   0  0  0  0  0  0  0  0  0  0  0  0
   37.3990   23.9180   37.2250 O   0  0  0  0  0  0  0  0  0  0  0  0
   38.9150   23.4820   35.4350 N   0  0  0  0  0  0  0  0  0  0  0  0
   38.5450   22.9260   34.1430 C   0  0  0  0  0  3  0  0  0  0  0  0
   38.5670   23.6740   33.3370 H   0  0  0  0  0  0  0  0  0  0  0  0
   39.5770   21.8460   33.7950 C   0  0  0  0  0  3  0  0  0  0  0  0
   39.3890   21.4650   32.7890 H   0  0  0  0  0  0  0  0  0  0  0  0
   40.8060   22.4870   33.8200 O   0  0  0  0  0  0  0  0  0  0  0  0
   41.1930   22.5650   35.1380 C   0  0  0  0  0  2  0  0  0  0  0  0
   40.2190   23.2340   36.0510 C   0  0  0  0  0  2  0  0  0  0  0  0
   36.3290   28.2610   33.7270 C   0  0  0  0  0  0  0  0  0  0  0  0
   35.3610   28.8950   34.1560 O   0  0  0  0  0  0  0  0  0  0  0  0
   36.7900   28.3070   32.3410 C   0  0  0  0  0  0  0  0  0  0  0  0
   36.2230   29.2880   31.5320 C   0  0  0  0  0  0  0  0  0  0  0  0
   36.6490   29.3490   30.2060 C   0  0  0  0  0  0  0  0  0  0  0  0
   37.5810   28.4640   29.7680 N   0  0  0  0  0  0  0  0  0  0  0  0
   38.1100   27.5230   30.5870 C   0  0  0  0  0  0  0  0  0  0  0  0
   37.7120   27.4540   31.8550 N   0  0  0  0  0  0  0  0  0  0  0  0
   35.4830   30.0150   31.8170 H   0  0  0  0  0  0  0  0  0  0  0  0
   36.2650   30.0760   29.5050 H   0  0  0  0  0  0  0  0  0  0  0  0
   38.8550   26.8040   30.2690 H   0  0  0  0  0  0  0  0  0  0  0  0
  1  5  1  0  0  0  0
  1  2  2  0  0  0  0
  2  6  1  0  0  0  0
  2  3  1  0  0  0  0
  3  7  1  0  0  0  0
  4  8  1  0  0  0  0
  4  3  2  0  0  0  0
  5  4  1  0  0  0  0
  8  9  2  0  0  0  0
 10 17  1  0  0  0  0
 10  8  1  0  0  0  0
 11 10  1  0  0  0  0
 12 11  1  0  0  0  0
 13 15  1  0  0  0  0
 13 11  1  0  0  0  0
 14 13  1  0  0  0  0
 15 16  1  0  0  0  0
 16 17  1  0  0  0  0
 18 19  2  0  0  0  0
 18  1  1  0  0  0  0
 20 18  1  0  0  0  0
 21 26  1  0  0  0  0
 21 20  2  0  0  0  0
 22 21  1  0  0  0  0
 23 22  2  0  0  0  0
 23 24  1  0  0  0  0
 24 25  2  0  0  0  0
 25 20  1  0  0  0  0
 27 22  1  0  0  0  0
 28 24  1  0  0  0  0
M  END
>  <minimizedAffinity>
-4.9333024

$$$$

 OpenBabel03272507313D

 28 30  0  0  0  0  0  0  0  0999 V2000
   37.0190   27.5490   34.7360 C   0  0  0  0  0  0  0  0  0  0  0  0
   38.0630   27.9450   35.5000 C   0  0  0  0  0  0  0  0  0  0  0  0
   38.5620   26.8270   36.1760 C   0  0  0  0  0  0  0  0  0  0  0  0
   37.7510   25.7730   35.7590 C   0  0  0  0  0  0  0  0  0  0  0  0
   36.8940   26.2790   34.9360 O   0  0  0  0  0  0  0  0  0  0  0  0
   38.5420   28.9010   35.6670 H   0  0  0  0  0  0  0  0  0  0  0  0
   39.3880   26.7480   36.8750 H   0  0  0  0  0  0  0  0  0  0  0  0
   37.8780   24.3720   36.1970 C   0  0  0  0  0  0  0  0  0  0  0  0
   37.3400   24.0350   37.3030 O   0  0  0  0  0  0  0  0  0  0  0  0
   38.5960   23.4790   35.3520 N   0  0  0  0  0  0  0  0  0  0  0  0
   38.0320   22.9610   34.1150 C   0  0  0  0  0  3  0  0  0  0  0  0
   38.0240   23.7080   33.3070 H   0  0  0  0  0  0  0  0  0  0  0  0
   38.9230   21.7990   33.6560 C   0  0  0  0  0  3  0  0  0  0  0  0
   38.5870   21.4390   32.6810 H   0  0  0  0  0  0  0  0  0  0  0  0
   40.1960   22.3350   33.5340 O   0  0  0  0  0  0  0  0  0  0  0  0
   40.7380   22.3750   34.7980 C   0  0  0  0  0  2  0  0  0  0  0  0
   39.9380   23.1200   35.8140 C   0  0  0  0  0  2  0  0  0  0  0  0
   36.2610   28.4580   33.8980 C   0  0  0  0  0  0  0  0  0  0  0  0
   36.2940   28.3110   32.6730 O   0  0  0  0  0  0  0  0  0  0  0  0
   35.4980   29.5020   34.5780 C   0  0  0  0  0  0  0  0  0  0  0  0
   34.1110   29.4110   34.4930 C   0  0  0  0  0  0  0  0  0  0  0  0
   33.3640   30.3970   35.1350 C   0  0  0  0  0  0  0  0  0  0  0  0
   34.0100   31.3880   35.8020 N   0  0  0  0  0  0  0  0  0  0  0  0
   35.3620   31.4430   35.8620 C   0  0  0  0  0  0  0  0  0  0  0  0
   36.0870   30.5070   35.2540 N   0  0  0  0  0  0  0  0  0  0  0  0
   33.5410   28.6550   33.9810 H   0  0  0  0  0  0  0  0  0  0  0  0
   32.2840   30.4080   35.1230 H   0  0  0  0  0  0  0  0  0  0  0  0
   35.9070   32.2190   36.3870 H   0  0  0  0  0  0  0  0  0  0  0  0
  1  5  1  0  0  0  0
  1  2  2  0  0  0  0
  2  6  1  0  0  0  0
  2  3  1  0  0  0  0
  3  7  1  0  0  0  0
  4  3  2  0  0  0  0
  4  8  1  0  0  0  0
  5  4  1  0  0  0  0
  8  9  2  0  0  0  0
 10 17  1  0  0  0  0
 10  8  1  0  0  0  0
 11 10  1  0  0  0  0
 12 11  1  0  0  0  0
 13 11  1  0  0  0  0
 14 13  1  0  0  0  0
 15 13  1  0  0  0  0
 15 16  1  0  0  0  0
 16 17  1  0  0  0  0
 18 20  1  0  0  0  0
 18  1  1  0  0  0  0
 19 18  2  0  0  0  0
 20 25  1  0  0  0  0
 21 20  2  0  0  0  0
 21 22  1  0  0  0  0
 22 23  2  0  0  0  0
 23 24  1  0  0  0  0
 24 28  1  0  0  0  0
 25 24  2  0  0  0  0
 26 21  1  0  0  0  0
 27 22  1  0  0  0  0
M  END
>  <minimizedAffinity>
-4.88139153

$$$$
