
 OpenBabel03272503243D

 31 33  0  0  1  0  0  0  0  0999 V2000
   36.4320   29.9480   49.2340 N   0  0  0  0  0  0  0  0  0  0  0  0
   36.9170   31.3050   49.0370 C   0  0  1  0  0  0  0  0  0  0  0  0
   37.6520   31.5360   50.3530 C   0  0  0  0  0  0  0  0  0  0  0  0
   37.3680   30.3290   51.2370 C   0  0  0  0  0  0  0  0  0  0  0  0
   37.2680   29.2480   50.1820 C   0  0  0  0  0  0  0  0  0  0  0  0
   36.0650   32.0170   48.9730 H   0  0  0  0  0  0  0  0  0  0  0  0
   37.2140   32.4050   50.8810 H   0  0  0  0  0  0  0  0  0  0  0  0
   38.7290   31.6990   50.1970 H   0  0  0  0  0  0  0  0  0  0  0  0
   38.2690   30.1260   51.8440 H   0  0  0  0  0  0  0  0  0  0  0  0
   36.4370   30.4400   51.8040 H   0  0  0  0  0  0  0  0  0  0  0  0
   38.2600   29.0020   49.8020 H   0  0  0  0  0  0  0  0  0  0  0  0
   36.7390   28.3580   50.5730 H   0  0  0  0  0  0  0  0  0  0  0  0
   37.8230   31.4300   47.8850 C   0  0  0  0  0  0  0  0  0  0  0  0
   38.8940   31.9690   48.0590 O   0  0  0  0  0  0  0  0  0  0  0  0
   37.9770   31.1560   46.4950 N   0  0  0  0  0  0  0  0  0  0  0  0
   39.4150   30.9850   46.3420 C   0  0  0  0  0  3  0  0  0  0  0  0
   39.7100   30.0810   46.8730 H   0  0  0  0  0  0  0  0  0  0  0  0
   39.6320   30.7800   44.8460 C   0  0  0  0  0  3  0  0  0  0  0  0
   40.7400   30.7080   44.7200 H   0  0  0  0  0  0  0  0  0  0  0  0
   39.1280   31.8720   44.1700 O   0  0  0  0  0  0  0  0  0  0  0  0
   37.7550   31.9080   44.2370 C   0  0  0  0  0  2  0  0  0  0  0  0
   37.1640   31.0110   45.3020 C   0  0  0  0  0  2  0  0  0  0  0  0
   35.2920   29.4000   48.5810 C   0  0  0  0  0  0  0  0  0  0  0  0
   34.5970   30.2110   47.6710 C   0  0  0  0  0  0  0  0  0  0  0  0
   33.4760   29.7210   47.0070 C   0  0  0  0  0  0  0  0  0  0  0  0
   33.1160   28.4150   47.3060 N   0  0  0  0  0  0  0  0  0  0  0  0
   33.7960   27.6710   48.1750 C   0  0  0  0  0  0  0  0  0  0  0  0
   34.8920   28.1620   48.8190 N   0  0  0  0  0  0  0  0  0  0  0  0
   34.8780   31.2330   47.4350 H   0  0  0  0  0  0  0  0  0  0  0  0
   32.9350   30.3390   46.3040 H   0  0  0  0  0  0  0  0  0  0  0  0
   33.4600   26.6790   48.3540 H   0  0  0  0  0  0  0  0  0  0  0  0
  1  5  1  0  0  0  0
  2  6  1  6  0  0  0
  2  1  1  0  0  0  0
  2  3  1  0  0  0  0
  3  7  1  0  0  0  0
  3  4  1  0  0  0  0
  4 10  1  0  0  0  0
  4  9  1  0  0  0  0
  5 12  1  0  0  0  0
  5  4  1  0  0  0  0
  8  3  1  0  0  0  0
 11  5  1  0  0  0  0
 13 14  2  0  0  0  0
 13  2  1  0  0  0  0
 15 13  1  0  0  0  0
 16 15  1  0  0  0  0
 16 17  1  0  0  0  0
 18 16  1  0  0  0  0
 19 18  1  0  0  0  0
 20 21  1  0  0  0  0
 20 18  1  0  0  0  0
 21 22  1  0  0  0  0
 22 15  1  0  0  0  0
 23 28  1  0  0  0  0
 23  1  1  0  0  0  0
 24 23  2  0  0  0  0
 25 26  2  0  0  0  0
 25 24  1  0  0  0  0
 26 27  1  0  0  0  0
 27 31  1  0  0  0  0
 27 28  2  0  0  0  0
 29 24  1  0  0  0  0
 30 25  1  0  0  0  0
M  END
>  <minimizedAffinity>
-5.52111864

>  <minimizedRMSD>
1.18510389

$$$$
