
 OpenBabel03272503243D

 31 33  0  0  1  0  0  0  0  0999 V2000
   36.5610   30.1240   49.0880 N   0  0  0  0  0  0  0  0  0  0  0  0
   36.8860   31.5400   49.1470 C   0  0  1  0  0  0  0  0  0  0  0  0
   37.6540   31.5990   50.4640 C   0  0  0  0  0  0  0  0  0  0  0  0
   37.5450   30.2210   51.1020 C   0  0  0  0  0  0  0  0  0  0  0  0
   37.5130   29.3580   49.8590 C   0  0  0  0  0  0  0  0  0  0  0  0
   35.9600   32.1480   49.2460 H   0  0  0  0  0  0  0  0  0  0  0  0
   37.1500   32.2950   51.1630 H   0  0  0  0  0  0  0  0  0  0  0  0
   38.6980   31.9130   50.3150 H   0  0  0  0  0  0  0  0  0  0  0  0
   38.4910   30.0110   51.6340 H   0  0  0  0  0  0  0  0  0  0  0  0
   36.6350   30.1130   51.7040 H   0  0  0  0  0  0  0  0  0  0  0  0
   38.5050   29.3050   49.4130 H   0  0  0  0  0  0  0  0  0  0  0  0
   37.1020   28.3540   50.0830 H   0  0  0  0  0  0  0  0  0  0  0  0
   37.7170   31.9880   48.0190 C   0  0  0  0  0  0  0  0  0  0  0  0
   38.4550   32.9320   48.1940 O   0  0  0  0  0  0  0  0  0  0  0  0
   38.0460   31.7470   46.6530 N   0  0  0  0  0  0  0  0  0  0  0  0
   38.5640   30.3860   46.6660 C   0  0  0  0  0  3  0  0  0  0  0  0
   37.7460   29.7110   46.9110 H   0  0  0  0  0  0  0  0  0  0  0  0
   39.0170   30.1220   45.2320 C   0  0  0  0  0  3  0  0  0  0  0  0
   39.4670   29.1000   45.2530 H   0  0  0  0  0  0  0  0  0  0  0  0
   39.9550   31.0700   44.8810 O   0  0  0  0  0  0  0  0  0  0  0  0
   39.3820   32.3140   44.7530 C   0  0  0  0  0  2  0  0  0  0  0  0
   38.0060   32.4280   45.3720 C   0  0  0  0  0  2  0  0  0  0  0  0
   35.4570   29.5830   48.3700 C   0  0  0  0  0  0  0  0  0  0  0  0
   34.8880   30.3580   47.3480 C   0  0  0  0  0  0  0  0  0  0  0  0
   33.8080   29.8730   46.6170 C   0  0  0  0  0  0  0  0  0  0  0  0
   33.3560   28.6090   46.9670 N   0  0  0  0  0  0  0  0  0  0  0  0
   33.9170   27.8980   47.9430 C   0  0  0  0  0  0  0  0  0  0  0  0
   34.9760   28.3840   48.6520 N   0  0  0  0  0  0  0  0  0  0  0  0
   35.2410   31.3470   47.0730 H   0  0  0  0  0  0  0  0  0  0  0  0
   33.3630   30.4630   45.8280 H   0  0  0  0  0  0  0  0  0  0  0  0
   33.5170   26.9380   48.1550 H   0  0  0  0  0  0  0  0  0  0  0  0
  1  2  1  0  0  0  0
  1  5  1  0  0  0  0
  2  6  1  1  0  0  0
  2  3  1  0  0  0  0
  3  4  1  0  0  0  0
  3  7  1  0  0  0  0
  4  9  1  0  0  0  0
  4 10  1  0  0  0  0
  5 12  1  0  0  0  0
  5  4  1  0  0  0  0
  8  3  1  0  0  0  0
 11  5  1  0  0  0  0
 13 14  2  0  0  0  0
 13  2  1  0  0  0  0
 15 16  1  0  0  0  0
 15 13  1  0  0  0  0
 16 17  1  0  0  0  0
 18 19  1  0  0  0  0
 18 16  1  0  0  0  0
 20 18  1  0  0  0  0
 21 20  1  0  0  0  0
 21 22  1  0  0  0  0
 22 15  1  0  0  0  0
 23 28  1  0  0  0  0
 23  1  1  0  0  0  0
 24 23  2  0  0  0  0
 25 26  2  0  0  0  0
 25 24  1  0  0  0  0
 26 27  1  0  0  0  0
 27 31  1  0  0  0  0
 27 28  2  0  0  0  0
 29 24  1  0  0  0  0
 30 25  1  0  0  0  0
M  END
>  <minimizedAffinity>
-5.12436008

>  <minimizedRMSD>
1.58785892

$$$$
