
 OpenBabel03272503243D

 31 33  0  0  1  0  0  0  0  0999 V2000
   36.4550   30.0350   49.1610 N   0  0  0  0  0  0  0  0  0  0  0  0
   36.7980   31.4460   49.0950 C   0  0  1  0  0  0  0  0  0  0  0  0
   37.6070   31.6010   50.3790 C   0  0  0  0  0  0  0  0  0  0  0  0
   37.5020   30.2810   51.1310 C   0  0  0  0  0  0  0  0  0  0  0  0
   37.4220   29.3200   49.9640 C   0  0  0  0  0  0  0  0  0  0  0  0
   35.8820   32.0720   49.1720 H   0  0  0  0  0  0  0  0  0  0  0  0
   37.1320   32.3580   51.0340 H   0  0  0  0  0  0  0  0  0  0  0  0
   38.6500   31.8870   50.1740 H   0  0  0  0  0  0  0  0  0  0  0  0
   38.4610   30.1020   51.6500 H   0  0  0  0  0  0  0  0  0  0  0  0
   36.6100   30.2350   51.7660 H   0  0  0  0  0  0  0  0  0  0  0  0
   38.4000   29.2180   49.4940 H   0  0  0  0  0  0  0  0  0  0  0  0
   37.0070   28.3430   50.2810 H   0  0  0  0  0  0  0  0  0  0  0  0
   37.5990   31.7890   47.9100 C   0  0  0  0  0  0  0  0  0  0  0  0
   38.3980   32.6940   48.0050 O   0  0  0  0  0  0  0  0  0  0  0  0
   37.8480   31.4640   46.5450 N   0  0  0  0  0  0  0  0  0  0  0  0
   39.1250   30.7660   46.5920 C   0  0  0  0  0  3  0  0  0  0  0  0
   38.9790   29.8210   47.1130 H   0  0  0  0  0  0  0  0  0  0  0  0
   39.4730   30.4810   45.1330 C   0  0  0  0  0  3  0  0  0  0  0  0
   40.4800   29.9970   45.1640 H   0  0  0  0  0  0  0  0  0  0  0  0
   39.5200   31.6770   44.4470 O   0  0  0  0  0  0  0  0  0  0  0  0
   38.2660   32.2260   44.3170 C   0  0  0  0  0  2  0  0  0  0  0  0
   37.2300   31.6260   45.2410 C   0  0  0  0  0  2  0  0  0  0  0  0
   35.3240   29.4520   48.5230 C   0  0  0  0  0  0  0  0  0  0  0  0
   34.6390   30.2150   47.5660 C   0  0  0  0  0  0  0  0  0  0  0  0
   33.5270   29.6900   46.9140 C   0  0  0  0  0  0  0  0  0  0  0  0
   33.1650   28.3990   47.2740 N   0  0  0  0  0  0  0  0  0  0  0  0
   33.8360   27.7010   48.1880 C   0  0  0  0  0  0  0  0  0  0  0  0
   34.9240   28.2260   48.8190 N   0  0  0  0  0  0  0  0  0  0  0  0
   34.9210   31.2240   47.2830 H   0  0  0  0  0  0  0  0  0  0  0  0
   32.9930   30.2700   46.1750 H   0  0  0  0  0  0  0  0  0  0  0  0
   33.5000   26.7190   48.4120 H   0  0  0  0  0  0  0  0  0  0  0  0
  1  5  1  0  0  0  0
  2  1  1  0  0  0  0
  2  6  1  1  0  0  0
  2  3  1  0  0  0  0
  3  7  1  0  0  0  0
  3  4  1  0  0  0  0
  4  9  1  0  0  0  0
  4 10  1  0  0  0  0
  5 12  1  0  0  0  0
  5  4  1  0  0  0  0
  8  3  1  0  0  0  0
 11  5  1  0  0  0  0
 13 14  2  0  0  0  0
 13  2  1  0  0  0  0
 15 16  1  0  0  0  0
 15 13  1  0  0  0  0
 16 17  1  0  0  0  0
 18 19  1  0  0  0  0
 18 16  1  0  0  0  0
 20 18  1  0  0  0  0
 21 20  1  0  0  0  0
 21 22  1  0  0  0  0
 22 15  1  0  0  0  0
 23 28  1  0  0  0  0
 23  1  1  0  0  0  0
 24 23  2  0  0  0  0
 25 26  2  0  0  0  0
 25 24  1  0  0  0  0
 26 27  1  0  0  0  0
 27 31  1  0  0  0  0
 27 28  2  0  0  0  0
 29 24  1  0  0  0  0
 30 25  1  0  0  0  0
M  END
>  <minimizedAffinity>
-5.25060701

>  <minimizedRMSD>
1.40979624

$$$$
