
 OpenBabel03272507273D

 38 40  0  0  1  0  0  0  0  0999 V2000
   36.7330   29.7990   49.4140 C   0  0  0  0  0  0  0  0  0  0  0  0
   37.7160   30.5000   48.6860 C   0  0  0  0  0  0  0  0  0  0  0  0
   37.4330   30.8180   47.3520 C   0  0  0  0  0  0  0  0  0  0  0  0
   36.2550   30.4430   46.8460 N   0  0  0  0  0  0  0  0  0  0  0  0
   35.3360   29.7740   47.5680 C   0  0  0  0  0  0  0  0  0  0  0  0
   35.5790   29.4560   48.8420 N   0  0  0  0  0  0  0  0  0  0  0  0
   38.3780   31.5170   46.5740 N   0  0  0  0  0  0  0  0  0  0  0  0
   39.3680   32.4720   47.0880 C   0  0  0  0  0  0  0  0  0  0  0  0
   39.9970   33.1190   45.9060 C   0  0  0  0  0  0  0  0  0  0  0  0
   39.0280   32.8590   44.8280 C   0  0  0  0  0  0  0  0  0  0  0  0
   38.5830   31.4590   45.1600 C   0  0  2  0  0  0  0  0  0  0  0  0
   36.9520   29.5530   50.4430 H   0  0  0  0  0  0  0  0  0  0  0  0
   38.6550   30.7760   49.1600 H   0  0  0  0  0  0  0  0  0  0  0  0
   34.4170   29.5230   47.0500 H   0  0  0  0  0  0  0  0  0  0  0  0
   40.0780   31.9260   47.7520 H   0  0  0  0  0  0  0  0  0  0  0  0
   38.7660   33.2130   47.6530 H   0  0  0  0  0  0  0  0  0  0  0  0
   40.1120   34.2170   46.1510 H   0  0  0  0  0  0  0  0  0  0  0  0
   41.0400   32.8000   45.6850 H   0  0  0  0  0  0  0  0  0  0  0  0
   38.1820   33.5690   44.8990 H   0  0  0  0  0  0  0  0  0  0  0  0
   39.5120   32.9200   43.8270 H   0  0  0  0  0  0  0  0  0  0  0  0
   37.4470   30.9900   44.3090 C   0  0  0  0  0  0  0  0  0  0  0  0
   36.3040   31.5920   44.8190 F   0  0  0  0  0  0  0  0  0  0  0  0
   37.2270   29.6470   44.2960 F   0  0  0  0  0  0  0  0  0  0  0  0
   37.6500   31.5360   43.0480 F   0  0  0  0  0  0  0  0  0  0  0  0
   39.7270   30.5310   44.9520 C   0  0  0  0  0  0  0  0  0  0  0  0
   39.3610   29.5390   45.2870 H   0  0  0  0  0  0  0  0  0  0  0  0
   40.5040   30.7970   45.7280 H   0  0  0  0  0  0  0  0  0  0  0  0
   40.2260   30.8190   43.8500 O   0  0  0  0  0  0  0  0  0  0  0  0
   40.5230   30.1800   42.6910 C   0  0  0  0  0  0  0  0  0  0  0  0
   40.4790   31.0170   41.7570 O   0  0  0  0  0  0  0  0  0  0  0  0
   40.8700   29.0180   41.9780 N   0  0  0  0  0  0  0  0  0  0  0  0
   40.1480   27.8020   42.2890 C   0  0  0  0  0  0  0  0  0  0  0  0
   40.8960   26.9650   42.4350 H   0  0  0  0  0  0  0  0  0  0  0  0
   39.3910   27.4140   41.0150 C   0  0  0  0  0  0  0  0  0  0  0  0
   38.7560   26.5540   41.2180 H   0  0  0  0  0  0  0  0  0  0  0  0
   40.3360   27.1400   40.0420 O   0  0  0  0  0  0  0  0  0  0  0  0
   41.0480   28.2970   39.7210 C   0  0  0  0  0  0  0  0  0  0  0  0
   41.8510   28.7400   40.9280 C   0  0  0  0  0  0  0  0  0  0  0  0
  1 12  1  0  0  0  0
  2 13  1  0  0  0  0
  2  1  2  0  0  0  0
  3  2  1  0  0  0  0
  4  3  2  0  0  0  0
  4  5  1  0  0  0  0
  5  6  2  0  0  0  0
  6  1  1  0  0  0  0
  7  8  1  0  0  0  0
  7  3  1  0  0  0  0
  8 16  1  0  0  0  0
  8 15  1  0  0  0  0
  9 17  1  0  0  0  0
  9  8  1  0  0  0  0
 10 19  1  0  0  0  0
 10 11  1  0  0  0  0
 10  9  1  0  0  0  0
 11 21  1  6  0  0  0
 11  7  1  0  0  0  0
 14  5  1  0  0  0  0
 18  9  1  0  0  0  0
 20 10  1  0  0  0  0
 21 22  1  0  0  0  0
 23 21  1  0  0  0  0
 24 21  1  0  0  0  0
 25 11  1  0  0  0  0
 25 26  1  0  0  0  0
 25 27  1  0  0  0  0
 28 25  1  0  0  0  0
 29 28  1  0  0  0  0
 30 29  2  0  0  0  0
 31 32  1  0  0  0  0
 31 29  1  0  0  0  0
 32 33  1  0  0  0  0
 34 35  1  0  0  0  0
 34 32  1  0  0  0  0
 36 34  1  0  0  0  0
 37 36  1  0  0  0  0
 37 38  1  0  0  0  0
 38 31  1  0  0  0  0
M  END
>  <minimizedAffinity>
-5.43407917

>  <minimizedRMSD>
0.705922008

$$$$
