
 OpenBabel03262520353D

 41 43  0  0  1  0  0  0  0  0999 V2000
   28.0930   28.2560   48.5260 C   0  0  0  0  0  0  0  0  0  0  0  0
   29.3800   27.9850   49.0150 C   0  0  0  0  0  0  0  0  0  0  0  0
   29.5860   27.4450   50.2590 C   0  0  0  0  0  0  0  0  0  0  0  0
   28.5020   27.1610   51.0520 C   0  0  0  0  0  0  0  0  0  0  0  0
   27.2490   27.4180   50.5900 C   0  0  0  0  0  0  0  0  0  0  0  0
   26.9970   27.9560   49.3570 C   0  0  0  0  0  0  0  0  0  0  0  0
   30.6180   27.2670   50.5580 H   0  0  0  0  0  0  0  0  0  0  0  0
   28.7530   26.7390   52.0150 H   0  0  0  0  0  0  0  0  0  0  0  0
   26.4490   27.1580   51.2920 H   0  0  0  0  0  0  0  0  0  0  0  0
   25.9670   28.0950   49.1230 H   0  0  0  0  0  0  0  0  0  0  0  0
   27.7490   28.9200   46.9530 S   0  0  0  0  0  0  0  0  0  0  0  0
   28.9840   29.5090   46.3460 O   0  0  0  0  0  0  0  0  0  0  0  0
   27.2140   27.7850   46.0690 O   0  0  0  0  0  0  0  0  0  0  0  0
   27.8710   31.5450   46.1650 H   0  0  0  0  0  0  0  0  0  0  0  0
   26.8960   31.2480   46.0580 N   0  0  0  0  0  0  0  0  0  0  0  0
   26.5520   30.2150   47.0500 C   0  0  2  0  0  3  0  0  0  0  0  0
   26.6240   30.8260   48.4270 C   0  0  0  0  0  3  0  0  0  0  0  0
   27.6580   31.2910   48.4780 H   0  0  0  0  0  0  0  0  0  0  0  0
   25.7320   31.8890   48.5690 O   0  0  0  0  0  0  0  0  0  0  0  0
   26.2120   32.8750   47.6740 C   0  0  0  0  0  2  0  0  0  0  0  0
   25.9530   32.3410   46.2810 C   0  0  0  0  0  2  0  0  0  0  0  0
   30.3500   28.3250   48.1050 O   0  0  0  0  0  0  0  0  0  0  0  0
   31.8950   26.1750   48.2350 O   0  0  0  0  0  0  0  0  0  0  0  0
   31.9110   27.6920   47.9990 P   0  0  1  0  0  0  0  0  0  0  0  0
   32.6120   28.0580   46.5000 O   0  0  0  0  0  0  0  0  0  0  0  0
   32.4340   27.3220   45.8570 H   0  0  0  0  0  0  0  0  0  0  0  0
   32.9210   28.3050   49.2180 O   0  0  0  0  0  0  0  0  0  0  0  0
   34.2040   27.7520   49.0580 C   0  0  0  0  0  0  0  0  0  0  0  0
   34.4930   27.2000   50.0000 H   0  0  0  0  0  0  0  0  0  0  0  0
   34.1520   27.0240   48.2520 H   0  0  0  0  0  0  0  0  0  0  0  0
   35.2490   29.9620   49.4020 C   0  0  0  0  0  3  0  0  0  0  0  0
   35.2270   28.7970   48.8110 C   0  0  0  0  0  3  0  0  0  0  0  0
   37.7220   32.6530   49.5410 C   0  0  0  0  0  0  0  0  0  0  0  0
   38.3300   32.5620   48.2710 C   0  0  0  0  0  0  0  0  0  0  0  0
   37.8720   31.5690   47.3880 C   0  0  0  0  0  0  0  0  0  0  0  0
   36.8590   30.7770   47.8670 N   0  0  0  0  0  0  0  0  0  0  0  0
   36.3150   30.8930   49.0620 C   0  0  0  0  0  0  0  0  0  0  0  0
   36.7550   31.8340   49.8910 N   0  0  0  0  0  0  0  0  0  0  0  0
   38.1330   33.4430   50.1580 H   0  0  0  0  0  0  0  0  0  0  0  0
   39.1290   33.1890   47.8960 H   0  0  0  0  0  0  0  0  0  0  0  0
   38.2680   31.4210   46.4050 H   0  0  0  0  0  0  0  0  0  0  0  0
  1  2  2  0  0  0  0
  1  6  1  0  0  0  0
  2  3  1  0  0  0  0
  3  7  1  0  0  0  0
  3  4  2  0  0  0  0
  4  8  1  0  0  0  0
  5  4  1  0  0  0  0
  5  9  1  0  0  0  0
  6  5  2  0  0  0  0
 10  6  1  0  0  0  0
 11  1  1  0  0  0  0
 12 11  2  0  0  0  0
 13 11  2  0  0  0  0
 15 14  1  0  0  0  0
 15 21  1  0  0  0  0
 15 16  1  0  0  0  0
 16 11  1  1  0  0  0
 16 17  1  0  0  0  0
 17 18  1  0  0  0  0
 17 19  1  0  0  0  0
 20 19  1  0  0  0  0
 21 20  1  0  0  0  0
 22  2  1  0  0  0  0
 24 22  1  0  0  0  0
 24 23  2  1  0  0  0
 24 27  1  0  0  0  0
 25 24  1  0  0  0  0
 26 25  1  0  0  0  0
 28 27  1  0  0  0  0
 28 29  1  0  0  0  0
 30 28  1  0  0  0  0
 32 28  1  0  0  0  0
 32 31  2  0  0  0  0
 33 38  1  0  0  0  0
 33 39  1  0  0  0  0
 34 33  2  0  0  0  0
 35 36  2  0  0  0  0
 35 34  1  0  0  0  0
 36 37  1  0  0  0  0
 37 31  1  0  0  0  0
 37 38  2  0  0  0  0
 40 34  1  0  0  0  0
 41 35  1  0  0  0  0
M  END
>  <minimizedAffinity>
-6.35935116

>  <minimizedRMSD>
2.06451941

$$$$
