
 OpenBabel03262520353D

 41 43  0  0  1  0  0  0  0  0999 V2000
   27.1340   28.1530   49.5160 C   0  0  0  0  0  0  0  0  0  0  0  0
   28.5120   27.8920   49.4730 C   0  0  0  0  0  0  0  0  0  0  0  0
   29.1810   27.3400   50.5350 C   0  0  0  0  0  0  0  0  0  0  0  0
   28.4840   27.0330   51.6780 C   0  0  0  0  0  0  0  0  0  0  0  0
   27.1480   27.2800   51.7330 C   0  0  0  0  0  0  0  0  0  0  0  0
   26.4410   27.8290   50.6970 C   0  0  0  0  0  0  0  0  0  0  0  0
   30.2500   27.1720   50.4150 H   0  0  0  0  0  0  0  0  0  0  0  0
   29.0880   26.6030   52.4650 H   0  0  0  0  0  0  0  0  0  0  0  0
   26.6780   27.0010   52.6830 H   0  0  0  0  0  0  0  0  0  0  0  0
   25.3980   27.9580   50.8760 H   0  0  0  0  0  0  0  0  0  0  0  0
   26.2120   28.8310   48.2040 S   0  0  0  0  0  0  0  0  0  0  0  0
   26.4080   28.0350   46.9530 O   0  0  0  0  0  0  0  0  0  0  0  0
   24.7310   28.8170   48.6120 O   0  0  0  0  0  0  0  0  0  0  0  0
   24.7440   31.1160   47.8140 H   0  0  0  0  0  0  0  0  0  0  0  0
   25.6340   31.4010   48.2390 N   0  0  0  0  0  0  0  0  0  0  0  0
   26.7180   30.4860   47.8500 C   0  0  2  0  0  3  0  0  0  0  0  0
   26.9400   30.6060   46.3630 C   0  0  0  0  0  3  0  0  0  0  0  0
   25.9140   30.4400   45.9080 H   0  0  0  0  0  0  0  0  0  0  0  0
   27.3040   31.9010   45.9980 O   0  0  0  0  0  0  0  0  0  0  0  0
   26.1630   32.6850   46.2910 C   0  0  0  0  0  2  0  0  0  0  0  0
   26.0580   32.7280   47.8000 C   0  0  0  0  0  2  0  0  0  0  0  0
   29.0590   28.2550   48.2660 O   0  0  0  0  0  0  0  0  0  0  0  0
   30.4000   26.1710   47.3270 O   0  0  0  0  0  0  0  0  0  0  0  0
   30.4940   27.6810   47.5870 P   0  0  1  0  0  0  0  0  0  0  0  0
   30.8620   28.5140   46.1580 O   0  0  0  0  0  0  0  0  0  0  0  0
   30.4790   28.0320   45.3790 H   0  0  0  0  0  0  0  0  0  0  0  0
   31.8050   27.8520   48.6520 O   0  0  0  0  0  0  0  0  0  0  0  0
   32.9650   27.3750   48.0150 C   0  0  0  0  0  0  0  0  0  0  0  0
   33.1290   26.2950   48.2970 H   0  0  0  0  0  0  0  0  0  0  0  0
   32.7920   27.4130   46.9420 H   0  0  0  0  0  0  0  0  0  0  0  0
   34.5040   28.3870   49.6600 C   0  0  0  0  0  3  0  0  0  0  0  0
   34.1690   28.1400   48.4210 C   0  0  0  0  0  3  0  0  0  0  0  0
   37.2520   30.1430   51.3140 C   0  0  0  0  0  0  0  0  0  0  0  0
   38.0170   30.5950   50.2170 C   0  0  0  0  0  0  0  0  0  0  0  0
   37.5660   30.2830   48.9230 C   0  0  0  0  0  0  0  0  0  0  0  0
   36.4030   29.5560   48.8640 N   0  0  0  0  0  0  0  0  0  0  0  0
   35.7160   29.1510   49.9130 C   0  0  0  0  0  0  0  0  0  0  0  0
   36.1490   29.4510   51.1320 N   0  0  0  0  0  0  0  0  0  0  0  0
   37.6690   30.4270   52.2720 H   0  0  0  0  0  0  0  0  0  0  0  0
   38.9330   31.1690   50.2670 H   0  0  0  0  0  0  0  0  0  0  0  0
   38.0750   30.5800   48.0300 H   0  0  0  0  0  0  0  0  0  0  0  0
  1  6  1  0  0  0  0
  2  1  2  0  0  0  0
  2  3  1  0  0  0  0
  3  4  2  0  0  0  0
  4  5  1  0  0  0  0
  4  8  1  0  0  0  0
  5  9  1  0  0  0  0
  6 10  1  0  0  0  0
  6  5  2  0  0  0  0
  7  3  1  0  0  0  0
 11 13  2  0  0  0  0
 11  1  1  0  0  0  0
 12 11  2  0  0  0  0
 14 15  1  0  0  0  0
 16 11  1  6  0  0  0
 16 15  1  0  0  0  0
 17 16  1  0  0  0  0
 18 17  1  0  0  0  0
 19 20  1  0  0  0  0
 19 17  1  0  0  0  0
 20 21  1  0  0  0  0
 21 15  1  0  0  0  0
 22  2  1  0  0  0  0
 24 23  2  6  0  0  0
 24 22  1  0  0  0  0
 24 27  1  0  0  0  0
 25 24  1  0  0  0  0
 26 25  1  0  0  0  0
 28 29  1  0  0  0  0
 28 32  1  0  0  0  0
 28 27  1  0  0  0  0
 30 28  1  0  0  0  0
 31 37  1  0  0  0  0
 32 31  2  0  0  0  0
 33 39  1  0  0  0  0
 34 40  1  0  0  0  0
 34 33  2  0  0  0  0
 35 34  1  0  0  0  0
 36 35  2  0  0  0  0
 36 37  1  0  0  0  0
 37 38  2  0  0  0  0
 38 33  1  0  0  0  0
 41 35  1  0  0  0  0
M  END
>  <minimizedAffinity>
-7.01811409

>  <minimizedRMSD>
1.8297137

$$$$
