
 OpenBabel03272507323D

 35 38  0  0  1  0  0  0  0  0999 V2000
   35.8960   29.2110   49.8400 C   0  0  0  0  0  0  0  0  0  0  0  0
   34.9430   29.6940   50.7070 C   0  0  0  0  0  0  0  0  0  0  0  0
   33.6990   29.2070   50.2770 C   0  0  0  0  0  0  0  0  0  0  0  0
   33.9860   28.4500   49.1630 C   0  0  0  0  0  0  0  0  0  0  0  0
   35.2790   28.4790   48.9420 O   0  0  0  0  0  0  0  0  0  0  0  0
   35.0250   30.3340   51.5850 H   0  0  0  0  0  0  0  0  0  0  0  0
   32.7360   29.4100   50.7530 H   0  0  0  0  0  0  0  0  0  0  0  0
   37.3070   29.5200   49.9920 C   0  0  0  0  0  0  0  0  0  0  0  0
   37.9840   28.8780   50.8100 O   0  0  0  0  0  0  0  0  0  0  0  0
   37.8370   30.5700   49.1680 C   0  0  0  0  0  0  0  0  0  0  0  0
   38.1840   31.7530   49.8030 C   0  0  0  0  0  0  0  0  0  0  0  0
   38.7020   32.7990   49.0320 C   0  0  0  0  0  0  0  0  0  0  0  0
   38.8380   32.5930   47.6800 N   0  0  0  0  0  0  0  0  0  0  0  0
   38.4930   31.4410   47.1020 C   0  0  0  0  0  0  0  0  0  0  0  0
   37.9950   30.4320   47.8340 N   0  0  0  0  0  0  0  0  0  0  0  0
   38.1010   31.9730   50.8550 H   0  0  0  0  0  0  0  0  0  0  0  0
   38.9860   33.7430   49.4910 H   0  0  0  0  0  0  0  0  0  0  0  0
   38.6290   31.3520   46.0220 H   0  0  0  0  0  0  0  0  0  0  0  0
   33.0010   27.7240   48.3510 C   0  0  0  0  0  0  0  0  0  0  0  0
   31.7930   27.6820   48.7610 O   0  0  0  0  0  0  0  0  0  0  0  0
   33.4270   27.0500   47.0790 C   0  0  1  0  0  0  0  0  0  0  0  0
   33.7490   25.5410   47.3390 C   0  0  0  0  0  0  0  0  0  0  0  0
   32.6000   25.9840   46.5100 C   0  0  2  0  0  0  0  0  0  0  0  0
   34.3570   27.4840   46.6650 H   0  0  0  0  0  0  0  0  0  0  0  0
   33.5660   25.1500   48.3540 H   0  0  0  0  0  0  0  0  0  0  0  0
   34.6260   25.0980   46.8670 H   0  0  0  0  0  0  0  0  0  0  0  0
   31.6110   25.8760   47.0090 H   0  0  0  0  0  0  0  0  0  0  0  0
   32.5200   25.7700   45.1080 N   0  0  1  0  0  0  0  0  0  0  0  0
   31.9340   26.7980   44.3190 C   0  0  0  0  0  3  0  0  0  0  0  0
   32.7560   27.4490   43.8950 H   0  0  0  0  0  0  0  0  0  0  0  0
   31.3210   26.1170   43.1090 C   0  0  0  0  0  3  0  0  0  0  0  0
   30.9430   26.8400   42.3600 H   0  0  0  0  0  0  0  0  0  0  0  0
   32.1960   25.1720   42.6090 O   0  0  0  0  0  0  0  0  0  0  0  0
   33.5060   25.3620   42.9890 C   0  0  0  0  0  2  0  0  0  0  0  0
   33.7090   25.2850   44.4900 C   0  0  0  0  0  2  0  0  0  0  0  0
  1  8  1  0  0  0  0
  1  2  2  0  0  0  0
  2  6  1  0  0  0  0
  3  2  1  0  0  0  0
  3  7  1  0  0  0  0
  4  3  2  0  0  0  0
  5  4  1  0  0  0  0
  5  1  1  0  0  0  0
  8  9  2  0  0  0  0
 10 11  1  0  0  0  0
 10  8  1  0  0  0  0
 11 16  1  0  0  0  0
 12 17  1  0  0  0  0
 12 11  2  0  0  0  0
 13 12  1  0  0  0  0
 14 13  2  0  0  0  0
 14 15  1  0  0  0  0
 15 10  2  0  0  0  0
 18 14  1  0  0  0  0
 19 20  2  0  0  0  0
 19  4  1  0  0  0  0
 21 24  1  6  0  0  0
 21 22  1  0  0  0  0
 21 19  1  0  0  0  0
 22 25  1  0  0  0  0
 23 27  1  1  0  0  0
 23 21  1  0  0  0  0
 23 22  1  0  0  0  0
 26 22  1  0  0  0  0
 28 35  1  6  0  0  0
 28 23  1  0  0  0  0
 29 28  1  0  0  0  0
 30 29  1  0  0  0  0
 31 29  1  0  0  0  0
 32 31  1  0  0  0  0
 33 34  1  0  0  0  0
 33 31  1  0  0  0  0
 34 35  1  0  0  0  0
M  END
>  <minimizedAffinity>
-4.83554554

>  <minimizedRMSD>
0.312046289

$$$$
