
 OpenBabel03272507323D

 35 38  0  0  1  0  0  0  0  0999 V2000
   35.8130   29.1380   49.8050 C   0  0  0  0  0  0  0  0  0  0  0  0
   34.8020   29.6620   50.5780 C   0  0  0  0  0  0  0  0  0  0  0  0
   33.5930   29.1300   50.1050 C   0  0  0  0  0  0  0  0  0  0  0  0
   33.9570   28.3070   49.0630 C   0  0  0  0  0  0  0  0  0  0  0  0
   35.2600   28.3410   48.9200 O   0  0  0  0  0  0  0  0  0  0  0  0
   34.8220   30.3590   51.4150 H   0  0  0  0  0  0  0  0  0  0  0  0
   32.5990   29.3480   50.5070 H   0  0  0  0  0  0  0  0  0  0  0  0
   37.2070   29.4780   50.0210 C   0  0  0  0  0  0  0  0  0  0  0  0
   37.8540   28.8650   50.8850 O   0  0  0  0  0  0  0  0  0  0  0  0
   37.7590   30.5230   49.2060 C   0  0  0  0  0  0  0  0  0  0  0  0
   38.1040   31.7040   49.8450 C   0  0  0  0  0  0  0  0  0  0  0  0
   38.6430   32.7450   49.0810 C   0  0  0  0  0  0  0  0  0  0  0  0
   38.8000   32.5370   47.7320 N   0  0  0  0  0  0  0  0  0  0  0  0
   38.4550   31.3860   47.1490 C   0  0  0  0  0  0  0  0  0  0  0  0
   37.9390   30.3830   47.8740 N   0  0  0  0  0  0  0  0  0  0  0  0
   38.0060   31.9260   50.8950 H   0  0  0  0  0  0  0  0  0  0  0  0
   38.9270   33.6870   49.5440 H   0  0  0  0  0  0  0  0  0  0  0  0
   38.6090   31.2950   46.0720 H   0  0  0  0  0  0  0  0  0  0  0  0
   33.0320   27.5150   48.2420 C   0  0  0  0  0  0  0  0  0  0  0  0
   31.8070   27.4560   48.5970 O   0  0  0  0  0  0  0  0  0  0  0  0
   33.5370   26.7950   47.0240 C   0  0  1  0  0  0  0  0  0  0  0  0
   33.7820   25.2840   47.3420 C   0  0  0  0  0  0  0  0  0  0  0  0
   32.7210   25.7450   46.4110 C   0  0  2  0  0  0  0  0  0  0  0  0
   34.5130   27.1880   46.6800 H   0  0  0  0  0  0  0  0  0  0  0  0
   33.5010   24.9230   48.3470 H   0  0  0  0  0  0  0  0  0  0  0  0
   34.6770   24.7990   46.9540 H   0  0  0  0  0  0  0  0  0  0  0  0
   31.6920   25.6840   46.8290 H   0  0  0  0  0  0  0  0  0  0  0  0
   32.7490   25.5000   45.0130 N   0  0  1  0  0  0  0  0  0  0  0  0
   31.5270   25.1290   44.3860 C   0  0  0  0  0  3  0  0  0  0  0  0
   31.0510   26.0510   43.9370 H   0  0  0  0  0  0  0  0  0  0  0  0
   31.8970   24.2670   43.1940 C   0  0  0  0  0  3  0  0  0  0  0  0
   31.0230   24.0240   42.5580 H   0  0  0  0  0  0  0  0  0  0  0  0
   32.9630   24.8310   42.5200 O   0  0  0  0  0  0  0  0  0  0  0  0
   33.1390   26.1740   42.7710 C   0  0  0  0  0  2  0  0  0  0  0  0
   33.4340   26.4730   44.2280 C   0  0  0  0  0  2  0  0  0  0  0  0
  1  8  1  0  0  0  0
  1  2  2  0  0  0  0
  2  6  1  0  0  0  0
  3  7  1  0  0  0  0
  3  2  1  0  0  0  0
  4  3  2  0  0  0  0
  5  4  1  0  0  0  0
  5  1  1  0  0  0  0
  8  9  2  0  0  0  0
 10 11  1  0  0  0  0
 10  8  1  0  0  0  0
 11 16  1  0  0  0  0
 12 17  1  0  0  0  0
 12 11  2  0  0  0  0
 13 12  1  0  0  0  0
 14 13  2  0  0  0  0
 14 15  1  0  0  0  0
 15 10  2  0  0  0  0
 18 14  1  0  0  0  0
 19 20  2  0  0  0  0
 19  4  1  0  0  0  0
 21 24  1  6  0  0  0
 21 22  1  0  0  0  0
 21 19  1  0  0  0  0
 22 25  1  0  0  0  0
 23 27  1  1  0  0  0
 23 21  1  0  0  0  0
 23 22  1  0  0  0  0
 26 22  1  0  0  0  0
 28 35  1  6  0  0  0
 28 23  1  0  0  0  0
 29 28  1  0  0  0  0
 30 29  1  0  0  0  0
 31 29  1  0  0  0  0
 32 31  1  0  0  0  0
 33 34  1  0  0  0  0
 33 31  1  0  0  0  0
 34 35  1  0  0  0  0
M  END
>  <minimizedAffinity>
-4.82031965

>  <minimizedRMSD>
0.0865703076

$$$$
