
 OpenBabel03272507323D

 35 38  0  0  1  0  0  0  0  0999 V2000
   35.8470   29.1400   49.8050 C   0  0  0  0  0  0  0  0  0  0  0  0
   34.8100   29.6390   50.5600 C   0  0  0  0  0  0  0  0  0  0  0  0
   33.6230   29.0770   50.0650 C   0  0  0  0  0  0  0  0  0  0  0  0
   34.0260   28.2640   49.0300 C   0  0  0  0  0  0  0  0  0  0  0  0
   35.3300   28.3300   48.9110 O   0  0  0  0  0  0  0  0  0  0  0  0
   34.7980   30.3360   51.3970 H   0  0  0  0  0  0  0  0  0  0  0  0
   32.6170   29.2710   50.4490 H   0  0  0  0  0  0  0  0  0  0  0  0
   37.2290   29.5150   50.0470 C   0  0  0  0  0  0  0  0  0  0  0  0
   37.8680   28.9330   50.9380 O   0  0  0  0  0  0  0  0  0  0  0  0
   37.7780   30.5540   49.2230 C   0  0  0  0  0  0  0  0  0  0  0  0
   38.1120   31.7440   49.8510 C   0  0  0  0  0  0  0  0  0  0  0  0
   38.6480   32.7810   49.0790 C   0  0  0  0  0  0  0  0  0  0  0  0
   38.8120   32.5590   47.7320 N   0  0  0  0  0  0  0  0  0  0  0  0
   38.4790   31.3990   47.1610 C   0  0  0  0  0  0  0  0  0  0  0  0
   37.9650   30.4000   47.8940 N   0  0  0  0  0  0  0  0  0  0  0  0
   38.0070   31.9770   50.8980 H   0  0  0  0  0  0  0  0  0  0  0  0
   38.9230   33.7300   49.5330 H   0  0  0  0  0  0  0  0  0  0  0  0
   38.6390   31.2970   46.0850 H   0  0  0  0  0  0  0  0  0  0  0  0
   33.1360   27.4500   48.1930 C   0  0  0  0  0  0  0  0  0  0  0  0
   31.8970   27.4010   48.4960 O   0  0  0  0  0  0  0  0  0  0  0  0
   33.6910   26.6960   47.0180 C   0  0  1  0  0  0  0  0  0  0  0  0
   33.7650   25.1660   47.3330 C   0  0  0  0  0  0  0  0  0  0  0  0
   32.8490   25.7310   46.3100 C   0  0  2  0  0  0  0  0  0  0  0  0
   34.7280   26.9990   46.7780 H   0  0  0  0  0  0  0  0  0  0  0  0
   33.3550   24.8250   48.2990 H   0  0  0  0  0  0  0  0  0  0  0  0
   34.6470   24.6040   47.0270 H   0  0  0  0  0  0  0  0  0  0  0  0
   31.7810   25.7610   46.6240 H   0  0  0  0  0  0  0  0  0  0  0  0
   32.9920   25.4950   44.9180 N   0  0  1  0  0  0  0  0  0  0  0  0
   31.8790   25.7900   44.0820 C   0  0  0  0  0  3  0  0  0  0  0  0
   32.0150   26.8220   43.6430 H   0  0  0  0  0  0  0  0  0  0  0  0
   31.9700   24.8500   42.8950 C   0  0  0  0  0  3  0  0  0  0  0  0
   31.2170   25.0770   42.1140 H   0  0  0  0  0  0  0  0  0  0  0  0
   33.2730   24.7920   42.4410 O   0  0  0  0  0  0  0  0  0  0  0  0
   34.0500   25.8620   42.8260 C   0  0  0  0  0  2  0  0  0  0  0  0
   34.1970   25.9810   44.3300 C   0  0  0  0  0  2  0  0  0  0  0  0
  1  8  1  0  0  0  0
  1  2  2  0  0  0  0
  2  6  1  0  0  0  0
  3  7  1  0  0  0  0
  3  2  1  0  0  0  0
  4  3  2  0  0  0  0
  5  4  1  0  0  0  0
  5  1  1  0  0  0  0
  8  9  2  0  0  0  0
 10 11  1  0  0  0  0
 10  8  1  0  0  0  0
 11 16  1  0  0  0  0
 12 17  1  0  0  0  0
 12 11  2  0  0  0  0
 13 12  1  0  0  0  0
 14 13  2  0  0  0  0
 14 15  1  0  0  0  0
 15 10  2  0  0  0  0
 18 14  1  0  0  0  0
 19 20  2  0  0  0  0
 19  4  1  0  0  0  0
 21 24  1  6  0  0  0
 21 22  1  0  0  0  0
 21 19  1  0  0  0  0
 22 25  1  0  0  0  0
 23 27  1  1  0  0  0
 23 21  1  0  0  0  0
 23 22  1  0  0  0  0
 26 22  1  0  0  0  0
 28 35  1  6  0  0  0
 28 23  1  0  0  0  0
 29 28  1  0  0  0  0
 30 29  1  0  0  0  0
 31 29  1  0  0  0  0
 32 31  1  0  0  0  0
 33 34  1  0  0  0  0
 33 31  1  0  0  0  0
 34 35  1  0  0  0  0
M  END
>  <minimizedAffinity>
-4.8545146

>  <minimizedRMSD>
0.190040201

$$$$
