
 OpenBabel03272507323D

 35 38  0  0  1  0  0  0  0  0999 V2000
   35.8310   29.1440   49.8110 C   0  0  0  0  0  0  0  0  0  0  0  0
   34.8130   29.6520   50.5850 C   0  0  0  0  0  0  0  0  0  0  0  0
   33.6110   29.1090   50.1050 C   0  0  0  0  0  0  0  0  0  0  0  0
   33.9870   28.2970   49.0580 C   0  0  0  0  0  0  0  0  0  0  0  0
   35.2900   28.3460   48.9190 O   0  0  0  0  0  0  0  0  0  0  0  0
   34.8240   30.3430   51.4270 H   0  0  0  0  0  0  0  0  0  0  0  0
   32.6140   29.3140   50.5060 H   0  0  0  0  0  0  0  0  0  0  0  0
   37.2220   29.4980   50.0330 C   0  0  0  0  0  0  0  0  0  0  0  0
   37.8660   28.9010   50.9110 O   0  0  0  0  0  0  0  0  0  0  0  0
   37.7720   30.5350   49.2070 C   0  0  0  0  0  0  0  0  0  0  0  0
   38.1260   31.7180   49.8360 C   0  0  0  0  0  0  0  0  0  0  0  0
   38.6640   32.7530   49.0620 C   0  0  0  0  0  0  0  0  0  0  0  0
   38.8100   32.5350   47.7130 N   0  0  0  0  0  0  0  0  0  0  0  0
   38.4580   31.3820   47.1410 C   0  0  0  0  0  0  0  0  0  0  0  0
   37.9420   30.3850   47.8750 N   0  0  0  0  0  0  0  0  0  0  0  0
   38.0360   31.9480   50.8850 H   0  0  0  0  0  0  0  0  0  0  0  0
   38.9550   33.6970   49.5170 H   0  0  0  0  0  0  0  0  0  0  0  0
   38.6040   31.2830   46.0630 H   0  0  0  0  0  0  0  0  0  0  0  0
   33.0720   27.5010   48.2300 C   0  0  0  0  0  0  0  0  0  0  0  0
   31.8440   27.4410   48.5710 O   0  0  0  0  0  0  0  0  0  0  0  0
   33.5920   26.7770   47.0210 C   0  0  1  0  0  0  0  0  0  0  0  0
   33.7720   25.2540   47.3280 C   0  0  0  0  0  0  0  0  0  0  0  0
   32.7610   25.7650   46.3680 C   0  0  2  0  0  0  0  0  0  0  0  0
   34.5930   27.1380   46.7150 H   0  0  0  0  0  0  0  0  0  0  0  0
   33.4450   24.8930   48.3180 H   0  0  0  0  0  0  0  0  0  0  0  0
   34.6630   24.7420   46.9640 H   0  0  0  0  0  0  0  0  0  0  0  0
   31.7170   25.7350   46.7490 H   0  0  0  0  0  0  0  0  0  0  0  0
   32.8280   25.5350   44.9680 N   0  0  1  0  0  0  0  0  0  0  0  0
   32.8790   26.6720   44.1170 C   0  0  0  0  0  3  0  0  0  0  0  0
   33.9570   26.8870   43.8560 H   0  0  0  0  0  0  0  0  0  0  0  0
   32.2400   26.2580   42.8040 C   0  0  0  0  0  3  0  0  0  0  0  0
   32.3370   27.0340   42.0190 H   0  0  0  0  0  0  0  0  0  0  0  0
   32.6930   25.0050   42.4360 O   0  0  0  0  0  0  0  0  0  0  0  0
   33.8770   24.6390   43.0380 C   0  0  0  0  0  2  0  0  0  0  0  0
   33.7780   24.5570   44.5480 C   0  0  0  0  0  2  0  0  0  0  0  0
  1  8  1  0  0  0  0
  1  2  2  0  0  0  0
  2  6  1  0  0  0  0
  3  7  1  0  0  0  0
  3  2  1  0  0  0  0
  4  3  2  0  0  0  0
  5  4  1  0  0  0  0
  5  1  1  0  0  0  0
  8  9  2  0  0  0  0
 10 11  1  0  0  0  0
 10  8  1  0  0  0  0
 11 16  1  0  0  0  0
 12 17  1  0  0  0  0
 12 11  2  0  0  0  0
 13 12  1  0  0  0  0
 14 13  2  0  0  0  0
 14 15  1  0  0  0  0
 15 10  2  0  0  0  0
 18 14  1  0  0  0  0
 19 20  2  0  0  0  0
 19  4  1  0  0  0  0
 21 24  1  6  0  0  0
 21 22  1  0  0  0  0
 21 19  1  0  0  0  0
 22 25  1  0  0  0  0
 23 27  1  1  0  0  0
 23 21  1  0  0  0  0
 23 22  1  0  0  0  0
 26 22  1  0  0  0  0
 28 35  1  1  0  0  0
 28 23  1  0  0  0  0
 29 28  1  0  0  0  0
 30 29  1  0  0  0  0
 31 29  1  0  0  0  0
 32 31  1  0  0  0  0
 33 31  1  0  0  0  0
 33 34  1  0  0  0  0
 34 35  1  0  0  0  0
M  END
>  <minimizedAffinity>
-4.82539129

>  <minimizedRMSD>
0.0598420128

$$$$
