
 OpenBabel03272504403D

 44 46  0  0  1  0  0  0  0  0999 V2000
   34.7800   29.4030   48.8140 C   0  0  0  0  0  0  0  0  0  0  0  0
   35.6790   29.4830   49.4930 H   0  0  0  0  0  0  0  0  0  0  0  0
   34.1200   30.2300   49.2110 H   0  0  0  0  0  0  0  0  0  0  0  0
   37.5360   30.4680   48.5190 Cl  0  0  0  0  0  0  0  0  0  0  0  0
   36.4000   30.2970   47.1930 C   0  0  0  0  0  0  0  0  0  0  0  0
   36.7820   30.6740   45.9410 C   0  0  0  0  0  0  0  0  0  0  0  0
   35.9060   30.5490   44.8820 C   0  0  0  0  0  0  0  0  0  0  0  0
   34.6390   30.0350   45.1210 C   0  0  0  0  0  0  0  0  0  0  0  0
   34.3180   29.6680   46.4430 C   0  0  0  0  0  0  0  0  0  0  0  0
   35.1590   29.7840   47.4830 C   0  0  0  0  0  0  0  0  0  0  0  0
   36.2360   30.8580   43.8860 H   0  0  0  0  0  0  0  0  0  0  0  0
   34.0240   29.9690   44.2570 H   0  0  0  0  0  0  0  0  0  0  0  0
   33.3620   29.3130   46.4490 H   0  0  0  0  0  0  0  0  0  0  0  0
   39.7730   32.8350   45.9980 C   0  0  0  0  0  0  0  0  0  0  0  0
   40.6390   32.1130   45.1230 C   0  0  0  0  0  0  0  0  0  0  0  0
   40.1590   30.9130   44.5500 C   0  0  0  0  0  0  0  0  0  0  0  0
   38.9020   30.4980   44.8530 N   0  0  0  0  0  0  0  0  0  0  0  0
   38.1070   31.2130   45.6900 C   0  0  0  0  0  0  0  0  0  0  0  0
   38.5450   32.3560   46.2450 N   0  0  0  0  0  0  0  0  0  0  0  0
   40.1550   33.7460   46.4250 H   0  0  0  0  0  0  0  0  0  0  0  0
   41.6210   32.4870   44.9200 H   0  0  0  0  0  0  0  0  0  0  0  0
   41.0350   30.2240   43.6930 N   0  0  0  0  0  0  0  0  0  0  0  0
   40.7180   30.1220   42.6990 H   0  0  0  0  0  0  0  0  0  0  0  0
   41.9520   29.8160   43.9530 H   0  0  0  0  0  0  0  0  0  0  0  0
   34.1300   28.1200   49.0530 C   0  0  0  0  0  0  0  0  0  0  0  0
   34.5620   27.5720   49.9150 H   0  0  0  0  0  0  0  0  0  0  0  0
   34.2560   27.3950   48.1940 H   0  0  0  0  0  0  0  0  0  0  0  0
   32.7930   28.2750   49.3360 O   0  0  0  0  0  0  0  0  0  0  0  0
   32.6960   26.5130   47.3940 O   0  0  0  0  0  0  0  0  0  0  0  0
   31.8560   27.4080   48.2560 P   0  0  2  0  0  0  0  0  0  0  0  0
   31.0560   28.5750   47.2610 O   0  0  0  0  0  0  0  0  0  0  0  0
   31.7690   28.8390   44.7670 H   0  0  0  0  0  0  0  0  0  0  0  0
   31.3510   27.9390   45.0240 N   0  0  0  0  0  0  0  0  0  0  0  0
   30.4760   27.9740   46.1480 C   0  0  2  0  0  0  0  0  0  0  0  0
   29.1860   28.6110   45.6930 C   0  0  0  0  0  0  0  0  0  0  0  0
   28.3890   28.5380   46.4750 H   0  0  0  0  0  0  0  0  0  0  0  0
   28.6850   27.8450   44.6410 O   0  0  0  0  0  0  0  0  0  0  0  0
   29.4770   27.8140   43.5220 C   0  0  0  0  0  0  0  0  0  0  0  0
   30.8090   27.1940   43.9270 C   0  0  0  0  0  0  0  0  0  0  0  0
   30.6560   26.5400   48.9880 O   0  0  0  0  0  0  0  0  0  0  0  0
   29.8460   27.3470   49.7520 C   0  0  0  0  0  0  0  0  0  0  0  0
   29.3160   26.6580   50.8500 F   0  0  0  0  0  0  0  0  0  0  0  0
   30.5490   28.4200   50.2830 F   0  0  0  0  0  0  0  0  0  0  0  0
   28.7990   27.8480   49.0250 F   0  0  0  0  0  0  0  0  0  0  0  0
  1 25  1  0  0  0  0
  1  3  1  0  0  0  0
  1  2  1  0  0  0  0
  5 10  1  0  0  0  0
  5  4  1  0  0  0  0
  6  5  2  0  0  0  0
  7  8  2  0  0  0  0
  7  6  1  0  0  0  0
  8  9  1  0  0  0  0
  9 13  1  0  0  0  0
  9 10  2  0  0  0  0
 10  1  1  0  0  0  0
 11  7  1  0  0  0  0
 12  8  1  0  0  0  0
 14 19  1  0  0  0  0
 14 20  1  0  0  0  0
 15 14  2  0  0  0  0
 16 17  2  0  0  0  0
 16 15  1  0  0  0  0
 17 18  1  0  0  0  0
 18  6  1  0  0  0  0
 18 19  2  0  0  0  0
 21 15  1  0  0  0  0
 22 24  1  0  0  0  0
 22 16  1  0  0  0  0
 23 22  1  0  0  0  0
 25 28  1  0  0  0  0
 25 26  1  0  0  0  0
 27 25  1  0  0  0  0
 30 29  2  6  0  0  0
 30 40  1  0  0  0  0
 30 28  1  0  0  0  0
 31 30  1  0  0  0  0
 32 33  1  0  0  0  0
 33 34  1  0  0  0  0
 34 31  1  1  0  0  0
 35 34  1  0  0  0  0
 35 36  1  0  0  0  0
 37 35  1  0  0  0  0
 38 39  1  0  0  0  0
 38 37  1  0  0  0  0
 39 33  1  0  0  0  0
 40 41  1  0  0  0  0
 41 43  1  0  0  0  0
 41 42  1  0  0  0  0
 44 41  1  0  0  0  0
M  END
>  <minimizedAffinity>
-5.68859053

>  <minimizedRMSD>
0.422715068

$$$$
