
 OpenBabel03272507323D

 35 38  0  0  1  0  0  0  0  0999 V2000
   35.8530   29.1470   49.8120 C   0  0  0  0  0  0  0  0  0  0  0  0
   34.8160   29.6400   50.5710 C   0  0  0  0  0  0  0  0  0  0  0  0
   33.6300   29.0770   50.0760 C   0  0  0  0  0  0  0  0  0  0  0  0
   34.0330   28.2700   49.0360 C   0  0  0  0  0  0  0  0  0  0  0  0
   35.3370   28.3400   48.9150 O   0  0  0  0  0  0  0  0  0  0  0  0
   34.8040   30.3320   51.4120 H   0  0  0  0  0  0  0  0  0  0  0  0
   32.6240   29.2660   50.4630 H   0  0  0  0  0  0  0  0  0  0  0  0
   37.2340   29.5240   50.0530 C   0  0  0  0  0  0  0  0  0  0  0  0
   37.8730   28.9470   50.9480 O   0  0  0  0  0  0  0  0  0  0  0  0
   37.7830   30.5610   49.2250 C   0  0  0  0  0  0  0  0  0  0  0  0
   38.1190   31.7520   49.8490 C   0  0  0  0  0  0  0  0  0  0  0  0
   38.6540   32.7860   49.0730 C   0  0  0  0  0  0  0  0  0  0  0  0
   38.8170   32.5600   47.7270 N   0  0  0  0  0  0  0  0  0  0  0  0
   38.4810   31.3990   47.1600 C   0  0  0  0  0  0  0  0  0  0  0  0
   37.9680   30.4030   47.8960 N   0  0  0  0  0  0  0  0  0  0  0  0
   38.0160   31.9880   50.8950 H   0  0  0  0  0  0  0  0  0  0  0  0
   38.9310   33.7360   49.5240 H   0  0  0  0  0  0  0  0  0  0  0  0
   38.6400   31.2940   46.0840 H   0  0  0  0  0  0  0  0  0  0  0  0
   33.1430   27.4580   48.1960 C   0  0  0  0  0  0  0  0  0  0  0  0
   31.9060   27.4030   48.5020 O   0  0  0  0  0  0  0  0  0  0  0  0
   33.6980   26.7130   47.0160 C   0  0  1  0  0  0  0  0  0  0  0  0
   33.7680   25.1800   47.3170 C   0  0  0  0  0  0  0  0  0  0  0  0
   32.8540   25.7560   46.2990 C   0  0  2  0  0  0  0  0  0  0  0  0
   34.7360   27.0160   46.7790 H   0  0  0  0  0  0  0  0  0  0  0  0
   33.3560   24.8320   48.2800 H   0  0  0  0  0  0  0  0  0  0  0  0
   34.6490   24.6190   47.0070 H   0  0  0  0  0  0  0  0  0  0  0  0
   31.7860   25.7860   46.6110 H   0  0  0  0  0  0  0  0  0  0  0  0
   32.9990   25.5320   44.9040 N   0  0  1  0  0  0  0  0  0  0  0  0
   34.2790   25.7710   44.3300 C   0  0  0  0  0  3  0  0  0  0  0  0
   34.8410   24.7930   44.2680 H   0  0  0  0  0  0  0  0  0  0  0  0
   34.0360   26.1680   42.8850 C   0  0  0  0  0  3  0  0  0  0  0  0
   34.9770   26.2580   42.3060 H   0  0  0  0  0  0  0  0  0  0  0  0
   33.0890   25.3360   42.3230 O   0  0  0  0  0  0  0  0  0  0  0  0
   32.9290   24.1380   42.9860 C   0  0  0  0  0  2  0  0  0  0  0  0
   32.4570   24.3070   44.4170 C   0  0  0  0  0  2  0  0  0  0  0  0
  1  8  1  0  0  0  0
  1  2  2  0  0  0  0
  2  6  1  0  0  0  0
  3  7  1  0  0  0  0
  3  2  1  0  0  0  0
  4  3  2  0  0  0  0
  5  4  1  0  0  0  0
  5  1  1  0  0  0  0
  8  9  2  0  0  0  0
 10 11  1  0  0  0  0
 10  8  1  0  0  0  0
 11 16  1  0  0  0  0
 12 17  1  0  0  0  0
 12 11  2  0  0  0  0
 13 12  1  0  0  0  0
 14 13  2  0  0  0  0
 14 15  1  0  0  0  0
 15 10  2  0  0  0  0
 18 14  1  0  0  0  0
 19 20  2  0  0  0  0
 19  4  1  0  0  0  0
 21 24  1  6  0  0  0
 21 22  1  0  0  0  0
 21 19  1  0  0  0  0
 22 25  1  0  0  0  0
 23 27  1  1  0  0  0
 23 21  1  0  0  0  0
 23 22  1  0  0  0  0
 26 22  1  0  0  0  0
 28 35  1  1  0  0  0
 28 23  1  0  0  0  0
 29 28  1  0  0  0  0
 30 29  1  0  0  0  0
 31 29  1  0  0  0  0
 32 31  1  0  0  0  0
 33 31  1  0  0  0  0
 33 34  1  0  0  0  0
 34 35  1  0  0  0  0
M  END
>  <minimizedAffinity>
-4.85400057

>  <minimizedRMSD>
0.210188344

$$$$
