
 OpenBabel03272507323D

 35 38  0  0  1  0  0  0  0  0999 V2000
   35.8410   29.1390   49.8080 C   0  0  0  0  0  0  0  0  0  0  0  0
   34.8120   29.6390   50.5740 C   0  0  0  0  0  0  0  0  0  0  0  0
   33.6190   29.0870   50.0840 C   0  0  0  0  0  0  0  0  0  0  0  0
   34.0100   28.2790   49.0390 C   0  0  0  0  0  0  0  0  0  0  0  0
   35.3130   28.3380   48.9120 O   0  0  0  0  0  0  0  0  0  0  0  0
   34.8100   30.3290   51.4160 H   0  0  0  0  0  0  0  0  0  0  0  0
   32.6170   29.2840   50.4760 H   0  0  0  0  0  0  0  0  0  0  0  0
   37.2270   29.5040   50.0430 C   0  0  0  0  0  0  0  0  0  0  0  0
   37.8680   28.9120   50.9260 O   0  0  0  0  0  0  0  0  0  0  0  0
   37.7760   30.5460   49.2230 C   0  0  0  0  0  0  0  0  0  0  0  0
   38.1120   31.7330   49.8550 C   0  0  0  0  0  0  0  0  0  0  0  0
   38.6480   32.7720   49.0870 C   0  0  0  0  0  0  0  0  0  0  0  0
   38.8120   32.5550   47.7390 N   0  0  0  0  0  0  0  0  0  0  0  0
   38.4760   31.3990   47.1640 C   0  0  0  0  0  0  0  0  0  0  0  0
   37.9620   30.3970   47.8930 N   0  0  0  0  0  0  0  0  0  0  0  0
   38.0090   31.9620   50.9030 H   0  0  0  0  0  0  0  0  0  0  0  0
   38.9250   33.7190   49.5440 H   0  0  0  0  0  0  0  0  0  0  0  0
   38.6350   31.3010   46.0870 H   0  0  0  0  0  0  0  0  0  0  0  0
   33.1090   27.4760   48.2030 C   0  0  0  0  0  0  0  0  0  0  0  0
   31.8740   27.4260   48.5190 O   0  0  0  0  0  0  0  0  0  0  0  0
   33.6500   26.7350   47.0140 C   0  0  1  0  0  0  0  0  0  0  0  0
   33.7740   25.2080   47.3280 C   0  0  0  0  0  0  0  0  0  0  0  0
   32.8140   25.7460   46.3320 C   0  0  2  0  0  0  0  0  0  0  0  0
   34.6710   27.0660   46.7420 H   0  0  0  0  0  0  0  0  0  0  0  0
   33.4020   24.8590   48.3060 H   0  0  0  0  0  0  0  0  0  0  0  0
   34.6620   24.6700   46.9970 H   0  0  0  0  0  0  0  0  0  0  0  0
   31.7550   25.7480   46.6760 H   0  0  0  0  0  0  0  0  0  0  0  0
   32.9230   25.5120   44.9360 N   0  0  1  0  0  0  0  0  0  0  0  0
   34.0580   26.0470   44.2660 C   0  0  0  0  0  3  0  0  0  0  0  0
   34.8490   25.2440   44.1870 H   0  0  0  0  0  0  0  0  0  0  0  0
   33.6300   26.3100   42.8340 C   0  0  0  0  0  3  0  0  0  0  0  0
   34.4770   26.6150   42.1880 H   0  0  0  0  0  0  0  0  0  0  0  0
   32.8960   25.2410   42.3600 O   0  0  0  0  0  0  0  0  0  0  0  0
   33.0930   24.0700   43.0590 C   0  0  0  0  0  2  0  0  0  0  0  0
   32.6860   24.1700   44.5160 C   0  0  0  0  0  2  0  0  0  0  0  0
  1  8  1  0  0  0  0
  1  2  2  0  0  0  0
  2  6  1  0  0  0  0
  3  7  1  0  0  0  0
  3  2  1  0  0  0  0
  4  3  2  0  0  0  0
  5  4  1  0  0  0  0
  5  1  1  0  0  0  0
  8  9  2  0  0  0  0
 10 11  1  0  0  0  0
 10  8  1  0  0  0  0
 11 16  1  0  0  0  0
 12 17  1  0  0  0  0
 12 11  2  0  0  0  0
 13 12  1  0  0  0  0
 14 13  2  0  0  0  0
 14 15  1  0  0  0  0
 15 10  2  0  0  0  0
 18 14  1  0  0  0  0
 19 20  2  0  0  0  0
 19  4  1  0  0  0  0
 21 24  1  6  0  0  0
 21 22  1  0  0  0  0
 21 19  1  0  0  0  0
 22 25  1  0  0  0  0
 23 27  1  1  0  0  0
 23 21  1  0  0  0  0
 23 22  1  0  0  0  0
 26 22  1  0  0  0  0
 28 35  1  1  0  0  0
 28 23  1  0  0  0  0
 29 28  1  0  0  0  0
 30 29  1  0  0  0  0
 31 29  1  0  0  0  0
 32 31  1  0  0  0  0
 33 31  1  0  0  0  0
 33 34  1  0  0  0  0
 34 35  1  0  0  0  0
M  END
>  <minimizedAffinity>
-4.84045506

>  <minimizedRMSD>
0.189780742

$$$$
