
 OpenBabel03272507323D

 35 38  0  0  1  0  0  0  0  0999 V2000
   35.8410   29.1450   49.8110 C   0  0  0  0  0  0  0  0  0  0  0  0
   34.8190   29.6470   50.5840 C   0  0  0  0  0  0  0  0  0  0  0  0
   33.6200   29.1020   50.1000 C   0  0  0  0  0  0  0  0  0  0  0  0
   34.0000   28.2960   49.0510 C   0  0  0  0  0  0  0  0  0  0  0  0
   35.3040   28.3500   48.9150 O   0  0  0  0  0  0  0  0  0  0  0  0
   34.8250   30.3350   51.4290 H   0  0  0  0  0  0  0  0  0  0  0  0
   32.6210   29.3030   50.5000 H   0  0  0  0  0  0  0  0  0  0  0  0
   37.2290   29.5030   50.0380 C   0  0  0  0  0  0  0  0  0  0  0  0
   37.8740   28.9060   50.9150 O   0  0  0  0  0  0  0  0  0  0  0  0
   37.7780   30.5450   49.2170 C   0  0  0  0  0  0  0  0  0  0  0  0
   38.1170   31.7310   49.8500 C   0  0  0  0  0  0  0  0  0  0  0  0
   38.6530   32.7700   49.0810 C   0  0  0  0  0  0  0  0  0  0  0  0
   38.8130   32.5540   47.7320 N   0  0  0  0  0  0  0  0  0  0  0  0
   38.4750   31.3980   47.1570 C   0  0  0  0  0  0  0  0  0  0  0  0
   37.9610   30.3970   47.8870 N   0  0  0  0  0  0  0  0  0  0  0  0
   38.0160   31.9600   50.8980 H   0  0  0  0  0  0  0  0  0  0  0  0
   38.9320   33.7160   49.5380 H   0  0  0  0  0  0  0  0  0  0  0  0
   38.6310   31.3010   46.0800 H   0  0  0  0  0  0  0  0  0  0  0  0
   33.0910   27.4990   48.2180 C   0  0  0  0  0  0  0  0  0  0  0  0
   31.8600   27.4410   48.5500 O   0  0  0  0  0  0  0  0  0  0  0  0
   33.6180   26.7740   47.0130 C   0  0  1  0  0  0  0  0  0  0  0  0
   33.7790   25.2490   47.3170 C   0  0  0  0  0  0  0  0  0  0  0  0
   32.7850   25.7720   46.3460 C   0  0  2  0  0  0  0  0  0  0  0  0
   34.6250   27.1260   46.7190 H   0  0  0  0  0  0  0  0  0  0  0  0
   33.4370   24.8880   48.3020 H   0  0  0  0  0  0  0  0  0  0  0  0
   34.6690   24.7290   46.9620 H   0  0  0  0  0  0  0  0  0  0  0  0
   31.7350   25.7520   46.7160 H   0  0  0  0  0  0  0  0  0  0  0  0
   32.8650   25.5450   44.9470 N   0  0  1  0  0  0  0  0  0  0  0  0
   34.0430   25.9830   44.2770 C   0  0  0  0  0  3  0  0  0  0  0  0
   34.7560   25.1120   44.1830 H   0  0  0  0  0  0  0  0  0  0  0  0
   33.6340   26.3020   42.8520 C   0  0  0  0  0  3  0  0  0  0  0  0
   34.5020   26.5360   42.2030 H   0  0  0  0  0  0  0  0  0  0  0  0
   32.8030   25.3090   42.3690 O   0  0  0  0  0  0  0  0  0  0  0  0
   32.8950   24.1170   43.0520 C   0  0  0  0  0  2  0  0  0  0  0  0
   32.5050   24.2350   44.5120 C   0  0  0  0  0  2  0  0  0  0  0  0
  1  8  1  0  0  0  0
  1  2  2  0  0  0  0
  2  6  1  0  0  0  0
  3  7  1  0  0  0  0
  3  2  1  0  0  0  0
  4  3  2  0  0  0  0
  5  4  1  0  0  0  0
  5  1  1  0  0  0  0
  8  9  2  0  0  0  0
 10 11  1  0  0  0  0
 10  8  1  0  0  0  0
 11 16  1  0  0  0  0
 12 17  1  0  0  0  0
 12 11  2  0  0  0  0
 13 12  1  0  0  0  0
 14 13  2  0  0  0  0
 14 15  1  0  0  0  0
 15 10  2  0  0  0  0
 18 14  1  0  0  0  0
 19 20  2  0  0  0  0
 19  4  1  0  0  0  0
 21 24  1  6  0  0  0
 21 22  1  0  0  0  0
 21 19  1  0  0  0  0
 22 25  1  0  0  0  0
 23 27  1  1  0  0  0
 23 21  1  0  0  0  0
 23 22  1  0  0  0  0
 26 22  1  0  0  0  0
 28 35  1  1  0  0  0
 28 23  1  0  0  0  0
 29 28  1  0  0  0  0
 30 29  1  0  0  0  0
 31 29  1  0  0  0  0
 32 31  1  0  0  0  0
 33 31  1  0  0  0  0
 33 34  1  0  0  0  0
 34 35  1  0  0  0  0
M  END
>  <minimizedAffinity>
-4.84132624

>  <minimizedRMSD>
0.0971810147

$$$$
