
 OpenBabel03272505253D

 30 32  0  0  0  0  0  0  0  0999 V2000
   37.4400   31.1150   46.9880 N   0  0  0  0  0  0  0  0  0  0  0  0
   36.8670   30.7710   45.8030 C   0  0  0  0  0  0  0  0  0  0  0  0
   37.3380   31.2410   44.5920 C   0  0  0  0  0  0  0  0  0  0  0  0
   38.4490   32.1030   44.6220 C   0  0  0  0  0  0  0  0  0  0  0  0
   38.9080   32.5510   43.5490 O   0  0  0  0  0  0  0  0  0  0  0  0
   39.0230   32.4460   45.8170 N   0  0  0  0  0  0  0  0  0  0  0  0
   38.4740   31.9260   46.9190 C   0  0  0  0  0  0  0  0  0  0  0  0
   39.0280   32.2690   47.9820 O   0  0  0  0  0  0  0  0  0  0  0  0
   36.0130   30.1070   45.7940 H   0  0  0  0  0  0  0  0  0  0  0  0
   37.2480   29.6070   50.3780 C   0  0  0  0  0  0  0  0  0  0  0  0
   37.7630   30.0620   49.1570 C   0  0  0  0  0  0  0  0  0  0  0  0
   36.9540   30.6370   48.2140 C   0  0  0  0  0  0  0  0  0  0  0  0
   35.6250   30.7540   48.4970 N   0  0  0  0  0  0  0  0  0  0  0  0
   35.1000   30.3160   49.6830 C   0  0  0  0  0  0  0  0  0  0  0  0
   35.9280   29.7450   50.6110 N   0  0  0  0  0  0  0  0  0  0  0  0
   37.8160   29.1520   51.1540 H   0  0  0  0  0  0  0  0  0  0  0  0
   38.8020   29.8830   49.0980 H   0  0  0  0  0  0  0  0  0  0  0  0
   34.0440   30.4140   49.8940 H   0  0  0  0  0  0  0  0  0  0  0  0
   36.7410   30.8850   43.3490 N   0  0  0  0  0  0  0  0  0  0  0  0
   35.5590   31.6240   42.9450 C   0  0  0  0  0  0  0  0  0  0  0  0
   35.7730   32.6790   42.7230 H   0  0  0  0  0  0  0  0  0  0  0  0
   34.8750   30.9080   41.8170 C   0  0  0  0  0  0  0  0  0  0  0  0
   34.4720   29.9590   42.2010 H   0  0  0  0  0  0  0  0  0  0  0  0
   35.6880   30.7270   40.7110 O   0  0  0  0  0  0  0  0  0  0  0  0
   37.0000   30.4460   41.0220 C   0  0  0  0  0  0  0  0  0  0  0  0
   37.1650   29.8520   42.4040 C   0  0  0  0  0  0  0  0  0  0  0  0
   40.1690   33.3280   45.8460 C   0  0  0  0  0  0  0  0  0  0  0  0
   40.0390   34.2920   44.8980 F   0  0  0  0  0  0  0  0  0  0  0  0
   41.3630   32.6790   45.5770 F   0  0  0  0  0  0  0  0  0  0  0  0
   40.2310   33.9430   47.0910 F   0  0  0  0  0  0  0  0  0  0  0  0
  1 12  1  0  0  0  0
  2  1  1  0  0  0  0
  3  4  1  0  0  0  0
  3  2  2  0  0  0  0
  4  6  1  0  0  0  0
  5  4  2  0  0  0  0
  6 27  1  0  0  0  0
  6  7  1  0  0  0  0
  7  1  1  0  0  0  0
  7  8  2  0  0  0  0
  9  2  1  0  0  0  0
 10 15  1  0  0  0  0
 10 16  1  0  0  0  0
 11 10  2  0  0  0  0
 12 13  2  0  0  0  0
 12 11  1  0  0  0  0
 13 14  1  0  0  0  0
 14 18  1  0  0  0  0
 14 15  2  0  0  0  0
 17 11  1  0  0  0  0
 19  3  1  0  0  0  0
 20 19  1  0  0  0  0
 21 20  1  0  0  0  0
 22 23  1  0  0  0  0
 22 20  1  0  0  0  0
 24 25  1  0  0  0  0
 24 22  1  0  0  0  0
 25 26  1  0  0  0  0
 26 19  1  0  0  0  0
 27 30  1  0  0  0  0
 28 27  1  0  0  0  0
 29 27  1  0  0  0  0
M  END
>  <minimizedAffinity>
-6.0522027

>  <minimizedRMSD>
0.285058558

$$$$
