
 OpenBabel03272508463D

 39 43  0  0  0  0  0  0  0  0999 V2000
   35.5580   29.6150   49.6200 C   0  0  0  0  0  0  0  0  0  0  0  0
   36.5700   29.3250   50.5210 C   0  0  0  0  0  0  0  0  0  0  0  0
   37.6970   29.8960   49.9380 C   0  0  0  0  0  0  0  0  0  0  0  0
   37.3430   30.4820   48.7590 C   0  0  0  0  0  0  0  0  0  0  0  0
   36.0510   30.2900   48.6040 O   0  0  0  0  0  0  0  0  0  0  0  0
   36.4990   28.7820   51.4610 H   0  0  0  0  0  0  0  0  0  0  0  0
   38.6780   29.8650   50.3660 H   0  0  0  0  0  0  0  0  0  0  0  0
   38.7250   32.4240   48.1850 C   0  0  0  0  0  0  0  0  0  0  0  0
   38.2100   31.1930   47.8220 C   0  0  0  0  0  0  0  0  0  0  0  0
   38.4970   30.6260   46.5950 C   0  0  0  0  0  0  0  0  0  0  0  0
   39.3190   31.2920   45.6930 C   0  0  0  0  0  0  0  0  0  0  0  0
   39.7710   31.0010   44.4470 N   0  0  0  0  0  0  0  0  0  0  0  0
   40.5270   32.0170   44.0790 N   0  0  0  0  0  0  0  0  0  0  0  0
   40.5730   32.9500   45.0530 C   0  0  0  0  0  0  0  0  0  0  0  0
   39.7980   32.5060   46.1110 C   0  0  0  0  0  0  0  0  0  0  0  0
   39.5600   33.1300   47.3030 C   0  0  0  0  0  0  0  0  0  0  0  0
   38.4780   32.8400   49.1620 H   0  0  0  0  0  0  0  0  0  0  0  0
   38.0830   29.6620   46.3310 H   0  0  0  0  0  0  0  0  0  0  0  0
   39.5010   30.1070   43.9740 H   0  0  0  0  0  0  0  0  0  0  0  0
   41.1290   33.8770   44.9870 H   0  0  0  0  0  0  0  0  0  0  0  0
   39.9600   34.0750   47.5750 H   0  0  0  0  0  0  0  0  0  0  0  0
   34.1700   29.2210   49.7880 C   0  0  0  0  0  0  0  0  0  0  0  0
   33.5760   29.5450   50.8410 O   0  0  0  0  0  0  0  0  0  0  0  0
   31.6730   27.1590   48.0960 C   0  0  0  0  0  0  0  0  0  0  0  0
   32.1950   27.0190   46.8060 C   0  0  0  0  0  0  0  0  0  0  0  0
   33.3890   27.6260   46.5220 C   0  0  0  0  0  0  0  0  0  0  0  0
   34.0240   28.3300   47.4710 N   0  0  0  0  0  0  0  0  0  0  0  0
   33.5040   28.4620   48.7330 C   0  0  0  0  0  0  0  0  0  0  0  0
   32.3220   27.8680   49.0340 N   0  0  0  0  0  0  0  0  0  0  0  0
   30.7400   26.7230   48.4270 H   0  0  0  0  0  0  0  0  0  0  0  0
   31.6470   26.4500   46.0970 H   0  0  0  0  0  0  0  0  0  0  0  0
   33.9760   27.5240   45.2320 N   0  0  0  0  0  0  0  0  0  0  0  0
   33.9610   26.3110   44.4490 C   0  0  0  0  0  3  0  0  0  0  0  0
   33.9040   25.3860   45.0160 H   0  0  0  0  0  0  0  0  0  0  0  0
   35.2280   26.3060   43.5900 C   0  0  0  0  0  3  0  0  0  0  0  0
   35.3330   25.3330   43.0560 H   0  0  0  0  0  0  0  0  0  0  0  0
   35.2760   27.3830   42.7270 O   0  0  0  0  0  0  0  0  0  0  0  0
   34.5540   28.4820   43.1180 C   0  0  0  0  0  2  0  0  0  0  0  0
   34.6350   28.6600   44.6170 C   0  0  0  0  0  2  0  0  0  0  0  0
  1 22  1  0  0  0  0
  1  2  2  0  0  0  0
  2  6  1  0  0  0  0
  3  7  1  0  0  0  0
  3  2  1  0  0  0  0
  4  3  2  0  0  0  0
  5  4  1  0  0  0  0
  5  1  1  0  0  0  0
  8 17  1  0  0  0  0
  9  8  1  0  0  0  0
  9  4  1  0  0  0  0
 10  9  2  0  0  0  0
 11 15  2  0  0  0  0
 11 10  1  0  0  0  0
 12 11  1  0  0  0  0
 13 12  1  0  0  0  0
 13 14  2  0  0  0  0
 14 15  1  0  0  0  0
 15 16  1  0  0  0  0
 16 21  1  0  0  0  0
 16  8  2  0  0  0  0
 18 10  1  0  0  0  0
 19 12  1  0  0  0  0
 20 14  1  0  0  0  0
 22 23  2  0  0  0  0
 24 30  1  0  0  0  0
 24 29  1  0  0  0  0
 25 24  2  0  0  0  0
 26 25  1  0  0  0  0
 26 27  2  0  0  0  0
 27 28  1  0  0  0  0
 28 29  2  0  0  0  0
 28 22  1  0  0  0  0
 31 25  1  0  0  0  0
 32 26  1  0  0  0  0
 33 34  1  0  0  0  0
 33 32  1  0  0  0  0
 35 33  1  0  0  0  0
 36 35  1  0  0  0  0
 37 38  1  0  0  0  0
 37 35  1  0  0  0  0
 38 39  1  0  0  0  0
 39 32  1  0  0  0  0
M  END
>  <minimizedAffinity>
-6.40785027

>  <minimizedRMSD>
1.62942743

$$$$
