
 OpenBabel03272508473D

 39 43  0  0  0  0  0  0  0  0999 V2000
   35.4760   29.4900   49.5860 C   0  0  0  0  0  0  0  0  0  0  0  0
   36.5110   29.0420   50.3900 C   0  0  0  0  0  0  0  0  0  0  0  0
   37.6490   29.5410   49.7620 C   0  0  0  0  0  0  0  0  0  0  0  0
   37.2770   30.2390   48.6520 C   0  0  0  0  0  0  0  0  0  0  0  0
   35.9640   30.1840   48.5810 O   0  0  0  0  0  0  0  0  0  0  0  0
   36.4500   28.4440   51.2970 H   0  0  0  0  0  0  0  0  0  0  0  0
   38.6480   29.3860   50.1140 H   0  0  0  0  0  0  0  0  0  0  0  0
   38.5480   32.2230   47.9710 C   0  0  0  0  0  0  0  0  0  0  0  0
   38.1460   30.9280   47.7000 C   0  0  0  0  0  0  0  0  0  0  0  0
   38.5480   30.2750   46.5500 C   0  0  0  0  0  0  0  0  0  0  0  0
   39.3740   30.9190   45.6350 C   0  0  0  0  0  0  0  0  0  0  0  0
   39.9210   30.5510   44.4490 N   0  0  0  0  0  0  0  0  0  0  0  0
   40.6230   31.5850   44.0270 N   0  0  0  0  0  0  0  0  0  0  0  0
   40.5410   32.6040   44.9090 C   0  0  0  0  0  0  0  0  0  0  0  0
   39.7370   32.1990   45.9610 C   0  0  0  0  0  0  0  0  0  0  0  0
   39.3820   32.9080   47.0730 C   0  0  0  0  0  0  0  0  0  0  0  0
   38.2110   32.7050   48.8890 H   0  0  0  0  0  0  0  0  0  0  0  0
   38.2220   29.2620   46.3570 H   0  0  0  0  0  0  0  0  0  0  0  0
   39.7460   29.6000   44.0490 H   0  0  0  0  0  0  0  0  0  0  0  0
   41.0320   33.5620   44.7850 H   0  0  0  0  0  0  0  0  0  0  0  0
   39.6950   33.9030   47.2750 H   0  0  0  0  0  0  0  0  0  0  0  0
   34.0690   29.2210   49.8320 C   0  0  0  0  0  0  0  0  0  0  0  0
   33.4940   29.8290   50.7610 O   0  0  0  0  0  0  0  0  0  0  0  0
   31.3540   27.1790   48.4880 C   0  0  0  0  0  0  0  0  0  0  0  0
   31.9740   26.4550   47.4640 C   0  0  0  0  0  0  0  0  0  0  0  0
   33.3090   26.6670   47.2390 C   0  0  0  0  0  0  0  0  0  0  0  0
   33.9820   27.5490   47.9930 N   0  0  0  0  0  0  0  0  0  0  0  0
   33.3650   28.2540   48.9940 C   0  0  0  0  0  0  0  0  0  0  0  0
   32.0430   28.0580   49.2320 N   0  0  0  0  0  0  0  0  0  0  0  0
   30.3080   27.0900   48.7510 H   0  0  0  0  0  0  0  0  0  0  0  0
   31.3890   25.7710   46.9020 H   0  0  0  0  0  0  0  0  0  0  0  0
   34.0010   25.9650   46.2160 N   0  0  0  0  0  0  0  0  0  0  0  0
   34.3120   24.5570   46.2920 C   0  0  0  0  0  3  0  0  0  0  0  0
   34.4140   24.1520   47.2960 H   0  0  0  0  0  0  0  0  0  0  0  0
   35.6110   24.3330   45.5160 C   0  0  0  0  0  3  0  0  0  0  0  0
   35.9670   23.2840   45.6440 H   0  0  0  0  0  0  0  0  0  0  0  0
   35.4910   24.6830   44.1860 O   0  0  0  0  0  0  0  0  0  0  0  0
   34.5180   25.6110   43.9080 C   0  0  0  0  0  2  0  0  0  0  0  0
   34.4420   26.6430   45.0110 C   0  0  0  0  0  2  0  0  0  0  0  0
  1 22  1  0  0  0  0
  1  2  2  0  0  0  0
  2  6  1  0  0  0  0
  3  7  1  0  0  0  0
  3  2  1  0  0  0  0
  4  3  2  0  0  0  0
  5  4  1  0  0  0  0
  5  1  1  0  0  0  0
  8 17  1  0  0  0  0
  9  8  1  0  0  0  0
  9  4  1  0  0  0  0
 10  9  2  0  0  0  0
 11 15  2  0  0  0  0
 11 10  1  0  0  0  0
 12 11  1  0  0  0  0
 13 12  1  0  0  0  0
 13 14  2  0  0  0  0
 14 15  1  0  0  0  0
 15 16  1  0  0  0  0
 16 21  1  0  0  0  0
 16  8  2  0  0  0  0
 18 10  1  0  0  0  0
 19 12  1  0  0  0  0
 20 14  1  0  0  0  0
 22 23  2  0  0  0  0
 24 30  1  0  0  0  0
 24 29  1  0  0  0  0
 25 24  2  0  0  0  0
 26 25  1  0  0  0  0
 26 27  2  0  0  0  0
 27 28  1  0  0  0  0
 28 29  2  0  0  0  0
 28 22  1  0  0  0  0
 31 25  1  0  0  0  0
 32 33  1  0  0  0  0
 32 26  1  0  0  0  0
 33 34  1  0  0  0  0
 35 36  1  0  0  0  0
 35 33  1  0  0  0  0
 37 35  1  0  0  0  0
 38 37  1  0  0  0  0
 38 39  1  0  0  0  0
 39 32  1  0  0  0  0
M  END
>  <minimizedAffinity>
-6.14552164

>  <minimizedRMSD>
0.611472547

$$$$
