
 OpenBabel03272506403D

 18 19  0  0  1  0  0  0  0  0999 V2000
   37.2890   30.1870   51.3770 C   0  0  0  0  0  0  0  0  0  0  0  0
   38.1290   30.7290   50.3900 C   0  0  0  0  0  0  0  0  0  0  0  0
   37.7980   30.5050   49.0380 C   0  0  0  0  0  0  0  0  0  0  0  0
   36.6800   29.7750   48.7770 N   0  0  0  0  0  0  0  0  0  0  0  0
   35.8990   29.2710   49.7450 C   0  0  0  0  0  0  0  0  0  0  0  0
   36.1970   29.4730   51.0370 N   0  0  0  0  0  0  0  0  0  0  0  0
   37.5840   30.3840   52.4130 H   0  0  0  0  0  0  0  0  0  0  0  0
   39.0130   31.3060   50.6540 H   0  0  0  0  0  0  0  0  0  0  0  0
   38.4230   30.9070   48.2450 H   0  0  0  0  0  0  0  0  0  0  0  0
   34.4290   28.3090   49.3910 S   0  0  0  0  0  0  0  0  0  0  0  0
   32.5550   29.8260   48.1810 H   0  0  0  0  0  0  0  0  0  0  0  0
   32.7830   29.1430   47.4210 N   0  0  0  0  0  0  0  0  0  0  0  0
   33.9830   28.4030   47.6370 C   0  0  2  0  0  0  0  0  0  0  0  0
   33.8530   26.9480   47.1800 C   0  0  0  0  0  0  0  0  0  0  0  0
   33.2020   26.3720   47.9030 H   0  0  0  0  0  0  0  0  0  0  0  0
   33.1700   26.9180   45.9830 O   0  0  0  0  0  0  0  0  0  0  0  0
   31.8350   27.1820   46.2670 C   0  0  0  0  0  0  0  0  0  0  0  0
   31.6160   28.3850   47.1200 C   0  0  0  0  0  0  0  0  0  0  0  0
  1  7  1  0  0  0  0
  2  8  1  0  0  0  0
  2  1  2  0  0  0  0
  3  2  1  0  0  0  0
  4  3  2  0  0  0  0
  4  5  1  0  0  0  0
  5  6  2  0  0  0  0
  6  1  1  0  0  0  0
  9  3  1  0  0  0  0
 10  5  1  0  0  0  0
 12 13  1  0  0  0  0
 12 11  1  0  0  0  0
 13 10  1  1  0  0  0
 14 13  1  0  0  0  0
 14 15  1  0  0  0  0
 16 17  1  0  0  0  0
 16 14  1  0  0  0  0
 17 18  1  0  0  0  0
 18 12  1  0  0  0  0
M  END
>  <minimizedAffinity>
-3.95745802

>  <minimizedRMSD>
0.394503653

$$$$
