
 OpenBabel03272505283D

 30 32  0  0  0  0  0  0  0  0999 V2000
   38.0760   23.5020   34.2220 N   0  0  0  0  0  0  0  0  0  0  0  0
   38.1570   24.7180   33.6190 C   0  0  0  0  0  0  0  0  0  0  0  0
   37.5350   24.9870   32.4140 C   0  0  0  0  0  0  0  0  0  0  0  0
   36.8030   23.9430   31.8190 C   0  0  0  0  0  0  0  0  0  0  0  0
   36.2250   24.1440   30.7290 O   0  0  0  0  0  0  0  0  0  0  0  0
   36.7240   22.7210   32.4290 N   0  0  0  0  0  0  0  0  0  0  0  0
   37.3700   22.5870   33.5920 C   0  0  0  0  0  0  0  0  0  0  0  0
   37.2740   21.4560   34.1090 O   0  0  0  0  0  0  0  0  0  0  0  0
   38.7220   25.5130   34.0870 H   0  0  0  0  0  0  0  0  0  0  0  0
   38.8130   23.2620   37.8550 C   0  0  0  0  0  0  0  0  0  0  0  0
   38.1570   23.5540   36.6530 C   0  0  0  0  0  0  0  0  0  0  0  0
   38.7130   23.2350   35.4440 C   0  0  0  0  0  0  0  0  0  0  0  0
   39.9310   22.6230   35.4420 N   0  0  0  0  0  0  0  0  0  0  0  0
   40.5910   22.3280   36.6040 C   0  0  0  0  0  0  0  0  0  0  0  0
   40.0150   22.6560   37.8020 N   0  0  0  0  0  0  0  0  0  0  0  0
   38.4410   23.4800   38.8280 H   0  0  0  0  0  0  0  0  0  0  0  0
   37.2350   24.0380   36.8370 H   0  0  0  0  0  0  0  0  0  0  0  0
   41.5570   21.8430   36.5890 H   0  0  0  0  0  0  0  0  0  0  0  0
   37.6170   26.2590   31.7780 N   0  0  0  0  0  0  0  0  0  0  0  0
   38.7220   26.4720   30.8620 C   0  0  0  0  0  3  0  0  0  0  0  0
   38.6540   25.8460   29.9610 H   0  0  0  0  0  0  0  0  0  0  0  0
   38.8530   27.9360   30.5590 C   0  0  0  0  0  3  0  0  0  0  0  0
   39.1700   28.4540   31.4760 H   0  0  0  0  0  0  0  0  0  0  0  0
   37.7070   28.4860   30.0110 O   0  0  0  0  0  0  0  0  0  0  0  0
   36.5390   27.9850   30.5410 C   0  0  0  0  0  2  0  0  0  0  0  0
   36.7200   27.4050   31.9260 C   0  0  0  0  0  2  0  0  0  0  0  0
   35.9670   21.6510   31.8190 C   0  0  0  0  0  0  0  0  0  0  0  0
   35.2330   22.1320   30.7820 F   0  0  0  0  0  0  0  0  0  0  0  0
   35.0670   21.0550   32.6880 F   0  0  0  0  0  0  0  0  0  0  0  0
   36.8520   20.7000   31.3250 F   0  0  0  0  0  0  0  0  0  0  0  0
  1 12  1  0  0  0  0
  2  9  1  0  0  0  0
  2  1  1  0  0  0  0
  3  2  2  0  0  0  0
  4  3  1  0  0  0  0
  4  6  1  0  0  0  0
  5  4  2  0  0  0  0
  6  7  1  0  0  0  0
  7  8  2  0  0  0  0
  7  1  1  0  0  0  0
 10 16  1  0  0  0  0
 11 17  1  0  0  0  0
 11 10  2  0  0  0  0
 12 11  1  0  0  0  0
 13 12  2  0  0  0  0
 13 14  1  0  0  0  0
 14 15  2  0  0  0  0
 15 10  1  0  0  0  0
 18 14  1  0  0  0  0
 19 26  1  0  0  0  0
 19  3  1  0  0  0  0
 20 19  1  0  0  0  0
 21 20  1  0  0  0  0
 22 20  1  0  0  0  0
 22 23  1  0  0  0  0
 24 25  1  0  0  0  0
 24 22  1  0  0  0  0
 25 26  1  0  0  0  0
 27  6  1  0  0  0  0
 27 29  1  0  0  0  0
 28 27  1  0  0  0  0
 30 27  1  0  0  0  0
M  END
>  <minimizedAffinity>
-5.44725847

$$$$

 OpenBabel03272505283D

 30 32  0  0  0  0  0  0  0  0999 V2000
   37.2740   25.4000   32.5080 N   0  0  0  0  0  0  0  0  0  0  0  0
   37.8740   25.1790   33.7080 C   0  0  0  0  0  0  0  0  0  0  0  0
   38.0450   23.9100   34.2260 C   0  0  0  0  0  0  0  0  0  0  0  0
   37.5690   22.8310   33.4580 C   0  0  0  0  0  0  0  0  0  0  0  0
   37.7040   21.6650   33.8900 O   0  0  0  0  0  0  0  0  0  0  0  0
   36.9650   23.0570   32.2510 N   0  0  0  0  0  0  0  0  0  0  0  0
   36.8590   24.3310   31.8610 C   0  0  0  0  0  0  0  0  0  0  0  0
   36.3000   24.4880   30.7580 O   0  0  0  0  0  0  0  0  0  0  0  0
   38.2370   26.0170   34.2880 H   0  0  0  0  0  0  0  0  0  0  0  0
   37.8160   28.5830   30.6710 C   0  0  0  0  0  0  0  0  0  0  0  0
   38.0260   27.2960   31.1830 C   0  0  0  0  0  0  0  0  0  0  0  0
   37.1000   26.6920   31.9900 C   0  0  0  0  0  0  0  0  0  0  0  0
   35.9620   27.3830   32.2860 N   0  0  0  0  0  0  0  0  0  0  0  0
   35.7360   28.6420   31.7990 C   0  0  0  0  0  0  0  0  0  0  0  0
   36.6760   29.2250   30.9920 N   0  0  0  0  0  0  0  0  0  0  0  0
   38.4890   29.1110   30.0400 H   0  0  0  0  0  0  0  0  0  0  0  0
   38.9590   26.9140   30.8660 H   0  0  0  0  0  0  0  0  0  0  0  0
   34.8300   29.1790   32.0420 H   0  0  0  0  0  0  0  0  0  0  0  0
   38.6730   23.6740   35.4830 N   0  0  0  0  0  0  0  0  0  0  0  0
   37.8130   23.5920   36.6480 C   0  0  0  0  0  3  0  0  0  0  0  0
   37.1550   22.7110   36.6300 H   0  0  0  0  0  0  0  0  0  0  0  0
   38.6410   23.6870   37.8960 C   0  0  0  0  0  3  0  0  0  0  0  0
   39.0650   24.7000   37.9550 H   0  0  0  0  0  0  0  0  0  0  0  0
   39.6090   22.7030   37.9870 O   0  0  0  0  0  0  0  0  0  0  0  0
   40.1970   22.3850   36.7830 C   0  0  0  0  0  2  0  0  0  0  0  0
   40.0980   23.5000   35.7640 C   0  0  0  0  0  2  0  0  0  0  0  0
   36.4810   21.9460   31.4610 C   0  0  0  0  0  0  0  0  0  0  0  0
   35.3620   22.3100   30.7820 F   0  0  0  0  0  0  0  0  0  0  0  0
   36.1290   20.8460   32.2270 F   0  0  0  0  0  0  0  0  0  0  0  0
   37.4580   21.5920   30.5390 F   0  0  0  0  0  0  0  0  0  0  0  0
  1  2  1  0  0  0  0
  2  3  2  0  0  0  0
  2  9  1  0  0  0  0
  3 19  1  0  0  0  0
  4  5  2  0  0  0  0
  4  3  1  0  0  0  0
  6  4  1  0  0  0  0
  7  6  1  0  0  0  0
  7  1  1  0  0  0  0
  8  7  2  0  0  0  0
 10 15  2  0  0  0  0
 10 11  1  0  0  0  0
 11 12  2  0  0  0  0
 12 13  1  0  0  0  0
 12  1  1  0  0  0  0
 14 18  1  0  0  0  0
 14 13  2  0  0  0  0
 15 14  1  0  0  0  0
 16 10  1  0  0  0  0
 17 11  1  0  0  0  0
 19 26  1  0  0  0  0
 19 20  1  0  0  0  0
 20 22  1  0  0  0  0
 21 20  1  0  0  0  0
 22 23  1  0  0  0  0
 22 24  1  0  0  0  0
 25 24  1  0  0  0  0
 26 25  1  0  0  0  0
 27 29  1  0  0  0  0
 27  6  1  0  0  0  0
 28 27  1  0  0  0  0
 30 27  1  0  0  0  0
M  END
>  <minimizedAffinity>
-5.43561983

$$$$

 OpenBabel03272505283D

 30 32  0  0  0  0  0  0  0  0999 V2000
   38.0070   23.3310   34.6430 N   0  0  0  0  0  0  0  0  0  0  0  0
   37.5260   22.2650   33.9490 C   0  0  0  0  0  0  0  0  0  0  0  0
   37.0370   22.3820   32.6620 C   0  0  0  0  0  0  0  0  0  0  0  0
   37.0510   23.6640   32.0810 C   0  0  0  0  0  0  0  0  0  0  0  0
   36.6170   23.8150   30.9180 O   0  0  0  0  0  0  0  0  0  0  0  0
   37.5350   24.7340   32.7830 N   0  0  0  0  0  0  0  0  0  0  0  0
   37.9800   24.4900   34.0200 C   0  0  0  0  0  0  0  0  0  0  0  0
   38.4080   25.4950   34.6220 O   0  0  0  0  0  0  0  0  0  0  0  0
   37.5220   21.2850   34.4070 H   0  0  0  0  0  0  0  0  0  0  0  0
   40.2200   22.6340   37.5440 C   0  0  0  0  0  0  0  0  0  0  0  0
   39.7550   22.7360   36.2270 C   0  0  0  0  0  0  0  0  0  0  0  0
   38.4990   23.2050   35.9510 C   0  0  0  0  0  0  0  0  0  0  0  0
   37.7090   23.5720   37.0000 N   0  0  0  0  0  0  0  0  0  0  0  0
   38.1420   23.4810   38.2950 C   0  0  0  0  0  0  0  0  0  0  0  0
   39.4020   23.0090   38.5470 N   0  0  0  0  0  0  0  0  0  0  0  0
   41.1820   22.2800   37.8310 H   0  0  0  0  0  0  0  0  0  0  0  0
   40.4870   22.3990   35.5440 H   0  0  0  0  0  0  0  0  0  0  0  0
   37.5050   23.7740   39.1180 H   0  0  0  0  0  0  0  0  0  0  0  0
   36.5320   21.2690   31.9310 N   0  0  0  0  0  0  0  0  0  0  0  0
   37.4730   20.5350   31.1060 C   0  0  0  0  0  3  0  0  0  0  0  0
   38.2340   20.0060   31.6980 H   0  0  0  0  0  0  0  0  0  0  0  0
   36.7280   19.6390   30.1620 C   0  0  0  0  0  3  0  0  0  0  0  0
   36.1840   20.2680   29.4410 H   0  0  0  0  0  0  0  0  0  0  0  0
   35.8990   18.7350   30.8040 O   0  0  0  0  0  0  0  0  0  0  0  0
   35.2750   19.2460   31.9200 C   0  0  0  0  0  2  0  0  0  0  0  0
   35.1630   20.7550   31.8960 C   0  0  0  0  0  2  0  0  0  0  0  0
   37.5530   26.0500   32.1830 C   0  0  0  0  0  0  0  0  0  0  0  0
   37.9180   25.9610   30.8780 F   0  0  0  0  0  0  0  0  0  0  0  0
   38.4600   26.9090   32.7810 F   0  0  0  0  0  0  0  0  0  0  0  0
   36.2740   26.5890   32.2450 F   0  0  0  0  0  0  0  0  0  0  0  0
  1 12  1  0  0  0  0
  2  9  1  0  0  0  0
  2  1  1  0  0  0  0
  3  2  2  0  0  0  0
  4  3  1  0  0  0  0
  4  6  1  0  0  0  0
  5  4  2  0  0  0  0
  6  7  1  0  0  0  0
  7  8  2  0  0  0  0
  7  1  1  0  0  0  0
 10 16  1  0  0  0  0
 10 15  1  0  0  0  0
 11 10  2  0  0  0  0
 12 11  1  0  0  0  0
 12 13  2  0  0  0  0
 13 14  1  0  0  0  0
 14 15  2  0  0  0  0
 14 18  1  0  0  0  0
 17 11  1  0  0  0  0
 19  3  1  0  0  0  0
 20 21  1  0  0  0  0
 20 19  1  0  0  0  0
 22 24  1  0  0  0  0
 22 20  1  0  0  0  0
 23 22  1  0  0  0  0
 24 25  1  0  0  0  0
 26 25  1  0  0  0  0
 26 19  1  0  0  0  0
 27 30  1  0  0  0  0
 27 29  1  0  0  0  0
 27  6  1  0  0  0  0
 28 27  1  0  0  0  0
M  END
>  <minimizedAffinity>
-5.42690516

$$$$

 OpenBabel03272505283D

 30 32  0  0  0  0  0  0  0  0999 V2000
   37.0480   21.8520   32.9600 N   0  0  0  0  0  0  0  0  0  0  0  0
   37.5620   22.0110   34.2090 C   0  0  0  0  0  0  0  0  0  0  0  0
   37.9510   23.2450   34.6960 C   0  0  0  0  0  0  0  0  0  0  0  0
   37.7960   24.3530   33.8420 C   0  0  0  0  0  0  0  0  0  0  0  0
   38.1350   25.4880   34.2430 O   0  0  0  0  0  0  0  0  0  0  0  0
   37.2790   24.1880   32.5850 N   0  0  0  0  0  0  0  0  0  0  0  0
   36.9420   22.9440   32.2320 C   0  0  0  0  0  0  0  0  0  0  0  0
   36.4790   22.8420   31.0790 O   0  0  0  0  0  0  0  0  0  0  0  0
   37.6750   21.1520   34.8560 H   0  0  0  0  0  0  0  0  0  0  0  0
   35.1130   18.7510   32.3020 C   0  0  0  0  0  0  0  0  0  0  0  0
   35.4770   20.0000   32.8190 C   0  0  0  0  0  0  0  0  0  0  0  0
   36.6600   20.5950   32.4710 C   0  0  0  0  0  0  0  0  0  0  0  0
   37.4780   19.9340   31.6040 N   0  0  0  0  0  0  0  0  0  0  0  0
   37.1430   18.7110   31.0880 C   0  0  0  0  0  0  0  0  0  0  0  0
   35.9550   18.1360   31.4490 N   0  0  0  0  0  0  0  0  0  0  0  0
   34.2120   18.2310   32.5280 H   0  0  0  0  0  0  0  0  0  0  0  0
   34.7380   20.3630   33.4810 H   0  0  0  0  0  0  0  0  0  0  0  0
   37.8020   18.1970   30.4020 H   0  0  0  0  0  0  0  0  0  0  0  0
   38.4900   23.4170   36.0030 N   0  0  0  0  0  0  0  0  0  0  0  0
   37.5460   23.5610   37.0960 C   0  0  0  0  0  3  0  0  0  0  0  0
   36.9670   22.6450   37.2800 H   0  0  0  0  0  0  0  0  0  0  0  0
   38.2570   24.0690   38.3150 C   0  0  0  0  0  3  0  0  0  0  0  0
   38.5910   25.0990   38.1200 H   0  0  0  0  0  0  0  0  0  0  0  0
   39.2930   23.2480   38.7260 O   0  0  0  0  0  0  0  0  0  0  0  0
   40.0030   22.6830   37.6900 C   0  0  0  0  0  2  0  0  0  0  0  0
   39.8960   23.4700   36.4020 C   0  0  0  0  0  2  0  0  0  0  0  0
   37.1170   25.3290   31.7110 C   0  0  0  0  0  0  0  0  0  0  0  0
   37.2220   26.4800   32.4240 F   0  0  0  0  0  0  0  0  0  0  0  0
   35.8780   25.3680   31.0920 F   0  0  0  0  0  0  0  0  0  0  0  0
   38.1260   25.3100   30.7570 F   0  0  0  0  0  0  0  0  0  0  0  0
  1  2  1  0  0  0  0
  2  3  2  0  0  0  0
  2  9  1  0  0  0  0
  3 19  1  0  0  0  0
  4  5  2  0  0  0  0
  4  3  1  0  0  0  0
  6  4  1  0  0  0  0
  7  6  1  0  0  0  0
  7  1  1  0  0  0  0
  8  7  2  0  0  0  0
 10 16  1  0  0  0  0
 10 11  1  0  0  0  0
 11 17  1  0  0  0  0
 12 11  2  0  0  0  0
 12  1  1  0  0  0  0
 13 12  1  0  0  0  0
 14 15  1  0  0  0  0
 14 13  2  0  0  0  0
 15 10  2  0  0  0  0
 18 14  1  0  0  0  0
 19 26  1  0  0  0  0
 19 20  1  0  0  0  0
 20 21  1  0  0  0  0
 20 22  1  0  0  0  0
 22 24  1  0  0  0  0
 23 22  1  0  0  0  0
 25 24  1  0  0  0  0
 26 25  1  0  0  0  0
 27 28  1  0  0  0  0
 27  6  1  0  0  0  0
 29 27  1  0  0  0  0
 30 27  1  0  0  0  0
M  END
>  <minimizedAffinity>
-5.40003967

$$$$

 OpenBabel03272505283D

 30 32  0  0  0  0  0  0  0  0999 V2000
   37.6920   22.7650   32.3350 N   0  0  0  0  0  0  0  0  0  0  0  0
   37.9970   22.5380   33.6400 C   0  0  0  0  0  0  0  0  0  0  0  0
   38.0820   23.5610   34.5670 C   0  0  0  0  0  0  0  0  0  0  0  0
   37.8390   24.8690   34.1080 C   0  0  0  0  0  0  0  0  0  0  0  0
   37.9050   25.8230   34.9130 O   0  0  0  0  0  0  0  0  0  0  0  0
   37.5330   25.0920   32.7930 N   0  0  0  0  0  0  0  0  0  0  0  0
   37.4820   24.0200   31.9960 C   0  0  0  0  0  0  0  0  0  0  0  0
   37.2030   24.2720   30.8080 O   0  0  0  0  0  0  0  0  0  0  0  0
   38.1810   21.5280   33.9810 H   0  0  0  0  0  0  0  0  0  0  0  0
   38.5590   20.2970   29.6970 C   0  0  0  0  0  0  0  0  0  0  0  0
   38.6680   21.3520   30.6120 C   0  0  0  0  0  0  0  0  0  0  0  0
   37.6120   21.7220   31.3990 C   0  0  0  0  0  0  0  0  0  0  0  0
   36.4430   21.0320   31.2670 N   0  0  0  0  0  0  0  0  0  0  0  0
   36.3130   19.9980   30.3790 C   0  0  0  0  0  0  0  0  0  0  0  0
   37.3830   19.6460   29.6030 N   0  0  0  0  0  0  0  0  0  0  0  0
   39.3370   19.9560   29.0560 H   0  0  0  0  0  0  0  0  0  0  0  0
   39.6330   21.7820   30.5750 H   0  0  0  0  0  0  0  0  0  0  0  0
   35.3800   19.4600   30.2840 H   0  0  0  0  0  0  0  0  0  0  0  0
   38.4020   23.3290   35.9350 N   0  0  0  0  0  0  0  0  0  0  0  0
   39.8080   23.2980   36.2920 C   0  0  0  0  0  3  0  0  0  0  0  0
   40.2970   24.2750   36.1760 H   0  0  0  0  0  0  0  0  0  0  0  0
   39.9690   22.7120   37.6640 C   0  0  0  0  0  3  0  0  0  0  0  0
   39.6860   21.6500   37.6240 H   0  0  0  0  0  0  0  0  0  0  0  0
   39.2770   23.4070   38.6400 O   0  0  0  0  0  0  0  0  0  0  0  0
   38.0540   23.8840   38.2250 C   0  0  0  0  0  2  0  0  0  0  0  0
   37.4850   23.1120   37.0550 C   0  0  0  0  0  2  0  0  0  0  0  0
   37.2780   26.4360   32.3240 C   0  0  0  0  0  0  0  0  0  0  0  0
   38.0160   26.6890   31.2120 F   0  0  0  0  0  0  0  0  0  0  0  0
   37.6240   27.4100   33.2470 F   0  0  0  0  0  0  0  0  0  0  0  0
   35.9330   26.5500   31.9940 F   0  0  0  0  0  0  0  0  0  0  0  0
  1  2  1  0  0  0  0
  2  9  1  0  0  0  0
  2  3  2  0  0  0  0
  3 19  1  0  0  0  0
  4  3  1  0  0  0  0
  4  5  2  0  0  0  0
  6  4  1  0  0  0  0
  7  1  1  0  0  0  0
  7  6  1  0  0  0  0
  8  7  2  0  0  0  0
 10 11  1  0  0  0  0
 11 12  2  0  0  0  0
 12  1  1  0  0  0  0
 13 12  1  0  0  0  0
 14 13  2  0  0  0  0
 15 10  2  0  0  0  0
 15 14  1  0  0  0  0
 16 10  1  0  0  0  0
 17 11  1  0  0  0  0
 18 14  1  0  0  0  0
 19 20  1  0  0  0  0
 19 26  1  0  0  0  0
 20 22  1  0  0  0  0
 21 20  1  0  0  0  0
 22 24  1  0  0  0  0
 23 22  1  0  0  0  0
 25 24  1  0  0  0  0
 26 25  1  0  0  0  0
 27  6  1  0  0  0  0
 27 29  1  0  0  0  0
 28 27  1  0  0  0  0
 30 27  1  0  0  0  0
M  END
>  <minimizedAffinity>
-5.16746283

$$$$

 OpenBabel03272505283D

 30 32  0  0  0  0  0  0  0  0999 V2000
   38.9290   24.6600   34.6520 N   0  0  0  0  0  0  0  0  0  0  0  0
   40.0740   23.9770   34.3850 C   0  0  0  0  0  0  0  0  0  0  0  0
   40.7170   23.2130   35.3400 C   0  0  0  0  0  0  0  0  0  0  0  0
   40.1390   23.1630   36.6230 C   0  0  0  0  0  0  0  0  0  0  0  0
   40.6880   22.4830   37.5170 O   0  0  0  0  0  0  0  0  0  0  0  0
   38.9860   23.8520   36.8870 N   0  0  0  0  0  0  0  0  0  0  0  0
   38.4620   24.5560   35.8780 C   0  0  0  0  0  0  0  0  0  0  0  0
   37.4150   25.1690   36.1660 O   0  0  0  0  0  0  0  0  0  0  0  0
   40.5070   24.0230   33.3950 H   0  0  0  0  0  0  0  0  0  0  0  0
   37.9290   27.5010   32.4770 C   0  0  0  0  0  0  0  0  0  0  0  0
   38.5820   26.7560   33.4670 C   0  0  0  0  0  0  0  0  0  0  0  0
   38.2840   25.4370   33.6770 C   0  0  0  0  0  0  0  0  0  0  0  0
   37.3270   24.8650   32.8920 N   0  0  0  0  0  0  0  0  0  0  0  0
   36.6760   25.5730   31.9180 C   0  0  0  0  0  0  0  0  0  0  0  0
   36.9910   26.8910   31.7260 N   0  0  0  0  0  0  0  0  0  0  0  0
   38.1090   28.5260   32.2590 H   0  0  0  0  0  0  0  0  0  0  0  0
   39.2800   27.3550   33.9870 H   0  0  0  0  0  0  0  0  0  0  0  0
   35.9180   25.1070   31.3030 H   0  0  0  0  0  0  0  0  0  0  0  0
   41.9170   22.4950   35.0670 N   0  0  0  0  0  0  0  0  0  0  0  0
   41.7840   21.2050   34.4170 C   0  0  0  0  0  3  0  0  0  0  0  0
   41.4070   21.2840   33.3880 H   0  0  0  0  0  0  0  0  0  0  0  0
   43.0780   20.4520   34.5180 C   0  0  0  0  0  3  0  0  0  0  0  0
   43.2510   20.1970   35.5740 H   0  0  0  0  0  0  0  0  0  0  0  0
   44.1490   21.1270   33.9560 O   0  0  0  0  0  0  0  0  0  0  0  0
   44.1170   22.4890   34.1550 C   0  0  0  0  0  2  0  0  0  0  0  0
   43.2940   22.8910   35.3590 C   0  0  0  0  0  2  0  0  0  0  0  0
   38.3910   23.7960   38.2030 C   0  0  0  0  0  0  0  0  0  0  0  0
   37.9530   25.0280   38.5700 F   0  0  0  0  0  0  0  0  0  0  0  0
   39.2800   23.3930   39.1860 F   0  0  0  0  0  0  0  0  0  0  0  0
   37.3000   22.9360   38.1660 F   0  0  0  0  0  0  0  0  0  0  0  0
  1  7  1  0  0  0  0
  2  1  1  0  0  0  0
  2  3  2  0  0  0  0
  3  4  1  0  0  0  0
  4  6  1  0  0  0  0
  4  5  2  0  0  0  0
  6 27  1  0  0  0  0
  7  8  2  0  0  0  0
  7  6  1  0  0  0  0
  9  2  1  0  0  0  0
 10 11  1  0  0  0  0
 11 12  2  0  0  0  0
 11 17  1  0  0  0  0
 12  1  1  0  0  0  0
 13 12  1  0  0  0  0
 14 13  2  0  0  0  0
 15 14  1  0  0  0  0
 15 10  2  0  0  0  0
 16 10  1  0  0  0  0
 18 14  1  0  0  0  0
 19  3  1  0  0  0  0
 19 26  1  0  0  0  0
 20 22  1  0  0  0  0
 20 19  1  0  0  0  0
 21 20  1  0  0  0  0
 22 23  1  0  0  0  0
 24 25  1  0  0  0  0
 24 22  1  0  0  0  0
 25 26  1  0  0  0  0
 27 28  1  0  0  0  0
 27 29  1  0  0  0  0
 30 27  1  0  0  0  0
M  END
>  <minimizedAffinity>
-5.15967512

$$$$

 OpenBabel03272505283D

 30 32  0  0  0  0  0  0  0  0999 V2000
   37.2880   22.6530   33.2550 N   0  0  0  0  0  0  0  0  0  0  0  0
   37.2560   23.7730   32.4850 C   0  0  0  0  0  0  0  0  0  0  0  0
   37.6740   25.0040   32.9540 C   0  0  0  0  0  0  0  0  0  0  0  0
   38.1410   25.0640   34.2800 C   0  0  0  0  0  0  0  0  0  0  0  0
   38.5290   26.1580   34.7450 O   0  0  0  0  0  0  0  0  0  0  0  0
   38.1710   23.9340   35.0530 N   0  0  0  0  0  0  0  0  0  0  0  0
   37.7390   22.8050   34.4830 C   0  0  0  0  0  0  0  0  0  0  0  0
   37.7810   21.8030   35.2240 O   0  0  0  0  0  0  0  0  0  0  0  0
   36.8950   23.7140   31.4670 H   0  0  0  0  0  0  0  0  0  0  0  0
   35.1500   19.7690   32.3010 C   0  0  0  0  0  0  0  0  0  0  0  0
   35.5480   21.0150   32.8030 C   0  0  0  0  0  0  0  0  0  0  0  0
   36.8580   21.4080   32.7730 C   0  0  0  0  0  0  0  0  0  0  0  0
   37.7710   20.5480   32.2370 N   0  0  0  0  0  0  0  0  0  0  0  0
   37.4050   19.3260   31.7400 C   0  0  0  0  0  0  0  0  0  0  0  0
   36.0890   18.9550   31.7820 N   0  0  0  0  0  0  0  0  0  0  0  0
   34.1520   19.4000   32.2920 H   0  0  0  0  0  0  0  0  0  0  0  0
   34.7200   21.5450   33.1900 H   0  0  0  0  0  0  0  0  0  0  0  0
   38.1400   18.6530   31.3190 H   0  0  0  0  0  0  0  0  0  0  0  0
   37.6420   26.1810   32.1520 N   0  0  0  0  0  0  0  0  0  0  0  0
   38.7470   26.3860   31.2340 C   0  0  0  0  0  3  0  0  0  0  0  0
   38.7730   25.6420   30.4260 H   0  0  0  0  0  0  0  0  0  0  0  0
   38.7340   27.8020   30.7360 C   0  0  0  0  0  3  0  0  0  0  0  0
   38.9660   28.4700   31.5790 H   0  0  0  0  0  0  0  0  0  0  0  0
   37.5550   28.1470   30.0990 O   0  0  0  0  0  0  0  0  0  0  0  0
   36.4290   27.5990   30.6720 C   0  0  0  0  0  2  0  0  0  0  0  0
   36.6260   27.2330   32.1270 C   0  0  0  0  0  2  0  0  0  0  0  0
   38.6560   23.9970   36.4130 C   0  0  0  0  0  0  0  0  0  0  0  0
   38.0710   23.0260   37.1620 F   0  0  0  0  0  0  0  0  0  0  0  0
   38.3650   25.1970   37.0410 F   0  0  0  0  0  0  0  0  0  0  0  0
   40.0290   23.7810   36.4110 F   0  0  0  0  0  0  0  0  0  0  0  0
  1  7  1  0  0  0  0
  2  3  2  0  0  0  0
  2  1  1  0  0  0  0
  3  4  1  0  0  0  0
  4  5  2  0  0  0  0
  4  6  1  0  0  0  0
  6 27  1  0  0  0  0
  7  6  1  0  0  0  0
  7  8  2  0  0  0  0
  9  2  1  0  0  0  0
 10 11  1  0  0  0  0
 11 17  1  0  0  0  0
 12 11  2  0  0  0  0
 12  1  1  0  0  0  0
 13 12  1  0  0  0  0
 14 15  1  0  0  0  0
 14 13  2  0  0  0  0
 15 10  2  0  0  0  0
 16 10  1  0  0  0  0
 18 14  1  0  0  0  0
 19  3  1  0  0  0  0
 20 19  1  0  0  0  0
 21 20  1  0  0  0  0
 22 20  1  0  0  0  0
 22 23  1  0  0  0  0
 24 25  1  0  0  0  0
 24 22  1  0  0  0  0
 25 26  1  0  0  0  0
 26 19  1  0  0  0  0
 27 29  1  0  0  0  0
 27 28  1  0  0  0  0
 30 27  1  0  0  0  0
M  END
>  <minimizedAffinity>
-5.1594758

$$$$

 OpenBabel03272505283D

 30 32  0  0  0  0  0  0  0  0999 V2000
   37.2700   24.3330   32.7530 N   0  0  0  0  0  0  0  0  0  0  0  0
   36.9250   25.5400   32.2300 C   0  0  0  0  0  0  0  0  0  0  0  0
   36.9860   26.7080   32.9660 C   0  0  0  0  0  0  0  0  0  0  0  0
   37.4230   26.6080   34.3000 C   0  0  0  0  0  0  0  0  0  0  0  0
   37.4930   27.6410   35.0010 O   0  0  0  0  0  0  0  0  0  0  0  0
   37.7690   25.3910   34.8230 N   0  0  0  0  0  0  0  0  0  0  0  0
   37.6660   24.3360   34.0090 C   0  0  0  0  0  0  0  0  0  0  0  0
   37.9880   23.2500   34.5290 O   0  0  0  0  0  0  0  0  0  0  0  0
   36.5910   25.6040   31.2030 H   0  0  0  0  0  0  0  0  0  0  0  0
   38.1660   21.4790   30.5520 C   0  0  0  0  0  0  0  0  0  0  0  0
   38.2620   22.6700   31.2820 C   0  0  0  0  0  0  0  0  0  0  0  0
   37.2020   23.1510   32.0010 C   0  0  0  0  0  0  0  0  0  0  0  0
   36.0420   22.4340   31.9860 N   0  0  0  0  0  0  0  0  0  0  0  0
   35.9240   21.2680   31.2790 C   0  0  0  0  0  0  0  0  0  0  0  0
   36.9980   20.8060   30.5680 N   0  0  0  0  0  0  0  0  0  0  0  0
   38.9470   21.0470   29.9720 H   0  0  0  0  0  0  0  0  0  0  0  0
   39.2220   23.0990   31.1730 H   0  0  0  0  0  0  0  0  0  0  0  0
   34.9980   20.7100   31.2750 H   0  0  0  0  0  0  0  0  0  0  0  0
   36.6250   27.9750   32.4220 N   0  0  0  0  0  0  0  0  0  0  0  0
   37.0810   28.2730   31.0780 C   0  0  0  0  0  3  0  0  0  0  0  0
   36.6110   27.6340   30.3180 H   0  0  0  0  0  0  0  0  0  0  0  0
   36.9180   29.7390   30.8020 C   0  0  0  0  0  3  0  0  0  0  0  0
   37.6180   30.2940   31.4450 H   0  0  0  0  0  0  0  0  0  0  0  0
   35.6130   30.1800   30.9390 O   0  0  0  0  0  0  0  0  0  0  0  0
   34.9280   29.5850   31.9750 C   0  0  0  0  0  2  0  0  0  0  0  0
   35.8420   29.0390   33.0500 C   0  0  0  0  0  2  0  0  0  0  0  0
   38.2230   25.2910   36.1920 C   0  0  0  0  0  0  0  0  0  0  0  0
   37.3450   24.5540   36.9210 F   0  0  0  0  0  0  0  0  0  0  0  0
   38.3170   26.5200   36.8260 F   0  0  0  0  0  0  0  0  0  0  0  0
   39.4550   24.6510   36.2100 F   0  0  0  0  0  0  0  0  0  0  0  0
  1  7  1  0  0  0  0
  2  1  1  0  0  0  0
  2  3  2  0  0  0  0
  3  4  1  0  0  0  0
  4  6  1  0  0  0  0
  4  5  2  0  0  0  0
  6 27  1  0  0  0  0
  7  8  2  0  0  0  0
  7  6  1  0  0  0  0
  9  2  1  0  0  0  0
 10 15  2  0  0  0  0
 10 11  1  0  0  0  0
 11 12  2  0  0  0  0
 12  1  1  0  0  0  0
 13 12  1  0  0  0  0
 14 13  2  0  0  0  0
 15 14  1  0  0  0  0
 16 10  1  0  0  0  0
 17 11  1  0  0  0  0
 18 14  1  0  0  0  0
 19  3  1  0  0  0  0
 19 26  1  0  0  0  0
 20 19  1  0  0  0  0
 21 20  1  0  0  0  0
 22 24  1  0  0  0  0
 22 20  1  0  0  0  0
 22 23  1  0  0  0  0
 24 25  1  0  0  0  0
 25 26  1  0  0  0  0
 27 30  1  0  0  0  0
 27 29  1  0  0  0  0
 27 28  1  0  0  0  0
M  END
>  <minimizedAffinity>
-5.13432217

$$$$

 OpenBabel03272505283D

 30 32  0  0  0  0  0  0  0  0999 V2000
   37.6690   25.1340   33.0290 N   0  0  0  0  0  0  0  0  0  0  0  0
   37.2640   23.9650   32.4650 C   0  0  0  0  0  0  0  0  0  0  0  0
   37.3120   22.7630   33.1440 C   0  0  0  0  0  0  0  0  0  0  0  0
   37.8020   22.7860   34.4630 C   0  0  0  0  0  0  0  0  0  0  0  0
   37.8620   21.7200   35.1140 O   0  0  0  0  0  0  0  0  0  0  0  0
   38.2090   23.9650   35.0270 N   0  0  0  0  0  0  0  0  0  0  0  0
   38.1140   25.0600   34.2660 C   0  0  0  0  0  0  0  0  0  0  0  0
   38.5000   26.1080   34.8200 O   0  0  0  0  0  0  0  0  0  0  0  0
   36.8880   23.9610   31.4510 H   0  0  0  0  0  0  0  0  0  0  0  0
   38.5460   27.9850   30.8150 C   0  0  0  0  0  0  0  0  0  0  0  0
   38.6300   26.7710   31.5080 C   0  0  0  0  0  0  0  0  0  0  0  0
   37.6220   26.3510   32.3320 C   0  0  0  0  0  0  0  0  0  0  0  0
   36.5260   27.1520   32.4600 N   0  0  0  0  0  0  0  0  0  0  0  0
   36.4210   28.3430   31.7930 C   0  0  0  0  0  0  0  0  0  0  0  0
   37.4430   28.7430   30.9750 N   0  0  0  0  0  0  0  0  0  0  0  0
   39.2900   28.3730   30.1600 H   0  0  0  0  0  0  0  0  0  0  0  0
   39.5470   26.2860   31.3040 H   0  0  0  0  0  0  0  0  0  0  0  0
   35.5470   28.9700   31.9050 H   0  0  0  0  0  0  0  0  0  0  0  0
   36.8890   21.5350   32.5580 N   0  0  0  0  0  0  0  0  0  0  0  0
   35.4770   21.2120   32.6420 C   0  0  0  0  0  3  0  0  0  0  0  0
   34.8490   21.8950   32.0530 H   0  0  0  0  0  0  0  0  0  0  0  0
   35.2670   19.7670   32.2960 C   0  0  0  0  0  3  0  0  0  0  0  0
   35.7240   19.1510   33.0850 H   0  0  0  0  0  0  0  0  0  0  0  0
   35.7270   19.4340   31.0340 O   0  0  0  0  0  0  0  0  0  0  0  0
   36.8920   20.0740   30.6770 C   0  0  0  0  0  2  0  0  0  0  0  0
   37.7030   20.5340   31.8690 C   0  0  0  0  0  2  0  0  0  0  0  0
   38.7090   23.9870   36.3840 C   0  0  0  0  0  0  0  0  0  0  0  0
   38.1820   22.9550   37.0920 F   0  0  0  0  0  0  0  0  0  0  0  0
   38.3690   25.1420   37.0700 F   0  0  0  0  0  0  0  0  0  0  0  0
   40.0900   23.8400   36.3560 F   0  0  0  0  0  0  0  0  0  0  0  0
  1  7  1  0  0  0  0
  2  1  1  0  0  0  0
  2  3  2  0  0  0  0
  3  4  1  0  0  0  0
  4  6  1  0  0  0  0
  4  5  2  0  0  0  0
  6 27  1  0  0  0  0
  7  8  2  0  0  0  0
  7  6  1  0  0  0  0
  9  2  1  0  0  0  0
 10 15  2  0  0  0  0
 10 11  1  0  0  0  0
 11 12  2  0  0  0  0
 12 13  1  0  0  0  0
 12  1  1  0  0  0  0
 14 18  1  0  0  0  0
 14 13  2  0  0  0  0
 15 14  1  0  0  0  0
 16 10  1  0  0  0  0
 17 11  1  0  0  0  0
 19 20  1  0  0  0  0
 19  3  1  0  0  0  0
 21 20  1  0  0  0  0
 22 20  1  0  0  0  0
 22 23  1  0  0  0  0
 24 22  1  0  0  0  0
 25 24  1  0  0  0  0
 25 26  1  0  0  0  0
 26 19  1  0  0  0  0
 27 29  1  0  0  0  0
 27 28  1  0  0  0  0
 30 27  1  0  0  0  0
M  END
>  <minimizedAffinity>
-5.11298084

$$$$
