
 OpenBabel03272508463D

 39 43  0  0  0  0  0  0  0  0999 V2000
   35.6480   29.7610   49.6330 C   0  0  0  0  0  0  0  0  0  0  0  0
   36.6380   29.6280   50.5930 C   0  0  0  0  0  0  0  0  0  0  0  0
   37.7590   30.1810   49.9820 C   0  0  0  0  0  0  0  0  0  0  0  0
   37.4230   30.6060   48.7310 C   0  0  0  0  0  0  0  0  0  0  0  0
   36.1470   30.3350   48.5600 O   0  0  0  0  0  0  0  0  0  0  0  0
   36.5570   29.1970   51.5890 H   0  0  0  0  0  0  0  0  0  0  0  0
   38.7240   30.2480   50.4410 H   0  0  0  0  0  0  0  0  0  0  0  0
   38.8290   32.4850   48.0220 C   0  0  0  0  0  0  0  0  0  0  0  0
   38.2900   31.2430   47.7420 C   0  0  0  0  0  0  0  0  0  0  0  0
   38.5550   30.5950   46.5510 C   0  0  0  0  0  0  0  0  0  0  0  0
   39.3780   31.1900   45.6010 C   0  0  0  0  0  0  0  0  0  0  0  0
   39.8120   30.8150   44.3710 N   0  0  0  0  0  0  0  0  0  0  0  0
   40.5800   31.7930   43.9330 N   0  0  0  0  0  0  0  0  0  0  0  0
   40.6510   32.7840   44.8460 C   0  0  0  0  0  0  0  0  0  0  0  0
   39.8810   32.4200   45.9370 C   0  0  0  0  0  0  0  0  0  0  0  0
   39.6660   33.1210   47.0900 C   0  0  0  0  0  0  0  0  0  0  0  0
   38.5990   32.9650   48.9740 H   0  0  0  0  0  0  0  0  0  0  0  0
   38.1230   29.6240   46.3510 H   0  0  0  0  0  0  0  0  0  0  0  0
   39.5220   29.8970   43.9580 H   0  0  0  0  0  0  0  0  0  0  0  0
   41.2210   33.6960   44.7170 H   0  0  0  0  0  0  0  0  0  0  0  0
   40.0840   34.0740   47.2990 H   0  0  0  0  0  0  0  0  0  0  0  0
   34.2730   29.3230   49.8050 C   0  0  0  0  0  0  0  0  0  0  0  0
   33.6770   29.6140   50.8650 O   0  0  0  0  0  0  0  0  0  0  0  0
   31.8410   27.1920   48.1040 C   0  0  0  0  0  0  0  0  0  0  0  0
   32.3470   27.1010   46.8040 C   0  0  0  0  0  0  0  0  0  0  0  0
   33.5100   27.7660   46.5160 C   0  0  0  0  0  0  0  0  0  0  0  0
   34.1290   28.4760   47.4710 N   0  0  0  0  0  0  0  0  0  0  0  0
   33.6240   28.5580   48.7430 C   0  0  0  0  0  0  0  0  0  0  0  0
   32.4730   27.9070   49.0480 N   0  0  0  0  0  0  0  0  0  0  0  0
   30.9330   26.7090   48.4400 H   0  0  0  0  0  0  0  0  0  0  0  0
   31.8130   26.5240   46.0920 H   0  0  0  0  0  0  0  0  0  0  0  0
   34.0810   27.7170   45.2150 N   0  0  0  0  0  0  0  0  0  0  0  0
   34.7120   28.8520   44.5850 C   0  0  0  0  0  3  0  0  0  0  0  0
   34.3590   29.8280   44.9100 H   0  0  0  0  0  0  0  0  0  0  0  0
   34.5040   28.7120   43.0760 C   0  0  0  0  0  3  0  0  0  0  0  0
   34.8630   29.6250   42.5450 H   0  0  0  0  0  0  0  0  0  0  0  0
   35.0760   27.5600   42.5760 O   0  0  0  0  0  0  0  0  0  0  0  0
   35.2330   26.5410   43.4810 C   0  0  0  0  0  2  0  0  0  0  0  0
   34.0570   26.4960   44.4330 C   0  0  0  0  0  2  0  0  0  0  0  0
  1 22  1  0  0  0  0
  1  2  2  0  0  0  0
  2  6  1  0  0  0  0
  3  7  1  0  0  0  0
  3  2  1  0  0  0  0
  4  3  2  0  0  0  0
  5  4  1  0  0  0  0
  5  1  1  0  0  0  0
  8 17  1  0  0  0  0
  9  8  1  0  0  0  0
  9  4  1  0  0  0  0
 10  9  2  0  0  0  0
 11 15  2  0  0  0  0
 11 10  1  0  0  0  0
 12 11  1  0  0  0  0
 13 12  1  0  0  0  0
 13 14  2  0  0  0  0
 14 15  1  0  0  0  0
 15 16  1  0  0  0  0
 16 21  1  0  0  0  0
 16  8  2  0  0  0  0
 18 10  1  0  0  0  0
 19 12  1  0  0  0  0
 20 14  1  0  0  0  0
 22 23  2  0  0  0  0
 24 30  1  0  0  0  0
 24 29  1  0  0  0  0
 25 24  2  0  0  0  0
 26 25  1  0  0  0  0
 26 27  2  0  0  0  0
 27 28  1  0  0  0  0
 28 29  2  0  0  0  0
 28 22  1  0  0  0  0
 31 25  1  0  0  0  0
 32 26  1  0  0  0  0
 33 34  1  0  0  0  0
 33 32  1  0  0  0  0
 35 33  1  0  0  0  0
 36 35  1  0  0  0  0
 37 35  1  0  0  0  0
 37 38  1  0  0  0  0
 38 39  1  0  0  0  0
 39 32  1  0  0  0  0
M  END
>  <minimizedAffinity>
-6.46750498

>  <minimizedRMSD>
1.70802617

$$$$
