
 OpenBabel03272503113D

 45 49  0  0  1  0  0  0  0  0999 V2000
   39.2450   31.8770   44.9490 C   0  0  0  0  0  0  0  0  0  0  0  0
   38.1490   32.5300   45.0780 O   0  0  0  0  0  0  0  0  0  0  0  0
   39.9380   31.6190   46.1520 N   0  0  0  0  0  0  0  0  0  0  0  0
   40.8200   31.0900   46.0950 H   0  0  0  0  0  0  0  0  0  0  0  0
   39.0770   32.1290   42.5670 C   0  0  0  0  0  0  0  0  0  0  0  0
   39.6720   31.4680   43.6250 C   0  0  0  0  0  0  0  0  0  0  0  0
   40.6030   30.4910   43.4630 C   0  0  0  0  0  0  0  0  0  0  0  0
   40.9860   30.1270   42.1800 C   0  0  0  0  0  0  0  0  0  0  0  0
   41.8570   29.2220   41.7130 N   0  0  0  0  0  0  0  0  0  0  0  0
   41.8390   29.2840   40.3950 C   0  0  0  0  0  0  0  0  0  0  0  0
   40.9580   30.2260   40.0110 N   0  0  0  0  0  0  0  0  0  0  0  0
   40.3930   30.7860   41.1150 C   0  0  0  0  0  0  0  0  0  0  0  0
   39.4450   31.7840   41.2610 C   0  0  0  0  0  0  0  0  0  0  0  0
   38.3460   32.8960   42.7540 H   0  0  0  0  0  0  0  0  0  0  0  0
   41.0190   30.0220   44.3450 H   0  0  0  0  0  0  0  0  0  0  0  0
   42.4220   28.6050   42.3470 H   0  0  0  0  0  0  0  0  0  0  0  0
   42.4680   28.6410   39.7950 H   0  0  0  0  0  0  0  0  0  0  0  0
   38.8740   32.4210   40.1920 O   0  0  0  0  0  0  0  0  0  0  0  0
   39.5940   34.9030   38.5450 H   0  0  0  0  0  0  0  0  0  0  0  0
   39.0030   34.0630   38.6020 N   0  0  0  0  0  0  0  0  0  0  0  0
   38.6780   33.7660   39.9730 C   0  0  1  0  0  0  0  0  0  0  0  0
   37.2040   34.0740   40.1670 C   0  0  0  0  0  0  0  0  0  0  0  0
   36.9390   35.1170   39.9630 H   0  0  0  0  0  0  0  0  0  0  0  0
   36.5110   33.1460   39.3970 O   0  0  0  0  0  0  0  0  0  0  0  0
   36.7090   33.3250   38.0410 C   0  0  0  0  0  0  0  0  0  0  0  0
   37.9350   34.0690   37.6770 C   0  0  0  0  0  0  0  0  0  0  0  0
   38.1050   30.1420   47.5010 F   0  0  0  0  0  0  0  0  0  0  0  0
   38.3660   31.3890   47.9930 C   0  0  0  0  0  0  0  0  0  0  0  0
   37.7170   31.8330   49.1090 C   0  0  0  0  0  0  0  0  0  0  0  0
   38.0310   33.0920   49.5420 C   0  0  0  0  0  0  0  0  0  0  0  0
   38.9460   33.8950   48.9110 C   0  0  0  0  0  0  0  0  0  0  0  0
   39.5950   33.4220   47.7780 C   0  0  0  0  0  0  0  0  0  0  0  0
   39.2920   32.1510   47.3210 C   0  0  0  0  0  0  0  0  0  0  0  0
   37.5240   33.4640   50.4330 H   0  0  0  0  0  0  0  0  0  0  0  0
   39.1310   34.8770   49.3260 H   0  0  0  0  0  0  0  0  0  0  0  0
   40.3170   34.0430   47.2700 H   0  0  0  0  0  0  0  0  0  0  0  0
   36.0850   29.3550   51.4690 C   0  0  0  0  0  0  0  0  0  0  0  0
   37.0570   30.2130   50.8850 C   0  0  0  0  0  0  0  0  0  0  0  0
   36.7510   30.9390   49.7460 C   0  0  0  0  0  0  0  0  0  0  0  0
   35.4940   30.7890   49.2260 N   0  0  0  0  0  0  0  0  0  0  0  0
   34.5790   29.9760   49.7830 C   0  0  0  0  0  0  0  0  0  0  0  0
   34.8690   29.2760   50.8790 N   0  0  0  0  0  0  0  0  0  0  0  0
   36.4460   28.8470   52.3500 H   0  0  0  0  0  0  0  0  0  0  0  0
   38.0430   30.3230   51.3020 H   0  0  0  0  0  0  0  0  0  0  0  0
   33.5870   29.8630   49.3680 H   0  0  0  0  0  0  0  0  0  0  0  0
  1  2  2  0  0  0  0
  1  3  1  0  0  0  0
  3 33  1  0  0  0  0
  4  3  1  0  0  0  0
  5 14  1  0  0  0  0
  5  6  1  0  0  0  0
  6  1  1  0  0  0  0
  7  6  2  0  0  0  0
  7 15  1  0  0  0  0
  8  7  1  0  0  0  0
  9  8  1  0  0  0  0
  9 16  1  0  0  0  0
 10  9  1  0  0  0  0
 11 10  2  0  0  0  0
 11 12  1  0  0  0  0
 12 13  1  0  0  0  0
 12  8  2  0  0  0  0
 13  5  2  0  0  0  0
 17 10  1  0  0  0  0
 18 13  1  0  0  0  0
 19 20  1  0  0  0  0
 20 21  1  0  0  0  0
 21 22  1  0  0  0  0
 21 18  1  6  0  0  0
 23 22  1  0  0  0  0
 24 22  1  0  0  0  0
 25 24  1  0  0  0  0
 26 25  1  0  0  0  0
 26 20  1  0  0  0  0
 27 28  1  0  0  0  0
 28 29  1  0  0  0  0
 29 30  2  0  0  0  0
 29 39  1  0  0  0  0
 30 34  1  0  0  0  0
 31 35  1  0  0  0  0
 31 30  1  0  0  0  0
 32 31  2  0  0  0  0
 33 32  1  0  0  0  0
 33 28  2  0  0  0  0
 36 32  1  0  0  0  0
 37 43  1  0  0  0  0
 38 44  1  0  0  0  0
 38 37  1  0  0  0  0
 39 38  2  0  0  0  0
 40 39  1  0  0  0  0
 40 41  2  0  0  0  0
 41 42  1  0  0  0  0
 42 37  2  0  0  0  0
 45 41  1  0  0  0  0
M  END
>  <minimizedAffinity>
-7.31910563

>  <minimizedRMSD>
1.61016178

$$$$
