
 OpenBabel03262522533D

 32 35  0  0  0  0  0  0  0  0999 V2000
   38.6600   24.7140   34.9760 C   0  0  0  0  0  0  0  0  0  0  0  0
   38.0790   24.4990   33.7970 C   0  0  0  0  0  0  0  0  0  0  0  0
   37.3920   25.5340   33.1890 C   0  0  0  0  0  0  0  0  0  0  0  0
   37.3680   26.7150   33.8620 C   0  0  0  0  0  0  0  0  0  0  0  0
   38.3240   26.3540   35.3630 S   0  0  0  0  0  0  0  0  0  0  0  0
   38.1510   23.5030   33.3230 H   0  0  0  0  0  0  0  0  0  0  0  0
   36.8860   25.4610   32.2320 H   0  0  0  0  0  0  0  0  0  0  0  0
   36.7330   27.9810   33.4840 C   0  0  0  0  0  0  0  0  0  0  0  0
   36.7650   28.3780   32.1780 C   0  0  0  0  0  0  0  0  0  0  0  0
   36.1520   29.5740   31.8790 C   0  0  0  0  0  0  0  0  0  0  0  0
   35.5420   30.3310   32.8330 N   0  0  0  0  0  0  0  0  0  0  0  0
   35.5690   29.8390   34.1060 C   0  0  0  0  0  0  0  0  0  0  0  0
   36.1490   28.6800   34.4660 N   0  0  0  0  0  0  0  0  0  0  0  0
   37.2400   27.8000   31.4000 H   0  0  0  0  0  0  0  0  0  0  0  0
   36.1220   29.9780   30.8760 H   0  0  0  0  0  0  0  0  0  0  0  0
   34.9240   30.6500   35.0830 N   0  0  0  0  0  0  0  0  0  0  0  0
   35.6840   31.6650   35.7880 C   0  0  0  0  0  3  0  0  0  0  0  0
   35.8530   32.4900   35.0460 H   0  0  0  0  0  0  0  0  0  0  0  0
   34.8250   32.1950   36.9140 C   0  0  0  0  0  3  0  0  0  0  0  0
   34.5390   31.3460   37.5800 H   0  0  0  0  0  0  0  0  0  0  0  0
   33.6680   32.7000   36.2780 O   0  0  0  0  0  0  0  0  0  0  0  0
   32.8640   31.6140   36.0330 C   0  0  0  0  0  2  0  0  0  0  0  0
   33.5160   30.4530   35.3680 C   0  0  0  0  0  2  0  0  0  0  0  0
   39.7370   22.7730   37.8660 C   0  0  0  0  0  0  0  0  0  0  0  0
   40.8460   22.0720   37.4090 C   0  0  0  0  0  0  0  0  0  0  0  0
   41.2300   22.2730   36.0780 C   0  0  0  0  0  0  0  0  0  0  0  0
   40.5060   23.1390   35.2970 N   0  0  0  0  0  0  0  0  0  0  0  0
   39.4400   23.7840   35.8120 C   0  0  0  0  0  0  0  0  0  0  0  0
   39.0340   23.6270   37.0730 N   0  0  0  0  0  0  0  0  0  0  0  0
   39.3710   22.6740   38.8880 H   0  0  0  0  0  0  0  0  0  0  0  0
   41.3650   21.4070   38.0850 H   0  0  0  0  0  0  0  0  0  0  0  0
   42.0840   21.7460   35.6930 H   0  0  0  0  0  0  0  0  0  0  0  0
  1  5  1  0  0  0  0
  1 28  1  0  0  0  0
  2  1  2  0  0  0  0
  3  2  1  0  0  0  0
  3  4  2  0  0  0  0
  4  5  1  0  0  0  0
  6  2  1  0  0  0  0
  7  3  1  0  0  0  0
  8  4  1  0  0  0  0
  8 13  1  0  0  0  0
  9  8  2  0  0  0  0
 10  9  1  0  0  0  0
 10 11  2  0  0  0  0
 11 12  1  0  0  0  0
 12 13  2  0  0  0  0
 12 16  1  0  0  0  0
 14  9  1  0  0  0  0
 15 10  1  0  0  0  0
 16 23  1  0  0  0  0
 16 17  1  0  0  0  0
 17 19  1  0  0  0  0
 18 17  1  0  0  0  0
 19 20  1  0  0  0  0
 21 19  1  0  0  0  0
 22 21  1  0  0  0  0
 23 22  1  0  0  0  0
 24 30  1  0  0  0  0
 25 24  1  0  0  0  0
 25 31  1  0  0  0  0
 26 25  2  0  0  0  0
 27 28  2  0  0  0  0
 27 26  1  0  0  0  0
 28 29  1  0  0  0  0
 29 24  2  0  0  0  0
 32 26  1  0  0  0  0
M  END
>  <minimizedAffinity>
-5.72372341

$$$$

 OpenBabel03262522533D

 32 35  0  0  0  0  0  0  0  0999 V2000
   38.6280   25.4660   35.4190 C   0  0  0  0  0  0  0  0  0  0  0  0
   38.3940   26.6220   36.0370 C   0  0  0  0  0  0  0  0  0  0  0  0
   37.7270   27.6230   35.3560 C   0  0  0  0  0  0  0  0  0  0  0  0
   37.3550   27.3370   34.0800 C   0  0  0  0  0  0  0  0  0  0  0  0
   37.9560   25.6390   33.8460 S   0  0  0  0  0  0  0  0  0  0  0  0
   38.7340   26.7650   37.0790 H   0  0  0  0  0  0  0  0  0  0  0  0
   37.4880   28.5980   35.7690 H   0  0  0  0  0  0  0  0  0  0  0  0
   36.6430   28.1790   33.1140 C   0  0  0  0  0  0  0  0  0  0  0  0
   37.1380   28.3040   31.8480 C   0  0  0  0  0  0  0  0  0  0  0  0
   36.4290   29.1060   30.9820 C   0  0  0  0  0  0  0  0  0  0  0  0
   35.2900   29.7480   31.3620 N   0  0  0  0  0  0  0  0  0  0  0  0
   34.8850   29.5530   32.6510 C   0  0  0  0  0  0  0  0  0  0  0  0
   35.5300   28.7840   33.5470 N   0  0  0  0  0  0  0  0  0  0  0  0
   38.0370   27.8080   31.5180 H   0  0  0  0  0  0  0  0  0  0  0  0
   36.7360   29.2710   29.9580 H   0  0  0  0  0  0  0  0  0  0  0  0
   33.6910   30.2360   33.0220 N   0  0  0  0  0  0  0  0  0  0  0  0
   33.7720   31.5740   33.5750 C   0  0  0  0  0  3  0  0  0  0  0  0
   34.0270   32.2460   32.7120 H   0  0  0  0  0  0  0  0  0  0  0  0
   32.4030   31.9500   34.0930 C   0  0  0  0  0  3  0  0  0  0  0  0
   32.0870   31.1990   34.8560 H   0  0  0  0  0  0  0  0  0  0  0  0
   31.5530   31.8580   32.9680 O   0  0  0  0  0  0  0  0  0  0  0  0
   31.2510   30.5260   32.8270 C   0  0  0  0  0  2  0  0  0  0  0  0
   32.4060   29.5870   32.8480 C   0  0  0  0  0  2  0  0  0  0  0  0
   39.6010   22.7520   37.6480 C   0  0  0  0  0  0  0  0  0  0  0  0
   40.5370   22.0310   36.9150 C   0  0  0  0  0  0  0  0  0  0  0  0
   40.8380   22.4900   35.6280 C   0  0  0  0  0  0  0  0  0  0  0  0
   40.2070   23.6130   35.1550 N   0  0  0  0  0  0  0  0  0  0  0  0
   39.3090   24.2600   35.9250 C   0  0  0  0  0  0  0  0  0  0  0  0
   38.9870   23.8630   37.1580 N   0  0  0  0  0  0  0  0  0  0  0  0
   39.3100   22.4620   38.6570 H   0  0  0  0  0  0  0  0  0  0  0  0
   40.9920   21.1560   37.3570 H   0  0  0  0  0  0  0  0  0  0  0  0
   41.5570   21.9560   35.0360 H   0  0  0  0  0  0  0  0  0  0  0  0
  1 28  1  0  0  0  0
  1  2  2  0  0  0  0
  2  6  1  0  0  0  0
  3  7  1  0  0  0  0
  3  2  1  0  0  0  0
  4  3  2  0  0  0  0
  5  4  1  0  0  0  0
  5  1  1  0  0  0  0
  8 13  1  0  0  0  0
  8  4  1  0  0  0  0
  9  8  2  0  0  0  0
 10 11  2  0  0  0  0
 10  9  1  0  0  0  0
 11 12  1  0  0  0  0
 12 16  1  0  0  0  0
 12 13  2  0  0  0  0
 14  9  1  0  0  0  0
 15 10  1  0  0  0  0
 16 17  1  0  0  0  0
 17 19  1  0  0  0  0
 18 17  1  0  0  0  0
 19 20  1  0  0  0  0
 21 19  1  0  0  0  0
 22 23  1  0  0  0  0
 22 21  1  0  0  0  0
 23 16  1  0  0  0  0
 24 30  1  0  0  0  0
 25 31  1  0  0  0  0
 25 24  2  0  0  0  0
 26 25  1  0  0  0  0
 27 26  2  0  0  0  0
 27 28  1  0  0  0  0
 28 29  2  0  0  0  0
 29 24  1  0  0  0  0
 32 26  1  0  0  0  0
M  END
>  <minimizedAffinity>
-5.46986008

$$$$

 OpenBabel03262522533D

 32 35  0  0  0  0  0  0  0  0999 V2000
   35.4250   29.9880   34.0680 C   0  0  0  0  0  0  0  0  0  0  0  0
   35.5240   30.2630   32.7680 C   0  0  0  0  0  0  0  0  0  0  0  0
   36.1060   29.3310   31.9290 C   0  0  0  0  0  0  0  0  0  0  0  0
   36.5380   28.1820   32.5140 C   0  0  0  0  0  0  0  0  0  0  0  0
   36.1170   28.4270   34.2640 S   0  0  0  0  0  0  0  0  0  0  0  0
   35.1430   31.2250   32.3800 H   0  0  0  0  0  0  0  0  0  0  0  0
   36.2330   29.4580   30.8590 H   0  0  0  0  0  0  0  0  0  0  0  0
   37.1860   27.0190   31.9000 C   0  0  0  0  0  0  0  0  0  0  0  0
   38.2100   27.2160   31.0190 C   0  0  0  0  0  0  0  0  0  0  0  0
   38.7830   26.0900   30.4730 C   0  0  0  0  0  0  0  0  0  0  0  0
   38.3550   24.8370   30.7900 N   0  0  0  0  0  0  0  0  0  0  0  0
   37.3250   24.7550   31.6820 C   0  0  0  0  0  0  0  0  0  0  0  0
   36.7210   25.8140   32.2520 N   0  0  0  0  0  0  0  0  0  0  0  0
   38.5710   28.1970   30.7480 H   0  0  0  0  0  0  0  0  0  0  0  0
   39.6000   26.1370   29.7650 H   0  0  0  0  0  0  0  0  0  0  0  0
   36.8970   23.4340   31.9970 N   0  0  0  0  0  0  0  0  0  0  0  0
   35.8540   22.8090   31.2050 C   0  0  0  0  0  3  0  0  0  0  0  0
   36.3320   22.5470   30.2230 H   0  0  0  0  0  0  0  0  0  0  0  0
   35.4410   21.5320   31.8990 C   0  0  0  0  0  3  0  0  0  0  0  0
   35.0940   21.7780   32.9310 H   0  0  0  0  0  0  0  0  0  0  0  0
   36.6240   20.7630   31.9750 O   0  0  0  0  0  0  0  0  0  0  0  0
   37.3240   21.2470   33.0520 C   0  0  0  0  0  2  0  0  0  0  0  0
   37.5040   22.7240   33.1060 C   0  0  0  0  0  2  0  0  0  0  0  0
   33.0010   31.3710   36.4130 C   0  0  0  0  0  0  0  0  0  0  0  0
   33.7330   32.2940   37.1500 C   0  0  0  0  0  0  0  0  0  0  0  0
   35.0880   32.4430   36.8320 C   0  0  0  0  0  0  0  0  0  0  0  0
   35.6240   31.6830   35.8230 N   0  0  0  0  0  0  0  0  0  0  0  0
   34.8510   30.8070   35.1510 C   0  0  0  0  0  0  0  0  0  0  0  0
   33.5550   30.6280   35.4160 N   0  0  0  0  0  0  0  0  0  0  0  0
   31.9420   31.1940   36.5960 H   0  0  0  0  0  0  0  0  0  0  0  0
   33.2390   32.8560   37.9300 H   0  0  0  0  0  0  0  0  0  0  0  0
   35.6810   33.1480   37.3830 H   0  0  0  0  0  0  0  0  0  0  0  0
  1  5  1  0  0  0  0
  1 28  1  0  0  0  0
  2  1  2  0  0  0  0
  3  4  2  0  0  0  0
  3  2  1  0  0  0  0
  4  5  1  0  0  0  0
  6  2  1  0  0  0  0
  7  3  1  0  0  0  0
  8 13  1  0  0  0  0
  8  4  1  0  0  0  0
  9  8  2  0  0  0  0
 10 11  2  0  0  0  0
 10  9  1  0  0  0  0
 11 12  1  0  0  0  0
 12 16  1  0  0  0  0
 12 13  2  0  0  0  0
 14  9  1  0  0  0  0
 15 10  1  0  0  0  0
 16 23  1  0  0  0  0
 17 19  1  0  0  0  0
 17 16  1  0  0  0  0
 18 17  1  0  0  0  0
 19 21  1  0  0  0  0
 19 20  1  0  0  0  0
 21 22  1  0  0  0  0
 22 23  1  0  0  0  0
 24 30  1  0  0  0  0
 24 25  1  0  0  0  0
 25 31  1  0  0  0  0
 26 25  2  0  0  0  0
 26 32  1  0  0  0  0
 27 26  1  0  0  0  0
 28 29  1  0  0  0  0
 28 27  2  0  0  0  0
 29 24  2  0  0  0  0
M  END
>  <minimizedAffinity>
-5.35839033

$$$$

 OpenBabel03262522533D

 32 35  0  0  0  0  0  0  0  0999 V2000
   36.0000   29.0630   33.8560 C   0  0  0  0  0  0  0  0  0  0  0  0
   35.8760   28.5920   32.6160 C   0  0  0  0  0  0  0  0  0  0  0  0
   36.3990   27.3480   32.3150 C   0  0  0  0  0  0  0  0  0  0  0  0
   37.0100   26.6910   33.3360 C   0  0  0  0  0  0  0  0  0  0  0  0
   36.8420   27.8450   34.7290 S   0  0  0  0  0  0  0  0  0  0  0  0
   35.3610   29.1980   31.8480 H   0  0  0  0  0  0  0  0  0  0  0  0
   36.3510   26.8780   31.3390 H   0  0  0  0  0  0  0  0  0  0  0  0
   37.6530   25.3740   33.3340 C   0  0  0  0  0  0  0  0  0  0  0  0
   37.4740   24.5470   32.2620 C   0  0  0  0  0  0  0  0  0  0  0  0
   38.1000   23.3220   32.3120 C   0  0  0  0  0  0  0  0  0  0  0  0
   38.8630   22.9450   33.3760 N   0  0  0  0  0  0  0  0  0  0  0  0
   38.9750   23.8490   34.3930 C   0  0  0  0  0  0  0  0  0  0  0  0
   38.3900   25.0600   34.4070 N   0  0  0  0  0  0  0  0  0  0  0  0
   36.8750   24.8180   31.4060 H   0  0  0  0  0  0  0  0  0  0  0  0
   38.0220   22.5950   31.5150 H   0  0  0  0  0  0  0  0  0  0  0  0
   39.7780   23.4290   35.4920 N   0  0  0  0  0  0  0  0  0  0  0  0
   39.1650   22.7220   36.6000 C   0  0  0  0  0  3  0  0  0  0  0  0
   38.9430   21.6890   36.2170 H   0  0  0  0  0  0  0  0  0  0  0  0
   40.1860   22.6170   37.7100 C   0  0  0  0  0  3  0  0  0  0  0  0
   40.5130   23.6450   37.9970 H   0  0  0  0  0  0  0  0  0  0  0  0
   41.2750   21.9240   37.1350 O   0  0  0  0  0  0  0  0  0  0  0  0
   41.9870   22.8570   36.4240 C   0  0  0  0  0  2  0  0  0  0  0  0
   41.2000   23.7140   35.4960 C   0  0  0  0  0  2  0  0  0  0  0  0
   35.6220   31.8790   36.1380 C   0  0  0  0  0  0  0  0  0  0  0  0
   34.7020   32.7060   35.5050 C   0  0  0  0  0  0  0  0  0  0  0  0
   34.2020   32.2840   34.2690 C   0  0  0  0  0  0  0  0  0  0  0  0
   34.6350   31.0920   33.7440 N   0  0  0  0  0  0  0  0  0  0  0  0
   35.5310   30.3430   34.4170 C   0  0  0  0  0  0  0  0  0  0  0  0
   36.0380   30.7010   35.5980 N   0  0  0  0  0  0  0  0  0  0  0  0
   36.0610   32.1330   37.1030 H   0  0  0  0  0  0  0  0  0  0  0  0
   34.4090   33.6310   35.9820 H   0  0  0  0  0  0  0  0  0  0  0  0
   33.4880   32.9000   33.7530 H   0  0  0  0  0  0  0  0  0  0  0  0
  1 28  1  0  0  0  0
  1  5  1  0  0  0  0
  2  1  2  0  0  0  0
  3  2  1  0  0  0  0
  3  4  2  0  0  0  0
  4  5  1  0  0  0  0
  6  2  1  0  0  0  0
  7  3  1  0  0  0  0
  8  4  1  0  0  0  0
  8 13  1  0  0  0  0
  9 10  1  0  0  0  0
  9  8  2  0  0  0  0
 10 11  2  0  0  0  0
 11 12  1  0  0  0  0
 12 13  2  0  0  0  0
 12 16  1  0  0  0  0
 14  9  1  0  0  0  0
 15 10  1  0  0  0  0
 16 23  1  0  0  0  0
 16 17  1  0  0  0  0
 17 19  1  0  0  0  0
 18 17  1  0  0  0  0
 19 20  1  0  0  0  0
 21 19  1  0  0  0  0
 22 21  1  0  0  0  0
 23 22  1  0  0  0  0
 24 30  1  0  0  0  0
 25 31  1  0  0  0  0
 25 24  2  0  0  0  0
 26 25  1  0  0  0  0
 27 26  2  0  0  0  0
 27 28  1  0  0  0  0
 28 29  2  0  0  0  0
 29 24  1  0  0  0  0
 32 26  1  0  0  0  0
M  END
>  <minimizedAffinity>
-5.21328974

$$$$

 OpenBabel03262522533D

 32 35  0  0  0  0  0  0  0  0999 V2000
   37.1030   27.6870   34.0940 C   0  0  0  0  0  0  0  0  0  0  0  0
   37.5390   28.0650   35.2950 C   0  0  0  0  0  0  0  0  0  0  0  0
   38.1490   27.1300   36.1120 C   0  0  0  0  0  0  0  0  0  0  0  0
   38.2560   25.8720   35.6080 C   0  0  0  0  0  0  0  0  0  0  0  0
   37.4880   26.0160   33.9690 S   0  0  0  0  0  0  0  0  0  0  0  0
   37.4090   29.1130   35.6210 H   0  0  0  0  0  0  0  0  0  0  0  0
   38.5370   27.3370   37.1040 H   0  0  0  0  0  0  0  0  0  0  0  0
   38.8440   24.6780   36.2220 C   0  0  0  0  0  0  0  0  0  0  0  0
   38.2140   24.0970   37.2850 C   0  0  0  0  0  0  0  0  0  0  0  0
   38.8100   22.9780   37.8230 C   0  0  0  0  0  0  0  0  0  0  0  0
   39.9710   22.4700   37.3250 N   0  0  0  0  0  0  0  0  0  0  0  0
   40.5160   23.1290   36.2610 C   0  0  0  0  0  0  0  0  0  0  0  0
   39.9860   24.2260   35.6890 N   0  0  0  0  0  0  0  0  0  0  0  0
   37.2940   24.4770   37.7010 H   0  0  0  0  0  0  0  0  0  0  0  0
   38.3920   22.4440   38.6660 H   0  0  0  0  0  0  0  0  0  0  0  0
   41.7290   22.5770   35.7600 N   0  0  0  0  0  0  0  0  0  0  0  0
   42.9990   23.0290   36.2960 C   0  0  0  0  0  3  0  0  0  0  0  0
   43.0770   22.5750   37.3200 H   0  0  0  0  0  0  0  0  0  0  0  0
   44.1010   22.4640   35.4300 C   0  0  0  0  0  3  0  0  0  0  0  0
   43.9440   22.8040   34.3790 H   0  0  0  0  0  0  0  0  0  0  0  0
   43.9310   21.0630   35.4980 O   0  0  0  0  0  0  0  0  0  0  0  0
   42.9300   20.7580   34.6090 C   0  0  0  0  0  2  0  0  0  0  0  0
   41.6870   21.5690   34.7190 C   0  0  0  0  0  2  0  0  0  0  0  0
   34.7260   29.9380   32.4920 C   0  0  0  0  0  0  0  0  0  0  0  0
   35.1490   29.9890   31.1690 C   0  0  0  0  0  0  0  0  0  0  0  0
   36.2750   29.2340   30.8240 C   0  0  0  0  0  0  0  0  0  0  0  0
   36.9010   28.4870   31.7900 N   0  0  0  0  0  0  0  0  0  0  0  0
   36.4320   28.4870   33.0540 C   0  0  0  0  0  0  0  0  0  0  0  0
   35.3640   29.1900   33.4340 N   0  0  0  0  0  0  0  0  0  0  0  0
   33.8590   30.4960   32.8440 H   0  0  0  0  0  0  0  0  0  0  0  0
   34.6030   30.6010   30.4650 H   0  0  0  0  0  0  0  0  0  0  0  0
   36.6270   29.2520   29.8090 H   0  0  0  0  0  0  0  0  0  0  0  0
  1  2  2  0  0  0  0
  2  6  1  0  0  0  0
  2  3  1  0  0  0  0
  3  7  1  0  0  0  0
  4  3  2  0  0  0  0
  4  8  1  0  0  0  0
  5  1  1  0  0  0  0
  5  4  1  0  0  0  0
  8  9  1  0  0  0  0
  9 14  1  0  0  0  0
  9 10  2  0  0  0  0
 10 15  1  0  0  0  0
 11 10  1  0  0  0  0
 12 11  2  0  0  0  0
 13  8  2  0  0  0  0
 13 12  1  0  0  0  0
 16 12  1  0  0  0  0
 16 17  1  0  0  0  0
 17 18  1  0  0  0  0
 19 21  1  0  0  0  0
 19 17  1  0  0  0  0
 20 19  1  0  0  0  0
 22 23  1  0  0  0  0
 22 21  1  0  0  0  0
 23 16  1  0  0  0  0
 24 30  1  0  0  0  0
 24 29  1  0  0  0  0
 25 24  2  0  0  0  0
 26 25  1  0  0  0  0
 26 27  2  0  0  0  0
 27 28  1  0  0  0  0
 28 29  2  0  0  0  0
 28  1  1  0  0  0  0
 31 25  1  0  0  0  0
 32 26  1  0  0  0  0
M  END
>  <minimizedAffinity>
-5.17382526

$$$$

 OpenBabel03262522533D

 32 35  0  0  0  0  0  0  0  0999 V2000
   33.7790   31.7230   35.9550 C   0  0  0  0  0  0  0  0  0  0  0  0
   33.0060   30.6920   35.6170 C   0  0  0  0  0  0  0  0  0  0  0  0
   33.5500   29.6650   34.8670 C   0  0  0  0  0  0  0  0  0  0  0  0
   34.8610   29.7950   34.5310 C   0  0  0  0  0  0  0  0  0  0  0  0
   35.3230   31.3830   35.2810 S   0  0  0  0  0  0  0  0  0  0  0  0
   31.9480   30.6710   35.9360 H   0  0  0  0  0  0  0  0  0  0  0  0
   33.0070   28.7840   34.5410 H   0  0  0  0  0  0  0  0  0  0  0  0
   35.7100   28.8880   33.7540 C   0  0  0  0  0  0  0  0  0  0  0  0
   35.5580   28.8300   32.3980 C   0  0  0  0  0  0  0  0  0  0  0  0
   36.3820   27.9610   31.7190 C   0  0  0  0  0  0  0  0  0  0  0  0
   37.3060   27.1920   32.3600 N   0  0  0  0  0  0  0  0  0  0  0  0
   37.3730   27.3290   33.7160 C   0  0  0  0  0  0  0  0  0  0  0  0
   36.5990   28.1580   34.4410 N   0  0  0  0  0  0  0  0  0  0  0  0
   34.8360   29.4270   31.8630 H   0  0  0  0  0  0  0  0  0  0  0  0
   36.3420   27.8410   30.6450 H   0  0  0  0  0  0  0  0  0  0  0  0
   38.3470   26.5140   34.3610 N   0  0  0  0  0  0  0  0  0  0  0  0
   37.9810   25.1880   34.8220 C   0  0  0  0  0  3  0  0  0  0  0  0
   37.8950   24.5570   33.8970 H   0  0  0  0  0  0  0  0  0  0  0  0
   39.1170   24.6570   35.6660 C   0  0  0  0  0  3  0  0  0  0  0  0
   39.2970   25.3610   36.5130 H   0  0  0  0  0  0  0  0  0  0  0  0
   40.2390   24.6630   34.8080 O   0  0  0  0  0  0  0  0  0  0  0  0
   40.7060   25.9540   34.8010 C   0  0  0  0  0  2  0  0  0  0  0  0
   39.6930   27.0160   34.5540 C   0  0  0  0  0  2  0  0  0  0  0  0
   31.8500   34.4890   37.3380 C   0  0  0  0  0  0  0  0  0  0  0  0
   32.7480   35.1420   38.1740 C   0  0  0  0  0  0  0  0  0  0  0  0
   34.0430   34.6190   38.2620 C   0  0  0  0  0  0  0  0  0  0  0  0
   34.3640   33.5030   37.5310 N   0  0  0  0  0  0  0  0  0  0  0  0
   33.4380   32.9230   36.7410 C   0  0  0  0  0  0  0  0  0  0  0  0
   32.1910   33.3830   36.6230 N   0  0  0  0  0  0  0  0  0  0  0  0
   30.8240   34.8310   37.2130 H   0  0  0  0  0  0  0  0  0  0  0  0
   32.4210   36.0170   38.7190 H   0  0  0  0  0  0  0  0  0  0  0  0
   34.7610   35.1000   38.9000 H   0  0  0  0  0  0  0  0  0  0  0  0
  1 28  1  0  0  0  0
  2  6  1  0  0  0  0
  2  1  2  0  0  0  0
  3  2  1  0  0  0  0
  4  3  2  0  0  0  0
  4  5  1  0  0  0  0
  5  1  1  0  0  0  0
  7  3  1  0  0  0  0
  8 13  1  0  0  0  0
  8  4  1  0  0  0  0
  9  8  2  0  0  0  0
 10 11  2  0  0  0  0
 10  9  1  0  0  0  0
 11 12  1  0  0  0  0
 12 16  1  0  0  0  0
 12 13  2  0  0  0  0
 14  9  1  0  0  0  0
 15 10  1  0  0  0  0
 16 23  1  0  0  0  0
 16 17  1  0  0  0  0
 17 19  1  0  0  0  0
 18 17  1  0  0  0  0
 19 20  1  0  0  0  0
 21 19  1  0  0  0  0
 22 21  1  0  0  0  0
 23 22  1  0  0  0  0
 24 25  1  0  0  0  0
 25 26  2  0  0  0  0
 25 31  1  0  0  0  0
 26 32  1  0  0  0  0
 27 26  1  0  0  0  0
 28 27  2  0  0  0  0
 29 28  1  0  0  0  0
 29 24  2  0  0  0  0
 30 24  1  0  0  0  0
M  END
>  <minimizedAffinity>
-5.13849831

$$$$

 OpenBabel03262522533D

 32 35  0  0  0  0  0  0  0  0999 V2000
   38.6050   25.3860   35.0680 C   0  0  0  0  0  0  0  0  0  0  0  0
   37.5390   26.1330   35.3530 C   0  0  0  0  0  0  0  0  0  0  0  0
   37.0760   27.0290   34.4060 C   0  0  0  0  0  0  0  0  0  0  0  0
   37.7640   27.0720   33.2340 C   0  0  0  0  0  0  0  0  0  0  0  0
   39.0730   25.8370   33.4770 S   0  0  0  0  0  0  0  0  0  0  0  0
   37.0430   26.0300   36.3350 H   0  0  0  0  0  0  0  0  0  0  0  0
   36.2200   27.6800   34.5400 H   0  0  0  0  0  0  0  0  0  0  0  0
   37.5220   27.9040   32.0510 C   0  0  0  0  0  0  0  0  0  0  0  0
   36.3520   28.6010   31.9560 C   0  0  0  0  0  0  0  0  0  0  0  0
   36.1770   29.3670   30.8250 C   0  0  0  0  0  0  0  0  0  0  0  0
   37.1210   29.4310   29.8440 N   0  0  0  0  0  0  0  0  0  0  0  0
   38.2520   28.6940   30.0420 C   0  0  0  0  0  0  0  0  0  0  0  0
   38.4860   27.9260   31.1220 N   0  0  0  0  0  0  0  0  0  0  0  0
   35.5870   28.5700   32.7160 H   0  0  0  0  0  0  0  0  0  0  0  0
   35.2870   29.9560   30.6530 H   0  0  0  0  0  0  0  0  0  0  0  0
   39.2220   28.7790   29.0020 N   0  0  0  0  0  0  0  0  0  0  0  0
   39.1740   27.8400   27.8980 C   0  0  0  0  0  3  0  0  0  0  0  0
   38.2990   28.1540   27.2680 H   0  0  0  0  0  0  0  0  0  0  0  0
   40.4390   28.0060   27.0870 C   0  0  0  0  0  3  0  0  0  0  0  0
   41.3190   27.8290   27.7510 H   0  0  0  0  0  0  0  0  0  0  0  0
   40.4290   29.3580   26.6750 O   0  0  0  0  0  0  0  0  0  0  0  0
   40.8920   30.0850   27.7440 C   0  0  0  0  0  2  0  0  0  0  0  0
   40.2500   29.8010   29.0560 C   0  0  0  0  0  2  0  0  0  0  0  0
   39.2530   23.0620   37.8000 C   0  0  0  0  0  0  0  0  0  0  0  0
   40.4790   22.4930   37.4760 C   0  0  0  0  0  0  0  0  0  0  0  0
   41.0940   22.9200   36.2930 C   0  0  0  0  0  0  0  0  0  0  0  0
   40.4690   23.8650   35.5190 N   0  0  0  0  0  0  0  0  0  0  0  0
   39.2790   24.3720   35.8990 C   0  0  0  0  0  0  0  0  0  0  0  0
   38.6520   23.9980   37.0160 N   0  0  0  0  0  0  0  0  0  0  0  0
   38.7080   22.7850   38.7020 H   0  0  0  0  0  0  0  0  0  0  0  0
   40.9080   21.7540   38.1370 H   0  0  0  0  0  0  0  0  0  0  0  0
   42.0420   22.5000   36.0140 H   0  0  0  0  0  0  0  0  0  0  0  0
  1  2  2  0  0  0  0
  1 28  1  0  0  0  0
  2  6  1  0  0  0  0
  3  7  1  0  0  0  0
  3  2  1  0  0  0  0
  4  5  1  0  0  0  0
  4  3  2  0  0  0  0
  5  1  1  0  0  0  0
  8  4  1  0  0  0  0
  9  8  1  0  0  0  0
  9 14  1  0  0  0  0
 10  9  2  0  0  0  0
 11 12  2  0  0  0  0
 11 10  1  0  0  0  0
 12 13  1  0  0  0  0
 13  8  2  0  0  0  0
 15 10  1  0  0  0  0
 16 23  1  0  0  0  0
 16 12  1  0  0  0  0
 17 16  1  0  0  0  0
 18 17  1  0  0  0  0
 19 20  1  0  0  0  0
 19 17  1  0  0  0  0
 21 19  1  0  0  0  0
 21 22  1  0  0  0  0
 22 23  1  0  0  0  0
 24 30  1  0  0  0  0
 25 24  1  0  0  0  0
 25 31  1  0  0  0  0
 26 25  2  0  0  0  0
 27 28  2  0  0  0  0
 27 26  1  0  0  0  0
 28 29  1  0  0  0  0
 29 24  2  0  0  0  0
 32 26  1  0  0  0  0
M  END
>  <minimizedAffinity>
-5.12838507

$$$$

 OpenBabel03262522533D

 32 35  0  0  0  0  0  0  0  0999 V2000
   33.8060   31.8920   35.5210 C   0  0  0  0  0  0  0  0  0  0  0  0
   33.3540   30.6390   35.5140 C   0  0  0  0  0  0  0  0  0  0  0  0
   33.8000   29.7710   34.5340 C   0  0  0  0  0  0  0  0  0  0  0  0
   34.6860   30.2810   33.6380 C   0  0  0  0  0  0  0  0  0  0  0  0
   34.8860   32.0000   34.1880 S   0  0  0  0  0  0  0  0  0  0  0  0
   32.6330   30.3110   36.2850 H   0  0  0  0  0  0  0  0  0  0  0  0
   33.4930   28.7340   34.4410 H   0  0  0  0  0  0  0  0  0  0  0  0
   35.3330   29.6210   32.5000 C   0  0  0  0  0  0  0  0  0  0  0  0
   35.7680   30.3780   31.4500 C   0  0  0  0  0  0  0  0  0  0  0  0
   36.3680   29.7070   30.4090 C   0  0  0  0  0  0  0  0  0  0  0  0
   36.5240   28.3540   30.4170 N   0  0  0  0  0  0  0  0  0  0  0  0
   36.0530   27.6960   31.5150 C   0  0  0  0  0  0  0  0  0  0  0  0
   35.4570   28.2890   32.5660 N   0  0  0  0  0  0  0  0  0  0  0  0
   35.6580   31.4510   31.4160 H   0  0  0  0  0  0  0  0  0  0  0  0
   36.7470   30.2130   29.5320 H   0  0  0  0  0  0  0  0  0  0  0  0
   36.2280   26.2820   31.4980 N   0  0  0  0  0  0  0  0  0  0  0  0
   35.1950   25.4380   30.9300 C   0  0  0  0  0  3  0  0  0  0  0  0
   35.2640   25.5770   29.8180 H   0  0  0  0  0  0  0  0  0  0  0  0
   35.5310   24.0010   31.2590 C   0  0  0  0  0  3  0  0  0  0  0  0
   35.6010   23.8920   32.3680 H   0  0  0  0  0  0  0  0  0  0  0  0
   36.8070   23.7890   30.6880 O   0  0  0  0  0  0  0  0  0  0  0  0
   37.7130   24.3160   31.5750 C   0  0  0  0  0  2  0  0  0  0  0  0
   37.4360   25.6990   32.0500 C   0  0  0  0  0  2  0  0  0  0  0  0
   31.9250   34.4950   37.2450 C   0  0  0  0  0  0  0  0  0  0  0  0
   32.8370   35.0270   38.1490 C   0  0  0  0  0  0  0  0  0  0  0  0
   34.1240   34.4790   38.1640 C   0  0  0  0  0  0  0  0  0  0  0  0
   34.4240   33.4560   37.2990 N   0  0  0  0  0  0  0  0  0  0  0  0
   33.4870   32.9910   36.4500 C   0  0  0  0  0  0  0  0  0  0  0  0
   32.2460   33.4800   36.3970 N   0  0  0  0  0  0  0  0  0  0  0  0
   30.9030   34.8640   37.1690 H   0  0  0  0  0  0  0  0  0  0  0  0
   32.5250   35.8330   38.7980 H   0  0  0  0  0  0  0  0  0  0  0  0
   34.8520   34.8680   38.8510 H   0  0  0  0  0  0  0  0  0  0  0  0
  1 28  1  0  0  0  0
  2  1  2  0  0  0  0
  2  6  1  0  0  0  0
  3  2  1  0  0  0  0
  4  5  1  0  0  0  0
  4  3  2  0  0  0  0
  5  1  1  0  0  0  0
  7  3  1  0  0  0  0
  8 13  1  0  0  0  0
  8  4  1  0  0  0  0
  9  8  2  0  0  0  0
 10 11  2  0  0  0  0
 10  9  1  0  0  0  0
 11 12  1  0  0  0  0
 12 13  2  0  0  0  0
 14  9  1  0  0  0  0
 15 10  1  0  0  0  0
 16 12  1  0  0  0  0
 16 23  1  0  0  0  0
 17 19  1  0  0  0  0
 17 16  1  0  0  0  0
 18 17  1  0  0  0  0
 19 20  1  0  0  0  0
 21 19  1  0  0  0  0
 21 22  1  0  0  0  0
 22 23  1  0  0  0  0
 24 25  1  0  0  0  0
 25 26  2  0  0  0  0
 25 31  1  0  0  0  0
 26 32  1  0  0  0  0
 27 26  1  0  0  0  0
 28 27  2  0  0  0  0
 29 28  1  0  0  0  0
 29 24  2  0  0  0  0
 30 24  1  0  0  0  0
M  END
>  <minimizedAffinity>
-5.12318802

$$$$

 OpenBabel03262522533D

 32 35  0  0  0  0  0  0  0  0999 V2000
   38.5090   25.3670   35.1820 C   0  0  0  0  0  0  0  0  0  0  0  0
   37.5590   26.2220   35.5580 C   0  0  0  0  0  0  0  0  0  0  0  0
   37.0570   27.1170   34.6310 C   0  0  0  0  0  0  0  0  0  0  0  0
   37.5870   27.0460   33.3810 C   0  0  0  0  0  0  0  0  0  0  0  0
   38.8030   25.7050   33.5230 S   0  0  0  0  0  0  0  0  0  0  0  0
   37.1880   26.2060   36.5990 H   0  0  0  0  0  0  0  0  0  0  0  0
   36.2860   27.8510   34.8370 H   0  0  0  0  0  0  0  0  0  0  0  0
   37.2680   27.8470   32.1950 C   0  0  0  0  0  0  0  0  0  0  0  0
   37.6560   27.4010   30.9650 C   0  0  0  0  0  0  0  0  0  0  0  0
   37.3300   28.1920   29.8870 C   0  0  0  0  0  0  0  0  0  0  0  0
   36.6530   29.3650   30.0310 N   0  0  0  0  0  0  0  0  0  0  0  0
   36.3130   29.7160   31.3060 C   0  0  0  0  0  0  0  0  0  0  0  0
   36.6010   28.9900   32.4020 N   0  0  0  0  0  0  0  0  0  0  0  0
   38.1930   26.4760   30.8200 H   0  0  0  0  0  0  0  0  0  0  0  0
   37.5910   27.9280   28.8710 H   0  0  0  0  0  0  0  0  0  0  0  0
   35.6060   30.9460   31.4290 N   0  0  0  0  0  0  0  0  0  0  0  0
   36.3430   32.1820   31.6130 C   0  0  0  0  0  3  0  0  0  0  0  0
   36.8070   32.4130   30.6170 H   0  0  0  0  0  0  0  0  0  0  0  0
   35.3510   33.2720   31.9500 C   0  0  0  0  0  3  0  0  0  0  0  0
   34.7890   32.9770   32.8680 H   0  0  0  0  0  0  0  0  0  0  0  0
   34.4650   33.3070   30.8500 O   0  0  0  0  0  0  0  0  0  0  0  0
   33.5710   32.2840   31.0500 C   0  0  0  0  0  2  0  0  0  0  0  0
   34.1570   30.9540   31.3710 C   0  0  0  0  0  2  0  0  0  0  0  0
   39.2490   23.0440   37.8920 C   0  0  0  0  0  0  0  0  0  0  0  0
   40.4170   22.4110   37.4840 C   0  0  0  0  0  0  0  0  0  0  0  0
   40.9590   22.7920   36.2510 C   0  0  0  0  0  0  0  0  0  0  0  0
   40.3250   23.7590   35.5130 N   0  0  0  0  0  0  0  0  0  0  0  0
   39.1940   24.3290   35.9740 C   0  0  0  0  0  0  0  0  0  0  0  0
   38.6370   24.0010   37.1420 N   0  0  0  0  0  0  0  0  0  0  0  0
   38.7620   22.8060   38.8370 H   0  0  0  0  0  0  0  0  0  0  0  0
   40.8590   21.6580   38.1220 H   0  0  0  0  0  0  0  0  0  0  0  0
   41.8620   22.3210   35.9070 H   0  0  0  0  0  0  0  0  0  0  0  0
  1  2  2  0  0  0  0
  1 28  1  0  0  0  0
  2  6  1  0  0  0  0
  3  7  1  0  0  0  0
  3  2  1  0  0  0  0
  4  5  1  0  0  0  0
  4  3  2  0  0  0  0
  5  1  1  0  0  0  0
  8 13  1  0  0  0  0
  8  4  1  0  0  0  0
  9  8  2  0  0  0  0
 10 11  2  0  0  0  0
 10  9  1  0  0  0  0
 11 12  1  0  0  0  0
 12 16  1  0  0  0  0
 12 13  2  0  0  0  0
 14  9  1  0  0  0  0
 15 10  1  0  0  0  0
 16 17  1  0  0  0  0
 17 19  1  0  0  0  0
 18 17  1  0  0  0  0
 19 20  1  0  0  0  0
 21 22  1  0  0  0  0
 21 19  1  0  0  0  0
 22 23  1  0  0  0  0
 23 16  1  0  0  0  0
 24 30  1  0  0  0  0
 25 24  1  0  0  0  0
 25 31  1  0  0  0  0
 26 25  2  0  0  0  0
 27 28  2  0  0  0  0
 27 26  1  0  0  0  0
 28 29  1  0  0  0  0
 29 24  2  0  0  0  0
 32 26  1  0  0  0  0
M  END
>  <minimizedAffinity>
-5.12082529

$$$$
