
 OpenBabel03272508463D

 39 43  0  0  0  0  0  0  0  0999 V2000
   35.4750   29.4830   49.5920 C   0  0  0  0  0  0  0  0  0  0  0  0
   36.5120   29.0240   50.3880 C   0  0  0  0  0  0  0  0  0  0  0  0
   37.6490   29.5220   49.7570 C   0  0  0  0  0  0  0  0  0  0  0  0
   37.2750   30.2300   48.6540 C   0  0  0  0  0  0  0  0  0  0  0  0
   35.9610   30.1810   48.5900 O   0  0  0  0  0  0  0  0  0  0  0  0
   36.4530   28.4200   51.2910 H   0  0  0  0  0  0  0  0  0  0  0  0
   38.6490   29.3600   50.1030 H   0  0  0  0  0  0  0  0  0  0  0  0
   38.5400   32.2170   47.9730 C   0  0  0  0  0  0  0  0  0  0  0  0
   38.1420   30.9210   47.7020 C   0  0  0  0  0  0  0  0  0  0  0  0
   38.5460   30.2690   46.5520 C   0  0  0  0  0  0  0  0  0  0  0  0
   39.3700   30.9150   45.6370 C   0  0  0  0  0  0  0  0  0  0  0  0
   39.9190   30.5490   44.4510 N   0  0  0  0  0  0  0  0  0  0  0  0
   40.6170   31.5850   44.0300 N   0  0  0  0  0  0  0  0  0  0  0  0
   40.5320   32.6040   44.9110 C   0  0  0  0  0  0  0  0  0  0  0  0
   39.7300   32.1970   45.9630 C   0  0  0  0  0  0  0  0  0  0  0  0
   39.3720   32.9050   47.0750 C   0  0  0  0  0  0  0  0  0  0  0  0
   38.2010   32.6980   48.8910 H   0  0  0  0  0  0  0  0  0  0  0  0
   38.2230   29.2550   46.3590 H   0  0  0  0  0  0  0  0  0  0  0  0
   39.7460   29.5970   44.0520 H   0  0  0  0  0  0  0  0  0  0  0  0
   41.0210   33.5630   44.7880 H   0  0  0  0  0  0  0  0  0  0  0  0
   39.6820   33.9000   47.2770 H   0  0  0  0  0  0  0  0  0  0  0  0
   34.0680   29.2190   49.8440 C   0  0  0  0  0  0  0  0  0  0  0  0
   33.4970   29.8360   50.7700 O   0  0  0  0  0  0  0  0  0  0  0  0
   31.3360   27.2030   48.4950 C   0  0  0  0  0  0  0  0  0  0  0  0
   31.9610   26.4390   47.5040 C   0  0  0  0  0  0  0  0  0  0  0  0
   33.3040   26.6150   47.3020 C   0  0  0  0  0  0  0  0  0  0  0  0
   33.9820   27.5020   48.0480 N   0  0  0  0  0  0  0  0  0  0  0  0
   33.3600   28.2460   49.0170 C   0  0  0  0  0  0  0  0  0  0  0  0
   32.0290   28.0860   49.2310 N   0  0  0  0  0  0  0  0  0  0  0  0
   30.2840   27.1440   48.7370 H   0  0  0  0  0  0  0  0  0  0  0  0
   31.3720   25.7540   46.9470 H   0  0  0  0  0  0  0  0  0  0  0  0
   34.0020   25.8720   46.3120 N   0  0  0  0  0  0  0  0  0  0  0  0
   34.4330   26.4390   45.0550 C   0  0  0  0  0  3  0  0  0  0  0  0
   33.8450   27.2770   44.6910 H   0  0  0  0  0  0  0  0  0  0  0  0
   34.4160   25.3140   44.0190 C   0  0  0  0  0  3  0  0  0  0  0  0
   34.6210   25.7180   42.9990 H   0  0  0  0  0  0  0  0  0  0  0  0
   35.2740   24.2850   44.3520 O   0  0  0  0  0  0  0  0  0  0  0  0
   35.5540   24.1630   45.6890 C   0  0  0  0  0  2  0  0  0  0  0  0
   34.3250   24.4740   46.5160 C   0  0  0  0  0  2  0  0  0  0  0  0
  1 22  1  0  0  0  0
  1  2  2  0  0  0  0
  2  6  1  0  0  0  0
  3  7  1  0  0  0  0
  3  2  1  0  0  0  0
  4  3  2  0  0  0  0
  5  4  1  0  0  0  0
  5  1  1  0  0  0  0
  8 17  1  0  0  0  0
  9  8  1  0  0  0  0
  9  4  1  0  0  0  0
 10  9  2  0  0  0  0
 11 15  2  0  0  0  0
 11 10  1  0  0  0  0
 12 11  1  0  0  0  0
 13 12  1  0  0  0  0
 13 14  2  0  0  0  0
 14 15  1  0  0  0  0
 15 16  1  0  0  0  0
 16 21  1  0  0  0  0
 16  8  2  0  0  0  0
 18 10  1  0  0  0  0
 19 12  1  0  0  0  0
 20 14  1  0  0  0  0
 22 23  2  0  0  0  0
 24 30  1  0  0  0  0
 24 29  1  0  0  0  0
 25 24  2  0  0  0  0
 26 25  1  0  0  0  0
 26 27  2  0  0  0  0
 27 28  1  0  0  0  0
 28 29  2  0  0  0  0
 28 22  1  0  0  0  0
 31 25  1  0  0  0  0
 32 39  1  0  0  0  0
 32 26  1  0  0  0  0
 33 32  1  0  0  0  0
 34 33  1  0  0  0  0
 35 37  1  0  0  0  0
 35 33  1  0  0  0  0
 36 35  1  0  0  0  0
 37 38  1  0  0  0  0
 38 39  1  0  0  0  0
M  END
>  <minimizedAffinity>
-6.18302679

>  <minimizedRMSD>
0.581243038

$$$$
