
 OpenBabel03272508473D

 39 43  0  0  0  0  0  0  0  0999 V2000
   35.6130   29.7550   49.6530 C   0  0  0  0  0  0  0  0  0  0  0  0
   36.5810   29.6700   50.6400 C   0  0  0  0  0  0  0  0  0  0  0  0
   37.7140   30.2000   50.0300 C   0  0  0  0  0  0  0  0  0  0  0  0
   37.4040   30.5680   48.7540 C   0  0  0  0  0  0  0  0  0  0  0  0
   36.1330   30.2830   48.5680 O   0  0  0  0  0  0  0  0  0  0  0  0
   36.4800   29.2830   51.6520 H   0  0  0  0  0  0  0  0  0  0  0  0
   38.6680   30.2930   50.5070 H   0  0  0  0  0  0  0  0  0  0  0  0
   38.7770   32.4420   47.9710 C   0  0  0  0  0  0  0  0  0  0  0  0
   38.2910   31.1660   47.7580 C   0  0  0  0  0  0  0  0  0  0  0  0
   38.6260   30.4460   46.6270 C   0  0  0  0  0  0  0  0  0  0  0  0
   39.4680   31.0030   45.6710 C   0  0  0  0  0  0  0  0  0  0  0  0
   39.9650   30.5580   44.4890 N   0  0  0  0  0  0  0  0  0  0  0  0
   40.7190   31.5300   44.0130 N   0  0  0  0  0  0  0  0  0  0  0  0
   40.7190   32.5850   44.8560 C   0  0  0  0  0  0  0  0  0  0  0  0
   39.9160   32.2700   45.9390 C   0  0  0  0  0  0  0  0  0  0  0  0
   39.6300   33.0410   47.0290 C   0  0  0  0  0  0  0  0  0  0  0  0
   38.4910   32.9790   48.8760 H   0  0  0  0  0  0  0  0  0  0  0  0
   38.2350   29.4490   46.4800 H   0  0  0  0  0  0  0  0  0  0  0  0
   39.7230   29.6040   44.1300 H   0  0  0  0  0  0  0  0  0  0  0  0
   41.2640   33.5050   44.6850 H   0  0  0  0  0  0  0  0  0  0  0  0
   40.0080   34.0210   47.1870 H   0  0  0  0  0  0  0  0  0  0  0  0
   34.2360   29.3180   49.8140 C   0  0  0  0  0  0  0  0  0  0  0  0
   33.6300   29.6130   50.8670 O   0  0  0  0  0  0  0  0  0  0  0  0
   31.8240   27.1750   48.1000 C   0  0  0  0  0  0  0  0  0  0  0  0
   32.3370   27.0880   46.8020 C   0  0  0  0  0  0  0  0  0  0  0  0
   33.4980   27.7590   46.5200 C   0  0  0  0  0  0  0  0  0  0  0  0
   34.1080   28.4720   47.4790 N   0  0  0  0  0  0  0  0  0  0  0  0
   33.5960   28.5510   48.7480 C   0  0  0  0  0  0  0  0  0  0  0  0
   32.4470   27.8930   49.0470 N   0  0  0  0  0  0  0  0  0  0  0  0
   30.9170   26.6870   48.4310 H   0  0  0  0  0  0  0  0  0  0  0  0
   31.8100   26.5090   46.0870 H   0  0  0  0  0  0  0  0  0  0  0  0
   34.0750   27.7140   45.2220 N   0  0  0  0  0  0  0  0  0  0  0  0
   34.7050   28.8530   44.5970 C   0  0  0  0  0  3  0  0  0  0  0  0
   34.3460   29.8270   44.9220 H   0  0  0  0  0  0  0  0  0  0  0  0
   34.5050   28.7130   43.0860 C   0  0  0  0  0  3  0  0  0  0  0  0
   34.8620   29.6280   42.5580 H   0  0  0  0  0  0  0  0  0  0  0  0
   35.0850   27.5650   42.5880 O   0  0  0  0  0  0  0  0  0  0  0  0
   35.2410   26.5450   43.4930 C   0  0  0  0  0  2  0  0  0  0  0  0
   34.0610   26.4940   44.4390 C   0  0  0  0  0  2  0  0  0  0  0  0
  1 22  1  0  0  0  0
  1  2  2  0  0  0  0
  2  6  1  0  0  0  0
  3  7  1  0  0  0  0
  3  2  1  0  0  0  0
  4  3  2  0  0  0  0
  5  4  1  0  0  0  0
  5  1  1  0  0  0  0
  8 17  1  0  0  0  0
  9  8  1  0  0  0  0
  9  4  1  0  0  0  0
 10  9  2  0  0  0  0
 11 15  2  0  0  0  0
 11 10  1  0  0  0  0
 12 11  1  0  0  0  0
 13 12  1  0  0  0  0
 13 14  2  0  0  0  0
 14 15  1  0  0  0  0
 15 16  1  0  0  0  0
 16 21  1  0  0  0  0
 16  8  2  0  0  0  0
 18 10  1  0  0  0  0
 19 12  1  0  0  0  0
 20 14  1  0  0  0  0
 22 23  2  0  0  0  0
 24 30  1  0  0  0  0
 24 29  1  0  0  0  0
 25 24  2  0  0  0  0
 26 25  1  0  0  0  0
 26 27  2  0  0  0  0
 27 28  1  0  0  0  0
 28 29  2  0  0  0  0
 28 22  1  0  0  0  0
 31 25  1  0  0  0  0
 32 26  1  0  0  0  0
 33 34  1  0  0  0  0
 33 32  1  0  0  0  0
 35 33  1  0  0  0  0
 36 35  1  0  0  0  0
 37 35  1  0  0  0  0
 37 38  1  0  0  0  0
 38 39  1  0  0  0  0
 39 32  1  0  0  0  0
M  END
>  <minimizedAffinity>
-6.51366138

>  <minimizedRMSD>
1.71516299

$$$$
