
 OpenBabel03272505483D

 39 43  0  0  1  0  0  0  0  0999 V2000
   36.5720   30.5220   46.0580 C   0  0  0  0  0  0  0  0  0  0  0  0
   37.1950   30.7940   47.2260 C   0  0  0  0  0  0  0  0  0  0  0  0
   36.5510   30.5580   48.4400 C   0  0  0  0  0  0  0  0  0  0  0  0
   35.2610   30.0400   48.4060 C   0  0  0  0  0  0  0  0  0  0  0  0
   34.6250   29.7620   47.2070 C   0  0  0  0  0  0  0  0  0  0  0  0
   35.3130   30.0170   46.0750 N   0  0  0  0  0  0  0  0  0  0  0  0
   38.1980   31.1960   47.2380 H   0  0  0  0  0  0  0  0  0  0  0  0
   37.0480   30.7750   49.3680 H   0  0  0  0  0  0  0  0  0  0  0  0
   34.7280   29.8430   49.3260 H   0  0  0  0  0  0  0  0  0  0  0  0
   37.2550   30.7710   44.7330 C   0  0  0  0  0  0  0  0  0  0  0  0
   36.9880   29.8520   43.6140 C   0  0  0  0  0  0  0  0  0  0  0  0
   36.4010   31.2340   43.5980 C   0  0  0  0  0  0  0  0  0  0  0  0
   37.7390   29.6440   42.8430 H   0  0  0  0  0  0  0  0  0  0  0  0
   36.2420   29.0330   43.7730 H   0  0  0  0  0  0  0  0  0  0  0  0
   36.8450   31.9870   42.9000 H   0  0  0  0  0  0  0  0  0  0  0  0
   35.3220   31.3960   43.7950 H   0  0  0  0  0  0  0  0  0  0  0  0
   39.8590   33.3780   44.9760 C   0  0  0  0  0  0  0  0  0  0  0  0
   41.0120   32.6360   45.2600 C   0  0  0  0  0  0  0  0  0  0  0  0
   40.8860   31.2400   45.3650 C   0  0  0  0  0  0  0  0  0  0  0  0
   39.6750   30.6680   45.1920 N   0  0  0  0  0  0  0  0  0  0  0  0
   38.5700   31.4310   44.9160 C   0  0  0  0  0  0  0  0  0  0  0  0
   38.6600   32.7700   44.8090 N   0  0  0  0  0  0  0  0  0  0  0  0
   39.9910   34.4500   44.9010 H   0  0  0  0  0  0  0  0  0  0  0  0
   41.9950   33.0290   45.4050 H   0  0  0  0  0  0  0  0  0  0  0  0
   41.6770   30.5340   45.5780 H   0  0  0  0  0  0  0  0  0  0  0  0
   33.2680   29.2160   47.1070 C   0  0  0  0  0  0  0  0  0  0  0  0
   32.3270   29.3400   46.1280 N   0  0  0  0  0  0  0  0  0  0  0  0
   31.2300   28.6410   46.5110 C   0  0  0  0  0  0  0  0  0  0  0  0
   31.4870   28.0860   47.7240 N   0  0  0  0  0  0  0  0  0  0  0  0
   32.7270   28.4330   48.0900 N   0  0  0  0  0  0  0  0  0  0  0  0
   30.2910   28.5130   45.9880 H   0  0  0  0  0  0  0  0  0  0  0  0
   30.6650   29.0320   49.6700 H   0  0  0  0  0  0  0  0  0  0  0  0
   30.3760   28.0300   49.7430 N   0  0  0  0  0  0  0  0  0  0  0  0
   30.6610   27.2470   48.5800 C   0  0  1  0  0  0  0  0  0  0  0  0
   29.5330   26.7280   47.7960 C   0  0  0  0  0  0  0  0  0  0  0  0
   29.6500   25.6110   47.6770 H   0  0  0  0  0  0  0  0  0  0  0  0
   28.2710   26.8950   48.3320 O   0  0  0  0  0  0  0  0  0  0  0  0
   28.1170   28.0840   49.0190 C   0  0  0  0  0  0  0  0  0  0  0  0
   29.0320   27.9890   50.2220 C   0  0  0  0  0  0  0  0  0  0  0  0
  1  6  2  0  0  0  0
  1  2  1  0  0  0  0
  2  7  1  0  0  0  0
  2  3  2  0  0  0  0
  3  8  1  0  0  0  0
  4  3  1  0  0  0  0
  4  9  1  0  0  0  0
  5  4  2  0  0  0  0
  6  5  1  0  0  0  0
 10 21  1  0  0  0  0
 10  1  1  0  0  0  0
 11 14  1  0  0  0  0
 11 10  1  0  0  0  0
 12 11  1  0  0  0  0
 12 16  1  0  0  0  0
 12 10  1  0  0  0  0
 13 11  1  0  0  0  0
 15 12  1  0  0  0  0
 17 18  1  0  0  0  0
 18 19  2  0  0  0  0
 18 24  1  0  0  0  0
 19 25  1  0  0  0  0
 20 19  1  0  0  0  0
 21 20  2  0  0  0  0
 22 21  1  0  0  0  0
 22 17  2  0  0  0  0
 23 17  1  0  0  0  0
 26  5  1  0  0  0  0
 26 30  2  0  0  0  0
 27 28  2  0  0  0  0
 27 26  1  0  0  0  0
 28 29  1  0  0  0  0
 29 30  1  0  0  0  0
 31 28  1  0  0  0  0
 32 33  1  0  0  0  0
 33 39  1  0  0  0  0
 34 29  1  6  0  0  0
 34 33  1  0  0  0  0
 35 37  1  0  0  0  0
 35 34  1  0  0  0  0
 36 35  1  0  0  0  0
 37 38  1  0  0  0  0
 38 39  1  0  0  0  0
M  END
>  <minimizedAffinity>
-6.21574163

>  <minimizedRMSD>
0.545656919

$$$$
