
 OpenBabel03272510183D

 35 38  0  0  0  0  0  0  0  0999 V2000
   37.3540   29.2210   50.8640 Br  0  0  0  0  0  0  0  0  0  0  0  0
   35.9730   29.2780   49.5540 C   0  0  0  0  0  0  0  0  0  0  0  0
   35.9770   30.2630   48.5550 C   0  0  0  0  0  0  0  0  0  0  0  0
   34.9500   30.2440   47.6450 C   0  0  0  0  0  0  0  0  0  0  0  0
   33.9260   29.3090   47.6690 C   0  0  0  0  0  0  0  0  0  0  0  0
   33.9520   28.3620   48.6570 C   0  0  0  0  0  0  0  0  0  0  0  0
   34.9710   28.3600   49.5820 C   0  0  0  0  0  0  0  0  0  0  0  0
   34.9070   30.9830   46.8520 H   0  0  0  0  0  0  0  0  0  0  0  0
   33.1700   27.6120   48.7120 H   0  0  0  0  0  0  0  0  0  0  0  0
   34.9870   27.6080   50.3620 H   0  0  0  0  0  0  0  0  0  0  0  0
   32.8400   29.2900   46.7050 C   0  0  0  0  0  0  0  0  0  0  0  0
   32.1610   28.1640   46.3030 C   0  0  0  0  0  0  0  0  0  0  0  0
   31.1310   28.1920   45.3810 C   0  0  0  0  0  0  0  0  0  0  0  0
   30.7610   29.3690   44.8380 N   0  0  0  0  0  0  0  0  0  0  0  0
   31.4200   30.4660   45.2270 C   0  0  0  0  0  0  0  0  0  0  0  0
   32.4080   30.4230   46.1150 N   0  0  0  0  0  0  0  0  0  0  0  0
   32.4570   27.2060   46.7390 H   0  0  0  0  0  0  0  0  0  0  0  0
   30.6460   27.2490   45.1180 H   0  0  0  0  0  0  0  0  0  0  0  0
   31.0440   31.7150   44.6680 N   0  0  0  0  0  0  0  0  0  0  0  0
   29.9810   31.8580   43.6950 C   0  0  0  0  0  3  0  0  0  0  0  0
   29.1130   32.3630   44.1990 H   0  0  0  0  0  0  0  0  0  0  0  0
   30.4560   32.6950   42.5010 C   0  0  0  0  0  3  0  0  0  0  0  0
   31.0630   32.0510   41.8470 H   0  0  0  0  0  0  0  0  0  0  0  0
   31.1390   33.8230   42.9040 O   0  0  0  0  0  0  0  0  0  0  0  0
   32.2190   33.5350   43.7080 C   0  0  0  0  0  2  0  0  0  0  0  0
   31.6940   32.9610   45.0220 C   0  0  0  0  0  2  0  0  0  0  0  0
   37.9880   33.1660   49.4530 C   0  0  0  0  0  0  0  0  0  0  0  0
   39.0140   33.1690   48.4460 C   0  0  0  0  0  0  0  0  0  0  0  0
   38.9820   32.1730   47.4910 C   0  0  0  0  0  0  0  0  0  0  0  0
   37.9860   31.2320   47.5380 N   0  0  0  0  0  0  0  0  0  0  0  0
   37.0290   31.2520   48.5000 C   0  0  0  0  0  0  0  0  0  0  0  0
   37.0460   32.2240   49.4460 N   0  0  0  0  0  0  0  0  0  0  0  0
   37.9680   33.9240   50.2240 H   0  0  0  0  0  0  0  0  0  0  0  0
   39.7680   33.9450   48.4740 H   0  0  0  0  0  0  0  0  0  0  0  0
   39.7380   32.1400   46.7140 H   0  0  0  0  0  0  0  0  0  0  0  0
  2  7  1  0  0  0  0
  2  1  1  0  0  0  0
  3  2  2  0  0  0  0
  4  5  2  0  0  0  0
  4  3  1  0  0  0  0
  5  6  1  0  0  0  0
  6  9  1  0  0  0  0
  6  7  2  0  0  0  0
  7 10  1  0  0  0  0
  8  4  1  0  0  0  0
 11  5  1  0  0  0  0
 12 11  1  0  0  0  0
 12 17  1  0  0  0  0
 13 12  2  0  0  0  0
 14 15  2  0  0  0  0
 14 13  1  0  0  0  0
 15 16  1  0  0  0  0
 16 11  2  0  0  0  0
 18 13  1  0  0  0  0
 19 26  1  0  0  0  0
 19 15  1  0  0  0  0
 20 21  1  0  0  0  0
 20 19  1  0  0  0  0
 22 24  1  0  0  0  0
 22 20  1  0  0  0  0
 23 22  1  0  0  0  0
 24 25  1  0  0  0  0
 25 26  1  0  0  0  0
 27 33  1  0  0  0  0
 28 34  1  0  0  0  0
 28 27  2  0  0  0  0
 29 30  2  0  0  0  0
 29 28  1  0  0  0  0
 30 31  1  0  0  0  0
 31  3  1  0  0  0  0
 31 32  2  0  0  0  0
 32 27  1  0  0  0  0
 35 29  1  0  0  0  0
M  END
>  <minimizedAffinity>
-6.6776557

>  <minimizedRMSD>
0.160220727

$$$$
