
 OpenBabel03272509513D

 32 34  0  0  0  0  0  0  0  0999 V2000
   37.8420   27.2740   33.5670 O   0  0  0  0  0  0  0  0  0  0  0  0
   35.3230   26.3850   31.1270 C   0  0  0  0  0  0  0  0  0  0  0  0
   35.5150   24.9810   31.0660 C   0  0  0  0  0  0  0  0  0  0  0  0
   36.5010   24.4590   31.8760 C   0  0  0  0  0  0  0  0  0  0  0  0
   37.2240   25.2900   32.6730 N   0  0  0  0  0  0  0  0  0  0  0  0
   37.0120   26.6220   32.7030 C   0  0  0  0  0  0  0  0  0  0  0  0
   36.0480   27.1730   31.9180 N   0  0  0  0  0  0  0  0  0  0  0  0
   34.5780   26.9080   30.5370 H   0  0  0  0  0  0  0  0  0  0  0  0
   34.8810   24.4180   30.3970 H   0  0  0  0  0  0  0  0  0  0  0  0
   36.7210   23.0550   31.8420 N   0  0  0  0  0  0  0  0  0  0  0  0
   35.6980   22.2370   31.2240 C   0  0  0  0  0  3  0  0  0  0  0  0
   34.7980   22.1890   31.8750 H   0  0  0  0  0  0  0  0  0  0  0  0
   36.2850   20.8220   31.1630 C   0  0  0  0  0  3  0  0  0  0  0  0
   35.4320   20.1810   30.8230 H   0  0  0  0  0  0  0  0  0  0  0  0
   36.6270   20.3800   32.4180 O   0  0  0  0  0  0  0  0  0  0  0  0
   37.6060   21.1140   33.0460 C   0  0  0  0  0  2  0  0  0  0  0  0
   37.9060   22.4220   32.3900 C   0  0  0  0  0  2  0  0  0  0  0  0
   37.3990   27.4510   34.9160 C   0  0  0  0  0  0  0  0  0  0  0  0
   37.0860   28.5090   35.0180 H   0  0  0  0  0  0  0  0  0  0  0  0
   36.5120   26.7970   35.0250 H   0  0  0  0  0  0  0  0  0  0  0  0
   38.4980   27.0680   35.8720 C   0  0  0  0  0  0  0  0  0  0  0  0
   39.4550   27.5050   35.4910 H   0  0  0  0  0  0  0  0  0  0  0  0
   38.3320   27.4550   36.8880 H   0  0  0  0  0  0  0  0  0  0  0  0
   38.7110   25.5950   35.9090 C   0  0  0  0  0  0  0  0  0  0  0  0
   37.8020   24.8420   36.6430 C   0  0  0  0  0  0  0  0  0  0  0  0
   37.8990   23.4730   36.7480 C   0  0  0  0  0  0  0  0  0  0  0  0
   38.9040   22.8480   36.1210 N   0  0  0  0  0  0  0  0  0  0  0  0
   39.7910   23.5850   35.4050 C   0  0  0  0  0  0  0  0  0  0  0  0
   39.7080   24.9290   35.2920 N   0  0  0  0  0  0  0  0  0  0  0  0
   36.9810   25.3360   37.1570 H   0  0  0  0  0  0  0  0  0  0  0  0
   37.1700   22.9240   37.3300 H   0  0  0  0  0  0  0  0  0  0  0  0
   40.6030   23.0810   34.8970 H   0  0  0  0  0  0  0  0  0  0  0  0
  1 18  1  0  0  0  0
  2  7  1  0  0  0  0
  3  2  2  0  0  0  0
  3  4  1  0  0  0  0
  4  5  2  0  0  0  0
  5  6  1  0  0  0  0
  6  1  1  0  0  0  0
  7  6  2  0  0  0  0
  8  2  1  0  0  0  0
  9  3  1  0  0  0  0
 10  4  1  0  0  0  0
 10 17  1  0  0  0  0
 11 10  1  0  0  0  0
 11 12  1  0  0  0  0
 13 11  1  0  0  0  0
 13 15  1  0  0  0  0
 14 13  1  0  0  0  0
 15 16  1  0  0  0  0
 17 16  1  0  0  0  0
 18 19  1  0  0  0  0
 18 20  1  0  0  0  0
 18 21  1  0  0  0  0
 21 24  1  0  0  0  0
 21 23  1  0  0  0  0
 22 21  1  0  0  0  0
 24 25  1  0  0  0  0
 25 26  2  0  0  0  0
 25 30  1  0  0  0  0
 26 31  1  0  0  0  0
 27 26  1  0  0  0  0
 28 27  2  0  0  0  0
 29 28  1  0  0  0  0
 29 24  2  0  0  0  0
 32 28  1  0  0  0  0
M  END
>  <minimizedAffinity>
-4.97452927

$$$$

 OpenBabel03272509513D

 32 34  0  0  0  0  0  0  0  0999 V2000
   35.4020   29.0950   34.5680 O   0  0  0  0  0  0  0  0  0  0  0  0
   37.5960   27.5930   32.1150 C   0  0  0  0  0  0  0  0  0  0  0  0
   38.1280   26.5200   32.8750 C   0  0  0  0  0  0  0  0  0  0  0  0
   37.6810   26.4060   34.1740 C   0  0  0  0  0  0  0  0  0  0  0  0
   36.7770   27.3020   34.6540 N   0  0  0  0  0  0  0  0  0  0  0  0
   36.2950   28.3100   33.9000 C   0  0  0  0  0  0  0  0  0  0  0  0
   36.7120   28.4550   32.6130 N   0  0  0  0  0  0  0  0  0  0  0  0
   37.8720   27.7840   31.0830 H   0  0  0  0  0  0  0  0  0  0  0  0
   38.8390   25.8690   32.3900 H   0  0  0  0  0  0  0  0  0  0  0  0
   38.1920   25.3410   34.9650 N   0  0  0  0  0  0  0  0  0  0  0  0
   38.8790   24.2700   34.2740 C   0  0  0  0  0  3  0  0  0  0  0  0
   38.1510   23.6460   33.7110 H   0  0  0  0  0  0  0  0  0  0  0  0
   39.4720   23.3850   35.3770 C   0  0  0  0  0  3  0  0  0  0  0  0
   39.8690   22.4890   34.8320 H   0  0  0  0  0  0  0  0  0  0  0  0
   38.4880   22.9240   36.2170 O   0  0  0  0  0  0  0  0  0  0  0  0
   37.8120   23.9010   36.9110 C   0  0  0  0  0  2  0  0  0  0  0  0
   38.0550   25.2870   36.4090 C   0  0  0  0  0  2  0  0  0  0  0  0
   35.5250   30.5140   34.4340 C   0  0  0  0  0  0  0  0  0  0  0  0
   36.1820   30.7010   33.5610 H   0  0  0  0  0  0  0  0  0  0  0  0
   34.5050   30.8800   34.2050 H   0  0  0  0  0  0  0  0  0  0  0  0
   36.0590   31.1060   35.7110 C   0  0  0  0  0  0  0  0  0  0  0  0
   36.1680   30.2800   36.4560 H   0  0  0  0  0  0  0  0  0  0  0  0
   37.0460   31.5750   35.5820 H   0  0  0  0  0  0  0  0  0  0  0  0
   35.1030   32.0740   36.3140 C   0  0  0  0  0  0  0  0  0  0  0  0
   33.8620   31.5820   36.7000 C   0  0  0  0  0  0  0  0  0  0  0  0
   32.8980   32.3840   37.2690 C   0  0  0  0  0  0  0  0  0  0  0  0
   33.1680   33.6830   37.4550 N   0  0  0  0  0  0  0  0  0  0  0  0
   34.3800   34.1620   37.0770 C   0  0  0  0  0  0  0  0  0  0  0  0
   35.3360   33.3870   36.5180 N   0  0  0  0  0  0  0  0  0  0  0  0
   33.6290   30.5300   36.5560 H   0  0  0  0  0  0  0  0  0  0  0  0
   31.9440   31.9600   37.5550 H   0  0  0  0  0  0  0  0  0  0  0  0
   34.6000   35.2110   37.2270 H   0  0  0  0  0  0  0  0  0  0  0  0
  2  7  2  0  0  0  0
  2  3  1  0  0  0  0
  3  4  2  0  0  0  0
  4  5  1  0  0  0  0
  4 10  1  0  0  0  0
  6  1  1  0  0  0  0
  6  5  2  0  0  0  0
  7  6  1  0  0  0  0
  8  2  1  0  0  0  0
  9  3  1  0  0  0  0
 10 17  1  0  0  0  0
 11 10  1  0  0  0  0
 11 13  1  0  0  0  0
 12 11  1  0  0  0  0
 13 15  1  0  0  0  0
 14 13  1  0  0  0  0
 15 16  1  0  0  0  0
 17 16  1  0  0  0  0
 18  1  1  0  0  0  0
 18 21  1  0  0  0  0
 19 18  1  0  0  0  0
 20 18  1  0  0  0  0
 21 24  1  0  0  0  0
 21 22  1  0  0  0  0
 23 21  1  0  0  0  0
 24 29  2  0  0  0  0
 24 25  1  0  0  0  0
 25 26  2  0  0  0  0
 26 27  1  0  0  0  0
 26 31  1  0  0  0  0
 28 32  1  0  0  0  0
 28 27  2  0  0  0  0
 29 28  1  0  0  0  0
 30 25  1  0  0  0  0
M  END
>  <minimizedAffinity>
-4.91878414

$$$$

 OpenBabel03272509513D

 32 34  0  0  0  0  0  0  0  0999 V2000
   37.2210   25.8300   33.2920 O   0  0  0  0  0  0  0  0  0  0  0  0
   36.5170   28.0750   30.5450 C   0  0  0  0  0  0  0  0  0  0  0  0
   36.1250   29.2350   31.2610 C   0  0  0  0  0  0  0  0  0  0  0  0
   36.1370   29.1420   32.6370 C   0  0  0  0  0  0  0  0  0  0  0  0
   36.5140   27.9770   33.2270 N   0  0  0  0  0  0  0  0  0  0  0  0
   36.8800   26.8940   32.5110 C   0  0  0  0  0  0  0  0  0  0  0  0
   36.8810   26.9480   31.1520 N   0  0  0  0  0  0  0  0  0  0  0  0
   36.5470   28.0280   29.4610 H   0  0  0  0  0  0  0  0  0  0  0  0
   35.8460   30.1060   30.6870 H   0  0  0  0  0  0  0  0  0  0  0  0
   35.7500   30.2860   33.3870 N   0  0  0  0  0  0  0  0  0  0  0  0
   35.6900   31.5510   32.6860 C   0  0  0  0  0  3  0  0  0  0  0  0
   36.7160   31.9150   32.4580 H   0  0  0  0  0  0  0  0  0  0  0  0
   35.0730   32.5420   33.6810 C   0  0  0  0  0  3  0  0  0  0  0  0
   35.1700   33.5390   33.1780 H   0  0  0  0  0  0  0  0  0  0  0  0
   35.8220   32.6120   34.8300 O   0  0  0  0  0  0  0  0  0  0  0  0
   35.9010   31.4390   35.5440 C   0  0  0  0  0  2  0  0  0  0  0  0
   35.4200   30.2360   34.7990 C   0  0  0  0  0  2  0  0  0  0  0  0
   38.2050   26.0330   34.3100 C   0  0  0  0  0  0  0  0  0  0  0  0
   39.0790   25.4060   34.0460 H   0  0  0  0  0  0  0  0  0  0  0  0
   38.4890   27.1020   34.2390 H   0  0  0  0  0  0  0  0  0  0  0  0
   37.6250   25.6970   35.6590 C   0  0  0  0  0  0  0  0  0  0  0  0
   37.6920   26.6100   36.3010 H   0  0  0  0  0  0  0  0  0  0  0  0
   36.5670   25.3990   35.6050 H   0  0  0  0  0  0  0  0  0  0  0  0
   38.4200   24.6500   36.3570 C   0  0  0  0  0  0  0  0  0  0  0  0
   38.0640   24.3520   37.6670 C   0  0  0  0  0  0  0  0  0  0  0  0
   38.7270   23.4020   38.4110 C   0  0  0  0  0  0  0  0  0  0  0  0
   39.7510   22.7440   37.8510 N   0  0  0  0  0  0  0  0  0  0  0  0
   40.0980   23.0370   36.5720 C   0  0  0  0  0  0  0  0  0  0  0  0
   39.4560   23.9660   35.8300 N   0  0  0  0  0  0  0  0  0  0  0  0
   37.2350   24.8780   38.1350 H   0  0  0  0  0  0  0  0  0  0  0  0
   38.4170   23.2010   39.4280 H   0  0  0  0  0  0  0  0  0  0  0  0
   40.9250   22.5060   36.1170 H   0  0  0  0  0  0  0  0  0  0  0  0
  1 18  1  0  0  0  0
  2  7  2  0  0  0  0
  2  3  1  0  0  0  0
  3  4  2  0  0  0  0
  4  5  1  0  0  0  0
  4 10  1  0  0  0  0
  6  5  2  0  0  0  0
  6  1  1  0  0  0  0
  7  6  1  0  0  0  0
  8  2  1  0  0  0  0
  9  3  1  0  0  0  0
 10 17  1  0  0  0  0
 11 10  1  0  0  0  0
 11 13  1  0  0  0  0
 12 11  1  0  0  0  0
 13 15  1  0  0  0  0
 14 13  1  0  0  0  0
 15 16  1  0  0  0  0
 17 16  1  0  0  0  0
 18 21  1  0  0  0  0
 19 18  1  0  0  0  0
 20 18  1  0  0  0  0
 21 22  1  0  0  0  0
 21 24  1  0  0  0  0
 23 21  1  0  0  0  0
 24 25  1  0  0  0  0
 25 30  1  0  0  0  0
 25 26  2  0  0  0  0
 26 31  1  0  0  0  0
 27 26  1  0  0  0  0
 28 27  2  0  0  0  0
 29 24  2  0  0  0  0
 29 28  1  0  0  0  0
 32 28  1  0  0  0  0
M  END
>  <minimizedAffinity>
-4.91488457

$$$$

 OpenBabel03272509513D

 32 34  0  0  0  0  0  0  0  0999 V2000
   38.7560   24.8100   31.4010 O   0  0  0  0  0  0  0  0  0  0  0  0
   37.1310   26.8110   33.9390 C   0  0  0  0  0  0  0  0  0  0  0  0
   37.3990   26.0250   35.0890 C   0  0  0  0  0  0  0  0  0  0  0  0
   38.1200   24.8670   34.8890 C   0  0  0  0  0  0  0  0  0  0  0  0
   38.5300   24.5410   33.6350 N   0  0  0  0  0  0  0  0  0  0  0  0
   38.2560   25.3140   32.5640 C   0  0  0  0  0  0  0  0  0  0  0  0
   37.5470   26.4640   32.7220 N   0  0  0  0  0  0  0  0  0  0  0  0
   36.5740   27.7410   33.9710 H   0  0  0  0  0  0  0  0  0  0  0  0
   37.0240   26.3830   36.0360 H   0  0  0  0  0  0  0  0  0  0  0  0
   38.4070   24.0550   36.0200 N   0  0  0  0  0  0  0  0  0  0  0  0
   38.2180   24.6470   37.3280 C   0  0  0  0  0  3  0  0  0  0  0  0
   39.0140   25.3970   37.5300 H   0  0  0  0  0  0  0  0  0  0  0  0
   38.4160   23.5020   38.3280 C   0  0  0  0  0  3  0  0  0  0  0  0
   38.4140   24.0030   39.3300 H   0  0  0  0  0  0  0  0  0  0  0  0
   39.6580   22.9320   38.1820 O   0  0  0  0  0  0  0  0  0  0  0  0
   39.8850   22.3420   36.9600 C   0  0  0  0  0  2  0  0  0  0  0  0
   38.8720   22.6850   35.9170 C   0  0  0  0  0  2  0  0  0  0  0  0
   37.8710   24.0640   30.5590 C   0  0  0  0  0  0  0  0  0  0  0  0
   36.8450   24.2280   30.9430 H   0  0  0  0  0  0  0  0  0  0  0  0
   37.9610   24.5230   29.5540 H   0  0  0  0  0  0  0  0  0  0  0  0
   38.2730   22.6130   30.5490 C   0  0  0  0  0  0  0  0  0  0  0  0
   38.4850   22.3200   29.4910 H   0  0  0  0  0  0  0  0  0  0  0  0
   39.1800   22.4190   31.1400 H   0  0  0  0  0  0  0  0  0  0  0  0
   37.1640   21.7290   31.0000 C   0  0  0  0  0  0  0  0  0  0  0  0
   36.2200   22.2840   31.8570 C   0  0  0  0  0  0  0  0  0  0  0  0
   35.1510   21.5630   32.3390 C   0  0  0  0  0  0  0  0  0  0  0  0
   35.0190   20.2820   31.9680 N   0  0  0  0  0  0  0  0  0  0  0  0
   35.9420   19.7420   31.1330 C   0  0  0  0  0  0  0  0  0  0  0  0
   36.9950   20.4380   30.6520 N   0  0  0  0  0  0  0  0  0  0  0  0
   36.3140   23.3230   32.1650 H   0  0  0  0  0  0  0  0  0  0  0  0
   34.4380   22.0340   33.0030 H   0  0  0  0  0  0  0  0  0  0  0  0
   35.8360   18.7070   30.8330 H   0  0  0  0  0  0  0  0  0  0  0  0
  1  6  1  0  0  0  0
  2  8  1  0  0  0  0
  2  3  1  0  0  0  0
  3  9  1  0  0  0  0
  4  3  2  0  0  0  0
  4 10  1  0  0  0  0
  5  4  1  0  0  0  0
  6  7  1  0  0  0  0
  6  5  2  0  0  0  0
  7  2  2  0  0  0  0
 10 11  1  0  0  0  0
 11 12  1  0  0  0  0
 11 13  1  0  0  0  0
 13 14  1  0  0  0  0
 15 13  1  0  0  0  0
 16 15  1  0  0  0  0
 17 10  1  0  0  0  0
 17 16  1  0  0  0  0
 18 19  1  0  0  0  0
 18  1  1  0  0  0  0
 20 18  1  0  0  0  0
 21 18  1  0  0  0  0
 21 24  1  0  0  0  0
 21 23  1  0  0  0  0
 22 21  1  0  0  0  0
 24 25  1  0  0  0  0
 25 30  1  0  0  0  0
 25 26  2  0  0  0  0
 26 31  1  0  0  0  0
 27 26  1  0  0  0  0
 28 27  2  0  0  0  0
 29 24  2  0  0  0  0
 29 28  1  0  0  0  0
 32 28  1  0  0  0  0
M  END
>  <minimizedAffinity>
-4.80968618

$$$$

 OpenBabel03272509513D

 32 34  0  0  0  0  0  0  0  0999 V2000
   37.8270   25.1990   34.8030 O   0  0  0  0  0  0  0  0  0  0  0  0
   38.1490   23.7500   38.1020 C   0  0  0  0  0  0  0  0  0  0  0  0
   39.2670   22.9010   37.8970 C   0  0  0  0  0  0  0  0  0  0  0  0
   39.8160   22.9010   36.6320 C   0  0  0  0  0  0  0  0  0  0  0  0
   39.2770   23.6930   35.6680 N   0  0  0  0  0  0  0  0  0  0  0  0
   38.2120   24.4880   35.9010 C   0  0  0  0  0  0  0  0  0  0  0  0
   37.6430   24.5140   37.1360 N   0  0  0  0  0  0  0  0  0  0  0  0
   37.6340   23.8340   39.0530 H   0  0  0  0  0  0  0  0  0  0  0  0
   39.6110   22.3160   38.7370 H   0  0  0  0  0  0  0  0  0  0  0  0
   40.9370   22.0620   36.3910 N   0  0  0  0  0  0  0  0  0  0  0  0
   41.6260   21.5240   37.5450 C   0  0  0  0  0  3  0  0  0  0  0  0
   42.2000   22.3250   38.0600 H   0  0  0  0  0  0  0  0  0  0  0  0
   42.6480   20.5270   36.9860 C   0  0  0  0  0  3  0  0  0  0  0  0
   43.2660   20.2340   37.8730 H   0  0  0  0  0  0  0  0  0  0  0  0
   43.5020   21.1440   36.1040 O   0  0  0  0  0  0  0  0  0  0  0  0
   42.9000   21.6620   34.9800 C   0  0  0  0  0  2  0  0  0  0  0  0
   41.4100   21.7310   35.0590 C   0  0  0  0  0  2  0  0  0  0  0  0
   38.4700   26.4530   34.5590 C   0  0  0  0  0  0  0  0  0  0  0  0
   39.4630   26.4090   35.0480 H   0  0  0  0  0  0  0  0  0  0  0  0
   38.6080   26.5070   33.4610 H   0  0  0  0  0  0  0  0  0  0  0  0
   37.6110   27.5790   35.0710 C   0  0  0  0  0  0  0  0  0  0  0  0
   36.9880   27.1840   35.9110 H   0  0  0  0  0  0  0  0  0  0  0  0
   38.2020   28.4230   35.4560 H   0  0  0  0  0  0  0  0  0  0  0  0
   36.6480   28.0530   34.0390 C   0  0  0  0  0  0  0  0  0  0  0  0
   35.7300   29.0220   34.4270 C   0  0  0  0  0  0  0  0  0  0  0  0
   34.7920   29.5350   33.5590 C   0  0  0  0  0  0  0  0  0  0  0  0
   34.7660   29.0820   32.2980 N   0  0  0  0  0  0  0  0  0  0  0  0
   35.6620   28.1350   31.9220 C   0  0  0  0  0  0  0  0  0  0  0  0
   36.5880   27.6230   32.7620 N   0  0  0  0  0  0  0  0  0  0  0  0
   35.7400   29.4000   35.4460 H   0  0  0  0  0  0  0  0  0  0  0  0
   34.0960   30.2890   33.9010 H   0  0  0  0  0  0  0  0  0  0  0  0
   35.6420   27.7680   30.9030 H   0  0  0  0  0  0  0  0  0  0  0  0
  1  6  1  0  0  0  0
  2  8  1  0  0  0  0
  3  2  1  0  0  0  0
  3  9  1  0  0  0  0
  4  3  2  0  0  0  0
  5  6  2  0  0  0  0
  5  4  1  0  0  0  0
  6  7  1  0  0  0  0
  7  2  2  0  0  0  0
 10  4  1  0  0  0  0
 10 11  1  0  0  0  0
 11 12  1  0  0  0  0
 13 11  1  0  0  0  0
 13 14  1  0  0  0  0
 15 13  1  0  0  0  0
 16 17  1  0  0  0  0
 16 15  1  0  0  0  0
 17 10  1  0  0  0  0
 18  1  1  0  0  0  0
 18 19  1  0  0  0  0
 18 21  1  0  0  0  0
 20 18  1  0  0  0  0
 21 23  1  0  0  0  0
 21 22  1  0  0  0  0
 24 25  1  0  0  0  0
 24 21  1  0  0  0  0
 25 30  1  0  0  0  0
 26 31  1  0  0  0  0
 26 25  2  0  0  0  0
 27 26  1  0  0  0  0
 28 27  2  0  0  0  0
 28 29  1  0  0  0  0
 29 24  2  0  0  0  0
 32 28  1  0  0  0  0
M  END
>  <minimizedAffinity>
-4.77620554

$$$$

 OpenBabel03272509513D

 32 34  0  0  0  0  0  0  0  0999 V2000
   40.7930   24.2440   34.0680 O   0  0  0  0  0  0  0  0  0  0  0  0
   38.5530   22.6100   36.3910 C   0  0  0  0  0  0  0  0  0  0  0  0
   37.5990   22.0740   35.4880 C   0  0  0  0  0  0  0  0  0  0  0  0
   37.8120   22.3230   34.1490 C   0  0  0  0  0  0  0  0  0  0  0  0
   38.8960   23.0500   33.7660 N   0  0  0  0  0  0  0  0  0  0  0  0
   39.7810   23.5440   34.6560 C   0  0  0  0  0  0  0  0  0  0  0  0
   39.6040   23.3190   35.9860 N   0  0  0  0  0  0  0  0  0  0  0  0
   38.4900   22.4800   37.4670 H   0  0  0  0  0  0  0  0  0  0  0  0
   36.7780   21.5100   35.9050 H   0  0  0  0  0  0  0  0  0  0  0  0
   36.8770   21.8000   33.2150 N   0  0  0  0  0  0  0  0  0  0  0  0
   35.9640   20.7810   33.6880 C   0  0  0  0  0  3  0  0  0  0  0  0
   36.5060   19.8220   33.8460 H   0  0  0  0  0  0  0  0  0  0  0  0
   34.9730   20.5530   32.5410 C   0  0  0  0  0  3  0  0  0  0  0  0
   34.3710   19.6650   32.8640 H   0  0  0  0  0  0  0  0  0  0  0  0
   35.6290   20.1810   31.3930 O   0  0  0  0  0  0  0  0  0  0  0  0
   36.5010   21.1200   30.8910 C   0  0  0  0  0  2  0  0  0  0  0  0
   36.8040   22.2390   31.8340 C   0  0  0  0  0  2  0  0  0  0  0  0
   41.4310   25.2700   34.8340 C   0  0  0  0  0  0  0  0  0  0  0  0
   41.0400   25.1930   35.8680 H   0  0  0  0  0  0  0  0  0  0  0  0
   42.5090   25.0130   34.8330 H   0  0  0  0  0  0  0  0  0  0  0  0
   41.1750   26.6150   34.2060 C   0  0  0  0  0  0  0  0  0  0  0  0
   41.6660   27.3920   34.8420 H   0  0  0  0  0  0  0  0  0  0  0  0
   41.5940   26.6960   33.1910 H   0  0  0  0  0  0  0  0  0  0  0  0
   39.7260   26.9530   34.1950 C   0  0  0  0  0  0  0  0  0  0  0  0
   39.1210   27.1870   35.4240 C   0  0  0  0  0  0  0  0  0  0  0  0
   37.7870   27.5080   35.5370 C   0  0  0  0  0  0  0  0  0  0  0  0
   37.0490   27.5980   34.4220 N   0  0  0  0  0  0  0  0  0  0  0  0
   37.6420   27.3690   33.2230 C   0  0  0  0  0  0  0  0  0  0  0  0
   38.9500   27.0530   33.0970 N   0  0  0  0  0  0  0  0  0  0  0  0
   39.7070   27.1180   36.3370 H   0  0  0  0  0  0  0  0  0  0  0  0
   37.3550   27.6820   36.5140 H   0  0  0  0  0  0  0  0  0  0  0  0
   37.0470   27.4410   32.3200 H   0  0  0  0  0  0  0  0  0  0  0  0
  1  6  1  0  0  0  0
  1 18  1  0  0  0  0
  2  8  1  0  0  0  0
  3  9  1  0  0  0  0
  3  2  2  0  0  0  0
  4  3  1  0  0  0  0
  5  4  2  0  0  0  0
  5  6  1  0  0  0  0
  6  7  2  0  0  0  0
  7  2  1  0  0  0  0
 10 11  1  0  0  0  0
 10  4  1  0  0  0  0
 11 12  1  0  0  0  0
 13 14  1  0  0  0  0
 13 11  1  0  0  0  0
 15 13  1  0  0  0  0
 16 15  1  0  0  0  0
 16 17  1  0  0  0  0
 17 10  1  0  0  0  0
 18 19  1  0  0  0  0
 20 18  1  0  0  0  0
 21 18  1  0  0  0  0
 21 22  1  0  0  0  0
 23 21  1  0  0  0  0
 24 21  1  0  0  0  0
 24 25  1  0  0  0  0
 25 26  2  0  0  0  0
 25 30  1  0  0  0  0
 26 31  1  0  0  0  0
 27 26  1  0  0  0  0
 28 27  2  0  0  0  0
 29 28  1  0  0  0  0
 29 24  2  0  0  0  0
 32 28  1  0  0  0  0
M  END
>  <minimizedAffinity>
-4.69987392

$$$$

 OpenBabel03272509513D

 32 34  0  0  0  0  0  0  0  0999 V2000
   39.5400   21.4900   33.4990 O   0  0  0  0  0  0  0  0  0  0  0  0
   36.4390   21.4160   31.6380 C   0  0  0  0  0  0  0  0  0  0  0  0
   36.1480   22.8030   31.5760 C   0  0  0  0  0  0  0  0  0  0  0  0
   37.0520   23.6480   32.1840 C   0  0  0  0  0  0  0  0  0  0  0  0
   38.1480   23.1290   32.7970 N   0  0  0  0  0  0  0  0  0  0  0  0
   38.3900   21.8020   32.8360 C   0  0  0  0  0  0  0  0  0  0  0  0
   37.5210   20.9370   32.2470 N   0  0  0  0  0  0  0  0  0  0  0  0
   35.8020   20.6560   31.1970 H   0  0  0  0  0  0  0  0  0  0  0  0
   35.2480   23.1020   31.0600 H   0  0  0  0  0  0  0  0  0  0  0  0
   36.7930   25.0450   32.1410 N   0  0  0  0  0  0  0  0  0  0  0  0
   35.7980   25.5080   31.1970 C   0  0  0  0  0  3  0  0  0  0  0  0
   36.1900   25.4390   30.1580 H   0  0  0  0  0  0  0  0  0  0  0  0
   35.6010   26.9970   31.5050 C   0  0  0  0  0  3  0  0  0  0  0  0
   34.9440   27.3690   30.6770 H   0  0  0  0  0  0  0  0  0  0  0  0
   36.7880   27.6810   31.3960 O   0  0  0  0  0  0  0  0  0  0  0  0
   37.7660   27.2900   32.2810 C   0  0  0  0  0  2  0  0  0  0  0  0
   37.4750   26.0060   32.9880 C   0  0  0  0  0  2  0  0  0  0  0  0
   40.2590   22.5520   34.1320 C   0  0  0  0  0  0  0  0  0  0  0  0
   41.2130   22.6710   33.5810 H   0  0  0  0  0  0  0  0  0  0  0  0
   39.6390   23.4580   33.9850 H   0  0  0  0  0  0  0  0  0  0  0  0
   40.4570   22.2400   35.5920 C   0  0  0  0  0  0  0  0  0  0  0  0
   40.1680   21.1730   35.7590 H   0  0  0  0  0  0  0  0  0  0  0  0
   41.5020   22.3610   35.9140 H   0  0  0  0  0  0  0  0  0  0  0  0
   39.5530   23.0460   36.4570 C   0  0  0  0  0  0  0  0  0  0  0  0
   39.6160   22.8170   37.8260 C   0  0  0  0  0  0  0  0  0  0  0  0
   38.8290   23.5030   38.7230 C   0  0  0  0  0  0  0  0  0  0  0  0
   37.9730   24.4230   38.2570 N   0  0  0  0  0  0  0  0  0  0  0  0
   37.9120   24.6440   36.9200 C   0  0  0  0  0  0  0  0  0  0  0  0
   38.6790   23.9790   36.0280 N   0  0  0  0  0  0  0  0  0  0  0  0
   40.3070   22.0750   38.2190 H   0  0  0  0  0  0  0  0  0  0  0  0
   38.9090   23.2950   39.7820 H   0  0  0  0  0  0  0  0  0  0  0  0
   37.2210   25.3870   36.5410 H   0  0  0  0  0  0  0  0  0  0  0  0
  1 18  1  0  0  0  0
  2  7  1  0  0  0  0
  3  2  2  0  0  0  0
  3  4  1  0  0  0  0
  4  5  2  0  0  0  0
  5  6  1  0  0  0  0
  6  1  1  0  0  0  0
  7  6  2  0  0  0  0
  8  2  1  0  0  0  0
  9  3  1  0  0  0  0
 10  4  1  0  0  0  0
 10 17  1  0  0  0  0
 11 13  1  0  0  0  0
 11 10  1  0  0  0  0
 12 11  1  0  0  0  0
 14 13  1  0  0  0  0
 15 13  1  0  0  0  0
 15 16  1  0  0  0  0
 16 17  1  0  0  0  0
 18 21  1  0  0  0  0
 19 18  1  0  0  0  0
 20 18  1  0  0  0  0
 21 22  1  0  0  0  0
 21 23  1  0  0  0  0
 21 24  1  0  0  0  0
 24 25  1  0  0  0  0
 25 30  1  0  0  0  0
 25 26  2  0  0  0  0
 26 31  1  0  0  0  0
 27 26  1  0  0  0  0
 28 27  2  0  0  0  0
 29 24  2  0  0  0  0
 29 28  1  0  0  0  0
 32 28  1  0  0  0  0
M  END
>  <minimizedAffinity>
-4.68765259

$$$$

 OpenBabel03272509513D

 32 34  0  0  0  0  0  0  0  0999 V2000
   36.6780   27.4890   34.6750 O   0  0  0  0  0  0  0  0  0  0  0  0
   35.7660   29.7090   31.9690 C   0  0  0  0  0  0  0  0  0  0  0  0
   35.2450   30.8050   32.7050 C   0  0  0  0  0  0  0  0  0  0  0  0
   35.2550   30.6830   34.0780 C   0  0  0  0  0  0  0  0  0  0  0  0
   35.7480   29.5500   34.6470 N   0  0  0  0  0  0  0  0  0  0  0  0
   36.2340   28.5290   33.9130 C   0  0  0  0  0  0  0  0  0  0  0  0
   36.2410   28.6130   32.5550 N   0  0  0  0  0  0  0  0  0  0  0  0
   35.8100   29.6900   30.8850 H   0  0  0  0  0  0  0  0  0  0  0  0
   34.8810   31.6540   32.1470 H   0  0  0  0  0  0  0  0  0  0  0  0
   34.7410   31.7610   34.8480 N   0  0  0  0  0  0  0  0  0  0  0  0
   34.5530   33.0290   34.1740 C   0  0  0  0  0  3  0  0  0  0  0  0
   35.5370   33.5040   33.9660 H   0  0  0  0  0  0  0  0  0  0  0  0
   33.8250   33.9260   35.1830 C   0  0  0  0  0  3  0  0  0  0  0  0
   33.8210   34.9380   34.7030 H   0  0  0  0  0  0  0  0  0  0  0  0
   34.5520   34.0490   36.3420 O   0  0  0  0  0  0  0  0  0  0  0  0
   34.7480   32.8740   37.0310 C   0  0  0  0  0  2  0  0  0  0  0  0
   34.4050   31.6440   36.2550 C   0  0  0  0  0  2  0  0  0  0  0  0
   38.0860   27.3820   34.9060 C   0  0  0  0  0  0  0  0  0  0  0  0
   38.5210   26.8730   34.0230 H   0  0  0  0  0  0  0  0  0  0  0  0
   38.4600   28.4240   34.9460 H   0  0  0  0  0  0  0  0  0  0  0  0
   38.3400   26.6460   36.1950 C   0  0  0  0  0  0  0  0  0  0  0  0
   39.4080   26.8120   36.4830 H   0  0  0  0  0  0  0  0  0  0  0  0
   37.7080   27.0050   37.0210 H   0  0  0  0  0  0  0  0  0  0  0  0
   38.1890   25.1750   36.0310 C   0  0  0  0  0  0  0  0  0  0  0  0
   37.7710   24.4530   37.1430 C   0  0  0  0  0  0  0  0  0  0  0  0
   37.5960   23.0870   37.1100 C   0  0  0  0  0  0  0  0  0  0  0  0
   37.8370   22.4350   35.9640 N   0  0  0  0  0  0  0  0  0  0  0  0
   38.2450   23.1420   34.8800 C   0  0  0  0  0  0  0  0  0  0  0  0
   38.4210   24.4810   34.8980 N   0  0  0  0  0  0  0  0  0  0  0  0
   37.5710   24.9690   38.0790 H   0  0  0  0  0  0  0  0  0  0  0  0
   37.2690   22.5630   37.9980 H   0  0  0  0  0  0  0  0  0  0  0  0
   38.4400   22.6160   33.9530 H   0  0  0  0  0  0  0  0  0  0  0  0
  1 18  1  0  0  0  0
  2  7  2  0  0  0  0
  2  3  1  0  0  0  0
  3  4  2  0  0  0  0
  4  5  1  0  0  0  0
  4 10  1  0  0  0  0
  6  5  2  0  0  0  0
  6  1  1  0  0  0  0
  7  6  1  0  0  0  0
  8  2  1  0  0  0  0
  9  3  1  0  0  0  0
 10 17  1  0  0  0  0
 11 10  1  0  0  0  0
 11 13  1  0  0  0  0
 12 11  1  0  0  0  0
 13 15  1  0  0  0  0
 14 13  1  0  0  0  0
 15 16  1  0  0  0  0
 17 16  1  0  0  0  0
 18 20  1  0  0  0  0
 18 21  1  0  0  0  0
 19 18  1  0  0  0  0
 21 22  1  0  0  0  0
 21 23  1  0  0  0  0
 24 21  1  0  0  0  0
 24 25  1  0  0  0  0
 25 30  1  0  0  0  0
 26 25  2  0  0  0  0
 26 31  1  0  0  0  0
 27 26  1  0  0  0  0
 28 29  1  0  0  0  0
 28 27  2  0  0  0  0
 29 24  2  0  0  0  0
 32 28  1  0  0  0  0
M  END
>  <minimizedAffinity>
-4.63540554

$$$$

 OpenBabel03272509513D

 32 34  0  0  0  0  0  0  0  0999 V2000
   36.9830   26.3120   33.8510 O   0  0  0  0  0  0  0  0  0  0  0  0
   36.0440   29.2950   32.0320 C   0  0  0  0  0  0  0  0  0  0  0  0
   36.8790   29.1680   30.8910 C   0  0  0  0  0  0  0  0  0  0  0  0
   37.6980   28.0600   30.8480 C   0  0  0  0  0  0  0  0  0  0  0  0
   37.6680   27.1640   31.8710 N   0  0  0  0  0  0  0  0  0  0  0  0
   36.8600   27.3190   32.9400 C   0  0  0  0  0  0  0  0  0  0  0  0
   36.0380   28.4000   33.0180 N   0  0  0  0  0  0  0  0  0  0  0  0
   35.3590   30.1230   32.1770 H   0  0  0  0  0  0  0  0  0  0  0  0
   36.8180   29.9410   30.1400 H   0  0  0  0  0  0  0  0  0  0  0  0
   38.5470   27.9000   29.7200 N   0  0  0  0  0  0  0  0  0  0  0  0
   38.2670   28.7150   28.5570 C   0  0  0  0  0  3  0  0  0  0  0  0
   37.3450   28.3560   28.0480 H   0  0  0  0  0  0  0  0  0  0  0  0
   39.4350   28.4710   27.5940 C   0  0  0  0  0  3  0  0  0  0  0  0
   39.1300   28.9880   26.6480 H   0  0  0  0  0  0  0  0  0  0  0  0
   39.5470   27.1360   27.2880 O   0  0  0  0  0  0  0  0  0  0  0  0
   39.8270   26.3170   28.3570 C   0  0  0  0  0  2  0  0  0  0  0  0
   39.6620   26.9710   29.6900 C   0  0  0  0  0  2  0  0  0  0  0  0
   38.2340   26.1740   34.5320 C   0  0  0  0  0  0  0  0  0  0  0  0
   38.9480   26.8640   34.0410 H   0  0  0  0  0  0  0  0  0  0  0  0
   38.0470   26.5220   35.5680 H   0  0  0  0  0  0  0  0  0  0  0  0
   38.6830   24.7370   34.4970 C   0  0  0  0  0  0  0  0  0  0  0  0
   37.8760   24.1350   34.0100 H   0  0  0  0  0  0  0  0  0  0  0  0
   39.6070   24.5950   33.9170 H   0  0  0  0  0  0  0  0  0  0  0  0
   38.8410   24.1730   35.8650 C   0  0  0  0  0  0  0  0  0  0  0  0
   37.9180   24.5720   36.8250 C   0  0  0  0  0  0  0  0  0  0  0  0
   37.9650   24.1160   38.1230 C   0  0  0  0  0  0  0  0  0  0  0  0
   38.9340   23.2580   38.4700 N   0  0  0  0  0  0  0  0  0  0  0  0
   39.8350   22.8710   37.5310 C   0  0  0  0  0  0  0  0  0  0  0  0
   39.8000   23.3100   36.2540 N   0  0  0  0  0  0  0  0  0  0  0  0
   37.1260   25.2670   36.5580 H   0  0  0  0  0  0  0  0  0  0  0  0
   37.2270   24.4520   38.8400 H   0  0  0  0  0  0  0  0  0  0  0  0
   40.6180   22.1770   37.8100 H   0  0  0  0  0  0  0  0  0  0  0  0
  1 18  1  0  0  0  0
  2  8  1  0  0  0  0
  2  7  1  0  0  0  0
  3  2  2  0  0  0  0
  4  3  1  0  0  0  0
  4  5  2  0  0  0  0
  5  6  1  0  0  0  0
  6  7  2  0  0  0  0
  6  1  1  0  0  0  0
  9  3  1  0  0  0  0
 10  4  1  0  0  0  0
 11 10  1  0  0  0  0
 12 11  1  0  0  0  0
 13 11  1  0  0  0  0
 14 13  1  0  0  0  0
 15 13  1  0  0  0  0
 15 16  1  0  0  0  0
 16 17  1  0  0  0  0
 17 10  1  0  0  0  0
 18 20  1  0  0  0  0
 19 18  1  0  0  0  0
 21 18  1  0  0  0  0
 21 24  1  0  0  0  0
 22 21  1  0  0  0  0
 23 21  1  0  0  0  0
 24 29  2  0  0  0  0
 24 25  1  0  0  0  0
 25 26  2  0  0  0  0
 26 27  1  0  0  0  0
 26 31  1  0  0  0  0
 28 32  1  0  0  0  0
 28 27  2  0  0  0  0
 29 28  1  0  0  0  0
 30 25  1  0  0  0  0
M  END
>  <minimizedAffinity>
-4.62603331

$$$$
