
 OpenBabel03272510183D

 35 38  0  0  0  0  0  0  0  0999 V2000
   37.2580   29.2450   50.9150 Br  0  0  0  0  0  0  0  0  0  0  0  0
   35.9190   29.2900   49.5610 C   0  0  0  0  0  0  0  0  0  0  0  0
   35.9570   30.2630   48.5510 C   0  0  0  0  0  0  0  0  0  0  0  0
   34.9590   30.2350   47.6100 C   0  0  0  0  0  0  0  0  0  0  0  0
   33.9320   29.3040   47.6130 C   0  0  0  0  0  0  0  0  0  0  0  0
   33.9240   28.3690   48.6130 C   0  0  0  0  0  0  0  0  0  0  0  0
   34.9130   28.3760   49.5690 C   0  0  0  0  0  0  0  0  0  0  0  0
   34.9440   30.9650   46.8060 H   0  0  0  0  0  0  0  0  0  0  0  0
   33.1380   27.6220   48.6530 H   0  0  0  0  0  0  0  0  0  0  0  0
   34.9030   27.6340   50.3590 H   0  0  0  0  0  0  0  0  0  0  0  0
   32.8760   29.2750   46.6160 C   0  0  0  0  0  0  0  0  0  0  0  0
   32.3590   28.1360   46.0450 C   0  0  0  0  0  0  0  0  0  0  0  0
   31.3520   28.1560   45.0970 C   0  0  0  0  0  0  0  0  0  0  0  0
   30.8410   29.3390   44.7010 N   0  0  0  0  0  0  0  0  0  0  0  0
   31.3420   30.4480   45.2550 C   0  0  0  0  0  0  0  0  0  0  0  0
   32.3100   30.4130   46.1650 N   0  0  0  0  0  0  0  0  0  0  0  0
   32.7710   27.1740   46.3620 H   0  0  0  0  0  0  0  0  0  0  0  0
   31.0010   27.2030   44.6960 H   0  0  0  0  0  0  0  0  0  0  0  0
   30.8150   31.7030   44.8500 N   0  0  0  0  0  0  0  0  0  0  0  0
   29.4470   31.8820   44.4080 C   0  0  0  0  0  3  0  0  0  0  0  0
   28.8950   32.4450   45.2090 H   0  0  0  0  0  0  0  0  0  0  0  0
   29.4080   32.6640   43.0900 C   0  0  0  0  0  3  0  0  0  0  0  0
   29.6560   31.9730   42.2710 H   0  0  0  0  0  0  0  0  0  0  0  0
   30.2420   33.7610   43.1190 O   0  0  0  0  0  0  0  0  0  0  0  0
   31.5470   33.4340   43.4080 C   0  0  0  0  0  2  0  0  0  0  0  0
   31.6030   32.9200   44.8440 C   0  0  0  0  0  2  0  0  0  0  0  0
   37.9630   33.1560   49.4900 C   0  0  0  0  0  0  0  0  0  0  0  0
   39.0070   33.1560   48.5010 C   0  0  0  0  0  0  0  0  0  0  0  0
   38.9880   32.1640   47.5440 C   0  0  0  0  0  0  0  0  0  0  0  0
   37.9880   31.2260   47.5720 N   0  0  0  0  0  0  0  0  0  0  0  0
   37.0140   31.2480   48.5160 C   0  0  0  0  0  0  0  0  0  0  0  0
   37.0180   32.2170   49.4640 N   0  0  0  0  0  0  0  0  0  0  0  0
   37.9330   33.9120   50.2620 H   0  0  0  0  0  0  0  0  0  0  0  0
   39.7630   33.9300   48.5430 H   0  0  0  0  0  0  0  0  0  0  0  0
   39.7580   32.1290   46.7800 H   0  0  0  0  0  0  0  0  0  0  0  0
  2  7  1  0  0  0  0
  2  1  1  0  0  0  0
  3  2  2  0  0  0  0
  4  5  2  0  0  0  0
  4  3  1  0  0  0  0
  5  6  1  0  0  0  0
  6  9  1  0  0  0  0
  6  7  2  0  0  0  0
  7 10  1  0  0  0  0
  8  4  1  0  0  0  0
 11  5  1  0  0  0  0
 12 17  1  0  0  0  0
 12 11  2  0  0  0  0
 13 12  1  0  0  0  0
 14 13  2  0  0  0  0
 14 15  1  0  0  0  0
 15 16  2  0  0  0  0
 16 11  1  0  0  0  0
 18 13  1  0  0  0  0
 19 15  1  0  0  0  0
 20 19  1  0  0  0  0
 20 21  1  0  0  0  0
 22 24  1  0  0  0  0
 22 20  1  0  0  0  0
 23 22  1  0  0  0  0
 24 25  1  0  0  0  0
 25 26  1  0  0  0  0
 26 19  1  0  0  0  0
 27 33  1  0  0  0  0
 28 34  1  0  0  0  0
 28 27  2  0  0  0  0
 29 30  2  0  0  0  0
 29 28  1  0  0  0  0
 30 31  1  0  0  0  0
 31  3  1  0  0  0  0
 31 32  2  0  0  0  0
 32 27  1  0  0  0  0
 35 29  1  0  0  0  0
M  END
>  <minimizedAffinity>
-6.78214598

>  <minimizedRMSD>
0.354825109

$$$$
