
 OpenBabel03272510243D

 31 34  0  0  1  0  0  0  0  0999 V2000
   36.1210   30.1500   46.9700 C   0  0  0  0  0  0  0  0  0  0  0  0
   36.9760   30.6960   47.9110 C   0  0  0  0  0  0  0  0  0  0  0  0
   37.9700   31.5990   47.5340 C   0  0  0  0  0  0  0  0  0  0  0  0
   38.0490   31.9130   46.1840 C   0  0  0  0  0  0  0  0  0  0  0  0
   38.9310   32.7660   45.5760 N   0  0  0  0  0  0  0  0  0  0  0  0
   38.6190   32.7440   44.2640 C   0  0  0  0  0  0  0  0  0  0  0  0
   37.5980   31.9280   44.0280 N   0  0  0  0  0  0  0  0  0  0  0  0
   37.2190   31.3930   45.2160 C   0  0  0  0  0  0  0  0  0  0  0  0
   36.2320   30.4880   45.6260 C   0  0  0  0  0  0  0  0  0  0  0  0
   35.3440   29.4490   47.2360 H   0  0  0  0  0  0  0  0  0  0  0  0
   38.6290   32.0230   48.2490 H   0  0  0  0  0  0  0  0  0  0  0  0
   39.6890   33.3180   46.0340 H   0  0  0  0  0  0  0  0  0  0  0  0
   35.5730   30.0750   44.8690 H   0  0  0  0  0  0  0  0  0  0  0  0
   37.4130   30.0970   51.5970 C   0  0  0  0  0  0  0  0  0  0  0  0
   37.7160   30.5360   50.3110 C   0  0  0  0  0  0  0  0  0  0  0  0
   36.8110   30.3050   49.2950 C   0  0  0  0  0  0  0  0  0  0  0  0
   35.6550   29.6450   49.6240 N   0  0  0  0  0  0  0  0  0  0  0  0
   35.3710   29.2240   50.8730 C   0  0  0  0  0  0  0  0  0  0  0  0
   36.2430   29.4490   51.8410 N   0  0  0  0  0  0  0  0  0  0  0  0
   38.1890   30.3280   52.3270 H   0  0  0  0  0  0  0  0  0  0  0  0
   38.6150   31.0550   50.0250 H   0  0  0  0  0  0  0  0  0  0  0  0
   34.4400   28.7140   51.0460 H   0  0  0  0  0  0  0  0  0  0  0  0
   39.3390   33.5180   43.3350 O   0  0  0  0  0  0  0  0  0  0  0  0
   40.7460   31.6000   42.6790 H   0  0  0  0  0  0  0  0  0  0  0  0
   39.8160   31.5800   42.2010 N   0  0  0  0  0  0  0  0  0  0  0  0
   39.4840   33.0020   42.0200 C   0  0  1  0  0  3  0  0  0  0  0  0
   38.1350   33.0160   41.3430 C   0  0  0  0  0  3  0  0  0  0  0  0
   37.4430   32.3870   41.9470 H   0  0  0  0  0  0  0  0  0  0  0  0
   38.2700   32.5090   40.0530 O   0  0  0  0  0  0  0  0  0  0  0  0
   38.8060   31.2440   39.9900 C   0  0  0  0  0  2  0  0  0  0  0  0
   40.0290   31.0700   40.8600 C   0  0  0  0  0  2  0  0  0  0  0  0
  1 10  1  0  0  0  0
  1  2  1  0  0  0  0
  2 16  1  0  0  0  0
  3  2  2  0  0  0  0
  3 11  1  0  0  0  0
  4  3  1  0  0  0  0
  5 12  1  0  0  0  0
  5  4  1  0  0  0  0
  6  5  1  0  0  0  0
  7  6  2  0  0  0  0
  7  8  1  0  0  0  0
  8  9  1  0  0  0  0
  8  4  2  0  0  0  0
  9  1  2  0  0  0  0
 13  9  1  0  0  0  0
 14 19  1  0  0  0  0
 14 20  1  0  0  0  0
 15 14  2  0  0  0  0
 16 17  2  0  0  0  0
 16 15  1  0  0  0  0
 17 18  1  0  0  0  0
 18 22  1  0  0  0  0
 18 19  2  0  0  0  0
 21 15  1  0  0  0  0
 23  6  1  0  0  0  0
 25 24  1  0  0  0  0
 26 25  1  0  0  0  0
 26 23  1  1  0  0  0
 27 28  1  0  0  0  0
 27 26  1  0  0  0  0
 29 27  1  0  0  0  0
 30 29  1  0  0  0  0
 30 31  1  0  0  0  0
 31 25  1  0  0  0  0
M  END
>  <minimizedAffinity>
-5.43731165

>  <minimizedRMSD>
1.583534

$$$$
