
 OpenBabel03272510243D

 31 34  0  0  1  0  0  0  0  0999 V2000
   35.9390   30.0770   46.9580 C   0  0  0  0  0  0  0  0  0  0  0  0
   36.8710   30.6440   47.8080 C   0  0  0  0  0  0  0  0  0  0  0  0
   37.8400   31.5210   47.3210 C   0  0  0  0  0  0  0  0  0  0  0  0
   37.8130   31.7880   45.9590 C   0  0  0  0  0  0  0  0  0  0  0  0
   38.6500   32.6090   45.2520 N   0  0  0  0  0  0  0  0  0  0  0  0
   38.2340   32.5460   43.9710 C   0  0  0  0  0  0  0  0  0  0  0  0
   37.1890   31.7350   43.8470 N   0  0  0  0  0  0  0  0  0  0  0  0
   36.9020   31.2460   45.0790 C   0  0  0  0  0  0  0  0  0  0  0  0
   35.9430   30.3670   45.5990 C   0  0  0  0  0  0  0  0  0  0  0  0
   35.1780   29.3940   47.3100 H   0  0  0  0  0  0  0  0  0  0  0  0
   38.5580   31.9610   47.9660 H   0  0  0  0  0  0  0  0  0  0  0  0
   39.4480   33.1680   45.6280 H   0  0  0  0  0  0  0  0  0  0  0  0
   35.2220   29.9360   44.9120 H   0  0  0  0  0  0  0  0  0  0  0  0
   37.5880   30.1890   51.4710 C   0  0  0  0  0  0  0  0  0  0  0  0
   37.7870   30.5850   50.1510 C   0  0  0  0  0  0  0  0  0  0  0  0
   36.8150   30.3010   49.2130 C   0  0  0  0  0  0  0  0  0  0  0  0
   35.6980   29.6370   49.6500 N   0  0  0  0  0  0  0  0  0  0  0  0
   35.5140   29.2580   50.9310 C   0  0  0  0  0  0  0  0  0  0  0  0
   36.4500   29.5330   51.8240 N   0  0  0  0  0  0  0  0  0  0  0  0
   38.4100   30.4590   52.1320 H   0  0  0  0  0  0  0  0  0  0  0  0
   38.6540   31.1070   49.7810 H   0  0  0  0  0  0  0  0  0  0  0  0
   34.6080   28.7400   51.1910 H   0  0  0  0  0  0  0  0  0  0  0  0
   38.8830   33.2800   42.9610 O   0  0  0  0  0  0  0  0  0  0  0  0
   40.3370   31.3360   43.4080 H   0  0  0  0  0  0  0  0  0  0  0  0
   39.7570   31.1970   42.5490 N   0  0  0  0  0  0  0  0  0  0  0  0
   39.6230   32.5520   41.9920 C   0  0  1  0  0  3  0  0  0  0  0  0
   38.7750   32.3940   40.7540 C   0  0  0  0  0  3  0  0  0  0  0  0
   37.8470   31.8500   41.0420 H   0  0  0  0  0  0  0  0  0  0  0  0
   39.4930   31.6790   39.7980 O   0  0  0  0  0  0  0  0  0  0  0  0
   39.9310   30.4460   40.2200 C   0  0  0  0  0  2  0  0  0  0  0  0
   40.5680   30.4740   41.5900 C   0  0  0  0  0  2  0  0  0  0  0  0
  1 10  1  0  0  0  0
  1  2  1  0  0  0  0
  2 16  1  0  0  0  0
  3  2  2  0  0  0  0
  3 11  1  0  0  0  0
  4  3  1  0  0  0  0
  5 12  1  0  0  0  0
  5  4  1  0  0  0  0
  6  5  1  0  0  0  0
  7  6  2  0  0  0  0
  7  8  1  0  0  0  0
  8  9  1  0  0  0  0
  8  4  2  0  0  0  0
  9  1  2  0  0  0  0
 13  9  1  0  0  0  0
 14 19  1  0  0  0  0
 14 20  1  0  0  0  0
 15 14  2  0  0  0  0
 16 17  2  0  0  0  0
 16 15  1  0  0  0  0
 17 18  1  0  0  0  0
 18 22  1  0  0  0  0
 18 19  2  0  0  0  0
 21 15  1  0  0  0  0
 23  6  1  0  0  0  0
 25 24  1  0  0  0  0
 26 25  1  0  0  0  0
 26 23  1  1  0  0  0
 27 28  1  0  0  0  0
 27 26  1  0  0  0  0
 29 30  1  0  0  0  0
 29 27  1  0  0  0  0
 30 31  1  0  0  0  0
 31 25  1  0  0  0  0
M  END
>  <minimizedAffinity>
-5.31374931

>  <minimizedRMSD>
2.28133368

$$$$
