
 OpenBabel03272510243D

 31 34  0  0  1  0  0  0  0  0999 V2000
   36.2320   30.1900   46.8640 C   0  0  0  0  0  0  0  0  0  0  0  0
   37.0760   30.7470   47.8080 C   0  0  0  0  0  0  0  0  0  0  0  0
   38.0640   31.6580   47.4340 C   0  0  0  0  0  0  0  0  0  0  0  0
   38.1490   31.9670   46.0830 C   0  0  0  0  0  0  0  0  0  0  0  0
   39.0270   32.8250   45.4780 N   0  0  0  0  0  0  0  0  0  0  0  0
   38.7240   32.7950   44.1630 C   0  0  0  0  0  0  0  0  0  0  0  0
   37.7110   31.9690   43.9250 N   0  0  0  0  0  0  0  0  0  0  0  0
   37.3300   31.4360   45.1120 C   0  0  0  0  0  0  0  0  0  0  0  0
   36.3480   30.5240   45.5200 C   0  0  0  0  0  0  0  0  0  0  0  0
   35.4590   29.4820   47.1280 H   0  0  0  0  0  0  0  0  0  0  0  0
   38.7140   32.0900   48.1520 H   0  0  0  0  0  0  0  0  0  0  0  0
   39.7770   33.3860   45.9380 H   0  0  0  0  0  0  0  0  0  0  0  0
   35.6980   30.1010   44.7600 H   0  0  0  0  0  0  0  0  0  0  0  0
   37.4980   30.1610   51.4990 C   0  0  0  0  0  0  0  0  0  0  0  0
   37.8050   30.5970   50.2120 C   0  0  0  0  0  0  0  0  0  0  0  0
   36.9060   30.3590   49.1930 C   0  0  0  0  0  0  0  0  0  0  0  0
   35.7500   29.6980   49.5190 N   0  0  0  0  0  0  0  0  0  0  0  0
   35.4620   29.2790   50.7680 C   0  0  0  0  0  0  0  0  0  0  0  0
   36.3280   29.5110   51.7390 N   0  0  0  0  0  0  0  0  0  0  0  0
   38.2700   30.3960   52.2310 H   0  0  0  0  0  0  0  0  0  0  0  0
   38.7050   31.1180   49.9290 H   0  0  0  0  0  0  0  0  0  0  0  0
   34.5310   28.7670   50.9380 H   0  0  0  0  0  0  0  0  0  0  0  0
   39.4430   33.5730   43.2370 O   0  0  0  0  0  0  0  0  0  0  0  0
   40.5810   31.7840   41.9740 H   0  0  0  0  0  0  0  0  0  0  0  0
   39.5670   31.8500   41.7250 N   0  0  0  0  0  0  0  0  0  0  0  0
   39.2650   33.2840   41.8580 C   0  0  1  0  0  0  0  0  0  0  0  0
   37.8000   33.4170   41.5190 C   0  0  0  0  0  0  0  0  0  0  0  0
   37.2350   32.6990   42.1560 H   0  0  0  0  0  0  0  0  0  0  0  0
   37.6190   33.1330   40.1680 O   0  0  0  0  0  0  0  0  0  0  0  0
   38.0710   31.8940   39.7800 C   0  0  0  0  0  0  0  0  0  0  0  0
   39.4500   31.5700   40.3060 C   0  0  0  0  0  0  0  0  0  0  0  0
  1 10  1  0  0  0  0
  1  2  1  0  0  0  0
  2 16  1  0  0  0  0
  3  2  2  0  0  0  0
  3 11  1  0  0  0  0
  4  3  1  0  0  0  0
  5 12  1  0  0  0  0
  5  4  1  0  0  0  0
  6  5  1  0  0  0  0
  7  6  2  0  0  0  0
  7  8  1  0  0  0  0
  8  9  1  0  0  0  0
  8  4  2  0  0  0  0
  9  1  2  0  0  0  0
 13  9  1  0  0  0  0
 14 19  1  0  0  0  0
 14 20  1  0  0  0  0
 15 14  2  0  0  0  0
 16 17  2  0  0  0  0
 16 15  1  0  0  0  0
 17 18  1  0  0  0  0
 18 22  1  0  0  0  0
 18 19  2  0  0  0  0
 21 15  1  0  0  0  0
 23  6  1  0  0  0  0
 25 26  1  0  0  0  0
 25 24  1  0  0  0  0
 26 23  1  1  0  0  0
 27 26  1  0  0  0  0
 27 28  1  0  0  0  0
 29 27  1  0  0  0  0
 30 29  1  0  0  0  0
 30 31  1  0  0  0  0
 31 25  1  0  0  0  0
M  END
>  <minimizedAffinity>
-5.5439167

>  <minimizedRMSD>
1.25840843

$$$$
