
 OpenBabel03272510243D

 31 34  0  0  1  0  0  0  0  0999 V2000
   35.9290   30.0730   46.9940 C   0  0  0  0  0  0  0  0  0  0  0  0
   36.8660   30.6320   47.8450 C   0  0  0  0  0  0  0  0  0  0  0  0
   37.8400   31.5040   47.3590 C   0  0  0  0  0  0  0  0  0  0  0  0
   37.8140   31.7740   45.9970 C   0  0  0  0  0  0  0  0  0  0  0  0
   38.6570   32.5910   45.2920 N   0  0  0  0  0  0  0  0  0  0  0  0
   38.2390   32.5330   44.0110 C   0  0  0  0  0  0  0  0  0  0  0  0
   37.1890   31.7300   43.8860 N   0  0  0  0  0  0  0  0  0  0  0  0
   36.9000   31.2400   45.1170 C   0  0  0  0  0  0  0  0  0  0  0  0
   35.9350   30.3670   45.6360 C   0  0  0  0  0  0  0  0  0  0  0  0
   35.1650   29.3950   47.3460 H   0  0  0  0  0  0  0  0  0  0  0  0
   38.5620   31.9380   48.0050 H   0  0  0  0  0  0  0  0  0  0  0  0
   39.4580   33.1430   45.6690 H   0  0  0  0  0  0  0  0  0  0  0  0
   35.2100   29.9420   44.9480 H   0  0  0  0  0  0  0  0  0  0  0  0
   37.5810   30.1660   51.5070 C   0  0  0  0  0  0  0  0  0  0  0  0
   37.7820   30.5630   50.1880 C   0  0  0  0  0  0  0  0  0  0  0  0
   36.8080   30.2870   49.2500 C   0  0  0  0  0  0  0  0  0  0  0  0
   35.6880   29.6280   49.6860 N   0  0  0  0  0  0  0  0  0  0  0  0
   35.5030   29.2470   50.9660 C   0  0  0  0  0  0  0  0  0  0  0  0
   36.4400   29.5160   51.8580 N   0  0  0  0  0  0  0  0  0  0  0  0
   38.4050   30.4300   52.1690 H   0  0  0  0  0  0  0  0  0  0  0  0
   38.6520   31.0810   49.8190 H   0  0  0  0  0  0  0  0  0  0  0  0
   34.5930   28.7340   51.2240 H   0  0  0  0  0  0  0  0  0  0  0  0
   38.8930   33.2650   43.0030 O   0  0  0  0  0  0  0  0  0  0  0  0
   40.3130   31.3110   43.5100 H   0  0  0  0  0  0  0  0  0  0  0  0
   39.7760   31.1800   42.6220 N   0  0  0  0  0  0  0  0  0  0  0  0
   39.6780   32.5400   42.0670 C   0  0  1  0  0  3  0  0  0  0  0  0
   38.8930   32.3930   40.7870 C   0  0  0  0  0  3  0  0  0  0  0  0
   37.9500   31.8520   41.0240 H   0  0  0  0  0  0  0  0  0  0  0  0
   39.6560   31.6800   39.8650 O   0  0  0  0  0  0  0  0  0  0  0  0
   40.0650   30.4420   40.3000 C   0  0  0  0  0  2  0  0  0  0  0  0
   40.6310   30.4590   41.7010 C   0  0  0  0  0  2  0  0  0  0  0  0
  1 10  1  0  0  0  0
  1  2  1  0  0  0  0
  2 16  1  0  0  0  0
  3  2  2  0  0  0  0
  3 11  1  0  0  0  0
  4  3  1  0  0  0  0
  5 12  1  0  0  0  0
  5  4  1  0  0  0  0
  6  5  1  0  0  0  0
  7  6  2  0  0  0  0
  7  8  1  0  0  0  0
  8  9  1  0  0  0  0
  8  4  2  0  0  0  0
  9  1  2  0  0  0  0
 13  9  1  0  0  0  0
 14 19  1  0  0  0  0
 14 20  1  0  0  0  0
 15 14  2  0  0  0  0
 16 17  2  0  0  0  0
 16 15  1  0  0  0  0
 17 18  1  0  0  0  0
 18 22  1  0  0  0  0
 18 19  2  0  0  0  0
 21 15  1  0  0  0  0
 23  6  1  0  0  0  0
 25 24  1  0  0  0  0
 26 25  1  0  0  0  0
 26 23  1  1  0  0  0
 27 28  1  0  0  0  0
 27 26  1  0  0  0  0
 29 30  1  0  0  0  0
 29 27  1  0  0  0  0
 30 31  1  0  0  0  0
 31 25  1  0  0  0  0
M  END
>  <minimizedAffinity>
-5.30232143

>  <minimizedRMSD>
2.10520983

$$$$
