
 OpenBabel03272510193D

 35 38  0  0  0  0  0  0  0  0999 V2000
   37.3500   29.2290   50.8680 Br  0  0  0  0  0  0  0  0  0  0  0  0
   35.9550   29.2710   49.5720 C   0  0  0  0  0  0  0  0  0  0  0  0
   35.9540   30.2380   48.5560 C   0  0  0  0  0  0  0  0  0  0  0  0
   34.9170   30.2080   47.6580 C   0  0  0  0  0  0  0  0  0  0  0  0
   33.8880   29.2790   47.7090 C   0  0  0  0  0  0  0  0  0  0  0  0
   33.9210   28.3490   48.7130 C   0  0  0  0  0  0  0  0  0  0  0  0
   34.9490   28.3580   49.6270 C   0  0  0  0  0  0  0  0  0  0  0  0
   34.8690   30.9330   46.8520 H   0  0  0  0  0  0  0  0  0  0  0  0
   33.1360   27.6040   48.7900 H   0  0  0  0  0  0  0  0  0  0  0  0
   34.9710   27.6200   50.4200 H   0  0  0  0  0  0  0  0  0  0  0  0
   32.7910   29.2480   46.7570 C   0  0  0  0  0  0  0  0  0  0  0  0
   32.0400   28.1370   46.4550 C   0  0  0  0  0  0  0  0  0  0  0  0
   31.0020   28.1540   45.5400 C   0  0  0  0  0  0  0  0  0  0  0  0
   30.7000   29.3030   44.9040 N   0  0  0  0  0  0  0  0  0  0  0  0
   31.4300   30.3840   45.1960 C   0  0  0  0  0  0  0  0  0  0  0  0
   32.4240   30.3540   46.0780 N   0  0  0  0  0  0  0  0  0  0  0  0
   32.2810   27.2020   46.9670 H   0  0  0  0  0  0  0  0  0  0  0  0
   30.4570   27.2240   45.3600 H   0  0  0  0  0  0  0  0  0  0  0  0
   31.1250   31.6040   44.5370 N   0  0  0  0  0  0  0  0  0  0  0  0
   30.2930   31.6780   43.3540 C   0  0  0  0  0  3  0  0  0  0  0  0
   29.3140   32.1440   43.6460 H   0  0  0  0  0  0  0  0  0  0  0  0
   30.9760   32.5220   42.2710 C   0  0  0  0  0  3  0  0  0  0  0  0
   31.7400   31.9010   41.7800 H   0  0  0  0  0  0  0  0  0  0  0  0
   31.5000   33.6890   42.7830 O   0  0  0  0  0  0  0  0  0  0  0  0
   32.3920   33.4690   43.8100 C   0  0  0  0  0  2  0  0  0  0  0  0
   31.6220   32.8880   44.9920 C   0  0  0  0  0  2  0  0  0  0  0  0
   37.9920   33.1420   49.3850 C   0  0  0  0  0  0  0  0  0  0  0  0
   39.0040   33.1250   48.3630 C   0  0  0  0  0  0  0  0  0  0  0  0
   38.9520   32.1180   47.4220 C   0  0  0  0  0  0  0  0  0  0  0  0
   37.9520   31.1820   47.4970 N   0  0  0  0  0  0  0  0  0  0  0  0
   37.0090   31.2210   48.4720 C   0  0  0  0  0  0  0  0  0  0  0  0
   37.0450   32.2050   49.4040 N   0  0  0  0  0  0  0  0  0  0  0  0
   37.9870   33.9100   50.1460 H   0  0  0  0  0  0  0  0  0  0  0  0
   39.7610   33.8980   48.3690 H   0  0  0  0  0  0  0  0  0  0  0  0
   39.6970   32.0700   46.6350 H   0  0  0  0  0  0  0  0  0  0  0  0
  2  7  1  0  0  0  0
  2  1  1  0  0  0  0
  3  2  2  0  0  0  0
  4  5  2  0  0  0  0
  4  3  1  0  0  0  0
  5  6  1  0  0  0  0
  6  9  1  0  0  0  0
  6  7  2  0  0  0  0
  7 10  1  0  0  0  0
  8  4  1  0  0  0  0
 11  5  1  0  0  0  0
 12 11  1  0  0  0  0
 12 17  1  0  0  0  0
 13 12  2  0  0  0  0
 14 15  2  0  0  0  0
 14 13  1  0  0  0  0
 15 16  1  0  0  0  0
 16 11  2  0  0  0  0
 18 13  1  0  0  0  0
 19 26  1  0  0  0  0
 19 15  1  0  0  0  0
 20 21  1  0  0  0  0
 20 19  1  0  0  0  0
 22 24  1  0  0  0  0
 22 20  1  0  0  0  0
 23 22  1  0  0  0  0
 24 25  1  0  0  0  0
 25 26  1  0  0  0  0
 27 32  1  0  0  0  0
 27 33  1  0  0  0  0
 28 34  1  0  0  0  0
 28 27  2  0  0  0  0
 29 30  2  0  0  0  0
 29 28  1  0  0  0  0
 30 31  1  0  0  0  0
 31  3  1  0  0  0  0
 31 32  2  0  0  0  0
 35 29  1  0  0  0  0
M  END
>  <minimizedAffinity>
-6.60851526

>  <minimizedRMSD>
0.162060231

$$$$
