
 OpenBabel03272501373D

 44 48  0  0  1  0  0  0  0  0999 V2000
   37.7310   30.8640   50.6440 C   0  0  0  0  0  0  0  0  0  0  0  0
   38.4630   31.5170   49.6770 C   0  0  0  0  0  0  0  0  0  0  0  0
   38.1200   31.4820   48.3180 C   0  0  0  0  0  0  0  0  0  0  0  0
   37.0600   30.7990   47.9920 N   0  0  0  0  0  0  0  0  0  0  0  0
   36.3360   30.1510   48.9620 C   0  0  0  0  0  0  0  0  0  0  0  0
   36.6630   30.1810   50.2490 N   0  0  0  0  0  0  0  0  0  0  0  0
   38.0140   30.9050   51.6820 H   0  0  0  0  0  0  0  0  0  0  0  0
   39.3380   32.0710   50.0470 H   0  0  0  0  0  0  0  0  0  0  0  0
   35.1320   29.3960   48.6200 C   0  0  0  0  0  0  0  0  0  0  0  0
   34.5960   28.2500   49.1480 C   0  0  0  0  0  0  0  0  0  0  0  0
   33.4500   27.7400   48.6690 C   0  0  0  0  0  0  0  0  0  0  0  0
   32.8640   28.4660   47.6030 C   0  0  0  0  0  0  0  0  0  0  0  0
   34.0120   29.8760   47.3360 S   0  0  0  0  0  0  0  0  0  0  0  0
   35.1460   27.7950   49.9630 H   0  0  0  0  0  0  0  0  0  0  0  0
   32.9430   26.8640   48.9970 H   0  0  0  0  0  0  0  0  0  0  0  0
   31.6960   28.2490   46.8590 N   0  0  0  0  0  0  0  0  0  0  0  0
   30.9720   26.9990   46.7200 C   0  0  0  0  0  0  0  0  0  0  0  0
   31.1230   26.2970   47.5510 H   0  0  0  0  0  0  0  0  0  0  0  0
   29.4930   27.4100   46.7230 C   0  0  0  0  0  0  0  0  0  0  0  0
   29.3940   28.1910   47.5010 H   0  0  0  0  0  0  0  0  0  0  0  0
   29.2840   27.9930   45.4940 O   0  0  0  0  0  0  0  0  0  0  0  0
   30.0060   29.1330   45.2730 C   0  0  0  0  0  0  0  0  0  0  0  0
   31.1620   29.3850   46.1620 C   0  0  0  0  0  0  0  0  0  0  0  0
   39.0510   32.1320   47.4370 C   0  0  1  0  0  0  0  0  0  0  0  0
   40.0370   31.8080   47.9670 H   0  0  0  0  0  0  0  0  0  0  0  0
   39.1440   31.5770   46.0300 C   0  0  2  0  0  0  0  0  0  0  0  0
   40.6160   31.2390   45.7900 C   0  0  0  0  0  0  0  0  0  0  0  0
   39.8890   32.2800   45.0160 C   0  0  1  0  0  0  0  0  0  0  0  0
   38.3920   30.8150   45.8100 H   0  0  0  0  0  0  0  0  0  0  0  0
   40.7620   30.2370   45.3370 H   0  0  0  0  0  0  0  0  0  0  0  0
   41.4360   31.5990   46.3960 H   0  0  0  0  0  0  0  0  0  0  0  0
   40.0260   33.3620   45.2190 H   0  0  0  0  0  0  0  0  0  0  0  0
   39.8290   32.0090   43.5720 C   0  0  0  0  0  0  0  0  0  0  0  0
   39.1310   32.8880   42.7850 C   0  0  0  0  0  0  0  0  0  0  0  0
   39.1150   32.6250   41.4380 C   0  0  0  0  0  0  0  0  0  0  0  0
   39.7500   31.5490   40.8650 C   0  0  0  0  0  0  0  0  0  0  0  0
   40.4460   30.6810   41.6930 C   0  0  0  0  0  0  0  0  0  0  0  0
   40.4710   30.9260   43.0160 N   0  0  0  0  0  0  0  0  0  0  0  0
   38.6150   33.7470   43.1830 H   0  0  0  0  0  0  0  0  0  0  0  0
   38.5780   33.2880   40.7720 H   0  0  0  0  0  0  0  0  0  0  0  0
   39.7780   31.2860   39.8220 H   0  0  0  0  0  0  0  0  0  0  0  0
   40.9940   29.7940   41.3910 H   0  0  0  0  0  0  0  0  0  0  0  0
   39.3010   33.4090   47.5120 O   0  0  0  0  0  0  0  0  0  0  0  0
   38.5500   34.0410   47.4890 H   0  0  0  0  0  0  0  0  0  0  0  0
  1  7  1  0  0  0  0
  2  8  1  0  0  0  0
  2  1  2  0  0  0  0
  3  2  1  0  0  0  0
  4  3  2  0  0  0  0
  4  5  1  0  0  0  0
  5  6  2  0  0  0  0
  6  1  1  0  0  0  0
  9  5  1  0  0  0  0
  9 10  2  0  0  0  0
 10 14  1  0  0  0  0
 11 15  1  0  0  0  0
 11 10  1  0  0  0  0
 12 11  2  0  0  0  0
 13 12  1  0  0  0  0
 13  9  1  0  0  0  0
 16 12  1  0  0  0  0
 17 19  1  0  0  0  0
 17 16  1  0  0  0  0
 17 18  1  0  0  0  0
 19 20  1  0  0  0  0
 21 19  1  0  0  0  0
 22 21  1  0  0  0  0
 22 23  1  0  0  0  0
 23 16  1  0  0  0  0
 24 43  1  0  0  0  0
 24 25  1  1  0  0  0
 24  3  1  0  0  0  0
 26 29  1  6  0  0  0
 26 24  1  0  0  0  0
 27 26  1  0  0  0  0
 27 31  1  0  0  0  0
 28 32  1  1  0  0  0
 28 27  1  0  0  0  0
 28 26  1  0  0  0  0
 30 27  1  0  0  0  0
 33 28  1  0  0  0  0
 34 39  1  0  0  0  0
 34 33  2  0  0  0  0
 35 34  1  0  0  0  0
 36 35  2  0  0  0  0
 36 37  1  0  0  0  0
 37 38  2  0  0  0  0
 38 33  1  0  0  0  0
 40 35  1  0  0  0  0
 41 36  1  0  0  0  0
 42 37  1  0  0  0  0
 44 43  1  0  0  0  0
M  END
>  <minimizedAffinity>
-6.71037912

>  <minimizedRMSD>
0.274738103

$$$$
