
 OpenBabel03272504103D

 32 34  0  0  0  0  0  0  0  0999 V2000
   38.3140   23.9330   36.8190 C   0  0  0  0  0  0  0  0  0  0  0  0
   38.9110   24.5080   35.7170 C   0  0  0  0  0  0  0  0  0  0  0  0
   40.2010   24.0840   35.3150 C   0  0  0  0  0  0  0  0  0  0  0  0
   40.7900   23.1110   36.0580 N   0  0  0  0  0  0  0  0  0  0  0  0
   40.1670   22.5630   37.1450 C   0  0  0  0  0  0  0  0  0  0  0  0
   38.9340   22.9800   37.5140 N   0  0  0  0  0  0  0  0  0  0  0  0
   40.8700   21.5480   37.8650 N   0  0  0  0  0  0  0  0  0  0  0  0
   37.3180   24.2650   37.1250 H   0  0  0  0  0  0  0  0  0  0  0  0
   41.1220   20.5770   37.5650 H   0  0  0  0  0  0  0  0  0  0  0  0
   41.1680   21.8460   38.8350 H   0  0  0  0  0  0  0  0  0  0  0  0
   37.5830   23.9190   33.0470 Cl  0  0  0  0  0  0  0  0  0  0  0  0
   37.5200   25.4930   33.7870 C   0  0  0  0  0  0  0  0  0  0  0  0
   38.1720   25.5530   34.9850 C   0  0  0  0  0  0  0  0  0  0  0  0
   38.1700   26.7860   35.6590 C   0  0  0  0  0  0  0  0  0  0  0  0
   37.5620   27.8880   35.1760 C   0  0  0  0  0  0  0  0  0  0  0  0
   36.9050   27.7980   33.9510 C   0  0  0  0  0  0  0  0  0  0  0  0
   36.0880   29.1670   33.2580 Cl  0  0  0  0  0  0  0  0  0  0  0  0
   36.8950   26.6160   33.2840 C   0  0  0  0  0  0  0  0  0  0  0  0
   38.6450   26.9460   36.6180 H   0  0  0  0  0  0  0  0  0  0  0  0
   37.5370   28.8540   35.6640 H   0  0  0  0  0  0  0  0  0  0  0  0
   36.4140   26.4320   32.3210 H   0  0  0  0  0  0  0  0  0  0  0  0
   40.8340   24.6970   34.1480 C   0  0  0  0  0  0  0  0  0  0  0  0
   40.1200   25.1770   33.4780 H   0  0  0  0  0  0  0  0  0  0  0  0
   41.3810   23.8900   33.6180 H   0  0  0  0  0  0  0  0  0  0  0  0
   41.8230   25.6800   34.5520 N   0  0  0  0  0  0  0  0  0  0  0  0
   43.1760   25.2970   34.2670 C   0  0  0  0  0  3  0  0  0  0  0  0
   43.5700   24.5240   34.9450 H   0  0  0  0  0  0  0  0  0  0  0  0
   44.0230   26.5760   34.3620 C   0  0  0  0  0  3  0  0  0  0  0  0
   43.6130   27.1930   35.1890 H   0  0  0  0  0  0  0  0  0  0  0  0
   43.7840   27.2740   33.1760 O   0  0  0  0  0  0  0  0  0  0  0  0
   42.4370   27.4640   32.9490 C   0  0  0  0  0  2  0  0  0  0  0  0
   41.5270   26.9790   34.0310 C   0  0  0  0  0  2  0  0  0  0  0  0
  1  8  1  0  0  0  0
  1  6  1  0  0  0  0
  2  1  2  0  0  0  0
  3  2  1  0  0  0  0
  3  4  2  0  0  0  0
  4  5  1  0  0  0  0
  5  6  2  0  0  0  0
  5  7  1  0  0  0  0
  7 10  1  0  0  0  0
  9  7  1  0  0  0  0
 11 12  1  0  0  0  0
 12 13  1  0  0  0  0
 13 14  2  0  0  0  0
 13  2  1  0  0  0  0
 14 19  1  0  0  0  0
 15 14  1  0  0  0  0
 15 20  1  0  0  0  0
 16 15  2  0  0  0  0
 17 16  1  0  0  0  0
 18 12  2  0  0  0  0
 18 16  1  0  0  0  0
 21 18  1  0  0  0  0
 22 25  1  0  0  0  0
 22  3  1  0  0  0  0
 23 22  1  0  0  0  0
 24 22  1  0  0  0  0
 26 28  1  0  0  0  0
 26 25  1  0  0  0  0
 26 27  1  0  0  0  0
 28 29  1  0  0  0  0
 30 28  1  0  0  0  0
 31 30  1  0  0  0  0
 31 32  1  0  0  0  0
 32 25  1  0  0  0  0
M  END
>  <minimizedAffinity>
-5.51994514

$$$$

 OpenBabel03272504103D

 32 34  0  0  0  0  0  0  0  0999 V2000
   38.1020   23.9060   36.3770 C   0  0  0  0  0  0  0  0  0  0  0  0
   38.8100   24.4510   35.3280 C   0  0  0  0  0  0  0  0  0  0  0  0
   40.1620   24.0820   35.1240 C   0  0  0  0  0  0  0  0  0  0  0  0
   40.6960   23.1880   35.9980 N   0  0  0  0  0  0  0  0  0  0  0  0
   39.9620   22.6660   37.0270 C   0  0  0  0  0  0  0  0  0  0  0  0
   38.6710   23.0310   37.2070 N   0  0  0  0  0  0  0  0  0  0  0  0
   40.6140   21.7370   37.8950 N   0  0  0  0  0  0  0  0  0  0  0  0
   37.0590   24.1950   36.5300 H   0  0  0  0  0  0  0  0  0  0  0  0
   40.9520   20.7660   37.6930 H   0  0  0  0  0  0  0  0  0  0  0  0
   40.7640   22.1060   38.8750 H   0  0  0  0  0  0  0  0  0  0  0  0
   38.6980   27.4140   35.9970 Cl  0  0  0  0  0  0  0  0  0  0  0  0
   37.9590   26.7590   34.5650 C   0  0  0  0  0  0  0  0  0  0  0  0
   38.1240   25.4080   34.4410 C   0  0  0  0  0  0  0  0  0  0  0  0
   37.5630   24.7920   33.3100 C   0  0  0  0  0  0  0  0  0  0  0  0
   36.8820   25.4680   32.3640 C   0  0  0  0  0  0  0  0  0  0  0  0
   36.7290   26.8450   32.5160 C   0  0  0  0  0  0  0  0  0  0  0  0
   35.8720   27.7960   31.3400 Cl  0  0  0  0  0  0  0  0  0  0  0  0
   37.2640   27.4600   33.6010 C   0  0  0  0  0  0  0  0  0  0  0  0
   37.6400   23.7320   33.1050 H   0  0  0  0  0  0  0  0  0  0  0  0
   36.4360   25.0310   31.4800 H   0  0  0  0  0  0  0  0  0  0  0  0
   37.2040   28.5280   33.8210 H   0  0  0  0  0  0  0  0  0  0  0  0
   40.9130   24.6630   34.0130 C   0  0  0  0  0  0  0  0  0  0  0  0
   40.2770   25.1770   33.2910 H   0  0  0  0  0  0  0  0  0  0  0  0
   41.4600   23.8310   33.5240 H   0  0  0  0  0  0  0  0  0  0  0  0
   41.9130   25.5980   34.4960 N   0  0  0  0  0  0  0  0  0  0  0  0
   43.2650   25.1780   34.2630 C   0  0  0  0  0  3  0  0  0  0  0  0
   43.6000   24.3700   34.9320 H   0  0  0  0  0  0  0  0  0  0  0  0
   44.1480   26.4230   34.4420 C   0  0  0  0  0  3  0  0  0  0  0  0
   43.7190   27.0270   35.2680 H   0  0  0  0  0  0  0  0  0  0  0  0
   43.9900   27.1670   33.2700 O   0  0  0  0  0  0  0  0  0  0  0  0
   42.6630   27.4110   32.9860 C   0  0  0  0  0  2  0  0  0  0  0  0
   41.6860   26.9230   34.0060 C   0  0  0  0  0  2  0  0  0  0  0  0
  1  8  1  0  0  0  0
  1  6  1  0  0  0  0
  2  1  2  0  0  0  0
  3  2  1  0  0  0  0
  3  4  2  0  0  0  0
  4  5  1  0  0  0  0
  5  6  2  0  0  0  0
  5  7  1  0  0  0  0
  7 10  1  0  0  0  0
  9  7  1  0  0  0  0
 12 11  1  0  0  0  0
 13 12  1  0  0  0  0
 13  2  1  0  0  0  0
 14 13  2  0  0  0  0
 15 16  2  0  0  0  0
 15 14  1  0  0  0  0
 16 18  1  0  0  0  0
 17 16  1  0  0  0  0
 18 21  1  0  0  0  0
 18 12  2  0  0  0  0
 19 14  1  0  0  0  0
 20 15  1  0  0  0  0
 22 25  1  0  0  0  0
 22  3  1  0  0  0  0
 23 22  1  0  0  0  0
 24 22  1  0  0  0  0
 26 28  1  0  0  0  0
 26 25  1  0  0  0  0
 26 27  1  0  0  0  0
 28 29  1  0  0  0  0
 30 28  1  0  0  0  0
 31 30  1  0  0  0  0
 31 32  1  0  0  0  0
 32 25  1  0  0  0  0
M  END
>  <minimizedAffinity>
-5.39646387

$$$$

 OpenBabel03272504103D

 32 34  0  0  0  0  0  0  0  0999 V2000
   38.2070   25.6220   36.5110 C   0  0  0  0  0  0  0  0  0  0  0  0
   38.3520   25.0480   35.2660 C   0  0  0  0  0  0  0  0  0  0  0  0
   38.4460   23.6400   35.1470 C   0  0  0  0  0  0  0  0  0  0  0  0
   38.3870   22.9180   36.2970 N   0  0  0  0  0  0  0  0  0  0  0  0
   38.2410   23.5220   37.5150 C   0  0  0  0  0  0  0  0  0  0  0  0
   38.1520   24.8690   37.6100 N   0  0  0  0  0  0  0  0  0  0  0  0
   38.1930   22.6770   38.6670 N   0  0  0  0  0  0  0  0  0  0  0  0
   38.1350   26.7090   36.5970 H   0  0  0  0  0  0  0  0  0  0  0  0
   37.4540   21.9940   38.9570 H   0  0  0  0  0  0  0  0  0  0  0  0
   39.0360   22.7740   39.2990 H   0  0  0  0  0  0  0  0  0  0  0  0
   40.9960   25.8050   33.9730 Cl  0  0  0  0  0  0  0  0  0  0  0  0
   39.4700   26.3900   33.3740 C   0  0  0  0  0  0  0  0  0  0  0  0
   38.3990   25.9330   34.0880 C   0  0  0  0  0  0  0  0  0  0  0  0
   37.1230   26.3510   33.6740 C   0  0  0  0  0  0  0  0  0  0  0  0
   36.9220   27.1690   32.6210 C   0  0  0  0  0  0  0  0  0  0  0  0
   38.0330   27.6200   31.9120 C   0  0  0  0  0  0  0  0  0  0  0  0
   37.8640   28.6710   30.5380 Cl  0  0  0  0  0  0  0  0  0  0  0  0
   39.2740   27.2280   32.2960 C   0  0  0  0  0  0  0  0  0  0  0  0
   36.2060   26.0440   34.1570 H   0  0  0  0  0  0  0  0  0  0  0  0
   35.9570   27.5120   32.2710 H   0  0  0  0  0  0  0  0  0  0  0  0
   40.2100   27.5190   31.8160 H   0  0  0  0  0  0  0  0  0  0  0  0
   38.6030   23.0340   33.8260 C   0  0  0  0  0  0  0  0  0  0  0  0
   39.2220   22.1370   33.8400 H   0  0  0  0  0  0  0  0  0  0  0  0
   39.0550   23.8060   33.1690 H   0  0  0  0  0  0  0  0  0  0  0  0
   37.3120   22.6980   33.2530 N   0  0  0  0  0  0  0  0  0  0  0  0
   37.1420   23.1360   31.8980 C   0  0  0  0  0  3  0  0  0  0  0  0
   36.9780   24.2200   31.8000 H   0  0  0  0  0  0  0  0  0  0  0  0
   35.9440   22.3580   31.3330 C   0  0  0  0  0  3  0  0  0  0  0  0
   35.1980   22.2460   32.1470 H   0  0  0  0  0  0  0  0  0  0  0  0
   36.4270   21.0790   31.0450 O   0  0  0  0  0  0  0  0  0  0  0  0
   37.0530   20.5060   32.1320 C   0  0  0  0  0  2  0  0  0  0  0  0
   37.0130   21.3050   33.3940 C   0  0  0  0  0  2  0  0  0  0  0  0
  1  8  1  0  0  0  0
  1  6  1  0  0  0  0
  2  1  2  0  0  0  0
  3  2  1  0  0  0  0
  3  4  2  0  0  0  0
  4  5  1  0  0  0  0
  5  6  2  0  0  0  0
  5  7  1  0  0  0  0
  7  9  1  0  0  0  0
  7 10  1  0  0  0  0
 12 11  1  0  0  0  0
 12 13  1  0  0  0  0
 13  2  1  0  0  0  0
 14 13  2  0  0  0  0
 14 19  1  0  0  0  0
 15 14  1  0  0  0  0
 16 18  1  0  0  0  0
 16 15  2  0  0  0  0
 17 16  1  0  0  0  0
 18 12  2  0  0  0  0
 20 15  1  0  0  0  0
 21 18  1  0  0  0  0
 22 23  1  0  0  0  0
 22  3  1  0  0  0  0
 24 22  1  0  0  0  0
 25 32  1  0  0  0  0
 25 22  1  0  0  0  0
 26 25  1  0  0  0  0
 27 26  1  0  0  0  0
 28 26  1  0  0  0  0
 28 29  1  0  0  0  0
 30 28  1  0  0  0  0
 30 31  1  0  0  0  0
 31 32  1  0  0  0  0
M  END
>  <minimizedAffinity>
-5.17586327

$$$$

 OpenBabel03272504103D

 32 34  0  0  0  0  0  0  0  0999 V2000
   38.3760   26.3410   35.7910 C   0  0  0  0  0  0  0  0  0  0  0  0
   38.6030   25.1950   35.0600 C   0  0  0  0  0  0  0  0  0  0  0  0
   38.0400   25.0610   33.7680 C   0  0  0  0  0  0  0  0  0  0  0  0
   37.2880   26.0980   33.3130 N   0  0  0  0  0  0  0  0  0  0  0  0
   37.0850   27.2210   34.0660 C   0  0  0  0  0  0  0  0  0  0  0  0
   37.6320   27.3310   35.2990 N   0  0  0  0  0  0  0  0  0  0  0  0
   36.2760   28.2550   33.5010 N   0  0  0  0  0  0  0  0  0  0  0  0
   38.8130   26.4380   36.7890 H   0  0  0  0  0  0  0  0  0  0  0  0
   36.4760   28.8820   32.6860 H   0  0  0  0  0  0  0  0  0  0  0  0
   35.3490   28.3850   33.9950 H   0  0  0  0  0  0  0  0  0  0  0  0
   37.3970   23.0590   36.8550 Cl  0  0  0  0  0  0  0  0  0  0  0  0
   39.0960   23.1050   36.4820 C   0  0  0  0  0  0  0  0  0  0  0  0
   39.4390   24.1370   35.6560 C   0  0  0  0  0  0  0  0  0  0  0  0
   40.7930   24.2520   35.2970 C   0  0  0  0  0  0  0  0  0  0  0  0
   41.7440   23.3990   35.7280 C   0  0  0  0  0  0  0  0  0  0  0  0
   41.3650   22.3560   36.5700 C   0  0  0  0  0  0  0  0  0  0  0  0
   42.5240   21.2070   37.1680 Cl  0  0  0  0  0  0  0  0  0  0  0  0
   40.0620   22.2280   36.9290 C   0  0  0  0  0  0  0  0  0  0  0  0
   41.1760   25.0230   34.6420 H   0  0  0  0  0  0  0  0  0  0  0  0
   42.7950   23.4530   35.4740 H   0  0  0  0  0  0  0  0  0  0  0  0
   39.6550   21.4520   37.5810 H   0  0  0  0  0  0  0  0  0  0  0  0
   38.2790   23.8440   32.9950 C   0  0  0  0  0  0  0  0  0  0  0  0
   39.0420   23.2030   33.4350 H   0  0  0  0  0  0  0  0  0  0  0  0
   38.5810   24.1640   31.9760 H   0  0  0  0  0  0  0  0  0  0  0  0
   37.0560   23.0750   32.8480 N   0  0  0  0  0  0  0  0  0  0  0  0
   36.5340   23.0570   31.5120 C   0  0  0  0  0  3  0  0  0  0  0  0
   36.0550   24.0020   31.2110 H   0  0  0  0  0  0  0  0  0  0  0  0
   35.5250   21.9000   31.4510 C   0  0  0  0  0  3  0  0  0  0  0  0
   34.9960   21.8590   32.4260 H   0  0  0  0  0  0  0  0  0  0  0  0
   36.2920   20.7360   31.3550 O   0  0  0  0  0  0  0  0  0  0  0  0
   37.2350   20.6550   32.3580 C   0  0  0  0  0  2  0  0  0  0  0  0
   37.1930   21.7510   33.3730 C   0  0  0  0  0  2  0  0  0  0  0  0
  1  8  1  0  0  0  0
  2 13  1  0  0  0  0
  2  1  2  0  0  0  0
  3  2  1  0  0  0  0
  4  3  2  0  0  0  0
  4  5  1  0  0  0  0
  5  6  2  0  0  0  0
  6  1  1  0  0  0  0
  7 10  1  0  0  0  0
  7  5  1  0  0  0  0
  9  7  1  0  0  0  0
 12 11  1  0  0  0  0
 12 18  1  0  0  0  0
 13 12  2  0  0  0  0
 14 13  1  0  0  0  0
 14 15  2  0  0  0  0
 15 16  1  0  0  0  0
 16 18  2  0  0  0  0
 16 17  1  0  0  0  0
 18 21  1  0  0  0  0
 19 14  1  0  0  0  0
 20 15  1  0  0  0  0
 22 23  1  0  0  0  0
 22  3  1  0  0  0  0
 24 22  1  0  0  0  0
 25 22  1  0  0  0  0
 25 32  1  0  0  0  0
 26 25  1  0  0  0  0
 27 26  1  0  0  0  0
 28 26  1  0  0  0  0
 28 29  1  0  0  0  0
 30 28  1  0  0  0  0
 30 31  1  0  0  0  0
 31 32  1  0  0  0  0
M  END
>  <minimizedAffinity>
-5.15367842

$$$$

 OpenBabel03272504103D

 32 34  0  0  0  0  0  0  0  0999 V2000
   35.6010   24.8270   31.1700 C   0  0  0  0  0  0  0  0  0  0  0  0
   36.5400   24.0700   31.8390 C   0  0  0  0  0  0  0  0  0  0  0  0
   37.4910   24.7050   32.6730 C   0  0  0  0  0  0  0  0  0  0  0  0
   37.4230   26.0600   32.7670 N   0  0  0  0  0  0  0  0  0  0  0  0
   36.4770   26.7780   32.0890 C   0  0  0  0  0  0  0  0  0  0  0  0
   35.5750   26.1540   31.2970 N   0  0  0  0  0  0  0  0  0  0  0  0
   36.4890   28.1980   32.2490 N   0  0  0  0  0  0  0  0  0  0  0  0
   34.8700   24.3310   30.5270 H   0  0  0  0  0  0  0  0  0  0  0  0
   36.2640   28.7710   33.0970 H   0  0  0  0  0  0  0  0  0  0  0  0
   36.7680   28.7210   31.3730 H   0  0  0  0  0  0  0  0  0  0  0  0
   38.5350   22.6680   30.0250 Cl  0  0  0  0  0  0  0  0  0  0  0  0
   37.3080   21.7980   30.9010 C   0  0  0  0  0  0  0  0  0  0  0  0
   36.5140   22.6070   31.6640 C   0  0  0  0  0  0  0  0  0  0  0  0
   35.4960   21.9900   32.4110 C   0  0  0  0  0  0  0  0  0  0  0  0
   35.2790   20.6590   32.4030 C   0  0  0  0  0  0  0  0  0  0  0  0
   36.1040   19.8600   31.6150 C   0  0  0  0  0  0  0  0  0  0  0  0
   35.8990   18.1350   31.5490 Cl  0  0  0  0  0  0  0  0  0  0  0  0
   37.0930   20.4360   30.8850 C   0  0  0  0  0  0  0  0  0  0  0  0
   34.8160   22.5290   33.0570 H   0  0  0  0  0  0  0  0  0  0  0  0
   34.5080   20.1470   32.9630 H   0  0  0  0  0  0  0  0  0  0  0  0
   37.7950   19.9080   30.2360 H   0  0  0  0  0  0  0  0  0  0  0  0
   38.4870   23.9020   33.3800 C   0  0  0  0  0  0  0  0  0  0  0  0
   39.5120   24.1640   33.1160 H   0  0  0  0  0  0  0  0  0  0  0  0
   38.2820   22.8410   33.1280 H   0  0  0  0  0  0  0  0  0  0  0  0
   38.3310   24.0300   34.8180 N   0  0  0  0  0  0  0  0  0  0  0  0
   37.7720   22.8700   35.4500 C   0  0  0  0  0  3  0  0  0  0  0  0
   36.6920   22.7480   35.2770 H   0  0  0  0  0  0  0  0  0  0  0  0
   38.0630   23.0080   36.9530 C   0  0  0  0  0  3  0  0  0  0  0  0
   37.9720   24.0820   37.2190 H   0  0  0  0  0  0  0  0  0  0  0  0
   39.4080   22.6630   37.1090 O   0  0  0  0  0  0  0  0  0  0  0  0
   40.2290   23.3890   36.2720 C   0  0  0  0  0  2  0  0  0  0  0  0
   39.5490   24.4360   35.4510 C   0  0  0  0  0  2  0  0  0  0  0  0
  1  6  2  0  0  0  0
  1  2  1  0  0  0  0
  2  3  2  0  0  0  0
  3  4  1  0  0  0  0
  3 22  1  0  0  0  0
  5  7  1  0  0  0  0
  5  4  2  0  0  0  0
  6  5  1  0  0  0  0
  7  9  1  0  0  0  0
  8  1  1  0  0  0  0
 10  7  1  0  0  0  0
 11 12  1  0  0  0  0
 12 13  1  0  0  0  0
 13  2  1  0  0  0  0
 13 14  2  0  0  0  0
 14 19  1  0  0  0  0
 15 14  1  0  0  0  0
 15 20  1  0  0  0  0
 16 15  2  0  0  0  0
 17 16  1  0  0  0  0
 18 12  2  0  0  0  0
 18 16  1  0  0  0  0
 21 18  1  0  0  0  0
 22 25  1  0  0  0  0
 23 22  1  0  0  0  0
 24 22  1  0  0  0  0
 25 26  1  0  0  0  0
 25 32  1  0  0  0  0
 26 28  1  0  0  0  0
 27 26  1  0  0  0  0
 28 30  1  0  0  0  0
 28 29  1  0  0  0  0
 31 30  1  0  0  0  0
 32 31  1  0  0  0  0
M  END
>  <minimizedAffinity>
-5.1093111

$$$$

 OpenBabel03272504103D

 32 34  0  0  0  0  0  0  0  0999 V2000
   38.5660   26.6000   36.0020 C   0  0  0  0  0  0  0  0  0  0  0  0
   38.5930   25.3990   35.3250 C   0  0  0  0  0  0  0  0  0  0  0  0
   37.8160   25.2360   34.1530 C   0  0  0  0  0  0  0  0  0  0  0  0
   37.0690   26.2990   33.7540 N   0  0  0  0  0  0  0  0  0  0  0  0
   37.0680   27.4750   34.4500 C   0  0  0  0  0  0  0  0  0  0  0  0
   37.8170   27.6140   35.5690 N   0  0  0  0  0  0  0  0  0  0  0  0
   36.2470   28.5340   33.9530 N   0  0  0  0  0  0  0  0  0  0  0  0
   39.1670   26.7210   36.9070 H   0  0  0  0  0  0  0  0  0  0  0  0
   36.3500   29.0960   33.0750 H   0  0  0  0  0  0  0  0  0  0  0  0
   35.4250   28.7620   34.5790 H   0  0  0  0  0  0  0  0  0  0  0  0
   37.5310   23.4080   37.3610 Cl  0  0  0  0  0  0  0  0  0  0  0  0
   39.1630   23.3390   36.7610 C   0  0  0  0  0  0  0  0  0  0  0  0
   39.4450   24.3180   35.8510 C   0  0  0  0  0  0  0  0  0  0  0  0
   40.7410   24.3380   35.3080 C   0  0  0  0  0  0  0  0  0  0  0  0
   41.6950   23.4470   35.6460 C   0  0  0  0  0  0  0  0  0  0  0  0
   41.3790   22.4610   36.5770 C   0  0  0  0  0  0  0  0  0  0  0  0
   42.5460   21.2680   37.0650 Cl  0  0  0  0  0  0  0  0  0  0  0  0
   40.1330   22.4240   37.1130 C   0  0  0  0  0  0  0  0  0  0  0  0
   41.0720   25.0590   34.5730 H   0  0  0  0  0  0  0  0  0  0  0  0
   42.7020   23.4290   35.2510 H   0  0  0  0  0  0  0  0  0  0  0  0
   39.7780   21.6990   37.8490 H   0  0  0  0  0  0  0  0  0  0  0  0
   37.8430   23.9610   33.4380 C   0  0  0  0  0  0  0  0  0  0  0  0
   37.0090   23.3090   33.6960 H   0  0  0  0  0  0  0  0  0  0  0  0
   38.8080   23.4730   33.6870 H   0  0  0  0  0  0  0  0  0  0  0  0
   37.8380   24.1720   32.0010 N   0  0  0  0  0  0  0  0  0  0  0  0
   39.1360   24.4250   31.4440 C   0  0  0  0  0  3  0  0  0  0  0  0
   39.5210   25.4340   31.6580 H   0  0  0  0  0  0  0  0  0  0  0  0
   39.0110   24.2100   29.9270 C   0  0  0  0  0  3  0  0  0  0  0  0
   38.0130   24.5800   29.6130 H   0  0  0  0  0  0  0  0  0  0  0  0
   39.0080   22.8240   29.7440 O   0  0  0  0  0  0  0  0  0  0  0  0
   38.0500   22.2020   30.5170 C   0  0  0  0  0  2  0  0  0  0  0  0
   37.1690   23.1140   31.3090 C   0  0  0  0  0  2  0  0  0  0  0  0
  1  8  1  0  0  0  0
  2 13  1  0  0  0  0
  2  1  2  0  0  0  0
  3  2  1  0  0  0  0
  4  3  2  0  0  0  0
  4  5  1  0  0  0  0
  5  6  2  0  0  0  0
  6  1  1  0  0  0  0
  7  5  1  0  0  0  0
  7 10  1  0  0  0  0
  9  7  1  0  0  0  0
 12 18  1  0  0  0  0
 12 11  1  0  0  0  0
 13 12  2  0  0  0  0
 14 15  2  0  0  0  0
 14 13  1  0  0  0  0
 15 16  1  0  0  0  0
 16 17  1  0  0  0  0
 16 18  2  0  0  0  0
 18 21  1  0  0  0  0
 19 14  1  0  0  0  0
 20 15  1  0  0  0  0
 22 24  1  0  0  0  0
 22 23  1  0  0  0  0
 22  3  1  0  0  0  0
 25 22  1  0  0  0  0
 26 27  1  0  0  0  0
 26 25  1  0  0  0  0
 28 26  1  0  0  0  0
 29 28  1  0  0  0  0
 30 28  1  0  0  0  0
 30 31  1  0  0  0  0
 31 32  1  0  0  0  0
 32 25  1  0  0  0  0
M  END
>  <minimizedAffinity>
-5.00324965

$$$$

 OpenBabel03272504103D

 32 34  0  0  0  0  0  0  0  0999 V2000
   37.9170   25.4350   32.8210 C   0  0  0  0  0  0  0  0  0  0  0  0
   37.7760   24.0920   33.1020 C   0  0  0  0  0  0  0  0  0  0  0  0
   36.7860   23.3340   32.4310 C   0  0  0  0  0  0  0  0  0  0  0  0
   36.0130   23.9900   31.5260 N   0  0  0  0  0  0  0  0  0  0  0  0
   36.1820   25.3230   31.2730 C   0  0  0  0  0  0  0  0  0  0  0  0
   37.1340   26.0330   31.9230 N   0  0  0  0  0  0  0  0  0  0  0  0
   35.3170   25.9250   30.3070 N   0  0  0  0  0  0  0  0  0  0  0  0
   38.6820   26.0160   33.3420 H   0  0  0  0  0  0  0  0  0  0  0  0
   35.2700   25.7710   29.2720 H   0  0  0  0  0  0  0  0  0  0  0  0
   34.6360   26.6200   30.7230 H   0  0  0  0  0  0  0  0  0  0  0  0
   40.3140   22.6470   32.2600 Cl  0  0  0  0  0  0  0  0  0  0  0  0
   39.8440   22.8000   33.9280 C   0  0  0  0  0  0  0  0  0  0  0  0
   38.6760   23.4870   34.1000 C   0  0  0  0  0  0  0  0  0  0  0  0
   38.2200   23.6630   35.4170 C   0  0  0  0  0  0  0  0  0  0  0  0
   38.8780   23.1890   36.4940 C   0  0  0  0  0  0  0  0  0  0  0  0
   40.0660   22.4920   36.2890 C   0  0  0  0  0  0  0  0  0  0  0  0
   40.9820   21.8520   37.6210 Cl  0  0  0  0  0  0  0  0  0  0  0  0
   40.5240   22.3110   35.0240 C   0  0  0  0  0  0  0  0  0  0  0  0
   37.3150   24.1990   35.6710 H   0  0  0  0  0  0  0  0  0  0  0  0
   38.5610   23.3040   37.5220 H   0  0  0  0  0  0  0  0  0  0  0  0
   41.4390   21.7820   34.7480 H   0  0  0  0  0  0  0  0  0  0  0  0
   36.6360   21.9110   32.7320 C   0  0  0  0  0  0  0  0  0  0  0  0
   35.9360   21.7190   33.5450 H   0  0  0  0  0  0  0  0  0  0  0  0
   37.6450   21.5280   32.9910 H   0  0  0  0  0  0  0  0  0  0  0  0
   36.1970   21.1770   31.5590 N   0  0  0  0  0  0  0  0  0  0  0  0
   37.2610   20.5400   30.8370 C   0  0  0  0  0  3  0  0  0  0  0  0
   37.8790   21.2370   30.2510 H   0  0  0  0  0  0  0  0  0  0  0  0
   36.6040   19.5010   29.9150 C   0  0  0  0  0  3  0  0  0  0  0  0
   35.6470   19.9280   29.5490 H   0  0  0  0  0  0  0  0  0  0  0  0
   36.2780   18.4200   30.7380 O   0  0  0  0  0  0  0  0  0  0  0  0
   35.5300   18.8080   31.8300 C   0  0  0  0  0  2  0  0  0  0  0  0
   35.1500   20.2530   31.8700 C   0  0  0  0  0  2  0  0  0  0  0  0
  1  2  1  0  0  0  0
  1  8  1  0  0  0  0
  2 13  1  0  0  0  0
  3 22  1  0  0  0  0
  3  2  2  0  0  0  0
  4  3  1  0  0  0  0
  5  4  2  0  0  0  0
  5  6  1  0  0  0  0
  6  1  2  0  0  0  0
  7 10  1  0  0  0  0
  7  5  1  0  0  0  0
  9  7  1  0  0  0  0
 11 12  1  0  0  0  0
 12 13  2  0  0  0  0
 12 18  1  0  0  0  0
 13 14  1  0  0  0  0
 14 19  1  0  0  0  0
 14 15  2  0  0  0  0
 15 20  1  0  0  0  0
 16 15  1  0  0  0  0
 16 17  1  0  0  0  0
 18 16  2  0  0  0  0
 21 18  1  0  0  0  0
 22 24  1  0  0  0  0
 22 23  1  0  0  0  0
 25 32  1  0  0  0  0
 25 22  1  0  0  0  0
 26 25  1  0  0  0  0
 27 26  1  0  0  0  0
 28 30  1  0  0  0  0
 28 26  1  0  0  0  0
 29 28  1  0  0  0  0
 30 31  1  0  0  0  0
 31 32  1  0  0  0  0
M  END
>  <minimizedAffinity>
-4.96648073

$$$$

 OpenBabel03272504103D

 32 34  0  0  0  0  0  0  0  0999 V2000
   38.6560   26.7530   35.8790 C   0  0  0  0  0  0  0  0  0  0  0  0
   38.6910   25.5510   35.2040 C   0  0  0  0  0  0  0  0  0  0  0  0
   37.8430   25.3460   34.0880 C   0  0  0  0  0  0  0  0  0  0  0  0
   37.0230   26.3720   33.7400 N   0  0  0  0  0  0  0  0  0  0  0  0
   37.0160   27.5510   34.4330 C   0  0  0  0  0  0  0  0  0  0  0  0
   37.8330   27.7300   35.4970 N   0  0  0  0  0  0  0  0  0  0  0  0
   36.1150   28.5690   33.9920 N   0  0  0  0  0  0  0  0  0  0  0  0
   39.3120   26.9050   36.7400 H   0  0  0  0  0  0  0  0  0  0  0  0
   36.1310   29.1300   33.1080 H   0  0  0  0  0  0  0  0  0  0  0  0
   35.3280   28.7620   34.6730 H   0  0  0  0  0  0  0  0  0  0  0  0
   41.4830   25.3040   34.0280 Cl  0  0  0  0  0  0  0  0  0  0  0  0
   40.9030   24.2350   35.2730 C   0  0  0  0  0  0  0  0  0  0  0  0
   39.6260   24.5120   35.6710 C   0  0  0  0  0  0  0  0  0  0  0  0
   39.0750   23.7010   36.6770 C   0  0  0  0  0  0  0  0  0  0  0  0
   39.7450   22.6810   37.2510 C   0  0  0  0  0  0  0  0  0  0  0  0
   41.0450   22.4220   36.8250 C   0  0  0  0  0  0  0  0  0  0  0  0
   41.9840   21.1310   37.5150 Cl  0  0  0  0  0  0  0  0  0  0  0  0
   41.5960   23.1930   35.8540 C   0  0  0  0  0  0  0  0  0  0  0  0
   38.0780   23.8350   37.0760 H   0  0  0  0  0  0  0  0  0  0  0  0
   39.3570   22.0360   38.0280 H   0  0  0  0  0  0  0  0  0  0  0  0
   42.6030   23.0790   35.4450 H   0  0  0  0  0  0  0  0  0  0  0  0
   37.8800   24.0710   33.3750 C   0  0  0  0  0  0  0  0  0  0  0  0
   37.0620   23.4050   33.6500 H   0  0  0  0  0  0  0  0  0  0  0  0
   38.8570   23.6000   33.6080 H   0  0  0  0  0  0  0  0  0  0  0  0
   37.8460   24.2790   31.9390 N   0  0  0  0  0  0  0  0  0  0  0  0
   39.1160   24.6220   31.3680 C   0  0  0  0  0  3  0  0  0  0  0  0
   39.4320   25.6560   31.5770 H   0  0  0  0  0  0  0  0  0  0  0  0
   38.9920   24.3950   29.8530 C   0  0  0  0  0  3  0  0  0  0  0  0
   37.9670   24.6940   29.5490 H   0  0  0  0  0  0  0  0  0  0  0  0
   39.0840   23.0130   29.6710 O   0  0  0  0  0  0  0  0  0  0  0  0
   38.1810   22.3270   30.4540 C   0  0  0  0  0  2  0  0  0  0  0  0
   37.2460   23.1750   31.2540 C   0  0  0  0  0  2  0  0  0  0  0  0
  1  8  1  0  0  0  0
  2 13  1  0  0  0  0
  2  1  2  0  0  0  0
  3  2  1  0  0  0  0
  4  3  2  0  0  0  0
  4  5  1  0  0  0  0
  5  6  2  0  0  0  0
  6  1  1  0  0  0  0
  7  5  1  0  0  0  0
  7 10  1  0  0  0  0
  9  7  1  0  0  0  0
 11 12  1  0  0  0  0
 12 13  2  0  0  0  0
 12 18  1  0  0  0  0
 13 14  1  0  0  0  0
 14 19  1  0  0  0  0
 14 15  2  0  0  0  0
 15 20  1  0  0  0  0
 16 15  1  0  0  0  0
 16 17  1  0  0  0  0
 18 16  2  0  0  0  0
 21 18  1  0  0  0  0
 22 24  1  0  0  0  0
 22 23  1  0  0  0  0
 22  3  1  0  0  0  0
 25 22  1  0  0  0  0
 26 27  1  0  0  0  0
 26 25  1  0  0  0  0
 28 26  1  0  0  0  0
 29 28  1  0  0  0  0
 30 28  1  0  0  0  0
 30 31  1  0  0  0  0
 31 32  1  0  0  0  0
 32 25  1  0  0  0  0
M  END
>  <minimizedAffinity>
-4.89942026

$$$$

 OpenBabel03272504103D

 32 34  0  0  0  0  0  0  0  0999 V2000
   38.9430   25.7050   33.3570 C   0  0  0  0  0  0  0  0  0  0  0  0
   38.5720   24.4020   33.6120 C   0  0  0  0  0  0  0  0  0  0  0  0
   37.5530   23.7970   32.8380 C   0  0  0  0  0  0  0  0  0  0  0  0
   36.9840   24.5550   31.8650 N   0  0  0  0  0  0  0  0  0  0  0  0
   37.3780   25.8450   31.6390 C   0  0  0  0  0  0  0  0  0  0  0  0
   38.3550   26.4080   32.3890 N   0  0  0  0  0  0  0  0  0  0  0  0
   36.7180   26.5630   30.5950 N   0  0  0  0  0  0  0  0  0  0  0  0
   39.7300   26.1680   33.9580 H   0  0  0  0  0  0  0  0  0  0  0  0
   36.7540   26.4090   29.5590 H   0  0  0  0  0  0  0  0  0  0  0  0
   36.1110   27.3560   30.9440 H   0  0  0  0  0  0  0  0  0  0  0  0
   37.6230   24.5910   36.4940 Cl  0  0  0  0  0  0  0  0  0  0  0  0
   39.0010   23.6340   36.0320 C   0  0  0  0  0  0  0  0  0  0  0  0
   39.2630   23.6760   34.6930 C   0  0  0  0  0  0  0  0  0  0  0  0
   40.3590   22.9280   34.2270 C   0  0  0  0  0  0  0  0  0  0  0  0
   41.1430   22.1880   35.0360 C   0  0  0  0  0  0  0  0  0  0  0  0
   40.8520   22.1650   36.3990 C   0  0  0  0  0  0  0  0  0  0  0  0
   41.8070   21.2330   37.5130 Cl  0  0  0  0  0  0  0  0  0  0  0  0
   39.7980   22.8800   36.8680 C   0  0  0  0  0  0  0  0  0  0  0  0
   40.6520   22.8790   33.1870 H   0  0  0  0  0  0  0  0  0  0  0  0
   41.9930   21.6000   34.7170 H   0  0  0  0  0  0  0  0  0  0  0  0
   39.4810   22.9350   37.9120 H   0  0  0  0  0  0  0  0  0  0  0  0
   37.1590   22.4160   33.1120 C   0  0  0  0  0  0  0  0  0  0  0  0
   36.4640   22.3280   33.9480 H   0  0  0  0  0  0  0  0  0  0  0  0
   38.0900   21.8510   33.3220 H   0  0  0  0  0  0  0  0  0  0  0  0
   36.5530   21.8080   31.9410 N   0  0  0  0  0  0  0  0  0  0  0  0
   37.3320   20.7510   31.3630 C   0  0  0  0  0  3  0  0  0  0  0  0
   38.2140   21.1040   30.8060 H   0  0  0  0  0  0  0  0  0  0  0  0
   36.3900   19.9690   30.4350 C   0  0  0  0  0  3  0  0  0  0  0  0
   35.7050   20.6980   29.9540 H   0  0  0  0  0  0  0  0  0  0  0  0
   35.6100   19.1720   31.2770 O   0  0  0  0  0  0  0  0  0  0  0  0
   34.9970   19.9100   32.2670 C   0  0  0  0  0  2  0  0  0  0  0  0
   35.2080   21.3880   32.1930 C   0  0  0  0  0  2  0  0  0  0  0  0
  1  2  1  0  0  0  0
  1  8  1  0  0  0  0
  2 13  1  0  0  0  0
  3 22  1  0  0  0  0
  3  2  2  0  0  0  0
  4  3  1  0  0  0  0
  5  4  2  0  0  0  0
  5  6  1  0  0  0  0
  6  1  2  0  0  0  0
  7 10  1  0  0  0  0
  7  5  1  0  0  0  0
  9  7  1  0  0  0  0
 12 11  1  0  0  0  0
 12 18  1  0  0  0  0
 13 12  2  0  0  0  0
 14 13  1  0  0  0  0
 14 15  2  0  0  0  0
 15 16  1  0  0  0  0
 16 18  2  0  0  0  0
 16 17  1  0  0  0  0
 18 21  1  0  0  0  0
 19 14  1  0  0  0  0
 20 15  1  0  0  0  0
 22 24  1  0  0  0  0
 22 23  1  0  0  0  0
 25 32  1  0  0  0  0
 25 22  1  0  0  0  0
 26 25  1  0  0  0  0
 27 26  1  0  0  0  0
 28 30  1  0  0  0  0
 28 26  1  0  0  0  0
 29 28  1  0  0  0  0
 30 31  1  0  0  0  0
 32 31  1  0  0  0  0
M  END
>  <minimizedAffinity>
-4.89937353

$$$$
