
 OpenBabel03272506383D

 36 38  0  0  1  0  0  0  0  0999 V2000
   34.9050   28.4550   50.0090 O   0  0  0  0  0  0  0  0  0  0  0  0
   34.6810   28.9270   48.8800 C   0  0  0  0  0  0  0  0  0  0  0  0
   35.3970   30.0870   48.3850 C   0  0  2  0  0  0  0  0  0  0  0  0
   34.9100   30.1180   46.9010 C   0  0  0  0  0  0  0  0  0  0  0  0
   33.5670   29.4680   46.9680 C   0  0  0  0  0  0  0  0  0  0  0  0
   33.7230   28.4050   47.9540 N   0  0  0  0  0  0  0  0  0  0  0  0
   35.1100   31.0720   48.7890 H   0  0  0  0  0  0  0  0  0  0  0  0
   35.6280   29.5960   46.2500 H   0  0  0  0  0  0  0  0  0  0  0  0
   34.7920   31.1730   46.5850 H   0  0  0  0  0  0  0  0  0  0  0  0
   33.3610   28.9800   45.9960 H   0  0  0  0  0  0  0  0  0  0  0  0
   32.7830   30.1950   47.2520 H   0  0  0  0  0  0  0  0  0  0  0  0
   33.0430   27.1180   47.9680 C   0  0  0  0  0  0  0  0  0  0  0  0
   33.2480   26.6880   48.9680 H   0  0  0  0  0  0  0  0  0  0  0  0
   31.9550   27.3200   47.9160 H   0  0  0  0  0  0  0  0  0  0  0  0
   33.3730   26.2720   46.8670 N   0  0  0  0  0  0  0  0  0  0  0  0
   32.2650   26.1880   45.9380 C   0  0  0  0  0  0  0  0  0  0  0  0
   31.9300   27.1820   45.5710 H   0  0  0  0  0  0  0  0  0  0  0  0
   31.0870   25.4130   46.4920 C   0  0  0  0  0  0  0  0  0  0  0  0
   30.3450   25.3730   45.6590 H   0  0  0  0  0  0  0  0  0  0  0  0
   31.5310   24.1010   46.6860 O   0  0  0  0  0  0  0  0  0  0  0  0
   32.5660   24.0700   47.6250 C   0  0  0  0  0  0  0  0  0  0  0  0
   33.7310   24.9270   47.2420 C   0  0  0  0  0  0  0  0  0  0  0  0
   36.8160   29.9070   48.3170 O   0  0  0  0  0  0  0  0  0  0  0  0
   37.6060   31.0550   48.3370 C   0  0  0  0  0  0  0  0  0  0  0  0
   37.7730   31.6740   49.5630 C   0  0  0  0  0  0  0  0  0  0  0  0
   38.5520   32.8180   49.6160 C   0  0  0  0  0  0  0  0  0  0  0  0
   39.1170   33.2840   48.4680 N   0  0  0  0  0  0  0  0  0  0  0  0
   38.9420   32.6690   47.2860 C   0  0  0  0  0  0  0  0  0  0  0  0
   38.1990   31.5780   47.2430 N   0  0  0  0  0  0  0  0  0  0  0  0
   40.4330   32.2610   45.4880 C   0  0  0  0  0  0  0  0  0  0  0  0
   40.7200   31.0840   45.8660 O   0  0  0  0  0  0  0  0  0  0  0  0
   39.5480   33.1870   46.1070 N   0  0  0  0  0  0  0  0  0  0  0  0
   37.3170   31.2890   50.4610 H   0  0  0  0  0  0  0  0  0  0  0  0
   38.7030   33.3270   50.5560 H   0  0  0  0  0  0  0  0  0  0  0  0
   40.9730   32.5010   44.5800 H   0  0  0  0  0  0  0  0  0  0  0  0
   39.3810   34.1250   45.7200 H   0  0  0  0  0  0  0  0  0  0  0  0
  2  1  2  0  0  0  0
  3  7  1  1  0  0  0
  3  2  1  0  0  0  0
  4  5  1  0  0  0  0
  4  3  1  0  0  0  0
  5 11  1  0  0  0  0
  5  6  1  0  0  0  0
  6 12  1  0  0  0  0
  6  2  1  0  0  0  0
  8  4  1  0  0  0  0
  9  4  1  0  0  0  0
 10  5  1  0  0  0  0
 12 13  1  0  0  0  0
 14 12  1  0  0  0  0
 15 22  1  0  0  0  0
 15 12  1  0  0  0  0
 16 18  1  0  0  0  0
 16 15  1  0  0  0  0
 17 16  1  0  0  0  0
 18 20  1  0  0  0  0
 19 18  1  0  0  0  0
 20 21  1  0  0  0  0
 22 21  1  0  0  0  0
 23 24  1  0  0  0  0
 23  3  1  0  0  0  0
 24 25  1  0  0  0  0
 25 26  2  0  0  0  0
 25 33  1  0  0  0  0
 26 34  1  0  0  0  0
 27 26  1  0  0  0  0
 28 27  2  0  0  0  0
 29 28  1  0  0  0  0
 29 24  2  0  0  0  0
 30 31  2  0  0  0  0
 30 32  1  0  0  0  0
 32 28  1  0  0  0  0
 35 30  1  0  0  0  0
 36 32  1  0  0  0  0
M  END
>  <minimizedAffinity>
-5.49274921

>  <minimizedRMSD>
1.17360663

$$$$
