
 OpenBabel03262523393D

 44 47  0  0  1  0  0  0  0  0999 V2000
   36.5090   23.4370   31.4390 C   0  0  2  0  0  0  0  0  0  0  0  0
   37.5830   24.1480   32.1880 C   0  0  0  0  0  0  0  0  0  0  0  0
   37.0580   25.3650   32.9540 C   0  0  2  0  0  0  0  0  0  0  0  0
   36.5380   26.3600   31.9450 C   0  0  0  0  0  0  0  0  0  0  0  0
   35.5850   25.7190   30.9530 C   0  0  0  0  0  0  0  0  0  0  0  0
   35.2640   24.2930   31.3290 C   0  0  0  0  0  0  0  0  0  0  0  0
   36.7780   23.1910   30.3710 H   0  0  0  0  0  0  0  0  0  0  0  0
   38.3350   23.6150   32.7110 H   0  0  0  0  0  0  0  0  0  0  0  0
   38.1750   24.6740   31.3470 H   0  0  0  0  0  0  0  0  0  0  0  0
   36.1810   24.9850   33.5150 H   0  0  0  0  0  0  0  0  0  0  0  0
   36.1440   27.2630   32.4050 H   0  0  0  0  0  0  0  0  0  0  0  0
   37.4350   26.6870   31.3530 H   0  0  0  0  0  0  0  0  0  0  0  0
   34.6370   26.2770   30.9330 H   0  0  0  0  0  0  0  0  0  0  0  0
   35.9850   25.7360   29.9080 H   0  0  0  0  0  0  0  0  0  0  0  0
   34.5840   23.8940   30.5560 H   0  0  0  0  0  0  0  0  0  0  0  0
   34.6900   24.3280   32.2770 H   0  0  0  0  0  0  0  0  0  0  0  0
   38.0300   25.8970   33.9160 C   0  0  2  0  0  0  0  0  0  0  0  0
   39.0970   26.7970   33.3590 C   0  0  0  0  0  0  0  0  0  0  0  0
   39.9870   26.8810   34.6100 C   0  0  0  0  0  0  0  0  0  0  0  0
   39.9730   25.6160   35.1490 O   0  0  0  0  0  0  0  0  0  0  0  0
   38.8670   24.9220   34.6560 C   0  0  1  0  0  0  0  0  0  0  0  0
   37.4810   26.4920   34.6700 H   0  0  0  0  0  0  0  0  0  0  0  0
   38.7240   27.8190   33.1570 H   0  0  0  0  0  0  0  0  0  0  0  0
   39.6540   26.3720   32.5130 H   0  0  0  0  0  0  0  0  0  0  0  0
   40.9800   27.2030   34.2360 H   0  0  0  0  0  0  0  0  0  0  0  0
   39.5580   27.6420   35.2980 H   0  0  0  0  0  0  0  0  0  0  0  0
   39.3300   24.1230   34.0300 H   0  0  0  0  0  0  0  0  0  0  0  0
   38.2390   24.2490   35.7360 N   0  0  2  0  0  0  0  0  0  0  0  0
   38.1830   24.9000   36.9960 C   0  0  0  0  0  3  0  0  0  0  0  0
   37.3550   25.6460   37.0830 H   0  0  0  0  0  0  0  0  0  0  0  0
   37.7870   23.8200   38.0140 C   0  0  0  0  0  3  0  0  0  0  0  0
   37.2740   24.2240   38.8890 H   0  0  0  0  0  0  0  0  0  0  0  0
   38.9050   23.0550   38.3380 O   0  0  0  0  0  0  0  0  0  0  0  0
   39.7040   22.9340   37.2030 C   0  0  0  0  0  2  0  0  0  0  0  0
   38.8860   22.9660   35.9320 C   0  0  0  0  0  2  0  0  0  0  0  0
   36.1140   22.1590   32.0630 C   0  0  0  0  0  0  0  0  0  0  0  0
   35.4020   21.2820   31.2440 C   0  0  0  0  0  0  0  0  0  0  0  0
   35.0220   20.0630   31.7600 C   0  0  0  0  0  0  0  0  0  0  0  0
   35.3560   19.7530   33.0640 N   0  0  0  0  0  0  0  0  0  0  0  0
   36.0510   20.6360   33.8320 C   0  0  0  0  0  0  0  0  0  0  0  0
   36.4130   21.8100   33.3220 N   0  0  0  0  0  0  0  0  0  0  0  0
   35.0240   21.2700   30.2350 H   0  0  0  0  0  0  0  0  0  0  0  0
   34.4840   19.2300   31.3550 H   0  0  0  0  0  0  0  0  0  0  0  0
   36.3190   20.4070   34.8530 H   0  0  0  0  0  0  0  0  0  0  0  0
  1  7  1  6  0  0  0
  1 36  1  0  0  0  0
  1  2  1  0  0  0  0
  2  8  1  0  0  0  0
  2  3  1  0  0  0  0
  3 10  1  1  0  0  0
  3 17  1  0  0  0  0
  4 11  1  0  0  0  0
  4  3  1  0  0  0  0
  5  6  1  0  0  0  0
  5  4  1  0  0  0  0
  6  1  1  0  0  0  0
  6 16  1  0  0  0  0
  9  2  1  0  0  0  0
 12  4  1  0  0  0  0
 13  5  1  0  0  0  0
 14  5  1  0  0  0  0
 15  6  1  0  0  0  0
 17 21  1  0  0  0  0
 17 22  1  1  0  0  0
 18 17  1  0  0  0  0
 18 19  1  0  0  0  0
 19 20  1  0  0  0  0
 19 26  1  0  0  0  0
 21 27  1  6  0  0  0
 21 20  1  0  0  0  0
 21 28  1  0  0  0  0
 23 18  1  0  0  0  0
 24 18  1  0  0  0  0
 25 19  1  0  0  0  0
 28 35  1  1  0  0  0
 28 29  1  0  0  0  0
 29 30  1  0  0  0  0
 29 31  1  0  0  0  0
 31 33  1  0  0  0  0
 31 32  1  0  0  0  0
 34 33  1  0  0  0  0
 35 34  1  0  0  0  0
 36 41  1  0  0  0  0
 37 38  1  0  0  0  0
 37 36  2  0  0  0  0
 38 39  2  0  0  0  0
 39 40  1  0  0  0  0
 40 44  1  0  0  0  0
 41 40  2  0  0  0  0
 42 37  1  0  0  0  0
 43 38  1  0  0  0  0
M  END
>  <minimizedAffinity>
-5.98472881

$$$$

 OpenBabel03262523393D

 44 47  0  0  1  0  0  0  0  0999 V2000
   37.6360   26.9910   33.0040 C   0  0  2  0  0  0  0  0  0  0  0  0
   38.9470   26.4050   33.4040 C   0  0  0  0  0  0  0  0  0  0  0  0
   38.9770   25.9860   34.8770 C   0  0  2  0  0  0  0  0  0  0  0  0
   38.8110   27.2290   35.7170 C   0  0  0  0  0  0  0  0  0  0  0  0
   37.6230   28.0630   35.2730 C   0  0  0  0  0  0  0  0  0  0  0  0
   36.8080   27.3540   34.2180 C   0  0  0  0  0  0  0  0  0  0  0  0
   37.7200   27.9530   32.4210 H   0  0  0  0  0  0  0  0  0  0  0  0
   39.4700   25.7400   32.7670 H   0  0  0  0  0  0  0  0  0  0  0  0
   39.6380   27.3300   33.4400 H   0  0  0  0  0  0  0  0  0  0  0  0
   38.0600   25.3790   35.0140 H   0  0  0  0  0  0  0  0  0  0  0  0
   38.8220   27.0230   36.7850 H   0  0  0  0  0  0  0  0  0  0  0  0
   39.7250   27.8530   35.5170 H   0  0  0  0  0  0  0  0  0  0  0  0
   36.9610   28.2540   36.1300 H   0  0  0  0  0  0  0  0  0  0  0  0
   37.9300   29.0640   34.8790 H   0  0  0  0  0  0  0  0  0  0  0  0
   35.9780   28.0260   33.9380 H   0  0  0  0  0  0  0  0  0  0  0  0
   36.3530   26.4650   34.7020 H   0  0  0  0  0  0  0  0  0  0  0  0
   40.1380   25.1540   35.2090 C   0  0  2  0  0  0  0  0  0  0  0  0
   41.4800   25.6780   34.7800 C   0  0  0  0  0  0  0  0  0  0  0  0
   42.3130   24.4210   35.0800 C   0  0  0  0  0  0  0  0  0  0  0  0
   41.5200   23.3640   34.6990 O   0  0  0  0  0  0  0  0  0  0  0  0
   40.1930   23.7890   34.6340 C   0  0  1  0  0  0  0  0  0  0  0  0
   40.1830   25.0450   36.3100 H   0  0  0  0  0  0  0  0  0  0  0  0
   41.8530   26.4800   35.4450 H   0  0  0  0  0  0  0  0  0  0  0  0
   41.5450   25.9440   33.7150 H   0  0  0  0  0  0  0  0  0  0  0  0
   43.2350   24.5350   34.4760 H   0  0  0  0  0  0  0  0  0  0  0  0
   42.5500   24.4060   36.1660 H   0  0  0  0  0  0  0  0  0  0  0  0
   39.9610   23.7250   33.5440 H   0  0  0  0  0  0  0  0  0  0  0  0
   39.3750   22.8120   35.2580 N   0  0  2  0  0  0  0  0  0  0  0  0
   38.0190   22.7080   34.8500 C   0  0  0  0  0  3  0  0  0  0  0  0
   37.8730   22.1160   33.9120 H   0  0  0  0  0  0  0  0  0  0  0  0
   37.3200   21.8490   35.9150 C   0  0  0  0  0  3  0  0  0  0  0  0
   36.4480   21.3160   35.5310 H   0  0  0  0  0  0  0  0  0  0  0  0
   37.0370   22.6330   37.0310 O   0  0  0  0  0  0  0  0  0  0  0  0
   38.0620   23.5620   37.1930 C   0  0  0  0  0  2  0  0  0  0  0  0
   39.3860   23.0320   36.6910 C   0  0  0  0  0  2  0  0  0  0  0  0
   36.8240   26.0810   32.1700 C   0  0  0  0  0  0  0  0  0  0  0  0
   37.3510   24.8030   31.9830 C   0  0  0  0  0  0  0  0  0  0  0  0
   36.6320   23.9000   31.2320 C   0  0  0  0  0  0  0  0  0  0  0  0
   35.4210   24.2890   30.6930 N   0  0  0  0  0  0  0  0  0  0  0  0
   34.9410   25.5460   30.8980 C   0  0  0  0  0  0  0  0  0  0  0  0
   35.6450   26.4090   31.6250 N   0  0  0  0  0  0  0  0  0  0  0  0
   38.2330   24.2590   32.2760 H   0  0  0  0  0  0  0  0  0  0  0  0
   36.8050   22.8830   30.9450 H   0  0  0  0  0  0  0  0  0  0  0  0
   33.9960   25.8640   30.4820 H   0  0  0  0  0  0  0  0  0  0  0  0
  1  7  1  6  0  0  0
  1  2  1  0  0  0  0
  1  6  1  0  0  0  0
  2  9  1  0  0  0  0
  2  3  1  0  0  0  0
  3 10  1  1  0  0  0
  3 17  1  0  0  0  0
  3  4  1  0  0  0  0
  4 11  1  0  0  0  0
  5  4  1  0  0  0  0
  5 13  1  0  0  0  0
  6 16  1  0  0  0  0
  6  5  1  0  0  0  0
  8  2  1  0  0  0  0
 12  4  1  0  0  0  0
 14  5  1  0  0  0  0
 15  6  1  0  0  0  0
 17 22  1  1  0  0  0
 18 19  1  0  0  0  0
 18 17  1  0  0  0  0
 18 23  1  0  0  0  0
 19 26  1  0  0  0  0
 20 19  1  0  0  0  0
 21 27  1  6  0  0  0
 21 20  1  0  0  0  0
 21 17  1  0  0  0  0
 21 28  1  0  0  0  0
 24 18  1  0  0  0  0
 25 19  1  0  0  0  0
 28 35  1  1  0  0  0
 29 28  1  0  0  0  0
 29 31  1  0  0  0  0
 30 29  1  0  0  0  0
 31 33  1  0  0  0  0
 32 31  1  0  0  0  0
 33 34  1  0  0  0  0
 35 34  1  0  0  0  0
 36  1  1  0  0  0  0
 37 36  1  0  0  0  0
 37 42  1  0  0  0  0
 38 37  2  0  0  0  0
 39 40  2  0  0  0  0
 39 38  1  0  0  0  0
 40 41  1  0  0  0  0
 41 36  2  0  0  0  0
 43 38  1  0  0  0  0
 44 40  1  0  0  0  0
M  END
>  <minimizedAffinity>
-5.61052847

$$$$

 OpenBabel03262523393D

 44 47  0  0  1  0  0  0  0  0999 V2000
   37.3760   27.0820   33.0670 C   0  0  2  0  0  0  0  0  0  0  0  0
   38.8290   26.8240   33.2740 C   0  0  0  0  0  0  0  0  0  0  0  0
   39.1480   26.3750   34.7030 C   0  0  2  0  0  0  0  0  0  0  0  0
   38.7990   27.5090   35.6340 C   0  0  0  0  0  0  0  0  0  0  0  0
   37.3990   28.0400   35.3860 C   0  0  0  0  0  0  0  0  0  0  0  0
   36.6490   27.1900   34.3910 C   0  0  0  0  0  0  0  0  0  0  0  0
   37.1510   28.0550   32.5420 H   0  0  0  0  0  0  0  0  0  0  0  0
   39.4110   26.3300   32.5390 H   0  0  0  0  0  0  0  0  0  0  0  0
   39.2780   27.8880   33.2880 H   0  0  0  0  0  0  0  0  0  0  0  0
   38.4290   25.5570   34.9060 H   0  0  0  0  0  0  0  0  0  0  0  0
   38.9970   27.2760   36.6790 H   0  0  0  0  0  0  0  0  0  0  0  0
   39.5030   28.3450   35.3710 H   0  0  0  0  0  0  0  0  0  0  0  0
   36.8260   28.0340   36.3260 H   0  0  0  0  0  0  0  0  0  0  0  0
   37.4040   29.0990   35.0250 H   0  0  0  0  0  0  0  0  0  0  0  0
   35.6530   27.6460   34.2530 H   0  0  0  0  0  0  0  0  0  0  0  0
   36.4860   26.2010   34.8660 H   0  0  0  0  0  0  0  0  0  0  0  0
   40.5080   25.8430   34.8430 C   0  0  2  0  0  0  0  0  0  0  0  0
   41.6100   26.6540   34.2210 C   0  0  0  0  0  0  0  0  0  0  0  0
   42.7480   25.6310   34.3750 C   0  0  0  0  0  0  0  0  0  0  0  0
   42.1750   24.4110   34.1050 O   0  0  0  0  0  0  0  0  0  0  0  0
   40.7910   24.5140   34.2480 C   0  0  1  0  0  0  0  0  0  0  0  0
   40.7430   25.7720   35.9220 H   0  0  0  0  0  0  0  0  0  0  0  0
   41.8820   27.5350   34.8320 H   0  0  0  0  0  0  0  0  0  0  0  0
   41.4500   26.9030   33.1630 H   0  0  0  0  0  0  0  0  0  0  0  0
   43.5160   25.9430   33.6380 H   0  0  0  0  0  0  0  0  0  0  0  0
   43.1440   25.6960   35.4110 H   0  0  0  0  0  0  0  0  0  0  0  0
   40.4190   24.3730   33.2060 H   0  0  0  0  0  0  0  0  0  0  0  0
   40.3270   23.3890   34.9780 N   0  0  2  0  0  0  0  0  0  0  0  0
   39.6100   23.6160   36.1820 C   0  0  0  0  0  3  0  0  0  0  0  0
   38.5310   23.8620   36.0270 H   0  0  0  0  0  0  0  0  0  0  0  0
   39.5580   22.2610   36.9050 C   0  0  0  0  0  3  0  0  0  0  0  0
   38.6970   22.1630   37.5690 H   0  0  0  0  0  0  0  0  0  0  0  0
   40.7740   22.0300   37.5450 O   0  0  0  0  0  0  0  0  0  0  0  0
   41.7960   22.5630   36.7630 C   0  0  0  0  0  2  0  0  0  0  0  0
   41.4530   22.5320   35.2910 C   0  0  0  0  0  2  0  0  0  0  0  0
   36.7060   26.0310   32.2770 C   0  0  0  0  0  0  0  0  0  0  0  0
   37.2200   24.7420   32.4280 C   0  0  0  0  0  0  0  0  0  0  0  0
   36.6250   23.7130   31.7330 C   0  0  0  0  0  0  0  0  0  0  0  0
   35.5460   23.9890   30.9160 N   0  0  0  0  0  0  0  0  0  0  0  0
   35.0740   25.2590   30.7950 C   0  0  0  0  0  0  0  0  0  0  0  0
   35.6570   26.2460   31.4710 N   0  0  0  0  0  0  0  0  0  0  0  0
   38.0170   24.2670   32.9740 H   0  0  0  0  0  0  0  0  0  0  0  0
   36.8190   22.6610   31.6740 H   0  0  0  0  0  0  0  0  0  0  0  0
   34.2310   25.4900   30.1600 H   0  0  0  0  0  0  0  0  0  0  0  0
  1  7  1  6  0  0  0
  1  2  1  0  0  0  0
  1  6  1  0  0  0  0
  2  9  1  0  0  0  0
  2  3  1  0  0  0  0
  3 17  1  0  0  0  0
  3 10  1  1  0  0  0
  3  4  1  0  0  0  0
  4 11  1  0  0  0  0
  5  4  1  0  0  0  0
  5 13  1  0  0  0  0
  6 16  1  0  0  0  0
  6  5  1  0  0  0  0
  8  2  1  0  0  0  0
 12  4  1  0  0  0  0
 14  5  1  0  0  0  0
 15  6  1  0  0  0  0
 17 22  1  1  0  0  0
 18 19  1  0  0  0  0
 18 23  1  0  0  0  0
 18 17  1  0  0  0  0
 19 26  1  0  0  0  0
 20 21  1  0  0  0  0
 20 19  1  0  0  0  0
 21 27  1  6  0  0  0
 21 17  1  0  0  0  0
 21 28  1  0  0  0  0
 24 18  1  0  0  0  0
 25 19  1  0  0  0  0
 28 35  1  1  0  0  0
 28 29  1  0  0  0  0
 29 31  1  0  0  0  0
 30 29  1  0  0  0  0
 31 33  1  0  0  0  0
 31 32  1  0  0  0  0
 34 33  1  0  0  0  0
 35 34  1  0  0  0  0
 36 37  1  0  0  0  0
 36  1  1  0  0  0  0
 37 42  1  0  0  0  0
 38 37  2  0  0  0  0
 39 38  1  0  0  0  0
 40 39  2  0  0  0  0
 40 41  1  0  0  0  0
 41 36  2  0  0  0  0
 43 38  1  0  0  0  0
 44 40  1  0  0  0  0
M  END
>  <minimizedAffinity>
-5.49773741

$$$$

 OpenBabel03262523393D

 44 47  0  0  1  0  0  0  0  0999 V2000
   39.0160   26.0290   34.8570 C   0  0  2  0  0  0  0  0  0  0  0  0
   37.8430   25.9260   33.9420 C   0  0  0  0  0  0  0  0  0  0  0  0
   38.2510   25.6430   32.4940 C   0  0  2  0  0  0  0  0  0  0  0  0
   39.0530   26.8210   31.9990 C   0  0  0  0  0  0  0  0  0  0  0  0
   40.1690   27.1950   32.9570 C   0  0  0  0  0  0  0  0  0  0  0  0
   40.3030   26.1900   34.0750 C   0  0  0  0  0  0  0  0  0  0  0  0
   38.9880   26.9240   35.5430 H   0  0  0  0  0  0  0  0  0  0  0  0
   36.9590   25.4220   34.2360 H   0  0  0  0  0  0  0  0  0  0  0  0
   37.4970   27.0250   33.8470 H   0  0  0  0  0  0  0  0  0  0  0  0
   38.9480   24.7840   32.5620 H   0  0  0  0  0  0  0  0  0  0  0  0
   39.3850   26.7050   30.9690 H   0  0  0  0  0  0  0  0  0  0  0  0
   38.3400   27.6910   31.9920 H   0  0  0  0  0  0  0  0  0  0  0  0
   41.1280   27.2220   32.4200 H   0  0  0  0  0  0  0  0  0  0  0  0
   40.0240   28.2120   33.4010 H   0  0  0  0  0  0  0  0  0  0  0  0
   41.1180   26.5370   34.7330 H   0  0  0  0  0  0  0  0  0  0  0  0
   40.6420   25.2380   33.6170 H   0  0  0  0  0  0  0  0  0  0  0  0
   37.1180   25.2540   31.6480 C   0  0  2  0  0  0  0  0  0  0  0  0
   36.0390   26.2850   31.4610 C   0  0  0  0  0  0  0  0  0  0  0  0
   34.9970   25.3900   30.7710 C   0  0  0  0  0  0  0  0  0  0  0  0
   35.0770   24.1790   31.4190 O   0  0  0  0  0  0  0  0  0  0  0  0
   36.3010   24.0950   32.0820 C   0  0  1  0  0  0  0  0  0  0  0  0
   37.5040   25.0200   30.6370 H   0  0  0  0  0  0  0  0  0  0  0  0
   36.3250   27.0690   30.7350 H   0  0  0  0  0  0  0  0  0  0  0  0
   35.6390   26.6990   32.3980 H   0  0  0  0  0  0  0  0  0  0  0  0
   34.0300   25.9140   30.9100 H   0  0  0  0  0  0  0  0  0  0  0  0
   35.2560   25.3140   29.6930 H   0  0  0  0  0  0  0  0  0  0  0  0
   36.0060   24.1010   33.1580 H   0  0  0  0  0  0  0  0  0  0  0  0
   36.8580   22.8120   31.8420 N   0  0  2  0  0  0  0  0  0  0  0  0
   36.0770   21.8600   31.1340 C   0  0  0  0  0  3  0  0  0  0  0  0
   36.1020   21.9920   30.0240 H   0  0  0  0  0  0  0  0  0  0  0  0
   36.7720   20.5060   31.3400 C   0  0  0  0  0  3  0  0  0  0  0  0
   36.5810   19.7990   30.5300 H   0  0  0  0  0  0  0  0  0  0  0  0
   36.4420   20.0020   32.5960 O   0  0  0  0  0  0  0  0  0  0  0  0
   36.3270   21.0670   33.4860 C   0  0  0  0  0  2  0  0  0  0  0  0
   37.2340   22.2170   33.1090 C   0  0  0  0  0  2  0  0  0  0  0  0
   39.1740   24.8510   35.7330 C   0  0  0  0  0  0  0  0  0  0  0  0
   40.2710   24.0350   35.4550 C   0  0  0  0  0  0  0  0  0  0  0  0
   40.4860   22.9310   36.2500 C   0  0  0  0  0  0  0  0  0  0  0  0
   39.6120   22.6710   37.2870 N   0  0  0  0  0  0  0  0  0  0  0  0
   38.5530   23.4900   37.5260 C   0  0  0  0  0  0  0  0  0  0  0  0
   38.3560   24.5540   36.7520 N   0  0  0  0  0  0  0  0  0  0  0  0
   41.0760   24.0060   34.7400 H   0  0  0  0  0  0  0  0  0  0  0  0
   41.2340   22.1640   36.2520 H   0  0  0  0  0  0  0  0  0  0  0  0
   37.8620   23.2980   38.3340 H   0  0  0  0  0  0  0  0  0  0  0  0
  1  7  1  1  0  0  0
  1 36  1  0  0  0  0
  2  8  1  0  0  0  0
  2  1  1  0  0  0  0
  3 10  1  1  0  0  0
  3  2  1  0  0  0  0
  4  3  1  0  0  0  0
  4  5  1  0  0  0  0
  5 14  1  0  0  0  0
  5  6  1  0  0  0  0
  6 15  1  0  0  0  0
  6  1  1  0  0  0  0
  9  2  1  0  0  0  0
 11  4  1  0  0  0  0
 12  4  1  0  0  0  0
 13  5  1  0  0  0  0
 16  6  1  0  0  0  0
 17 22  1  6  0  0  0
 17 21  1  0  0  0  0
 17  3  1  0  0  0  0
 18 17  1  0  0  0  0
 18 24  1  0  0  0  0
 19 25  1  0  0  0  0
 19 20  1  0  0  0  0
 19 18  1  0  0  0  0
 20 21  1  0  0  0  0
 21 27  1  1  0  0  0
 23 18  1  0  0  0  0
 26 19  1  0  0  0  0
 28 21  1  0  0  0  0
 28 35  1  1  0  0  0
 29 31  1  0  0  0  0
 29 28  1  0  0  0  0
 30 29  1  0  0  0  0
 31 33  1  0  0  0  0
 32 31  1  0  0  0  0
 33 34  1  0  0  0  0
 35 34  1  0  0  0  0
 36 41  1  0  0  0  0
 37 36  2  0  0  0  0
 37 38  1  0  0  0  0
 38 43  1  0  0  0  0
 38 39  2  0  0  0  0
 39 40  1  0  0  0  0
 40 44  1  0  0  0  0
 41 40  2  0  0  0  0
 42 37  1  0  0  0  0
M  END
>  <minimizedAffinity>
-5.32156324

$$$$

 OpenBabel03262523393D

 44 47  0  0  1  0  0  0  0  0999 V2000
   36.0470   28.6620   31.5240 C   0  0  2  0  0  0  0  0  0  0  0  0
   35.2230   29.4770   32.4610 C   0  0  0  0  0  0  0  0  0  0  0  0
   35.9460   29.7640   33.7800 C   0  0  2  0  0  0  0  0  0  0  0  0
   36.1770   28.4470   34.4790 C   0  0  0  0  0  0  0  0  0  0  0  0
   36.8180   27.4210   33.5640 C   0  0  0  0  0  0  0  0  0  0  0  0
   37.2190   28.0270   32.2410 C   0  0  0  0  0  0  0  0  0  0  0  0
   35.4950   27.7940   31.0610 H   0  0  0  0  0  0  0  0  0  0  0  0
   34.6390   30.2910   32.1160 H   0  0  0  0  0  0  0  0  0  0  0  0
   34.4270   28.7220   32.8240 H   0  0  0  0  0  0  0  0  0  0  0  0
   36.9400   30.1480   33.4760 H   0  0  0  0  0  0  0  0  0  0  0  0
   36.6880   28.5580   35.4330 H   0  0  0  0  0  0  0  0  0  0  0  0
   35.1540   28.0520   34.7260 H   0  0  0  0  0  0  0  0  0  0  0  0
   37.7280   27.0190   34.0330 H   0  0  0  0  0  0  0  0  0  0  0  0
   36.1470   26.5460   33.3710 H   0  0  0  0  0  0  0  0  0  0  0  0
   37.6600   27.2210   31.6300 H   0  0  0  0  0  0  0  0  0  0  0  0
   38.0310   28.7530   32.4500 H   0  0  0  0  0  0  0  0  0  0  0  0
   35.2780   30.7930   34.5850 C   0  0  2  0  0  0  0  0  0  0  0  0
   36.0370   31.3070   35.7760 C   0  0  0  0  0  0  0  0  0  0  0  0
   34.9020   32.1150   36.4270 C   0  0  0  0  0  0  0  0  0  0  0  0
   33.7720   31.3510   36.2570 O   0  0  0  0  0  0  0  0  0  0  0  0
   33.9910   30.4340   35.2280 C   0  0  1  0  0  0  0  0  0  0  0  0
   35.0840   31.6690   33.9360 H   0  0  0  0  0  0  0  0  0  0  0  0
   36.8280   32.0280   35.4940 H   0  0  0  0  0  0  0  0  0  0  0  0
   36.3990   30.5240   36.4570 H   0  0  0  0  0  0  0  0  0  0  0  0
   35.2090   32.2400   37.4850 H   0  0  0  0  0  0  0  0  0  0  0  0
   34.8320   33.1000   35.9160 H   0  0  0  0  0  0  0  0  0  0  0  0
   33.9840   29.4530   35.7590 H   0  0  0  0  0  0  0  0  0  0  0  0
   32.8500   30.4220   34.3840 N   0  0  2  0  0  0  0  0  0  0  0  0
   31.9390   31.5080   34.4660 C   0  0  0  0  0  3  0  0  0  0  0  0
   32.2580   32.4110   33.8900 H   0  0  0  0  0  0  0  0  0  0  0  0
   30.6710   31.0530   33.7270 C   0  0  0  0  0  3  0  0  0  0  0  0
   30.0930   31.8840   33.3180 H   0  0  0  0  0  0  0  0  0  0  0  0
   29.9230   30.2210   34.5580 O   0  0  0  0  0  0  0  0  0  0  0  0
   30.7980   29.4660   35.3340 C   0  0  0  0  0  2  0  0  0  0  0  0
   32.1030   29.2020   34.6170 C   0  0  0  0  0  2  0  0  0  0  0  0
   36.5890   29.4460   30.3960 C   0  0  0  0  0  0  0  0  0  0  0  0
   37.3020   28.7180   29.4430 C   0  0  0  0  0  0  0  0  0  0  0  0
   37.8160   29.3880   28.3550 C   0  0  0  0  0  0  0  0  0  0  0  0
   37.6090   30.7500   28.2460 N   0  0  0  0  0  0  0  0  0  0  0  0
   36.9080   31.4240   29.1970 C   0  0  0  0  0  0  0  0  0  0  0  0
   36.4160   30.7660   30.2430 N   0  0  0  0  0  0  0  0  0  0  0  0
   37.6000   27.6950   29.2880 H   0  0  0  0  0  0  0  0  0  0  0  0
   38.3850   29.0750   27.5030 H   0  0  0  0  0  0  0  0  0  0  0  0
   36.7390   32.4890   29.1250 H   0  0  0  0  0  0  0  0  0  0  0  0
  1  7  1  6  0  0  0
  1  6  1  0  0  0  0
  1  2  1  0  0  0  0
  2  9  1  0  0  0  0
  2  3  1  0  0  0  0
  3 10  1  6  0  0  0
  3  4  1  0  0  0  0
  3 17  1  0  0  0  0
  4 12  1  0  0  0  0
  4 11  1  0  0  0  0
  5 13  1  0  0  0  0
  5  4  1  0  0  0  0
  6 16  1  0  0  0  0
  6  5  1  0  0  0  0
  8  2  1  0  0  0  0
 14  5  1  0  0  0  0
 15  6  1  0  0  0  0
 17 22  1  6  0  0  0
 17 21  1  0  0  0  0
 17 18  1  0  0  0  0
 18 19  1  0  0  0  0
 18 24  1  0  0  0  0
 19 25  1  0  0  0  0
 20 19  1  0  0  0  0
 21 27  1  1  0  0  0
 21 20  1  0  0  0  0
 23 18  1  0  0  0  0
 26 19  1  0  0  0  0
 28 29  1  0  0  0  0
 28 35  1  1  0  0  0
 28 21  1  0  0  0  0
 30 29  1  0  0  0  0
 31 29  1  0  0  0  0
 31 33  1  0  0  0  0
 32 31  1  0  0  0  0
 33 34  1  0  0  0  0
 35 34  1  0  0  0  0
 36  1  1  0  0  0  0
 37 36  2  0  0  0  0
 38 37  1  0  0  0  0
 39 38  2  0  0  0  0
 39 40  1  0  0  0  0
 40 41  2  0  0  0  0
 41 36  1  0  0  0  0
 42 37  1  0  0  0  0
 43 38  1  0  0  0  0
 44 40  1  0  0  0  0
M  END
>  <minimizedAffinity>
-5.26459217

$$$$

 OpenBabel03262523393D

 44 47  0  0  1  0  0  0  0  0999 V2000
   38.3150   21.7920   34.3920 C   0  0  2  0  0  0  0  0  0  0  0  0
   38.5550   22.7980   33.3180 C   0  0  0  0  0  0  0  0  0  0  0  0
   37.2550   23.4030   32.7810 C   0  0  2  0  0  0  0  0  0  0  0  0
   36.4610   22.2960   32.1320 C   0  0  0  0  0  0  0  0  0  0  0  0
   36.3220   21.0870   33.0390 C   0  0  0  0  0  0  0  0  0  0  0  0
   36.8630   21.3630   34.4210 C   0  0  0  0  0  0  0  0  0  0  0  0
   38.8910   20.8310   34.2590 H   0  0  0  0  0  0  0  0  0  0  0  0
   39.3470   23.4970   33.3860 H   0  0  0  0  0  0  0  0  0  0  0  0
   38.8630   22.1420   32.4190 H   0  0  0  0  0  0  0  0  0  0  0  0
   36.6960   23.7150   33.6860 H   0  0  0  0  0  0  0  0  0  0  0  0
   35.5150   22.6390   31.7180 H   0  0  0  0  0  0  0  0  0  0  0  0
   37.0740   21.9590   31.2520 H   0  0  0  0  0  0  0  0  0  0  0  0
   35.2600   20.8220   33.1470 H   0  0  0  0  0  0  0  0  0  0  0  0
   36.8350   20.1830   32.6250 H   0  0  0  0  0  0  0  0  0  0  0  0
   36.7420   20.4380   35.0120 H   0  0  0  0  0  0  0  0  0  0  0  0
   36.2050   22.1280   34.8810 H   0  0  0  0  0  0  0  0  0  0  0  0
   37.4800   24.5870   31.9440 C   0  0  2  0  0  0  0  0  0  0  0  0
   38.4920   24.4420   30.8420 C   0  0  0  0  0  0  0  0  0  0  0  0
   38.5850   25.9220   30.4350 C   0  0  0  0  0  0  0  0  0  0  0  0
   38.5360   26.6250   31.6160 O   0  0  0  0  0  0  0  0  0  0  0  0
   37.9880   25.8110   32.6090 C   0  0  1  0  0  0  0  0  0  0  0  0
   36.5240   24.8550   31.4570 H   0  0  0  0  0  0  0  0  0  0  0  0
   38.0910   23.8920   29.9700 H   0  0  0  0  0  0  0  0  0  0  0  0
   39.4710   24.0660   31.1690 H   0  0  0  0  0  0  0  0  0  0  0  0
   39.5500   26.0130   29.8960 H   0  0  0  0  0  0  0  0  0  0  0  0
   37.7320   26.1580   29.7630 H   0  0  0  0  0  0  0  0  0  0  0  0
   38.8460   25.6510   33.3040 H   0  0  0  0  0  0  0  0  0  0  0  0
   37.0370   26.5680   33.3400 N   0  0  2  0  0  0  0  0  0  0  0  0
   36.9310   27.9580   33.0700 C   0  0  0  0  0  3  0  0  0  0  0  0
   36.3130   28.1980   32.1690 H   0  0  0  0  0  0  0  0  0  0  0  0
   36.1090   28.5520   34.2240 C   0  0  0  0  0  3  0  0  0  0  0  0
   35.5710   29.4600   33.9440 H   0  0  0  0  0  0  0  0  0  0  0  0
   36.9280   28.7210   35.3380 O   0  0  0  0  0  0  0  0  0  0  0  0
   37.8530   27.6800   35.3700 C   0  0  0  0  0  2  0  0  0  0  0  0
   37.2990   26.4140   34.7570 C   0  0  0  0  0  2  0  0  0  0  0  0
   38.6580   22.2880   35.7390 C   0  0  0  0  0  0  0  0  0  0  0  0
   37.6260   22.9250   36.4290 C   0  0  0  0  0  0  0  0  0  0  0  0
   37.8770   23.3920   37.7000 C   0  0  0  0  0  0  0  0  0  0  0  0
   39.1330   23.2150   38.2450 N   0  0  0  0  0  0  0  0  0  0  0  0
   40.1140   22.5880   37.5400 C   0  0  0  0  0  0  0  0  0  0  0  0
   39.8600   22.1410   36.3130 N   0  0  0  0  0  0  0  0  0  0  0  0
   36.5970   23.1870   36.2490 H   0  0  0  0  0  0  0  0  0  0  0  0
   37.2750   23.9030   38.4250 H   0  0  0  0  0  0  0  0  0  0  0  0
   41.1010   22.4430   37.9540 H   0  0  0  0  0  0  0  0  0  0  0  0
  1  7  1  6  0  0  0
  1  6  1  0  0  0  0
  1 36  1  0  0  0  0
  2  8  1  0  0  0  0
  2  1  1  0  0  0  0
  3  2  1  0  0  0  0
  3 10  1  1  0  0  0
  4  3  1  0  0  0  0
  4  5  1  0  0  0  0
  5 13  1  0  0  0  0
  5  6  1  0  0  0  0
  6 16  1  0  0  0  0
  6 15  1  0  0  0  0
  9  2  1  0  0  0  0
 11  4  1  0  0  0  0
 12  4  1  0  0  0  0
 14  5  1  0  0  0  0
 17 22  1  6  0  0  0
 17 21  1  0  0  0  0
 17  3  1  0  0  0  0
 18 24  1  0  0  0  0
 18 17  1  0  0  0  0
 19 18  1  0  0  0  0
 19 20  1  0  0  0  0
 20 21  1  0  0  0  0
 21 27  1  1  0  0  0
 21 28  1  0  0  0  0
 23 18  1  0  0  0  0
 25 19  1  0  0  0  0
 26 19  1  0  0  0  0
 28 35  1  1  0  0  0
 29 28  1  0  0  0  0
 29 31  1  0  0  0  0
 30 29  1  0  0  0  0
 31 33  1  0  0  0  0
 32 31  1  0  0  0  0
 33 34  1  0  0  0  0
 35 34  1  0  0  0  0
 36 41  2  0  0  0  0
 36 37  1  0  0  0  0
 37 38  2  0  0  0  0
 38 39  1  0  0  0  0
 38 43  1  0  0  0  0
 40 44  1  0  0  0  0
 40 39  2  0  0  0  0
 41 40  1  0  0  0  0
 42 37  1  0  0  0  0
M  END
>  <minimizedAffinity>
-5.21336699

$$$$

 OpenBabel03262523393D

 44 47  0  0  1  0  0  0  0  0999 V2000
   37.6780   26.8100   31.5410 C   0  0  2  0  0  0  0  0  0  0  0  0
   37.5490   25.3450   31.7850 C   0  0  0  0  0  0  0  0  0  0  0  0
   38.7220   24.7780   32.5890 C   0  0  2  0  0  0  0  0  0  0  0  0
   39.9740   24.9450   31.7640 C   0  0  0  0  0  0  0  0  0  0  0  0
   40.1300   26.3620   31.2450 C   0  0  0  0  0  0  0  0  0  0  0  0
   39.0870   27.2860   31.8260 C   0  0  0  0  0  0  0  0  0  0  0  0
   37.4870   27.1180   30.4730 H   0  0  0  0  0  0  0  0  0  0  0  0
   36.6170   24.9090   32.0370 H   0  0  0  0  0  0  0  0  0  0  0  0
   37.7740   24.8930   30.7460 H   0  0  0  0  0  0  0  0  0  0  0  0
   38.8160   25.4550   33.4610 H   0  0  0  0  0  0  0  0  0  0  0  0
   40.8630   24.5640   32.2620 H   0  0  0  0  0  0  0  0  0  0  0  0
   39.8300   24.2930   30.8600 H   0  0  0  0  0  0  0  0  0  0  0  0
   41.1170   26.7570   31.5290 H   0  0  0  0  0  0  0  0  0  0  0  0
   40.0760   26.4140   30.1280 H   0  0  0  0  0  0  0  0  0  0  0  0
   39.2560   28.2870   31.3910 H   0  0  0  0  0  0  0  0  0  0  0  0
   39.2950   27.3680   32.9120 H   0  0  0  0  0  0  0  0  0  0  0  0
   38.4710   23.4190   33.0820 C   0  0  2  0  0  0  0  0  0  0  0  0
   37.4350   22.6200   32.3410 C   0  0  0  0  0  0  0  0  0  0  0  0
   37.3250   21.4410   33.3220 C   0  0  0  0  0  0  0  0  0  0  0  0
   37.3990   22.0050   34.5740 O   0  0  0  0  0  0  0  0  0  0  0  0
   37.9730   23.2730   34.4710 C   0  0  1  0  0  0  0  0  0  0  0  0
   39.4150   22.8460   33.0130 H   0  0  0  0  0  0  0  0  0  0  0  0
   37.8180   22.2130   31.3870 H   0  0  0  0  0  0  0  0  0  0  0  0
   36.4650   23.1260   32.2290 H   0  0  0  0  0  0  0  0  0  0  0  0
   36.3480   20.9680   33.0960 H   0  0  0  0  0  0  0  0  0  0  0  0
   38.1610   20.7370   33.1220 H   0  0  0  0  0  0  0  0  0  0  0  0
   37.1320   23.9530   34.7460 H   0  0  0  0  0  0  0  0  0  0  0  0
   38.9370   23.4170   35.5010 N   0  0  2  0  0  0  0  0  0  0  0  0
   39.3300   22.2590   36.2240 C   0  0  0  0  0  3  0  0  0  0  0  0
   40.0970   21.6380   35.7000 H   0  0  0  0  0  0  0  0  0  0  0  0
   40.0810   22.7690   37.4640 C   0  0  0  0  0  3  0  0  0  0  0  0
   40.8070   22.0500   37.8490 H   0  0  0  0  0  0  0  0  0  0  0  0
   39.1610   23.1880   38.4230 O   0  0  0  0  0  0  0  0  0  0  0  0
   38.0670   23.7530   37.7720 C   0  0  0  0  0  2  0  0  0  0  0  0
   38.4610   24.3940   36.4610 C   0  0  0  0  0  2  0  0  0  0  0  0
   36.7610   27.6190   32.3670 C   0  0  0  0  0  0  0  0  0  0  0  0
   37.0790   27.6950   33.7240 C   0  0  0  0  0  0  0  0  0  0  0  0
   36.2740   28.4520   34.5450 C   0  0  0  0  0  0  0  0  0  0  0  0
   35.1850   29.1060   34.0010 N   0  0  0  0  0  0  0  0  0  0  0  0
   34.9080   29.0070   32.6730 C   0  0  0  0  0  0  0  0  0  0  0  0
   35.6930   28.2730   31.8890 N   0  0  0  0  0  0  0  0  0  0  0  0
   37.8340   27.3020   34.3840 H   0  0  0  0  0  0  0  0  0  0  0  0
   36.2950   28.6720   35.5940 H   0  0  0  0  0  0  0  0  0  0  0  0
   34.0600   29.5130   32.2330 H   0  0  0  0  0  0  0  0  0  0  0  0
  1  7  1  6  0  0  0
  1  2  1  0  0  0  0
  1  6  1  0  0  0  0
  1 36  1  0  0  0  0
  2  8  1  0  0  0  0
  2  3  1  0  0  0  0
  3 17  1  0  0  0  0
  3 10  1  1  0  0  0
  4 11  1  0  0  0  0
  4  3  1  0  0  0  0
  5 13  1  0  0  0  0
  5  4  1  0  0  0  0
  5  6  1  0  0  0  0
  6 16  1  0  0  0  0
  9  2  1  0  0  0  0
 12  4  1  0  0  0  0
 14  5  1  0  0  0  0
 15  6  1  0  0  0  0
 17 22  1  6  0  0  0
 17 21  1  0  0  0  0
 18 17  1  0  0  0  0
 18 19  1  0  0  0  0
 19 20  1  0  0  0  0
 21 20  1  0  0  0  0
 21 27  1  1  0  0  0
 21 28  1  0  0  0  0
 23 18  1  0  0  0  0
 24 18  1  0  0  0  0
 25 19  1  0  0  0  0
 26 19  1  0  0  0  0
 28 29  1  0  0  0  0
 28 35  1  1  0  0  0
 29 31  1  0  0  0  0
 30 29  1  0  0  0  0
 31 32  1  0  0  0  0
 31 33  1  0  0  0  0
 34 33  1  0  0  0  0
 35 34  1  0  0  0  0
 36 37  1  0  0  0  0
 37 42  1  0  0  0  0
 37 38  2  0  0  0  0
 38 43  1  0  0  0  0
 39 38  1  0  0  0  0
 40 39  2  0  0  0  0
 41 36  2  0  0  0  0
 41 40  1  0  0  0  0
 44 40  1  0  0  0  0
M  END
>  <minimizedAffinity>
-5.20415401

$$$$

 OpenBabel03262523393D

 44 47  0  0  1  0  0  0  0  0999 V2000
   38.6860   22.8470   35.6130 C   0  0  2  0  0  0  0  0  0  0  0  0
   38.3210   24.2900   35.7060 C   0  0  0  0  0  0  0  0  0  0  0  0
   39.0230   25.1420   34.6440 C   0  0  2  0  0  0  0  0  0  0  0  0
   40.5080   25.0790   34.9050 C   0  0  0  0  0  0  0  0  0  0  0  0
   40.9990   23.6520   35.0630 C   0  0  0  0  0  0  0  0  0  0  0  0
   39.9140   22.6510   34.7480 C   0  0  0  0  0  0  0  0  0  0  0  0
   38.9590   22.3770   36.6020 H   0  0  0  0  0  0  0  0  0  0  0  0
   37.3250   24.5940   35.8980 H   0  0  0  0  0  0  0  0  0  0  0  0
   38.8860   24.6350   36.6520 H   0  0  0  0  0  0  0  0  0  0  0  0
   38.8400   24.6080   33.6900 H   0  0  0  0  0  0  0  0  0  0  0  0
   41.0880   25.6620   34.1940 H   0  0  0  0  0  0  0  0  0  0  0  0
   40.6610   25.5760   35.9020 H   0  0  0  0  0  0  0  0  0  0  0  0
   41.8320   23.4660   34.3690 H   0  0  0  0  0  0  0  0  0  0  0  0
   41.3900   23.4480   36.0920 H   0  0  0  0  0  0  0  0  0  0  0  0
   40.3410   21.6450   34.9000 H   0  0  0  0  0  0  0  0  0  0  0  0
   39.6890   22.7460   33.6660 H   0  0  0  0  0  0  0  0  0  0  0  0
   38.4610   26.4930   34.5350 C   0  0  2  0  0  0  0  0  0  0  0  0
   38.0720   27.1600   35.8240 C   0  0  0  0  0  0  0  0  0  0  0  0
   37.3270   28.3670   35.2290 C   0  0  0  0  0  0  0  0  0  0  0  0
   36.6340   27.8670   34.1510 O   0  0  0  0  0  0  0  0  0  0  0  0
   37.2040   26.6540   33.7650 C   0  0  1  0  0  0  0  0  0  0  0  0
   39.2180   27.1450   34.0600 H   0  0  0  0  0  0  0  0  0  0  0  0
   38.9460   27.5580   36.3740 H   0  0  0  0  0  0  0  0  0  0  0  0
   37.4040   26.5650   36.4610 H   0  0  0  0  0  0  0  0  0  0  0  0
   36.6800   28.7380   36.0490 H   0  0  0  0  0  0  0  0  0  0  0  0
   38.0750   29.1340   34.9360 H   0  0  0  0  0  0  0  0  0  0  0  0
   36.4040   25.9130   34.0040 H   0  0  0  0  0  0  0  0  0  0  0  0
   37.3280   26.6430   32.3520 N   0  0  2  0  0  0  0  0  0  0  0  0
   38.3510   27.4290   31.7590 C   0  0  0  0  0  3  0  0  0  0  0  0
   39.3590   26.9450   31.7730 H   0  0  0  0  0  0  0  0  0  0  0  0
   38.0190   27.4970   30.2610 C   0  0  0  0  0  3  0  0  0  0  0  0
   38.8990   27.6540   29.6340 H   0  0  0  0  0  0  0  0  0  0  0  0
   37.0190   28.4440   30.0500 O   0  0  0  0  0  0  0  0  0  0  0  0
   36.1480   28.4200   31.1370 C   0  0  0  0  0  2  0  0  0  0  0  0
   36.0670   27.0460   31.7630 C   0  0  0  0  0  2  0  0  0  0  0  0
   37.6090   22.0110   35.0490 C   0  0  0  0  0  0  0  0  0  0  0  0
   36.6720   21.5340   35.9670 C   0  0  0  0  0  0  0  0  0  0  0  0
   35.6300   20.7650   35.5000 C   0  0  0  0  0  0  0  0  0  0  0  0
   35.5480   20.4920   34.1490 N   0  0  0  0  0  0  0  0  0  0  0  0
   36.4820   20.9750   33.2850 C   0  0  0  0  0  0  0  0  0  0  0  0
   37.4840   21.7180   33.7470 N   0  0  0  0  0  0  0  0  0  0  0  0
   36.5030   21.5910   37.0290 H   0  0  0  0  0  0  0  0  0  0  0  0
   34.7980   20.2890   35.9800 H   0  0  0  0  0  0  0  0  0  0  0  0
   36.4300   20.7700   32.2260 H   0  0  0  0  0  0  0  0  0  0  0  0
  1  2  1  0  0  0  0
  1  7  1  1  0  0  0
  2  8  1  0  0  0  0
  2  9  1  0  0  0  0
  3 10  1  6  0  0  0
  3  4  1  0  0  0  0
  3  2  1  0  0  0  0
  4  5  1  0  0  0  0
  4 12  1  0  0  0  0
  5 14  1  0  0  0  0
  6 15  1  0  0  0  0
  6  5  1  0  0  0  0
  6  1  1  0  0  0  0
 11  4  1  0  0  0  0
 13  5  1  0  0  0  0
 16  6  1  0  0  0  0
 17 22  1  6  0  0  0
 17  3  1  0  0  0  0
 17 18  1  0  0  0  0
 18 23  1  0  0  0  0
 18 24  1  0  0  0  0
 19 18  1  0  0  0  0
 19 25  1  0  0  0  0
 20 19  1  0  0  0  0
 21 27  1  1  0  0  0
 21 20  1  0  0  0  0
 21 17  1  0  0  0  0
 26 19  1  0  0  0  0
 28 35  1  6  0  0  0
 28 21  1  0  0  0  0
 29 30  1  0  0  0  0
 29 28  1  0  0  0  0
 31 29  1  0  0  0  0
 32 31  1  0  0  0  0
 33 31  1  0  0  0  0
 33 34  1  0  0  0  0
 34 35  1  0  0  0  0
 36  1  1  0  0  0  0
 36 37  1  0  0  0  0
 37 42  1  0  0  0  0
 38 37  2  0  0  0  0
 38 43  1  0  0  0  0
 39 38  1  0  0  0  0
 40 41  1  0  0  0  0
 40 39  2  0  0  0  0
 41 36  2  0  0  0  0
 44 40  1  0  0  0  0
M  END
>  <minimizedAffinity>
-5.20041752

$$$$

 OpenBabel03262523393D

 44 47  0  0  1  0  0  0  0  0999 V2000
   35.9980   28.3670   32.9790 C   0  0  2  0  0  0  0  0  0  0  0  0
   36.9460   27.5320   33.7710 C   0  0  0  0  0  0  0  0  0  0  0  0
   38.2930   27.3460   33.0670 C   0  0  2  0  0  0  0  0  0  0  0  0
   38.0480   26.5840   31.7880 C   0  0  0  0  0  0  0  0  0  0  0  0
   36.9310   27.1980   30.9640 C   0  0  0  0  0  0  0  0  0  0  0  0
   36.4660   28.5110   31.5460 C   0  0  0  0  0  0  0  0  0  0  0  0
   34.9600   27.9320   32.8960 H   0  0  0  0  0  0  0  0  0  0  0  0
   37.0320   27.6420   34.8210 H   0  0  0  0  0  0  0  0  0  0  0  0
   36.5060   26.4690   33.6560 H   0  0  0  0  0  0  0  0  0  0  0  0
   38.6020   28.3710   32.7790 H   0  0  0  0  0  0  0  0  0  0  0  0
   38.9590   26.4050   31.2200 H   0  0  0  0  0  0  0  0  0  0  0  0
   37.6830   25.5700   32.1050 H   0  0  0  0  0  0  0  0  0  0  0  0
   37.2880   27.3970   29.9420 H   0  0  0  0  0  0  0  0  0  0  0  0
   36.0510   26.5140   30.8660 H   0  0  0  0  0  0  0  0  0  0  0  0
   35.6480   28.8830   30.9050 H   0  0  0  0  0  0  0  0  0  0  0  0
   37.3070   29.2270   31.4450 H   0  0  0  0  0  0  0  0  0  0  0  0
   39.3230   26.7820   33.9470 C   0  0  2  0  0  0  0  0  0  0  0  0
   40.7410   27.1930   33.6630 C   0  0  0  0  0  0  0  0  0  0  0  0
   41.4480   26.2020   34.6030 C   0  0  0  0  0  0  0  0  0  0  0  0
   40.7390   25.0290   34.4890 O   0  0  0  0  0  0  0  0  0  0  0  0
   39.4750   25.3070   33.9680 C   0  0  1  0  0  0  0  0  0  0  0  0
   39.1060   27.1020   34.9840 H   0  0  0  0  0  0  0  0  0  0  0  0
   40.9680   28.2100   34.0350 H   0  0  0  0  0  0  0  0  0  0  0  0
   41.0600   27.0390   32.6230 H   0  0  0  0  0  0  0  0  0  0  0  0
   42.4890   26.1400   34.2260 H   0  0  0  0  0  0  0  0  0  0  0  0
   41.4240   26.6150   35.6350 H   0  0  0  0  0  0  0  0  0  0  0  0
   39.5040   24.8200   32.9650 H   0  0  0  0  0  0  0  0  0  0  0  0
   38.5090   24.5880   34.7180 N   0  0  2  0  0  0  0  0  0  0  0  0
   38.8790   24.0970   35.9980 C   0  0  0  0  0  3  0  0  0  0  0  0
   38.8230   24.8630   36.8100 H   0  0  0  0  0  0  0  0  0  0  0  0
   37.7890   23.0890   36.3960 C   0  0  0  0  0  3  0  0  0  0  0  0
   37.6780   22.9830   37.4760 H   0  0  0  0  0  0  0  0  0  0  0  0
   38.0170   21.8790   35.7450 O   0  0  0  0  0  0  0  0  0  0  0  0
   38.5410   22.1450   34.4820 C   0  0  0  0  0  2  0  0  0  0  0  0
   38.0440   23.4630   33.9320 C   0  0  0  0  0  2  0  0  0  0  0  0
   35.8260   29.7270   33.5280 C   0  0  0  0  0  0  0  0  0  0  0  0
   35.7100   30.7480   32.5840 C   0  0  0  0  0  0  0  0  0  0  0  0
   35.5260   32.0370   33.0310 C   0  0  0  0  0  0  0  0  0  0  0  0
   35.4630   32.2740   34.3910 N   0  0  0  0  0  0  0  0  0  0  0  0
   35.5810   31.2510   35.2800 C   0  0  0  0  0  0  0  0  0  0  0  0
   35.7580   30.0090   34.8360 N   0  0  0  0  0  0  0  0  0  0  0  0
   35.7230   30.8400   31.5110 H   0  0  0  0  0  0  0  0  0  0  0  0
   35.4100   32.9770   32.5310 H   0  0  0  0  0  0  0  0  0  0  0  0
   35.5330   31.4210   36.3460 H   0  0  0  0  0  0  0  0  0  0  0  0
  1  7  1  6  0  0  0
  1 36  1  0  0  0  0
  1  2  1  0  0  0  0
  2  8  1  0  0  0  0
  3 10  1  6  0  0  0
  3  2  1  0  0  0  0
  3 17  1  0  0  0  0
  4 12  1  0  0  0  0
  4  3  1  0  0  0  0
  5  6  1  0  0  0  0
  5  4  1  0  0  0  0
  6  1  1  0  0  0  0
  9  2  1  0  0  0  0
 11  4  1  0  0  0  0
 13  5  1  0  0  0  0
 14  5  1  0  0  0  0
 15  6  1  0  0  0  0
 16  6  1  0  0  0  0
 17 21  1  0  0  0  0
 17 22  1  1  0  0  0
 18 17  1  0  0  0  0
 18 23  1  0  0  0  0
 18 19  1  0  0  0  0
 19 26  1  0  0  0  0
 20 19  1  0  0  0  0
 21 27  1  6  0  0  0
 21 20  1  0  0  0  0
 21 28  1  0  0  0  0
 24 18  1  0  0  0  0
 25 19  1  0  0  0  0
 28 35  1  6  0  0  0
 28 29  1  0  0  0  0
 29 31  1  0  0  0  0
 29 30  1  0  0  0  0
 31 32  1  0  0  0  0
 33 31  1  0  0  0  0
 34 33  1  0  0  0  0
 35 34  1  0  0  0  0
 36 41  1  0  0  0  0
 37 38  1  0  0  0  0
 37 36  2  0  0  0  0
 38 39  2  0  0  0  0
 39 40  1  0  0  0  0
 40 44  1  0  0  0  0
 41 40  2  0  0  0  0
 42 37  1  0  0  0  0
 43 38  1  0  0  0  0
M  END
>  <minimizedAffinity>
-5.16423178

$$$$
