
 OpenBabel03272502223D

 25 27  0  0  0  0  0  0  0  0999 V2000
   39.1260   25.4260   34.9040 C   0  0  0  0  0  0  0  0  0  0  0  0
   40.0910   26.3900   34.7400 C   0  0  0  0  0  0  0  0  0  0  0  0
   40.2320   27.1310   33.5800 C   0  0  0  0  0  0  0  0  0  0  0  0
   39.3850   26.9060   32.5490 N   0  0  0  0  0  0  0  0  0  0  0  0
   38.4510   25.9640   32.7260 C   0  0  0  0  0  0  0  0  0  0  0  0
   38.2940   25.2330   33.8390 N   0  0  0  0  0  0  0  0  0  0  0  0
   40.7360   26.5160   35.6110 H   0  0  0  0  0  0  0  0  0  0  0  0
   41.0280   27.8320   33.6240 H   0  0  0  0  0  0  0  0  0  0  0  0
   37.5510   25.7140   31.6500 N   0  0  0  0  0  0  0  0  0  0  0  0
   36.9070   26.7810   30.9000 C   0  0  0  0  0  3  0  0  0  0  0  0
   37.2760   27.7650   31.2450 H   0  0  0  0  0  0  0  0  0  0  0  0
   35.4120   26.5870   31.1890 C   0  0  0  0  0  3  0  0  0  0  0  0
   34.7860   27.3750   30.7830 H   0  0  0  0  0  0  0  0  0  0  0  0
   35.0750   25.3410   30.6460 O   0  0  0  0  0  0  0  0  0  0  0  0
   35.6780   24.3050   31.3410 C   0  0  0  0  0  2  0  0  0  0  0  0
   37.2030   24.3710   31.2160 C   0  0  0  0  0  2  0  0  0  0  0  0
   37.9820   23.9980   38.2140 C   0  0  0  0  0  0  0  0  0  0  0  0
   38.0080   24.8390   37.0930 C   0  0  0  0  0  0  0  0  0  0  0  0
   38.9690   24.6390   36.1220 C   0  0  0  0  0  0  0  0  0  0  0  0
   39.8450   23.6270   36.3090 N   0  0  0  0  0  0  0  0  0  0  0  0
   39.8060   22.8230   37.3970 C   0  0  0  0  0  0  0  0  0  0  0  0
   38.8790   23.0080   38.3450 N   0  0  0  0  0  0  0  0  0  0  0  0
   37.1710   24.2810   38.8860 H   0  0  0  0  0  0  0  0  0  0  0  0
   37.3230   25.6520   36.9210 H   0  0  0  0  0  0  0  0  0  0  0  0
   40.5020   22.0080   37.5570 H   0  0  0  0  0  0  0  0  0  0  0  0
  1 19  1  0  0  0  0
  2  1  1  0  0  0  0
  2  7  1  0  0  0  0
  3  8  1  0  0  0  0
  3  2  2  0  0  0  0
  4  5  2  0  0  0  0
  4  3  1  0  0  0  0
  5  6  1  0  0  0  0
  6  1  2  0  0  0  0
  9  5  1  0  0  0  0
 10 12  1  0  0  0  0
 10 11  1  0  0  0  0
 10  9  1  0  0  0  0
 13 12  1  0  0  0  0
 14 12  1  0  0  0  0
 14 15  1  0  0  0  0
 16 15  1  0  0  0  0
 16  9  1  0  0  0  0
 17 22  1  0  0  0  0
 17 23  1  0  0  0  0
 18 17  2  0  0  0  0
 19 20  2  0  0  0  0
 19 18  1  0  0  0  0
 20 21  1  0  0  0  0
 21 25  1  0  0  0  0
 21 22  2  0  0  0  0
 24 18  1  0  0  0  0
M  END
>  <minimizedAffinity>
-4.94476318

$$$$

 OpenBabel03272502223D

 25 27  0  0  0  0  0  0  0  0999 V2000
   38.0470   23.5740   34.5940 C   0  0  0  0  0  0  0  0  0  0  0  0
   37.9880   24.7870   33.9530 C   0  0  0  0  0  0  0  0  0  0  0  0
   37.5270   24.9370   32.6570 C   0  0  0  0  0  0  0  0  0  0  0  0
   37.1100   23.8450   31.9760 N   0  0  0  0  0  0  0  0  0  0  0  0
   37.1730   22.6720   32.6170 C   0  0  0  0  0  0  0  0  0  0  0  0
   37.6160   22.4990   33.8700 N   0  0  0  0  0  0  0  0  0  0  0  0
   38.3400   25.6210   34.5620 H   0  0  0  0  0  0  0  0  0  0  0  0
   37.5500   25.9430   32.3170 H   0  0  0  0  0  0  0  0  0  0  0  0
   36.7380   21.5100   31.9140 N   0  0  0  0  0  0  0  0  0  0  0  0
   35.5090   21.4760   31.1360 C   0  0  0  0  0  3  0  0  0  0  0  0
   35.0370   22.4770   31.1270 H   0  0  0  0  0  0  0  0  0  0  0  0
   34.6440   20.4330   31.8560 C   0  0  0  0  0  3  0  0  0  0  0  0
   33.6360   20.3580   31.4600 H   0  0  0  0  0  0  0  0  0  0  0  0
   35.3280   19.2170   31.7340 O   0  0  0  0  0  0  0  0  0  0  0  0
   36.5060   19.2220   32.4650 C   0  0  0  0  0  2  0  0  0  0  0  0
   37.4880   20.2650   31.9200 C   0  0  0  0  0  2  0  0  0  0  0  0
   40.0440   22.6960   37.6840 C   0  0  0  0  0  0  0  0  0  0  0  0
   39.7110   22.7850   36.3250 C   0  0  0  0  0  0  0  0  0  0  0  0
   38.5310   23.4030   35.9590 C   0  0  0  0  0  0  0  0  0  0  0  0
   37.7510   23.8950   36.9480 N   0  0  0  0  0  0  0  0  0  0  0  0
   38.0870   23.8010   38.2550 C   0  0  0  0  0  0  0  0  0  0  0  0
   39.2280   23.2040   38.6210 N   0  0  0  0  0  0  0  0  0  0  0  0
   40.9980   22.1850   37.8110 H   0  0  0  0  0  0  0  0  0  0  0  0
   40.3130   22.4020   35.5200 H   0  0  0  0  0  0  0  0  0  0  0  0
   37.4690   24.1920   39.0550 H   0  0  0  0  0  0  0  0  0  0  0  0
  1 19  1  0  0  0  0
  2  7  1  0  0  0  0
  2  1  1  0  0  0  0
  3  2  2  0  0  0  0
  4  5  2  0  0  0  0
  4  3  1  0  0  0  0
  5  6  1  0  0  0  0
  6  1  2  0  0  0  0
  8  3  1  0  0  0  0
  9 16  1  0  0  0  0
  9  5  1  0  0  0  0
 10 12  1  0  0  0  0
 10  9  1  0  0  0  0
 11 10  1  0  0  0  0
 13 12  1  0  0  0  0
 14 12  1  0  0  0  0
 14 15  1  0  0  0  0
 16 15  1  0  0  0  0
 17 23  1  0  0  0  0
 17 22  1  0  0  0  0
 18 17  2  0  0  0  0
 19 18  1  0  0  0  0
 19 20  2  0  0  0  0
 20 21  1  0  0  0  0
 21 22  2  0  0  0  0
 21 25  1  0  0  0  0
 24 18  1  0  0  0  0
M  END
>  <minimizedAffinity>
-4.74738359

$$$$

 OpenBabel03272502223D

 25 27  0  0  0  0  0  0  0  0999 V2000
   36.1340   23.6160   31.7670 C   0  0  0  0  0  0  0  0  0  0  0  0
   35.4300   24.5300   31.0220 C   0  0  0  0  0  0  0  0  0  0  0  0
   35.5890   25.8980   31.1530 C   0  0  0  0  0  0  0  0  0  0  0  0
   36.4790   26.3740   32.0540 N   0  0  0  0  0  0  0  0  0  0  0  0
   37.1570   25.4700   32.7710 C   0  0  0  0  0  0  0  0  0  0  0  0
   37.0200   24.1410   32.6640 N   0  0  0  0  0  0  0  0  0  0  0  0
   34.7320   24.0750   30.3180 H   0  0  0  0  0  0  0  0  0  0  0  0
   34.9670   26.4580   30.4990 H   0  0  0  0  0  0  0  0  0  0  0  0
   38.0980   25.9540   33.7260 N   0  0  0  0  0  0  0  0  0  0  0  0
   39.0430   27.0190   33.4280 C   0  0  0  0  0  3  0  0  0  0  0  0
   38.8610   27.4150   32.4110 H   0  0  0  0  0  0  0  0  0  0  0  0
   40.4140   26.3430   33.5520 C   0  0  0  0  0  3  0  0  0  0  0  0
   41.2410   26.9810   33.2560 H   0  0  0  0  0  0  0  0  0  0  0  0
   40.5310   25.9520   34.8920 O   0  0  0  0  0  0  0  0  0  0  0  0
   39.6390   24.9380   35.2040 C   0  0  0  0  0  2  0  0  0  0  0  0
   38.1900   25.4190   35.0750 C   0  0  0  0  0  2  0  0  0  0  0  0
   34.9880   20.0230   32.0540 C   0  0  0  0  0  0  0  0  0  0  0  0
   35.0170   21.4070   32.2770 C   0  0  0  0  0  0  0  0  0  0  0  0
   35.9740   22.1730   31.6390 C   0  0  0  0  0  0  0  0  0  0  0  0
   36.8430   21.5340   30.8240 N   0  0  0  0  0  0  0  0  0  0  0  0
   36.8010   20.1970   30.6190 C   0  0  0  0  0  0  0  0  0  0  0  0
   35.8780   19.4460   31.2320 N   0  0  0  0  0  0  0  0  0  0  0  0
   34.1820   19.5610   32.6240 H   0  0  0  0  0  0  0  0  0  0  0  0
   34.3390   21.9390   32.9210 H   0  0  0  0  0  0  0  0  0  0  0  0
   37.4920   19.6750   29.9670 H   0  0  0  0  0  0  0  0  0  0  0  0
  1  6  1  0  0  0  0
  2  3  1  0  0  0  0
  2  1  2  0  0  0  0
  3  4  2  0  0  0  0
  4  5  1  0  0  0  0
  5  9  1  0  0  0  0
  6  5  2  0  0  0  0
  7  2  1  0  0  0  0
  8  3  1  0  0  0  0
  9 16  1  0  0  0  0
 10 12  1  0  0  0  0
 10  9  1  0  0  0  0
 11 10  1  0  0  0  0
 12 14  1  0  0  0  0
 13 12  1  0  0  0  0
 14 15  1  0  0  0  0
 16 15  1  0  0  0  0
 17 18  1  0  0  0  0
 17 23  1  0  0  0  0
 18 24  1  0  0  0  0
 19  1  1  0  0  0  0
 19 18  2  0  0  0  0
 20 19  1  0  0  0  0
 21 20  2  0  0  0  0
 21 22  1  0  0  0  0
 22 17  2  0  0  0  0
 25 21  1  0  0  0  0
M  END
>  <minimizedAffinity>
-4.73932219

$$$$

 OpenBabel03272502223D

 25 27  0  0  0  0  0  0  0  0999 V2000
   39.8670   23.0950   36.7860 C   0  0  0  0  0  0  0  0  0  0  0  0
   39.0570   22.9950   37.8910 C   0  0  0  0  0  0  0  0  0  0  0  0
   38.0600   23.9080   38.1840 C   0  0  0  0  0  0  0  0  0  0  0  0
   37.8610   24.9560   37.3520 N   0  0  0  0  0  0  0  0  0  0  0  0
   38.6580   25.0370   36.2800 C   0  0  0  0  0  0  0  0  0  0  0  0
   39.6300   24.1670   35.9740 N   0  0  0  0  0  0  0  0  0  0  0  0
   39.2750   22.1280   38.5150 H   0  0  0  0  0  0  0  0  0  0  0  0
   37.5300   23.6790   39.0750 H   0  0  0  0  0  0  0  0  0  0  0  0
   38.4620   26.1360   35.3920 N   0  0  0  0  0  0  0  0  0  0  0  0
   37.1450   26.5590   34.9450 C   0  0  0  0  0  3  0  0  0  0  0  0
   36.3620   25.9600   35.4450 H   0  0  0  0  0  0  0  0  0  0  0  0
   37.1760   26.3250   33.4290 C   0  0  0  0  0  3  0  0  0  0  0  0
   36.2190   26.4950   32.9440 H   0  0  0  0  0  0  0  0  0  0  0  0
   38.1590   27.1870   32.9260 O   0  0  0  0  0  0  0  0  0  0  0  0
   39.4260   26.8070   33.3400 C   0  0  0  0  0  2  0  0  0  0  0  0
   39.5660   26.9190   34.8610 C   0  0  0  0  0  2  0  0  0  0  0  0
   42.6050   20.4890   36.9180 C   0  0  0  0  0  0  0  0  0  0  0  0
   41.6120   21.3670   37.3780 C   0  0  0  0  0  0  0  0  0  0  0  0
   40.9210   22.1400   36.4660 C   0  0  0  0  0  0  0  0  0  0  0  0
   41.2450   22.0060   35.1610 N   0  0  0  0  0  0  0  0  0  0  0  0
   42.2060   21.1540   34.7330 C   0  0  0  0  0  0  0  0  0  0  0  0
   42.8820   20.4000   35.6080 N   0  0  0  0  0  0  0  0  0  0  0  0
   43.0560   19.9520   37.7520 H   0  0  0  0  0  0  0  0  0  0  0  0
   41.3360   21.4930   38.4100 H   0  0  0  0  0  0  0  0  0  0  0  0
   42.4730   21.0380   33.6890 H   0  0  0  0  0  0  0  0  0  0  0  0
  1  2  1  0  0  0  0
  2  3  2  0  0  0  0
  2  7  1  0  0  0  0
  3  8  1  0  0  0  0
  4  3  1  0  0  0  0
  5  4  2  0  0  0  0
  6  5  1  0  0  0  0
  6  1  2  0  0  0  0
  9  5  1  0  0  0  0
 10  9  1  0  0  0  0
 10 11  1  0  0  0  0
 12 10  1  0  0  0  0
 13 12  1  0  0  0  0
 14 15  1  0  0  0  0
 14 12  1  0  0  0  0
 15 16  1  0  0  0  0
 16  9  1  0  0  0  0
 17 18  1  0  0  0  0
 17 23  1  0  0  0  0
 18 24  1  0  0  0  0
 19  1  1  0  0  0  0
 19 18  2  0  0  0  0
 20 19  1  0  0  0  0
 21 20  2  0  0  0  0
 21 22  1  0  0  0  0
 22 17  2  0  0  0  0
 25 21  1  0  0  0  0
M  END
>  <minimizedAffinity>
-4.7266202

$$$$

 OpenBabel03272502223D

 25 27  0  0  0  0  0  0  0  0999 V2000
   36.4400   25.6540   31.8870 C   0  0  0  0  0  0  0  0  0  0  0  0
   35.6830   24.7950   31.1270 C   0  0  0  0  0  0  0  0  0  0  0  0
   35.7410   23.4180   31.2560 C   0  0  0  0  0  0  0  0  0  0  0  0
   36.5790   22.8780   32.1690 N   0  0  0  0  0  0  0  0  0  0  0  0
   37.3080   23.7280   32.9010 C   0  0  0  0  0  0  0  0  0  0  0  0
   37.2710   25.0640   32.7960 N   0  0  0  0  0  0  0  0  0  0  0  0
   35.0320   25.3010   30.4130 H   0  0  0  0  0  0  0  0  0  0  0  0
   35.0890   22.9070   30.5910 H   0  0  0  0  0  0  0  0  0  0  0  0
   38.1970   23.1750   33.8690 N   0  0  0  0  0  0  0  0  0  0  0  0
   37.8080   22.1020   34.7710 C   0  0  0  0  0  3  0  0  0  0  0  0
   36.7830   21.7610   34.5360 H   0  0  0  0  0  0  0  0  0  0  0  0
   37.9040   22.7380   36.1640 C   0  0  0  0  0  3  0  0  0  0  0  0
   37.5420   22.0940   36.9600 H   0  0  0  0  0  0  0  0  0  0  0  0
   39.2550   23.0590   36.3470 O   0  0  0  0  0  0  0  0  0  0  0  0
   39.6540   24.0790   35.4970 C   0  0  0  0  0  2  0  0  0  0  0  0
   39.5640   23.6410   34.0320 C   0  0  0  0  0  2  0  0  0  0  0  0
   36.1020   29.3690   32.5060 C   0  0  0  0  0  0  0  0  0  0  0  0
   36.1190   27.9950   32.7820 C   0  0  0  0  0  0  0  0  0  0  0  0
   36.3880   27.1050   31.7600 C   0  0  0  0  0  0  0  0  0  0  0  0
   36.6230   27.6180   30.5320 N   0  0  0  0  0  0  0  0  0  0  0  0
   36.6040   28.9470   30.2820 C   0  0  0  0  0  0  0  0  0  0  0  0
   36.3440   29.8190   31.2650 N   0  0  0  0  0  0  0  0  0  0  0  0
   35.8770   29.9380   33.4080 H   0  0  0  0  0  0  0  0  0  0  0  0
   35.9340   27.5620   33.7500 H   0  0  0  0  0  0  0  0  0  0  0  0
   36.7920   29.3690   29.3010 H   0  0  0  0  0  0  0  0  0  0  0  0
  1  6  1  0  0  0  0
  2  3  1  0  0  0  0
  2  1  2  0  0  0  0
  3  4  2  0  0  0  0
  4  5  1  0  0  0  0
  5  9  1  0  0  0  0
  6  5  2  0  0  0  0
  7  2  1  0  0  0  0
  8  3  1  0  0  0  0
  9 16  1  0  0  0  0
  9 10  1  0  0  0  0
 10 12  1  0  0  0  0
 11 10  1  0  0  0  0
 12 14  1  0  0  0  0
 12 13  1  0  0  0  0
 15 14  1  0  0  0  0
 16 15  1  0  0  0  0
 17 18  1  0  0  0  0
 17 23  1  0  0  0  0
 18 24  1  0  0  0  0
 19  1  1  0  0  0  0
 19 18  2  0  0  0  0
 20 19  1  0  0  0  0
 21 20  2  0  0  0  0
 21 22  1  0  0  0  0
 22 17  2  0  0  0  0
 25 21  1  0  0  0  0
M  END
>  <minimizedAffinity>
-4.60172987

$$$$

 OpenBabel03272502223D

 25 27  0  0  0  0  0  0  0  0999 V2000
   38.0510   22.9940   34.6750 C   0  0  0  0  0  0  0  0  0  0  0  0
   37.6930   21.8260   34.0480 C   0  0  0  0  0  0  0  0  0  0  0  0
   37.2920   21.7680   32.7250 C   0  0  0  0  0  0  0  0  0  0  0  0
   37.2460   22.9100   32.0010 N   0  0  0  0  0  0  0  0  0  0  0  0
   37.5980   24.0390   32.6280 C   0  0  0  0  0  0  0  0  0  0  0  0
   37.9900   24.1210   33.9070 N   0  0  0  0  0  0  0  0  0  0  0  0
   37.7550   20.9470   34.6920 H   0  0  0  0  0  0  0  0  0  0  0  0
   37.0520   20.7850   32.4010 H   0  0  0  0  0  0  0  0  0  0  0  0
   37.5550   25.2520   31.8800 N   0  0  0  0  0  0  0  0  0  0  0  0
   38.0830   25.3620   30.5290 C   0  0  0  0  0  3  0  0  0  0  0  0
   38.4360   24.3750   30.1770 H   0  0  0  0  0  0  0  0  0  0  0  0
   39.2260   26.3760   30.6600 C   0  0  0  0  0  3  0  0  0  0  0  0
   39.8040   26.4980   29.7490 H   0  0  0  0  0  0  0  0  0  0  0  0
   38.6280   27.5820   31.0460 O   0  0  0  0  0  0  0  0  0  0  0  0
   38.1140   27.5040   32.3310 C   0  0  0  0  0  2  0  0  0  0  0  0
   36.9800   26.4780   32.4100 C   0  0  0  0  0  2  0  0  0  0  0  0
   39.9550   22.7760   37.9360 C   0  0  0  0  0  0  0  0  0  0  0  0
   39.6910   22.6410   36.5660 C   0  0  0  0  0  0  0  0  0  0  0  0
   38.4740   23.0670   36.0690 C   0  0  0  0  0  0  0  0  0  0  0  0
   37.5930   23.5980   36.9450 N   0  0  0  0  0  0  0  0  0  0  0  0
   37.8640   23.7220   38.2650 C   0  0  0  0  0  0  0  0  0  0  0  0
   39.0400   23.3120   38.7570 N   0  0  0  0  0  0  0  0  0  0  0  0
   40.9500   22.3980   38.1720 H   0  0  0  0  0  0  0  0  0  0  0  0
   40.3740   22.2220   35.8480 H   0  0  0  0  0  0  0  0  0  0  0  0
   37.1650   24.1470   38.9770 H   0  0  0  0  0  0  0  0  0  0  0  0
  1 19  1  0  0  0  0
  2  1  1  0  0  0  0
  2  7  1  0  0  0  0
  3  2  2  0  0  0  0
  4  5  2  0  0  0  0
  4  3  1  0  0  0  0
  5  6  1  0  0  0  0
  6  1  2  0  0  0  0
  8  3  1  0  0  0  0
  9 16  1  0  0  0  0
  9  5  1  0  0  0  0
 10 12  1  0  0  0  0
 10  9  1  0  0  0  0
 11 10  1  0  0  0  0
 12 14  1  0  0  0  0
 13 12  1  0  0  0  0
 14 15  1  0  0  0  0
 15 16  1  0  0  0  0
 17 23  1  0  0  0  0
 17 22  1  0  0  0  0
 18 17  2  0  0  0  0
 19 18  1  0  0  0  0
 19 20  2  0  0  0  0
 20 21  1  0  0  0  0
 21 22  2  0  0  0  0
 21 25  1  0  0  0  0
 24 18  1  0  0  0  0
M  END
>  <minimizedAffinity>
-4.54687881

$$$$

 OpenBabel03272502223D

 25 27  0  0  0  0  0  0  0  0999 V2000
   37.0400   25.3820   32.6540 C   0  0  0  0  0  0  0  0  0  0  0  0
   36.0930   26.0510   31.9180 C   0  0  0  0  0  0  0  0  0  0  0  0
   35.2810   25.4300   30.9840 C   0  0  0  0  0  0  0  0  0  0  0  0
   35.4170   24.1000   30.7760 N   0  0  0  0  0  0  0  0  0  0  0  0
   36.3440   23.4650   31.5020 C   0  0  0  0  0  0  0  0  0  0  0  0
   37.1420   24.0420   32.4110 N   0  0  0  0  0  0  0  0  0  0  0  0
   36.0400   27.1170   32.1390 H   0  0  0  0  0  0  0  0  0  0  0  0
   34.6050   26.0950   30.5080 H   0  0  0  0  0  0  0  0  0  0  0  0
   36.5010   22.0630   31.2940 N   0  0  0  0  0  0  0  0  0  0  0  0
   35.3710   21.1510   31.2000 C   0  0  0  0  0  3  0  0  0  0  0  0
   34.4220   21.7170   31.2420 H   0  0  0  0  0  0  0  0  0  0  0  0
   35.5460   20.2200   32.4070 C   0  0  0  0  0  3  0  0  0  0  0  0
   34.7180   19.5330   32.5480 H   0  0  0  0  0  0  0  0  0  0  0  0
   36.7450   19.5300   32.1890 O   0  0  0  0  0  0  0  0  0  0  0  0
   37.8400   20.3770   32.2710 C   0  0  0  0  0  2  0  0  0  0  0  0
   37.8040   21.4320   31.1610 C   0  0  0  0  0  2  0  0  0  0  0  0
   39.9460   26.9170   34.5270 C   0  0  0  0  0  0  0  0  0  0  0  0
   39.2470   26.2900   33.4850 C   0  0  0  0  0  0  0  0  0  0  0  0
   37.9010   26.0260   33.6400 C   0  0  0  0  0  0  0  0  0  0  0  0
   37.3220   26.3920   34.8050 N   0  0  0  0  0  0  0  0  0  0  0  0
   38.0100   26.9970   35.8010 C   0  0  0  0  0  0  0  0  0  0  0  0
   39.3160   27.2580   35.6620 N   0  0  0  0  0  0  0  0  0  0  0  0
   40.9920   27.0560   34.2560 H   0  0  0  0  0  0  0  0  0  0  0  0
   39.6840   25.9880   32.5490 H   0  0  0  0  0  0  0  0  0  0  0  0
   37.5560   27.2960   36.7390 H   0  0  0  0  0  0  0  0  0  0  0  0
  1 19  1  0  0  0  0
  2  7  1  0  0  0  0
  2  1  2  0  0  0  0
  3  2  1  0  0  0  0
  4  3  2  0  0  0  0
  4  5  1  0  0  0  0
  5  6  2  0  0  0  0
  6  1  1  0  0  0  0
  8  3  1  0  0  0  0
  9  5  1  0  0  0  0
 10 11  1  0  0  0  0
 10  9  1  0  0  0  0
 10 12  1  0  0  0  0
 12 13  1  0  0  0  0
 14 15  1  0  0  0  0
 14 12  1  0  0  0  0
 16  9  1  0  0  0  0
 16 15  1  0  0  0  0
 17 22  1  0  0  0  0
 18 19  1  0  0  0  0
 18 17  2  0  0  0  0
 19 20  2  0  0  0  0
 20 21  1  0  0  0  0
 21 25  1  0  0  0  0
 22 21  2  0  0  0  0
 23 17  1  0  0  0  0
 24 18  1  0  0  0  0
M  END
>  <minimizedAffinity>
-4.5454998

$$$$

 OpenBabel03272502223D

 25 27  0  0  0  0  0  0  0  0999 V2000
   35.9930   27.5030   31.4170 C   0  0  0  0  0  0  0  0  0  0  0  0
   36.6510   28.2320   30.4570 C   0  0  0  0  0  0  0  0  0  0  0  0
   36.5150   29.6020   30.3190 C   0  0  0  0  0  0  0  0  0  0  0  0
   35.6970   30.2690   31.1640 N   0  0  0  0  0  0  0  0  0  0  0  0
   35.0640   29.5450   32.0940 C   0  0  0  0  0  0  0  0  0  0  0  0
   35.1780   28.2180   32.2480 N   0  0  0  0  0  0  0  0  0  0  0  0
   37.2920   27.6280   29.8130 H   0  0  0  0  0  0  0  0  0  0  0  0
   37.0960   30.0040   29.5260 H   0  0  0  0  0  0  0  0  0  0  0  0
   34.1970   30.2330   32.9930 N   0  0  0  0  0  0  0  0  0  0  0  0
   34.5680   31.4810   33.6410 C   0  0  0  0  0  3  0  0  0  0  0  0
   35.5550   31.8200   33.2770 H   0  0  0  0  0  0  0  0  0  0  0  0
   34.5880   31.1290   35.1350 C   0  0  0  0  0  3  0  0  0  0  0  0
   34.9530   31.9340   35.7650 H   0  0  0  0  0  0  0  0  0  0  0  0
   33.2720   30.7830   35.4660 O   0  0  0  0  0  0  0  0  0  0  0  0
   32.8920   29.5970   34.8590 C   0  0  0  0  0  2  0  0  0  0  0  0
   32.8720   29.7400   33.3340 C   0  0  0  0  0  2  0  0  0  0  0  0
   35.5750   23.7490   31.2280 C   0  0  0  0  0  0  0  0  0  0  0  0
   35.3200   25.1060   30.9850 C   0  0  0  0  0  0  0  0  0  0  0  0
   36.1280   26.0590   31.5720 C   0  0  0  0  0  0  0  0  0  0  0  0
   37.1350   25.6240   32.3620 N   0  0  0  0  0  0  0  0  0  0  0  0
   37.3680   24.3100   32.5870 C   0  0  0  0  0  0  0  0  0  0  0  0
   36.5910   23.3770   32.0230 N   0  0  0  0  0  0  0  0  0  0  0  0
   34.8560   23.1240   30.6980 H   0  0  0  0  0  0  0  0  0  0  0  0
   34.5260   25.4780   30.3610 H   0  0  0  0  0  0  0  0  0  0  0  0
   38.1730   23.9500   33.2170 H   0  0  0  0  0  0  0  0  0  0  0  0
  1 19  1  0  0  0  0
  1  6  1  0  0  0  0
  2  1  2  0  0  0  0
  3  2  1  0  0  0  0
  3  4  2  0  0  0  0
  4  5  1  0  0  0  0
  5  6  2  0  0  0  0
  5  9  1  0  0  0  0
  7  2  1  0  0  0  0
  8  3  1  0  0  0  0
  9 16  1  0  0  0  0
  9 10  1  0  0  0  0
 10 12  1  0  0  0  0
 11 10  1  0  0  0  0
 12 14  1  0  0  0  0
 12 13  1  0  0  0  0
 15 14  1  0  0  0  0
 16 15  1  0  0  0  0
 17 22  1  0  0  0  0
 18 17  2  0  0  0  0
 18 19  1  0  0  0  0
 19 20  2  0  0  0  0
 20 21  1  0  0  0  0
 21 25  1  0  0  0  0
 22 21  2  0  0  0  0
 23 17  1  0  0  0  0
 24 18  1  0  0  0  0
M  END
>  <minimizedAffinity>
-4.50614166

$$$$

 OpenBabel03272502223D

 25 27  0  0  0  0  0  0  0  0999 V2000
   38.3930   24.7500   35.8540 C   0  0  0  0  0  0  0  0  0  0  0  0
   37.8990   24.4750   37.1060 C   0  0  0  0  0  0  0  0  0  0  0  0
   38.4780   23.5560   37.9640 C   0  0  0  0  0  0  0  0  0  0  0  0
   39.5840   22.8890   37.5640 N   0  0  0  0  0  0  0  0  0  0  0  0
   40.0530   23.1700   36.3420 C   0  0  0  0  0  0  0  0  0  0  0  0
   39.5110   24.0550   35.4930 N   0  0  0  0  0  0  0  0  0  0  0  0
   37.0070   25.0490   37.3600 H   0  0  0  0  0  0  0  0  0  0  0  0
   37.9670   23.4680   38.8910 H   0  0  0  0  0  0  0  0  0  0  0  0
   41.2180   22.4760   35.9040 N   0  0  0  0  0  0  0  0  0  0  0  0
   42.3880   22.2930   36.7490 C   0  0  0  0  0  3  0  0  0  0  0  0
   42.1950   22.7010   37.7590 H   0  0  0  0  0  0  0  0  0  0  0  0
   43.4970   23.0590   36.0160 C   0  0  0  0  0  3  0  0  0  0  0  0
   44.4280   23.1130   36.5730 H   0  0  0  0  0  0  0  0  0  0  0  0
   43.6750   22.4000   34.7930 O   0  0  0  0  0  0  0  0  0  0  0  0
   42.5730   22.5570   33.9680 C   0  0  0  0  0  2  0  0  0  0  0  0
   41.3320   21.8960   34.5760 C   0  0  0  0  0  2  0  0  0  0  0  0
   36.8850   27.8330   34.2640 C   0  0  0  0  0  0  0  0  0  0  0  0
   37.4610   27.0200   35.2510 C   0  0  0  0  0  0  0  0  0  0  0  0
   37.7920   25.7160   34.9420 C   0  0  0  0  0  0  0  0  0  0  0  0
   37.5370   25.2880   33.6850 N   0  0  0  0  0  0  0  0  0  0  0  0
   36.9810   26.0850   32.7440 C   0  0  0  0  0  0  0  0  0  0  0  0
   36.6570   27.3510   33.0320 N   0  0  0  0  0  0  0  0  0  0  0  0
   36.6830   28.8290   34.6580 H   0  0  0  0  0  0  0  0  0  0  0  0
   37.6730   27.3360   36.2580 H   0  0  0  0  0  0  0  0  0  0  0  0
   36.7740   25.7530   31.7330 H   0  0  0  0  0  0  0  0  0  0  0  0
  1  2  1  0  0  0  0
  2  7  1  0  0  0  0
  2  3  2  0  0  0  0
  3  8  1  0  0  0  0
  4  3  1  0  0  0  0
  5  4  2  0  0  0  0
  6  1  2  0  0  0  0
  6  5  1  0  0  0  0
  9  5  1  0  0  0  0
  9 10  1  0  0  0  0
 10 11  1  0  0  0  0
 12 13  1  0  0  0  0
 12 10  1  0  0  0  0
 14 12  1  0  0  0  0
 15 16  1  0  0  0  0
 15 14  1  0  0  0  0
 16  9  1  0  0  0  0
 17 23  1  0  0  0  0
 17 18  1  0  0  0  0
 18 24  1  0  0  0  0
 19 18  2  0  0  0  0
 19  1  1  0  0  0  0
 20 19  1  0  0  0  0
 21 22  1  0  0  0  0
 21 20  2  0  0  0  0
 22 17  2  0  0  0  0
 25 21  1  0  0  0  0
M  END
>  <minimizedAffinity>
-4.49484348

$$$$
