
 OpenBabel03272509183D

 32 34  0  0  1  0  0  0  0  0999 V2000
   38.1410   31.3550   47.8950 C   0  0  0  0  0  0  0  0  0  0  0  0
   37.2830   31.5910   48.9750 C   0  0  0  0  0  0  0  0  0  0  0  0
   37.4920   32.7980   49.6440 C   0  0  0  0  0  0  0  0  0  0  0  0
   38.5020   33.6780   49.2270 C   0  0  0  0  0  0  0  0  0  0  0  0
   39.3050   33.3550   48.1420 C   0  0  0  0  0  0  0  0  0  0  0  0
   39.1210   32.1750   47.4630 C   0  0  0  0  0  0  0  0  0  0  0  0
   36.8280   32.9760   50.4780 H   0  0  0  0  0  0  0  0  0  0  0  0
   38.5430   34.5580   49.8330 H   0  0  0  0  0  0  0  0  0  0  0  0
   40.0040   34.1460   47.9870 H   0  0  0  0  0  0  0  0  0  0  0  0
   35.1230   30.4880   48.5740 C   0  0  0  0  0  0  0  0  0  0  0  0
   36.2560   30.6780   49.3850 C   0  0  0  0  0  0  0  0  0  0  0  0
   36.3300   29.9550   50.5730 C   0  0  0  0  0  0  0  0  0  0  0  0
   35.3090   29.1070   50.8880 N   0  0  0  0  0  0  0  0  0  0  0  0
   34.2300   28.9570   50.0670 C   0  0  0  0  0  0  0  0  0  0  0  0
   34.1430   29.6390   48.9280 N   0  0  0  0  0  0  0  0  0  0  0  0
   35.0360   31.0350   47.6440 H   0  0  0  0  0  0  0  0  0  0  0  0
   33.5110   28.2420   50.4700 H   0  0  0  0  0  0  0  0  0  0  0  0
   37.4970   30.1150   51.4680 C   0  0  0  0  0  0  0  0  0  0  0  0
   38.3490   30.5130   50.9080 H   0  0  0  0  0  0  0  0  0  0  0  0
   37.2370   30.8810   52.2490 H   0  0  0  0  0  0  0  0  0  0  0  0
   37.7870   29.1740   51.9850 H   0  0  0  0  0  0  0  0  0  0  0  0
   37.9870   30.1630   47.1790 O   0  0  0  0  0  0  0  0  0  0  0  0
   38.6840   29.7450   46.6090 H   0  0  0  0  0  0  0  0  0  0  0  0
   39.9300   31.8890   46.3950 O   0  0  0  0  0  0  0  0  0  0  0  0
   40.0210   30.5040   44.4620 H   0  0  0  0  0  0  0  0  0  0  0  0
   40.4290   31.4310   44.2160 N   0  0  0  0  0  0  0  0  0  0  0  0
   39.8120   32.3960   45.1060 C   0  0  1  0  0  0  0  0  0  0  0  0
   38.3470   32.5990   44.7920 C   0  0  0  0  0  0  0  0  0  0  0  0
   38.0460   33.5770   45.2240 H   0  0  0  0  0  0  0  0  0  0  0  0
   38.0690   32.6410   43.4450 O   0  0  0  0  0  0  0  0  0  0  0  0
   38.5830   31.5680   42.7380 C   0  0  0  0  0  0  0  0  0  0  0  0
   40.1000   31.6790   42.8300 C   0  0  0  0  0  0  0  0  0  0  0  0
  1  2  1  0  0  0  0
  2 11  1  0  0  0  0
  2  3  2  0  0  0  0
  3  7  1  0  0  0  0
  4  3  1  0  0  0  0
  4  8  1  0  0  0  0
  5  4  2  0  0  0  0
  6  1  2  0  0  0  0
  6  5  1  0  0  0  0
  9  5  1  0  0  0  0
 10 15  2  0  0  0  0
 10 11  1  0  0  0  0
 11 12  2  0  0  0  0
 12 13  1  0  0  0  0
 12 18  1  0  0  0  0
 14 17  1  0  0  0  0
 14 13  2  0  0  0  0
 15 14  1  0  0  0  0
 16 10  1  0  0  0  0
 18 21  1  0  0  0  0
 18 20  1  0  0  0  0
 19 18  1  0  0  0  0
 22  1  1  0  0  0  0
 23 22  1  0  0  0  0
 24  6  1  0  0  0  0
 26 25  1  0  0  0  0
 26 27  1  0  0  0  0
 27 24  1  1  0  0  0
 28 27  1  0  0  0  0
 28 29  1  0  0  0  0
 30 28  1  0  0  0  0
 31 32  1  0  0  0  0
 31 30  1  0  0  0  0
 32 26  1  0  0  0  0
M  END
>  <minimizedAffinity>
-6.55011654

>  <minimizedRMSD>
2.68003893

$$$$
