
 OpenBabel03272509193D

 32 34  0  0  1  0  0  0  0  0999 V2000
   37.9550   25.1560   34.1790 C   0  0  0  0  0  0  0  0  0  0  0  0
   38.6960   25.3190   35.3540 C   0  0  0  0  0  0  0  0  0  0  0  0
   38.6240   26.5910   35.9260 C   0  0  0  0  0  0  0  0  0  0  0  0
   37.8510   27.5980   35.3290 C   0  0  0  0  0  0  0  0  0  0  0  0
   37.1500   27.3390   34.1610 C   0  0  0  0  0  0  0  0  0  0  0  0
   37.2010   26.0970   33.5750 C   0  0  0  0  0  0  0  0  0  0  0  0
   39.1980   26.7140   36.8340 H   0  0  0  0  0  0  0  0  0  0  0  0
   37.8930   28.5150   35.8780 H   0  0  0  0  0  0  0  0  0  0  0  0
   36.6300   28.2250   33.8700 H   0  0  0  0  0  0  0  0  0  0  0  0
   40.7800   24.0220   35.4780 C   0  0  0  0  0  0  0  0  0  0  0  0
   39.4800   24.2760   35.9490 C   0  0  0  0  0  0  0  0  0  0  0  0
   39.0040   23.4880   36.9940 C   0  0  0  0  0  0  0  0  0  0  0  0
   39.8160   22.5170   37.5030 N   0  0  0  0  0  0  0  0  0  0  0  0
   41.0710   22.3080   37.0120 C   0  0  0  0  0  0  0  0  0  0  0  0
   41.5420   23.0520   36.0130 N   0  0  0  0  0  0  0  0  0  0  0  0
   41.1790   24.6160   34.6660 H   0  0  0  0  0  0  0  0  0  0  0  0
   41.5800   21.4960   37.5320 H   0  0  0  0  0  0  0  0  0  0  0  0
   37.6430   23.7090   37.5310 C   0  0  0  0  0  0  0  0  0  0  0  0
   37.3010   24.7190   37.2840 H   0  0  0  0  0  0  0  0  0  0  0  0
   36.9440   22.9960   37.0140 H   0  0  0  0  0  0  0  0  0  0  0  0
   37.5700   23.5370   38.6270 H   0  0  0  0  0  0  0  0  0  0  0  0
   37.9830   23.9050   33.5520 O   0  0  0  0  0  0  0  0  0  0  0  0
   37.7600   23.7400   32.5980 H   0  0  0  0  0  0  0  0  0  0  0  0
   36.4940   25.8740   32.4230 O   0  0  0  0  0  0  0  0  0  0  0  0
   36.6770   28.1870   31.8940 H   0  0  0  0  0  0  0  0  0  0  0  0
   36.3300   27.6870   31.0480 N   0  0  0  0  0  0  0  0  0  0  0  0
   36.8190   26.3260   31.1500 C   0  0  1  0  0  3  0  0  0  0  0  0
   38.3190   26.2490   30.9710 C   0  0  0  0  0  3  0  0  0  0  0  0
   38.5680   25.2060   30.6840 H   0  0  0  0  0  0  0  0  0  0  0  0
   38.8020   27.0750   29.9820 O   0  0  0  0  0  0  0  0  0  0  0  0
   38.3830   28.3890   30.1000 C   0  0  0  0  0  2  0  0  0  0  0  0
   36.8730   28.3790   29.9000 C   0  0  0  0  0  2  0  0  0  0  0  0
  1  2  1  0  0  0  0
  2  3  2  0  0  0  0
  2 11  1  0  0  0  0
  3  7  1  0  0  0  0
  4  8  1  0  0  0  0
  4  3  1  0  0  0  0
  5  4  2  0  0  0  0
  6  5  1  0  0  0  0
  6  1  2  0  0  0  0
  9  5  1  0  0  0  0
 10 11  2  0  0  0  0
 10 15  1  0  0  0  0
 11 12  1  0  0  0  0
 12 13  2  0  0  0  0
 12 18  1  0  0  0  0
 14 13  1  0  0  0  0
 14 17  1  0  0  0  0
 15 14  2  0  0  0  0
 16 10  1  0  0  0  0
 18 21  1  0  0  0  0
 19 18  1  0  0  0  0
 20 18  1  0  0  0  0
 22  1  1  0  0  0  0
 23 22  1  0  0  0  0
 24  6  1  0  0  0  0
 26 27  1  0  0  0  0
 26 25  1  0  0  0  0
 27 24  1  1  0  0  0
 28 27  1  0  0  0  0
 29 28  1  0  0  0  0
 30 31  1  0  0  0  0
 30 28  1  0  0  0  0
 32 31  1  0  0  0  0
 32 26  1  0  0  0  0
M  END
>  <minimizedAffinity>
-5.28356504

$$$$

 OpenBabel03272509193D

 32 34  0  0  1  0  0  0  0  0999 V2000
   36.1000   29.0390   33.3350 C   0  0  0  0  0  0  0  0  0  0  0  0
   35.5750   30.3270   33.4830 C   0  0  0  0  0  0  0  0  0  0  0  0
   35.6780   31.1410   32.3520 C   0  0  0  0  0  0  0  0  0  0  0  0
   36.2720   30.6550   31.1780 C   0  0  0  0  0  0  0  0  0  0  0  0
   36.7650   29.3600   31.1290 C   0  0  0  0  0  0  0  0  0  0  0  0
   36.6770   28.5360   32.2250 C   0  0  0  0  0  0  0  0  0  0  0  0
   35.2710   32.1350   32.4700 H   0  0  0  0  0  0  0  0  0  0  0  0
   36.2800   31.3890   30.4000 H   0  0  0  0  0  0  0  0  0  0  0  0
   37.1730   29.1850   30.1580 H   0  0  0  0  0  0  0  0  0  0  0  0
   35.7460   31.5020   35.6350 C   0  0  0  0  0  0  0  0  0  0  0  0
   34.9710   30.8040   34.6930 C   0  0  0  0  0  0  0  0  0  0  0  0
   33.6240   30.6040   34.9840 C   0  0  0  0  0  0  0  0  0  0  0  0
   33.1280   31.0920   36.1580 N   0  0  0  0  0  0  0  0  0  0  0  0
   33.9220   31.7630   37.0410 C   0  0  0  0  0  0  0  0  0  0  0  0
   35.2110   31.9630   36.7790 N   0  0  0  0  0  0  0  0  0  0  0  0
   36.7970   31.6730   35.4390 H   0  0  0  0  0  0  0  0  0  0  0  0
   33.3660   32.0810   37.9240 H   0  0  0  0  0  0  0  0  0  0  0  0
   32.7580   29.8750   34.0310 C   0  0  0  0  0  0  0  0  0  0  0  0
   33.2000   29.8960   33.0290 H   0  0  0  0  0  0  0  0  0  0  0  0
   32.7230   28.7960   34.3460 H   0  0  0  0  0  0  0  0  0  0  0  0
   31.7160   30.2630   33.9970 H   0  0  0  0  0  0  0  0  0  0  0  0
   36.0300   28.1710   34.4300 O   0  0  0  0  0  0  0  0  0  0  0  0
   36.6030   27.3700   34.5620 H   0  0  0  0  0  0  0  0  0  0  0  0
   37.1710   27.2610   32.1420 O   0  0  0  0  0  0  0  0  0  0  0  0
   37.5900   24.9390   32.4500 H   0  0  0  0  0  0  0  0  0  0  0  0
   37.6940   25.1550   31.4360 N   0  0  0  0  0  0  0  0  0  0  0  0
   36.8550   26.3100   31.1790 C   0  0  1  0  0  3  0  0  0  0  0  0
   35.3840   25.9760   31.2840 C   0  0  0  0  0  3  0  0  0  0  0  0
   34.8240   26.7550   30.7250 H   0  0  0  0  0  0  0  0  0  0  0  0
   35.0520   24.7570   30.7380 O   0  0  0  0  0  0  0  0  0  0  0  0
   35.8320   23.7100   31.1970 C   0  0  0  0  0  2  0  0  0  0  0  0
   37.2500   23.9850   30.7110 C   0  0  0  0  0  2  0  0  0  0  0  0
  1  2  1  0  0  0  0
  1 22  1  0  0  0  0
  2 11  1  0  0  0  0
  3  7  1  0  0  0  0
  3  2  2  0  0  0  0
  4  3  1  0  0  0  0
  5  4  2  0  0  0  0
  5  6  1  0  0  0  0
  6  1  2  0  0  0  0
  8  4  1  0  0  0  0
  9  5  1  0  0  0  0
 10 15  1  0  0  0  0
 11 12  1  0  0  0  0
 11 10  2  0  0  0  0
 12 13  2  0  0  0  0
 13 14  1  0  0  0  0
 14 17  1  0  0  0  0
 15 14  2  0  0  0  0
 16 10  1  0  0  0  0
 18 20  1  0  0  0  0
 18 12  1  0  0  0  0
 19 18  1  0  0  0  0
 21 18  1  0  0  0  0
 22 23  1  0  0  0  0
 24  6  1  0  0  0  0
 26 25  1  0  0  0  0
 27 28  1  0  0  0  0
 27 26  1  0  0  0  0
 27 24  1  1  0  0  0
 29 28  1  0  0  0  0
 30 31  1  0  0  0  0
 30 28  1  0  0  0  0
 32 31  1  0  0  0  0
 32 26  1  0  0  0  0
M  END
>  <minimizedAffinity>
-5.0601964

$$$$

 OpenBabel03272509193D

 32 34  0  0  1  0  0  0  0  0999 V2000
   37.7700   25.4920   34.0440 C   0  0  0  0  0  0  0  0  0  0  0  0
   38.4540   25.6090   35.2580 C   0  0  0  0  0  0  0  0  0  0  0  0
   38.3840   26.8680   35.8580 C   0  0  0  0  0  0  0  0  0  0  0  0
   37.6660   27.9080   35.2490 C   0  0  0  0  0  0  0  0  0  0  0  0
   37.0190   27.6940   34.0410 C   0  0  0  0  0  0  0  0  0  0  0  0
   37.0690   26.4660   33.4280 C   0  0  0  0  0  0  0  0  0  0  0  0
   38.9140   26.9540   36.7960 H   0  0  0  0  0  0  0  0  0  0  0  0
   37.7030   28.8100   35.8220 H   0  0  0  0  0  0  0  0  0  0  0  0
   36.5350   28.6000   33.7470 H   0  0  0  0  0  0  0  0  0  0  0  0
   38.5840   23.7690   36.8830 C   0  0  0  0  0  0  0  0  0  0  0  0
   39.1820   24.5320   35.8650 C   0  0  0  0  0  0  0  0  0  0  0  0
   40.4800   24.2010   35.4850 C   0  0  0  0  0  0  0  0  0  0  0  0
   41.1000   23.1610   36.1130 N   0  0  0  0  0  0  0  0  0  0  0  0
   40.4780   22.4490   37.0960 C   0  0  0  0  0  0  0  0  0  0  0  0
   39.2370   22.7530   37.4720 N   0  0  0  0  0  0  0  0  0  0  0  0
   37.5760   24.0010   37.2010 H   0  0  0  0  0  0  0  0  0  0  0  0
   41.1150   21.6560   37.4890 H   0  0  0  0  0  0  0  0  0  0  0  0
   41.1620   24.9700   34.4210 C   0  0  0  0  0  0  0  0  0  0  0  0
   40.4240   25.4830   33.7960 H   0  0  0  0  0  0  0  0  0  0  0  0
   41.7830   25.7690   34.9100 H   0  0  0  0  0  0  0  0  0  0  0  0
   41.8310   24.3470   33.7880 H   0  0  0  0  0  0  0  0  0  0  0  0
   37.7990   24.2570   33.3880 O   0  0  0  0  0  0  0  0  0  0  0  0
   37.6210   24.1200   32.4200 H   0  0  0  0  0  0  0  0  0  0  0  0
   36.4160   26.2890   32.2360 O   0  0  0  0  0  0  0  0  0  0  0  0
   36.5210   28.5640   31.5460 H   0  0  0  0  0  0  0  0  0  0  0  0
   36.3120   27.9800   30.7090 N   0  0  0  0  0  0  0  0  0  0  0  0
   36.8680   26.6680   30.9780 C   0  0  1  0  0  3  0  0  0  0  0  0
   38.3800   26.6850   30.9850 C   0  0  0  0  0  3  0  0  0  0  0  0
   38.7260   25.6430   30.8150 H   0  0  0  0  0  0  0  0  0  0  0  0
   38.9310   27.4680   29.9960 O   0  0  0  0  0  0  0  0  0  0  0  0
   38.4210   28.7540   29.9570 C   0  0  0  0  0  2  0  0  0  0  0  0
   36.9500   28.6230   29.5810 C   0  0  0  0  0  2  0  0  0  0  0  0
  1  2  1  0  0  0  0
  2  3  2  0  0  0  0
  2 11  1  0  0  0  0
  3  7  1  0  0  0  0
  4  8  1  0  0  0  0
  4  3  1  0  0  0  0
  5  4  2  0  0  0  0
  6  5  1  0  0  0  0
  6  1  2  0  0  0  0
  9  5  1  0  0  0  0
 10 16  1  0  0  0  0
 10 15  1  0  0  0  0
 11 10  2  0  0  0  0
 12 11  1  0  0  0  0
 12 13  2  0  0  0  0
 13 14  1  0  0  0  0
 14 15  2  0  0  0  0
 14 17  1  0  0  0  0
 18 20  1  0  0  0  0
 18 12  1  0  0  0  0
 19 18  1  0  0  0  0
 21 18  1  0  0  0  0
 22  1  1  0  0  0  0
 23 22  1  0  0  0  0
 24  6  1  0  0  0  0
 26 27  1  0  0  0  0
 26 25  1  0  0  0  0
 27 28  1  0  0  0  0
 27 24  1  1  0  0  0
 29 28  1  0  0  0  0
 30 28  1  0  0  0  0
 31 30  1  0  0  0  0
 32 31  1  0  0  0  0
 32 26  1  0  0  0  0
M  END
>  <minimizedAffinity>
-5.05649567

$$$$

 OpenBabel03272509193D

 32 34  0  0  1  0  0  0  0  0999 V2000
   38.7660   25.2970   33.4860 C   0  0  0  0  0  0  0  0  0  0  0  0
   38.9120   26.6600   33.2050 C   0  0  0  0  0  0  0  0  0  0  0  0
   40.0570   27.2550   33.7410 C   0  0  0  0  0  0  0  0  0  0  0  0
   40.9630   26.4980   34.5000 C   0  0  0  0  0  0  0  0  0  0  0  0
   40.7300   25.1500   34.7250 C   0  0  0  0  0  0  0  0  0  0  0  0
   39.6140   24.5370   34.2090 C   0  0  0  0  0  0  0  0  0  0  0  0
   40.1670   28.3070   33.5220 H   0  0  0  0  0  0  0  0  0  0  0  0
   41.7870   27.0870   34.8430 H   0  0  0  0  0  0  0  0  0  0  0  0
   41.5280   24.7590   35.3170 H   0  0  0  0  0  0  0  0  0  0  0  0
   38.1540   27.5360   31.0380 C   0  0  0  0  0  0  0  0  0  0  0  0
   37.9740   27.4140   32.4270 C   0  0  0  0  0  0  0  0  0  0  0  0
   36.8690   28.0440   32.9940 C   0  0  0  0  0  0  0  0  0  0  0  0
   36.0240   28.7420   32.1810 N   0  0  0  0  0  0  0  0  0  0  0  0
   36.2420   28.8310   30.8370 C   0  0  0  0  0  0  0  0  0  0  0  0
   37.2930   28.2350   30.2790 N   0  0  0  0  0  0  0  0  0  0  0  0
   39.0030   27.0580   30.5660 H   0  0  0  0  0  0  0  0  0  0  0  0
   35.4730   29.4240   30.3410 H   0  0  0  0  0  0  0  0  0  0  0  0
   36.6290   27.9530   34.4510 C   0  0  0  0  0  0  0  0  0  0  0  0
   37.1520   27.0850   34.8650 H   0  0  0  0  0  0  0  0  0  0  0  0
   37.0760   28.8620   34.9370 H   0  0  0  0  0  0  0  0  0  0  0  0
   35.5490   27.9100   34.7170 H   0  0  0  0  0  0  0  0  0  0  0  0
   37.6410   24.6380   32.9790 O   0  0  0  0  0  0  0  0  0  0  0  0
   37.2700   23.7870   33.3340 H   0  0  0  0  0  0  0  0  0  0  0  0
   39.4160   23.2020   34.4480 O   0  0  0  0  0  0  0  0  0  0  0  0
   40.4390   23.9140   36.4760 H   0  0  0  0  0  0  0  0  0  0  0  0
   40.2620   22.8900   36.5440 N   0  0  0  0  0  0  0  0  0  0  0  0
   39.1340   22.6130   35.6750 C   0  0  1  0  0  3  0  0  0  0  0  0
   37.8470   23.1950   36.2150 C   0  0  0  0  0  3  0  0  0  0  0  0
   37.0080   22.6470   35.7380 H   0  0  0  0  0  0  0  0  0  0  0  0
   37.7070   23.0600   37.5770 O   0  0  0  0  0  0  0  0  0  0  0  0
   38.7970   23.5160   38.2970 C   0  0  0  0  0  2  0  0  0  0  0  0
   39.9640   22.6080   37.9310 C   0  0  0  0  0  2  0  0  0  0  0  0
  1  6  1  0  0  0  0
  2  1  2  0  0  0  0
  2  3  1  0  0  0  0
  3  4  2  0  0  0  0
  4  5  1  0  0  0  0
  4  8  1  0  0  0  0
  5  9  1  0  0  0  0
  6 24  1  0  0  0  0
  6  5  2  0  0  0  0
  7  3  1  0  0  0  0
 10 11  1  0  0  0  0
 11 12  2  0  0  0  0
 11  2  1  0  0  0  0
 12 18  1  0  0  0  0
 13 12  1  0  0  0  0
 14 13  2  0  0  0  0
 15 14  1  0  0  0  0
 15 10  2  0  0  0  0
 16 10  1  0  0  0  0
 17 14  1  0  0  0  0
 18 21  1  0  0  0  0
 18 19  1  0  0  0  0
 18 20  1  0  0  0  0
 22 23  1  0  0  0  0
 22  1  1  0  0  0  0
 25 26  1  0  0  0  0
 26 32  1  0  0  0  0
 27 24  1  6  0  0  0
 27 28  1  0  0  0  0
 27 26  1  0  0  0  0
 28 30  1  0  0  0  0
 29 28  1  0  0  0  0
 30 31  1  0  0  0  0
 32 31  1  0  0  0  0
M  END
>  <minimizedAffinity>
-5.03719044

$$$$

 OpenBabel03272509193D

 32 34  0  0  1  0  0  0  0  0999 V2000
   37.0430   26.3240   32.5990 C   0  0  0  0  0  0  0  0  0  0  0  0
   36.0590   26.8260   31.7410 C   0  0  0  0  0  0  0  0  0  0  0  0
   35.3590   25.8600   31.0140 C   0  0  0  0  0  0  0  0  0  0  0  0
   35.6590   24.4980   31.1680 C   0  0  0  0  0  0  0  0  0  0  0  0
   36.6560   24.0970   32.0450 C   0  0  0  0  0  0  0  0  0  0  0  0
   37.3600   25.0240   32.7740 C   0  0  0  0  0  0  0  0  0  0  0  0
   34.5990   26.2510   30.3530 H   0  0  0  0  0  0  0  0  0  0  0  0
   35.0440   23.8800   30.5480 H   0  0  0  0  0  0  0  0  0  0  0  0
   36.7290   23.0320   32.0170 H   0  0  0  0  0  0  0  0  0  0  0  0
   34.8300   28.8320   32.4520 C   0  0  0  0  0  0  0  0  0  0  0  0
   35.7680   28.2230   31.6000 C   0  0  0  0  0  0  0  0  0  0  0  0
   36.3830   29.0200   30.6390 C   0  0  0  0  0  0  0  0  0  0  0  0
   36.0490   30.3410   30.5730 N   0  0  0  0  0  0  0  0  0  0  0  0
   35.1320   30.8870   31.4220 C   0  0  0  0  0  0  0  0  0  0  0  0
   34.5340   30.1390   32.3470 N   0  0  0  0  0  0  0  0  0  0  0  0
   34.3340   28.2390   33.2100 H   0  0  0  0  0  0  0  0  0  0  0  0
   34.9860   31.9510   31.2310 H   0  0  0  0  0  0  0  0  0  0  0  0
   37.3770   28.4340   29.7130 C   0  0  0  0  0  0  0  0  0  0  0  0
   37.7870   27.5110   30.1350 H   0  0  0  0  0  0  0  0  0  0  0  0
   36.8450   28.1470   28.7650 H   0  0  0  0  0  0  0  0  0  0  0  0
   38.2020   29.1330   29.4520 H   0  0  0  0  0  0  0  0  0  0  0  0
   37.7830   27.2370   33.3580 O   0  0  0  0  0  0  0  0  0  0  0  0
   38.6730   27.0560   33.7620 H   0  0  0  0  0  0  0  0  0  0  0  0
   38.3370   24.5940   33.6340 O   0  0  0  0  0  0  0  0  0  0  0  0
   40.1590   23.4570   34.6580 H   0  0  0  0  0  0  0  0  0  0  0  0
   39.3160   22.8490   34.7290 N   0  0  0  0  0  0  0  0  0  0  0  0
   38.1710   23.7380   34.7160 C   0  0  1  0  0  3  0  0  0  0  0  0
   38.0780   24.5600   35.9820 C   0  0  0  0  0  3  0  0  0  0  0  0
   37.0280   24.9110   36.0750 H   0  0  0  0  0  0  0  0  0  0  0  0
   38.3790   23.8540   37.1240 O   0  0  0  0  0  0  0  0  0  0  0  0
   39.5860   23.1800   37.0590 C   0  0  0  0  0  2  0  0  0  0  0  0
   39.4290   22.1210   35.9740 C   0  0  0  0  0  2  0  0  0  0  0  0
  1  6  1  0  0  0  0
  1 22  1  0  0  0  0
  2  1  2  0  0  0  0
  3  4  2  0  0  0  0
  3  2  1  0  0  0  0
  4  5  1  0  0  0  0
  5  6  2  0  0  0  0
  6 24  1  0  0  0  0
  7  3  1  0  0  0  0
  8  4  1  0  0  0  0
  9  5  1  0  0  0  0
 10 16  1  0  0  0  0
 11  2  1  0  0  0  0
 11 10  2  0  0  0  0
 12 11  1  0  0  0  0
 13 12  2  0  0  0  0
 13 14  1  0  0  0  0
 14 15  2  0  0  0  0
 15 10  1  0  0  0  0
 17 14  1  0  0  0  0
 18 19  1  0  0  0  0
 18 12  1  0  0  0  0
 20 18  1  0  0  0  0
 21 18  1  0  0  0  0
 22 23  1  0  0  0  0
 25 26  1  0  0  0  0
 26 32  1  0  0  0  0
 27 24  1  6  0  0  0
 27 26  1  0  0  0  0
 27 28  1  0  0  0  0
 28 29  1  0  0  0  0
 28 30  1  0  0  0  0
 31 30  1  0  0  0  0
 32 31  1  0  0  0  0
M  END
>  <minimizedAffinity>
-4.96914625

$$$$

 OpenBabel03272509193D

 32 34  0  0  1  0  0  0  0  0999 V2000
   35.5920   30.1590   32.7000 C   0  0  0  0  0  0  0  0  0  0  0  0
   35.5600   29.7670   34.0430 C   0  0  0  0  0  0  0  0  0  0  0  0
   36.1860   28.5500   34.3190 C   0  0  0  0  0  0  0  0  0  0  0  0
   36.7900   27.8110   33.2900 C   0  0  0  0  0  0  0  0  0  0  0  0
   36.7690   28.2830   31.9860 C   0  0  0  0  0  0  0  0  0  0  0  0
   36.1620   29.4780   31.6850 C   0  0  0  0  0  0  0  0  0  0  0  0
   36.1600   28.2510   35.3570 H   0  0  0  0  0  0  0  0  0  0  0  0
   37.2260   26.9040   33.6520 H   0  0  0  0  0  0  0  0  0  0  0  0
   37.2760   27.5820   31.3600 H   0  0  0  0  0  0  0  0  0  0  0  0
   35.7040   31.4460   35.8320 C   0  0  0  0  0  0  0  0  0  0  0  0
   34.9380   30.5390   35.0790 C   0  0  0  0  0  0  0  0  0  0  0  0
   33.5830   30.4300   35.3800 C   0  0  0  0  0  0  0  0  0  0  0  0
   33.0710   31.2020   36.3810 N   0  0  0  0  0  0  0  0  0  0  0  0
   33.8560   32.0690   37.0850 C   0  0  0  0  0  0  0  0  0  0  0  0
   35.1530   32.1850   36.8100 N   0  0  0  0  0  0  0  0  0  0  0  0
   36.7610   31.5540   35.6230 H   0  0  0  0  0  0  0  0  0  0  0  0
   33.2870   32.6040   37.8460 H   0  0  0  0  0  0  0  0  0  0  0  0
   32.7270   29.4910   34.6220 C   0  0  0  0  0  0  0  0  0  0  0  0
   33.1890   29.2550   33.6580 H   0  0  0  0  0  0  0  0  0  0  0  0
   32.6700   28.5270   35.1980 H   0  0  0  0  0  0  0  0  0  0  0  0
   31.6910   29.8670   34.4680 H   0  0  0  0  0  0  0  0  0  0  0  0
   34.9830   31.3700   32.3530 O   0  0  0  0  0  0  0  0  0  0  0  0
   34.6790   31.6150   31.4390 H   0  0  0  0  0  0  0  0  0  0  0  0
   36.1620   29.9160   30.3860 O   0  0  0  0  0  0  0  0  0  0  0  0
   36.6760   29.3220   28.1400 H   0  0  0  0  0  0  0  0  0  0  0  0
   37.5700   29.5360   28.6320 N   0  0  0  0  0  0  0  0  0  0  0  0
   37.2370   30.4630   29.6960 C   0  0  1  0  0  3  0  0  0  0  0  0
   36.8360   31.8190   29.1600 C   0  0  0  0  0  3  0  0  0  0  0  0
   36.9670   32.5540   29.9810 H   0  0  0  0  0  0  0  0  0  0  0  0
   37.6040   32.2450   28.1000 O   0  0  0  0  0  0  0  0  0  0  0  0
   37.7040   31.3170   27.0770 C   0  0  0  0  0  2  0  0  0  0  0  0
   38.4560   30.1230   27.6520 C   0  0  0  0  0  2  0  0  0  0  0  0
  1  2  1  0  0  0  0
  2  3  2  0  0  0  0
  2 11  1  0  0  0  0
  3  7  1  0  0  0  0
  4  8  1  0  0  0  0
  4  3  1  0  0  0  0
  5  4  2  0  0  0  0
  6  5  1  0  0  0  0
  6  1  2  0  0  0  0
  9  5  1  0  0  0  0
 10 15  1  0  0  0  0
 11 12  1  0  0  0  0
 11 10  2  0  0  0  0
 12 13  2  0  0  0  0
 13 14  1  0  0  0  0
 14 17  1  0  0  0  0
 15 14  2  0  0  0  0
 16 10  1  0  0  0  0
 18 20  1  0  0  0  0
 18 12  1  0  0  0  0
 19 18  1  0  0  0  0
 21 18  1  0  0  0  0
 22  1  1  0  0  0  0
 23 22  1  0  0  0  0
 24  6  1  0  0  0  0
 25 26  1  0  0  0  0
 26 27  1  0  0  0  0
 27 24  1  6  0  0  0
 28 27  1  0  0  0  0
 28 29  1  0  0  0  0
 30 28  1  0  0  0  0
 31 32  1  0  0  0  0
 31 30  1  0  0  0  0
 32 26  1  0  0  0  0
M  END
>  <minimizedAffinity>
-4.80958366

$$$$

 OpenBabel03272509193D

 32 34  0  0  1  0  0  0  0  0999 V2000
   37.4050   26.2330   32.0990 C   0  0  0  0  0  0  0  0  0  0  0  0
   36.4670   26.8180   31.2430 C   0  0  0  0  0  0  0  0  0  0  0  0
   35.4630   25.9590   30.7920 C   0  0  0  0  0  0  0  0  0  0  0  0
   35.4400   24.6150   31.1950 C   0  0  0  0  0  0  0  0  0  0  0  0
   36.4180   24.1270   32.0490 C   0  0  0  0  0  0  0  0  0  0  0  0
   37.4170   24.9480   32.5110 C   0  0  0  0  0  0  0  0  0  0  0  0
   34.7390   26.4140   30.1300 H   0  0  0  0  0  0  0  0  0  0  0  0
   34.6160   24.0820   30.7700 H   0  0  0  0  0  0  0  0  0  0  0  0
   36.2260   23.0930   32.2340 H   0  0  0  0  0  0  0  0  0  0  0  0
   37.1540   28.5570   29.6490 C   0  0  0  0  0  0  0  0  0  0  0  0
   36.5070   28.1940   30.8430 C   0  0  0  0  0  0  0  0  0  0  0  0
   35.9240   29.2090   31.5980 C   0  0  0  0  0  0  0  0  0  0  0  0
   36.0080   30.4920   31.1440 N   0  0  0  0  0  0  0  0  0  0  0  0
   36.6460   30.7950   29.9780 C   0  0  0  0  0  0  0  0  0  0  0  0
   37.2100   29.8370   29.2440 N   0  0  0  0  0  0  0  0  0  0  0  0
   37.6180   27.7920   29.0400 H   0  0  0  0  0  0  0  0  0  0  0  0
   36.6190   31.8650   29.7660 H   0  0  0  0  0  0  0  0  0  0  0  0
   35.2310   28.8870   32.8650 C   0  0  0  0  0  0  0  0  0  0  0  0
   34.9380   27.8330   32.8770 H   0  0  0  0  0  0  0  0  0  0  0  0
   35.9610   29.0300   33.7080 H   0  0  0  0  0  0  0  0  0  0  0  0
   34.3450   29.5320   33.0580 H   0  0  0  0  0  0  0  0  0  0  0  0
   38.4400   27.0370   32.5900 O   0  0  0  0  0  0  0  0  0  0  0  0
   39.3050   26.7010   32.9460 H   0  0  0  0  0  0  0  0  0  0  0  0
   38.3660   24.4330   33.3550 O   0  0  0  0  0  0  0  0  0  0  0  0
   40.0820   23.2220   34.4740 H   0  0  0  0  0  0  0  0  0  0  0  0
   39.1800   22.7200   34.6220 N   0  0  0  0  0  0  0  0  0  0  0  0
   38.1360   23.7220   34.5260 C   0  0  1  0  0  3  0  0  0  0  0  0
   38.1620   24.6800   35.6960 C   0  0  0  0  0  3  0  0  0  0  0  0
   37.1590   25.1510   35.7630 H   0  0  0  0  0  0  0  0  0  0  0  0
   38.4150   24.0730   36.9040 O   0  0  0  0  0  0  0  0  0  0  0  0
   39.5400   23.2680   36.8980 C   0  0  0  0  0  2  0  0  0  0  0  0
   39.2450   22.1230   35.9380 C   0  0  0  0  0  2  0  0  0  0  0  0
  1  6  1  0  0  0  0
  1 22  1  0  0  0  0
  2  1  2  0  0  0  0
  3  4  2  0  0  0  0
  3  2  1  0  0  0  0
  4  5  1  0  0  0  0
  5  9  1  0  0  0  0
  5  6  2  0  0  0  0
  6 24  1  0  0  0  0
  7  3  1  0  0  0  0
  8  4  1  0  0  0  0
 10 11  1  0  0  0  0
 11  2  1  0  0  0  0
 11 12  2  0  0  0  0
 12 18  1  0  0  0  0
 13 12  1  0  0  0  0
 14 13  2  0  0  0  0
 15 10  2  0  0  0  0
 15 14  1  0  0  0  0
 16 10  1  0  0  0  0
 17 14  1  0  0  0  0
 18 19  1  0  0  0  0
 18 21  1  0  0  0  0
 18 20  1  0  0  0  0
 22 23  1  0  0  0  0
 25 26  1  0  0  0  0
 26 32  1  0  0  0  0
 27 24  1  6  0  0  0
 27 26  1  0  0  0  0
 27 28  1  0  0  0  0
 28 29  1  0  0  0  0
 28 30  1  0  0  0  0
 31 30  1  0  0  0  0
 32 31  1  0  0  0  0
M  END
>  <minimizedAffinity>
-4.78720474

$$$$

 OpenBabel03272509193D

 32 34  0  0  1  0  0  0  0  0999 V2000
   36.3720   26.9880   31.6000 C   0  0  0  0  0  0  0  0  0  0  0  0
   36.3610   28.1930   32.3100 C   0  0  0  0  0  0  0  0  0  0  0  0
   36.8010   28.1050   33.6320 C   0  0  0  0  0  0  0  0  0  0  0  0
   37.2140   26.8740   34.1640 C   0  0  0  0  0  0  0  0  0  0  0  0
   37.1880   25.7310   33.3790 C   0  0  0  0  0  0  0  0  0  0  0  0
   36.7620   25.7870   32.0750 C   0  0  0  0  0  0  0  0  0  0  0  0
   36.7910   29.0380   34.1780 H   0  0  0  0  0  0  0  0  0  0  0  0
   37.5220   26.9610   35.1850 H   0  0  0  0  0  0  0  0  0  0  0  0
   37.5370   24.9070   33.9630 H   0  0  0  0  0  0  0  0  0  0  0  0
   36.8180   30.1840   30.9430 C   0  0  0  0  0  0  0  0  0  0  0  0
   35.9360   29.4420   31.7470 C   0  0  0  0  0  0  0  0  0  0  0  0
   34.6630   29.9630   31.9620 C   0  0  0  0  0  0  0  0  0  0  0  0
   34.3390   31.1570   31.3880 N   0  0  0  0  0  0  0  0  0  0  0  0
   35.2310   31.8410   30.6150 C   0  0  0  0  0  0  0  0  0  0  0  0
   36.4520   31.3570   30.3990 N   0  0  0  0  0  0  0  0  0  0  0  0
   37.8160   29.8060   30.7560 H   0  0  0  0  0  0  0  0  0  0  0  0
   34.8080   32.7730   30.2380 H   0  0  0  0  0  0  0  0  0  0  0  0
   33.6910   29.2270   32.8010 C   0  0  0  0  0  0  0  0  0  0  0  0
   33.9660   28.1690   32.8550 H   0  0  0  0  0  0  0  0  0  0  0  0
   33.7560   29.6320   33.8480 H   0  0  0  0  0  0  0  0  0  0  0  0
   32.6400   29.3310   32.4510 H   0  0  0  0  0  0  0  0  0  0  0  0
   35.9440   27.0050   30.2680 O   0  0  0  0  0  0  0  0  0  0  0  0
   35.6280   26.2120   29.7600 H   0  0  0  0  0  0  0  0  0  0  0  0
   36.7520   24.6390   31.3270 O   0  0  0  0  0  0  0  0  0  0  0  0
   35.0300   23.0530   30.9000 H   0  0  0  0  0  0  0  0  0  0  0  0
   35.4360   22.8480   31.8380 N   0  0  0  0  0  0  0  0  0  0  0  0
   36.8010   23.3360   31.8070 C   0  0  1  0  0  3  0  0  0  0  0  0
   37.6770   22.5090   30.8920 C   0  0  0  0  0  3  0  0  0  0  0  0
   38.7310   22.6800   31.1970 H   0  0  0  0  0  0  0  0  0  0  0  0
   37.4390   21.1560   30.9720 O   0  0  0  0  0  0  0  0  0  0  0  0
   36.1060   20.8160   30.8220 C   0  0  0  0  0  2  0  0  0  0  0  0
   35.3720   21.4140   32.0160 C   0  0  0  0  0  2  0  0  0  0  0  0
  1  6  2  0  0  0  0
  1  2  1  0  0  0  0
  2  3  2  0  0  0  0
  3  4  1  0  0  0  0
  3  7  1  0  0  0  0
  4  8  1  0  0  0  0
  5  9  1  0  0  0  0
  5  4  2  0  0  0  0
  6  5  1  0  0  0  0
 10 11  1  0  0  0  0
 11 12  2  0  0  0  0
 11  2  1  0  0  0  0
 12 18  1  0  0  0  0
 13 12  1  0  0  0  0
 14 13  2  0  0  0  0
 15 14  1  0  0  0  0
 15 10  2  0  0  0  0
 16 10  1  0  0  0  0
 17 14  1  0  0  0  0
 18 19  1  0  0  0  0
 18 20  1  0  0  0  0
 21 18  1  0  0  0  0
 22  1  1  0  0  0  0
 23 22  1  0  0  0  0
 24  6  1  0  0  0  0
 25 26  1  0  0  0  0
 26 32  1  0  0  0  0
 27 24  1  6  0  0  0
 27 26  1  0  0  0  0
 28 30  1  0  0  0  0
 28 29  1  0  0  0  0
 28 27  1  0  0  0  0
 31 30  1  0  0  0  0
 31 32  1  0  0  0  0
M  END
>  <minimizedAffinity>
-4.74104977

$$$$

 OpenBabel03272509193D

 32 34  0  0  1  0  0  0  0  0999 V2000
   36.2840   28.7170   33.6600 C   0  0  0  0  0  0  0  0  0  0  0  0
   35.6070   29.9400   33.6220 C   0  0  0  0  0  0  0  0  0  0  0  0
   35.5690   30.5560   32.3690 C   0  0  0  0  0  0  0  0  0  0  0  0
   36.1800   29.9520   31.2600 C   0  0  0  0  0  0  0  0  0  0  0  0
   36.8300   28.7350   31.3990 C   0  0  0  0  0  0  0  0  0  0  0  0
   36.8830   28.1040   32.6180 C   0  0  0  0  0  0  0  0  0  0  0  0
   35.0440   31.5010   32.3430 H   0  0  0  0  0  0  0  0  0  0  0  0
   36.0690   30.5380   30.3730 H   0  0  0  0  0  0  0  0  0  0  0  0
   37.2250   28.4470   30.4490 H   0  0  0  0  0  0  0  0  0  0  0  0
   35.7430   31.3640   35.6200 C   0  0  0  0  0  0  0  0  0  0  0  0
   34.9880   30.5400   34.7680 C   0  0  0  0  0  0  0  0  0  0  0  0
   33.6460   30.3400   35.0820 C   0  0  0  0  0  0  0  0  0  0  0  0
   33.1360   30.9500   36.1910 N   0  0  0  0  0  0  0  0  0  0  0  0
   33.9090   31.7410   36.9880 C   0  0  0  0  0  0  0  0  0  0  0  0
   35.1940   31.9430   36.7020 N   0  0  0  0  0  0  0  0  0  0  0  0
   36.7890   31.5390   35.4040 H   0  0  0  0  0  0  0  0  0  0  0  0
   33.3440   32.1470   37.8270 H   0  0  0  0  0  0  0  0  0  0  0  0
   32.8020   29.4810   34.2230 C   0  0  0  0  0  0  0  0  0  0  0  0
   33.2440   29.3960   33.2250 H   0  0  0  0  0  0  0  0  0  0  0  0
   32.7940   28.4470   34.6630 H   0  0  0  0  0  0  0  0  0  0  0  0
   31.7500   29.8350   34.1450 H   0  0  0  0  0  0  0  0  0  0  0  0
   36.3610   28.0450   34.8850 O   0  0  0  0  0  0  0  0  0  0  0  0
   37.0350   27.3520   35.1150 H   0  0  0  0  0  0  0  0  0  0  0  0
   37.5310   26.9010   32.7190 O   0  0  0  0  0  0  0  0  0  0  0  0
   38.5430   26.5690   34.8470 H   0  0  0  0  0  0  0  0  0  0  0  0
   39.2230   27.0720   34.2390 N   0  0  0  0  0  0  0  0  0  0  0  0
   38.8980   26.7060   32.8740 C   0  0  1  0  0  3  0  0  0  0  0  0
   39.2230   25.2570   32.5840 C   0  0  0  0  0  3  0  0  0  0  0  0
   39.3140   25.1510   31.4820 H   0  0  0  0  0  0  0  0  0  0  0  0
   40.4090   24.8340   33.1390 O   0  0  0  0  0  0  0  0  0  0  0  0
   40.5180   25.1050   34.4920 C   0  0  0  0  0  2  0  0  0  0  0  0
   40.5420   26.6220   34.6260 C   0  0  0  0  0  2  0  0  0  0  0  0
  1 22  1  0  0  0  0
  2  1  1  0  0  0  0
  2 11  1  0  0  0  0
  3  2  2  0  0  0  0
  4  5  2  0  0  0  0
  4  3  1  0  0  0  0
  5  6  1  0  0  0  0
  6 24  1  0  0  0  0
  6  1  2  0  0  0  0
  7  3  1  0  0  0  0
  8  4  1  0  0  0  0
  9  5  1  0  0  0  0
 10 15  1  0  0  0  0
 11 12  1  0  0  0  0
 11 10  2  0  0  0  0
 12 13  2  0  0  0  0
 13 14  1  0  0  0  0
 14 17  1  0  0  0  0
 15 14  2  0  0  0  0
 16 10  1  0  0  0  0
 18 20  1  0  0  0  0
 18 12  1  0  0  0  0
 19 18  1  0  0  0  0
 21 18  1  0  0  0  0
 22 23  1  0  0  0  0
 26 32  1  0  0  0  0
 26 25  1  0  0  0  0
 27 24  1  1  0  0  0
 27 26  1  0  0  0  0
 28 27  1  0  0  0  0
 28 30  1  0  0  0  0
 29 28  1  0  0  0  0
 30 31  1  0  0  0  0
 31 32  1  0  0  0  0
M  END
>  <minimizedAffinity>
-4.73833656

$$$$
