
 OpenBabel03272510033D

 20 21  0  0  0  0  0  0  0  0999 V2000
   39.8790   22.4840   35.4660 C   0  0  0  0  0  0  0  0  0  0  0  0
   39.3320   23.3270   34.4880 C   0  0  0  0  0  0  0  0  0  0  0  0
   38.4450   24.3160   34.8910 C   0  0  0  0  0  0  0  0  0  0  0  0
   38.1540   24.4120   36.2220 N   0  0  0  0  0  0  0  0  0  0  0  0
   38.6920   23.5900   37.1410 C   0  0  0  0  0  0  0  0  0  0  0  0
   39.5440   22.6390   36.7550 N   0  0  0  0  0  0  0  0  0  0  0  0
   40.5620   21.7350   35.0890 H   0  0  0  0  0  0  0  0  0  0  0  0
   39.5610   23.2510   33.4400 H   0  0  0  0  0  0  0  0  0  0  0  0
   37.8150   25.2390   34.0150 N   0  0  0  0  0  0  0  0  0  0  0  0
   37.2190   26.4940   34.4820 C   0  0  0  0  0  3  0  0  0  0  0  0
   36.1810   26.3280   34.7740 H   0  0  0  0  0  0  0  0  0  0  0  0
   37.3220   27.4410   33.2950 C   0  0  0  0  0  3  0  0  0  0  0  0
   37.0530   28.4850   33.5510 H   0  0  0  0  0  0  0  0  0  0  0  0
   36.4340   27.0250   32.3190 O   0  0  0  0  0  0  0  0  0  0  0  0
   36.4840   25.6710   32.0640 C   0  0  0  0  0  2  0  0  0  0  0  0
   37.7210   25.0020   32.6040 C   0  0  0  0  0  2  0  0  0  0  0  0
   38.3140   23.7730   38.5640 C   0  0  0  0  0  0  0  0  0  0  0  0
   37.3830   22.8470   39.0020 F   0  0  0  0  0  0  0  0  0  0  0  0
   39.4200   23.6660   39.3950 F   0  0  0  0  0  0  0  0  0  0  0  0
   37.7800   25.0200   38.8190 F   0  0  0  0  0  0  0  0  0  0  0  0
  1  6  1  0  0  0  0
  2  3  1  0  0  0  0
  2  1  2  0  0  0  0
  3  4  2  0  0  0  0
  4  5  1  0  0  0  0
  5 17  1  0  0  0  0
  6  5  2  0  0  0  0
  7  1  1  0  0  0  0
  8  2  1  0  0  0  0
  9 10  1  0  0  0  0
  9  3  1  0  0  0  0
 10 11  1  0  0  0  0
 12 13  1  0  0  0  0
 12 10  1  0  0  0  0
 14 12  1  0  0  0  0
 15 14  1  0  0  0  0
 15 16  1  0  0  0  0
 16  9  1  0  0  0  0
 17 20  1  0  0  0  0
 17 18  1  0  0  0  0
 17 19  1  0  0  0  0
M  END
>  <minimizedAffinity>
-4.73217869

$$$$

 OpenBabel03272510033D

 20 21  0  0  0  0  0  0  0  0999 V2000
   40.0350   22.8350   35.4200 C   0  0  0  0  0  0  0  0  0  0  0  0
   39.4610   23.6830   34.4630 C   0  0  0  0  0  0  0  0  0  0  0  0
   38.4840   24.5790   34.8760 C   0  0  0  0  0  0  0  0  0  0  0  0
   38.1350   24.5810   36.1970 N   0  0  0  0  0  0  0  0  0  0  0  0
   38.7010   23.7550   37.0970 C   0  0  0  0  0  0  0  0  0  0  0  0
   39.6400   22.8950   36.7000 N   0  0  0  0  0  0  0  0  0  0  0  0
   40.7890   22.1620   35.0360 H   0  0  0  0  0  0  0  0  0  0  0  0
   39.7350   23.6810   33.4230 H   0  0  0  0  0  0  0  0  0  0  0  0
   37.8170   25.4960   34.0220 N   0  0  0  0  0  0  0  0  0  0  0  0
   37.8210   25.3660   32.5620 C   0  0  0  0  0  3  0  0  0  0  0  0
   38.6890   25.8770   32.1450 H   0  0  0  0  0  0  0  0  0  0  0  0
   36.5190   26.0130   32.1100 C   0  0  0  0  0  3  0  0  0  0  0  0
   36.3070   25.8480   31.0340 H   0  0  0  0  0  0  0  0  0  0  0  0
   36.6170   27.3800   32.2960 O   0  0  0  0  0  0  0  0  0  0  0  0
   37.1140   27.7380   33.5310 C   0  0  0  0  0  2  0  0  0  0  0  0
   37.0880   26.6180   34.5380 C   0  0  0  0  0  2  0  0  0  0  0  0
   38.2560   23.8330   38.5090 C   0  0  0  0  0  0  0  0  0  0  0  0
   37.6920   25.0540   38.8350 F   0  0  0  0  0  0  0  0  0  0  0  0
   37.3100   22.8570   38.7910 F   0  0  0  0  0  0  0  0  0  0  0  0
   39.2830   23.6210   39.4070 F   0  0  0  0  0  0  0  0  0  0  0  0
  1  6  1  0  0  0  0
  2  3  1  0  0  0  0
  2  1  2  0  0  0  0
  3  4  2  0  0  0  0
  4  5  1  0  0  0  0
  5 17  1  0  0  0  0
  6  5  2  0  0  0  0
  7  1  1  0  0  0  0
  8  2  1  0  0  0  0
  9 16  1  0  0  0  0
  9  3  1  0  0  0  0
 10  9  1  0  0  0  0
 11 10  1  0  0  0  0
 12 14  1  0  0  0  0
 12 10  1  0  0  0  0
 13 12  1  0  0  0  0
 14 15  1  0  0  0  0
 15 16  1  0  0  0  0
 17 19  1  0  0  0  0
 17 18  1  0  0  0  0
 17 20  1  0  0  0  0
M  END
>  <minimizedAffinity>
-4.64150953

$$$$

 OpenBabel03272510033D

 20 21  0  0  0  0  0  0  0  0999 V2000
   37.8490   22.3500   34.9320 C   0  0  0  0  0  0  0  0  0  0  0  0
   38.4830   23.3180   34.1420 C   0  0  0  0  0  0  0  0  0  0  0  0
   39.0410   24.4230   34.7710 C   0  0  0  0  0  0  0  0  0  0  0  0
   38.9380   24.5050   36.1300 N   0  0  0  0  0  0  0  0  0  0  0  0
   38.3230   23.5610   36.8680 C   0  0  0  0  0  0  0  0  0  0  0  0
   37.7870   22.5000   36.2640 N   0  0  0  0  0  0  0  0  0  0  0  0
   37.4360   21.5140   34.3840 H   0  0  0  0  0  0  0  0  0  0  0  0
   38.5640   23.2540   33.0710 H   0  0  0  0  0  0  0  0  0  0  0  0
   39.7120   25.4790   34.1010 N   0  0  0  0  0  0  0  0  0  0  0  0
   39.7240   25.6110   32.6410 C   0  0  0  0  0  3  0  0  0  0  0  0
   40.5590   25.0480   32.2230 H   0  0  0  0  0  0  0  0  0  0  0  0
   39.8710   27.1050   32.3860 C   0  0  0  0  0  3  0  0  0  0  0  0
   39.7360   27.3760   31.3200 H   0  0  0  0  0  0  0  0  0  0  0  0
   41.1520   27.4890   32.7390 O   0  0  0  0  0  0  0  0  0  0  0  0
   41.5590   27.0060   33.9640 C   0  0  0  0  0  2  0  0  0  0  0  0
   40.4270   26.4960   34.8160 C   0  0  0  0  0  2  0  0  0  0  0  0
   38.2620   23.7400   38.3390 C   0  0  0  0  0  0  0  0  0  0  0  0
   37.9140   25.0240   38.7170 F   0  0  0  0  0  0  0  0  0  0  0  0
   37.3360   22.8790   38.9110 F   0  0  0  0  0  0  0  0  0  0  0  0
   39.4620   23.4570   38.9620 F   0  0  0  0  0  0  0  0  0  0  0  0
  1  6  1  0  0  0  0
  2  3  1  0  0  0  0
  2  1  2  0  0  0  0
  3  4  2  0  0  0  0
  4  5  1  0  0  0  0
  5 17  1  0  0  0  0
  6  5  2  0  0  0  0
  7  1  1  0  0  0  0
  8  2  1  0  0  0  0
  9  3  1  0  0  0  0
  9 16  1  0  0  0  0
 10  9  1  0  0  0  0
 11 10  1  0  0  0  0
 12 10  1  0  0  0  0
 12 14  1  0  0  0  0
 13 12  1  0  0  0  0
 14 15  1  0  0  0  0
 15 16  1  0  0  0  0
 17 18  1  0  0  0  0
 17 19  1  0  0  0  0
 17 20  1  0  0  0  0
M  END
>  <minimizedAffinity>
-4.52096272

$$$$

 OpenBabel03272510033D

 20 21  0  0  0  0  0  0  0  0999 V2000
   40.7830   22.0960   36.0160 C   0  0  0  0  0  0  0  0  0  0  0  0
   40.0800   22.1270   34.8040 C   0  0  0  0  0  0  0  0  0  0  0  0
   38.8080   22.6850   34.7930 C   0  0  0  0  0  0  0  0  0  0  0  0
   38.3120   23.1720   35.9680 N   0  0  0  0  0  0  0  0  0  0  0  0
   39.0080   23.1300   37.1200 C   0  0  0  0  0  0  0  0  0  0  0  0
   40.2290   22.5950   37.1320 N   0  0  0  0  0  0  0  0  0  0  0  0
   41.7670   21.6500   35.9590 H   0  0  0  0  0  0  0  0  0  0  0  0
   40.4700   21.7420   33.8780 H   0  0  0  0  0  0  0  0  0  0  0  0
   37.9810   22.7850   33.6430 N   0  0  0  0  0  0  0  0  0  0  0  0
   37.6440   24.0670   33.0180 C   0  0  0  0  0  3  0  0  0  0  0  0
   36.7510   24.4850   33.4830 H   0  0  0  0  0  0  0  0  0  0  0  0
   37.4090   23.7360   31.5510 C   0  0  0  0  0  3  0  0  0  0  0  0
   37.3000   24.6380   30.9170 H   0  0  0  0  0  0  0  0  0  0  0  0
   36.2290   23.0230   31.4430 O   0  0  0  0  0  0  0  0  0  0  0  0
   36.1140   21.9970   32.3560 C   0  0  0  0  0  2  0  0  0  0  0  0
   37.4180   21.6270   33.0120 C   0  0  0  0  0  2  0  0  0  0  0  0
   38.3840   23.6860   38.3450 C   0  0  0  0  0  0  0  0  0  0  0  0
   37.9280   24.9820   38.1830 F   0  0  0  0  0  0  0  0  0  0  0  0
   37.3010   22.9180   38.7500 F   0  0  0  0  0  0  0  0  0  0  0  0
   39.2460   23.7030   39.4240 F   0  0  0  0  0  0  0  0  0  0  0  0
  1  6  1  0  0  0  0
  2  1  2  0  0  0  0
  3  2  1  0  0  0  0
  3  4  2  0  0  0  0
  4  5  1  0  0  0  0
  5  6  2  0  0  0  0
  5 17  1  0  0  0  0
  7  1  1  0  0  0  0
  8  2  1  0  0  0  0
  9  3  1  0  0  0  0
 10 11  1  0  0  0  0
 10  9  1  0  0  0  0
 12 10  1  0  0  0  0
 13 12  1  0  0  0  0
 14 12  1  0  0  0  0
 14 15  1  0  0  0  0
 15 16  1  0  0  0  0
 16  9  1  0  0  0  0
 17 19  1  0  0  0  0
 17 20  1  0  0  0  0
 18 17  1  0  0  0  0
M  END
>  <minimizedAffinity>
-4.46254492

$$$$

 OpenBabel03272510033D

 20 21  0  0  0  0  0  0  0  0999 V2000
   38.1530   25.8820   35.2070 C   0  0  0  0  0  0  0  0  0  0  0  0
   38.1150   24.8880   34.2200 C   0  0  0  0  0  0  0  0  0  0  0  0
   38.1020   23.5590   34.6220 C   0  0  0  0  0  0  0  0  0  0  0  0
   38.1270   23.2950   35.9620 N   0  0  0  0  0  0  0  0  0  0  0  0
   38.1640   24.2680   36.8910 C   0  0  0  0  0  0  0  0  0  0  0  0
   38.1770   25.5450   36.5050 N   0  0  0  0  0  0  0  0  0  0  0  0
   38.1610   26.8960   34.8310 H   0  0  0  0  0  0  0  0  0  0  0  0
   38.0960   25.0950   33.1650 H   0  0  0  0  0  0  0  0  0  0  0  0
   38.0640   22.4490   33.7380 N   0  0  0  0  0  0  0  0  0  0  0  0
   39.0600   22.2430   32.6820 C   0  0  0  0  0  3  0  0  0  0  0  0
   38.7510   22.7570   31.7720 H   0  0  0  0  0  0  0  0  0  0  0  0
   39.1110   20.7340   32.4830 C   0  0  0  0  0  3  0  0  0  0  0  0
   39.9410   20.4140   31.8220 H   0  0  0  0  0  0  0  0  0  0  0  0
   37.9350   20.3280   31.8780 O   0  0  0  0  0  0  0  0  0  0  0  0
   36.8020   20.8600   32.4550 C   0  0  0  0  0  2  0  0  0  0  0  0
   37.0410   21.4480   33.8210 C   0  0  0  0  0  2  0  0  0  0  0  0
   38.1900   23.8820   38.3220 C   0  0  0  0  0  0  0  0  0  0  0  0
   39.4270   23.4240   38.7390 F   0  0  0  0  0  0  0  0  0  0  0  0
   37.8530   24.9530   39.1380 F   0  0  0  0  0  0  0  0  0  0  0  0
   37.2790   22.8890   38.6250 F   0  0  0  0  0  0  0  0  0  0  0  0
  1  6  1  0  0  0  0
  2  3  1  0  0  0  0
  2  1  2  0  0  0  0
  3  4  2  0  0  0  0
  4  5  1  0  0  0  0
  5 17  1  0  0  0  0
  6  5  2  0  0  0  0
  7  1  1  0  0  0  0
  8  2  1  0  0  0  0
  9 16  1  0  0  0  0
  9  3  1  0  0  0  0
 10  9  1  0  0  0  0
 11 10  1  0  0  0  0
 12 10  1  0  0  0  0
 13 12  1  0  0  0  0
 14 15  1  0  0  0  0
 14 12  1  0  0  0  0
 15 16  1  0  0  0  0
 17 20  1  0  0  0  0
 17 18  1  0  0  0  0
 17 19  1  0  0  0  0
M  END
>  <minimizedAffinity>
-4.44785166

$$$$

 OpenBabel03272510033D

 20 21  0  0  0  0  0  0  0  0999 V2000
   37.3180   23.5310   32.2230 C   0  0  0  0  0  0  0  0  0  0  0  0
   37.9950   23.7690   33.4270 C   0  0  0  0  0  0  0  0  0  0  0  0
   37.8900   22.8280   34.4410 C   0  0  0  0  0  0  0  0  0  0  0  0
   37.1280   21.7190   34.2090 N   0  0  0  0  0  0  0  0  0  0  0  0
   36.4850   21.5130   33.0440 C   0  0  0  0  0  0  0  0  0  0  0  0
   36.5860   22.4170   32.0690 N   0  0  0  0  0  0  0  0  0  0  0  0
   37.4400   24.3010   31.4730 H   0  0  0  0  0  0  0  0  0  0  0  0
   38.5960   24.6430   33.6100 H   0  0  0  0  0  0  0  0  0  0  0  0
   38.5190   22.9340   35.7090 N   0  0  0  0  0  0  0  0  0  0  0  0
   39.6180   22.0580   36.1260 C   0  0  0  0  0  3  0  0  0  0  0  0
   39.2200   21.1560   36.5920 H   0  0  0  0  0  0  0  0  0  0  0  0
   40.4270   22.8890   37.1120 C   0  0  0  0  0  3  0  0  0  0  0  0
   41.3870   22.4100   37.3930 H   0  0  0  0  0  0  0  0  0  0  0  0
   39.6930   23.0330   38.2750 O   0  0  0  0  0  0  0  0  0  0  0  0
   38.3800   23.3930   38.0620 C   0  0  0  0  0  2  0  0  0  0  0  0
   38.1170   23.9160   36.6740 C   0  0  0  0  0  2  0  0  0  0  0  0
   35.6810   20.2770   32.8860 C   0  0  0  0  0  0  0  0  0  0  0  0
   36.2970   19.3260   32.0910 F   0  0  0  0  0  0  0  0  0  0  0  0
   35.4290   19.6820   34.1140 F   0  0  0  0  0  0  0  0  0  0  0  0
   34.4400   20.5130   32.3290 F   0  0  0  0  0  0  0  0  0  0  0  0
  1  2  1  0  0  0  0
  2  8  1  0  0  0  0
  2  3  2  0  0  0  0
  3  9  1  0  0  0  0
  4  3  1  0  0  0  0
  5  4  2  0  0  0  0
  6  1  2  0  0  0  0
  6  5  1  0  0  0  0
  7  1  1  0  0  0  0
  9 10  1  0  0  0  0
  9 16  1  0  0  0  0
 10 11  1  0  0  0  0
 10 12  1  0  0  0  0
 12 13  1  0  0  0  0
 12 14  1  0  0  0  0
 15 14  1  0  0  0  0
 16 15  1  0  0  0  0
 17  5  1  0  0  0  0
 17 19  1  0  0  0  0
 18 17  1  0  0  0  0
 20 17  1  0  0  0  0
M  END
>  <minimizedAffinity>
-4.42393017

$$$$

 OpenBabel03272510033D

 20 21  0  0  0  0  0  0  0  0999 V2000
   38.4710   27.1420   35.6870 C   0  0  0  0  0  0  0  0  0  0  0  0
   38.1950   26.6000   34.4240 C   0  0  0  0  0  0  0  0  0  0  0  0
   37.8960   25.2470   34.3380 C   0  0  0  0  0  0  0  0  0  0  0  0
   37.8900   24.5180   35.4930 N   0  0  0  0  0  0  0  0  0  0  0  0
   38.1590   25.0620   36.6940 C   0  0  0  0  0  0  0  0  0  0  0  0
   38.4450   26.3620   36.7780 N   0  0  0  0  0  0  0  0  0  0  0  0
   38.6950   28.2000   35.6880 H   0  0  0  0  0  0  0  0  0  0  0  0
   38.2010   27.1740   33.5150 H   0  0  0  0  0  0  0  0  0  0  0  0
   37.5980   24.5620   33.1310 N   0  0  0  0  0  0  0  0  0  0  0  0
   36.8650   25.1870   32.0250 C   0  0  0  0  0  3  0  0  0  0  0  0
   35.7920   25.0500   32.1650 H   0  0  0  0  0  0  0  0  0  0  0  0
   37.3620   24.4740   30.7750 C   0  0  0  0  0  3  0  0  0  0  0  0
   37.0110   24.9520   29.8390 H   0  0  0  0  0  0  0  0  0  0  0  0
   36.8700   23.1820   30.7780 O   0  0  0  0  0  0  0  0  0  0  0  0
   37.0170   22.5330   31.9850 C   0  0  0  0  0  2  0  0  0  0  0  0
   37.9990   23.2030   32.9120 C   0  0  0  0  0  2  0  0  0  0  0  0
   38.1270   24.1880   37.8920 C   0  0  0  0  0  0  0  0  0  0  0  0
   37.8610   24.8780   39.0610 F   0  0  0  0  0  0  0  0  0  0  0  0
   37.1570   23.2030   37.7680 F   0  0  0  0  0  0  0  0  0  0  0  0
   39.3140   23.5120   38.0930 F   0  0  0  0  0  0  0  0  0  0  0  0
  1  7  1  0  0  0  0
  1  6  1  0  0  0  0
  2  1  2  0  0  0  0
  3  2  1  0  0  0  0
  3  4  2  0  0  0  0
  4  5  1  0  0  0  0
  5  6  2  0  0  0  0
  5 17  1  0  0  0  0
  8  2  1  0  0  0  0
  9  3  1  0  0  0  0
 10 11  1  0  0  0  0
 10  9  1  0  0  0  0
 12 14  1  0  0  0  0
 12 10  1  0  0  0  0
 13 12  1  0  0  0  0
 14 15  1  0  0  0  0
 15 16  1  0  0  0  0
 16  9  1  0  0  0  0
 17 20  1  0  0  0  0
 17 18  1  0  0  0  0
 19 17  1  0  0  0  0
M  END
>  <minimizedAffinity>
-4.40873623

$$$$

 OpenBabel03272510033D

 20 21  0  0  0  0  0  0  0  0999 V2000
   36.1250   23.3560   31.1500 C   0  0  0  0  0  0  0  0  0  0  0  0
   37.0100   23.7120   32.1770 C   0  0  0  0  0  0  0  0  0  0  0  0
   37.2440   22.7950   33.1930 C   0  0  0  0  0  0  0  0  0  0  0  0
   36.5960   21.5950   33.1350 N   0  0  0  0  0  0  0  0  0  0  0  0
   35.7500   21.2770   32.1380 C   0  0  0  0  0  0  0  0  0  0  0  0
   35.5240   22.1560   31.1610 N   0  0  0  0  0  0  0  0  0  0  0  0
   35.9850   24.1110   30.3890 H   0  0  0  0  0  0  0  0  0  0  0  0
   37.5200   24.6580   32.2240 H   0  0  0  0  0  0  0  0  0  0  0  0
   38.1120   23.0170   34.2950 N   0  0  0  0  0  0  0  0  0  0  0  0
   38.0840   22.1900   35.5050 C   0  0  0  0  0  3  0  0  0  0  0  0
   37.3620   22.5930   36.2160 H   0  0  0  0  0  0  0  0  0  0  0  0
   39.5030   22.2510   36.0530 C   0  0  0  0  0  3  0  0  0  0  0  0
   39.6750   21.5400   36.8850 H   0  0  0  0  0  0  0  0  0  0  0  0
   39.7290   23.5210   36.5540 O   0  0  0  0  0  0  0  0  0  0  0  0
   39.3250   24.5320   35.7090 C   0  0  0  0  0  2  0  0  0  0  0  0
   39.0820   24.0730   34.2950 C   0  0  0  0  0  2  0  0  0  0  0  0
   35.0930   19.9470   32.1620 C   0  0  0  0  0  0  0  0  0  0  0  0
   33.7320   20.0090   31.9200 F   0  0  0  0  0  0  0  0  0  0  0  0
   35.6410   19.1000   31.2090 F   0  0  0  0  0  0  0  0  0  0  0  0
   35.2500   19.2950   33.3690 F   0  0  0  0  0  0  0  0  0  0  0  0
  1  6  2  0  0  0  0
  1  2  1  0  0  0  0
  2  8  1  0  0  0  0
  2  3  2  0  0  0  0
  3  9  1  0  0  0  0
  4  3  1  0  0  0  0
  5 17  1  0  0  0  0
  5  4  2  0  0  0  0
  6  5  1  0  0  0  0
  7  1  1  0  0  0  0
  9 10  1  0  0  0  0
 10 12  1  0  0  0  0
 10 11  1  0  0  0  0
 12 14  1  0  0  0  0
 12 13  1  0  0  0  0
 15 14  1  0  0  0  0
 16  9  1  0  0  0  0
 16 15  1  0  0  0  0
 17 20  1  0  0  0  0
 18 17  1  0  0  0  0
 19 17  1  0  0  0  0
M  END
>  <minimizedAffinity>
-4.31031752

$$$$

 OpenBabel03272510033D

 20 21  0  0  0  0  0  0  0  0999 V2000
   37.4510   27.4470   33.1560 C   0  0  0  0  0  0  0  0  0  0  0  0
   37.9930   26.7700   34.2570 C   0  0  0  0  0  0  0  0  0  0  0  0
   37.8610   25.3890   34.3130 C   0  0  0  0  0  0  0  0  0  0  0  0
   37.2060   24.7660   33.2890 N   0  0  0  0  0  0  0  0  0  0  0  0
   36.6930   25.4400   32.2420 C   0  0  0  0  0  0  0  0  0  0  0  0
   36.8200   26.7660   32.1880 N   0  0  0  0  0  0  0  0  0  0  0  0
   37.5870   28.5200   33.1710 H   0  0  0  0  0  0  0  0  0  0  0  0
   38.5080   27.2600   35.0640 H   0  0  0  0  0  0  0  0  0  0  0  0
   38.3580   24.5730   35.3630 N   0  0  0  0  0  0  0  0  0  0  0  0
   38.1160   24.8680   36.7790 C   0  0  0  0  0  3  0  0  0  0  0  0
   38.8940   25.5310   37.1600 H   0  0  0  0  0  0  0  0  0  0  0  0
   38.1470   23.5120   37.4710 C   0  0  0  0  0  3  0  0  0  0  0  0
   37.8200   23.5600   38.5280 H   0  0  0  0  0  0  0  0  0  0  0  0
   39.4500   23.0470   37.4730 O   0  0  0  0  0  0  0  0  0  0  0  0
   40.0810   23.1570   36.2520 C   0  0  0  0  0  2  0  0  0  0  0  0
   39.1350   23.3960   35.1050 C   0  0  0  0  0  2  0  0  0  0  0  0
   36.0000   24.6740   31.1780 C   0  0  0  0  0  0  0  0  0  0  0  0
   35.1520   25.4550   30.4120 F   0  0  0  0  0  0  0  0  0  0  0  0
   36.9080   24.0840   30.3110 F   0  0  0  0  0  0  0  0  0  0  0  0
   35.2370   23.6360   31.6760 F   0  0  0  0  0  0  0  0  0  0  0  0
  1  7  1  0  0  0  0
  1  2  1  0  0  0  0
  2  3  2  0  0  0  0
  2  8  1  0  0  0  0
  3  9  1  0  0  0  0
  4  3  1  0  0  0  0
  5  4  2  0  0  0  0
  6  5  1  0  0  0  0
  6  1  2  0  0  0  0
  9 10  1  0  0  0  0
 10 11  1  0  0  0  0
 10 12  1  0  0  0  0
 12 14  1  0  0  0  0
 12 13  1  0  0  0  0
 15 14  1  0  0  0  0
 16  9  1  0  0  0  0
 16 15  1  0  0  0  0
 17 20  1  0  0  0  0
 17  5  1  0  0  0  0
 18 17  1  0  0  0  0
 19 17  1  0  0  0  0
M  END
>  <minimizedAffinity>
-4.26880312

$$$$
