
 OpenBabel03272508353D

 30 32  0  0  0  0  0  0  0  0999 V2000
   38.0460   25.4820   35.3610 C   0  0  0  0  0  0  0  0  0  0  0  0
   37.8580   26.8030   35.6740 C   0  0  0  0  0  0  0  0  0  0  0  0
   37.2910   27.4430   34.5820 C   0  0  0  0  0  0  0  0  0  0  0  0
   37.1570   26.4760   33.6420 N   0  0  0  0  0  0  0  0  0  0  0  0
   37.6100   25.3110   34.1130 N   0  0  0  0  0  0  0  0  0  0  0  0
   38.0920   27.3170   36.5980 H   0  0  0  0  0  0  0  0  0  0  0  0
   37.0280   28.4680   34.5210 H   0  0  0  0  0  0  0  0  0  0  0  0
   38.7320   23.3890   38.4090 C   0  0  0  0  0  0  0  0  0  0  0  0
   38.1100   24.3090   37.5750 C   0  0  0  0  0  0  0  0  0  0  0  0
   38.6220   24.5460   36.2960 C   0  0  0  0  0  0  0  0  0  0  0  0
   39.7240   23.8300   35.9680 N   0  0  0  0  0  0  0  0  0  0  0  0
   40.3150   22.9390   36.7940 C   0  0  0  0  0  0  0  0  0  0  0  0
   39.8120   22.7260   38.0100 N   0  0  0  0  0  0  0  0  0  0  0  0
   38.1910   23.3360   39.3680 H   0  0  0  0  0  0  0  0  0  0  0  0
   37.2290   24.8990   37.8060 H   0  0  0  0  0  0  0  0  0  0  0  0
   41.2000   22.3800   36.4920 H   0  0  0  0  0  0  0  0  0  0  0  0
   36.5900   26.7100   32.3070 C   0  0  0  0  0  0  0  0  0  0  0  0
   36.6030   27.8360   32.2200 H   0  0  0  0  0  0  0  0  0  0  0  0
   35.5740   26.3130   32.3350 H   0  0  0  0  0  0  0  0  0  0  0  0
   37.4900   26.1040   31.2770 C   0  0  0  0  0  0  0  0  0  0  0  0
   38.5060   25.9640   31.7170 H   0  0  0  0  0  0  0  0  0  0  0  0
   37.5920   26.8770   30.4610 H   0  0  0  0  0  0  0  0  0  0  0  0
   37.0090   24.9160   30.6640 N   0  0  0  0  0  0  0  0  0  0  0  0
   35.7160   24.4750   31.0150 C   0  0  0  0  0  3  0  0  0  0  0  0
   35.1440   24.3050   30.0550 H   0  0  0  0  0  0  0  0  0  0  0  0
   35.6790   23.1380   31.7170 C   0  0  0  0  0  3  0  0  0  0  0  0
   34.6320   22.7700   31.7260 H   0  0  0  0  0  0  0  0  0  0  0  0
   36.5280   22.2070   31.0810 O   0  0  0  0  0  0  0  0  0  0  0  0
   37.8180   22.7060   31.2590 C   0  0  0  0  0  2  0  0  0  0  0  0
   37.9650   23.9110   30.3780 C   0  0  0  0  0  2  0  0  0  0  0  0
  1  2  1  0  0  0  0
  1 10  1  0  0  0  0
  2  6  1  0  0  0  0
  3  2  2  0  0  0  0
  4  5  1  0  0  0  0
  4  3  1  0  0  0  0
  5  1  2  0  0  0  0
  7  3  1  0  0  0  0
  8 14  1  0  0  0  0
  9 15  1  0  0  0  0
  9  8  2  0  0  0  0
 10  9  1  0  0  0  0
 11 10  2  0  0  0  0
 11 12  1  0  0  0  0
 12 13  2  0  0  0  0
 13  8  1  0  0  0  0
 16 12  1  0  0  0  0
 17 19  1  0  0  0  0
 17  4  1  0  0  0  0
 18 17  1  0  0  0  0
 20 21  1  0  0  0  0
 20 17  1  0  0  0  0
 22 20  1  0  0  0  0
 23 24  1  0  0  0  0
 23 20  1  0  0  0  0
 24 26  1  0  0  0  0
 25 24  1  0  0  0  0
 26 27  1  0  0  0  0
 28 29  1  0  0  0  0
 28 26  1  0  0  0  0
 30 23  1  0  0  0  0
 30 29  1  0  0  0  0
M  END
>  <minimizedAffinity>
-4.70468998

$$$$

 OpenBabel03272508353D

 30 32  0  0  0  0  0  0  0  0999 V2000
   36.4090   25.8770   31.7390 C   0  0  0  0  0  0  0  0  0  0  0  0
   35.6890   24.9020   31.1000 C   0  0  0  0  0  0  0  0  0  0  0  0
   36.0680   23.6670   31.6010 C   0  0  0  0  0  0  0  0  0  0  0  0
   37.0130   23.9440   32.5340 N   0  0  0  0  0  0  0  0  0  0  0  0
   37.2100   25.2630   32.6090 N   0  0  0  0  0  0  0  0  0  0  0  0
   34.9380   25.0150   30.3270 H   0  0  0  0  0  0  0  0  0  0  0  0
   35.6870   22.7230   31.3030 H   0  0  0  0  0  0  0  0  0  0  0  0
   36.6420   29.2790   30.1520 C   0  0  0  0  0  0  0  0  0  0  0  0
   36.8620   27.9250   30.3660 C   0  0  0  0  0  0  0  0  0  0  0  0
   36.2400   27.2790   31.4370 C   0  0  0  0  0  0  0  0  0  0  0  0
   35.4440   28.0600   32.2050 N   0  0  0  0  0  0  0  0  0  0  0  0
   35.2410   29.3770   31.9820 C   0  0  0  0  0  0  0  0  0  0  0  0
   35.8440   29.9760   30.9550 N   0  0  0  0  0  0  0  0  0  0  0  0
   37.2120   29.6110   29.2690 H   0  0  0  0  0  0  0  0  0  0  0  0
   37.4930   27.2700   29.7730 H   0  0  0  0  0  0  0  0  0  0  0  0
   34.5920   29.9720   32.6220 H   0  0  0  0  0  0  0  0  0  0  0  0
   37.7000   22.9170   33.3290 C   0  0  0  0  0  0  0  0  0  0  0  0
   38.4440   22.4860   32.5970 H   0  0  0  0  0  0  0  0  0  0  0  0
   36.9360   22.1910   33.6110 H   0  0  0  0  0  0  0  0  0  0  0  0
   38.4160   23.5730   34.4670 C   0  0  0  0  0  0  0  0  0  0  0  0
   38.1170   24.6470   34.5160 H   0  0  0  0  0  0  0  0  0  0  0  0
   39.5110   23.5510   34.1970 H   0  0  0  0  0  0  0  0  0  0  0  0
   38.2870   22.9290   35.7260 N   0  0  0  0  0  0  0  0  0  0  0  0
   37.5170   23.5740   36.7170 C   0  0  0  0  0  3  0  0  0  0  0  0
   36.7640   22.8250   37.1020 H   0  0  0  0  0  0  0  0  0  0  0  0
   38.2940   23.9920   37.9420 C   0  0  0  0  0  3  0  0  0  0  0  0
   37.5760   24.2550   38.7460 H   0  0  0  0  0  0  0  0  0  0  0  0
   39.1610   22.9620   38.3690 O   0  0  0  0  0  0  0  0  0  0  0  0
   40.0950   22.8220   37.3420 C   0  0  0  0  0  2  0  0  0  0  0  0
   39.4010   22.1790   36.1790 C   0  0  0  0  0  2  0  0  0  0  0  0
  1  5  2  0  0  0  0
  2  3  2  0  0  0  0
  2  1  1  0  0  0  0
  3  4  1  0  0  0  0
  4  5  1  0  0  0  0
  4 17  1  0  0  0  0
  6  2  1  0  0  0  0
  7  3  1  0  0  0  0
  8  9  2  0  0  0  0
  8 13  1  0  0  0  0
  9 10  1  0  0  0  0
 10  1  1  0  0  0  0
 10 11  2  0  0  0  0
 12 11  1  0  0  0  0
 12 16  1  0  0  0  0
 13 12  2  0  0  0  0
 14  8  1  0  0  0  0
 15  9  1  0  0  0  0
 17 19  1  0  0  0  0
 17 20  1  0  0  0  0
 18 17  1  0  0  0  0
 20 21  1  0  0  0  0
 20 23  1  0  0  0  0
 22 20  1  0  0  0  0
 23 30  1  0  0  0  0
 23 24  1  0  0  0  0
 24 25  1  0  0  0  0
 24 26  1  0  0  0  0
 26 28  1  0  0  0  0
 26 27  1  0  0  0  0
 29 28  1  0  0  0  0
 30 29  1  0  0  0  0
M  END
>  <minimizedAffinity>
-4.57650423

$$$$

 OpenBabel03272508353D

 30 32  0  0  0  0  0  0  0  0999 V2000
   37.4140   21.9960   34.9760 C   0  0  0  0  0  0  0  0  0  0  0  0
   36.3980   21.0770   35.0100 C   0  0  0  0  0  0  0  0  0  0  0  0
   35.9350   20.8770   33.7190 C   0  0  0  0  0  0  0  0  0  0  0  0
   36.6960   21.6910   32.9460 N   0  0  0  0  0  0  0  0  0  0  0  0
   37.5730   22.3550   33.7030 N   0  0  0  0  0  0  0  0  0  0  0  0
   35.9840   20.5610   35.8670 H   0  0  0  0  0  0  0  0  0  0  0  0
   35.1540   20.2230   33.4250 H   0  0  0  0  0  0  0  0  0  0  0  0
   40.0600   22.6830   37.5590 C   0  0  0  0  0  0  0  0  0  0  0  0
   39.4780   22.2460   36.3770 C   0  0  0  0  0  0  0  0  0  0  0  0
   38.1070   22.4190   36.1700 C   0  0  0  0  0  0  0  0  0  0  0  0
   37.4370   23.0230   37.1810 N   0  0  0  0  0  0  0  0  0  0  0  0
   38.0210   23.4420   38.3250 C   0  0  0  0  0  0  0  0  0  0  0  0
   39.3300   23.2680   38.5040 N   0  0  0  0  0  0  0  0  0  0  0  0
   41.1400   22.4630   37.5430 H   0  0  0  0  0  0  0  0  0  0  0  0
   39.9830   21.7580   35.5490 H   0  0  0  0  0  0  0  0  0  0  0  0
   37.4480   23.9260   39.1150 H   0  0  0  0  0  0  0  0  0  0  0  0
   36.5490   21.8020   31.4880 C   0  0  0  0  0  0  0  0  0  0  0  0
   36.0120   20.8470   31.2140 H   0  0  0  0  0  0  0  0  0  0  0  0
   37.5610   21.8330   31.0830 H   0  0  0  0  0  0  0  0  0  0  0  0
   35.6910   22.9860   31.1690 C   0  0  0  0  0  0  0  0  0  0  0  0
   34.9640   23.1440   32.0000 H   0  0  0  0  0  0  0  0  0  0  0  0
   35.0890   22.6960   30.2590 H   0  0  0  0  0  0  0  0  0  0  0  0
   36.3890   24.1790   30.8400 N   0  0  0  0  0  0  0  0  0  0  0  0
   37.7430   24.0620   30.4600 C   0  0  0  0  0  3  0  0  0  0  0  0
   37.8680   24.6120   29.4810 H   0  0  0  0  0  0  0  0  0  0  0  0
   38.7170   24.7360   31.3970 C   0  0  0  0  0  3  0  0  0  0  0  0
   39.7040   24.8040   30.8960 H   0  0  0  0  0  0  0  0  0  0  0  0
   38.2590   26.0190   31.7700 O   0  0  0  0  0  0  0  0  0  0  0  0
   37.0970   25.7930   32.5090 C   0  0  0  0  0  2  0  0  0  0  0  0
   36.0300   25.3480   31.5540 C   0  0  0  0  0  2  0  0  0  0  0  0
  1  2  1  0  0  0  0
  1 10  1  0  0  0  0
  2  6  1  0  0  0  0
  3  2  2  0  0  0  0
  4  5  1  0  0  0  0
  4  3  1  0  0  0  0
  5  1  2  0  0  0  0
  7  3  1  0  0  0  0
  8 13  1  0  0  0  0
  9  8  2  0  0  0  0
 10  9  1  0  0  0  0
 10 11  2  0  0  0  0
 11 12  1  0  0  0  0
 12 13  2  0  0  0  0
 12 16  1  0  0  0  0
 14  8  1  0  0  0  0
 15  9  1  0  0  0  0
 17  4  1  0  0  0  0
 18 17  1  0  0  0  0
 19 17  1  0  0  0  0
 20 17  1  0  0  0  0
 20 21  1  0  0  0  0
 22 20  1  0  0  0  0
 23 20  1  0  0  0  0
 23 30  1  0  0  0  0
 24 23  1  0  0  0  0
 24 26  1  0  0  0  0
 25 24  1  0  0  0  0
 26 28  1  0  0  0  0
 27 26  1  0  0  0  0
 28 29  1  0  0  0  0
 30 29  1  0  0  0  0
M  END
>  <minimizedAffinity>
-4.54695463

$$$$

 OpenBabel03272508353D

 30 32  0  0  0  0  0  0  0  0999 V2000
   36.2430   23.5080   31.8510 C   0  0  0  0  0  0  0  0  0  0  0  0
   35.5530   24.4430   31.1240 C   0  0  0  0  0  0  0  0  0  0  0  0
   35.9590   25.7060   31.5250 C   0  0  0  0  0  0  0  0  0  0  0  0
   36.8870   25.4860   32.4880 N   0  0  0  0  0  0  0  0  0  0  0  0
   37.0500   24.1740   32.6770 N   0  0  0  0  0  0  0  0  0  0  0  0
   34.8070   24.2830   30.3560 H   0  0  0  0  0  0  0  0  0  0  0  0
   35.6050   26.6310   31.1450 H   0  0  0  0  0  0  0  0  0  0  0  0
   34.8970   20.0010   32.0270 C   0  0  0  0  0  0  0  0  0  0  0  0
   35.0110   21.3640   32.2630 C   0  0  0  0  0  0  0  0  0  0  0  0
   36.0440   22.0910   31.6650 C   0  0  0  0  0  0  0  0  0  0  0  0
   36.8770   21.3730   30.8740 N   0  0  0  0  0  0  0  0  0  0  0  0
   36.7500   20.0460   30.6560 C   0  0  0  0  0  0  0  0  0  0  0  0
   35.7590   19.3710   31.2360 N   0  0  0  0  0  0  0  0  0  0  0  0
   34.0300   19.6020   32.5790 H   0  0  0  0  0  0  0  0  0  0  0  0
   34.3630   21.9690   32.8900 H   0  0  0  0  0  0  0  0  0  0  0  0
   37.4420   19.5040   30.0120 H   0  0  0  0  0  0  0  0  0  0  0  0
   37.5930   26.5600   33.2010 C   0  0  0  0  0  0  0  0  0  0  0  0
   37.1560   27.4960   32.7460 H   0  0  0  0  0  0  0  0  0  0  0  0
   38.6500   26.4410   32.9580 H   0  0  0  0  0  0  0  0  0  0  0  0
   37.2550   26.4890   34.6570 C   0  0  0  0  0  0  0  0  0  0  0  0
   36.2970   25.9300   34.7820 H   0  0  0  0  0  0  0  0  0  0  0  0
   37.0590   27.5510   34.9820 H   0  0  0  0  0  0  0  0  0  0  0  0
   38.2790   25.9800   35.5010 N   0  0  0  0  0  0  0  0  0  0  0  0
   39.5930   25.9450   34.9880 C   0  0  0  0  0  3  0  0  0  0  0  0
   40.2640   26.4530   35.7420 H   0  0  0  0  0  0  0  0  0  0  0  0
   40.1720   24.5580   34.8430 C   0  0  0  0  0  3  0  0  0  0  0  0
   41.2650   24.6440   34.6770 H   0  0  0  0  0  0  0  0  0  0  0  0
   39.9040   23.7730   35.9860 O   0  0  0  0  0  0  0  0  0  0  0  0
   38.5170   23.6180   36.0070 C   0  0  0  0  0  2  0  0  0  0  0  0
   37.9180   24.9380   36.3900 C   0  0  0  0  0  2  0  0  0  0  0  0
  1  5  2  0  0  0  0
  2  3  2  0  0  0  0
  2  1  1  0  0  0  0
  3  4  1  0  0  0  0
  4  5  1  0  0  0  0
  4 17  1  0  0  0  0
  6  2  1  0  0  0  0
  7  3  1  0  0  0  0
  8  9  1  0  0  0  0
  8 14  1  0  0  0  0
  9 15  1  0  0  0  0
 10  1  1  0  0  0  0
 10  9  2  0  0  0  0
 11 10  1  0  0  0  0
 12 11  2  0  0  0  0
 12 13  1  0  0  0  0
 13  8  2  0  0  0  0
 16 12  1  0  0  0  0
 17 20  1  0  0  0  0
 18 17  1  0  0  0  0
 19 17  1  0  0  0  0
 20 21  1  0  0  0  0
 20 22  1  0  0  0  0
 20 23  1  0  0  0  0
 23 30  1  0  0  0  0
 24 23  1  0  0  0  0
 24 25  1  0  0  0  0
 26 24  1  0  0  0  0
 26 28  1  0  0  0  0
 27 26  1  0  0  0  0
 28 29  1  0  0  0  0
 29 30  1  0  0  0  0
M  END
>  <minimizedAffinity>
-4.5299201

$$$$

 OpenBabel03272508353D

 30 32  0  0  0  0  0  0  0  0999 V2000
   37.2300   27.3790   34.0730 C   0  0  0  0  0  0  0  0  0  0  0  0
   37.8000   27.5320   35.3100 C   0  0  0  0  0  0  0  0  0  0  0  0
   38.5820   26.4200   35.5800 C   0  0  0  0  0  0  0  0  0  0  0  0
   38.4540   25.6290   34.4870 N   0  0  0  0  0  0  0  0  0  0  0  0
   37.6470   26.2070   33.5940 N   0  0  0  0  0  0  0  0  0  0  0  0
   37.6950   28.3570   36.0030 H   0  0  0  0  0  0  0  0  0  0  0  0
   39.1490   26.2490   36.4600 H   0  0  0  0  0  0  0  0  0  0  0  0
   34.6560   30.0820   33.6130 C   0  0  0  0  0  0  0  0  0  0  0  0
   35.4610   29.1460   34.2490 C   0  0  0  0  0  0  0  0  0  0  0  0
   36.3560   28.3750   33.5020 C   0  0  0  0  0  0  0  0  0  0  0  0
   36.3610   28.6180   32.1690 N   0  0  0  0  0  0  0  0  0  0  0  0
   35.5710   29.5340   31.5680 C   0  0  0  0  0  0  0  0  0  0  0  0
   34.7230   30.2590   32.2980 N   0  0  0  0  0  0  0  0  0  0  0  0
   34.0200   30.5890   34.3570 H   0  0  0  0  0  0  0  0  0  0  0  0
   35.4810   28.9250   35.3110 H   0  0  0  0  0  0  0  0  0  0  0  0
   35.6050   29.7010   30.4920 H   0  0  0  0  0  0  0  0  0  0  0  0
   39.1230   24.3280   34.3390 C   0  0  0  0  0  0  0  0  0  0  0  0
   39.9190   24.3600   35.1380 H   0  0  0  0  0  0  0  0  0  0  0  0
   39.5500   24.3200   33.3350 H   0  0  0  0  0  0  0  0  0  0  0  0
   38.1430   23.2360   34.6310 C   0  0  0  0  0  0  0  0  0  0  0  0
   38.1680   22.4910   33.8000 H   0  0  0  0  0  0  0  0  0  0  0  0
   37.1240   23.7190   34.6070 H   0  0  0  0  0  0  0  0  0  0  0  0
   38.2770   22.6160   35.9020 N   0  0  0  0  0  0  0  0  0  0  0  0
   37.4760   23.1030   36.9570 C   0  0  0  0  0  3  0  0  0  0  0  0
   36.9480   22.2170   37.4180 H   0  0  0  0  0  0  0  0  0  0  0  0
   38.2490   23.7180   38.0990 C   0  0  0  0  0  3  0  0  0  0  0  0
   37.5670   23.8390   38.9660 H   0  0  0  0  0  0  0  0  0  0  0  0
   39.3590   22.9180   38.4490 O   0  0  0  0  0  0  0  0  0  0  0  0
   40.2030   22.9590   37.3390 C   0  0  0  0  0  2  0  0  0  0  0  0
   39.5660   22.1440   36.2530 C   0  0  0  0  0  2  0  0  0  0  0  0
  1  2  1  0  0  0  0
  2  3  2  0  0  0  0
  2  6  1  0  0  0  0
  3  7  1  0  0  0  0
  4  3  1  0  0  0  0
  5  1  2  0  0  0  0
  5  4  1  0  0  0  0
  8  9  1  0  0  0  0
  8 14  1  0  0  0  0
  9 15  1  0  0  0  0
 10  1  1  0  0  0  0
 10  9  2  0  0  0  0
 11 10  1  0  0  0  0
 12 11  2  0  0  0  0
 12 13  1  0  0  0  0
 13  8  2  0  0  0  0
 16 12  1  0  0  0  0
 17  4  1  0  0  0  0
 17 20  1  0  0  0  0
 17 18  1  0  0  0  0
 19 17  1  0  0  0  0
 20 23  1  0  0  0  0
 21 20  1  0  0  0  0
 22 20  1  0  0  0  0
 23 30  1  0  0  0  0
 23 24  1  0  0  0  0
 24 25  1  0  0  0  0
 24 26  1  0  0  0  0
 26 28  1  0  0  0  0
 26 27  1  0  0  0  0
 29 28  1  0  0  0  0
 30 29  1  0  0  0  0
M  END
>  <minimizedAffinity>
-4.50535393

$$$$

 OpenBabel03272508353D

 30 32  0  0  0  0  0  0  0  0999 V2000
   38.2160   23.7810   34.4730 C   0  0  0  0  0  0  0  0  0  0  0  0
   38.2470   25.0180   33.8850 C   0  0  0  0  0  0  0  0  0  0  0  0
   37.9060   24.8850   32.5480 C   0  0  0  0  0  0  0  0  0  0  0  0
   37.6800   23.5590   32.3760 N   0  0  0  0  0  0  0  0  0  0  0  0
   37.8680   22.9090   33.5270 N   0  0  0  0  0  0  0  0  0  0  0  0
   38.4890   25.9730   34.3360 H   0  0  0  0  0  0  0  0  0  0  0  0
   37.8420   25.6660   31.8340 H   0  0  0  0  0  0  0  0  0  0  0  0
   39.8880   22.7960   37.6950 C   0  0  0  0  0  0  0  0  0  0  0  0
   39.6740   22.9390   36.3300 C   0  0  0  0  0  0  0  0  0  0  0  0
   38.5250   23.5870   35.8700 C   0  0  0  0  0  0  0  0  0  0  0  0
   37.6860   24.0380   36.8320 N   0  0  0  0  0  0  0  0  0  0  0  0
   37.9110   23.8910   38.1560 C   0  0  0  0  0  0  0  0  0  0  0  0
   39.0130   23.2700   38.5760 N   0  0  0  0  0  0  0  0  0  0  0  0
   40.8380   22.2640   37.8660 H   0  0  0  0  0  0  0  0  0  0  0  0
   40.3230   22.5890   35.5340 H   0  0  0  0  0  0  0  0  0  0  0  0
   37.2120   24.2690   38.9010 H   0  0  0  0  0  0  0  0  0  0  0  0
   37.2870   22.9580   31.0940 C   0  0  0  0  0  0  0  0  0  0  0  0
   37.8740   21.9940   31.0750 H   0  0  0  0  0  0  0  0  0  0  0  0
   37.6160   23.6540   30.3200 H   0  0  0  0  0  0  0  0  0  0  0  0
   35.8190   22.6670   31.1170 C   0  0  0  0  0  0  0  0  0  0  0  0
   35.3440   23.1170   30.2130 H   0  0  0  0  0  0  0  0  0  0  0  0
   35.4080   23.2190   32.0110 H   0  0  0  0  0  0  0  0  0  0  0  0
   35.4670   21.3000   31.2770 N   0  0  0  0  0  0  0  0  0  0  0  0
   34.8030   20.9290   32.4660 C   0  0  0  0  0  3  0  0  0  0  0  0
   33.8760   20.3540   32.1700 H   0  0  0  0  0  0  0  0  0  0  0  0
   35.5750   19.9740   33.3430 C   0  0  0  0  0  3  0  0  0  0  0  0
   34.8860   19.5560   34.1060 H   0  0  0  0  0  0  0  0  0  0  0  0
   36.1560   18.9380   32.5790 O   0  0  0  0  0  0  0  0  0  0  0  0
   37.0970   19.5680   31.7640 C   0  0  0  0  0  2  0  0  0  0  0  0
   36.3490   20.3420   30.7190 C   0  0  0  0  0  2  0  0  0  0  0  0
  1 10  1  0  0  0  0
  2  6  1  0  0  0  0
  2  1  1  0  0  0  0
  3  2  2  0  0  0  0
  4  3  1  0  0  0  0
  4  5  1  0  0  0  0
  5  1  2  0  0  0  0
  7  3  1  0  0  0  0
  8 14  1  0  0  0  0
  8 13  1  0  0  0  0
  9  8  2  0  0  0  0
 10  9  1  0  0  0  0
 10 11  2  0  0  0  0
 11 12  1  0  0  0  0
 12 13  2  0  0  0  0
 12 16  1  0  0  0  0
 15  9  1  0  0  0  0
 17 20  1  0  0  0  0
 17  4  1  0  0  0  0
 18 17  1  0  0  0  0
 19 17  1  0  0  0  0
 20 23  1  0  0  0  0
 20 22  1  0  0  0  0
 21 20  1  0  0  0  0
 23 24  1  0  0  0  0
 24 26  1  0  0  0  0
 25 24  1  0  0  0  0
 26 27  1  0  0  0  0
 28 26  1  0  0  0  0
 29 28  1  0  0  0  0
 30 23  1  0  0  0  0
 30 29  1  0  0  0  0
M  END
>  <minimizedAffinity>
-4.49265432

$$$$

 OpenBabel03272508353D

 30 32  0  0  0  0  0  0  0  0999 V2000
   37.7950   25.5570   34.8600 C   0  0  0  0  0  0  0  0  0  0  0  0
   37.8430   25.2030   33.5370 C   0  0  0  0  0  0  0  0  0  0  0  0
   37.2770   26.2190   32.7840 C   0  0  0  0  0  0  0  0  0  0  0  0
   36.9040   27.1580   33.6880 N   0  0  0  0  0  0  0  0  0  0  0  0
   37.2160   26.7550   34.9220 N   0  0  0  0  0  0  0  0  0  0  0  0
   38.2420   24.2980   33.0950 H   0  0  0  0  0  0  0  0  0  0  0  0
   37.1710   26.2350   31.7290 H   0  0  0  0  0  0  0  0  0  0  0  0
   39.8400   23.0700   36.8040 C   0  0  0  0  0  0  0  0  0  0  0  0
   39.4150   23.8600   35.7450 C   0  0  0  0  0  0  0  0  0  0  0  0
   38.3110   24.7020   35.9030 C   0  0  0  0  0  0  0  0  0  0  0  0
   37.7280   24.6740   37.1250 N   0  0  0  0  0  0  0  0  0  0  0  0
   38.1570   23.8990   38.1450 C   0  0  0  0  0  0  0  0  0  0  0  0
   39.2120   23.1020   37.9750 N   0  0  0  0  0  0  0  0  0  0  0  0
   40.7170   22.4780   36.4950 H   0  0  0  0  0  0  0  0  0  0  0  0
   39.8560   23.9060   34.7540 H   0  0  0  0  0  0  0  0  0  0  0  0
   37.6610   23.9050   39.1150 H   0  0  0  0  0  0  0  0  0  0  0  0
   36.2540   28.4250   33.3260 C   0  0  0  0  0  0  0  0  0  0  0  0
   35.4420   28.0990   32.6130 H   0  0  0  0  0  0  0  0  0  0  0  0
   37.0170   29.0270   32.8310 H   0  0  0  0  0  0  0  0  0  0  0  0
   35.6490   29.0340   34.5520 C   0  0  0  0  0  0  0  0  0  0  0  0
   36.1670   28.6320   35.4540 H   0  0  0  0  0  0  0  0  0  0  0  0
   34.5850   28.6590   34.5910 H   0  0  0  0  0  0  0  0  0  0  0  0
   35.5870   30.4540   34.5650 N   0  0  0  0  0  0  0  0  0  0  0  0
   36.0740   31.1200   35.7100 C   0  0  0  0  0  3  0  0  0  0  0  0
   36.8070   31.9050   35.3580 H   0  0  0  0  0  0  0  0  0  0  0  0
   35.0300   31.8950   36.4770 C   0  0  0  0  0  3  0  0  0  0  0  0
   35.5420   32.5700   37.1930 H   0  0  0  0  0  0  0  0  0  0  0  0
   34.2030   32.6350   35.6030 O   0  0  0  0  0  0  0  0  0  0  0  0
   33.5120   31.6800   34.8570 C   0  0  0  0  0  2  0  0  0  0  0  0
   34.4870   31.0530   33.9040 C   0  0  0  0  0  2  0  0  0  0  0  0
  1  5  2  0  0  0  0
  1 10  1  0  0  0  0
  2  1  1  0  0  0  0
  3  2  2  0  0  0  0
  3  4  1  0  0  0  0
  4  5  1  0  0  0  0
  6  2  1  0  0  0  0
  7  3  1  0  0  0  0
  8 13  1  0  0  0  0
  9 10  1  0  0  0  0
  9  8  2  0  0  0  0
 10 11  2  0  0  0  0
 11 12  1  0  0  0  0
 12 16  1  0  0  0  0
 13 12  2  0  0  0  0
 14  8  1  0  0  0  0
 15  9  1  0  0  0  0
 17  4  1  0  0  0  0
 17 20  1  0  0  0  0
 18 17  1  0  0  0  0
 19 17  1  0  0  0  0
 20 23  1  0  0  0  0
 20 22  1  0  0  0  0
 20 21  1  0  0  0  0
 23 24  1  0  0  0  0
 24 26  1  0  0  0  0
 25 24  1  0  0  0  0
 26 27  1  0  0  0  0
 28 26  1  0  0  0  0
 29 28  1  0  0  0  0
 30 23  1  0  0  0  0
 30 29  1  0  0  0  0
M  END
>  <minimizedAffinity>
-4.45996904

$$$$

 OpenBabel03272508353D

 30 32  0  0  0  0  0  0  0  0999 V2000
   36.1730   23.4540   31.2030 C   0  0  0  0  0  0  0  0  0  0  0  0
   35.1260   24.3390   31.2140 C   0  0  0  0  0  0  0  0  0  0  0  0
   35.6290   25.6230   31.0770 C   0  0  0  0  0  0  0  0  0  0  0  0
   36.9720   25.4650   30.9880 N   0  0  0  0  0  0  0  0  0  0  0  0
   37.2880   24.1700   31.0650 N   0  0  0  0  0  0  0  0  0  0  0  0
   34.0680   24.1310   31.3100 H   0  0  0  0  0  0  0  0  0  0  0  0
   35.0640   26.5200   31.0490 H   0  0  0  0  0  0  0  0  0  0  0  0
   36.5040   19.7220   30.8670 C   0  0  0  0  0  0  0  0  0  0  0  0
   36.7690   21.0730   30.6900 C   0  0  0  0  0  0  0  0  0  0  0  0
   35.9740   22.0290   31.3280 C   0  0  0  0  0  0  0  0  0  0  0  0
   34.9730   21.5350   32.0950 N   0  0  0  0  0  0  0  0  0  0  0  0
   34.7300   20.2160   32.2550 C   0  0  0  0  0  0  0  0  0  0  0  0
   35.4990   19.3200   31.6380 N   0  0  0  0  0  0  0  0  0  0  0  0
   37.2290   19.1240   30.2910 H   0  0  0  0  0  0  0  0  0  0  0  0
   37.5600   21.5030   30.0830 H   0  0  0  0  0  0  0  0  0  0  0  0
   33.9140   19.8570   32.8820 H   0  0  0  0  0  0  0  0  0  0  0  0
   37.9160   26.5800   30.8290 C   0  0  0  0  0  0  0  0  0  0  0  0
   37.4690   27.1720   29.9780 H   0  0  0  0  0  0  0  0  0  0  0  0
   38.8730   26.1320   30.5580 H   0  0  0  0  0  0  0  0  0  0  0  0
   37.9210   27.4010   32.0800 C   0  0  0  0  0  0  0  0  0  0  0  0
   37.0140   28.0500   32.0950 H   0  0  0  0  0  0  0  0  0  0  0  0
   38.8120   28.0880   31.9960 H   0  0  0  0  0  0  0  0  0  0  0  0
   38.0730   26.6740   33.2910 N   0  0  0  0  0  0  0  0  0  0  0  0
   37.2510   27.0350   34.3800 C   0  0  0  0  0  3  0  0  0  0  0  0
   36.7540   26.0920   34.7550 H   0  0  0  0  0  0  0  0  0  0  0  0
   37.9970   27.5700   35.5780 C   0  0  0  0  0  3  0  0  0  0  0  0
   37.3080   27.5880   36.4480 H   0  0  0  0  0  0  0  0  0  0  0  0
   39.1340   26.7820   35.8620 O   0  0  0  0  0  0  0  0  0  0  0  0
   39.9810   26.9530   34.7660 C   0  0  0  0  0  2  0  0  0  0  0  0
   39.3770   26.2190   33.6060 C   0  0  0  0  0  2  0  0  0  0  0  0
  1  2  1  0  0  0  0
  1 10  1  0  0  0  0
  2  6  1  0  0  0  0
  3  2  2  0  0  0  0
  4  5  1  0  0  0  0
  4  3  1  0  0  0  0
  5  1  2  0  0  0  0
  7  3  1  0  0  0  0
  8 13  1  0  0  0  0
  9  8  2  0  0  0  0
  9 10  1  0  0  0  0
 10 11  2  0  0  0  0
 11 12  1  0  0  0  0
 12 16  1  0  0  0  0
 13 12  2  0  0  0  0
 14  8  1  0  0  0  0
 15  9  1  0  0  0  0
 17  4  1  0  0  0  0
 17 20  1  0  0  0  0
 18 17  1  0  0  0  0
 19 17  1  0  0  0  0
 20 21  1  0  0  0  0
 20 23  1  0  0  0  0
 22 20  1  0  0  0  0
 23 30  1  0  0  0  0
 23 24  1  0  0  0  0
 24 25  1  0  0  0  0
 24 26  1  0  0  0  0
 26 28  1  0  0  0  0
 26 27  1  0  0  0  0
 29 28  1  0  0  0  0
 30 29  1  0  0  0  0
M  END
>  <minimizedAffinity>
-4.44497347

$$$$

 OpenBabel03272508353D

 30 32  0  0  0  0  0  0  0  0999 V2000
   36.0170   27.5320   31.2740 C   0  0  0  0  0  0  0  0  0  0  0  0
   36.6870   28.4460   30.5050 C   0  0  0  0  0  0  0  0  0  0  0  0
   36.2510   29.7170   30.8430 C   0  0  0  0  0  0  0  0  0  0  0  0
   35.3240   29.5220   31.8130 N   0  0  0  0  0  0  0  0  0  0  0  0
   35.1900   28.2170   32.0630 N   0  0  0  0  0  0  0  0  0  0  0  0
   37.4390   28.2670   29.7460 H   0  0  0  0  0  0  0  0  0  0  0  0
   36.5860   30.6300   30.4200 H   0  0  0  0  0  0  0  0  0  0  0  0
   35.5680   23.7990   31.1590 C   0  0  0  0  0  0  0  0  0  0  0  0
   35.2500   25.1450   31.2850 C   0  0  0  0  0  0  0  0  0  0  0  0
   36.2510   26.1120   31.1580 C   0  0  0  0  0  0  0  0  0  0  0  0
   37.4940   25.6340   30.9130 N   0  0  0  0  0  0  0  0  0  0  0  0
   37.7850   24.3200   30.7930 C   0  0  0  0  0  0  0  0  0  0  0  0
   36.8160   23.4130   30.9170 N   0  0  0  0  0  0  0  0  0  0  0  0
   34.6580   23.1910   31.2880 H   0  0  0  0  0  0  0  0  0  0  0  0
   34.2670   25.5620   31.4820 H   0  0  0  0  0  0  0  0  0  0  0  0
   38.7980   23.9750   30.5940 H   0  0  0  0  0  0  0  0  0  0  0  0
   34.5920   30.6120   32.4730 C   0  0  0  0  0  0  0  0  0  0  0  0
   33.7190   30.0790   32.9500 H   0  0  0  0  0  0  0  0  0  0  0  0
   34.2750   31.2890   31.6780 H   0  0  0  0  0  0  0  0  0  0  0  0
   35.4620   31.2210   33.5280 C   0  0  0  0  0  0  0  0  0  0  0  0
   35.4550   32.3310   33.4110 H   0  0  0  0  0  0  0  0  0  0  0  0
   36.5120   30.8750   33.3010 H   0  0  0  0  0  0  0  0  0  0  0  0
   35.1760   30.8270   34.8620 N   0  0  0  0  0  0  0  0  0  0  0  0
   33.8630   30.3950   35.1510 C   0  0  0  0  0  3  0  0  0  0  0  0
   33.9430   29.3950   35.6700 H   0  0  0  0  0  0  0  0  0  0  0  0
   33.1170   31.2700   36.1290 C   0  0  0  0  0  3  0  0  0  0  0  0
   32.2140   30.7260   36.4760 H   0  0  0  0  0  0  0  0  0  0  0  0
   33.9370   31.6200   37.2250 O   0  0  0  0  0  0  0  0  0  0  0  0
   34.9490   32.4140   36.6850 C   0  0  0  0  0  2  0  0  0  0  0  0
   35.8560   31.5180   35.8940 C   0  0  0  0  0  2  0  0  0  0  0  0
  1  5  2  0  0  0  0
  2  3  2  0  0  0  0
  2  1  1  0  0  0  0
  3  4  1  0  0  0  0
  4  5  1  0  0  0  0
  4 17  1  0  0  0  0
  6  2  1  0  0  0  0
  7  3  1  0  0  0  0
  8  9  1  0  0  0  0
  8 14  1  0  0  0  0
  9 15  1  0  0  0  0
 10  1  1  0  0  0  0
 10  9  2  0  0  0  0
 11 10  1  0  0  0  0
 12 11  2  0  0  0  0
 12 13  1  0  0  0  0
 13  8  2  0  0  0  0
 16 12  1  0  0  0  0
 17 18  1  0  0  0  0
 17 20  1  0  0  0  0
 19 17  1  0  0  0  0
 20 23  1  0  0  0  0
 21 20  1  0  0  0  0
 22 20  1  0  0  0  0
 23 24  1  0  0  0  0
 23 30  1  0  0  0  0
 24 25  1  0  0  0  0
 24 26  1  0  0  0  0
 26 27  1  0  0  0  0
 26 28  1  0  0  0  0
 29 28  1  0  0  0  0
 30 29  1  0  0  0  0
M  END
>  <minimizedAffinity>
-4.37275743

$$$$
