
 OpenBabel03272502213D

 25 27  0  0  0  0  0  0  0  0999 V2000
   36.3950   30.2850   47.5990 C   0  0  0  0  0  0  0  0  0  0  0  0
   35.2190   29.8860   47.0120 C   0  0  0  0  0  0  0  0  0  0  0  0
   34.9760   29.9890   45.6530 C   0  0  0  0  0  0  0  0  0  0  0  0
   35.9350   30.5070   44.8520 N   0  0  0  0  0  0  0  0  0  0  0  0
   37.0740   30.8900   45.4400 C   0  0  0  0  0  0  0  0  0  0  0  0
   37.3330   30.8010   46.7520 N   0  0  0  0  0  0  0  0  0  0  0  0
   34.4940   29.4790   47.7180 H   0  0  0  0  0  0  0  0  0  0  0  0
   34.0160   29.6330   45.3700 H   0  0  0  0  0  0  0  0  0  0  0  0
   38.0950   31.4380   44.6090 N   0  0  0  0  0  0  0  0  0  0  0  0
   38.4810   30.8420   43.3400 C   0  0  0  0  0  0  0  0  0  0  0  0
   37.8270   29.9800   43.1110 H   0  0  0  0  0  0  0  0  0  0  0  0
   39.9410   30.4240   43.5560 C   0  0  0  0  0  0  0  0  0  0  0  0
   40.3570   29.8600   42.7270 H   0  0  0  0  0  0  0  0  0  0  0  0
   40.6530   31.6100   43.7700 O   0  0  0  0  0  0  0  0  0  0  0  0
   40.3040   32.2010   44.9730 C   0  0  0  0  0  0  0  0  0  0  0  0
   38.8350   32.6380   44.9670 C   0  0  0  0  0  0  0  0  0  0  0  0
   37.8760   30.5250   51.0700 C   0  0  0  0  0  0  0  0  0  0  0  0
   37.7560   30.7070   49.6850 C   0  0  0  0  0  0  0  0  0  0  0  0
   36.6610   30.1810   49.0280 C   0  0  0  0  0  0  0  0  0  0  0  0
   35.7520   29.5090   49.7690 N   0  0  0  0  0  0  0  0  0  0  0  0
   35.8830   29.3420   51.1050 C   0  0  0  0  0  0  0  0  0  0  0  0
   36.9400   29.8470   51.7520 N   0  0  0  0  0  0  0  0  0  0  0  0
   38.7870   30.9950   51.4400 H   0  0  0  0  0  0  0  0  0  0  0  0
   38.4650   31.2370   49.0730 H   0  0  0  0  0  0  0  0  0  0  0  0
   35.1600   28.8050   51.7100 H   0  0  0  0  0  0  0  0  0  0  0  0
  1 19  1  0  0  0  0
  2  1  1  0  0  0  0
  2  7  1  0  0  0  0
  3  2  2  0  0  0  0
  4  5  2  0  0  0  0
  4  3  1  0  0  0  0
  5  6  1  0  0  0  0
  6  1  2  0  0  0  0
  8  3  1  0  0  0  0
  9 16  1  0  0  0  0
  9  5  1  0  0  0  0
 10 12  1  0  0  0  0
 10  9  1  0  0  0  0
 11 10  1  0  0  0  0
 12 14  1  0  0  0  0
 13 12  1  0  0  0  0
 14 15  1  0  0  0  0
 16 15  1  0  0  0  0
 17 23  1  0  0  0  0
 17 22  1  0  0  0  0
 18 17  2  0  0  0  0
 19 18  1  0  0  0  0
 19 20  2  0  0  0  0
 20 21  1  0  0  0  0
 21 25  1  0  0  0  0
 21 22  2  0  0  0  0
 24 18  1  0  0  0  0
M  END
>  <minimizedAffinity>
-5.32366037

>  <minimizedRMSD>
3.1438117

$$$$
