
 OpenBabel03272510003D

 20 21  0  0  0  0  0  0  0  0999 V2000
   38.2590   31.4040   50.2340 C   0  0  0  0  0  0  0  0  0  0  0  0
   38.5340   31.4390   48.8600 C   0  0  0  0  0  0  0  0  0  0  0  0
   37.6770   30.7710   47.9970 C   0  0  0  0  0  0  0  0  0  0  0  0
   36.6100   30.1120   48.5390 N   0  0  0  0  0  0  0  0  0  0  0  0
   36.3670   30.0920   49.8630 C   0  0  0  0  0  0  0  0  0  0  0  0
   37.1910   30.7340   50.6920 N   0  0  0  0  0  0  0  0  0  0  0  0
   38.9630   31.9430   50.8520 H   0  0  0  0  0  0  0  0  0  0  0  0
   39.3750   31.9580   48.4330 H   0  0  0  0  0  0  0  0  0  0  0  0
   37.8290   30.7200   46.5870 N   0  0  0  0  0  0  0  0  0  0  0  0
   36.6940   30.5810   45.6710 C   0  0  0  0  0  3  0  0  0  0  0  0
   36.4710   29.5260   45.5100 H   0  0  0  0  0  0  0  0  0  0  0  0
   37.1440   31.2600   44.3850 C   0  0  0  0  0  3  0  0  0  0  0  0
   36.3250   31.3750   43.6480 H   0  0  0  0  0  0  0  0  0  0  0  0
   38.1160   30.4770   43.7880 O   0  0  0  0  0  0  0  0  0  0  0  0
   39.0930   30.0440   44.6600 C   0  0  0  0  0  2  0  0  0  0  0  0
   39.1160   30.8030   45.9610 C   0  0  0  0  0  2  0  0  0  0  0  0
   35.1820   29.3490   50.3550 C   0  0  0  0  0  0  0  0  0  0  0  0
   35.2330   29.0820   51.7120 F   0  0  0  0  0  0  0  0  0  0  0  0
   34.0120   30.0580   50.1210 F   0  0  0  0  0  0  0  0  0  0  0  0
   35.0100   28.1350   49.7210 F   0  0  0  0  0  0  0  0  0  0  0  0
  1  6  1  0  0  0  0
  1  7  1  0  0  0  0
  2  1  2  0  0  0  0
  3  4  2  0  0  0  0
  3  2  1  0  0  0  0
  4  5  1  0  0  0  0
  5 17  1  0  0  0  0
  5  6  2  0  0  0  0
  8  2  1  0  0  0  0
  9  3  1  0  0  0  0
 10  9  1  0  0  0  0
 11 10  1  0  0  0  0
 12 10  1  0  0  0  0
 13 12  1  0  0  0  0
 14 12  1  0  0  0  0
 14 15  1  0  0  0  0
 15 16  1  0  0  0  0
 16  9  1  0  0  0  0
 17 18  1  0  0  0  0
 19 17  1  0  0  0  0
 20 17  1  0  0  0  0
M  END
>  <minimizedAffinity>
-5.14302063

>  <minimizedRMSD>
1.05473745

$$$$
