
 OpenBabel03272500523D

 44 49  0  0  1  0  0  0  0  0999 V2000
   37.8100   25.8290   35.8060 C   0  0  1  0  0  0  0  0  0  0  0  0
   38.5450   27.2210   35.8870 C   0  0  0  0  0  0  0  0  0  0  0  0
   38.3290   26.4740   34.6050 C   0  0  2  0  0  0  0  0  0  0  0  0
   36.7260   25.9210   36.1060 H   0  0  0  0  0  0  0  0  0  0  0  0
   39.5820   27.1880   36.2830 H   0  0  0  0  0  0  0  0  0  0  0  0
   37.9220   28.0980   36.0440 H   0  0  0  0  0  0  0  0  0  0  0  0
   39.2330   26.0190   34.1260 H   0  0  0  0  0  0  0  0  0  0  0  0
   39.9260   23.0510   36.6540 C   0  0  0  0  0  0  0  0  0  0  0  0
   39.0880   23.0650   37.7470 C   0  0  0  0  0  0  0  0  0  0  0  0
   38.1630   24.1220   37.5810 C   0  0  0  0  0  0  0  0  0  0  0  0
   38.4860   24.6960   36.3990 N   0  0  0  0  0  0  0  0  0  0  0  0
   39.5040   24.0460   35.9050 N   0  0  0  0  0  0  0  0  0  0  0  0
   39.0740   22.4150   38.6180 H   0  0  0  0  0  0  0  0  0  0  0  0
   37.3540   24.4020   38.2660 H   0  0  0  0  0  0  0  0  0  0  0  0
   41.5570   21.7950   35.2280 C   0  0  0  0  0  0  0  0  0  0  0  0
   40.9930   22.1040   36.4950 C   0  0  0  0  0  0  0  0  0  0  0  0
   41.5180   21.4480   37.5820 C   0  0  0  0  0  0  0  0  0  0  0  0
   42.5300   20.5550   37.3980 N   0  0  0  0  0  0  0  0  0  0  0  0
   43.0370   20.2900   36.1710 C   0  0  0  0  0  0  0  0  0  0  0  0
   42.5480   20.9130   35.0750 N   0  0  0  0  0  0  0  0  0  0  0  0
   41.1700   22.2970   34.3540 H   0  0  0  0  0  0  0  0  0  0  0  0
   41.1130   21.6510   38.5860 H   0  0  0  0  0  0  0  0  0  0  0  0
   43.8150   19.5660   36.2640 H   0  0  0  0  0  0  0  0  0  0  0  0
   37.3780   27.0390   33.5900 C   0  0  0  0  0  0  0  0  0  0  0  0
   37.1380   26.5160   32.3330 C   0  0  0  0  0  0  0  0  0  0  0  0
   36.2040   27.2890   31.7220 N   0  0  0  0  0  0  0  0  0  0  0  0
   35.8520   28.2880   32.5680 C   0  0  0  0  0  0  0  0  0  0  0  0
   36.5770   28.1120   33.6860 N   0  0  0  0  0  0  0  0  0  0  0  0
   37.6220   25.6300   31.9130 H   0  0  0  0  0  0  0  0  0  0  0  0
   35.8190   27.1280   30.7450 H   0  0  0  0  0  0  0  0  0  0  0  0
   34.8630   29.3540   32.3050 C   0  0  0  0  0  0  0  0  0  0  0  0
   35.0760   30.2980   31.2690 C   0  0  0  0  0  0  0  0  0  0  0  0
   33.6020   31.3660   31.3760 S   0  0  0  0  0  0  0  0  0  0  0  0
   32.9170   30.3390   32.8380 C   0  0  0  0  0  0  0  0  0  0  0  0
   33.7290   29.5540   32.9640 N   0  0  0  0  0  0  0  0  0  0  0  0
   35.9420   30.3120   30.6140 H   0  0  0  0  0  0  0  0  0  0  0  0
   31.6700   30.9520   33.1920 N   0  0  0  0  0  0  0  0  0  0  0  0
   31.4830   32.3160   33.6960 C   0  0  0  0  0  3  0  0  0  0  0  0
   32.4090   32.9020   33.6490 H   0  0  0  0  0  0  0  0  0  0  0  0
   30.9740   32.1240   35.1310 C   0  0  0  0  0  3  0  0  0  0  0  0
   30.0230   32.6620   35.3070 H   0  0  0  0  0  0  0  0  0  0  0  0
   30.7950   30.7990   35.4650 O   0  0  0  0  0  0  0  0  0  0  0  0
   29.9760   30.0840   34.5950 C   0  0  0  0  0  2  0  0  0  0  0  0
   30.3880   30.2770   33.1360 C   0  0  0  0  0  2  0  0  0  0  0  0
  1  2  1  0  0  0  0
  1  4  1  1  0  0  0
  1 11  1  0  0  0  0
  2  6  1  0  0  0  0
  2  5  1  0  0  0  0
  3  7  1  6  0  0  0
  3  1  1  0  0  0  0
  3  2  1  0  0  0  0
  8  9  1  0  0  0  0
  9 13  1  0  0  0  0
 10  9  2  0  0  0  0
 10 14  1  0  0  0  0
 11 10  1  0  0  0  0
 12 11  1  0  0  0  0
 12  8  2  0  0  0  0
 15 16  1  0  0  0  0
 16  8  1  0  0  0  0
 16 17  2  0  0  0  0
 17 22  1  0  0  0  0
 18 17  1  0  0  0  0
 19 23  1  0  0  0  0
 19 18  2  0  0  0  0
 20 15  2  0  0  0  0
 20 19  1  0  0  0  0
 21 15  1  0  0  0  0
 24 28  1  0  0  0  0
 24  3  1  0  0  0  0
 25 24  2  0  0  0  0
 26 25  1  0  0  0  0
 26 27  1  0  0  0  0
 27 28  2  0  0  0  0
 29 25  1  0  0  0  0
 30 26  1  0  0  0  0
 31 27  1  0  0  0  0
 31 35  1  0  0  0  0
 32 33  1  0  0  0  0
 32 31  2  0  0  0  0
 33 34  1  0  0  0  0
 34 35  2  0  0  0  0
 34 37  1  0  0  0  0
 36 32  1  0  0  0  0
 37 38  1  0  0  0  0
 38 40  1  0  0  0  0
 39 38  1  0  0  0  0
 40 41  1  0  0  0  0
 40 42  1  0  0  0  0
 43 42  1  0  0  0  0
 44 37  1  0  0  0  0
 44 43  1  0  0  0  0
M  END
>  <minimizedAffinity>
-6.30385828

$$$$

 OpenBabel03272500523D

 44 49  0  0  1  0  0  0  0  0999 V2000
   34.4600   30.5010   33.6290 C   0  0  1  0  0  0  0  0  0  0  0  0
   34.3540   31.2390   32.2400 C   0  0  0  0  0  0  0  0  0  0  0  0
   35.5490   30.4360   32.6600 C   0  0  2  0  0  0  0  0  0  0  0  0
   33.6940   29.6770   33.7140 H   0  0  0  0  0  0  0  0  0  0  0  0
   34.4900   32.3400   32.2760 H   0  0  0  0  0  0  0  0  0  0  0  0
   33.7100   30.7850   31.4900 H   0  0  0  0  0  0  0  0  0  0  0  0
   36.4830   31.0060   32.8970 H   0  0  0  0  0  0  0  0  0  0  0  0
   34.0070   32.8130   36.3420 C   0  0  0  0  0  0  0  0  0  0  0  0
   35.2510   32.3090   36.6530 C   0  0  0  0  0  0  0  0  0  0  0  0
   35.6020   31.3590   35.6660 C   0  0  0  0  0  0  0  0  0  0  0  0
   34.5550   31.3340   34.8080 N   0  0  0  0  0  0  0  0  0  0  0  0
   33.6660   32.1850   35.2380 N   0  0  0  0  0  0  0  0  0  0  0  0
   35.9060   32.5480   37.4850 H   0  0  0  0  0  0  0  0  0  0  0  0
   36.5300   30.7790   35.6110 H   0  0  0  0  0  0  0  0  0  0  0  0
   31.9880   34.1800   36.9130 C   0  0  0  0  0  0  0  0  0  0  0  0
   33.3400   33.8030   37.1390 C   0  0  0  0  0  0  0  0  0  0  0  0
   33.9940   34.4350   38.1680 C   0  0  0  0  0  0  0  0  0  0  0  0
   33.3330   35.3700   38.9060 N   0  0  0  0  0  0  0  0  0  0  0  0
   32.0440   35.7000   38.6550 C   0  0  0  0  0  0  0  0  0  0  0  0
   31.3640   35.1020   37.6510 N   0  0  0  0  0  0  0  0  0  0  0  0
   31.4440   33.6990   36.1150 H   0  0  0  0  0  0  0  0  0  0  0  0
   35.0440   34.1790   38.3820 H   0  0  0  0  0  0  0  0  0  0  0  0
   31.7330   36.4460   39.3500 H   0  0  0  0  0  0  0  0  0  0  0  0
   35.8410   29.1460   31.9490 C   0  0  0  0  0  0  0  0  0  0  0  0
   36.1670   29.0200   30.6110 C   0  0  0  0  0  0  0  0  0  0  0  0
   36.3780   27.7060   30.3470 N   0  0  0  0  0  0  0  0  0  0  0  0
   36.1940   27.0010   31.4910 C   0  0  0  0  0  0  0  0  0  0  0  0
   35.8700   27.8970   32.4390 N   0  0  0  0  0  0  0  0  0  0  0  0
   36.2380   29.8450   29.8970 H   0  0  0  0  0  0  0  0  0  0  0  0
   36.6470   27.3060   29.4000 H   0  0  0  0  0  0  0  0  0  0  0  0
   36.3270   25.5390   31.6540 C   0  0  0  0  0  0  0  0  0  0  0  0
   35.5340   24.6510   30.8830 C   0  0  0  0  0  0  0  0  0  0  0  0
   36.0730   23.0090   31.4650 S   0  0  0  0  0  0  0  0  0  0  0  0
   37.3140   23.8060   32.6840 C   0  0  0  0  0  0  0  0  0  0  0  0
   37.1460   24.9130   32.4880 N   0  0  0  0  0  0  0  0  0  0  0  0
   34.8010   24.9600   30.1450 H   0  0  0  0  0  0  0  0  0  0  0  0
   37.9580   22.7120   33.3510 N   0  0  0  0  0  0  0  0  0  0  0  0
   37.3140   21.7200   34.2170 C   0  0  0  0  0  3  0  0  0  0  0  0
   36.2210   21.8090   34.2010 H   0  0  0  0  0  0  0  0  0  0  0  0
   37.9120   21.9830   35.6060 C   0  0  0  0  0  3  0  0  0  0  0  0
   38.3560   21.0680   36.0430 H   0  0  0  0  0  0  0  0  0  0  0  0
   38.8690   22.9730   35.6000 O   0  0  0  0  0  0  0  0  0  0  0  0
   39.9060   22.7780   34.6910 C   0  0  0  0  0  2  0  0  0  0  0  0
   39.3840   22.4510   33.2930 C   0  0  0  0  0  2  0  0  0  0  0  0
  1  4  1  1  0  0  0
  1 11  1  0  0  0  0
  2  5  1  0  0  0  0
  2  3  1  0  0  0  0
  2  1  1  0  0  0  0
  3  7  1  1  0  0  0
  3  1  1  0  0  0  0
  6  2  1  0  0  0  0
  8  9  1  0  0  0  0
  8 16  1  0  0  0  0
  9 13  1  0  0  0  0
 10  9  2  0  0  0  0
 11 12  1  0  0  0  0
 11 10  1  0  0  0  0
 12  8  2  0  0  0  0
 14 10  1  0  0  0  0
 15 16  2  0  0  0  0
 15 20  1  0  0  0  0
 16 17  1  0  0  0  0
 17 22  1  0  0  0  0
 17 18  2  0  0  0  0
 19 18  1  0  0  0  0
 19 23  1  0  0  0  0
 20 19  2  0  0  0  0
 21 15  1  0  0  0  0
 24 28  1  0  0  0  0
 24  3  1  0  0  0  0
 25 24  2  0  0  0  0
 26 25  1  0  0  0  0
 26 27  1  0  0  0  0
 27 31  1  0  0  0  0
 27 28  2  0  0  0  0
 29 25  1  0  0  0  0
 30 26  1  0  0  0  0
 31 35  1  0  0  0  0
 32 33  1  0  0  0  0
 32 31  2  0  0  0  0
 33 34  1  0  0  0  0
 34 37  1  0  0  0  0
 35 34  2  0  0  0  0
 36 32  1  0  0  0  0
 37 38  1  0  0  0  0
 38 40  1  0  0  0  0
 39 38  1  0  0  0  0
 40 41  1  0  0  0  0
 42 40  1  0  0  0  0
 43 42  1  0  0  0  0
 44 37  1  0  0  0  0
 44 43  1  0  0  0  0
M  END
>  <minimizedAffinity>
-6.15346241

$$$$

 OpenBabel03272500523D

 44 49  0  0  1  0  0  0  0  0999 V2000
   34.7610   29.4170   33.9350 C   0  0  1  0  0  0  0  0  0  0  0  0
   34.2010   29.7520   32.5010 C   0  0  0  0  0  0  0  0  0  0  0  0
   35.6260   29.3660   32.7620 C   0  0  2  0  0  0  0  0  0  0  0  0
   34.2790   28.4880   34.3560 H   0  0  0  0  0  0  0  0  0  0  0  0
   34.0350   30.8300   32.2960 H   0  0  0  0  0  0  0  0  0  0  0  0
   33.5780   28.9970   32.0270 H   0  0  0  0  0  0  0  0  0  0  0  0
   36.3960   30.1720   32.6550 H   0  0  0  0  0  0  0  0  0  0  0  0
   34.2140   32.1910   36.1540 C   0  0  0  0  0  0  0  0  0  0  0  0
   35.5690   32.0060   36.3190 C   0  0  0  0  0  0  0  0  0  0  0  0
   35.9710   30.9260   35.4990 C   0  0  0  0  0  0  0  0  0  0  0  0
   34.8430   30.5100   34.8790 N   0  0  0  0  0  0  0  0  0  0  0  0
   33.8610   31.2660   35.2880 N   0  0  0  0  0  0  0  0  0  0  0  0
   36.2710   32.5500   36.9450 H   0  0  0  0  0  0  0  0  0  0  0  0
   36.9860   30.5260   35.3890 H   0  0  0  0  0  0  0  0  0  0  0  0
   34.0750   34.1000   37.7680 C   0  0  0  0  0  0  0  0  0  0  0  0
   33.4700   33.2050   36.8440 C   0  0  0  0  0  0  0  0  0  0  0  0
   32.1210   33.3530   36.6340 C   0  0  0  0  0  0  0  0  0  0  0  0
   31.4430   34.3260   37.3040 N   0  0  0  0  0  0  0  0  0  0  0  0
   32.0590   35.1570   38.1770 C   0  0  0  0  0  0  0  0  0  0  0  0
   33.3860   35.0450   38.4130 N   0  0  0  0  0  0  0  0  0  0  0  0
   35.1340   34.0140   37.9520 H   0  0  0  0  0  0  0  0  0  0  0  0
   31.6050   32.6820   35.9280 H   0  0  0  0  0  0  0  0  0  0  0  0
   31.3410   35.8340   38.5810 H   0  0  0  0  0  0  0  0  0  0  0  0
   36.1220   28.0430   32.2550 C   0  0  0  0  0  0  0  0  0  0  0  0
   36.2830   27.6980   30.9260 C   0  0  0  0  0  0  0  0  0  0  0  0
   36.7680   26.4320   30.8700 N   0  0  0  0  0  0  0  0  0  0  0  0
   36.9180   25.9720   32.1370 C   0  0  0  0  0  0  0  0  0  0  0  0
   36.5190   26.9650   32.9500 N   0  0  0  0  0  0  0  0  0  0  0  0
   36.0540   28.3430   30.0730 H   0  0  0  0  0  0  0  0  0  0  0  0
   36.9940   25.9000   29.9790 H   0  0  0  0  0  0  0  0  0  0  0  0
   37.4220   24.6420   32.5360 C   0  0  0  0  0  0  0  0  0  0  0  0
   38.6660   24.5110   33.2060 C   0  0  0  0  0  0  0  0  0  0  0  0
   38.8130   22.7100   33.4530 S   0  0  0  0  0  0  0  0  0  0  0  0
   37.1290   22.4170   32.5920 C   0  0  0  0  0  0  0  0  0  0  0  0
   36.8200   23.4780   32.3280 N   0  0  0  0  0  0  0  0  0  0  0  0
   39.3150   25.3400   33.4690 H   0  0  0  0  0  0  0  0  0  0  0  0
   36.9220   20.9980   32.6210 N   0  0  0  0  0  0  0  0  0  0  0  0
   37.7520   19.9840   31.9640 C   0  0  0  0  0  3  0  0  0  0  0  0
   38.6680   20.4140   31.5410 H   0  0  0  0  0  0  0  0  0  0  0  0
   36.8330   19.3740   30.8960 C   0  0  0  0  0  3  0  0  0  0  0  0
   36.7670   18.2740   30.9880 H   0  0  0  0  0  0  0  0  0  0  0  0
   35.5580   19.8930   30.9240 O   0  0  0  0  0  0  0  0  0  0  0  0
   34.9250   19.8170   32.1630 C   0  0  0  0  0  2  0  0  0  0  0  0
   35.8070   20.3530   33.2880 C   0  0  0  0  0  2  0  0  0  0  0  0
  1  4  1  1  0  0  0
  1 11  1  0  0  0  0
  2  3  1  0  0  0  0
  2  1  1  0  0  0  0
  3  7  1  6  0  0  0
  3  1  1  0  0  0  0
  5  2  1  0  0  0  0
  6  2  1  0  0  0  0
  8  9  1  0  0  0  0
  8 16  1  0  0  0  0
  9 13  1  0  0  0  0
 10  9  2  0  0  0  0
 11 12  1  0  0  0  0
 11 10  1  0  0  0  0
 12  8  2  0  0  0  0
 14 10  1  0  0  0  0
 15 21  1  0  0  0  0
 15 20  1  0  0  0  0
 16 15  2  0  0  0  0
 17 16  1  0  0  0  0
 17 18  2  0  0  0  0
 18 19  1  0  0  0  0
 19 20  2  0  0  0  0
 19 23  1  0  0  0  0
 22 17  1  0  0  0  0
 24  3  1  0  0  0  0
 24 28  1  0  0  0  0
 25 24  2  0  0  0  0
 26 25  1  0  0  0  0
 26 27  1  0  0  0  0
 27 31  1  0  0  0  0
 27 28  2  0  0  0  0
 29 25  1  0  0  0  0
 30 26  1  0  0  0  0
 31 32  2  0  0  0  0
 32 33  1  0  0  0  0
 32 36  1  0  0  0  0
 34 37  1  0  0  0  0
 34 33  1  0  0  0  0
 35 31  1  0  0  0  0
 35 34  2  0  0  0  0
 37 44  1  0  0  0  0
 38 37  1  0  0  0  0
 39 38  1  0  0  0  0
 40 42  1  0  0  0  0
 40 41  1  0  0  0  0
 40 38  1  0  0  0  0
 42 43  1  0  0  0  0
 43 44  1  0  0  0  0
M  END
>  <minimizedAffinity>
-6.05175972

$$$$

 OpenBabel03272500523D

 44 49  0  0  1  0  0  0  0  0999 V2000
   37.6260   26.0720   35.6910 C   0  0  1  0  0  0  0  0  0  0  0  0
   38.4190   27.4340   35.6930 C   0  0  0  0  0  0  0  0  0  0  0  0
   38.0950   26.6680   34.4450 C   0  0  2  0  0  0  0  0  0  0  0  0
   36.5670   26.2140   36.0540 H   0  0  0  0  0  0  0  0  0  0  0  0
   39.4760   27.3680   36.0260 H   0  0  0  0  0  0  0  0  0  0  0  0
   37.8410   28.3390   35.8650 H   0  0  0  0  0  0  0  0  0  0  0  0
   38.9490   26.1660   33.9240 H   0  0  0  0  0  0  0  0  0  0  0  0
   39.7180   23.2650   36.5040 C   0  0  0  0  0  0  0  0  0  0  0  0
   38.8800   23.2720   37.5970 C   0  0  0  0  0  0  0  0  0  0  0  0
   37.9640   24.3400   37.4450 C   0  0  0  0  0  0  0  0  0  0  0  0
   38.2920   24.9250   36.2690 N   0  0  0  0  0  0  0  0  0  0  0  0
   39.3040   24.2730   35.7680 N   0  0  0  0  0  0  0  0  0  0  0  0
   38.8600   22.6120   38.4600 H   0  0  0  0  0  0  0  0  0  0  0  0
   37.1580   24.6180   38.1330 H   0  0  0  0  0  0  0  0  0  0  0  0
   41.3710   21.6270   37.4280 C   0  0  0  0  0  0  0  0  0  0  0  0
   40.7760   22.3110   36.3330 C   0  0  0  0  0  0  0  0  0  0  0  0
   41.2640   22.0180   35.0830 C   0  0  0  0  0  0  0  0  0  0  0  0
   42.2690   21.1090   34.9540 N   0  0  0  0  0  0  0  0  0  0  0  0
   42.8090   20.4800   36.0250 C   0  0  0  0  0  0  0  0  0  0  0  0
   42.3580   20.7400   37.2730 N   0  0  0  0  0  0  0  0  0  0  0  0
   41.0080   21.8300   38.4230 H   0  0  0  0  0  0  0  0  0  0  0  0
   40.8370   22.5240   34.2020 H   0  0  0  0  0  0  0  0  0  0  0  0
   43.5730   19.8160   35.6920 H   0  0  0  0  0  0  0  0  0  0  0  0
   37.1060   27.2490   33.4760 C   0  0  0  0  0  0  0  0  0  0  0  0
   36.8650   26.7840   32.1960 C   0  0  0  0  0  0  0  0  0  0  0  0
   35.8930   27.5510   31.6410 N   0  0  0  0  0  0  0  0  0  0  0  0
   35.5160   28.4900   32.5450 C   0  0  0  0  0  0  0  0  0  0  0  0
   36.2660   28.2830   33.6410 N   0  0  0  0  0  0  0  0  0  0  0  0
   37.3760   25.9410   31.7230 H   0  0  0  0  0  0  0  0  0  0  0  0
   35.4970   27.4280   30.6630 H   0  0  0  0  0  0  0  0  0  0  0  0
   34.4830   29.5290   32.3550 C   0  0  0  0  0  0  0  0  0  0  0  0
   33.1660   29.3370   32.8470 C   0  0  0  0  0  0  0  0  0  0  0  0
   32.3150   30.8720   32.3510 S   0  0  0  0  0  0  0  0  0  0  0  0
   33.9150   31.5430   31.5420 C   0  0  0  0  0  0  0  0  0  0  0  0
   34.6420   30.6920   31.7380 N   0  0  0  0  0  0  0  0  0  0  0  0
   32.8280   28.4540   33.3790 H   0  0  0  0  0  0  0  0  0  0  0  0
   33.5720   32.8330   31.0180 N   0  0  0  0  0  0  0  0  0  0  0  0
   32.5890   33.1120   29.9680 C   0  0  0  0  0  3  0  0  0  0  0  0
   32.0110   32.2200   29.6980 H   0  0  0  0  0  0  0  0  0  0  0  0
   33.4240   33.6540   28.7990 C   0  0  0  0  0  3  0  0  0  0  0  0
   33.0570   34.6390   28.4520 H   0  0  0  0  0  0  0  0  0  0  0  0
   34.7630   33.7680   29.1040 O   0  0  0  0  0  0  0  0  0  0  0  0
   35.0400   34.5180   30.2440 C   0  0  0  0  0  2  0  0  0  0  0  0
   34.1970   34.0720   31.4380 C   0  0  0  0  0  2  0  0  0  0  0  0
  1  2  1  0  0  0  0
  1  4  1  1  0  0  0
  1 11  1  0  0  0  0
  2  6  1  0  0  0  0
  2  5  1  0  0  0  0
  3  7  1  6  0  0  0
  3  1  1  0  0  0  0
  3  2  1  0  0  0  0
  8  9  1  0  0  0  0
  9 13  1  0  0  0  0
 10  9  2  0  0  0  0
 10 14  1  0  0  0  0
 11 10  1  0  0  0  0
 12 11  1  0  0  0  0
 12  8  2  0  0  0  0
 15 21  1  0  0  0  0
 16  8  1  0  0  0  0
 16 15  2  0  0  0  0
 17 16  1  0  0  0  0
 18 17  2  0  0  0  0
 18 19  1  0  0  0  0
 19 20  2  0  0  0  0
 20 15  1  0  0  0  0
 22 17  1  0  0  0  0
 23 19  1  0  0  0  0
 24 28  1  0  0  0  0
 24  3  1  0  0  0  0
 25 24  2  0  0  0  0
 26 25  1  0  0  0  0
 26 27  1  0  0  0  0
 27 28  2  0  0  0  0
 29 25  1  0  0  0  0
 30 26  1  0  0  0  0
 31 27  1  0  0  0  0
 31 32  2  0  0  0  0
 32 36  1  0  0  0  0
 33 32  1  0  0  0  0
 34 35  2  0  0  0  0
 34 33  1  0  0  0  0
 35 31  1  0  0  0  0
 37 44  1  0  0  0  0
 37 34  1  0  0  0  0
 38 37  1  0  0  0  0
 39 38  1  0  0  0  0
 40 42  1  0  0  0  0
 40 38  1  0  0  0  0
 41 40  1  0  0  0  0
 42 43  1  0  0  0  0
 43 44  1  0  0  0  0
M  END
>  <minimizedAffinity>
-5.94983387

$$$$

 OpenBabel03272500523D

 44 49  0  0  1  0  0  0  0  0999 V2000
   38.4160   26.7660   34.3840 C   0  0  1  0  0  0  0  0  0  0  0  0
   38.4320   27.3730   35.8390 C   0  0  0  0  0  0  0  0  0  0  0  0
   37.7530   26.0820   35.4890 C   0  0  2  0  0  0  0  0  0  0  0  0
   39.4550   26.4800   34.0490 H   0  0  0  0  0  0  0  0  0  0  0  0
   37.7510   28.2350   36.0010 H   0  0  0  0  0  0  0  0  0  0  0  0
   39.3620   27.2910   36.3960 H   0  0  0  0  0  0  0  0  0  0  0  0
   36.6330   26.0820   35.4960 H   0  0  0  0  0  0  0  0  0  0  0  0
   36.0540   28.6890   32.4770 C   0  0  0  0  0  0  0  0  0  0  0  0
   36.9720   28.3840   31.4970 C   0  0  0  0  0  0  0  0  0  0  0  0
   38.0010   27.6080   32.0810 C   0  0  0  0  0  0  0  0  0  0  0  0
   37.6560   27.4830   33.3840 N   0  0  0  0  0  0  0  0  0  0  0  0
   36.5330   28.1200   33.5620 N   0  0  0  0  0  0  0  0  0  0  0  0
   36.9750   28.6510   30.4440 H   0  0  0  0  0  0  0  0  0  0  0  0
   38.8800   27.1930   31.5750 H   0  0  0  0  0  0  0  0  0  0  0  0
   33.6260   29.1800   32.8420 C   0  0  0  0  0  0  0  0  0  0  0  0
   34.8770   29.4730   32.2340 C   0  0  0  0  0  0  0  0  0  0  0  0
   34.9140   30.5540   31.3880 C   0  0  0  0  0  0  0  0  0  0  0  0
   33.7790   31.2770   31.1760 N   0  0  0  0  0  0  0  0  0  0  0  0
   32.6070   30.9620   31.7770 C   0  0  0  0  0  0  0  0  0  0  0  0
   32.5270   29.9050   32.6160 N   0  0  0  0  0  0  0  0  0  0  0  0
   33.5630   28.3400   33.5150 H   0  0  0  0  0  0  0  0  0  0  0  0
   35.8600   30.8210   30.8900 H   0  0  0  0  0  0  0  0  0  0  0  0
   31.8600   31.6580   31.4690 H   0  0  0  0  0  0  0  0  0  0  0  0
   38.3200   24.7990   36.0220 C   0  0  0  0  0  0  0  0  0  0  0  0
   37.6970   23.9570   36.9250 C   0  0  0  0  0  0  0  0  0  0  0  0
   38.5110   22.8940   37.1470 N   0  0  0  0  0  0  0  0  0  0  0  0
   39.6340   23.0480   36.4010 C   0  0  0  0  0  0  0  0  0  0  0  0
   39.4900   24.2060   35.7350 N   0  0  0  0  0  0  0  0  0  0  0  0
   36.7170   24.1280   37.3770 H   0  0  0  0  0  0  0  0  0  0  0  0
   38.2960   22.0800   37.7950 H   0  0  0  0  0  0  0  0  0  0  0  0
   40.7820   22.1200   36.3390 C   0  0  0  0  0  0  0  0  0  0  0  0
   41.2760   21.5010   37.5160 C   0  0  0  0  0  0  0  0  0  0  0  0
   42.6630   20.4910   36.8970 S   0  0  0  0  0  0  0  0  0  0  0  0
   42.3420   21.0800   35.1040 C   0  0  0  0  0  0  0  0  0  0  0  0
   41.4540   21.7740   35.2490 N   0  0  0  0  0  0  0  0  0  0  0  0
   40.8690   21.6520   38.5100 H   0  0  0  0  0  0  0  0  0  0  0  0
   43.3290   20.4220   34.2990 N   0  0  0  0  0  0  0  0  0  0  0  0
   44.7820   20.5900   34.3930 C   0  0  0  0  0  3  0  0  0  0  0  0
   45.0710   21.1880   35.2650 H   0  0  0  0  0  0  0  0  0  0  0  0
   45.1750   21.2500   33.0630 C   0  0  0  0  0  3  0  0  0  0  0  0
   45.9640   20.6800   32.5380 H   0  0  0  0  0  0  0  0  0  0  0  0
   44.1080   21.4130   32.2090 O   0  0  0  0  0  0  0  0  0  0  0  0
   43.3920   20.2480   31.9410 C   0  0  0  0  0  2  0  0  0  0  0  0
   43.0170   19.5030   33.2210 C   0  0  0  0  0  2  0  0  0  0  0  0
  1  4  1  6  0  0  0
  1  3  1  0  0  0  0
  1  2  1  0  0  0  0
  2  5  1  0  0  0  0
  2  6  1  0  0  0  0
  3  7  1  6  0  0  0
  3  2  1  0  0  0  0
  3 24  1  0  0  0  0
  8 12  2  0  0  0  0
  9 10  2  0  0  0  0
  9  8  1  0  0  0  0
 10 11  1  0  0  0  0
 11 12  1  0  0  0  0
 11  1  1  0  0  0  0
 13  9  1  0  0  0  0
 14 10  1  0  0  0  0
 15 21  1  0  0  0  0
 16  8  1  0  0  0  0
 16 15  2  0  0  0  0
 17 16  1  0  0  0  0
 18 17  2  0  0  0  0
 18 19  1  0  0  0  0
 19 20  2  0  0  0  0
 20 15  1  0  0  0  0
 22 17  1  0  0  0  0
 23 19  1  0  0  0  0
 24 25  2  0  0  0  0
 25 26  1  0  0  0  0
 25 29  1  0  0  0  0
 26 30  1  0  0  0  0
 27 26  1  0  0  0  0
 28 24  1  0  0  0  0
 28 27  2  0  0  0  0
 31 27  1  0  0  0  0
 31 32  2  0  0  0  0
 32 36  1  0  0  0  0
 33 32  1  0  0  0  0
 34 35  2  0  0  0  0
 34 33  1  0  0  0  0
 35 31  1  0  0  0  0
 37 38  1  0  0  0  0
 37 34  1  0  0  0  0
 38 39  1  0  0  0  0
 40 38  1  0  0  0  0
 41 40  1  0  0  0  0
 42 40  1  0  0  0  0
 43 42  1  0  0  0  0
 43 44  1  0  0  0  0
 44 37  1  0  0  0  0
M  END
>  <minimizedAffinity>
-5.87261868

$$$$

 OpenBabel03272500523D

 44 49  0  0  1  0  0  0  0  0999 V2000
   34.4970   29.3170   34.2680 C   0  0  1  0  0  0  0  0  0  0  0  0
   35.5120   30.0780   33.3330 C   0  0  0  0  0  0  0  0  0  0  0  0
   35.9370   29.2110   34.4810 C   0  0  2  0  0  0  0  0  0  0  0  0
   33.9240   28.5310   33.6970 H   0  0  0  0  0  0  0  0  0  0  0  0
   35.5950   31.1700   33.5100 H   0  0  0  0  0  0  0  0  0  0  0  0
   35.6670   29.6660   32.3380 H   0  0  0  0  0  0  0  0  0  0  0  0
   36.3640   29.7320   35.3750 H   0  0  0  0  0  0  0  0  0  0  0  0
   33.0130   31.8360   36.3580 C   0  0  0  0  0  0  0  0  0  0  0  0
   32.0340   30.8680   36.4050 C   0  0  0  0  0  0  0  0  0  0  0  0
   32.4580   29.7720   35.6180 C   0  0  0  0  0  0  0  0  0  0  0  0
   33.6700   30.1280   35.1340 N   0  0  0  0  0  0  0  0  0  0  0  0
   33.9450   31.3210   35.5860 N   0  0  0  0  0  0  0  0  0  0  0  0
   31.0820   30.8700   36.9290 H   0  0  0  0  0  0  0  0  0  0  0  0
   31.9170   28.8330   35.4510 H   0  0  0  0  0  0  0  0  0  0  0  0
   34.0100   33.6880   37.7160 C   0  0  0  0  0  0  0  0  0  0  0  0
   32.9090   33.0910   37.0440 C   0  0  0  0  0  0  0  0  0  0  0  0
   31.7190   33.7770   37.0800 C   0  0  0  0  0  0  0  0  0  0  0  0
   31.6520   34.9660   37.7410 N   0  0  0  0  0  0  0  0  0  0  0  0
   32.7270   35.4980   38.3690 C   0  0  0  0  0  0  0  0  0  0  0  0
   33.9170   34.8550   38.3580 N   0  0  0  0  0  0  0  0  0  0  0  0
   34.9610   33.1780   37.7030 H   0  0  0  0  0  0  0  0  0  0  0  0
   30.8340   33.3550   36.5760 H   0  0  0  0  0  0  0  0  0  0  0  0
   32.4480   36.4250   38.8140 H   0  0  0  0  0  0  0  0  0  0  0  0
   36.6430   27.9190   34.1900 C   0  0  0  0  0  0  0  0  0  0  0  0
   36.7040   27.2940   32.9580 C   0  0  0  0  0  0  0  0  0  0  0  0
   37.4450   26.1650   33.0900 N   0  0  0  0  0  0  0  0  0  0  0  0
   37.8520   26.0650   34.3800 C   0  0  0  0  0  0  0  0  0  0  0  0
   37.3520   27.1360   35.0190 N   0  0  0  0  0  0  0  0  0  0  0  0
   36.2330   27.6570   32.0410 H   0  0  0  0  0  0  0  0  0  0  0  0
   37.6660   25.4810   32.3080 H   0  0  0  0  0  0  0  0  0  0  0  0
   38.6830   24.9890   34.9590 C   0  0  0  0  0  0  0  0  0  0  0  0
   38.0990   23.9820   35.7700 C   0  0  0  0  0  0  0  0  0  0  0  0
   39.5250   22.9380   36.2200 S   0  0  0  0  0  0  0  0  0  0  0  0
   40.7080   24.0560   35.2140 C   0  0  0  0  0  0  0  0  0  0  0  0
   39.9920   24.8400   34.8090 N   0  0  0  0  0  0  0  0  0  0  0  0
   37.0440   23.9230   36.0180 H   0  0  0  0  0  0  0  0  0  0  0  0
   42.0100   23.4730   35.3620 N   0  0  0  0  0  0  0  0  0  0  0  0
   42.7610   23.3260   36.6120 C   0  0  0  0  0  3  0  0  0  0  0  0
   42.1550   23.5890   37.4880 H   0  0  0  0  0  0  0  0  0  0  0  0
   43.9790   24.2440   36.4350 C   0  0  0  0  0  3  0  0  0  0  0  0
   44.9290   23.7030   36.6010 H   0  0  0  0  0  0  0  0  0  0  0  0
   44.0250   24.8410   35.1950 O   0  0  0  0  0  0  0  0  0  0  0  0
   43.9630   23.9590   34.1200 C   0  0  0  0  0  2  0  0  0  0  0  0
   42.8060   22.9710   34.2580 C   0  0  0  0  0  2  0  0  0  0  0  0
  1  4  1  6  0  0  0
  1  3  1  0  0  0  0
  1 11  1  0  0  0  0
  2  5  1  0  0  0  0
  2  1  1  0  0  0  0
  2  3  1  0  0  0  0
  3  7  1  1  0  0  0
  6  2  1  0  0  0  0
  8  9  1  0  0  0  0
  8 16  1  0  0  0  0
  9 13  1  0  0  0  0
 10  9  2  0  0  0  0
 11 12  1  0  0  0  0
 11 10  1  0  0  0  0
 12  8  2  0  0  0  0
 14 10  1  0  0  0  0
 15 20  1  0  0  0  0
 16 17  1  0  0  0  0
 16 15  2  0  0  0  0
 17 18  2  0  0  0  0
 18 19  1  0  0  0  0
 19 23  1  0  0  0  0
 20 19  2  0  0  0  0
 21 15  1  0  0  0  0
 22 17  1  0  0  0  0
 24  3  1  0  0  0  0
 24 28  1  0  0  0  0
 25 26  1  0  0  0  0
 25 24  2  0  0  0  0
 26 27  1  0  0  0  0
 27 31  1  0  0  0  0
 27 28  2  0  0  0  0
 29 25  1  0  0  0  0
 30 26  1  0  0  0  0
 31 32  2  0  0  0  0
 32 36  1  0  0  0  0
 32 33  1  0  0  0  0
 34 37  1  0  0  0  0
 34 33  1  0  0  0  0
 35 31  1  0  0  0  0
 35 34  2  0  0  0  0
 37 38  1  0  0  0  0
 38 39  1  0  0  0  0
 40 41  1  0  0  0  0
 40 38  1  0  0  0  0
 42 40  1  0  0  0  0
 43 44  1  0  0  0  0
 43 42  1  0  0  0  0
 44 37  1  0  0  0  0
M  END
>  <minimizedAffinity>
-5.77386189

$$$$

 OpenBabel03272500523D

 44 49  0  0  1  0  0  0  0  0999 V2000
   37.6760   26.4680   32.6390 C   0  0  1  0  0  0  0  0  0  0  0  0
   38.7830   27.0090   31.6560 C   0  0  0  0  0  0  0  0  0  0  0  0
   37.3220   26.9790   31.3190 C   0  0  2  0  0  0  0  0  0  0  0  0
   37.6000   27.1120   33.5620 H   0  0  0  0  0  0  0  0  0  0  0  0
   39.3980   26.2300   31.1580 H   0  0  0  0  0  0  0  0  0  0  0  0
   39.2050   27.9860   31.8800 H   0  0  0  0  0  0  0  0  0  0  0  0
   36.9960   26.2350   30.5500 H   0  0  0  0  0  0  0  0  0  0  0  0
   37.1590   22.9150   32.7790 C   0  0  0  0  0  0  0  0  0  0  0  0
   38.1250   23.0620   33.7490 C   0  0  0  0  0  0  0  0  0  0  0  0
   38.4600   24.4330   33.8350 C   0  0  0  0  0  0  0  0  0  0  0  0
   37.6810   25.0490   32.9150 N   0  0  0  0  0  0  0  0  0  0  0  0
   36.9530   24.1360   32.3350 N   0  0  0  0  0  0  0  0  0  0  0  0
   38.5960   22.3110   34.3770 H   0  0  0  0  0  0  0  0  0  0  0  0
   39.1890   24.8910   34.5130 H   0  0  0  0  0  0  0  0  0  0  0  0
   35.9990   20.7800   33.3840 C   0  0  0  0  0  0  0  0  0  0  0  0
   36.5890   21.6470   32.4250 C   0  0  0  0  0  0  0  0  0  0  0  0
   36.5920   21.2140   31.1210 C   0  0  0  0  0  0  0  0  0  0  0  0
   36.0440   20.0050   30.8170 N   0  0  0  0  0  0  0  0  0  0  0  0
   35.4930   19.2090   31.7640 C   0  0  0  0  0  0  0  0  0  0  0  0
   35.4690   19.5970   33.0590 N   0  0  0  0  0  0  0  0  0  0  0  0
   35.9760   21.0920   34.4170 H   0  0  0  0  0  0  0  0  0  0  0  0
   37.0400   21.8490   30.3400 H   0  0  0  0  0  0  0  0  0  0  0  0
   35.1280   18.3200   31.3030 H   0  0  0  0  0  0  0  0  0  0  0  0
   36.5820   28.2800   31.1940 C   0  0  0  0  0  0  0  0  0  0  0  0
   36.7130   29.1850   30.1580 C   0  0  0  0  0  0  0  0  0  0  0  0
   35.8690   30.2220   30.3890 N   0  0  0  0  0  0  0  0  0  0  0  0
   35.2070   29.9880   31.5490 C   0  0  0  0  0  0  0  0  0  0  0  0
   35.6590   28.8100   32.0120 N   0  0  0  0  0  0  0  0  0  0  0  0
   37.3860   29.0740   29.3030 H   0  0  0  0  0  0  0  0  0  0  0  0
   35.7500   31.0690   29.7590 H   0  0  0  0  0  0  0  0  0  0  0  0
   34.1900   30.8600   32.1730 C   0  0  0  0  0  0  0  0  0  0  0  0
   33.4150   31.7470   31.3820 C   0  0  0  0  0  0  0  0  0  0  0  0
   32.3500   32.5700   32.6120 S   0  0  0  0  0  0  0  0  0  0  0  0
   33.1410   31.5590   34.0300 C   0  0  0  0  0  0  0  0  0  0  0  0
   33.8950   30.9240   33.4640 N   0  0  0  0  0  0  0  0  0  0  0  0
   33.5020   31.8490   30.3050 H   0  0  0  0  0  0  0  0  0  0  0  0
   32.4800   31.9890   35.2280 N   0  0  0  0  0  0  0  0  0  0  0  0
   32.5070   33.3390   35.7990 C   0  0  0  0  0  3  0  0  0  0  0  0
   32.9870   34.0610   35.1260 H   0  0  0  0  0  0  0  0  0  0  0  0
   33.2580   33.1750   37.1280 C   0  0  0  0  0  3  0  0  0  0  0  0
   32.6740   33.5670   37.9820 H   0  0  0  0  0  0  0  0  0  0  0  0
   33.6000   31.8680   37.3930 O   0  0  0  0  0  0  0  0  0  0  0  0
   32.5370   30.9690   37.3600 C   0  0  0  0  0  2  0  0  0  0  0  0
   31.7050   31.1160   36.0870 C   0  0  0  0  0  2  0  0  0  0  0  0
  1 11  1  0  0  0  0
  1  4  1  1  0  0  0
  2  6  1  0  0  0  0
  2  1  1  0  0  0  0
  3  7  1  6  0  0  0
  3  2  1  0  0  0  0
  3  1  1  0  0  0  0
  5  2  1  0  0  0  0
  8  9  1  0  0  0  0
  9 10  2  0  0  0  0
  9 13  1  0  0  0  0
 10 14  1  0  0  0  0
 11 10  1  0  0  0  0
 12  8  2  0  0  0  0
 12 11  1  0  0  0  0
 15 21  1  0  0  0  0
 16  8  1  0  0  0  0
 16 15  2  0  0  0  0
 17 16  1  0  0  0  0
 18 17  2  0  0  0  0
 18 19  1  0  0  0  0
 19 20  2  0  0  0  0
 20 15  1  0  0  0  0
 22 17  1  0  0  0  0
 23 19  1  0  0  0  0
 24  3  1  0  0  0  0
 24 28  1  0  0  0  0
 25 26  1  0  0  0  0
 25 24  2  0  0  0  0
 26 27  1  0  0  0  0
 27 28  2  0  0  0  0
 27 31  1  0  0  0  0
 29 25  1  0  0  0  0
 30 26  1  0  0  0  0
 31 35  1  0  0  0  0
 32 31  2  0  0  0  0
 32 33  1  0  0  0  0
 33 34  1  0  0  0  0
 34 37  1  0  0  0  0
 35 34  2  0  0  0  0
 36 32  1  0  0  0  0
 37 38  1  0  0  0  0
 37 44  1  0  0  0  0
 38 40  1  0  0  0  0
 39 38  1  0  0  0  0
 40 42  1  0  0  0  0
 40 41  1  0  0  0  0
 43 42  1  0  0  0  0
 44 43  1  0  0  0  0
M  END
>  <minimizedAffinity>
-5.72237206

$$$$

 OpenBabel03272500523D

 44 49  0  0  1  0  0  0  0  0999 V2000
   38.2470   26.8290   32.7820 C   0  0  1  0  0  0  0  0  0  0  0  0
   39.0620   27.1700   31.4760 C   0  0  0  0  0  0  0  0  0  0  0  0
   37.5700   27.0280   31.5050 C   0  0  2  0  0  0  0  0  0  0  0  0
   38.3300   27.6570   33.5430 H   0  0  0  0  0  0  0  0  0  0  0  0
   39.6080   26.3170   31.0210 H   0  0  0  0  0  0  0  0  0  0  0  0
   39.4470   28.1830   31.3870 H   0  0  0  0  0  0  0  0  0  0  0  0
   37.1380   26.1240   31.0050 H   0  0  0  0  0  0  0  0  0  0  0  0
   39.2510   23.8680   34.5540 C   0  0  0  0  0  0  0  0  0  0  0  0
   38.2080   23.3670   33.8060 C   0  0  0  0  0  0  0  0  0  0  0  0
   37.6780   24.4200   33.0250 C   0  0  0  0  0  0  0  0  0  0  0  0
   38.4230   25.5050   33.3370 N   0  0  0  0  0  0  0  0  0  0  0  0
   39.3120   25.1380   34.2180 N   0  0  0  0  0  0  0  0  0  0  0  0
   37.8070   22.3580   33.7670 H   0  0  0  0  0  0  0  0  0  0  0  0
   36.8460   24.3570   32.3140 H   0  0  0  0  0  0  0  0  0  0  0  0
   41.1080   22.2610   35.0440 C   0  0  0  0  0  0  0  0  0  0  0  0
   40.0170   23.0690   35.4670 C   0  0  0  0  0  0  0  0  0  0  0  0
   39.7210   23.0540   36.8080 C   0  0  0  0  0  0  0  0  0  0  0  0
   40.4670   22.2850   37.6490 N   0  0  0  0  0  0  0  0  0  0  0  0
   41.4980   21.5290   37.2030 C   0  0  0  0  0  0  0  0  0  0  0  0
   41.8230   21.5150   35.8900 N   0  0  0  0  0  0  0  0  0  0  0  0
   41.3700   22.2540   33.9980 H   0  0  0  0  0  0  0  0  0  0  0  0
   38.8830   23.6620   37.1850 H   0  0  0  0  0  0  0  0  0  0  0  0
   41.9360   21.0150   38.0280 H   0  0  0  0  0  0  0  0  0  0  0  0
   36.7220   28.2490   31.2910 C   0  0  0  0  0  0  0  0  0  0  0  0
   36.7130   29.0330   30.1520 C   0  0  0  0  0  0  0  0  0  0  0  0
   35.8060   30.0270   30.3270 N   0  0  0  0  0  0  0  0  0  0  0  0
   35.2450   29.8860   31.5540 C   0  0  0  0  0  0  0  0  0  0  0  0
   35.8180   28.8060   32.1110 N   0  0  0  0  0  0  0  0  0  0  0  0
   37.3330   28.8690   29.2660 H   0  0  0  0  0  0  0  0  0  0  0  0
   35.5790   30.7830   29.6170 H   0  0  0  0  0  0  0  0  0  0  0  0
   34.2060   30.7520   32.1500 C   0  0  0  0  0  0  0  0  0  0  0  0
   33.4050   31.5880   31.3310 C   0  0  0  0  0  0  0  0  0  0  0  0
   32.3220   32.4270   32.5350 S   0  0  0  0  0  0  0  0  0  0  0  0
   33.1450   31.4880   33.9860 C   0  0  0  0  0  0  0  0  0  0  0  0
   33.9140   30.8550   33.4400 N   0  0  0  0  0  0  0  0  0  0  0  0
   33.4850   31.6550   30.2510 H   0  0  0  0  0  0  0  0  0  0  0  0
   32.4770   31.9440   35.1700 N   0  0  0  0  0  0  0  0  0  0  0  0
   32.4680   33.3140   35.6920 C   0  0  0  0  0  3  0  0  0  0  0  0
   32.9260   34.0230   34.9920 H   0  0  0  0  0  0  0  0  0  0  0  0
   33.2280   33.2180   37.0230 C   0  0  0  0  0  3  0  0  0  0  0  0
   32.6360   33.6240   37.8650 H   0  0  0  0  0  0  0  0  0  0  0  0
   33.6060   31.9310   37.3340 O   0  0  0  0  0  0  0  0  0  0  0  0
   32.5690   31.0020   37.3380 C   0  0  0  0  0  2  0  0  0  0  0  0
   31.7290   31.0810   36.0640 C   0  0  0  0  0  2  0  0  0  0  0  0
  1 11  1  0  0  0  0
  1  4  1  1  0  0  0
  2  3  1  0  0  0  0
  2  1  1  0  0  0  0
  3  7  1  6  0  0  0
  3  1  1  0  0  0  0
  5  2  1  0  0  0  0
  6  2  1  0  0  0  0
  8 16  1  0  0  0  0
  9  8  1  0  0  0  0
 10 11  1  0  0  0  0
 10  9  2  0  0  0  0
 11 12  1  0  0  0  0
 12  8  2  0  0  0  0
 13  9  1  0  0  0  0
 14 10  1  0  0  0  0
 15 16  2  0  0  0  0
 15 20  1  0  0  0  0
 16 17  1  0  0  0  0
 17 22  1  0  0  0  0
 17 18  2  0  0  0  0
 19 18  1  0  0  0  0
 19 23  1  0  0  0  0
 20 19  2  0  0  0  0
 21 15  1  0  0  0  0
 24  3  1  0  0  0  0
 24 28  1  0  0  0  0
 25 26  1  0  0  0  0
 25 24  2  0  0  0  0
 26 27  1  0  0  0  0
 27 28  2  0  0  0  0
 27 31  1  0  0  0  0
 29 25  1  0  0  0  0
 30 26  1  0  0  0  0
 31 35  1  0  0  0  0
 32 31  2  0  0  0  0
 32 33  1  0  0  0  0
 33 34  1  0  0  0  0
 34 37  1  0  0  0  0
 35 34  2  0  0  0  0
 36 32  1  0  0  0  0
 37 38  1  0  0  0  0
 37 44  1  0  0  0  0
 38 40  1  0  0  0  0
 39 38  1  0  0  0  0
 40 42  1  0  0  0  0
 40 41  1  0  0  0  0
 42 43  1  0  0  0  0
 44 43  1  0  0  0  0
M  END
>  <minimizedAffinity>
-5.65185499

$$$$

 OpenBabel03272500523D

 44 49  0  0  1  0  0  0  0  0999 V2000
   39.6240   27.0410   33.1580 C   0  0  1  0  0  0  0  0  0  0  0  0
   39.2370   26.5080   31.7260 C   0  0  0  0  0  0  0  0  0  0  0  0
   38.2910   26.5110   32.8890 C   0  0  2  0  0  0  0  0  0  0  0  0
   39.8350   28.1490   33.1390 H   0  0  0  0  0  0  0  0  0  0  0  0
   39.6550   25.5150   31.4590 H   0  0  0  0  0  0  0  0  0  0  0  0
   39.0540   27.2550   30.9560 H   0  0  0  0  0  0  0  0  0  0  0  0
   38.0340   25.5160   33.3340 H   0  0  0  0  0  0  0  0  0  0  0  0
   41.4700   24.6420   35.0950 C   0  0  0  0  0  0  0  0  0  0  0  0
   42.4480   25.5870   34.8740 C   0  0  0  0  0  0  0  0  0  0  0  0
   41.8870   26.6340   34.1070 C   0  0  0  0  0  0  0  0  0  0  0  0
   40.5990   26.2730   33.9010 N   0  0  0  0  0  0  0  0  0  0  0  0
   40.4080   25.1240   34.4870 N   0  0  0  0  0  0  0  0  0  0  0  0
   43.4850   25.5980   35.1980 H   0  0  0  0  0  0  0  0  0  0  0  0
   42.3930   27.5440   33.7660 H   0  0  0  0  0  0  0  0  0  0  0  0
   40.7070   22.8620   36.6820 C   0  0  0  0  0  0  0  0  0  0  0  0
   41.6970   23.4370   35.8400 C   0  0  0  0  0  0  0  0  0  0  0  0
   42.9010   22.7810   35.7670 C   0  0  0  0  0  0  0  0  0  0  0  0
   43.0860   21.6400   36.4860 N   0  0  0  0  0  0  0  0  0  0  0  0
   42.1140   21.1270   37.2780 C   0  0  0  0  0  0  0  0  0  0  0  0
   40.9140   21.7420   37.3790 N   0  0  0  0  0  0  0  0  0  0  0  0
   39.7470   23.3510   36.7590 H   0  0  0  0  0  0  0  0  0  0  0  0
   43.7020   23.1880   35.1290 H   0  0  0  0  0  0  0  0  0  0  0  0
   42.4740   20.2370   37.7420 H   0  0  0  0  0  0  0  0  0  0  0  0
   37.1100   27.4370   32.8600 C   0  0  0  0  0  0  0  0  0  0  0  0
   36.2810   27.6510   31.7740 C   0  0  0  0  0  0  0  0  0  0  0  0
   35.3200   28.5360   32.1410 N   0  0  0  0  0  0  0  0  0  0  0  0
   35.5270   28.8850   33.4350 C   0  0  0  0  0  0  0  0  0  0  0  0
   36.6140   28.2080   33.8410 N   0  0  0  0  0  0  0  0  0  0  0  0
   36.3900   27.1800   30.7930 H   0  0  0  0  0  0  0  0  0  0  0  0
   34.5390   28.8890   31.5130 H   0  0  0  0  0  0  0  0  0  0  0  0
   34.7110   29.8240   34.2340 C   0  0  0  0  0  0  0  0  0  0  0  0
   35.3300   30.7600   35.1020 C   0  0  0  0  0  0  0  0  0  0  0  0
   33.9110   31.6430   35.8310 S   0  0  0  0  0  0  0  0  0  0  0  0
   32.6810   30.5810   34.8200 C   0  0  0  0  0  0  0  0  0  0  0  0
   33.3870   29.9030   34.2430 N   0  0  0  0  0  0  0  0  0  0  0  0
   36.4010   30.8580   35.2410 H   0  0  0  0  0  0  0  0  0  0  0  0
   31.3760   31.0530   35.1790 N   0  0  0  0  0  0  0  0  0  0  0  0
   30.7660   30.9940   36.5110 C   0  0  0  0  0  3  0  0  0  0  0  0
   31.4800   30.6670   37.2760 H   0  0  0  0  0  0  0  0  0  0  0  0
   29.5860   30.0260   36.3470 C   0  0  0  0  0  3  0  0  0  0  0  0
   28.6330   30.4780   36.6810 H   0  0  0  0  0  0  0  0  0  0  0  0
   29.4300   29.5840   35.0520 O   0  0  0  0  0  0  0  0  0  0  0  0
   29.3220   30.5950   34.0990 C   0  0  0  0  0  2  0  0  0  0  0  0
   30.4350   31.6330   34.2410 C   0  0  0  0  0  2  0  0  0  0  0  0
  1  4  1  1  0  0  0
  1 11  1  0  0  0  0
  2  3  1  0  0  0  0
  2  1  1  0  0  0  0
  3  1  1  0  0  0  0
  3  7  1  1  0  0  0
  5  2  1  0  0  0  0
  6  2  1  0  0  0  0
  8 16  1  0  0  0  0
  9  8  1  0  0  0  0
  9 13  1  0  0  0  0
 10  9  2  0  0  0  0
 11 10  1  0  0  0  0
 11 12  1  0  0  0  0
 12  8  2  0  0  0  0
 14 10  1  0  0  0  0
 15 21  1  0  0  0  0
 15 20  1  0  0  0  0
 16 15  2  0  0  0  0
 17 16  1  0  0  0  0
 17 18  2  0  0  0  0
 18 19  1  0  0  0  0
 19 20  2  0  0  0  0
 19 23  1  0  0  0  0
 22 17  1  0  0  0  0
 24  3  1  0  0  0  0
 24 28  1  0  0  0  0
 25 26  1  0  0  0  0
 25 24  2  0  0  0  0
 26 27  1  0  0  0  0
 27 28  2  0  0  0  0
 27 31  1  0  0  0  0
 29 25  1  0  0  0  0
 30 26  1  0  0  0  0
 31 35  1  0  0  0  0
 31 32  2  0  0  0  0
 32 36  1  0  0  0  0
 32 33  1  0  0  0  0
 34 37  1  0  0  0  0
 34 33  1  0  0  0  0
 35 34  2  0  0  0  0
 37 38  1  0  0  0  0
 38 39  1  0  0  0  0
 40 38  1  0  0  0  0
 40 41  1  0  0  0  0
 42 40  1  0  0  0  0
 43 44  1  0  0  0  0
 43 42  1  0  0  0  0
 44 37  1  0  0  0  0
M  END
>  <minimizedAffinity>
-5.58260202

$$$$
