
 OpenBabel03272508343D

 30 32  0  0  0  0  0  0  0  0999 V2000
   37.6850   31.0330   47.9340 C   0  0  0  0  0  0  0  0  0  0  0  0
   37.0290   30.7660   46.7610 C   0  0  0  0  0  0  0  0  0  0  0  0
   37.6870   31.4120   45.7260 C   0  0  0  0  0  0  0  0  0  0  0  0
   38.7260   32.0520   46.3190 N   0  0  0  0  0  0  0  0  0  0  0  0
   38.7160   31.8220   47.6340 N   0  0  0  0  0  0  0  0  0  0  0  0
   36.1440   30.1610   46.6050 H   0  0  0  0  0  0  0  0  0  0  0  0
   37.4180   31.3940   44.7010 H   0  0  0  0  0  0  0  0  0  0  0  0
   37.4170   30.1390   51.5780 C   0  0  0  0  0  0  0  0  0  0  0  0
   37.9180   30.6920   50.4070 C   0  0  0  0  0  0  0  0  0  0  0  0
   37.2410   30.5000   49.2000 C   0  0  0  0  0  0  0  0  0  0  0  0
   36.1080   29.7610   49.2800 N   0  0  0  0  0  0  0  0  0  0  0  0
   35.6360   29.2310   50.4290 C   0  0  0  0  0  0  0  0  0  0  0  0
   36.2960   29.4260   51.5700 N   0  0  0  0  0  0  0  0  0  0  0  0
   38.0800   30.3950   52.4210 H   0  0  0  0  0  0  0  0  0  0  0  0
   38.8210   31.2870   50.3070 H   0  0  0  0  0  0  0  0  0  0  0  0
   34.7190   28.6430   50.4530 H   0  0  0  0  0  0  0  0  0  0  0  0
   39.7020   32.8730   45.5880 C   0  0  0  0  0  0  0  0  0  0  0  0
   40.2480   33.4140   46.4150 H   0  0  0  0  0  0  0  0  0  0  0  0
   39.1200   33.5550   44.9670 H   0  0  0  0  0  0  0  0  0  0  0  0
   40.6450   31.9750   44.8510 C   0  0  0  0  0  0  0  0  0  0  0  0
   40.7080   30.9960   45.3830 H   0  0  0  0  0  0  0  0  0  0  0  0
   41.6610   32.4580   44.9340 H   0  0  0  0  0  0  0  0  0  0  0  0
   40.3780   31.8090   43.4650 N   0  0  0  0  0  0  0  0  0  0  0  0
   39.4960   32.7260   42.8540 C   0  0  0  0  0  0  0  0  0  0  0  0
   40.0150   33.1340   41.9370 H   0  0  0  0  0  0  0  0  0  0  0  0
   38.2220   32.1130   42.3240 C   0  0  0  0  0  0  0  0  0  0  0  0
   37.7240   32.8470   41.6580 H   0  0  0  0  0  0  0  0  0  0  0  0
   38.4870   30.9120   41.6310 O   0  0  0  0  0  0  0  0  0  0  0  0
   38.9730   30.0310   42.5980 C   0  0  0  0  0  0  0  0  0  0  0  0
   40.3530   30.4820   42.9720 C   0  0  0  0  0  0  0  0  0  0  0  0
  1 10  1  0  0  0  0
  2  1  1  0  0  0  0
  3  4  1  0  0  0  0
  3  2  2  0  0  0  0
  4  5  1  0  0  0  0
  5  1  2  0  0  0  0
  6  2  1  0  0  0  0
  7  3  1  0  0  0  0
  8 14  1  0  0  0  0
  9  8  2  0  0  0  0
 10 11  2  0  0  0  0
 10  9  1  0  0  0  0
 11 12  1  0  0  0  0
 12 16  1  0  0  0  0
 12 13  2  0  0  0  0
 13  8  1  0  0  0  0
 15  9  1  0  0  0  0
 17  4  1  0  0  0  0
 17 18  1  0  0  0  0
 19 17  1  0  0  0  0
 20 22  1  0  0  0  0
 20 21  1  0  0  0  0
 20 17  1  0  0  0  0
 23 20  1  0  0  0  0
 24 23  1  0  0  0  0
 25 24  1  0  0  0  0
 26 24  1  0  0  0  0
 27 26  1  0  0  0  0
 28 26  1  0  0  0  0
 28 29  1  0  0  0  0
 29 30  1  0  0  0  0
 30 23  1  0  0  0  0
M  END
>  <minimizedAffinity>
-5.19289112

>  <minimizedRMSD>
2.82219887

$$$$
