
 OpenBabel03272509183D

 32 34  0  0  1  0  0  0  0  0999 V2000
   37.3450   31.4320   47.2530 C   0  0  0  0  0  0  0  0  0  0  0  0
   36.9530   31.0790   48.5480 C   0  0  0  0  0  0  0  0  0  0  0  0
   37.6500   31.7230   49.5730 C   0  0  0  0  0  0  0  0  0  0  0  0
   38.6610   32.6490   49.2730 C   0  0  0  0  0  0  0  0  0  0  0  0
   38.9790   32.9320   47.9530 C   0  0  0  0  0  0  0  0  0  0  0  0
   38.3090   32.3160   46.9240 C   0  0  0  0  0  0  0  0  0  0  0  0
   37.3450   31.4490   50.5730 H   0  0  0  0  0  0  0  0  0  0  0  0
   39.1040   33.0580   50.1560 H   0  0  0  0  0  0  0  0  0  0  0  0
   39.7660   33.6540   47.9380 H   0  0  0  0  0  0  0  0  0  0  0  0
   34.6990   30.1920   48.1310 C   0  0  0  0  0  0  0  0  0  0  0  0
   35.9160   30.1310   48.8330 C   0  0  0  0  0  0  0  0  0  0  0  0
   36.0610   29.1310   49.7910 C   0  0  0  0  0  0  0  0  0  0  0  0
   35.0240   28.2690   49.9990 N   0  0  0  0  0  0  0  0  0  0  0  0
   33.8620   28.3690   49.2920 C   0  0  0  0  0  0  0  0  0  0  0  0
   33.7070   29.3180   48.3720 N   0  0  0  0  0  0  0  0  0  0  0  0
   34.5550   30.9580   47.3800 H   0  0  0  0  0  0  0  0  0  0  0  0
   33.1430   27.6030   49.5840 H   0  0  0  0  0  0  0  0  0  0  0  0
   37.3180   29.0180   50.5630 C   0  0  0  0  0  0  0  0  0  0  0  0
   38.1340   29.5130   50.0270 H   0  0  0  0  0  0  0  0  0  0  0  0
   37.1840   29.5720   51.5320 H   0  0  0  0  0  0  0  0  0  0  0  0
   37.5970   27.9670   50.7970 H   0  0  0  0  0  0  0  0  0  0  0  0
   36.6870   30.8240   46.1780 O   0  0  0  0  0  0  0  0  0  0  0  0
   37.0460   30.7540   45.2540 H   0  0  0  0  0  0  0  0  0  0  0  0
   38.6460   32.6210   45.6320 O   0  0  0  0  0  0  0  0  0  0  0  0
   38.0870   30.6870   44.3630 H   0  0  0  0  0  0  0  0  0  0  0  0
   39.0800   30.6020   44.6640 N   0  0  0  0  0  0  0  0  0  0  0  0
   39.5710   31.9560   44.8360 C   0  0  1  0  0  3  0  0  0  0  0  0
   39.6990   32.6830   43.5170 C   0  0  0  0  0  3  0  0  0  0  0  0
   40.4080   33.5250   43.6680 H   0  0  0  0  0  0  0  0  0  0  0  0
   40.1970   31.9020   42.4990 O   0  0  0  0  0  0  0  0  0  0  0  0
   39.5270   30.7020   42.3410 C   0  0  0  0  0  2  0  0  0  0  0  0
   39.7770   29.8980   43.6110 C   0  0  0  0  0  2  0  0  0  0  0  0
  1  2  1  0  0  0  0
  2 11  1  0  0  0  0
  2  3  2  0  0  0  0
  3  7  1  0  0  0  0
  4  3  1  0  0  0  0
  4  8  1  0  0  0  0
  5  4  2  0  0  0  0
  6  1  2  0  0  0  0
  6  5  1  0  0  0  0
  9  5  1  0  0  0  0
 10 15  2  0  0  0  0
 10 11  1  0  0  0  0
 11 12  2  0  0  0  0
 12 13  1  0  0  0  0
 12 18  1  0  0  0  0
 14 17  1  0  0  0  0
 14 13  2  0  0  0  0
 15 14  1  0  0  0  0
 16 10  1  0  0  0  0
 18 21  1  0  0  0  0
 18 20  1  0  0  0  0
 19 18  1  0  0  0  0
 22  1  1  0  0  0  0
 23 22  1  0  0  0  0
 24  6  1  0  0  0  0
 25 26  1  0  0  0  0
 26 27  1  0  0  0  0
 27 24  1  1  0  0  0
 28 29  1  0  0  0  0
 28 27  1  0  0  0  0
 30 28  1  0  0  0  0
 31 30  1  0  0  0  0
 31 32  1  0  0  0  0
 32 26  1  0  0  0  0
M  END
>  <minimizedAffinity>
-6.12537146

>  <minimizedRMSD>
2.69401717

$$$$
