
 OpenBabel03272510003D

 20 21  0  0  0  0  0  0  0  0999 V2000
   38.2970   32.9010   49.4580 C   0  0  0  0  0  0  0  0  0  0  0  0
   38.9600   32.9780   48.2250 C   0  0  0  0  0  0  0  0  0  0  0  0
   38.5240   32.1640   47.1890 C   0  0  0  0  0  0  0  0  0  0  0  0
   37.4710   31.3280   47.4310 N   0  0  0  0  0  0  0  0  0  0  0  0
   36.8520   31.2720   48.6240 C   0  0  0  0  0  0  0  0  0  0  0  0
   37.2700   32.0550   49.6200 N   0  0  0  0  0  0  0  0  0  0  0  0
   38.6830   33.5610   50.2230 H   0  0  0  0  0  0  0  0  0  0  0  0
   39.7900   33.6360   48.0340 H   0  0  0  0  0  0  0  0  0  0  0  0
   39.0970   32.1340   45.8900 N   0  0  0  0  0  0  0  0  0  0  0  0
   38.3680   32.5600   44.6920 C   0  0  0  0  0  0  0  0  0  0  0  0
   37.8110   31.7190   44.2760 H   0  0  0  0  0  0  0  0  0  0  0  0
   39.4440   33.0470   43.7320 C   0  0  0  0  0  0  0  0  0  0  0  0
   39.0280   33.5510   42.8370 H   0  0  0  0  0  0  0  0  0  0  0  0
   40.1630   31.9540   43.2820 O   0  0  0  0  0  0  0  0  0  0  0  0
   40.5440   31.0890   44.2840 C   0  0  0  0  0  0  0  0  0  0  0  0
   40.4390   31.6830   45.6640 C   0  0  0  0  0  0  0  0  0  0  0  0
   35.7160   30.3320   48.7900 C   0  0  0  0  0  0  0  0  0  0  0  0
   34.8930   30.6560   49.8540 F   0  0  0  0  0  0  0  0  0  0  0  0
   34.9220   30.3000   47.6530 F   0  0  0  0  0  0  0  0  0  0  0  0
   36.1250   29.0290   48.9900 F   0  0  0  0  0  0  0  0  0  0  0  0
  1  6  1  0  0  0  0
  1  7  1  0  0  0  0
  2  1  2  0  0  0  0
  3  4  2  0  0  0  0
  3  2  1  0  0  0  0
  4  5  1  0  0  0  0
  5 17  1  0  0  0  0
  5  6  2  0  0  0  0
  8  2  1  0  0  0  0
  9  3  1  0  0  0  0
 10  9  1  0  0  0  0
 11 10  1  0  0  0  0
 12 10  1  0  0  0  0
 13 12  1  0  0  0  0
 14 12  1  0  0  0  0
 14 15  1  0  0  0  0
 15 16  1  0  0  0  0
 16  9  1  0  0  0  0
 17 20  1  0  0  0  0
 17 18  1  0  0  0  0
 19 17  1  0  0  0  0
M  END
>  <minimizedAffinity>
-5.45094299

>  <minimizedRMSD>
2.4426074

$$$$
