
 OpenBabel03272510003D

 20 21  0  0  0  0  0  0  0  0999 V2000
   38.3640   31.5460   50.0640 C   0  0  0  0  0  0  0  0  0  0  0  0
   38.5150   31.7490   48.6860 C   0  0  0  0  0  0  0  0  0  0  0  0
   37.5750   31.1940   47.8290 C   0  0  0  0  0  0  0  0  0  0  0  0
   36.5510   30.4770   48.3800 N   0  0  0  0  0  0  0  0  0  0  0  0
   36.4280   30.2950   49.7080 C   0  0  0  0  0  0  0  0  0  0  0  0
   37.3310   30.8280   50.5310 N   0  0  0  0  0  0  0  0  0  0  0  0
   39.1270   32.0040   50.6780 H   0  0  0  0  0  0  0  0  0  0  0  0
   39.3220   32.3140   48.2520 H   0  0  0  0  0  0  0  0  0  0  0  0
   37.6000   31.3170   46.4150 N   0  0  0  0  0  0  0  0  0  0  0  0
   36.7980   30.4680   45.5310 C   0  0  0  0  0  3  0  0  0  0  0  0
   37.3470   29.5580   45.2870 H   0  0  0  0  0  0  0  0  0  0  0  0
   36.5480   31.3190   44.2930 C   0  0  0  0  0  3  0  0  0  0  0  0
   35.8160   30.8640   43.5970 H   0  0  0  0  0  0  0  0  0  0  0  0
   37.7370   31.4480   43.5980 O   0  0  0  0  0  0  0  0  0  0  0  0
   38.8140   31.7760   44.3940 C   0  0  0  0  0  2  0  0  0  0  0  0
   38.4200   32.2910   45.7540 C   0  0  0  0  0  2  0  0  0  0  0  0
   35.2810   29.5000   50.2110 C   0  0  0  0  0  0  0  0  0  0  0  0
   35.3940   29.1710   51.5500 F   0  0  0  0  0  0  0  0  0  0  0  0
   34.0870   30.1900   50.0580 F   0  0  0  0  0  0  0  0  0  0  0  0
   35.1110   28.3130   49.5260 F   0  0  0  0  0  0  0  0  0  0  0  0
  1  6  1  0  0  0  0
  1  7  1  0  0  0  0
  2  1  2  0  0  0  0
  3  4  2  0  0  0  0
  3  2  1  0  0  0  0
  4  5  1  0  0  0  0
  5 17  1  0  0  0  0
  5  6  2  0  0  0  0
  8  2  1  0  0  0  0
  9  3  1  0  0  0  0
 10  9  1  0  0  0  0
 11 10  1  0  0  0  0
 12 10  1  0  0  0  0
 13 12  1  0  0  0  0
 14 12  1  0  0  0  0
 14 15  1  0  0  0  0
 15 16  1  0  0  0  0
 16  9  1  0  0  0  0
 17 18  1  0  0  0  0
 19 17  1  0  0  0  0
 20 17  1  0  0  0  0
M  END
>  <minimizedAffinity>
-4.97158861

>  <minimizedRMSD>
0.622803032

$$$$
