
 OpenBabel03272510003D

 20 21  0  0  0  0  0  0  0  0999 V2000
   38.1900   32.7780   49.4890 C   0  0  0  0  0  0  0  0  0  0  0  0
   38.8760   32.8310   48.2680 C   0  0  0  0  0  0  0  0  0  0  0  0
   38.4350   32.0250   47.2270 C   0  0  0  0  0  0  0  0  0  0  0  0
   37.3540   31.2210   47.4540 N   0  0  0  0  0  0  0  0  0  0  0  0
   36.7120   31.1880   48.6370 C   0  0  0  0  0  0  0  0  0  0  0  0
   37.1350   31.9620   49.6360 N   0  0  0  0  0  0  0  0  0  0  0  0
   38.5810   33.4290   50.2580 H   0  0  0  0  0  0  0  0  0  0  0  0
   39.7280   33.4630   48.0890 H   0  0  0  0  0  0  0  0  0  0  0  0
   39.0290   31.9730   45.9390 N   0  0  0  0  0  0  0  0  0  0  0  0
   40.3530   31.3920   45.6990 C   0  0  0  0  0  3  0  0  0  0  0  0
   41.1250   32.1510   45.8340 H   0  0  0  0  0  0  0  0  0  0  0  0
   40.3050   30.8920   44.2620 C   0  0  0  0  0  3  0  0  0  0  0  0
   41.1890   30.2820   43.9870 H   0  0  0  0  0  0  0  0  0  0  0  0
   40.2930   31.9860   43.4140 O   0  0  0  0  0  0  0  0  0  0  0  0
   39.3940   32.9640   43.7830 C   0  0  0  0  0  2  0  0  0  0  0  0
   38.3670   32.4920   44.7790 C   0  0  0  0  0  2  0  0  0  0  0  0
   35.5470   30.2820   48.7860 C   0  0  0  0  0  0  0  0  0  0  0  0
   34.8390   30.4960   49.9550 F   0  0  0  0  0  0  0  0  0  0  0  0
   34.6550   30.4340   47.7330 F   0  0  0  0  0  0  0  0  0  0  0  0
   35.9020   28.9480   48.7780 F   0  0  0  0  0  0  0  0  0  0  0  0
  1  6  1  0  0  0  0
  1  7  1  0  0  0  0
  2  1  2  0  0  0  0
  3  4  2  0  0  0  0
  3  2  1  0  0  0  0
  4  5  1  0  0  0  0
  5 17  1  0  0  0  0
  5  6  2  0  0  0  0
  8  2  1  0  0  0  0
  9  3  1  0  0  0  0
 10 11  1  0  0  0  0
 10  9  1  0  0  0  0
 12 10  1  0  0  0  0
 13 12  1  0  0  0  0
 14 15  1  0  0  0  0
 14 12  1  0  0  0  0
 15 16  1  0  0  0  0
 16  9  1  0  0  0  0
 17 18  1  0  0  0  0
 19 17  1  0  0  0  0
 20 17  1  0  0  0  0
M  END
>  <minimizedAffinity>
-5.40010977

>  <minimizedRMSD>
2.31468201

$$$$
