
 OpenBabel03272510293D

 27 29  0  0  0  0  0  0  0  0999 V2000
   37.1560   31.3080   49.2260 C   0  0  0  0  0  0  0  0  0  0  0  0
   37.3410   32.5530   49.8440 C   0  0  0  0  0  0  0  0  0  0  0  0
   38.2990   33.3860   49.2830 C   0  0  0  0  0  0  0  0  0  0  0  0
   38.9890   32.9610   48.1900 N   0  0  0  0  0  0  0  0  0  0  0  0
   38.7760   31.7470   47.6250 C   0  0  0  0  0  0  0  0  0  0  0  0
   37.8360   30.8950   48.1540 N   0  0  0  0  0  0  0  0  0  0  0  0
   36.8050   32.8920   50.6970 H   0  0  0  0  0  0  0  0  0  0  0  0
   38.5530   34.3700   49.6450 H   0  0  0  0  0  0  0  0  0  0  0  0
   36.1030   30.4070   49.7870 C   0  0  0  0  0  0  0  0  0  0  0  0
   36.1020   28.9780   49.6020 C   0  0  0  0  0  0  0  0  0  0  0  0
   36.6140   29.5100   50.9220 C   0  0  0  0  0  0  0  0  0  0  0  0
   35.1510   30.9440   49.9910 H   0  0  0  0  0  0  0  0  0  0  0  0
   36.9210   28.5060   48.9880 H   0  0  0  0  0  0  0  0  0  0  0  0
   35.1610   28.4200   49.5590 H   0  0  0  0  0  0  0  0  0  0  0  0
   35.9830   29.5520   51.8140 H   0  0  0  0  0  0  0  0  0  0  0  0
   37.7020   29.5060   51.1270 H   0  0  0  0  0  0  0  0  0  0  0  0
   39.4940   31.3030   46.4410 C   0  0  0  0  0  0  0  0  0  0  0  0
   40.2500   32.0480   46.0710 H   0  0  0  0  0  0  0  0  0  0  0  0
   40.0150   30.3570   46.6420 H   0  0  0  0  0  0  0  0  0  0  0  0
   38.5020   31.1750   45.3810 N   0  0  0  0  0  0  0  0  0  0  0  0
   38.1430   32.4240   44.7950 C   0  0  0  0  0  3  0  0  0  0  0  0
   37.2900   32.8380   45.3800 H   0  0  0  0  0  0  0  0  0  0  0  0
   37.6770   32.3260   43.3720 C   0  0  0  0  0  3  0  0  0  0  0  0
   37.7610   33.3330   42.9110 H   0  0  0  0  0  0  0  0  0  0  0  0
   38.4230   31.4460   42.5920 O   0  0  0  0  0  0  0  0  0  0  0  0
   38.2340   30.1770   43.1510 C   0  0  0  0  0  2  0  0  0  0  0  0
   38.9600   30.1710   44.4730 C   0  0  0  0  0  2  0  0  0  0  0  0
  1  9  1  0  0  0  0
  1  2  1  0  0  0  0
  2  7  1  0  0  0  0
  3  8  1  0  0  0  0
  3  2  2  0  0  0  0
  4  3  1  0  0  0  0
  5  6  1  0  0  0  0
  5  4  2  0  0  0  0
  6  1  2  0  0  0  0
  9 12  1  0  0  0  0
  9 11  1  0  0  0  0
 10  9  1  0  0  0  0
 10 11  1  0  0  0  0
 11 16  1  0  0  0  0
 11 15  1  0  0  0  0
 13 10  1  0  0  0  0
 14 10  1  0  0  0  0
 17 19  1  0  0  0  0
 17  5  1  0  0  0  0
 18 17  1  0  0  0  0
 20 17  1  0  0  0  0
 21 22  1  0  0  0  0
 21 20  1  0  0  0  0
 23 21  1  0  0  0  0
 24 23  1  0  0  0  0
 25 26  1  0  0  0  0
 25 23  1  0  0  0  0
 26 27  1  0  0  0  0
 27 20  1  0  0  0  0
M  END
>  <minimizedAffinity>
-5.15997744

>  <minimizedRMSD>
0.949016094

$$$$
