
 OpenBabel03272510293D

 27 29  0  0  0  0  0  0  0  0999 V2000
   37.1680   31.3060   49.2050 C   0  0  0  0  0  0  0  0  0  0  0  0
   37.3560   32.5540   49.8160 C   0  0  0  0  0  0  0  0  0  0  0  0
   38.3060   33.3870   49.2430 C   0  0  0  0  0  0  0  0  0  0  0  0
   38.9880   32.9600   48.1450 N   0  0  0  0  0  0  0  0  0  0  0  0
   38.7730   31.7430   47.5880 C   0  0  0  0  0  0  0  0  0  0  0  0
   37.8400   30.8900   48.1280 N   0  0  0  0  0  0  0  0  0  0  0  0
   36.8260   32.8950   50.6720 H   0  0  0  0  0  0  0  0  0  0  0  0
   38.5610   34.3740   49.5990 H   0  0  0  0  0  0  0  0  0  0  0  0
   36.1230   30.4040   49.7790 C   0  0  0  0  0  0  0  0  0  0  0  0
   36.1260   28.9740   49.6030 C   0  0  0  0  0  0  0  0  0  0  0  0
   36.6460   29.5170   50.9160 C   0  0  0  0  0  0  0  0  0  0  0  0
   35.1700   30.9390   49.9850 H   0  0  0  0  0  0  0  0  0  0  0  0
   36.9430   28.5020   48.9860 H   0  0  0  0  0  0  0  0  0  0  0  0
   35.1870   28.4120   49.5700 H   0  0  0  0  0  0  0  0  0  0  0  0
   36.0200   29.5620   51.8130 H   0  0  0  0  0  0  0  0  0  0  0  0
   37.7350   29.5180   51.1130 H   0  0  0  0  0  0  0  0  0  0  0  0
   39.4820   31.2950   46.3990 C   0  0  0  0  0  0  0  0  0  0  0  0
   40.5600   31.6130   46.3760 H   0  0  0  0  0  0  0  0  0  0  0  0
   39.4440   30.2010   46.3210 H   0  0  0  0  0  0  0  0  0  0  0  0
   38.8440   31.9540   45.2670 N   0  0  0  0  0  0  0  0  0  0  0  0
   39.7100   32.8550   44.5810 C   0  0  0  0  0  3  0  0  0  0  0  0
   39.6100   33.8540   45.0660 H   0  0  0  0  0  0  0  0  0  0  0  0
   39.3770   33.0490   43.1300 C   0  0  0  0  0  3  0  0  0  0  0  0
   40.2720   33.4620   42.6220 H   0  0  0  0  0  0  0  0  0  0  0  0
   39.0250   31.8750   42.4690 O   0  0  0  0  0  0  0  0  0  0  0  0
   37.8500   31.4220   43.0820 C   0  0  0  0  0  2  0  0  0  0  0  0
   38.2350   30.9440   44.4610 C   0  0  0  0  0  2  0  0  0  0  0  0
  1  9  1  0  0  0  0
  1  2  1  0  0  0  0
  2  7  1  0  0  0  0
  3  8  1  0  0  0  0
  3  2  2  0  0  0  0
  4  3  1  0  0  0  0
  5  6  1  0  0  0  0
  5  4  2  0  0  0  0
  6  1  2  0  0  0  0
  9 12  1  0  0  0  0
  9 11  1  0  0  0  0
 10  9  1  0  0  0  0
 10 11  1  0  0  0  0
 11 16  1  0  0  0  0
 11 15  1  0  0  0  0
 13 10  1  0  0  0  0
 14 10  1  0  0  0  0
 17  5  1  0  0  0  0
 18 17  1  0  0  0  0
 19 17  1  0  0  0  0
 20 17  1  0  0  0  0
 21 22  1  0  0  0  0
 21 20  1  0  0  0  0
 23 21  1  0  0  0  0
 24 23  1  0  0  0  0
 25 26  1  0  0  0  0
 25 23  1  0  0  0  0
 26 27  1  0  0  0  0
 27 20  1  0  0  0  0
M  END
>  <minimizedAffinity>
-5.15380335

>  <minimizedRMSD>
1.22877371

$$$$
