
 OpenBabel03272510293D

 27 29  0  0  0  0  0  0  0  0999 V2000
   37.4450   31.2680   48.9200 C   0  0  0  0  0  0  0  0  0  0  0  0
   37.5950   32.6110   49.2960 C   0  0  0  0  0  0  0  0  0  0  0  0
   38.5320   33.3510   48.5890 C   0  0  0  0  0  0  0  0  0  0  0  0
   39.2370   32.7490   47.5930 N   0  0  0  0  0  0  0  0  0  0  0  0
   39.0590   31.4460   47.2630 C   0  0  0  0  0  0  0  0  0  0  0  0
   38.1400   30.6810   47.9420 N   0  0  0  0  0  0  0  0  0  0  0  0
   37.0460   33.0870   50.0720 H   0  0  0  0  0  0  0  0  0  0  0  0
   38.7580   34.3910   48.7620 H   0  0  0  0  0  0  0  0  0  0  0  0
   36.4140   30.4580   49.6390 C   0  0  0  0  0  0  0  0  0  0  0  0
   36.4140   29.0180   49.6650 C   0  0  0  0  0  0  0  0  0  0  0  0
   36.9660   29.7370   50.8760 C   0  0  0  0  0  0  0  0  0  0  0  0
   35.4670   31.0200   49.7920 H   0  0  0  0  0  0  0  0  0  0  0  0
   37.2150   28.4610   49.1010 H   0  0  0  0  0  0  0  0  0  0  0  0
   35.4750   28.4590   49.7330 H   0  0  0  0  0  0  0  0  0  0  0  0
   36.3620   29.9090   51.7730 H   0  0  0  0  0  0  0  0  0  0  0  0
   38.0590   29.7620   51.0450 H   0  0  0  0  0  0  0  0  0  0  0  0
   39.7940   30.8090   46.1810 C   0  0  0  0  0  0  0  0  0  0  0  0
   40.7610   31.3250   45.9350 H   0  0  0  0  0  0  0  0  0  0  0  0
   40.0160   29.7640   46.4330 H   0  0  0  0  0  0  0  0  0  0  0  0
   38.9600   30.9280   44.9920 N   0  0  0  0  0  0  0  0  0  0  0  0
   37.5840   30.6550   45.2420 C   0  0  0  0  0  3  0  0  0  0  0  0
   37.4240   29.5620   45.1000 H   0  0  0  0  0  0  0  0  0  0  0  0
   36.6370   31.3510   44.3080 C   0  0  0  0  0  3  0  0  0  0  0  0
   35.6330   31.3660   44.7810 H   0  0  0  0  0  0  0  0  0  0  0  0
   36.9860   32.6690   44.0270 O   0  0  0  0  0  0  0  0  0  0  0  0
   38.2170   32.6100   43.3620 C   0  0  0  0  0  2  0  0  0  0  0  0
   39.2440   32.1880   44.3830 C   0  0  0  0  0  2  0  0  0  0  0  0
  1  2  1  0  0  0  0
  1  9  1  0  0  0  0
  2  7  1  0  0  0  0
  3  8  1  0  0  0  0
  3  2  2  0  0  0  0
  4  3  1  0  0  0  0
  5  4  2  0  0  0  0
  5  6  1  0  0  0  0
  6  1  2  0  0  0  0
  9 10  1  0  0  0  0
  9 12  1  0  0  0  0
  9 11  1  0  0  0  0
 10 14  1  0  0  0  0
 10 11  1  0  0  0  0
 11 16  1  0  0  0  0
 11 15  1  0  0  0  0
 13 10  1  0  0  0  0
 17 19  1  0  0  0  0
 17  5  1  0  0  0  0
 18 17  1  0  0  0  0
 20 21  1  0  0  0  0
 20 17  1  0  0  0  0
 22 21  1  0  0  0  0
 23 24  1  0  0  0  0
 23 21  1  0  0  0  0
 25 23  1  0  0  0  0
 26 25  1  0  0  0  0
 26 27  1  0  0  0  0
 27 20  1  0  0  0  0
M  END
>  <minimizedAffinity>
-4.57550669

>  <minimizedRMSD>
0.574736416

$$$$
