
 OpenBabel03272510293D

 27 29  0  0  0  0  0  0  0  0999 V2000
   37.1550   31.3080   49.2270 C   0  0  0  0  0  0  0  0  0  0  0  0
   37.3410   32.5540   49.8440 C   0  0  0  0  0  0  0  0  0  0  0  0
   38.2980   33.3870   49.2820 C   0  0  0  0  0  0  0  0  0  0  0  0
   38.9880   32.9610   48.1890 N   0  0  0  0  0  0  0  0  0  0  0  0
   38.7750   31.7470   47.6260 C   0  0  0  0  0  0  0  0  0  0  0  0
   37.8350   30.8950   48.1550 N   0  0  0  0  0  0  0  0  0  0  0  0
   36.8050   32.8930   50.6970 H   0  0  0  0  0  0  0  0  0  0  0  0
   38.5530   34.3710   49.6440 H   0  0  0  0  0  0  0  0  0  0  0  0
   36.1020   30.4070   49.7880 C   0  0  0  0  0  0  0  0  0  0  0  0
   36.1000   28.9790   49.6010 C   0  0  0  0  0  0  0  0  0  0  0  0
   36.6150   29.5090   50.9210 C   0  0  0  0  0  0  0  0  0  0  0  0
   35.1510   30.9450   49.9940 H   0  0  0  0  0  0  0  0  0  0  0  0
   36.9170   28.5070   48.9850 H   0  0  0  0  0  0  0  0  0  0  0  0
   35.1580   28.4220   49.5590 H   0  0  0  0  0  0  0  0  0  0  0  0
   35.9850   29.5500   51.8150 H   0  0  0  0  0  0  0  0  0  0  0  0
   37.7030   29.5030   51.1240 H   0  0  0  0  0  0  0  0  0  0  0  0
   39.4940   31.3020   46.4410 C   0  0  0  0  0  0  0  0  0  0  0  0
   40.2490   32.0470   46.0720 H   0  0  0  0  0  0  0  0  0  0  0  0
   40.0140   30.3560   46.6430 H   0  0  0  0  0  0  0  0  0  0  0  0
   38.5010   31.1740   45.3820 N   0  0  0  0  0  0  0  0  0  0  0  0
   38.1420   32.4220   44.7960 C   0  0  0  0  0  3  0  0  0  0  0  0
   37.2880   32.8360   45.3820 H   0  0  0  0  0  0  0  0  0  0  0  0
   37.6760   32.3260   43.3730 C   0  0  0  0  0  3  0  0  0  0  0  0
   37.7590   33.3320   42.9120 H   0  0  0  0  0  0  0  0  0  0  0  0
   38.4230   31.4460   42.5920 O   0  0  0  0  0  0  0  0  0  0  0  0
   38.2340   30.1760   43.1510 C   0  0  0  0  0  2  0  0  0  0  0  0
   38.9610   30.1710   44.4730 C   0  0  0  0  0  2  0  0  0  0  0  0
  1  9  1  0  0  0  0
  1  2  1  0  0  0  0
  2  7  1  0  0  0  0
  3  8  1  0  0  0  0
  3  2  2  0  0  0  0
  4  3  1  0  0  0  0
  5  6  1  0  0  0  0
  5  4  2  0  0  0  0
  6  1  2  0  0  0  0
  9 12  1  0  0  0  0
  9 11  1  0  0  0  0
 10  9  1  0  0  0  0
 10 11  1  0  0  0  0
 11 16  1  0  0  0  0
 11 15  1  0  0  0  0
 13 10  1  0  0  0  0
 14 10  1  0  0  0  0
 17 19  1  0  0  0  0
 17  5  1  0  0  0  0
 18 17  1  0  0  0  0
 20 17  1  0  0  0  0
 21 22  1  0  0  0  0
 21 20  1  0  0  0  0
 23 21  1  0  0  0  0
 24 23  1  0  0  0  0
 25 26  1  0  0  0  0
 25 23  1  0  0  0  0
 26 27  1  0  0  0  0
 27 20  1  0  0  0  0
M  END
>  <minimizedAffinity>
-5.16011763

>  <minimizedRMSD>
0.574044168

$$$$
