
 OpenBabel03272505223D

 27 29  0  0  0  0  0  0  0  0999 V2000
   37.9970   23.0290   33.5940 Br  0  0  0  0  0  0  0  0  0  0  0  0
   36.8860   24.1560   32.5100 C   0  0  0  0  0  0  0  0  0  0  0  0
   36.0000   23.5860   31.6200 C   0  0  0  0  0  0  0  0  0  0  0  0
   35.2160   24.4370   30.8560 C   0  0  0  0  0  0  0  0  0  0  0  0
   35.3330   25.8010   30.9970 C   0  0  0  0  0  0  0  0  0  0  0  0
   36.2320   26.3760   31.8990 C   0  0  0  0  0  0  0  0  0  0  0  0
   37.0070   25.5170   32.6550 C   0  0  0  0  0  0  0  0  0  0  0  0
   34.5150   23.9850   30.1510 H   0  0  0  0  0  0  0  0  0  0  0  0
   34.6990   26.4220   30.3770 H   0  0  0  0  0  0  0  0  0  0  0  0
   36.3190   27.4560   32.0050 H   0  0  0  0  0  0  0  0  0  0  0  0
   34.9820   19.9830   32.1880 C   0  0  0  0  0  0  0  0  0  0  0  0
   35.0250   21.3750   32.2580 C   0  0  0  0  0  0  0  0  0  0  0  0
   35.9530   22.1350   31.5470 C   0  0  0  0  0  0  0  0  0  0  0  0
   36.8070   21.4110   30.7850 N   0  0  0  0  0  0  0  0  0  0  0  0
   36.7660   20.0700   30.7160 C   0  0  0  0  0  0  0  0  0  0  0  0
   35.8690   19.3650   31.4060 N   0  0  0  0  0  0  0  0  0  0  0  0
   34.2540   19.4120   32.7480 H   0  0  0  0  0  0  0  0  0  0  0  0
   34.3000   21.8890   32.8990 H   0  0  0  0  0  0  0  0  0  0  0  0
   37.4570   19.5040   30.1000 H   0  0  0  0  0  0  0  0  0  0  0  0
   37.9100   26.1390   33.5640 N   0  0  0  0  0  0  0  0  0  0  0  0
   39.2860   26.4700   33.2270 C   0  0  0  0  0  3  0  0  0  0  0  0
   39.3810   27.5220   32.8900 H   0  0  0  0  0  0  0  0  0  0  0  0
   40.0560   26.3370   34.5060 C   0  0  0  0  0  3  0  0  0  0  0  0
   40.0650   25.2740   34.8500 H   0  0  0  0  0  0  0  0  0  0  0  0
   39.6410   27.1200   35.5420 O   0  0  0  0  0  0  0  0  0  0  0  0
   38.2980   27.3210   35.6850 C   0  0  0  0  0  2  0  0  0  0  0  0
   37.4020   26.4430   34.8790 C   0  0  0  0  0  2  0  0  0  0  0  0
  2  7  1  0  0  0  0
  2  1  1  0  0  0  0
  3  2  2  0  0  0  0
  4  5  2  0  0  0  0
  4  3  1  0  0  0  0
  5  6  1  0  0  0  0
  6 10  1  0  0  0  0
  6  7  2  0  0  0  0
  7 20  1  0  0  0  0
  8  4  1  0  0  0  0
  9  5  1  0  0  0  0
 11 12  1  0  0  0  0
 11 17  1  0  0  0  0
 12 18  1  0  0  0  0
 13  3  1  0  0  0  0
 13 12  2  0  0  0  0
 14 13  1  0  0  0  0
 15 14  2  0  0  0  0
 15 16  1  0  0  0  0
 16 11  2  0  0  0  0
 19 15  1  0  0  0  0
 20 27  1  0  0  0  0
 21 20  1  0  0  0  0
 21 23  1  0  0  0  0
 22 21  1  0  0  0  0
 23 24  1  0  0  0  0
 23 25  1  0  0  0  0
 25 26  1  0  0  0  0
 27 26  1  0  0  0  0
M  END
>  <minimizedAffinity>
-5.09936523

$$$$

 OpenBabel03272505223D

 27 29  0  0  0  0  0  0  0  0999 V2000
   38.4540   26.5840   34.8600 Br  0  0  0  0  0  0  0  0  0  0  0  0
   37.9350   25.0190   33.8800 C   0  0  0  0  0  0  0  0  0  0  0  0
   37.4050   25.1530   32.6140 C   0  0  0  0  0  0  0  0  0  0  0  0
   37.0430   23.9960   31.9410 C   0  0  0  0  0  0  0  0  0  0  0  0
   37.2160   22.7660   32.5340 C   0  0  0  0  0  0  0  0  0  0  0  0
   37.7530   22.6330   33.8170 C   0  0  0  0  0  0  0  0  0  0  0  0
   38.1100   23.7940   34.4770 C   0  0  0  0  0  0  0  0  0  0  0  0
   36.6240   24.1020   30.9380 H   0  0  0  0  0  0  0  0  0  0  0  0
   36.9180   21.8930   31.9670 H   0  0  0  0  0  0  0  0  0  0  0  0
   37.8870   21.6570   34.2800 H   0  0  0  0  0  0  0  0  0  0  0  0
   38.0920   28.3760   30.7480 C   0  0  0  0  0  0  0  0  0  0  0  0
   38.2280   27.0870   31.2610 C   0  0  0  0  0  0  0  0  0  0  0  0
   37.2640   26.4960   32.0780 C   0  0  0  0  0  0  0  0  0  0  0  0
   36.1860   27.2780   32.3300 N   0  0  0  0  0  0  0  0  0  0  0  0
   36.0540   28.5200   31.8360 C   0  0  0  0  0  0  0  0  0  0  0  0
   36.9900   29.0620   31.0580 N   0  0  0  0  0  0  0  0  0  0  0  0
   38.8520   28.8150   30.1160 H   0  0  0  0  0  0  0  0  0  0  0  0
   39.1310   26.5170   31.0110 H   0  0  0  0  0  0  0  0  0  0  0  0
   35.1840   29.1330   32.0480 H   0  0  0  0  0  0  0  0  0  0  0  0
   38.6530   23.6200   35.7820 N   0  0  0  0  0  0  0  0  0  0  0  0
   40.0770   23.4790   36.0460 C   0  0  0  0  0  3  0  0  0  0  0  0
   40.5390   24.4510   36.3140 H   0  0  0  0  0  0  0  0  0  0  0  0
   40.1780   22.5870   37.2450 C   0  0  0  0  0  3  0  0  0  0  0  0
   39.8010   21.5630   37.0060 H   0  0  0  0  0  0  0  0  0  0  0  0
   39.5480   23.0230   38.3730 O   0  0  0  0  0  0  0  0  0  0  0  0
   38.3550   23.6690   38.2220 C   0  0  0  0  0  2  0  0  0  0  0  0
   37.7160   23.5870   36.8780 C   0  0  0  0  0  2  0  0  0  0  0  0
  2  7  1  0  0  0  0
  2  1  1  0  0  0  0
  3  2  2  0  0  0  0
  4  5  2  0  0  0  0
  4  3  1  0  0  0  0
  5  6  1  0  0  0  0
  6 10  1  0  0  0  0
  6  7  2  0  0  0  0
  7 20  1  0  0  0  0
  8  4  1  0  0  0  0
  9  5  1  0  0  0  0
 11 16  2  0  0  0  0
 11 12  1  0  0  0  0
 12 13  2  0  0  0  0
 13 14  1  0  0  0  0
 13  3  1  0  0  0  0
 15 19  1  0  0  0  0
 15 14  2  0  0  0  0
 16 15  1  0  0  0  0
 17 11  1  0  0  0  0
 18 12  1  0  0  0  0
 20 21  1  0  0  0  0
 20 27  1  0  0  0  0
 21 22  1  0  0  0  0
 21 23  1  0  0  0  0
 23 25  1  0  0  0  0
 24 23  1  0  0  0  0
 26 25  1  0  0  0  0
 27 26  1  0  0  0  0
M  END
>  <minimizedAffinity>
-4.74700117

$$$$

 OpenBabel03272505223D

 27 29  0  0  0  0  0  0  0  0999 V2000
   38.6110   25.8140   34.7110 Br  0  0  0  0  0  0  0  0  0  0  0  0
   37.9880   24.2150   33.8540 C   0  0  0  0  0  0  0  0  0  0  0  0
   37.9600   23.0300   34.5610 C   0  0  0  0  0  0  0  0  0  0  0  0
   37.5030   21.8980   33.9040 C   0  0  0  0  0  0  0  0  0  0  0  0
   37.0940   21.9760   32.5920 C   0  0  0  0  0  0  0  0  0  0  0  0
   37.1240   23.1770   31.8780 C   0  0  0  0  0  0  0  0  0  0  0  0
   37.5820   24.2980   32.5440 C   0  0  0  0  0  0  0  0  0  0  0  0
   37.4810   20.9600   34.4630 H   0  0  0  0  0  0  0  0  0  0  0  0
   36.7460   21.0630   32.1230 H   0  0  0  0  0  0  0  0  0  0  0  0
   36.7990   23.2300   30.8410 H   0  0  0  0  0  0  0  0  0  0  0  0
   40.1350   22.7070   37.6440 C   0  0  0  0  0  0  0  0  0  0  0  0
   39.7030   22.6830   36.3190 C   0  0  0  0  0  0  0  0  0  0  0  0
   38.4120   23.0550   35.9420 C   0  0  0  0  0  0  0  0  0  0  0  0
   37.6160   23.4400   36.9680 N   0  0  0  0  0  0  0  0  0  0  0  0
   38.0320   23.4650   38.2450 C   0  0  0  0  0  0  0  0  0  0  0  0
   39.2700   23.1040   38.5800 N   0  0  0  0  0  0  0  0  0  0  0  0
   41.1400   22.4140   37.9150 H   0  0  0  0  0  0  0  0  0  0  0  0
   40.4070   22.3580   35.5450 H   0  0  0  0  0  0  0  0  0  0  0  0
   37.3810   23.7760   39.0550 H   0  0  0  0  0  0  0  0  0  0  0  0
   37.5970   25.5030   31.7870 N   0  0  0  0  0  0  0  0  0  0  0  0
   38.7540   25.9640   31.0360 C   0  0  0  0  0  3  0  0  0  0  0  0
   38.7000   25.6550   29.9720 H   0  0  0  0  0  0  0  0  0  0  0  0
   38.6880   27.4610   31.0730 C   0  0  0  0  0  3  0  0  0  0  0  0
   38.8230   27.8340   32.1170 H   0  0  0  0  0  0  0  0  0  0  0  0
   37.5590   28.0250   30.5590 O   0  0  0  0  0  0  0  0  0  0  0  0
   36.3750   27.3800   30.7730 C   0  0  0  0  0  2  0  0  0  0  0  0
   36.3840   26.2850   31.7830 C   0  0  0  0  0  2  0  0  0  0  0  0
  2  3  1  0  0  0  0
  2  1  1  0  0  0  0
  3 13  1  0  0  0  0
  4  8  1  0  0  0  0
  4  3  2  0  0  0  0
  5  4  1  0  0  0  0
  6  7  1  0  0  0  0
  6  5  2  0  0  0  0
  7  2  2  0  0  0  0
  9  5  1  0  0  0  0
 10  6  1  0  0  0  0
 11 17  1  0  0  0  0
 11 16  1  0  0  0  0
 12 11  2  0  0  0  0
 13 12  1  0  0  0  0
 13 14  2  0  0  0  0
 14 15  1  0  0  0  0
 15 16  2  0  0  0  0
 15 19  1  0  0  0  0
 18 12  1  0  0  0  0
 20  7  1  0  0  0  0
 21 23  1  0  0  0  0
 21 20  1  0  0  0  0
 22 21  1  0  0  0  0
 23 24  1  0  0  0  0
 25 26  1  0  0  0  0
 25 23  1  0  0  0  0
 26 27  1  0  0  0  0
 27 20  1  0  0  0  0
M  END
>  <minimizedAffinity>
-4.63122082

$$$$

 OpenBabel03272505223D

 27 29  0  0  0  0  0  0  0  0999 V2000
   38.6770   26.0290   34.9110 Br  0  0  0  0  0  0  0  0  0  0  0  0
   38.0480   24.4910   33.9520 C   0  0  0  0  0  0  0  0  0  0  0  0
   38.0350   23.2590   34.5720 C   0  0  0  0  0  0  0  0  0  0  0  0
   37.5730   22.1750   33.8430 C   0  0  0  0  0  0  0  0  0  0  0  0
   37.1460   22.3430   32.5450 C   0  0  0  0  0  0  0  0  0  0  0  0
   37.1610   23.5920   31.9190 C   0  0  0  0  0  0  0  0  0  0  0  0
   37.6240   24.6650   32.6570 C   0  0  0  0  0  0  0  0  0  0  0  0
   37.5620   21.1990   34.3350 H   0  0  0  0  0  0  0  0  0  0  0  0
   36.7940   21.4650   32.0180 H   0  0  0  0  0  0  0  0  0  0  0  0
   36.8210   23.7170   30.8920 H   0  0  0  0  0  0  0  0  0  0  0  0
   40.2360   22.6780   37.5980 C   0  0  0  0  0  0  0  0  0  0  0  0
   39.7870   22.7460   36.2810 C   0  0  0  0  0  0  0  0  0  0  0  0
   38.5060   23.1880   35.9450 C   0  0  0  0  0  0  0  0  0  0  0  0
   37.7390   23.5450   37.0040 N   0  0  0  0  0  0  0  0  0  0  0  0
   38.1730   23.4810   38.2730 C   0  0  0  0  0  0  0  0  0  0  0  0
   39.4000   23.0540   38.5690 N   0  0  0  0  0  0  0  0  0  0  0  0
   41.2330   22.3330   37.8370 H   0  0  0  0  0  0  0  0  0  0  0  0
   40.4670   22.4390   35.4790 H   0  0  0  0  0  0  0  0  0  0  0  0
   37.5450   23.7700   39.1100 H   0  0  0  0  0  0  0  0  0  0  0  0
   37.6240   25.9210   31.9860 N   0  0  0  0  0  0  0  0  0  0  0  0
   36.5190   26.8650   32.0510 C   0  0  0  0  0  3  0  0  0  0  0  0
   36.6820   27.6300   32.8380 H   0  0  0  0  0  0  0  0  0  0  0  0
   36.5170   27.5740   30.7300 C   0  0  0  0  0  3  0  0  0  0  0  0
   36.2730   26.8620   29.9040 H   0  0  0  0  0  0  0  0  0  0  0  0
   37.6630   28.2360   30.4010 O   0  0  0  0  0  0  0  0  0  0  0  0
   38.8490   27.6630   30.7580 C   0  0  0  0  0  2  0  0  0  0  0  0
   38.7970   26.2450   31.2110 C   0  0  0  0  0  2  0  0  0  0  0  0
  2  3  1  0  0  0  0
  2  1  1  0  0  0  0
  3 13  1  0  0  0  0
  4  8  1  0  0  0  0
  4  3  2  0  0  0  0
  5  4  1  0  0  0  0
  6  5  2  0  0  0  0
  6  7  1  0  0  0  0
  7  2  2  0  0  0  0
  9  5  1  0  0  0  0
 10  6  1  0  0  0  0
 11 17  1  0  0  0  0
 11 16  1  0  0  0  0
 12 11  2  0  0  0  0
 13 12  1  0  0  0  0
 13 14  2  0  0  0  0
 14 15  1  0  0  0  0
 15 16  2  0  0  0  0
 15 19  1  0  0  0  0
 18 12  1  0  0  0  0
 20 21  1  0  0  0  0
 20  7  1  0  0  0  0
 21 22  1  0  0  0  0
 23 21  1  0  0  0  0
 24 23  1  0  0  0  0
 25 23  1  0  0  0  0
 25 26  1  0  0  0  0
 26 27  1  0  0  0  0
 27 20  1  0  0  0  0
M  END
>  <minimizedAffinity>
-4.60586691

$$$$

 OpenBabel03272505223D

 27 29  0  0  0  0  0  0  0  0999 V2000
   38.2030   27.0370   33.4300 Br  0  0  0  0  0  0  0  0  0  0  0  0
   37.1390   25.7400   32.5000 C   0  0  0  0  0  0  0  0  0  0  0  0
   36.1570   26.1630   31.6290 C   0  0  0  0  0  0  0  0  0  0  0  0
   35.4110   25.1930   30.9780 C   0  0  0  0  0  0  0  0  0  0  0  0
   35.6580   23.8580   31.2070 C   0  0  0  0  0  0  0  0  0  0  0  0
   36.6540   23.4320   32.0900 C   0  0  0  0  0  0  0  0  0  0  0  0
   37.3900   24.4090   32.7330 C   0  0  0  0  0  0  0  0  0  0  0  0
   34.6340   25.5280   30.2870 H   0  0  0  0  0  0  0  0  0  0  0  0
   35.0480   23.1390   30.6740 H   0  0  0  0  0  0  0  0  0  0  0  0
   36.8440   22.3750   32.2660 H   0  0  0  0  0  0  0  0  0  0  0  0
   36.4610   29.6980   30.3050 C   0  0  0  0  0  0  0  0  0  0  0  0
   36.6350   28.3240   30.4670 C   0  0  0  0  0  0  0  0  0  0  0  0
   35.9760   27.5950   31.4570 C   0  0  0  0  0  0  0  0  0  0  0  0
   35.1540   28.3300   32.2440 N   0  0  0  0  0  0  0  0  0  0  0  0
   34.9850   29.6530   32.0870 C   0  0  0  0  0  0  0  0  0  0  0  0
   35.6270   30.3290   31.1350 N   0  0  0  0  0  0  0  0  0  0  0  0
   36.9820   30.2450   29.5310 H   0  0  0  0  0  0  0  0  0  0  0  0
   37.3190   27.8000   29.7910 H   0  0  0  0  0  0  0  0  0  0  0  0
   34.3220   30.2280   32.7270 H   0  0  0  0  0  0  0  0  0  0  0  0
   38.3950   23.9380   33.6250 N   0  0  0  0  0  0  0  0  0  0  0  0
   38.1680   23.7160   35.0440 C   0  0  0  0  0  3  0  0  0  0  0  0
   37.9150   22.6580   35.2560 H   0  0  0  0  0  0  0  0  0  0  0  0
   39.4780   24.0070   35.7120 C   0  0  0  0  0  3  0  0  0  0  0  0
   39.7440   25.0860   35.6020 H   0  0  0  0  0  0  0  0  0  0  0  0
   40.5410   23.2600   35.3000 O   0  0  0  0  0  0  0  0  0  0  0  0
   40.6160   22.9430   33.9740 C   0  0  0  0  0  2  0  0  0  0  0  0
   39.6960   23.6760   33.0590 C   0  0  0  0  0  2  0  0  0  0  0  0
  2  7  1  0  0  0  0
  2  1  1  0  0  0  0
  3  2  2  0  0  0  0
  4  5  2  0  0  0  0
  4  3  1  0  0  0  0
  5  6  1  0  0  0  0
  6 10  1  0  0  0  0
  6  7  2  0  0  0  0
  7 20  1  0  0  0  0
  8  4  1  0  0  0  0
  9  5  1  0  0  0  0
 11 12  2  0  0  0  0
 11 16  1  0  0  0  0
 12 13  1  0  0  0  0
 13  3  1  0  0  0  0
 13 14  2  0  0  0  0
 15 14  1  0  0  0  0
 15 19  1  0  0  0  0
 16 15  2  0  0  0  0
 17 11  1  0  0  0  0
 18 12  1  0  0  0  0
 20 21  1  0  0  0  0
 21 22  1  0  0  0  0
 21 23  1  0  0  0  0
 24 23  1  0  0  0  0
 25 23  1  0  0  0  0
 26 25  1  0  0  0  0
 27 20  1  0  0  0  0
 27 26  1  0  0  0  0
M  END
>  <minimizedAffinity>
-4.57901716

$$$$

 OpenBabel03272505223D

 27 29  0  0  0  0  0  0  0  0999 V2000
   37.2740   25.2900   32.7670 Br  0  0  0  0  0  0  0  0  0  0  0  0
   38.9850   26.0500   33.1820 C   0  0  0  0  0  0  0  0  0  0  0  0
   39.6330   25.6770   34.3410 C   0  0  0  0  0  0  0  0  0  0  0  0
   40.8680   26.2510   34.6020 C   0  0  0  0  0  0  0  0  0  0  0  0
   41.4110   27.1590   33.7220 C   0  0  0  0  0  0  0  0  0  0  0  0
   40.7530   27.5350   32.5480 C   0  0  0  0  0  0  0  0  0  0  0  0
   39.5230   26.9560   32.2990 C   0  0  0  0  0  0  0  0  0  0  0  0
   41.3820   25.9560   35.5200 H   0  0  0  0  0  0  0  0  0  0  0  0
   42.3780   27.5780   33.9710 H   0  0  0  0  0  0  0  0  0  0  0  0
   41.1890   28.2530   31.8560 H   0  0  0  0  0  0  0  0  0  0  0  0
   37.5620   24.1580   37.1230 C   0  0  0  0  0  0  0  0  0  0  0  0
   38.1920   25.0860   36.2970 C   0  0  0  0  0  0  0  0  0  0  0  0
   38.9750   24.7110   35.2040 C   0  0  0  0  0  0  0  0  0  0  0  0
   39.0700   23.3730   35.0140 N   0  0  0  0  0  0  0  0  0  0  0  0
   38.4610   22.4780   35.8100 C   0  0  0  0  0  0  0  0  0  0  0  0
   37.7200   22.8610   36.8480 N   0  0  0  0  0  0  0  0  0  0  0  0
   36.9600   24.4700   37.9660 H   0  0  0  0  0  0  0  0  0  0  0  0
   38.0680   26.1530   36.5170 H   0  0  0  0  0  0  0  0  0  0  0  0
   38.5480   21.4090   35.6430 H   0  0  0  0  0  0  0  0  0  0  0  0
   38.8810   27.3620   31.0950 N   0  0  0  0  0  0  0  0  0  0  0  0
   39.2090   26.8160   29.7870 C   0  0  0  0  0  3  0  0  0  0  0  0
   38.5290   25.9850   29.5100 H   0  0  0  0  0  0  0  0  0  0  0  0
   38.9760   27.9310   28.8140 C   0  0  0  0  0  3  0  0  0  0  0  0
   39.6960   28.7660   28.9940 H   0  0  0  0  0  0  0  0  0  0  0  0
   37.7160   28.4510   28.7870 O   0  0  0  0  0  0  0  0  0  0  0  0
   37.0490   28.5580   29.9730 C   0  0  0  0  0  2  0  0  0  0  0  0
   37.8560   28.3700   31.2120 C   0  0  0  0  0  2  0  0  0  0  0  0
  1  2  1  0  0  0  0
  2  3  1  0  0  0  0
  3  4  2  0  0  0  0
  3 13  1  0  0  0  0
  4  8  1  0  0  0  0
  5  9  1  0  0  0  0
  5  4  1  0  0  0  0
  6  5  2  0  0  0  0
  7  6  1  0  0  0  0
  7  2  2  0  0  0  0
 10  6  1  0  0  0  0
 11 17  1  0  0  0  0
 12 18  1  0  0  0  0
 12 11  2  0  0  0  0
 13 12  1  0  0  0  0
 14 13  2  0  0  0  0
 14 15  1  0  0  0  0
 15 16  2  0  0  0  0
 16 11  1  0  0  0  0
 19 15  1  0  0  0  0
 20 27  1  0  0  0  0
 20  7  1  0  0  0  0
 21 20  1  0  0  0  0
 22 21  1  0  0  0  0
 23 24  1  0  0  0  0
 23 21  1  0  0  0  0
 25 23  1  0  0  0  0
 25 26  1  0  0  0  0
 26 27  1  0  0  0  0
M  END
>  <minimizedAffinity>
-4.43096018

$$$$

 OpenBabel03272505223D

 27 29  0  0  0  0  0  0  0  0999 V2000
   38.3240   27.1190   33.3350 Br  0  0  0  0  0  0  0  0  0  0  0  0
   37.1380   25.9080   32.4360 C   0  0  0  0  0  0  0  0  0  0  0  0
   37.2770   24.5490   32.6310 C   0  0  0  0  0  0  0  0  0  0  0  0
   36.3990   23.7100   31.9630 C   0  0  0  0  0  0  0  0  0  0  0  0
   35.4300   24.2340   31.1380 C   0  0  0  0  0  0  0  0  0  0  0  0
   35.2920   25.6110   30.9420 C   0  0  0  0  0  0  0  0  0  0  0  0
   36.1730   26.4370   31.6140 C   0  0  0  0  0  0  0  0  0  0  0  0
   36.5080   22.6340   32.1170 H   0  0  0  0  0  0  0  0  0  0  0  0
   34.7690   23.5360   30.6380 H   0  0  0  0  0  0  0  0  0  0  0  0
   34.5230   26.0190   30.2880 H   0  0  0  0  0  0  0  0  0  0  0  0
   40.6140   23.3140   33.9250 C   0  0  0  0  0  0  0  0  0  0  0  0
   39.6040   23.7480   33.0690 C   0  0  0  0  0  0  0  0  0  0  0  0
   38.3310   24.0970   33.5220 C   0  0  0  0  0  0  0  0  0  0  0  0
   38.1600   23.9800   34.8620 N   0  0  0  0  0  0  0  0  0  0  0  0
   39.1340   23.5630   35.6880 C   0  0  0  0  0  0  0  0  0  0  0  0
   40.3420   23.2340   35.2300 N   0  0  0  0  0  0  0  0  0  0  0  0
   41.5940   23.0470   33.5530 H   0  0  0  0  0  0  0  0  0  0  0  0
   39.8200   23.8150   31.9970 H   0  0  0  0  0  0  0  0  0  0  0  0
   38.9810   23.4750   36.7580 H   0  0  0  0  0  0  0  0  0  0  0  0
   36.0030   27.8330   31.3910 N   0  0  0  0  0  0  0  0  0  0  0  0
   36.6190   28.5500   30.2860 C   0  0  0  0  0  3  0  0  0  0  0  0
   35.9290   28.6380   29.4220 H   0  0  0  0  0  0  0  0  0  0  0  0
   36.8760   29.9350   30.7970 C   0  0  0  0  0  3  0  0  0  0  0  0
   37.6330   29.9150   31.6190 H   0  0  0  0  0  0  0  0  0  0  0  0
   35.7860   30.6260   31.2360 O   0  0  0  0  0  0  0  0  0  0  0  0
   34.8170   29.9270   31.8970 C   0  0  0  0  0  2  0  0  0  0  0  0
   35.1680   28.5450   32.3290 C   0  0  0  0  0  2  0  0  0  0  0  0
  2  3  1  0  0  0  0
  2  1  1  0  0  0  0
  3 13  1  0  0  0  0
  4  8  1  0  0  0  0
  4  3  2  0  0  0  0
  5  4  1  0  0  0  0
  6  5  2  0  0  0  0
  6  7  1  0  0  0  0
  7  2  2  0  0  0  0
  9  5  1  0  0  0  0
 10  6  1  0  0  0  0
 11 16  1  0  0  0  0
 12 13  1  0  0  0  0
 12 11  2  0  0  0  0
 13 14  2  0  0  0  0
 14 15  1  0  0  0  0
 15 19  1  0  0  0  0
 16 15  2  0  0  0  0
 17 11  1  0  0  0  0
 18 12  1  0  0  0  0
 20  7  1  0  0  0  0
 20 27  1  0  0  0  0
 21 23  1  0  0  0  0
 21 20  1  0  0  0  0
 22 21  1  0  0  0  0
 23 25  1  0  0  0  0
 23 24  1  0  0  0  0
 25 26  1  0  0  0  0
 26 27  1  0  0  0  0
M  END
>  <minimizedAffinity>
-4.41584635

$$$$

 OpenBabel03272505223D

 27 29  0  0  0  0  0  0  0  0999 V2000
   37.1580   25.2530   32.6140 Br  0  0  0  0  0  0  0  0  0  0  0  0
   38.8440   25.9130   33.2470 C   0  0  0  0  0  0  0  0  0  0  0  0
   39.4540   26.9630   32.5920 C   0  0  0  0  0  0  0  0  0  0  0  0
   40.6720   27.4090   33.0820 C   0  0  0  0  0  0  0  0  0  0  0  0
   41.2360   26.8110   34.1850 C   0  0  0  0  0  0  0  0  0  0  0  0
   40.6170   25.7470   34.8470 C   0  0  0  0  0  0  0  0  0  0  0  0
   39.4030   25.3120   34.3490 C   0  0  0  0  0  0  0  0  0  0  0  0
   41.1540   28.2410   32.5630 H   0  0  0  0  0  0  0  0  0  0  0  0
   42.1880   27.1960   34.5290 H   0  0  0  0  0  0  0  0  0  0  0  0
   41.0690   25.2790   35.7200 H   0  0  0  0  0  0  0  0  0  0  0  0
   36.9680   28.8360   30.4340 C   0  0  0  0  0  0  0  0  0  0  0  0
   37.6190   28.2980   31.5430 C   0  0  0  0  0  0  0  0  0  0  0  0
   38.7750   27.5250   31.4360 C   0  0  0  0  0  0  0  0  0  0  0  0
   39.2130   27.3420   30.1670 N   0  0  0  0  0  0  0  0  0  0  0  0
   38.5870   27.8600   29.0970 C   0  0  0  0  0  0  0  0  0  0  0  0
   37.4830   28.5950   29.2260 N   0  0  0  0  0  0  0  0  0  0  0  0
   36.0720   29.4320   30.5390 H   0  0  0  0  0  0  0  0  0  0  0  0
   37.2020   28.4910   32.5380 H   0  0  0  0  0  0  0  0  0  0  0  0
   38.9510   27.7040   28.0870 H   0  0  0  0  0  0  0  0  0  0  0  0
   38.8020   24.2270   35.0480 N   0  0  0  0  0  0  0  0  0  0  0  0
   39.0090   22.8320   34.6950 C   0  0  0  0  0  3  0  0  0  0  0  0
   39.8180   22.3740   35.2990 H   0  0  0  0  0  0  0  0  0  0  0  0
   37.7320   22.1320   35.0500 C   0  0  0  0  0  3  0  0  0  0  0  0
   36.8930   22.4970   34.4090 H   0  0  0  0  0  0  0  0  0  0  0  0
   37.3430   22.2190   36.3540 O   0  0  0  0  0  0  0  0  0  0  0  0
   37.5670   23.3970   37.0060 C   0  0  0  0  0  2  0  0  0  0  0  0
   37.9480   24.5640   36.1620 C   0  0  0  0  0  2  0  0  0  0  0  0
  1  2  1  0  0  0  0
  2  7  1  0  0  0  0
  3  4  1  0  0  0  0
  3  2  2  0  0  0  0
  4  5  2  0  0  0  0
  5  9  1  0  0  0  0
  5  6  1  0  0  0  0
  6 10  1  0  0  0  0
  7  6  2  0  0  0  0
  7 20  1  0  0  0  0
  8  4  1  0  0  0  0
 11 17  1  0  0  0  0
 11 12  1  0  0  0  0
 12 18  1  0  0  0  0
 13 12  2  0  0  0  0
 13  3  1  0  0  0  0
 14 13  1  0  0  0  0
 15 16  1  0  0  0  0
 15 14  2  0  0  0  0
 16 11  2  0  0  0  0
 19 15  1  0  0  0  0
 20 27  1  0  0  0  0
 21 20  1  0  0  0  0
 21 23  1  0  0  0  0
 21 22  1  0  0  0  0
 23 25  1  0  0  0  0
 24 23  1  0  0  0  0
 25 26  1  0  0  0  0
 27 26  1  0  0  0  0
M  END
>  <minimizedAffinity>
-4.40882301

$$$$

 OpenBabel03272505223D

 27 29  0  0  0  0  0  0  0  0999 V2000
   40.0170   25.1540   31.6570 Br  0  0  0  0  0  0  0  0  0  0  0  0
   39.2670   25.9230   33.2460 C   0  0  0  0  0  0  0  0  0  0  0  0
   40.0730   26.6520   34.0960 C   0  0  0  0  0  0  0  0  0  0  0  0
   39.4900   27.1890   35.2340 C   0  0  0  0  0  0  0  0  0  0  0  0
   38.1530   26.9910   35.4880 C   0  0  0  0  0  0  0  0  0  0  0  0
   37.3380   26.2520   34.6250 C   0  0  0  0  0  0  0  0  0  0  0  0
   37.9310   25.7210   33.4950 C   0  0  0  0  0  0  0  0  0  0  0  0
   40.1290   27.7660   35.9070 H   0  0  0  0  0  0  0  0  0  0  0  0
   37.7450   27.4310   36.3890 H   0  0  0  0  0  0  0  0  0  0  0  0
   36.2810   26.0990   34.8330 H   0  0  0  0  0  0  0  0  0  0  0  0
   43.2510   27.8420   32.4170 C   0  0  0  0  0  0  0  0  0  0  0  0
   41.9080   27.6990   32.7600 C   0  0  0  0  0  0  0  0  0  0  0  0
   41.4730   26.8030   33.7370 C   0  0  0  0  0  0  0  0  0  0  0  0
   42.4620   26.0860   34.3230 N   0  0  0  0  0  0  0  0  0  0  0  0
   43.7570   26.2240   33.9930 C   0  0  0  0  0  0  0  0  0  0  0  0
   44.1480   27.0860   33.0560 N   0  0  0  0  0  0  0  0  0  0  0  0
   43.5670   28.5420   31.6560 H   0  0  0  0  0  0  0  0  0  0  0  0
   41.1660   28.3150   32.2400 H   0  0  0  0  0  0  0  0  0  0  0  0
   44.5370   25.6420   34.4720 H   0  0  0  0  0  0  0  0  0  0  0  0
   37.0710   24.9750   32.6390 N   0  0  0  0  0  0  0  0  0  0  0  0
   36.9980   23.5220   32.6440 C   0  0  0  0  0  3  0  0  0  0  0  0
   36.1720   23.1580   33.2870 H   0  0  0  0  0  0  0  0  0  0  0  0
   36.6770   23.1300   31.2340 C   0  0  0  0  0  3  0  0  0  0  0  0
   37.5180   23.4000   30.5500 H   0  0  0  0  0  0  0  0  0  0  0  0
   35.5230   23.6420   30.7170 O   0  0  0  0  0  0  0  0  0  0  0  0
   35.1860   24.9180   31.0620 C   0  0  0  0  0  2  0  0  0  0  0  0
   36.2400   25.7300   31.7330 C   0  0  0  0  0  2  0  0  0  0  0  0
  1  2  1  0  0  0  0
  2  7  2  0  0  0  0
  2  3  1  0  0  0  0
  3  4  2  0  0  0  0
  4  5  1  0  0  0  0
  4  8  1  0  0  0  0
  5  9  1  0  0  0  0
  6 10  1  0  0  0  0
  6  5  2  0  0  0  0
  7  6  1  0  0  0  0
 11 12  2  0  0  0  0
 11 16  1  0  0  0  0
 12 13  1  0  0  0  0
 13  3  1  0  0  0  0
 13 14  2  0  0  0  0
 15 14  1  0  0  0  0
 15 19  1  0  0  0  0
 16 15  2  0  0  0  0
 17 11  1  0  0  0  0
 18 12  1  0  0  0  0
 20 21  1  0  0  0  0
 20  7  1  0  0  0  0
 21 22  1  0  0  0  0
 23 21  1  0  0  0  0
 24 23  1  0  0  0  0
 25 26  1  0  0  0  0
 25 23  1  0  0  0  0
 26 27  1  0  0  0  0
 27 20  1  0  0  0  0
M  END
>  <minimizedAffinity>
-4.35764408

$$$$
