
 OpenBabel03272510293D

 27 29  0  0  0  0  0  0  0  0999 V2000
   37.1530   31.2870   49.2460 C   0  0  0  0  0  0  0  0  0  0  0  0
   37.3700   32.5410   49.8330 C   0  0  0  0  0  0  0  0  0  0  0  0
   38.2970   33.3640   49.2090 C   0  0  0  0  0  0  0  0  0  0  0  0
   38.9300   32.9210   48.0880 N   0  0  0  0  0  0  0  0  0  0  0  0
   38.6870   31.6990   47.5560 C   0  0  0  0  0  0  0  0  0  0  0  0
   37.7760   30.8560   48.1460 N   0  0  0  0  0  0  0  0  0  0  0  0
   36.8800   32.8940   50.7070 H   0  0  0  0  0  0  0  0  0  0  0  0
   38.5710   34.3540   49.5420 H   0  0  0  0  0  0  0  0  0  0  0  0
   36.1310   30.3960   49.8750 C   0  0  0  0  0  0  0  0  0  0  0  0
   36.0870   28.9710   49.6700 C   0  0  0  0  0  0  0  0  0  0  0  0
   36.7130   29.4710   50.9520 C   0  0  0  0  0  0  0  0  0  0  0  0
   35.2080   30.9470   50.1620 H   0  0  0  0  0  0  0  0  0  0  0  0
   36.8450   28.4940   48.9850 H   0  0  0  0  0  0  0  0  0  0  0  0
   35.1350   28.4310   49.6930 H   0  0  0  0  0  0  0  0  0  0  0  0
   36.1560   29.5100   51.8930 H   0  0  0  0  0  0  0  0  0  0  0  0
   37.8130   29.4440   51.0690 H   0  0  0  0  0  0  0  0  0  0  0  0
   39.3430   31.2340   46.3420 C   0  0  0  0  0  0  0  0  0  0  0  0
   40.4640   31.2410   46.4110 H   0  0  0  0  0  0  0  0  0  0  0  0
   39.0190   30.2140   46.1000 H   0  0  0  0  0  0  0  0  0  0  0  0
   38.9970   32.1890   45.2970 N   0  0  0  0  0  0  0  0  0  0  0  0
   40.0340   32.3680   44.3350 C   0  0  0  0  0  3  0  0  0  0  0  0
   40.6950   33.1870   44.6990 H   0  0  0  0  0  0  0  0  0  0  0  0
   39.5510   32.7800   42.9750 C   0  0  0  0  0  3  0  0  0  0  0  0
   40.3510   32.5540   42.2400 H   0  0  0  0  0  0  0  0  0  0  0  0
   38.4010   32.1140   42.5580 O   0  0  0  0  0  0  0  0  0  0  0  0
   37.3920   32.4810   43.4580 C   0  0  0  0  0  2  0  0  0  0  0  0
   37.7210   31.8190   44.7730 C   0  0  0  0  0  2  0  0  0  0  0  0
  1  2  1  0  0  0  0
  1  9  1  0  0  0  0
  2  7  1  0  0  0  0
  3  8  1  0  0  0  0
  3  2  2  0  0  0  0
  4  3  1  0  0  0  0
  5  4  2  0  0  0  0
  5  6  1  0  0  0  0
  6  1  2  0  0  0  0
  9 12  1  0  0  0  0
  9 11  1  0  0  0  0
 10 14  1  0  0  0  0
 10  9  1  0  0  0  0
 10 11  1  0  0  0  0
 11 16  1  0  0  0  0
 11 15  1  0  0  0  0
 13 10  1  0  0  0  0
 17 18  1  0  0  0  0
 17  5  1  0  0  0  0
 19 17  1  0  0  0  0
 20 17  1  0  0  0  0
 21 22  1  0  0  0  0
 21 20  1  0  0  0  0
 23 21  1  0  0  0  0
 24 23  1  0  0  0  0
 25 23  1  0  0  0  0
 25 26  1  0  0  0  0
 26 27  1  0  0  0  0
 27 20  1  0  0  0  0
M  END
>  <minimizedAffinity>
-5.27484989

>  <minimizedRMSD>
1.72600436

$$$$
