
 OpenBabel03272510293D

 27 29  0  0  0  0  0  0  0  0999 V2000
   37.4970   31.3020   48.8710 C   0  0  0  0  0  0  0  0  0  0  0  0
   37.6500   32.6440   49.2470 C   0  0  0  0  0  0  0  0  0  0  0  0
   38.5890   33.3820   48.5410 C   0  0  0  0  0  0  0  0  0  0  0  0
   39.2930   32.7790   47.5450 N   0  0  0  0  0  0  0  0  0  0  0  0
   39.1110   31.4770   47.2150 C   0  0  0  0  0  0  0  0  0  0  0  0
   38.1910   30.7140   47.8930 N   0  0  0  0  0  0  0  0  0  0  0  0
   37.1030   33.1210   50.0230 H   0  0  0  0  0  0  0  0  0  0  0  0
   38.8190   34.4220   48.7150 H   0  0  0  0  0  0  0  0  0  0  0  0
   36.4640   30.4950   49.5890 C   0  0  0  0  0  0  0  0  0  0  0  0
   36.4950   29.0570   49.6670 C   0  0  0  0  0  0  0  0  0  0  0  0
   36.9950   29.8310   50.8670 C   0  0  0  0  0  0  0  0  0  0  0  0
   35.5000   31.0390   49.6950 H   0  0  0  0  0  0  0  0  0  0  0  0
   37.3240   28.4990   49.1460 H   0  0  0  0  0  0  0  0  0  0  0  0
   35.5660   28.4790   49.7290 H   0  0  0  0  0  0  0  0  0  0  0  0
   36.3620   30.0200   51.7390 H   0  0  0  0  0  0  0  0  0  0  0  0
   38.0820   29.8870   51.0650 H   0  0  0  0  0  0  0  0  0  0  0  0
   39.8450   30.8390   46.1320 C   0  0  0  0  0  0  0  0  0  0  0  0
   40.8100   31.3560   45.8810 H   0  0  0  0  0  0  0  0  0  0  0  0
   40.0710   29.7950   46.3870 H   0  0  0  0  0  0  0  0  0  0  0  0
   39.0070   30.9510   44.9450 N   0  0  0  0  0  0  0  0  0  0  0  0
   37.6410   30.6270   45.1890 C   0  0  0  0  0  3  0  0  0  0  0  0
   37.5190   29.5310   45.0270 H   0  0  0  0  0  0  0  0  0  0  0  0
   36.6710   31.3070   44.2680 C   0  0  0  0  0  3  0  0  0  0  0  0
   35.6670   31.2800   44.7420 H   0  0  0  0  0  0  0  0  0  0  0  0
   36.9750   32.6420   44.0120 O   0  0  0  0  0  0  0  0  0  0  0  0
   38.2070   32.6380   43.3470 C   0  0  0  0  0  2  0  0  0  0  0  0
   39.2480   32.2320   44.3610 C   0  0  0  0  0  2  0  0  0  0  0  0
  1  2  1  0  0  0  0
  1  9  1  0  0  0  0
  2  7  1  0  0  0  0
  3  8  1  0  0  0  0
  3  2  2  0  0  0  0
  4  3  1  0  0  0  0
  5  4  2  0  0  0  0
  5  6  1  0  0  0  0
  6  1  2  0  0  0  0
  9 10  1  0  0  0  0
  9 12  1  0  0  0  0
  9 11  1  0  0  0  0
 10 14  1  0  0  0  0
 10 11  1  0  0  0  0
 11 16  1  0  0  0  0
 11 15  1  0  0  0  0
 13 10  1  0  0  0  0
 17 19  1  0  0  0  0
 17  5  1  0  0  0  0
 18 17  1  0  0  0  0
 20 21  1  0  0  0  0
 20 17  1  0  0  0  0
 22 21  1  0  0  0  0
 23 24  1  0  0  0  0
 23 21  1  0  0  0  0
 25 23  1  0  0  0  0
 26 25  1  0  0  0  0
 26 27  1  0  0  0  0
 27 20  1  0  0  0  0
M  END
>  <minimizedAffinity>
-4.57636023

>  <minimizedRMSD>
0.699852288

$$$$
