
 OpenBabel03272510153D

 27 29  0  0  0  0  0  0  0  0999 V2000
   37.4670   29.2210   50.8890 Br  0  0  0  0  0  0  0  0  0  0  0  0
   36.0390   29.2950   49.6210 C   0  0  0  0  0  0  0  0  0  0  0  0
   36.0080   30.2780   48.6360 C   0  0  0  0  0  0  0  0  0  0  0  0
   34.9450   30.2550   47.7700 C   0  0  0  0  0  0  0  0  0  0  0  0
   33.9190   29.3390   47.8060 C   0  0  0  0  0  0  0  0  0  0  0  0
   33.9840   28.3810   48.7950 C   0  0  0  0  0  0  0  0  0  0  0  0
   35.0400   28.3660   49.6930 C   0  0  0  0  0  0  0  0  0  0  0  0
   34.9490   31.0290   47.0160 H   0  0  0  0  0  0  0  0  0  0  0  0
   33.2410   27.6140   48.9230 H   0  0  0  0  0  0  0  0  0  0  0  0
   35.0800   27.6030   50.4720 H   0  0  0  0  0  0  0  0  0  0  0  0
   38.0290   33.2020   49.4290 C   0  0  0  0  0  0  0  0  0  0  0  0
   39.0400   33.1910   48.4450 C   0  0  0  0  0  0  0  0  0  0  0  0
   39.0120   32.1660   47.5110 C   0  0  0  0  0  0  0  0  0  0  0  0
   38.0200   31.2260   47.5840 N   0  0  0  0  0  0  0  0  0  0  0  0
   37.0630   31.2700   48.5490 C   0  0  0  0  0  0  0  0  0  0  0  0
   37.0810   32.2600   49.4610 N   0  0  0  0  0  0  0  0  0  0  0  0
   37.9630   33.9700   50.2140 H   0  0  0  0  0  0  0  0  0  0  0  0
   39.7590   33.9950   48.5060 H   0  0  0  0  0  0  0  0  0  0  0  0
   39.7770   32.1650   46.7730 H   0  0  0  0  0  0  0  0  0  0  0  0
   32.8340   29.3510   46.8860 N   0  0  0  0  0  0  0  0  0  0  0  0
   31.9420   28.2090   46.8140 C   0  0  0  0  0  0  0  0  0  0  0  0
   31.6800   27.7730   47.7780 H   0  0  0  0  0  0  0  0  0  0  0  0
   30.6590   28.5500   46.0970 C   0  0  0  0  0  0  0  0  0  0  0  0
   29.8900   28.9510   46.8180 H   0  0  0  0  0  0  0  0  0  0  0  0
   30.8530   29.3720   45.0110 O   0  0  0  0  0  0  0  0  0  0  0  0
   31.3830   30.6020   45.3270 C   0  0  0  0  0  0  0  0  0  0  0  0
   32.6910   30.5550   46.0520 C   0  0  0  0  0  0  0  0  0  0  0  0
  2  7  1  0  0  0  0
  2  1  1  0  0  0  0
  3  2  2  0  0  0  0
  4  5  2  0  0  0  0
  4  3  1  0  0  0  0
  5  6  1  0  0  0  0
  6  9  1  0  0  0  0
  6  7  2  0  0  0  0
  7 10  1  0  0  0  0
  8  4  1  0  0  0  0
 11 16  1  0  0  0  0
 11 17  1  0  0  0  0
 12 18  1  0  0  0  0
 12 11  2  0  0  0  0
 13 14  2  0  0  0  0
 13 12  1  0  0  0  0
 14 15  1  0  0  0  0
 15  3  1  0  0  0  0
 15 16  2  0  0  0  0
 19 13  1  0  0  0  0
 20  5  1  0  0  0  0
 21 20  1  0  0  0  0
 21 22  1  0  0  0  0
 23 21  1  0  0  0  0
 23 24  1  0  0  0  0
 25 26  1  0  0  0  0
 25 23  1  0  0  0  0
 26 27  1  0  0  0  0
 27 20  1  0  0  0  0
M  END
>  <minimizedAffinity>
-5.88985443

>  <minimizedRMSD>
0.547143638

$$$$
