
 OpenBabel03272510293D

 27 29  0  0  0  0  0  0  0  0999 V2000
   37.2400   31.3120   49.3060 C   0  0  0  0  0  0  0  0  0  0  0  0
   37.4410   32.5870   49.8540 C   0  0  0  0  0  0  0  0  0  0  0  0
   38.3290   33.4170   49.1840 C   0  0  0  0  0  0  0  0  0  0  0  0
   38.9420   32.9600   48.0580 N   0  0  0  0  0  0  0  0  0  0  0  0
   38.7170   31.7180   47.5630 C   0  0  0  0  0  0  0  0  0  0  0  0
   37.8440   30.8680   48.2010 N   0  0  0  0  0  0  0  0  0  0  0  0
   36.9650   32.9500   50.7320 H   0  0  0  0  0  0  0  0  0  0  0  0
   38.5850   34.4210   49.4830 H   0  0  0  0  0  0  0  0  0  0  0  0
   36.2590   30.4120   49.9860 C   0  0  0  0  0  0  0  0  0  0  0  0
   36.2000   28.9910   49.7630 C   0  0  0  0  0  0  0  0  0  0  0  0
   36.9080   29.4720   51.0100 C   0  0  0  0  0  0  0  0  0  0  0  0
   35.3570   30.9600   50.3390 H   0  0  0  0  0  0  0  0  0  0  0  0
   36.9120   28.5240   49.0240 H   0  0  0  0  0  0  0  0  0  0  0  0
   35.2500   28.4510   49.8390 H   0  0  0  0  0  0  0  0  0  0  0  0
   36.4120   29.4970   51.9850 H   0  0  0  0  0  0  0  0  0  0  0  0
   38.0130   29.4420   51.0560 H   0  0  0  0  0  0  0  0  0  0  0  0
   39.3510   31.2390   46.3450 C   0  0  0  0  0  0  0  0  0  0  0  0
   40.4730   31.2350   46.3980 H   0  0  0  0  0  0  0  0  0  0  0  0
   39.0150   30.2190   46.1150 H   0  0  0  0  0  0  0  0  0  0  0  0
   39.0000   32.1880   45.2970 N   0  0  0  0  0  0  0  0  0  0  0  0
   40.0300   32.3610   44.3280 C   0  0  0  0  0  3  0  0  0  0  0  0
   40.6950   33.1820   44.6840 H   0  0  0  0  0  0  0  0  0  0  0  0
   39.5390   32.7670   42.9690 C   0  0  0  0  0  3  0  0  0  0  0  0
   40.3340   32.5380   42.2300 H   0  0  0  0  0  0  0  0  0  0  0  0
   38.3860   32.1020   42.5630 O   0  0  0  0  0  0  0  0  0  0  0  0
   37.3840   32.4740   43.4670 C   0  0  0  0  0  2  0  0  0  0  0  0
   37.7200   31.8170   44.7830 C   0  0  0  0  0  2  0  0  0  0  0  0
  1  2  1  0  0  0  0
  1  9  1  0  0  0  0
  2  7  1  0  0  0  0
  3  8  1  0  0  0  0
  3  2  2  0  0  0  0
  4  3  1  0  0  0  0
  5  4  2  0  0  0  0
  5  6  1  0  0  0  0
  6  1  2  0  0  0  0
  9 12  1  0  0  0  0
  9 11  1  0  0  0  0
 10 14  1  0  0  0  0
 10  9  1  0  0  0  0
 10 11  1  0  0  0  0
 11 16  1  0  0  0  0
 11 15  1  0  0  0  0
 13 10  1  0  0  0  0
 17 18  1  0  0  0  0
 17  5  1  0  0  0  0
 19 17  1  0  0  0  0
 20 17  1  0  0  0  0
 21 22  1  0  0  0  0
 21 20  1  0  0  0  0
 23 21  1  0  0  0  0
 24 23  1  0  0  0  0
 25 23  1  0  0  0  0
 25 26  1  0  0  0  0
 26 27  1  0  0  0  0
 27 20  1  0  0  0  0
M  END
>  <minimizedAffinity>
-5.2664609

>  <minimizedRMSD>
1.37028646

$$$$
