
 OpenBabel03272510303D

 27 29  0  0  0  0  0  0  0  0999 V2000
   38.3980   25.0810   36.0310 C   0  0  0  0  0  0  0  0  0  0  0  0
   38.0000   24.6520   37.3060 C   0  0  0  0  0  0  0  0  0  0  0  0
   37.6250   23.3210   37.4230 C   0  0  0  0  0  0  0  0  0  0  0  0
   37.6640   22.5220   36.3220 N   0  0  0  0  0  0  0  0  0  0  0  0
   38.0560   22.9800   35.1080 C   0  0  0  0  0  0  0  0  0  0  0  0
   38.4330   24.2930   34.9530 N   0  0  0  0  0  0  0  0  0  0  0  0
   37.9680   25.2700   38.1700 H   0  0  0  0  0  0  0  0  0  0  0  0
   37.2960   22.8480   38.3350 H   0  0  0  0  0  0  0  0  0  0  0  0
   38.8430   26.5000   35.8860 C   0  0  0  0  0  0  0  0  0  0  0  0
   39.0510   27.1390   34.6110 C   0  0  0  0  0  0  0  0  0  0  0  0
   37.7510   27.4240   35.3320 C   0  0  0  0  0  0  0  0  0  0  0  0
   39.3750   26.8710   36.7890 H   0  0  0  0  0  0  0  0  0  0  0  0
   38.8910   26.5420   33.6690 H   0  0  0  0  0  0  0  0  0  0  0  0
   39.8030   27.9260   34.4950 H   0  0  0  0  0  0  0  0  0  0  0  0
   37.6100   28.3250   35.9360 H   0  0  0  0  0  0  0  0  0  0  0  0
   36.8150   26.9590   34.9710 H   0  0  0  0  0  0  0  0  0  0  0  0
   38.1230   22.1200   33.9360 C   0  0  0  0  0  0  0  0  0  0  0  0
   38.8550   22.4770   33.1620 H   0  0  0  0  0  0  0  0  0  0  0  0
   38.4020   21.0990   34.2270 H   0  0  0  0  0  0  0  0  0  0  0  0
   36.8100   22.1790   33.3070 N   0  0  0  0  0  0  0  0  0  0  0  0
   36.8280   22.8090   32.0290 C   0  0  0  0  0  3  0  0  0  0  0  0
   36.6690   23.9010   32.1880 H   0  0  0  0  0  0  0  0  0  0  0  0
   35.7440   22.3500   31.0980 C   0  0  0  0  0  3  0  0  0  0  0  0
   36.0420   22.6150   30.0620 H   0  0  0  0  0  0  0  0  0  0  0  0
   35.5170   20.9770   31.1290 O   0  0  0  0  0  0  0  0  0  0  0  0
   35.0680   20.6870   32.4240 C   0  0  0  0  0  2  0  0  0  0  0  0
   36.2500   20.8660   33.3440 C   0  0  0  0  0  2  0  0  0  0  0  0
  1  2  1  0  0  0  0
  2  3  2  0  0  0  0
  2  7  1  0  0  0  0
  3  8  1  0  0  0  0
  4  3  1  0  0  0  0
  5  4  2  0  0  0  0
  6  5  1  0  0  0  0
  6  1  2  0  0  0  0
  9  1  1  0  0  0  0
  9 12  1  0  0  0  0
 10 11  1  0  0  0  0
 10  9  1  0  0  0  0
 11  9  1  0  0  0  0
 11 15  1  0  0  0  0
 13 10  1  0  0  0  0
 14 10  1  0  0  0  0
 16 11  1  0  0  0  0
 17 19  1  0  0  0  0
 17  5  1  0  0  0  0
 18 17  1  0  0  0  0
 20 27  1  0  0  0  0
 20 17  1  0  0  0  0
 21 22  1  0  0  0  0
 21 20  1  0  0  0  0
 23 25  1  0  0  0  0
 23 21  1  0  0  0  0
 24 23  1  0  0  0  0
 25 26  1  0  0  0  0
 26 27  1  0  0  0  0
M  END
>  <minimizedAffinity>
-4.35367584

$$$$

 OpenBabel03272510303D

 27 29  0  0  0  0  0  0  0  0999 V2000
   36.5750   23.3990   32.0010 C   0  0  0  0  0  0  0  0  0  0  0  0
   35.9070   24.4660   31.3840 C   0  0  0  0  0  0  0  0  0  0  0  0
   36.2290   25.7400   31.8310 C   0  0  0  0  0  0  0  0  0  0  0  0
   37.1540   25.8820   32.8190 N   0  0  0  0  0  0  0  0  0  0  0  0
   37.7760   24.8200   33.3870 C   0  0  0  0  0  0  0  0  0  0  0  0
   37.4820   23.5430   32.9710 N   0  0  0  0  0  0  0  0  0  0  0  0
   35.1840   24.3620   30.6120 H   0  0  0  0  0  0  0  0  0  0  0  0
   35.8000   26.6560   31.4550 H   0  0  0  0  0  0  0  0  0  0  0  0
   36.2760   22.0180   31.5120 C   0  0  0  0  0  0  0  0  0  0  0  0
   36.5750   20.8280   32.2660 C   0  0  0  0  0  0  0  0  0  0  0  0
   35.1490   21.3300   32.2930 C   0  0  0  0  0  0  0  0  0  0  0  0
   36.1920   21.9710   30.4040 H   0  0  0  0  0  0  0  0  0  0  0  0
   37.0800   20.9290   33.2680 H   0  0  0  0  0  0  0  0  0  0  0  0
   36.8220   19.8900   31.7560 H   0  0  0  0  0  0  0  0  0  0  0  0
   34.3750   20.9120   31.6420 H   0  0  0  0  0  0  0  0  0  0  0  0
   34.7650   21.8350   33.2000 H   0  0  0  0  0  0  0  0  0  0  0  0
   38.7850   24.9720   34.4240 C   0  0  0  0  0  0  0  0  0  0  0  0
   39.8360   24.8430   34.0470 H   0  0  0  0  0  0  0  0  0  0  0  0
   38.7070   25.9620   34.8920 H   0  0  0  0  0  0  0  0  0  0  0  0
   38.5630   23.8900   35.3760 N   0  0  0  0  0  0  0  0  0  0  0  0
   39.7630   23.2170   35.7500 C   0  0  0  0  0  3  0  0  0  0  0  0
   39.9240   22.3860   35.0240 H   0  0  0  0  0  0  0  0  0  0  0  0
   39.7220   22.5920   37.1130 C   0  0  0  0  0  3  0  0  0  0  0  0
   40.7660   22.4140   37.4440 H   0  0  0  0  0  0  0  0  0  0  0  0
   39.1070   23.3840   38.0790 O   0  0  0  0  0  0  0  0  0  0  0  0
   37.7740   23.5260   37.6750 C   0  0  0  0  0  2  0  0  0  0  0  0
   37.7820   24.4100   36.4520 C   0  0  0  0  0  2  0  0  0  0  0  0
  1  6  1  0  0  0  0
  2  3  1  0  0  0  0
  2  1  2  0  0  0  0
  3  4  2  0  0  0  0
  4  5  1  0  0  0  0
  5 17  1  0  0  0  0
  6  5  2  0  0  0  0
  7  2  1  0  0  0  0
  8  3  1  0  0  0  0
  9  1  1  0  0  0  0
  9 10  1  0  0  0  0
  9 11  1  0  0  0  0
 10 11  1  0  0  0  0
 10 13  1  0  0  0  0
 11 16  1  0  0  0  0
 12  9  1  0  0  0  0
 14 10  1  0  0  0  0
 15 11  1  0  0  0  0
 17 19  1  0  0  0  0
 17 20  1  0  0  0  0
 18 17  1  0  0  0  0
 20 21  1  0  0  0  0
 20 27  1  0  0  0  0
 21 23  1  0  0  0  0
 22 21  1  0  0  0  0
 23 24  1  0  0  0  0
 23 25  1  0  0  0  0
 26 25  1  0  0  0  0
 27 26  1  0  0  0  0
M  END
>  <minimizedAffinity>
-4.21732521

$$$$

 OpenBabel03272510303D

 27 29  0  0  0  0  0  0  0  0999 V2000
   37.9280   25.9740   33.5950 C   0  0  0  0  0  0  0  0  0  0  0  0
   37.0390   26.8690   32.9810 C   0  0  0  0  0  0  0  0  0  0  0  0
   36.2560   26.3580   31.9560 C   0  0  0  0  0  0  0  0  0  0  0  0
   36.3880   25.0480   31.6100 N   0  0  0  0  0  0  0  0  0  0  0  0
   37.2610   24.2190   32.2320 C   0  0  0  0  0  0  0  0  0  0  0  0
   38.0540   24.6890   33.2510 N   0  0  0  0  0  0  0  0  0  0  0  0
   36.9310   27.8920   33.2460 H   0  0  0  0  0  0  0  0  0  0  0  0
   35.5300   26.9210   31.3910 H   0  0  0  0  0  0  0  0  0  0  0  0
   38.7560   26.4880   34.7280 C   0  0  0  0  0  0  0  0  0  0  0  0
   38.2910   27.4820   35.6620 C   0  0  0  0  0  0  0  0  0  0  0  0
   38.2480   26.0360   36.1030 C   0  0  0  0  0  0  0  0  0  0  0  0
   39.8460   26.3560   34.5500 H   0  0  0  0  0  0  0  0  0  0  0  0
   37.2600   27.9170   35.5290 H   0  0  0  0  0  0  0  0  0  0  0  0
   38.9920   28.1820   36.1290 H   0  0  0  0  0  0  0  0  0  0  0  0
   39.0350   25.5960   36.7230 H   0  0  0  0  0  0  0  0  0  0  0  0
   37.2760   25.5080   36.1470 H   0  0  0  0  0  0  0  0  0  0  0  0
   37.3840   22.8120   31.8810 C   0  0  0  0  0  0  0  0  0  0  0  0
   37.3550   22.6250   30.7740 H   0  0  0  0  0  0  0  0  0  0  0  0
   38.3230   22.4010   32.2740 H   0  0  0  0  0  0  0  0  0  0  0  0
   36.2120   22.1460   32.4340 N   0  0  0  0  0  0  0  0  0  0  0  0
   35.4790   21.4020   31.4640 C   0  0  0  0  0  3  0  0  0  0  0  0
   34.7280   22.0880   31.0080 H   0  0  0  0  0  0  0  0  0  0  0  0
   34.7130   20.2400   32.0250 C   0  0  0  0  0  3  0  0  0  0  0  0
   34.4810   19.5440   31.1920 H   0  0  0  0  0  0  0  0  0  0  0  0
   35.4100   19.5180   32.9910 O   0  0  0  0  0  0  0  0  0  0  0  0
   35.6190   20.4000   34.0590 C   0  0  0  0  0  2  0  0  0  0  0  0
   36.6280   21.4190   33.5900 C   0  0  0  0  0  2  0  0  0  0  0  0
  1  9  1  0  0  0  0
  2  7  1  0  0  0  0
  2  1  2  0  0  0  0
  3  2  1  0  0  0  0
  4  3  2  0  0  0  0
  4  5  1  0  0  0  0
  5  6  2  0  0  0  0
  6  1  1  0  0  0  0
  8  3  1  0  0  0  0
  9 10  1  0  0  0  0
  9 11  1  0  0  0  0
 10 11  1  0  0  0  0
 10 14  1  0  0  0  0
 11 16  1  0  0  0  0
 11 15  1  0  0  0  0
 12  9  1  0  0  0  0
 13 10  1  0  0  0  0
 17  5  1  0  0  0  0
 17 19  1  0  0  0  0
 17 20  1  0  0  0  0
 18 17  1  0  0  0  0
 20 27  1  0  0  0  0
 21 23  1  0  0  0  0
 21 20  1  0  0  0  0
 22 21  1  0  0  0  0
 23 25  1  0  0  0  0
 24 23  1  0  0  0  0
 25 26  1  0  0  0  0
 27 26  1  0  0  0  0
M  END
>  <minimizedAffinity>
-4.14789867

$$$$

 OpenBabel03272510303D

 27 29  0  0  0  0  0  0  0  0999 V2000
   38.1280   24.6060   36.4220 C   0  0  0  0  0  0  0  0  0  0  0  0
   38.1960   25.9410   35.9970 C   0  0  0  0  0  0  0  0  0  0  0  0
   38.3220   26.1500   34.6310 C   0  0  0  0  0  0  0  0  0  0  0  0
   38.3700   25.0760   33.7970 N   0  0  0  0  0  0  0  0  0  0  0  0
   38.3010   23.8010   34.2530 C   0  0  0  0  0  0  0  0  0  0  0  0
   38.1770   23.5540   35.5990 N   0  0  0  0  0  0  0  0  0  0  0  0
   38.1580   26.7840   36.6430 H   0  0  0  0  0  0  0  0  0  0  0  0
   38.3860   27.1170   34.1560 H   0  0  0  0  0  0  0  0  0  0  0  0
   37.9540   24.3520   37.8850 C   0  0  0  0  0  0  0  0  0  0  0  0
   37.5980   23.0670   38.4290 C   0  0  0  0  0  0  0  0  0  0  0  0
   39.0560   23.4680   38.4820 C   0  0  0  0  0  0  0  0  0  0  0  0
   37.7230   25.2820   38.4500 H   0  0  0  0  0  0  0  0  0  0  0  0
   37.4200   22.2050   37.7250 H   0  0  0  0  0  0  0  0  0  0  0  0
   37.0110   22.9930   39.3510 H   0  0  0  0  0  0  0  0  0  0  0  0
   39.5060   23.8990   39.3810 H   0  0  0  0  0  0  0  0  0  0  0  0
   39.7760   22.9980   37.7850 H   0  0  0  0  0  0  0  0  0  0  0  0
   38.3260   22.6530   33.3600 C   0  0  0  0  0  0  0  0  0  0  0  0
   38.8830   22.8440   32.4030 H   0  0  0  0  0  0  0  0  0  0  0  0
   38.7860   21.7900   33.8590 H   0  0  0  0  0  0  0  0  0  0  0  0
   36.9430   22.3990   32.9770 N   0  0  0  0  0  0  0  0  0  0  0  0
   36.7100   22.5520   31.5780 C   0  0  0  0  0  3  0  0  0  0  0  0
   36.4410   23.6190   31.3950 H   0  0  0  0  0  0  0  0  0  0  0  0
   35.5760   21.7270   31.0460 C   0  0  0  0  0  3  0  0  0  0  0  0
   35.6970   21.6410   29.9470 H   0  0  0  0  0  0  0  0  0  0  0  0
   35.5260   20.4360   31.5640 O   0  0  0  0  0  0  0  0  0  0  0  0
   35.2940   20.5760   32.9380 C   0  0  0  0  0  2  0  0  0  0  0  0
   36.5580   21.1430   33.5360 C   0  0  0  0  0  2  0  0  0  0  0  0
  1  9  1  0  0  0  0
  2  1  1  0  0  0  0
  2  7  1  0  0  0  0
  3  2  2  0  0  0  0
  4  5  2  0  0  0  0
  4  3  1  0  0  0  0
  5  6  1  0  0  0  0
  6  1  2  0  0  0  0
  8  3  1  0  0  0  0
  9 10  1  0  0  0  0
  9 12  1  0  0  0  0
  9 11  1  0  0  0  0
 10 11  1  0  0  0  0
 10 14  1  0  0  0  0
 11 15  1  0  0  0  0
 13 10  1  0  0  0  0
 16 11  1  0  0  0  0
 17 19  1  0  0  0  0
 17  5  1  0  0  0  0
 18 17  1  0  0  0  0
 20 17  1  0  0  0  0
 20 27  1  0  0  0  0
 21 20  1  0  0  0  0
 22 21  1  0  0  0  0
 23 25  1  0  0  0  0
 23 21  1  0  0  0  0
 24 23  1  0  0  0  0
 25 26  1  0  0  0  0
 26 27  1  0  0  0  0
M  END
>  <minimizedAffinity>
-4.0987258

$$$$

 OpenBabel03272510303D

 27 29  0  0  0  0  0  0  0  0999 V2000
   39.8850   22.7990   37.0880 C   0  0  0  0  0  0  0  0  0  0  0  0
   39.1480   23.2060   38.2090 C   0  0  0  0  0  0  0  0  0  0  0  0
   38.0160   23.9690   37.9620 C   0  0  0  0  0  0  0  0  0  0  0  0
   37.6890   24.2740   36.6770 N   0  0  0  0  0  0  0  0  0  0  0  0
   38.4320   23.8590   35.6220 C   0  0  0  0  0  0  0  0  0  0  0  0
   39.5610   23.1010   35.8280 N   0  0  0  0  0  0  0  0  0  0  0  0
   39.3970   22.9700   39.2150 H   0  0  0  0  0  0  0  0  0  0  0  0
   37.3500   24.3550   38.7190 H   0  0  0  0  0  0  0  0  0  0  0  0
   41.0870   21.9420   37.3230 C   0  0  0  0  0  0  0  0  0  0  0  0
   41.8590   21.3500   36.2600 C   0  0  0  0  0  0  0  0  0  0  0  0
   42.4010   22.6110   36.8960 C   0  0  0  0  0  0  0  0  0  0  0  0
   41.0890   21.4840   38.3360 H   0  0  0  0  0  0  0  0  0  0  0  0
   41.5370   21.5170   35.1930 H   0  0  0  0  0  0  0  0  0  0  0  0
   42.3700   20.3930   36.4060 H   0  0  0  0  0  0  0  0  0  0  0  0
   43.1660   22.5830   37.6770 H   0  0  0  0  0  0  0  0  0  0  0  0
   42.3370   23.5690   36.3460 H   0  0  0  0  0  0  0  0  0  0  0  0
   38.0690   24.1620   34.2460 C   0  0  0  0  0  0  0  0  0  0  0  0
   38.7010   23.6230   33.4890 H   0  0  0  0  0  0  0  0  0  0  0  0
   37.0180   23.9040   34.0620 H   0  0  0  0  0  0  0  0  0  0  0  0
   38.3340   25.5820   34.0540 N   0  0  0  0  0  0  0  0  0  0  0  0
   39.5730   25.8390   33.3990 C   0  0  0  0  0  3  0  0  0  0  0  0
   40.3600   25.9200   34.1850 H   0  0  0  0  0  0  0  0  0  0  0  0
   39.6090   27.1230   32.6240 C   0  0  0  0  0  3  0  0  0  0  0  0
   40.4420   27.0630   31.8930 H   0  0  0  0  0  0  0  0  0  0  0  0
   38.4430   27.3830   31.9080 O   0  0  0  0  0  0  0  0  0  0  0  0
   37.4270   27.5300   32.8610 C   0  0  0  0  0  2  0  0  0  0  0  0
   37.1790   26.1620   33.4470 C   0  0  0  0  0  2  0  0  0  0  0  0
  1  9  1  0  0  0  0
  1  2  1  0  0  0  0
  2  7  1  0  0  0  0
  3  2  2  0  0  0  0
  3  8  1  0  0  0  0
  4  3  1  0  0  0  0
  5  6  1  0  0  0  0
  5  4  2  0  0  0  0
  6  1  2  0  0  0  0
  9 12  1  0  0  0  0
 10 14  1  0  0  0  0
 10 11  1  0  0  0  0
 10  9  1  0  0  0  0
 11  9  1  0  0  0  0
 11 15  1  0  0  0  0
 13 10  1  0  0  0  0
 16 11  1  0  0  0  0
 17  5  1  0  0  0  0
 18 17  1  0  0  0  0
 19 17  1  0  0  0  0
 20 17  1  0  0  0  0
 21 20  1  0  0  0  0
 21 22  1  0  0  0  0
 23 21  1  0  0  0  0
 24 23  1  0  0  0  0
 25 23  1  0  0  0  0
 25 26  1  0  0  0  0
 26 27  1  0  0  0  0
 27 20  1  0  0  0  0
M  END
>  <minimizedAffinity>
-4.08615589

$$$$

 OpenBabel03272510303D

 27 29  0  0  0  0  0  0  0  0999 V2000
   37.0330   27.3610   34.2480 C   0  0  0  0  0  0  0  0  0  0  0  0
   36.2280   28.5060   34.1620 C   0  0  0  0  0  0  0  0  0  0  0  0
   35.5650   28.7090   32.9600 C   0  0  0  0  0  0  0  0  0  0  0  0
   35.7280   27.8080   31.9530 N   0  0  0  0  0  0  0  0  0  0  0  0
   36.5180   26.7130   32.0810 C   0  0  0  0  0  0  0  0  0  0  0  0
   37.1900   26.4800   33.2560 N   0  0  0  0  0  0  0  0  0  0  0  0
   36.0950   29.2120   34.9450 H   0  0  0  0  0  0  0  0  0  0  0  0
   34.9130   29.5410   32.7440 H   0  0  0  0  0  0  0  0  0  0  0  0
   37.7270   27.0970   35.5450 C   0  0  0  0  0  0  0  0  0  0  0  0
   38.4510   25.8840   35.8250 C   0  0  0  0  0  0  0  0  0  0  0  0
   39.2570   27.1000   35.4250 C   0  0  0  0  0  0  0  0  0  0  0  0
   37.3090   27.7030   36.3790 H   0  0  0  0  0  0  0  0  0  0  0  0
   38.4850   25.0750   35.0400 H   0  0  0  0  0  0  0  0  0  0  0  0
   38.5110   25.4910   36.8450 H   0  0  0  0  0  0  0  0  0  0  0  0
   39.7400   27.7440   36.1660 H   0  0  0  0  0  0  0  0  0  0  0  0
   39.6950   27.1540   34.4110 H   0  0  0  0  0  0  0  0  0  0  0  0
   36.6710   25.7360   31.0140 C   0  0  0  0  0  0  0  0  0  0  0  0
   35.7900   25.6930   30.3170 H   0  0  0  0  0  0  0  0  0  0  0  0
   37.5680   25.9550   30.4200 H   0  0  0  0  0  0  0  0  0  0  0  0
   36.7380   24.4310   31.6580 N   0  0  0  0  0  0  0  0  0  0  0  0
   35.5150   23.7020   31.5800 C   0  0  0  0  0  3  0  0  0  0  0  0
   34.9000   23.9770   32.4680 H   0  0  0  0  0  0  0  0  0  0  0  0
   35.6800   22.2110   31.6190 C   0  0  0  0  0  3  0  0  0  0  0  0
   34.7580   21.7500   31.2090 H   0  0  0  0  0  0  0  0  0  0  0  0
   36.7530   21.7420   30.8640 O   0  0  0  0  0  0  0  0  0  0  0  0
   37.9050   22.2770   31.4530 C   0  0  0  0  0  2  0  0  0  0  0  0
   37.8950   23.7570   31.1610 C   0  0  0  0  0  2  0  0  0  0  0  0
  1  9  1  0  0  0  0
  2  1  1  0  0  0  0
  2  7  1  0  0  0  0
  3  2  2  0  0  0  0
  4  5  2  0  0  0  0
  4  3  1  0  0  0  0
  5  6  1  0  0  0  0
  6  1  2  0  0  0  0
  8  3  1  0  0  0  0
  9 10  1  0  0  0  0
  9 12  1  0  0  0  0
 10 14  1  0  0  0  0
 11  9  1  0  0  0  0
 11 10  1  0  0  0  0
 11 15  1  0  0  0  0
 13 10  1  0  0  0  0
 16 11  1  0  0  0  0
 17 20  1  0  0  0  0
 17  5  1  0  0  0  0
 18 17  1  0  0  0  0
 19 17  1  0  0  0  0
 21 23  1  0  0  0  0
 21 20  1  0  0  0  0
 21 22  1  0  0  0  0
 24 23  1  0  0  0  0
 25 26  1  0  0  0  0
 25 23  1  0  0  0  0
 27 26  1  0  0  0  0
 27 20  1  0  0  0  0
M  END
>  <minimizedAffinity>
-4.08262491

$$$$

 OpenBabel03272510303D

 27 29  0  0  0  0  0  0  0  0999 V2000
   36.5470   26.3380   32.3770 C   0  0  0  0  0  0  0  0  0  0  0  0
   36.2150   27.7000   32.3450 C   0  0  0  0  0  0  0  0  0  0  0  0
   36.4390   28.4200   33.5100 C   0  0  0  0  0  0  0  0  0  0  0  0
   36.9580   27.7820   34.5940 N   0  0  0  0  0  0  0  0  0  0  0  0
   37.2650   26.4620   34.5790 C   0  0  0  0  0  0  0  0  0  0  0  0
   37.0560   25.7160   33.4440 N   0  0  0  0  0  0  0  0  0  0  0  0
   35.8100   28.2050   31.5020 H   0  0  0  0  0  0  0  0  0  0  0  0
   36.2340   29.4720   33.6380 H   0  0  0  0  0  0  0  0  0  0  0  0
   36.3520   25.5480   31.1230 C   0  0  0  0  0  0  0  0  0  0  0  0
   35.9600   24.1620   31.1140 C   0  0  0  0  0  0  0  0  0  0  0  0
   34.8840   25.1930   30.8540 C   0  0  0  0  0  0  0  0  0  0  0  0
   36.9090   25.9770   30.2620 H   0  0  0  0  0  0  0  0  0  0  0  0
   35.8100   23.6290   32.0950 H   0  0  0  0  0  0  0  0  0  0  0  0
   36.2900   23.4930   30.3120 H   0  0  0  0  0  0  0  0  0  0  0  0
   34.5630   25.4530   29.8410 H   0  0  0  0  0  0  0  0  0  0  0  0
   34.1440   25.4190   31.6440 H   0  0  0  0  0  0  0  0  0  0  0  0
   37.8450   25.7850   35.7300 C   0  0  0  0  0  0  0  0  0  0  0  0
   38.5990   26.4090   36.2810 H   0  0  0  0  0  0  0  0  0  0  0  0
   37.0590   25.4910   36.4370 H   0  0  0  0  0  0  0  0  0  0  0  0
   38.5770   24.6380   35.2060 N   0  0  0  0  0  0  0  0  0  0  0  0
   39.9830   24.8610   35.1230 C   0  0  0  0  0  3  0  0  0  0  0  0
   40.1960   25.3030   34.1220 H   0  0  0  0  0  0  0  0  0  0  0  0
   40.8130   23.6140   35.2260 C   0  0  0  0  0  3  0  0  0  0  0  0
   41.8470   23.9090   35.5000 H   0  0  0  0  0  0  0  0  0  0  0  0
   40.3640   22.7150   36.1900 O   0  0  0  0  0  0  0  0  0  0  0  0
   39.0920   22.3030   35.7750 C   0  0  0  0  0  2  0  0  0  0  0  0
   38.1730   23.4870   35.9480 C   0  0  0  0  0  2  0  0  0  0  0  0
  1  6  1  0  0  0  0
  2  1  2  0  0  0  0
  2  3  1  0  0  0  0
  3  8  1  0  0  0  0
  3  4  2  0  0  0  0
  5  4  1  0  0  0  0
  5 17  1  0  0  0  0
  6  5  2  0  0  0  0
  7  2  1  0  0  0  0
  9  1  1  0  0  0  0
 10  9  1  0  0  0  0
 10 13  1  0  0  0  0
 11 10  1  0  0  0  0
 11  9  1  0  0  0  0
 11 16  1  0  0  0  0
 12  9  1  0  0  0  0
 14 10  1  0  0  0  0
 15 11  1  0  0  0  0
 17 18  1  0  0  0  0
 17 19  1  0  0  0  0
 20 17  1  0  0  0  0
 20 27  1  0  0  0  0
 21 20  1  0  0  0  0
 21 23  1  0  0  0  0
 22 21  1  0  0  0  0
 23 24  1  0  0  0  0
 23 25  1  0  0  0  0
 26 27  1  0  0  0  0
 26 25  1  0  0  0  0
M  END
>  <minimizedAffinity>
-4.07309341

$$$$

 OpenBabel03272510303D

 27 29  0  0  0  0  0  0  0  0999 V2000
   38.6210   24.3580   36.2480 C   0  0  0  0  0  0  0  0  0  0  0  0
   39.7890   23.6110   36.0370 C   0  0  0  0  0  0  0  0  0  0  0  0
   40.6210   24.0390   35.0120 C   0  0  0  0  0  0  0  0  0  0  0  0
   40.2680   25.1330   34.2840 N   0  0  0  0  0  0  0  0  0  0  0  0
   39.1280   25.8260   34.5240 C   0  0  0  0  0  0  0  0  0  0  0  0
   38.2790   25.4320   35.5310 N   0  0  0  0  0  0  0  0  0  0  0  0
   40.0710   22.7560   36.6010 H   0  0  0  0  0  0  0  0  0  0  0  0
   41.5500   23.5680   34.7300 H   0  0  0  0  0  0  0  0  0  0  0  0
   37.7270   23.9430   37.3710 C   0  0  0  0  0  0  0  0  0  0  0  0
   38.1990   23.2630   38.5500 C   0  0  0  0  0  0  0  0  0  0  0  0
   37.9510   24.7520   38.6550 C   0  0  0  0  0  0  0  0  0  0  0  0
   36.6670   23.8340   37.0500 H   0  0  0  0  0  0  0  0  0  0  0  0
   39.2930   23.0070   38.6320 H   0  0  0  0  0  0  0  0  0  0  0  0
   37.5540   22.5560   39.0840 H   0  0  0  0  0  0  0  0  0  0  0  0
   37.0240   25.1570   39.0700 H   0  0  0  0  0  0  0  0  0  0  0  0
   38.8120   25.4460   38.6840 H   0  0  0  0  0  0  0  0  0  0  0  0
   38.7630   27.0120   33.7640 C   0  0  0  0  0  0  0  0  0  0  0  0
   38.6780   27.9380   34.3960 H   0  0  0  0  0  0  0  0  0  0  0  0
   39.5010   27.2020   32.9740 H   0  0  0  0  0  0  0  0  0  0  0  0
   37.4300   26.7650   33.2300 N   0  0  0  0  0  0  0  0  0  0  0  0
   36.6610   27.9550   33.0680 C   0  0  0  0  0  3  0  0  0  0  0  0
   36.1160   28.1380   34.0230 H   0  0  0  0  0  0  0  0  0  0  0  0
   35.6210   27.8760   31.9890 C   0  0  0  0  0  3  0  0  0  0  0  0
   35.3350   28.9100   31.7080 H   0  0  0  0  0  0  0  0  0  0  0  0
   36.0540   27.2330   30.8330 O   0  0  0  0  0  0  0  0  0  0  0  0
   36.3320   25.9110   31.2040 C   0  0  0  0  0  2  0  0  0  0  0  0
   37.5700   25.9520   32.0650 C   0  0  0  0  0  2  0  0  0  0  0  0
  1  9  1  0  0  0  0
  2  1  1  0  0  0  0
  2  7  1  0  0  0  0
  3  2  2  0  0  0  0
  4  5  2  0  0  0  0
  4  3  1  0  0  0  0
  5  6  1  0  0  0  0
  6  1  2  0  0  0  0
  8  3  1  0  0  0  0
  9 10  1  0  0  0  0
  9 11  1  0  0  0  0
 10 13  1  0  0  0  0
 10 11  1  0  0  0  0
 10 14  1  0  0  0  0
 11 16  1  0  0  0  0
 11 15  1  0  0  0  0
 12  9  1  0  0  0  0
 17 18  1  0  0  0  0
 17  5  1  0  0  0  0
 19 17  1  0  0  0  0
 20 17  1  0  0  0  0
 21 20  1  0  0  0  0
 21 22  1  0  0  0  0
 23 21  1  0  0  0  0
 24 23  1  0  0  0  0
 25 26  1  0  0  0  0
 25 23  1  0  0  0  0
 26 27  1  0  0  0  0
 27 20  1  0  0  0  0
M  END
>  <minimizedAffinity>
-4.03643465

$$$$

 OpenBabel03272510303D

 27 29  0  0  0  0  0  0  0  0999 V2000
   40.0500   22.3340   36.9230 C   0  0  0  0  0  0  0  0  0  0  0  0
   39.2550   23.1150   37.7740 C   0  0  0  0  0  0  0  0  0  0  0  0
   38.0010   23.4690   37.2970 C   0  0  0  0  0  0  0  0  0  0  0  0
   37.6180   23.0480   36.0610 N   0  0  0  0  0  0  0  0  0  0  0  0
   38.4210   22.2930   35.2720 C   0  0  0  0  0  0  0  0  0  0  0  0
   39.6700   21.9240   35.7100 N   0  0  0  0  0  0  0  0  0  0  0  0
   39.5470   23.4460   38.7400 H   0  0  0  0  0  0  0  0  0  0  0  0
   37.2790   24.0650   37.8340 H   0  0  0  0  0  0  0  0  0  0  0  0
   41.3910   21.9060   37.4270 C   0  0  0  0  0  0  0  0  0  0  0  0
   42.2940   21.0760   36.6710 C   0  0  0  0  0  0  0  0  0  0  0  0
   42.5580   22.5660   36.6810 C   0  0  0  0  0  0  0  0  0  0  0  0
   41.4530   21.9320   38.5370 H   0  0  0  0  0  0  0  0  0  0  0  0
   41.9760   20.7080   35.6550 H   0  0  0  0  0  0  0  0  0  0  0  0
   42.9800   20.3900   37.1780 H   0  0  0  0  0  0  0  0  0  0  0  0
   43.2900   23.0200   37.3550 H   0  0  0  0  0  0  0  0  0  0  0  0
   42.3220   23.1670   35.7830 H   0  0  0  0  0  0  0  0  0  0  0  0
   38.0020   21.8200   33.9610 C   0  0  0  0  0  0  0  0  0  0  0  0
   38.8460   21.4040   33.3470 H   0  0  0  0  0  0  0  0  0  0  0  0
   37.2350   21.0420   34.0620 H   0  0  0  0  0  0  0  0  0  0  0  0
   37.5160   22.9880   33.2380 N   0  0  0  0  0  0  0  0  0  0  0  0
   38.5620   23.7780   32.6780 C   0  0  0  0  0  3  0  0  0  0  0  0
   38.8680   24.5270   33.4450 H   0  0  0  0  0  0  0  0  0  0  0  0
   38.1650   24.5540   31.4560 C   0  0  0  0  0  3  0  0  0  0  0  0
   39.0890   24.8370   30.9110 H   0  0  0  0  0  0  0  0  0  0  0  0
   37.3590   23.8410   30.5720 O   0  0  0  0  0  0  0  0  0  0  0  0
   36.1720   23.5660   31.2630 C   0  0  0  0  0  2  0  0  0  0  0  0
   36.5110   22.5480   32.3240 C   0  0  0  0  0  2  0  0  0  0  0  0
  1  9  1  0  0  0  0
  1  2  1  0  0  0  0
  2  7  1  0  0  0  0
  3  2  2  0  0  0  0
  3  8  1  0  0  0  0
  4  3  1  0  0  0  0
  5  6  1  0  0  0  0
  5  4  2  0  0  0  0
  6  1  2  0  0  0  0
  9 12  1  0  0  0  0
 10 11  1  0  0  0  0
 10 14  1  0  0  0  0
 10  9  1  0  0  0  0
 11 15  1  0  0  0  0
 11  9  1  0  0  0  0
 13 10  1  0  0  0  0
 16 11  1  0  0  0  0
 17 19  1  0  0  0  0
 17  5  1  0  0  0  0
 18 17  1  0  0  0  0
 20 17  1  0  0  0  0
 21 20  1  0  0  0  0
 21 22  1  0  0  0  0
 23 21  1  0  0  0  0
 24 23  1  0  0  0  0
 25 26  1  0  0  0  0
 25 23  1  0  0  0  0
 26 27  1  0  0  0  0
 27 20  1  0  0  0  0
M  END
>  <minimizedAffinity>
-4.02430248

$$$$
