
 OpenBabel03272505213D

 27 29  0  0  0  0  0  0  0  0999 V2000
   38.1310   30.9820   47.8280 Br  0  0  0  0  0  0  0  0  0  0  0  0
   36.7220   30.4750   46.6300 C   0  0  0  0  0  0  0  0  0  0  0  0
   35.5680   29.9110   47.1350 C   0  0  0  0  0  0  0  0  0  0  0  0
   34.5750   29.5590   46.2340 C   0  0  0  0  0  0  0  0  0  0  0  0
   34.7540   29.7730   44.8860 C   0  0  0  0  0  0  0  0  0  0  0  0
   35.9230   30.3430   44.3770 C   0  0  0  0  0  0  0  0  0  0  0  0
   36.9060   30.6900   45.2860 C   0  0  0  0  0  0  0  0  0  0  0  0
   33.6610   29.1130   46.6330 H   0  0  0  0  0  0  0  0  0  0  0  0
   33.9480   29.4800   44.2240 H   0  0  0  0  0  0  0  0  0  0  0  0
   36.0580   30.5090   43.3100 H   0  0  0  0  0  0  0  0  0  0  0  0
   36.4630   29.1080   50.7250 C   0  0  0  0  0  0  0  0  0  0  0  0
   36.5510   29.2840   49.3460 C   0  0  0  0  0  0  0  0  0  0  0  0
   35.4780   29.7280   48.5740 C   0  0  0  0  0  0  0  0  0  0  0  0
   34.3450   29.9740   49.2750 N   0  0  0  0  0  0  0  0  0  0  0  0
   34.2590   29.8060   50.6050 C   0  0  0  0  0  0  0  0  0  0  0  0
   35.2990   29.3800   51.3210 N   0  0  0  0  0  0  0  0  0  0  0  0
   37.3070   28.7620   51.3050 H   0  0  0  0  0  0  0  0  0  0  0  0
   37.5030   29.0620   48.8500 H   0  0  0  0  0  0  0  0  0  0  0  0
   33.3440   30.0080   51.1520 H   0  0  0  0  0  0  0  0  0  0  0  0
   38.0830   31.2690   44.7310 N   0  0  0  0  0  0  0  0  0  0  0  0
   38.2400   32.6950   44.4940 C   0  0  0  0  0  0  0  0  0  0  0  0
   38.7600   33.1940   45.3380 H   0  0  0  0  0  0  0  0  0  0  0  0
   39.1260   32.8090   43.2910 C   0  0  0  0  0  0  0  0  0  0  0  0
   38.6150   32.3960   42.3870 H   0  0  0  0  0  0  0  0  0  0  0  0
   40.3550   32.2260   43.3930 O   0  0  0  0  0  0  0  0  0  0  0  0
   40.4420   31.0480   44.0770 C   0  0  0  0  0  0  0  0  0  0  0  0
   39.1570   30.3660   44.3990 C   0  0  0  0  0  0  0  0  0  0  0  0
  2  3  1  0  0  0  0
  2  1  1  0  0  0  0
  3 13  1  0  0  0  0
  4  8  1  0  0  0  0
  4  3  2  0  0  0  0
  5  4  1  0  0  0  0
  6  5  2  0  0  0  0
  6  7  1  0  0  0  0
  7  2  2  0  0  0  0
  9  5  1  0  0  0  0
 10  6  1  0  0  0  0
 11 17  1  0  0  0  0
 11 16  1  0  0  0  0
 12 11  2  0  0  0  0
 13 14  2  0  0  0  0
 13 12  1  0  0  0  0
 14 15  1  0  0  0  0
 15 19  1  0  0  0  0
 15 16  2  0  0  0  0
 18 12  1  0  0  0  0
 20  7  1  0  0  0  0
 21 20  1  0  0  0  0
 21 22  1  0  0  0  0
 23 25  1  0  0  0  0
 23 21  1  0  0  0  0
 24 23  1  0  0  0  0
 25 26  1  0  0  0  0
 26 27  1  0  0  0  0
 27 20  1  0  0  0  0
M  END
>  <minimizedAffinity>
-4.96429586

>  <minimizedRMSD>
4.0833559

$$$$
