
 OpenBabel03272510183D

 27 29  0  0  0  0  0  0  0  0999 V2000
   37.2860   28.6650   29.6280 Br  0  0  0  0  0  0  0  0  0  0  0  0
   36.5300   29.2770   31.2730 C   0  0  0  0  0  0  0  0  0  0  0  0
   36.0810   28.3740   32.2330 C   0  0  0  0  0  0  0  0  0  0  0  0
   35.5530   28.9020   33.3830 C   0  0  0  0  0  0  0  0  0  0  0  0
   35.4380   30.2470   33.6510 C   0  0  0  0  0  0  0  0  0  0  0  0
   35.8930   31.1100   32.6780 C   0  0  0  0  0  0  0  0  0  0  0  0
   36.4340   30.6210   31.4990 C   0  0  0  0  0  0  0  0  0  0  0  0
   35.2140   28.1770   34.1080 H   0  0  0  0  0  0  0  0  0  0  0  0
   35.8550   32.1810   32.7750 H   0  0  0  0  0  0  0  0  0  0  0  0
   36.7910   31.3140   30.7360 H   0  0  0  0  0  0  0  0  0  0  0  0
   37.3460   24.9630   32.3850 C   0  0  0  0  0  0  0  0  0  0  0  0
   36.4240   24.2260   31.6110 C   0  0  0  0  0  0  0  0  0  0  0  0
   35.3690   24.9210   31.0410 C   0  0  0  0  0  0  0  0  0  0  0  0
   35.2690   26.2690   31.2510 N   0  0  0  0  0  0  0  0  0  0  0  0
   36.1780   26.9450   32.0040 C   0  0  0  0  0  0  0  0  0  0  0  0
   37.2060   26.2800   32.5630 N   0  0  0  0  0  0  0  0  0  0  0  0
   38.2170   24.5050   32.8790 H   0  0  0  0  0  0  0  0  0  0  0  0
   36.6260   23.1680   31.5290 H   0  0  0  0  0  0  0  0  0  0  0  0
   34.6790   24.3590   30.4590 H   0  0  0  0  0  0  0  0  0  0  0  0
   34.8830   30.7530   34.8590 N   0  0  0  0  0  0  0  0  0  0  0  0
   35.7460   31.3990   35.8300 C   0  0  0  0  0  3  0  0  0  0  0  0
   36.5050   32.0530   35.4010 H   0  0  0  0  0  0  0  0  0  0  0  0
   34.9540   32.2030   36.8320 C   0  0  0  0  0  3  0  0  0  0  0  0
   34.7880   33.2540   36.4600 H   0  0  0  0  0  0  0  0  0  0  0  0
   33.7890   31.5820   37.2170 O   0  0  0  0  0  0  0  0  0  0  0  0
   32.8960   31.3770   36.1890 C   0  0  0  0  0  2  0  0  0  0  0  0
   33.4330   30.5800   35.0420 C   0  0  0  0  0  2  0  0  0  0  0  0
  1  2  1  0  0  0  0
  2  7  2  0  0  0  0
  2  3  1  0  0  0  0
  3  4  2  0  0  0  0
  4  5  1  0  0  0  0
  4  8  1  0  0  0  0
  5 20  1  0  0  0  0
  6  9  1  0  0  0  0
  6  5  2  0  0  0  0
  7  6  1  0  0  0  0
 10  7  1  0  0  0  0
 11 16  1  0  0  0  0
 11 17  1  0  0  0  0
 12 11  2  0  0  0  0
 13 14  2  0  0  0  0
 13 12  1  0  0  0  0
 14 15  1  0  0  0  0
 15  3  1  0  0  0  0
 15 16  2  0  0  0  0
 18 12  1  0  0  0  0
 19 13  1  0  0  0  0
 20 27  1  0  0  0  0
 20 21  1  0  0  0  0
 21 23  1  0  0  0  0
 22 21  1  0  0  0  0
 23 25  1  0  0  0  0
 24 23  1  0  0  0  0
 26 25  1  0  0  0  0
 27 26  1  0  0  0  0
M  END
>  <minimizedAffinity>
-5.00291395

$$$$

 OpenBabel03272510183D

 27 29  0  0  0  0  0  0  0  0999 V2000
   35.2910   31.6130   32.1000 Br  0  0  0  0  0  0  0  0  0  0  0  0
   35.9130   29.9140   32.7150 C   0  0  0  0  0  0  0  0  0  0  0  0
   35.7590   29.5350   34.0450 C   0  0  0  0  0  0  0  0  0  0  0  0
   36.2360   28.2980   34.3970 C   0  0  0  0  0  0  0  0  0  0  0  0
   36.8470   27.4150   33.5360 C   0  0  0  0  0  0  0  0  0  0  0  0
   36.9810   27.8250   32.2270 C   0  0  0  0  0  0  0  0  0  0  0  0
   36.5140   29.0680   31.8260 C   0  0  0  0  0  0  0  0  0  0  0  0
   36.1020   28.0320   35.4350 H   0  0  0  0  0  0  0  0  0  0  0  0
   37.4410   27.2220   31.4640 H   0  0  0  0  0  0  0  0  0  0  0  0
   36.6260   29.3810   30.7870 H   0  0  0  0  0  0  0  0  0  0  0  0
   33.1460   31.1430   36.0060 C   0  0  0  0  0  0  0  0  0  0  0  0
   33.8450   32.0870   36.7900 C   0  0  0  0  0  0  0  0  0  0  0  0
   35.2200   32.1580   36.6300 C   0  0  0  0  0  0  0  0  0  0  0  0
   35.8300   31.3220   35.7340 N   0  0  0  0  0  0  0  0  0  0  0  0
   35.1230   30.4250   34.9970 C   0  0  0  0  0  0  0  0  0  0  0  0
   33.7870   30.3470   35.1450 N   0  0  0  0  0  0  0  0  0  0  0  0
   32.0550   31.0090   36.0580 H   0  0  0  0  0  0  0  0  0  0  0  0
   33.2360   32.6810   37.4550 H   0  0  0  0  0  0  0  0  0  0  0  0
   35.7380   32.8710   37.2240 H   0  0  0  0  0  0  0  0  0  0  0  0
   37.3270   26.1400   33.9430 N   0  0  0  0  0  0  0  0  0  0  0  0
   37.5050   25.0920   32.9560 C   0  0  0  0  0  3  0  0  0  0  0  0
   37.9280   25.4250   32.0090 H   0  0  0  0  0  0  0  0  0  0  0  0
   38.3710   23.9730   33.4820 C   0  0  0  0  0  3  0  0  0  0  0  0
   39.4600   24.1810   33.2800 H   0  0  0  0  0  0  0  0  0  0  0  0
   38.1190   23.6740   34.8010 O   0  0  0  0  0  0  0  0  0  0  0  0
   38.3700   24.7130   35.6690 C   0  0  0  0  0  2  0  0  0  0  0  0
   37.6160   25.9710   35.3770 C   0  0  0  0  0  2  0  0  0  0  0  0
  1  2  1  0  0  0  0
  2  3  1  0  0  0  0
  3  4  2  0  0  0  0
  3 15  1  0  0  0  0
  4  8  1  0  0  0  0
  5 20  1  0  0  0  0
  5  4  1  0  0  0  0
  6  5  2  0  0  0  0
  7  6  1  0  0  0  0
  7  2  2  0  0  0  0
  9  6  1  0  0  0  0
 10  7  1  0  0  0  0
 11 17  1  0  0  0  0
 11 12  1  0  0  0  0
 12 18  1  0  0  0  0
 13 12  2  0  0  0  0
 13 19  1  0  0  0  0
 14 13  1  0  0  0  0
 15 16  1  0  0  0  0
 15 14  2  0  0  0  0
 16 11  2  0  0  0  0
 20 27  1  0  0  0  0
 21 23  1  0  0  0  0
 21 20  1  0  0  0  0
 22 21  1  0  0  0  0
 23 25  1  0  0  0  0
 24 23  1  0  0  0  0
 25 26  1  0  0  0  0
 27 26  1  0  0  0  0
M  END
>  <minimizedAffinity>
-4.93613005

$$$$

 OpenBabel03272510183D

 27 29  0  0  0  0  0  0  0  0999 V2000
   35.7420   30.3480   31.6110 Br  0  0  0  0  0  0  0  0  0  0  0  0
   36.3880   28.8390   32.5900 C   0  0  0  0  0  0  0  0  0  0  0  0
   36.1520   28.7190   33.9560 C   0  0  0  0  0  0  0  0  0  0  0  0
   36.6520   27.6030   34.5760 C   0  0  0  0  0  0  0  0  0  0  0  0
   37.3620   26.6050   33.9490 C   0  0  0  0  0  0  0  0  0  0  0  0
   37.5760   26.7580   32.5970 C   0  0  0  0  0  0  0  0  0  0  0  0
   37.0890   27.8710   31.9280 C   0  0  0  0  0  0  0  0  0  0  0  0
   36.4530   27.5370   35.6360 H   0  0  0  0  0  0  0  0  0  0  0  0
   38.1160   26.0450   32.0000 H   0  0  0  0  0  0  0  0  0  0  0  0
   37.2640   27.9810   30.8570 H   0  0  0  0  0  0  0  0  0  0  0  0
   33.3280   30.5900   35.2930 C   0  0  0  0  0  0  0  0  0  0  0  0
   33.9320   31.6490   36.0050 C   0  0  0  0  0  0  0  0  0  0  0  0
   35.3170   31.7050   36.0140 C   0  0  0  0  0  0  0  0  0  0  0  0
   36.0260   30.7460   35.3440 N   0  0  0  0  0  0  0  0  0  0  0  0
   35.4090   29.7400   34.6700 C   0  0  0  0  0  0  0  0  0  0  0  0
   34.0640   29.6760   34.6540 N   0  0  0  0  0  0  0  0  0  0  0  0
   32.2380   30.4570   35.2240 H   0  0  0  0  0  0  0  0  0  0  0  0
   33.2490   32.3350   36.4860 H   0  0  0  0  0  0  0  0  0  0  0  0
   35.7630   32.5060   36.5520 H   0  0  0  0  0  0  0  0  0  0  0  0
   37.8630   25.4620   34.6320 N   0  0  0  0  0  0  0  0  0  0  0  0
   38.0620   25.5130   36.0680 C   0  0  0  0  0  3  0  0  0  0  0  0
   37.2750   26.0300   36.6190 H   0  0  0  0  0  0  0  0  0  0  0  0
   38.2120   24.1330   36.6600 C   0  0  0  0  0  3  0  0  0  0  0  0
   37.2070   23.7040   36.9360 H   0  0  0  0  0  0  0  0  0  0  0  0
   38.9550   23.2890   35.8680 O   0  0  0  0  0  0  0  0  0  0  0  0
   38.4030   23.0510   34.6300 C   0  0  0  0  0  2  0  0  0  0  0  0
   38.1530   24.2760   33.8090 C   0  0  0  0  0  2  0  0  0  0  0  0
  1  2  1  0  0  0  0
  2  3  1  0  0  0  0
  3  4  2  0  0  0  0
  3 15  1  0  0  0  0
  4  8  1  0  0  0  0
  5  4  1  0  0  0  0
  5 20  1  0  0  0  0
  6  5  2  0  0  0  0
  7  2  2  0  0  0  0
  7  6  1  0  0  0  0
  9  6  1  0  0  0  0
 10  7  1  0  0  0  0
 11 12  1  0  0  0  0
 12 13  2  0  0  0  0
 12 18  1  0  0  0  0
 13 19  1  0  0  0  0
 14 13  1  0  0  0  0
 15 14  2  0  0  0  0
 16 15  1  0  0  0  0
 16 11  2  0  0  0  0
 17 11  1  0  0  0  0
 20 21  1  0  0  0  0
 21 22  1  0  0  0  0
 21 23  1  0  0  0  0
 23 24  1  0  0  0  0
 25 23  1  0  0  0  0
 26 25  1  0  0  0  0
 27 26  1  0  0  0  0
 27 20  1  0  0  0  0
M  END
>  <minimizedAffinity>
-4.9302187

$$$$

 OpenBabel03272510183D

 27 29  0  0  0  0  0  0  0  0999 V2000
   35.2290   31.0860   31.9070 Br  0  0  0  0  0  0  0  0  0  0  0  0
   35.9620   29.5090   32.6980 C   0  0  0  0  0  0  0  0  0  0  0  0
   35.8430   29.2730   34.0650 C   0  0  0  0  0  0  0  0  0  0  0  0
   36.3990   28.1150   34.5450 C   0  0  0  0  0  0  0  0  0  0  0  0
   37.0590   27.1810   33.7800 C   0  0  0  0  0  0  0  0  0  0  0  0
   37.1570   27.4490   32.4320 C   0  0  0  0  0  0  0  0  0  0  0  0
   36.6100   28.6080   31.9010 C   0  0  0  0  0  0  0  0  0  0  0  0
   36.2900   27.9600   35.6090 H   0  0  0  0  0  0  0  0  0  0  0  0
   37.6500   26.7950   31.7340 H   0  0  0  0  0  0  0  0  0  0  0  0
   36.6940   28.8090   30.8320 H   0  0  0  0  0  0  0  0  0  0  0  0
   35.3210   32.0100   36.4090 C   0  0  0  0  0  0  0  0  0  0  0  0
   33.9190   32.0570   36.5670 C   0  0  0  0  0  0  0  0  0  0  0  0
   33.1650   31.1350   35.8570 C   0  0  0  0  0  0  0  0  0  0  0  0
   33.8030   30.2360   35.0470 N   0  0  0  0  0  0  0  0  0  0  0  0
   35.1570   30.2220   34.9200 C   0  0  0  0  0  0  0  0  0  0  0  0
   35.8990   31.1120   35.6040 N   0  0  0  0  0  0  0  0  0  0  0  0
   36.0080   32.6970   36.9270 H   0  0  0  0  0  0  0  0  0  0  0  0
   33.5520   32.8190   37.2390 H   0  0  0  0  0  0  0  0  0  0  0  0
   32.1100   31.1770   35.9820 H   0  0  0  0  0  0  0  0  0  0  0  0
   37.6220   25.9920   34.3200 N   0  0  0  0  0  0  0  0  0  0  0  0
   37.9650   25.9360   35.7280 C   0  0  0  0  0  3  0  0  0  0  0  0
   37.2400   26.4070   36.3930 H   0  0  0  0  0  0  0  0  0  0  0  0
   38.1680   24.5150   36.1960 C   0  0  0  0  0  3  0  0  0  0  0  0
   37.1940   24.0640   36.5400 H   0  0  0  0  0  0  0  0  0  0  0  0
   38.8240   23.7360   35.2720 O   0  0  0  0  0  0  0  0  0  0  0  0
   38.1480   23.5900   34.0810 C   0  0  0  0  0  2  0  0  0  0  0  0
   37.8210   24.8730   33.3840 C   0  0  0  0  0  2  0  0  0  0  0  0
  1  2  1  0  0  0  0
  2  3  1  0  0  0  0
  3  4  2  0  0  0  0
  3 15  1  0  0  0  0
  4  8  1  0  0  0  0
  5 20  1  0  0  0  0
  5  4  1  0  0  0  0
  6  5  2  0  0  0  0
  7  6  1  0  0  0  0
  7  2  2  0  0  0  0
  9  6  1  0  0  0  0
 10  7  1  0  0  0  0
 11 12  1  0  0  0  0
 11 17  1  0  0  0  0
 12 18  1  0  0  0  0
 13 19  1  0  0  0  0
 13 12  2  0  0  0  0
 14 13  1  0  0  0  0
 15 14  2  0  0  0  0
 15 16  1  0  0  0  0
 16 11  2  0  0  0  0
 20 21  1  0  0  0  0
 21 23  1  0  0  0  0
 21 22  1  0  0  0  0
 23 24  1  0  0  0  0
 25 23  1  0  0  0  0
 26 25  1  0  0  0  0
 27 26  1  0  0  0  0
 27 20  1  0  0  0  0
M  END
>  <minimizedAffinity>
-4.90533543

$$$$

 OpenBabel03272510183D

 27 29  0  0  0  0  0  0  0  0999 V2000
   36.5080   27.8720   31.8800 Br  0  0  0  0  0  0  0  0  0  0  0  0
   36.3980   25.9640   31.8440 C   0  0  0  0  0  0  0  0  0  0  0  0
   37.3260   25.1820   32.5240 C   0  0  0  0  0  0  0  0  0  0  0  0
   37.1700   23.8220   32.4420 C   0  0  0  0  0  0  0  0  0  0  0  0
   36.1710   23.1840   31.7430 C   0  0  0  0  0  0  0  0  0  0  0  0
   35.2710   23.9920   31.0820 C   0  0  0  0  0  0  0  0  0  0  0  0
   35.3900   25.3720   31.1360 C   0  0  0  0  0  0  0  0  0  0  0  0
   37.9050   23.2410   32.9810 H   0  0  0  0  0  0  0  0  0  0  0  0
   34.4490   23.6090   30.5030 H   0  0  0  0  0  0  0  0  0  0  0  0
   34.6720   26.0010   30.6090 H   0  0  0  0  0  0  0  0  0  0  0  0
   40.5920   26.5970   33.2940 C   0  0  0  0  0  0  0  0  0  0  0  0
   40.4870   26.9700   34.6520 C   0  0  0  0  0  0  0  0  0  0  0  0
   39.2810   26.7250   35.2900 C   0  0  0  0  0  0  0  0  0  0  0  0
   38.2620   26.1430   34.5870 N   0  0  0  0  0  0  0  0  0  0  0  0
   38.4000   25.7990   33.2780 C   0  0  0  0  0  0  0  0  0  0  0  0
   39.5670   26.0320   32.6490 N   0  0  0  0  0  0  0  0  0  0  0  0
   41.5050   26.7490   32.6980 H   0  0  0  0  0  0  0  0  0  0  0  0
   41.3710   27.4190   35.0800 H   0  0  0  0  0  0  0  0  0  0  0  0
   39.2100   27.0090   36.3120 H   0  0  0  0  0  0  0  0  0  0  0  0
   36.0460   21.7690   31.6840 N   0  0  0  0  0  0  0  0  0  0  0  0
   35.0180   21.1070   32.4650 C   0  0  0  0  0  3  0  0  0  0  0  0
   34.0570   21.6210   32.4840 H   0  0  0  0  0  0  0  0  0  0  0  0
   34.7790   19.6950   31.9880 C   0  0  0  0  0  3  0  0  0  0  0  0
   34.0010   19.6740   31.1720 H   0  0  0  0  0  0  0  0  0  0  0  0
   35.9390   19.0430   31.6400 O   0  0  0  0  0  0  0  0  0  0  0  0
   36.6170   19.6270   30.5930 C   0  0  0  0  0  2  0  0  0  0  0  0
   36.9940   21.0580   30.8110 C   0  0  0  0  0  2  0  0  0  0  0  0
  2  1  1  0  0  0  0
  2  3  1  0  0  0  0
  3 15  1  0  0  0  0
  4  3  2  0  0  0  0
  4  8  1  0  0  0  0
  5  4  1  0  0  0  0
  6  7  1  0  0  0  0
  6  5  2  0  0  0  0
  7  2  2  0  0  0  0
  9  6  1  0  0  0  0
 10  7  1  0  0  0  0
 11 12  1  0  0  0  0
 12 18  1  0  0  0  0
 12 13  2  0  0  0  0
 13 19  1  0  0  0  0
 14 13  1  0  0  0  0
 15 14  2  0  0  0  0
 16 15  1  0  0  0  0
 16 11  2  0  0  0  0
 17 11  1  0  0  0  0
 20  5  1  0  0  0  0
 20 21  1  0  0  0  0
 21 22  1  0  0  0  0
 23 21  1  0  0  0  0
 24 23  1  0  0  0  0
 25 23  1  0  0  0  0
 26 27  1  0  0  0  0
 26 25  1  0  0  0  0
 27 20  1  0  0  0  0
M  END
>  <minimizedAffinity>
-4.81341648

$$$$

 OpenBabel03272510183D

 27 29  0  0  0  0  0  0  0  0999 V2000
   38.6790   26.4160   34.9110 Br  0  0  0  0  0  0  0  0  0  0  0  0
   38.1800   24.8520   33.9320 C   0  0  0  0  0  0  0  0  0  0  0  0
   38.1100   23.6100   34.5560 C   0  0  0  0  0  0  0  0  0  0  0  0
   37.7430   22.5440   33.7760 C   0  0  0  0  0  0  0  0  0  0  0  0
   37.4440   22.6160   32.4340 C   0  0  0  0  0  0  0  0  0  0  0  0
   37.5240   23.8610   31.8520 C   0  0  0  0  0  0  0  0  0  0  0  0
   37.8910   24.9680   32.6020 C   0  0  0  0  0  0  0  0  0  0  0  0
   37.6970   21.5940   34.2880 H   0  0  0  0  0  0  0  0  0  0  0  0
   37.3130   24.0410   30.8120 H   0  0  0  0  0  0  0  0  0  0  0  0
   37.9510   25.9500   32.1290 H   0  0  0  0  0  0  0  0  0  0  0  0
   39.9280   22.7750   37.5990 C   0  0  0  0  0  0  0  0  0  0  0  0
   39.0600   23.1870   38.6340 C   0  0  0  0  0  0  0  0  0  0  0  0
   37.8490   23.7510   38.2660 C   0  0  0  0  0  0  0  0  0  0  0  0
   37.5520   23.8830   36.9370 N   0  0  0  0  0  0  0  0  0  0  0  0
   38.4150   23.4750   35.9670 C   0  0  0  0  0  0  0  0  0  0  0  0
   39.5940   22.9260   36.3140 N   0  0  0  0  0  0  0  0  0  0  0  0
   40.9110   22.3170   37.7850 H   0  0  0  0  0  0  0  0  0  0  0  0
   39.4230   23.0220   39.6380 H   0  0  0  0  0  0  0  0  0  0  0  0
   37.2010   24.0580   39.0510 H   0  0  0  0  0  0  0  0  0  0  0  0
   37.0670   21.4820   31.6610 N   0  0  0  0  0  0  0  0  0  0  0  0
   37.8810   21.0830   30.5290 C   0  0  0  0  0  3  0  0  0  0  0  0
   38.9570   21.1500   30.6950 H   0  0  0  0  0  0  0  0  0  0  0  0
   37.5670   19.6750   30.0860 C   0  0  0  0  0  3  0  0  0  0  0  0
   38.1970   18.9280   30.6470 H   0  0  0  0  0  0  0  0  0  0  0  0
   36.2230   19.3860   30.1330 O   0  0  0  0  0  0  0  0  0  0  0  0
   35.6800   19.4550   31.3960 C   0  0  0  0  0  2  0  0  0  0  0  0
   35.8440   20.7770   32.0780 C   0  0  0  0  0  2  0  0  0  0  0  0
  2  3  1  0  0  0  0
  2  1  1  0  0  0  0
  3 15  1  0  0  0  0
  4  8  1  0  0  0  0
  4  3  2  0  0  0  0
  5  4  1  0  0  0  0
  6  5  2  0  0  0  0
  6  7  1  0  0  0  0
  7  2  2  0  0  0  0
  9  6  1  0  0  0  0
 10  7  1  0  0  0  0
 11 17  1  0  0  0  0
 11 12  1  0  0  0  0
 12 18  1  0  0  0  0
 13 12  2  0  0  0  0
 13 19  1  0  0  0  0
 14 13  1  0  0  0  0
 15 16  1  0  0  0  0
 15 14  2  0  0  0  0
 16 11  2  0  0  0  0
 20 27  1  0  0  0  0
 20  5  1  0  0  0  0
 21 22  1  0  0  0  0
 21 20  1  0  0  0  0
 23 25  1  0  0  0  0
 23 21  1  0  0  0  0
 23 24  1  0  0  0  0
 25 26  1  0  0  0  0
 26 27  1  0  0  0  0
M  END
>  <minimizedAffinity>
-4.74543428

$$$$

 OpenBabel03272510183D

 27 29  0  0  0  0  0  0  0  0999 V2000
   37.9150   28.2230   30.9630 Br  0  0  0  0  0  0  0  0  0  0  0  0
   38.1260   27.1070   32.5000 C   0  0  0  0  0  0  0  0  0  0  0  0
   37.3080   27.2630   33.6150 C   0  0  0  0  0  0  0  0  0  0  0  0
   37.5320   26.4180   34.6720 C   0  0  0  0  0  0  0  0  0  0  0  0
   38.4970   25.4380   34.7060 C   0  0  0  0  0  0  0  0  0  0  0  0
   39.2870   25.3130   33.5850 C   0  0  0  0  0  0  0  0  0  0  0  0
   39.0980   26.1460   32.4920 C   0  0  0  0  0  0  0  0  0  0  0  0
   36.8820   26.5630   35.5220 H   0  0  0  0  0  0  0  0  0  0  0  0
   40.0740   24.5840   33.4950 H   0  0  0  0  0  0  0  0  0  0  0  0
   39.7300   26.0380   31.6090 H   0  0  0  0  0  0  0  0  0  0  0  0
   34.3290   29.1320   32.6700 C   0  0  0  0  0  0  0  0  0  0  0  0
   34.2750   30.1810   33.6130 C   0  0  0  0  0  0  0  0  0  0  0  0
   35.2760   30.2310   34.5720 C   0  0  0  0  0  0  0  0  0  0  0  0
   36.2560   29.2760   34.5600 N   0  0  0  0  0  0  0  0  0  0  0  0
   36.2740   28.2790   33.6350 C   0  0  0  0  0  0  0  0  0  0  0  0
   35.3070   28.2210   32.7010 N   0  0  0  0  0  0  0  0  0  0  0  0
   33.5840   29.0030   31.8710 H   0  0  0  0  0  0  0  0  0  0  0  0
   33.4450   30.8630   33.5030 H   0  0  0  0  0  0  0  0  0  0  0  0
   35.2280   31.0240   35.2780 H   0  0  0  0  0  0  0  0  0  0  0  0
   38.6950   24.5820   35.8250 N   0  0  0  0  0  0  0  0  0  0  0  0
   37.7740   24.6390   36.9440 C   0  0  0  0  0  3  0  0  0  0  0  0
   36.7250   24.7440   36.6660 H   0  0  0  0  0  0  0  0  0  0  0  0
   37.8990   23.4240   37.8300 C   0  0  0  0  0  3  0  0  0  0  0  0
   37.2220   22.5960   37.4730 H   0  0  0  0  0  0  0  0  0  0  0  0
   39.2010   23.0160   38.0000 O   0  0  0  0  0  0  0  0  0  0  0  0
   39.8240   22.6300   36.8350 C   0  0  0  0  0  2  0  0  0  0  0  0
   39.8530   23.6750   35.7640 C   0  0  0  0  0  2  0  0  0  0  0  0
  1  2  1  0  0  0  0
  2  3  1  0  0  0  0
  3 15  1  0  0  0  0
  3  4  2  0  0  0  0
  4  5  1  0  0  0  0
  4  8  1  0  0  0  0
  5 20  1  0  0  0  0
  6  5  2  0  0  0  0
  7  2  2  0  0  0  0
  7  6  1  0  0  0  0
  9  6  1  0  0  0  0
 10  7  1  0  0  0  0
 11 16  2  0  0  0  0
 11 12  1  0  0  0  0
 12 13  2  0  0  0  0
 13 19  1  0  0  0  0
 14 13  1  0  0  0  0
 15 14  2  0  0  0  0
 16 15  1  0  0  0  0
 17 11  1  0  0  0  0
 18 12  1  0  0  0  0
 20 21  1  0  0  0  0
 21 23  1  0  0  0  0
 22 21  1  0  0  0  0
 23 25  1  0  0  0  0
 24 23  1  0  0  0  0
 26 25  1  0  0  0  0
 27 20  1  0  0  0  0
 27 26  1  0  0  0  0
M  END
>  <minimizedAffinity>
-4.61272192

$$$$

 OpenBabel03272510183D

 27 29  0  0  0  0  0  0  0  0999 V2000
   39.1960   27.1310   30.5420 Br  0  0  0  0  0  0  0  0  0  0  0  0
   38.3110   25.4640   30.8420 C   0  0  0  0  0  0  0  0  0  0  0  0
   37.2250   25.3750   31.7080 C   0  0  0  0  0  0  0  0  0  0  0  0
   36.6530   24.1390   31.8620 C   0  0  0  0  0  0  0  0  0  0  0  0
   37.0730   22.9920   31.2270 C   0  0  0  0  0  0  0  0  0  0  0  0
   38.1500   23.1180   30.3770 C   0  0  0  0  0  0  0  0  0  0  0  0
   38.7610   24.3490   30.1910 C   0  0  0  0  0  0  0  0  0  0  0  0
   35.8130   24.1020   32.5400 H   0  0  0  0  0  0  0  0  0  0  0  0
   38.5670   22.2940   29.8260 H   0  0  0  0  0  0  0  0  0  0  0  0
   39.6130   24.4370   29.5150 H   0  0  0  0  0  0  0  0  0  0  0  0
   35.3930   28.4550   32.3560 C   0  0  0  0  0  0  0  0  0  0  0  0
   35.7750   28.8060   33.6690 C   0  0  0  0  0  0  0  0  0  0  0  0
   36.6680   27.9680   34.3190 C   0  0  0  0  0  0  0  0  0  0  0  0
   37.1320   26.8560   33.6700 N   0  0  0  0  0  0  0  0  0  0  0  0
   36.7400   26.5510   32.4040 C   0  0  0  0  0  0  0  0  0  0  0  0
   35.8730   27.3570   31.7640 N   0  0  0  0  0  0  0  0  0  0  0  0
   34.6910   29.0520   31.7550 H   0  0  0  0  0  0  0  0  0  0  0  0
   35.3310   29.7110   34.0570 H   0  0  0  0  0  0  0  0  0  0  0  0
   36.9510   28.2390   35.3080 H   0  0  0  0  0  0  0  0  0  0  0  0
   36.4490   21.7280   31.4150 N   0  0  0  0  0  0  0  0  0  0  0  0
   35.2880   21.6220   32.2790 C   0  0  0  0  0  3  0  0  0  0  0  0
   34.5750   22.4410   32.1870 H   0  0  0  0  0  0  0  0  0  0  0  0
   34.5420   20.3300   32.0530 C   0  0  0  0  0  3  0  0  0  0  0  0
   33.7730   20.4490   31.2380 H   0  0  0  0  0  0  0  0  0  0  0  0
   35.3770   19.2570   31.8480 O   0  0  0  0  0  0  0  0  0  0  0  0
   36.1720   19.3710   30.7300 C   0  0  0  0  0  2  0  0  0  0  0  0
   37.0430   20.5870   30.7000 C   0  0  0  0  0  2  0  0  0  0  0  0
  1  2  1  0  0  0  0
  2  3  1  0  0  0  0
  3  4  2  0  0  0  0
  3 15  1  0  0  0  0
  4  8  1  0  0  0  0
  5 20  1  0  0  0  0
  5  4  1  0  0  0  0
  6  5  2  0  0  0  0
  7  6  1  0  0  0  0
  7  2  2  0  0  0  0
  9  6  1  0  0  0  0
 10  7  1  0  0  0  0
 11 12  1  0  0  0  0
 12 18  1  0  0  0  0
 12 13  2  0  0  0  0
 13 19  1  0  0  0  0
 14 13  1  0  0  0  0
 15 14  2  0  0  0  0
 16 11  2  0  0  0  0
 16 15  1  0  0  0  0
 17 11  1  0  0  0  0
 20 21  1  0  0  0  0
 22 21  1  0  0  0  0
 23 21  1  0  0  0  0
 24 23  1  0  0  0  0
 25 23  1  0  0  0  0
 26 25  1  0  0  0  0
 27 26  1  0  0  0  0
 27 20  1  0  0  0  0
M  END
>  <minimizedAffinity>
-4.61129284

$$$$

 OpenBabel03272510183D

 27 29  0  0  0  0  0  0  0  0999 V2000
   37.8930   27.3140   30.9480 Br  0  0  0  0  0  0  0  0  0  0  0  0
   36.9800   28.2880   32.3150 C   0  0  0  0  0  0  0  0  0  0  0  0
   37.0930   27.9190   33.6530 C   0  0  0  0  0  0  0  0  0  0  0  0
   36.4030   28.6740   34.5650 C   0  0  0  0  0  0  0  0  0  0  0  0
   35.6150   29.7590   34.2550 C   0  0  0  0  0  0  0  0  0  0  0  0
   35.5270   30.0940   32.9210 C   0  0  0  0  0  0  0  0  0  0  0  0
   36.2080   29.3590   31.9630 C   0  0  0  0  0  0  0  0  0  0  0  0
   36.5100   28.3640   35.5940 H   0  0  0  0  0  0  0  0  0  0  0  0
   34.9430   30.9210   32.5580 H   0  0  0  0  0  0  0  0  0  0  0  0
   36.1310   29.6330   30.9100 H   0  0  0  0  0  0  0  0  0  0  0  0
   39.9470   26.0140   34.8720 C   0  0  0  0  0  0  0  0  0  0  0  0
   39.5180   24.6720   34.7900 C   0  0  0  0  0  0  0  0  0  0  0  0
   38.2380   24.4390   34.3110 C   0  0  0  0  0  0  0  0  0  0  0  0
   37.4600   25.5040   33.9440 N   0  0  0  0  0  0  0  0  0  0  0  0
   37.9100   26.7840   34.0380 C   0  0  0  0  0  0  0  0  0  0  0  0
   39.1500   27.0210   34.5030 N   0  0  0  0  0  0  0  0  0  0  0  0
   40.9440   26.3050   35.2390 H   0  0  0  0  0  0  0  0  0  0  0  0
   40.2360   23.9330   35.1130 H   0  0  0  0  0  0  0  0  0  0  0  0
   37.9220   23.4260   34.2520 H   0  0  0  0  0  0  0  0  0  0  0  0
   34.9150   30.5170   35.2350 N   0  0  0  0  0  0  0  0  0  0  0  0
   35.6410   31.4560   36.0690 C   0  0  0  0  0  3  0  0  0  0  0  0
   36.4050   32.0330   35.5480 H   0  0  0  0  0  0  0  0  0  0  0  0
   34.7110   32.4290   36.7510 C   0  0  0  0  0  3  0  0  0  0  0  0
   34.5300   33.3320   36.1020 H   0  0  0  0  0  0  0  0  0  0  0  0
   33.5470   31.8410   37.1880 O   0  0  0  0  0  0  0  0  0  0  0  0
   32.7750   31.3090   36.1790 C   0  0  0  0  0  2  0  0  0  0  0  0
   33.4650   30.2860   35.3340 C   0  0  0  0  0  2  0  0  0  0  0  0
  1  2  1  0  0  0  0
  2  3  1  0  0  0  0
  3 15  1  0  0  0  0
  3  4  2  0  0  0  0
  4  8  1  0  0  0  0
  5  4  1  0  0  0  0
  5 20  1  0  0  0  0
  6  5  2  0  0  0  0
  7  2  2  0  0  0  0
  7  6  1  0  0  0  0
  9  6  1  0  0  0  0
 10  7  1  0  0  0  0
 11 17  1  0  0  0  0
 12 11  1  0  0  0  0
 12 18  1  0  0  0  0
 13 12  2  0  0  0  0
 14 15  2  0  0  0  0
 14 13  1  0  0  0  0
 15 16  1  0  0  0  0
 16 11  2  0  0  0  0
 19 13  1  0  0  0  0
 20 27  1  0  0  0  0
 20 21  1  0  0  0  0
 21 23  1  0  0  0  0
 22 21  1  0  0  0  0
 23 25  1  0  0  0  0
 24 23  1  0  0  0  0
 26 25  1  0  0  0  0
 27 26  1  0  0  0  0
M  END
>  <minimizedAffinity>
-4.5901351

$$$$
