
 OpenBabel03272510293D

 27 29  0  0  0  0  0  0  0  0999 V2000
   37.1550   31.3080   49.2260 C   0  0  0  0  0  0  0  0  0  0  0  0
   37.3400   32.5530   49.8440 C   0  0  0  0  0  0  0  0  0  0  0  0
   38.2980   33.3860   49.2830 C   0  0  0  0  0  0  0  0  0  0  0  0
   38.9890   32.9620   48.1900 N   0  0  0  0  0  0  0  0  0  0  0  0
   38.7750   31.7470   47.6250 C   0  0  0  0  0  0  0  0  0  0  0  0
   37.8360   30.8950   48.1540 N   0  0  0  0  0  0  0  0  0  0  0  0
   36.8040   32.8920   50.6970 H   0  0  0  0  0  0  0  0  0  0  0  0
   38.5530   34.3700   49.6450 H   0  0  0  0  0  0  0  0  0  0  0  0
   36.1020   30.4070   49.7870 C   0  0  0  0  0  0  0  0  0  0  0  0
   36.1010   28.9780   49.6010 C   0  0  0  0  0  0  0  0  0  0  0  0
   36.6140   29.5100   50.9210 C   0  0  0  0  0  0  0  0  0  0  0  0
   35.1500   30.9440   49.9910 H   0  0  0  0  0  0  0  0  0  0  0  0
   36.9190   28.5070   48.9870 H   0  0  0  0  0  0  0  0  0  0  0  0
   35.1590   28.4210   49.5580 H   0  0  0  0  0  0  0  0  0  0  0  0
   35.9820   29.5520   51.8140 H   0  0  0  0  0  0  0  0  0  0  0  0
   37.7010   29.5050   51.1260 H   0  0  0  0  0  0  0  0  0  0  0  0
   39.4940   31.3030   46.4410 C   0  0  0  0  0  0  0  0  0  0  0  0
   40.2490   32.0490   46.0710 H   0  0  0  0  0  0  0  0  0  0  0  0
   40.0150   30.3580   46.6420 H   0  0  0  0  0  0  0  0  0  0  0  0
   38.5020   31.1750   45.3810 N   0  0  0  0  0  0  0  0  0  0  0  0
   38.1420   32.4230   44.7960 C   0  0  0  0  0  3  0  0  0  0  0  0
   37.2890   32.8380   45.3820 H   0  0  0  0  0  0  0  0  0  0  0  0
   37.6760   32.3260   43.3730 C   0  0  0  0  0  3  0  0  0  0  0  0
   37.7590   33.3320   42.9120 H   0  0  0  0  0  0  0  0  0  0  0  0
   38.4230   31.4470   42.5930 O   0  0  0  0  0  0  0  0  0  0  0  0
   38.2340   30.1770   43.1520 C   0  0  0  0  0  2  0  0  0  0  0  0
   38.9600   30.1720   44.4740 C   0  0  0  0  0  2  0  0  0  0  0  0
  1  9  1  0  0  0  0
  1  2  1  0  0  0  0
  2  7  1  0  0  0  0
  3  8  1  0  0  0  0
  3  2  2  0  0  0  0
  4  3  1  0  0  0  0
  5  6  1  0  0  0  0
  5  4  2  0  0  0  0
  6  1  2  0  0  0  0
  9 12  1  0  0  0  0
  9 11  1  0  0  0  0
 10  9  1  0  0  0  0
 10 11  1  0  0  0  0
 11 16  1  0  0  0  0
 11 15  1  0  0  0  0
 13 10  1  0  0  0  0
 14 10  1  0  0  0  0
 17 19  1  0  0  0  0
 17  5  1  0  0  0  0
 18 17  1  0  0  0  0
 20 17  1  0  0  0  0
 21 20  1  0  0  0  0
 21 22  1  0  0  0  0
 23 21  1  0  0  0  0
 24 23  1  0  0  0  0
 25 26  1  0  0  0  0
 25 23  1  0  0  0  0
 26 27  1  0  0  0  0
 27 20  1  0  0  0  0
M  END
>  <minimizedAffinity>
-5.16007996

>  <minimizedRMSD>
1.10893822

$$$$
