
 OpenBabel03272509213D

 45 49  0  0  0  0  0  0  0  0999 V2000
   38.1500   31.3970   47.9270 C   0  0  0  0  0  0  0  0  0  0  0  0
   37.2700   31.5860   48.9770 C   0  0  0  0  0  0  0  0  0  0  0  0
   37.4500   32.7950   49.6530 C   0  0  0  0  0  0  0  0  0  0  0  0
   38.4430   33.7220   49.2810 C   0  0  0  0  0  0  0  0  0  0  0  0
   39.2860   33.4210   48.1900 C   0  0  0  0  0  0  0  0  0  0  0  0
   39.1240   32.2330   47.5120 C   0  0  0  0  0  0  0  0  0  0  0  0
   36.8150   33.0580   50.5010 H   0  0  0  0  0  0  0  0  0  0  0  0
   38.5490   34.6480   49.8330 H   0  0  0  0  0  0  0  0  0  0  0  0
   40.0300   34.1520   47.9390 H   0  0  0  0  0  0  0  0  0  0  0  0
   35.1630   30.4360   48.5330 C   0  0  0  0  0  0  0  0  0  0  0  0
   36.2610   30.6510   49.3590 C   0  0  0  0  0  0  0  0  0  0  0  0
   36.3390   29.9250   50.5630 C   0  0  0  0  0  0  0  0  0  0  0  0
   35.3340   29.0540   50.8480 N   0  0  0  0  0  0  0  0  0  0  0  0
   34.2840   28.8800   50.0110 C   0  0  0  0  0  0  0  0  0  0  0  0
   34.1990   29.5640   48.8640 N   0  0  0  0  0  0  0  0  0  0  0  0
   35.1210   31.0010   47.6150 H   0  0  0  0  0  0  0  0  0  0  0  0
   33.4980   28.1700   50.2780 H   0  0  0  0  0  0  0  0  0  0  0  0
   37.4850   30.1160   51.4780 C   0  0  0  0  0  0  0  0  0  0  0  0
   37.1420   29.8520   52.5120 H   0  0  0  0  0  0  0  0  0  0  0  0
   38.3700   29.5270   51.1590 H   0  0  0  0  0  0  0  0  0  0  0  0
   37.6950   31.2120   51.5240 H   0  0  0  0  0  0  0  0  0  0  0  0
   38.0520   30.2040   47.1770 O   0  0  0  0  0  0  0  0  0  0  0  0
   38.7590   29.5080   47.3840 H   0  0  0  0  0  0  0  0  0  0  0  0
   39.9800   32.0100   46.4620 O   0  0  0  0  0  0  0  0  0  0  0  0
   40.3230   31.2660   44.0990 C   0  0  0  0  0  0  0  0  0  0  0  0
   39.6590   31.8910   45.1320 C   0  0  0  0  0  0  0  0  0  0  0  0
   38.4520   32.5310   44.8590 C   0  0  0  0  0  0  0  0  0  0  0  0
   37.9220   32.5390   43.5580 C   0  0  0  0  0  0  0  0  0  0  0  0
   36.8130   33.0540   42.9890 N   0  0  0  0  0  0  0  0  0  0  0  0
   36.7810   32.7690   41.6770 C   0  0  0  0  0  0  0  0  0  0  0  0
   37.9140   32.0500   41.4190 N   0  0  0  0  0  0  0  0  0  0  0  0
   38.6190   31.9020   42.5600 C   0  0  0  0  0  0  0  0  0  0  0  0
   39.8130   31.2680   42.8260 C   0  0  0  0  0  0  0  0  0  0  0  0
   41.2430   30.8040   44.4220 H   0  0  0  0  0  0  0  0  0  0  0  0
   37.8190   33.0610   45.5590 H   0  0  0  0  0  0  0  0  0  0  0  0
   36.0730   33.6010   43.4920 H   0  0  0  0  0  0  0  0  0  0  0  0
   36.0250   33.0440   40.9580 H   0  0  0  0  0  0  0  0  0  0  0  0
   40.5570   30.6000   41.8120 N   0  0  0  0  0  0  0  0  0  0  0  0
   40.6220   30.9550   40.4100 C   0  0  0  0  0  0  0  0  0  0  0  0
   41.6910   30.9730   40.0880 H   0  0  0  0  0  0  0  0  0  0  0  0
   39.9490   29.8320   39.6560 C   0  0  0  0  0  0  0  0  0  0  0  0
   38.8490   30.0170   39.5380 H   0  0  0  0  0  0  0  0  0  0  0  0
   40.0710   28.6560   40.3760 O   0  0  0  0  0  0  0  0  0  0  0  0
   41.3210   28.5130   40.9650 C   0  0  0  0  0  0  0  0  0  0  0  0
   41.3590   29.4210   42.1800 C   0  0  0  0  0  0  0  0  0  0  0  0
  1  2  1  0  0  0  0
  2 11  1  0  0  0  0
  2  3  2  0  0  0  0
  3  7  1  0  0  0  0
  4  3  1  0  0  0  0
  4  8  1  0  0  0  0
  5  4  2  0  0  0  0
  6  1  2  0  0  0  0
  6  5  1  0  0  0  0
  9  5  1  0  0  0  0
 10 15  2  0  0  0  0
 10 11  1  0  0  0  0
 11 12  2  0  0  0  0
 12 13  1  0  0  0  0
 12 18  1  0  0  0  0
 14 17  1  0  0  0  0
 14 13  2  0  0  0  0
 15 14  1  0  0  0  0
 16 10  1  0  0  0  0
 18 21  1  0  0  0  0
 18 19  1  0  0  0  0
 20 18  1  0  0  0  0
 22 23  1  0  0  0  0
 22  1  1  0  0  0  0
 24  6  1  0  0  0  0
 25 34  1  0  0  0  0
 25 26  1  0  0  0  0
 26 24  1  0  0  0  0
 27 26  2  0  0  0  0
 27 35  1  0  0  0  0
 28 27  1  0  0  0  0
 29 36  1  0  0  0  0
 29 28  1  0  0  0  0
 30 29  1  0  0  0  0
 31 30  2  0  0  0  0
 31 32  1  0  0  0  0
 32 33  1  0  0  0  0
 32 28  2  0  0  0  0
 33 25  2  0  0  0  0
 37 30  1  0  0  0  0
 38 45  1  0  0  0  0
 38 33  1  0  0  0  0
 39 38  1  0  0  0  0
 40 39  1  0  0  0  0
 41 43  1  0  0  0  0
 41 39  1  0  0  0  0
 42 41  1  0  0  0  0
 43 44  1  0  0  0  0
 44 45  1  0  0  0  0
M  END
>  <minimizedAffinity>
-7.83406448

>  <minimizedRMSD>
0.933711648

$$$$
