
 OpenBabel03272510293D

 27 29  0  0  0  0  0  0  0  0999 V2000
   37.4760   31.4070   48.7370 C   0  0  0  0  0  0  0  0  0  0  0  0
   37.6410   32.6960   49.2640 C   0  0  0  0  0  0  0  0  0  0  0  0
   38.6500   33.4680   48.7070 C   0  0  0  0  0  0  0  0  0  0  0  0
   39.4070   32.9470   47.7030 N   0  0  0  0  0  0  0  0  0  0  0  0
   39.2120   31.6940   47.2250 C   0  0  0  0  0  0  0  0  0  0  0  0
   38.2220   30.8990   47.7520 N   0  0  0  0  0  0  0  0  0  0  0  0
   37.0530   33.1090   50.0470 H   0  0  0  0  0  0  0  0  0  0  0  0
   38.8970   34.4750   49.0060 H   0  0  0  0  0  0  0  0  0  0  0  0
   36.3700   30.5680   49.2920 C   0  0  0  0  0  0  0  0  0  0  0  0
   36.4380   29.1320   49.3900 C   0  0  0  0  0  0  0  0  0  0  0  0
   36.7140   29.9310   50.6450 C   0  0  0  0  0  0  0  0  0  0  0  0
   35.3840   31.0780   49.2380 H   0  0  0  0  0  0  0  0  0  0  0  0
   37.3580   28.6010   49.0140 H   0  0  0  0  0  0  0  0  0  0  0  0
   35.5310   28.5230   49.3110 H   0  0  0  0  0  0  0  0  0  0  0  0
   35.9440   30.1030   51.4040 H   0  0  0  0  0  0  0  0  0  0  0  0
   37.7530   30.0270   51.0120 H   0  0  0  0  0  0  0  0  0  0  0  0
   40.0030   31.1450   46.1340 C   0  0  0  0  0  0  0  0  0  0  0  0
   40.9260   31.7440   45.9070 H   0  0  0  0  0  0  0  0  0  0  0  0
   40.3090   30.1160   46.3630 H   0  0  0  0  0  0  0  0  0  0  0  0
   39.1690   31.2220   44.9410 N   0  0  0  0  0  0  0  0  0  0  0  0
   38.5070   29.9970   44.6380 C   0  0  0  0  0  3  0  0  0  0  0  0
   39.1830   29.4010   43.9820 H   0  0  0  0  0  0  0  0  0  0  0  0
   37.2180   30.1590   43.8880 C   0  0  0  0  0  3  0  0  0  0  0  0
   36.6270   29.2280   44.0090 H   0  0  0  0  0  0  0  0  0  0  0  0
   36.4310   31.2150   44.3410 O   0  0  0  0  0  0  0  0  0  0  0  0
   37.1700   32.3810   44.1020 C   0  0  0  0  0  2  0  0  0  0  0  0
   38.3260   32.3670   45.0710 C   0  0  0  0  0  2  0  0  0  0  0  0
  1  2  1  0  0  0  0
  1  9  1  0  0  0  0
  2  7  1  0  0  0  0
  3  8  1  0  0  0  0
  3  2  2  0  0  0  0
  4  3  1  0  0  0  0
  5  4  2  0  0  0  0
  5  6  1  0  0  0  0
  6  1  2  0  0  0  0
  9 10  1  0  0  0  0
  9 11  1  0  0  0  0
 10 11  1  0  0  0  0
 11 16  1  0  0  0  0
 11 15  1  0  0  0  0
 12  9  1  0  0  0  0
 13 10  1  0  0  0  0
 14 10  1  0  0  0  0
 17 19  1  0  0  0  0
 17  5  1  0  0  0  0
 18 17  1  0  0  0  0
 20 27  1  0  0  0  0
 20 17  1  0  0  0  0
 21 20  1  0  0  0  0
 22 21  1  0  0  0  0
 23 24  1  0  0  0  0
 23 25  1  0  0  0  0
 23 21  1  0  0  0  0
 26 25  1  0  0  0  0
 26 27  1  0  0  0  0
M  END
>  <minimizedAffinity>
-4.70706749

>  <minimizedRMSD>
0.835262895

$$$$
