
 OpenBabel03272510293D

 27 29  0  0  0  0  0  0  0  0999 V2000
   37.1840   31.3120   49.1900 C   0  0  0  0  0  0  0  0  0  0  0  0
   37.3580   32.5690   49.7860 C   0  0  0  0  0  0  0  0  0  0  0  0
   38.3120   33.3990   49.2150 C   0  0  0  0  0  0  0  0  0  0  0  0
   39.0110   32.9590   48.1330 N   0  0  0  0  0  0  0  0  0  0  0  0
   38.8090   31.7340   47.5890 C   0  0  0  0  0  0  0  0  0  0  0  0
   37.8730   30.8840   48.1280 N   0  0  0  0  0  0  0  0  0  0  0  0
   36.8150   32.9190   50.6300 H   0  0  0  0  0  0  0  0  0  0  0  0
   38.5590   34.3910   49.5610 H   0  0  0  0  0  0  0  0  0  0  0  0
   36.1350   30.4130   49.7610 C   0  0  0  0  0  0  0  0  0  0  0  0
   36.1400   28.9830   49.5940 C   0  0  0  0  0  0  0  0  0  0  0  0
   36.6500   29.5330   50.9080 C   0  0  0  0  0  0  0  0  0  0  0  0
   35.1800   30.9500   49.9580 H   0  0  0  0  0  0  0  0  0  0  0  0
   36.9600   28.5070   48.9860 H   0  0  0  0  0  0  0  0  0  0  0  0
   35.2000   28.4210   49.5570 H   0  0  0  0  0  0  0  0  0  0  0  0
   36.0180   29.5840   51.7990 H   0  0  0  0  0  0  0  0  0  0  0  0
   37.7370   29.5350   51.1120 H   0  0  0  0  0  0  0  0  0  0  0  0
   39.5370   31.2730   46.4160 C   0  0  0  0  0  0  0  0  0  0  0  0
   40.6010   31.6330   46.3820 H   0  0  0  0  0  0  0  0  0  0  0  0
   39.5440   30.1760   46.3770 H   0  0  0  0  0  0  0  0  0  0  0  0
   38.8740   31.8650   45.2620 N   0  0  0  0  0  0  0  0  0  0  0  0
   39.6730   32.8350   44.5900 C   0  0  0  0  0  3  0  0  0  0  0  0
   39.4730   33.8240   45.0630 H   0  0  0  0  0  0  0  0  0  0  0  0
   39.3640   32.9880   43.1300 C   0  0  0  0  0  3  0  0  0  0  0  0
   40.2330   33.4740   42.6400 H   0  0  0  0  0  0  0  0  0  0  0  0
   39.1350   31.7830   42.4720 O   0  0  0  0  0  0  0  0  0  0  0  0
   37.9880   31.2310   43.0580 C   0  0  0  0  0  2  0  0  0  0  0  0
   38.3770   30.7990   44.4510 C   0  0  0  0  0  2  0  0  0  0  0  0
  1  9  1  0  0  0  0
  1  2  1  0  0  0  0
  2  7  1  0  0  0  0
  3  8  1  0  0  0  0
  3  2  2  0  0  0  0
  4  3  1  0  0  0  0
  5  6  1  0  0  0  0
  5  4  2  0  0  0  0
  6  1  2  0  0  0  0
  9 12  1  0  0  0  0
  9 11  1  0  0  0  0
 10  9  1  0  0  0  0
 10 11  1  0  0  0  0
 11 16  1  0  0  0  0
 11 15  1  0  0  0  0
 13 10  1  0  0  0  0
 14 10  1  0  0  0  0
 17  5  1  0  0  0  0
 18 17  1  0  0  0  0
 19 17  1  0  0  0  0
 20 17  1  0  0  0  0
 21 22  1  0  0  0  0
 21 20  1  0  0  0  0
 23 21  1  0  0  0  0
 24 23  1  0  0  0  0
 25 26  1  0  0  0  0
 25 23  1  0  0  0  0
 26 27  1  0  0  0  0
 27 20  1  0  0  0  0
M  END
>  <minimizedAffinity>
-5.16741133

>  <minimizedRMSD>
0.914943159

$$$$
