
 OpenBabel03272506433D

 35 37  0  0  1  0  0  0  0  0999 V2000
   32.4100   28.3840   47.4840 C   0  0  2  0  0  0  0  0  0  0  0  0
   33.6540   28.4120   48.3550 C   0  0  1  0  0  0  0  0  0  0  0  0
   34.1940   27.1540   48.3530 O   0  0  0  0  0  0  0  0  0  0  0  0
   33.5660   26.3770   47.3920 C   0  0  0  0  0  0  0  0  0  0  0  0
   32.8460   27.3620   46.4630 C   0  0  1  0  0  0  0  0  0  0  0  0
   31.5750   28.0200   48.1110 H   0  0  0  0  0  0  0  0  0  0  0  0
   33.3430   28.7910   49.3390 H   0  0  0  0  0  0  0  0  0  0  0  0
   34.3700   25.8270   46.8530 H   0  0  0  0  0  0  0  0  0  0  0  0
   32.7860   25.7210   47.8090 H   0  0  0  0  0  0  0  0  0  0  0  0
   33.5790   27.8200   45.8030 H   0  0  0  0  0  0  0  0  0  0  0  0
   32.1590   29.6280   46.9300 O   0  0  0  0  0  0  0  0  0  0  0  0
   31.6250   29.5800   46.1090 H   0  0  0  0  0  0  0  0  0  0  0  0
   34.8220   29.5400   47.5330 S   0  0  0  0  0  0  0  0  0  0  0  0
   37.3940   29.4840   50.5510 C   0  0  0  0  0  0  0  0  0  0  0  0
   38.0040   30.7390   50.5360 C   0  0  0  0  0  0  0  0  0  0  0  0
   37.5960   31.6450   49.5380 C   0  0  0  0  0  0  0  0  0  0  0  0
   36.6460   31.2600   48.6560 N   0  0  0  0  0  0  0  0  0  0  0  0
   36.0780   30.0380   48.7030 C   0  0  0  0  0  0  0  0  0  0  0  0
   36.4400   29.1490   49.6380 N   0  0  0  0  0  0  0  0  0  0  0  0
   37.6330   28.7120   51.2760 H   0  0  0  0  0  0  0  0  0  0  0  0
   38.7490   30.9680   51.2680 H   0  0  0  0  0  0  0  0  0  0  0  0
   38.0640   32.6210   49.5180 H   0  0  0  0  0  0  0  0  0  0  0  0
   31.7810   26.7300   45.8490 O   0  0  0  0  0  0  0  0  0  0  0  0
   32.8210   27.7640   43.9310 C   0  0  2  0  0  3  0  0  0  0  0  0
   32.0710   26.5990   44.4920 C   0  0  2  0  0  3  0  0  0  0  0  0
   30.9220   26.2740   43.7920 O   0  0  0  0  0  0  0  0  0  0  0  0
   30.1020   27.3670   43.5490 C   0  0  0  0  0  2  0  0  0  0  0  0
   30.8430   28.1730   42.5000 C   0  0  1  0  0  3  0  0  0  0  0  0
   32.0240   28.7830   43.2030 C   0  0  1  0  0  3  0  0  0  0  0  0
   33.8740   27.3560   43.1070 O   0  0  0  0  0  0  0  0  0  0  0  0
   33.5610   26.6490   42.5190 H   0  0  0  0  0  0  0  0  0  0  0  0
   31.3060   27.2440   41.5480 O   0  0  0  0  0  0  0  0  0  0  0  0
   31.6000   27.6970   40.7210 H   0  0  0  0  0  0  0  0  0  0  0  0
   31.5360   29.7670   44.0840 O   0  0  0  0  0  0  0  0  0  0  0  0
   32.2500   30.4640   44.1510 H   0  0  0  0  0  0  0  0  0  0  0  0
  1  6  1  1  0  0  0
  1  2  1  0  0  0  0
  2  7  1  1  0  0  0
  3  2  1  0  0  0  0
  4  9  1  0  0  0  0
  4  3  1  0  0  0  0
  5 10  1  6  0  0  0
  5  4  1  0  0  0  0
  5  1  1  0  0  0  0
  8  4  1  0  0  0  0
 11  1  1  0  0  0  0
 12 11  1  0  0  0  0
 13  2  1  0  0  0  0
 13 18  1  0  0  0  0
 14 20  1  0  0  0  0
 15 14  1  0  0  0  0
 15 21  1  0  0  0  0
 16 15  2  0  0  0  0
 17 18  2  0  0  0  0
 17 16  1  0  0  0  0
 18 19  1  0  0  0  0
 19 14  2  0  0  0  0
 22 16  1  0  0  0  0
 23  5  1  0  0  0  0
 24 30  1  6  0  0  0
 24 25  1  0  0  0  0
 25 23  1  1  0  0  0
 26 25  1  0  0  0  0
 27 26  1  0  0  0  0
 28 32  1  6  0  0  0
 28 29  1  0  0  0  0
 28 27  1  0  0  0  0
 29 24  1  0  0  0  0
 29 34  1  1  0  0  0
 31 30  1  0  0  0  0
 33 32  1  0  0  0  0
 34 35  1  0  0  0  0
M  END
>  <minimizedAffinity>
-3.85371113

>  <minimizedRMSD>
1.01300073

$$$$
