
 OpenBabel03272509433D

 41 43  0  0  1  0  0  0  0  0999 V2000
   37.0030   30.9310   49.0600 C   0  0  0  0  0  0  0  0  0  0  0  0
   36.6790   31.8110   50.0930 C   0  0  0  0  0  0  0  0  0  0  0  0
   37.2630   33.0690   50.1930 C   0  0  0  0  0  0  0  0  0  0  0  0
   38.1980   33.4670   49.2340 C   0  0  0  0  0  0  0  0  0  0  0  0
   38.5030   32.5940   48.2290 C   0  0  0  0  0  0  0  0  0  0  0  0
   37.9020   31.3470   48.1610 C   0  0  0  0  0  0  0  0  0  0  0  0
   35.9450   31.4840   50.8350 H   0  0  0  0  0  0  0  0  0  0  0  0
   36.9390   33.6600   51.0290 H   0  0  0  0  0  0  0  0  0  0  0  0
   38.5930   34.4500   49.3880 H   0  0  0  0  0  0  0  0  0  0  0  0
   39.2440   33.0450   47.5650 H   0  0  0  0  0  0  0  0  0  0  0  0
   36.4250   29.6080   48.9780 C   0  0  2  0  0  0  0  0  0  0  0  0
   36.9780   29.0860   48.1050 H   0  0  0  0  0  0  0  0  0  0  0  0
   33.6190   30.0920   46.7230 C   0  0  0  0  0  0  0  0  0  0  0  0
   32.9350   28.8900   46.7760 C   0  0  0  0  0  0  0  0  0  0  0  0
   33.3960   27.9170   47.6410 C   0  0  0  0  0  0  0  0  0  0  0  0
   34.5110   28.1710   48.4130 N   0  0  0  0  0  0  0  0  0  0  0  0
   35.1200   29.3350   48.3130 C   0  0  0  0  0  0  0  0  0  0  0  0
   34.6830   30.2940   47.4800 N   0  0  0  0  0  0  0  0  0  0  0  0
   33.2310   30.8330   46.0360 H   0  0  0  0  0  0  0  0  0  0  0  0
   32.0560   28.6180   46.2030 H   0  0  0  0  0  0  0  0  0  0  0  0
   32.9580   26.9330   47.7850 H   0  0  0  0  0  0  0  0  0  0  0  0
   36.8440   28.8270   49.9140 O   0  0  0  0  0  0  0  0  0  0  0  0
   36.6660   29.1890   50.8390 H   0  0  0  0  0  0  0  0  0  0  0  0
   38.3370   30.5140   47.0640 C   0  0  0  0  0  3  0  0  0  0  0  0
   39.0000   30.9750   45.9970 C   0  0  0  0  0  3  0  0  0  0  0  0
   39.5280   30.2120   44.8420 C   0  0  0  0  0  0  0  0  0  0  0  0
   40.5010   29.6970   45.0790 H   0  0  0  0  0  0  0  0  0  0  0  0
   38.8180   29.4090   44.5730 H   0  0  0  0  0  0  0  0  0  0  0  0
   39.7930   31.3240   43.4580 S   0  0  0  0  0  0  0  0  0  0  0  0
   39.2850   29.9250   41.2200 C   0  0  1  0  0  3  0  0  0  0  0  0
   40.4440   30.5330   41.9910 C   0  0  2  0  0  3  0  0  0  0  0  0
   41.4110   29.5860   42.2960 O   0  0  0  0  0  0  0  0  0  0  0  0
   41.7180   28.8820   41.1260 C   0  0  0  0  0  2  0  0  0  0  0  0
   40.6070   27.8700   40.9500 C   0  0  1  0  0  3  0  0  0  0  0  0
   39.2570   28.4110   41.3630 C   0  0  2  0  0  3  0  0  0  0  0  0
   38.0640   30.3900   41.7140 O   0  0  0  0  0  0  0  0  0  0  0  0
   38.1360   31.2650   42.1710 H   0  0  0  0  0  0  0  0  0  0  0  0
   40.5100   27.5080   39.6260 O   0  0  0  0  0  0  0  0  0  0  0  0
   41.2510   27.8290   39.0850 H   0  0  0  0  0  0  0  0  0  0  0  0
   38.2320   27.9430   40.5410 O   0  0  0  0  0  0  0  0  0  0  0  0
   38.2740   28.3160   39.6330 H   0  0  0  0  0  0  0  0  0  0  0  0
  1  2  1  0  0  0  0
  2  3  2  0  0  0  0
  2  7  1  0  0  0  0
  3  8  1  0  0  0  0
  4  9  1  0  0  0  0
  4  3  1  0  0  0  0
  5  4  2  0  0  0  0
  6  5  1  0  0  0  0
  6  1  2  0  0  0  0
 10  5  1  0  0  0  0
 11 12  1  6  0  0  0
 11  1  1  0  0  0  0
 11 22  1  0  0  0  0
 13 14  2  0  0  0  0
 13 18  1  0  0  0  0
 14 15  1  0  0  0  0
 15 21  1  0  0  0  0
 15 16  2  0  0  0  0
 17 16  1  0  0  0  0
 17 11  1  0  0  0  0
 18 17  2  0  0  0  0
 19 13  1  0  0  0  0
 20 14  1  0  0  0  0
 22 23  1  0  0  0  0
 24  6  1  0  0  0  0
 25 24  2  0  0  0  0
 26 27  1  0  0  0  0
 26 25  1  0  0  0  0
 28 26  1  0  0  0  0
 29 26  1  0  0  0  0
 30 35  1  0  0  0  0
 30 36  1  1  0  0  0
 30 31  1  0  0  0  0
 31 32  1  0  0  0  0
 31 29  1  1  0  0  0
 33 32  1  0  0  0  0
 34 38  1  6  0  0  0
 34 33  1  0  0  0  0
 34 35  1  0  0  0  0
 35 40  1  6  0  0  0
 36 37  1  0  0  0  0
 39 38  1  0  0  0  0
 41 40  1  0  0  0  0
M  END
>  <minimizedAffinity>
-6.16172409

>  <minimizedRMSD>
0.556583226

$$$$
