
 OpenBabel03272504573D

 36 38  0  0  1  0  0  0  0  0999 V2000
   36.9700   31.5040   48.6480 C   0  0  1  0  0  0  0  0  0  0  0  0
   36.1740   30.8980   47.6080 C   0  0  0  0  0  0  0  0  0  0  0  0
   37.1450   30.0750   48.3910 C   0  0  2  0  0  0  0  0  0  0  0  0
   36.5440   31.7420   49.6860 H   0  0  0  0  0  0  0  0  0  0  0  0
   35.1480   31.1470   47.7930 H   0  0  0  0  0  0  0  0  0  0  0  0
   36.4680   31.1280   46.5620 H   0  0  0  0  0  0  0  0  0  0  0  0
   37.8240   29.5690   47.7320 H   0  0  0  0  0  0  0  0  0  0  0  0
   38.1240   32.4030   48.3130 C   0  0  0  0  0  0  0  0  0  0  0  0
   38.4800   33.3490   49.3090 C   0  0  0  0  0  0  0  0  0  0  0  0
   39.5420   34.1560   48.9680 C   0  0  0  0  0  0  0  0  0  0  0  0
   40.1610   34.0140   47.7580 N   0  0  0  0  0  0  0  0  0  0  0  0
   39.7830   33.0960   46.8370 C   0  0  0  0  0  0  0  0  0  0  0  0
   38.7320   32.2800   47.1490 N   0  0  0  0  0  0  0  0  0  0  0  0
   40.4150   32.9570   45.5990 N   0  0  0  0  0  0  0  0  0  0  0  0
   38.0000   33.4580   50.2500 H   0  0  0  0  0  0  0  0  0  0  0  0
   39.8560   34.8940   49.6890 H   0  0  0  0  0  0  0  0  0  0  0  0
   41.2950   33.5290   45.4420 H   0  0  0  0  0  0  0  0  0  0  0  0
   40.0270   32.3180   44.8730 H   0  0  0  0  0  0  0  0  0  0  0  0
   36.5710   29.2280   49.3530 O   0  0  0  0  0  0  0  0  0  0  0  0
   34.5680   27.6490   49.6930 O   0  0  0  0  0  0  0  0  0  0  0  0
   34.9930   28.8730   48.9500 P   0  0  1  0  0  0  0  0  0  0  0  0
   33.9640   30.1430   49.5270 O   0  0  0  0  0  0  0  0  0  0  0  0
   34.4310   30.6130   50.2700 H   0  0  0  0  0  0  0  0  0  0  0  0
   34.8680   28.7440   47.2820 O   0  0  0  0  0  0  0  0  0  0  0  0
   33.7030   27.0170   46.2340 C   0  0  2  0  0  3  0  0  0  0  0  0
   33.6160   28.3970   46.8390 C   0  0  1  0  0  3  0  0  0  0  0  0
   32.6350   28.5180   47.8150 O   0  0  0  0  0  0  0  0  0  0  0  0
   31.4080   28.3230   47.1390 C   0  0  0  0  0  2  0  0  0  0  0  0
   31.3680   26.8120   46.8820 C   0  0  1  0  0  3  0  0  0  0  0  0
   32.3490   26.6070   45.7230 C   0  0  2  0  0  3  0  0  0  0  0  0
   34.0710   26.0660   47.2030 O   0  0  0  0  0  0  0  0  0  0  0  0
   35.0040   25.8380   47.0360 H   0  0  0  0  0  0  0  0  0  0  0  0
   31.9330   26.1860   47.9920 O   0  0  0  0  0  0  0  0  0  0  0  0
   31.4130   25.3790   48.1780 H   0  0  0  0  0  0  0  0  0  0  0  0
   32.3210   25.2990   45.2760 O   0  0  0  0  0  0  0  0  0  0  0  0
   32.8510   24.7460   45.9250 H   0  0  0  0  0  0  0  0  0  0  0  0
  1  4  1  1  0  0  0
  2  5  1  0  0  0  0
  2  3  1  0  0  0  0
  2  1  1  0  0  0  0
  3  7  1  6  0  0  0
  3  1  1  0  0  0  0
  3 19  1  0  0  0  0
  6  2  1  0  0  0  0
  8  1  1  0  0  0  0
  8  9  1  0  0  0  0
  9 15  1  0  0  0  0
 10  9  2  0  0  0  0
 10 16  1  0  0  0  0
 11 10  1  0  0  0  0
 12 13  1  0  0  0  0
 12 11  2  0  0  0  0
 13  8  2  0  0  0  0
 14 12  1  0  0  0  0
 17 14  1  0  0  0  0
 18 14  1  0  0  0  0
 21 19  1  0  0  0  0
 21 22  1  0  0  0  0
 21 20  2  1  0  0  0
 22 23  1  0  0  0  0
 24 21  1  0  0  0  0
 25 26  1  0  0  0  0
 25 31  1  1  0  0  0
 26 24  1  1  0  0  0
 26 27  1  0  0  0  0
 28 27  1  0  0  0  0
 29 28  1  0  0  0  0
 29 33  1  1  0  0  0
 30 35  1  1  0  0  0
 30 25  1  0  0  0  0
 30 29  1  0  0  0  0
 32 31  1  0  0  0  0
 33 34  1  0  0  0  0
 35 36  1  0  0  0  0
M  END
>  <minimizedAffinity>
-4.85967493

>  <minimizedRMSD>
0.858605444

$$$$
