
 OpenBabel03272509583D

 49 52  0  0  1  0  0  0  0  0999 V2000
   33.5060   27.6290   47.5810 C   0  0  0  0  0  0  0  0  0  0  0  0
   33.6310   27.5940   46.4640 H   0  0  0  0  0  0  0  0  0  0  0  0
   33.7710   26.6130   47.9300 H   0  0  0  0  0  0  0  0  0  0  0  0
   32.0650   27.9190   47.8030 C   0  0  0  0  0  0  0  0  0  0  0  0
   31.4940   27.5150   49.0050 C   0  0  0  0  0  0  0  0  0  0  0  0
   30.1770   27.7440   49.2880 C   0  0  0  0  0  0  0  0  0  0  0  0
   29.4200   28.3680   48.3910 N   0  0  0  0  0  0  0  0  0  0  0  0
   29.9830   28.7640   47.2120 C   0  0  0  0  0  0  0  0  0  0  0  0
   31.2720   28.5540   46.9050 N   0  0  0  0  0  0  0  0  0  0  0  0
   32.0720   27.0010   49.7700 H   0  0  0  0  0  0  0  0  0  0  0  0
   29.7460   27.4210   50.2320 H   0  0  0  0  0  0  0  0  0  0  0  0
   29.0940   29.4560   46.2460 C   0  0  0  0  0  0  0  0  0  0  0  0
   28.1520   29.7660   46.7260 H   0  0  0  0  0  0  0  0  0  0  0  0
   29.5330   30.3740   45.8100 H   0  0  0  0  0  0  0  0  0  0  0  0
   27.9690   27.2740   45.7700 C   0  0  2  0  0  3  0  0  0  0  0  0
   28.7110   28.4540   45.1780 C   0  0  1  0  0  3  0  0  0  0  0  0
   27.8750   29.0160   44.2160 O   0  0  0  0  0  0  0  0  0  0  0  0
   28.0440   28.2880   43.0400 C   0  0  0  0  0  2  0  0  0  0  0  0
   28.2280   26.8130   43.3030 C   0  0  1  0  0  3  0  0  0  0  0  0
   27.5840   26.3810   44.6010 C   0  0  1  0  0  3  0  0  0  0  0  0
   26.8200   27.7710   46.3980 O   0  0  0  0  0  0  0  0  0  0  0  0
   26.0120   27.5150   45.8690 H   0  0  0  0  0  0  0  0  0  0  0  0
   27.5780   26.1250   42.2750 O   0  0  0  0  0  0  0  0  0  0  0  0
   28.2340   25.7530   41.6060 H   0  0  0  0  0  0  0  0  0  0  0  0
   28.0990   25.1120   44.8780 O   0  0  0  0  0  0  0  0  0  0  0  0
   27.4320   24.4080   44.6960 H   0  0  0  0  0  0  0  0  0  0  0  0
   34.4030   28.7130   48.0900 C   0  0  0  0  0  0  0  0  0  0  0  0
   33.7710   29.6250   48.2340 H   0  0  0  0  0  0  0  0  0  0  0  0
   35.1890   29.0140   47.3450 H   0  0  0  0  0  0  0  0  0  0  0  0
   34.9690   28.3800   49.3440 O   0  0  0  0  0  0  0  0  0  0  0  0
   37.2920   30.1480   51.4670 C   0  0  0  0  0  0  0  0  0  0  0  0
   38.0390   30.8400   50.4800 C   0  0  0  0  0  0  0  0  0  0  0  0
   37.6950   30.6520   49.1550 C   0  0  0  0  0  0  0  0  0  0  0  0
   36.6530   29.8070   48.9120 N   0  0  0  0  0  0  0  0  0  0  0  0
   35.9550   29.1600   49.8430 C   0  0  0  0  0  0  0  0  0  0  0  0
   36.2870   29.3390   51.1410 N   0  0  0  0  0  0  0  0  0  0  0  0
   37.6140   30.3400   52.4810 H   0  0  0  0  0  0  0  0  0  0  0  0
   38.8560   31.5010   50.6950 H   0  0  0  0  0  0  0  0  0  0  0  0
   38.9130   33.2760   49.0020 F   0  0  0  0  0  0  0  0  0  0  0  0
   38.9200   32.4900   47.9310 C   0  0  0  0  0  0  0  0  0  0  0  0
   38.3500   31.2790   48.0250 C   0  0  0  0  0  0  0  0  0  0  0  0
   38.4080   30.5250   46.8420 C   0  0  0  0  0  0  0  0  0  0  0  0
   38.9990   31.0010   45.7020 C   0  0  0  0  0  0  0  0  0  0  0  0
   39.5700   32.2540   45.6620 C   0  0  0  0  0  0  0  0  0  0  0  0
   39.5200   32.9900   46.7970 C   0  0  0  0  0  0  0  0  0  0  0  0
   37.9860   29.5270   46.7770 H   0  0  0  0  0  0  0  0  0  0  0  0
   39.0330   30.3980   44.7940 H   0  0  0  0  0  0  0  0  0  0  0  0
   40.0410   32.6420   44.7680 H   0  0  0  0  0  0  0  0  0  0  0  0
   39.9640   33.9810   46.7900 H   0  0  0  0  0  0  0  0  0  0  0  0
  1  4  1  0  0  0  0
  1  3  1  0  0  0  0
  1 27  1  0  0  0  0
  2  1  1  0  0  0  0
  4  5  1  0  0  0  0
  5  6  2  0  0  0  0
  5 10  1  0  0  0  0
  6 11  1  0  0  0  0
  7  6  1  0  0  0  0
  8  7  2  0  0  0  0
  9  8  1  0  0  0  0
  9  4  2  0  0  0  0
 12 13  1  0  0  0  0
 12  8  1  0  0  0  0
 14 12  1  0  0  0  0
 15 21  1  6  0  0  0
 16 15  1  0  0  0  0
 16 12  1  1  0  0  0
 17 16  1  0  0  0  0
 18 19  1  0  0  0  0
 18 17  1  0  0  0  0
 19 23  1  6  0  0  0
 19 20  1  0  0  0  0
 20 25  1  1  0  0  0
 20 15  1  0  0  0  0
 22 21  1  0  0  0  0
 24 23  1  0  0  0  0
 26 25  1  0  0  0  0
 27 28  1  0  0  0  0
 27 30  1  0  0  0  0
 29 27  1  0  0  0  0
 30 35  1  0  0  0  0
 31 37  1  0  0  0  0
 32 38  1  0  0  0  0
 32 31  2  0  0  0  0
 33 32  1  0  0  0  0
 34 33  2  0  0  0  0
 34 35  1  0  0  0  0
 35 36  2  0  0  0  0
 36 31  1  0  0  0  0
 40 41  1  0  0  0  0
 40 39  1  0  0  0  0
 41 33  1  0  0  0  0
 42 41  2  0  0  0  0
 43 42  1  0  0  0  0
 44 43  2  0  0  0  0
 44 45  1  0  0  0  0
 45 40  2  0  0  0  0
 46 42  1  0  0  0  0
 47 43  1  0  0  0  0
 48 44  1  0  0  0  0
 49 45  1  0  0  0  0
M  END
>  <minimizedAffinity>
-6.69677591

>  <minimizedRMSD>
0.33632198

$$$$
