
 OpenBabel03272508273D

 41 44  0  0  1  0  0  0  0  0999 V2000
   33.7830   28.8350   47.3020 C   0  0  2  0  0  0  0  0  0  0  0  0
   34.5240   28.0950   48.3930 C   0  0  2  0  0  0  0  0  0  0  0  0
   33.6520   28.0040   49.4330 O   0  0  0  0  0  0  0  0  0  0  0  0
   32.3610   28.1020   48.9870 C   0  0  0  0  0  0  0  0  0  0  0  0
   32.3950   28.2270   47.4770 C   0  0  1  0  0  0  0  0  0  0  0  0
   33.7380   29.9220   47.4930 H   0  0  0  0  0  0  0  0  0  0  0  0
   34.7640   27.0920   47.9990 H   0  0  0  0  0  0  0  0  0  0  0  0
   31.8870   29.0530   49.3710 H   0  0  0  0  0  0  0  0  0  0  0  0
   31.7040   27.2800   49.2990 H   0  0  0  0  0  0  0  0  0  0  0  0
   32.3340   27.2270   47.0430 H   0  0  0  0  0  0  0  0  0  0  0  0
   35.6560   30.3050   49.1360 C   0  0  1  0  0  0  0  0  0  0  0  0
   35.7260   28.9150   48.7530 C   0  0  1  0  0  0  0  0  0  0  0  0
   36.0620   29.2420   50.1700 C   0  0  0  0  0  0  0  0  0  0  0  0
   34.7640   30.8550   49.5300 H   0  0  0  0  0  0  0  0  0  0  0  0
   36.5980   28.6590   48.0800 H   0  0  0  0  0  0  0  0  0  0  0  0
   37.1280   29.1680   50.4630 H   0  0  0  0  0  0  0  0  0  0  0  0
   35.3860   28.9710   50.9770 H   0  0  0  0  0  0  0  0  0  0  0  0
   36.8030   31.2570   48.8300 C   0  0  0  0  0  0  0  0  0  0  0  0
   37.0460   32.2760   49.7510 C   0  0  0  0  0  0  0  0  0  0  0  0
   38.0860   33.1370   49.4070 C   0  0  0  0  0  0  0  0  0  0  0  0
   38.7930   32.9670   48.2470 N   0  0  0  0  0  0  0  0  0  0  0  0
   38.5170   31.9600   47.3870 C   0  0  0  0  0  0  0  0  0  0  0  0
   37.5120   31.0970   47.6810 N   0  0  0  0  0  0  0  0  0  0  0  0
   36.4930   32.4010   50.6480 H   0  0  0  0  0  0  0  0  0  0  0  0
   38.3700   33.9700   50.0450 H   0  0  0  0  0  0  0  0  0  0  0  0
   39.0600   31.8070   46.4670 H   0  0  0  0  0  0  0  0  0  0  0  0
   34.2830   28.5900   46.0320 O   0  0  0  0  0  0  0  0  0  0  0  0
   34.0480   27.6650   45.7980 H   0  0  0  0  0  0  0  0  0  0  0  0
   31.4020   29.0280   46.9740 O   0  0  0  0  0  0  0  0  0  0  0  0
   30.4870   28.8040   44.7800 C   0  0  2  0  0  3  0  0  0  0  0  0
   30.4840   28.3180   46.2120 C   0  0  2  0  0  3  0  0  0  0  0  0
   29.1870   28.4440   46.7080 O   0  0  0  0  0  0  0  0  0  0  0  0
   28.4610   27.3250   46.2910 C   0  0  0  0  0  2  0  0  0  0  0  0
   28.7080   27.0180   44.8310 C   0  0  2  0  0  3  0  0  0  0  0  0
   29.2670   28.2170   44.0960 C   0  0  2  0  0  3  0  0  0  0  0  0
   31.6280   28.2890   44.1650 O   0  0  0  0  0  0  0  0  0  0  0  0
   31.3800   27.4430   43.7010 H   0  0  0  0  0  0  0  0  0  0  0  0
   27.4760   26.7160   44.2530 O   0  0  0  0  0  0  0  0  0  0  0  0
   27.5540   26.5320   43.2800 H   0  0  0  0  0  0  0  0  0  0  0  0
   29.5360   27.8210   42.7860 O   0  0  0  0  0  0  0  0  0  0  0  0
   30.1840   28.4650   42.3710 H   0  0  0  0  0  0  0  0  0  0  0  0
  1  5  1  0  0  0  0
  1  6  1  1  0  0  0
  1  2  1  0  0  0  0
  2  7  1  6  0  0  0
  2 12  1  0  0  0  0
  2  3  1  0  0  0  0
  4  9  1  0  0  0  0
  4  8  1  0  0  0  0
  4  3  1  0  0  0  0
  5 10  1  6  0  0  0
  5  4  1  0  0  0  0
 11 14  1  1  0  0  0
 11 13  1  0  0  0  0
 12 15  1  6  0  0  0
 12 11  1  0  0  0  0
 12 13  1  0  0  0  0
 13 16  1  0  0  0  0
 13 17  1  0  0  0  0
 18 11  1  0  0  0  0
 18 19  1  0  0  0  0
 19 24  1  0  0  0  0
 20 19  2  0  0  0  0
 20 25  1  0  0  0  0
 21 20  1  0  0  0  0
 22 23  1  0  0  0  0
 22 21  2  0  0  0  0
 23 18  2  0  0  0  0
 26 22  1  0  0  0  0
 27  1  1  0  0  0  0
 28 27  1  0  0  0  0
 29  5  1  0  0  0  0
 30 36  1  6  0  0  0
 30 31  1  0  0  0  0
 31 32  1  0  0  0  0
 31 29  1  1  0  0  0
 33 32  1  0  0  0  0
 34 38  1  6  0  0  0
 34 33  1  0  0  0  0
 35 40  1  6  0  0  0
 35 30  1  0  0  0  0
 35 34  1  0  0  0  0
 37 36  1  0  0  0  0
 39 38  1  0  0  0  0
 41 40  1  0  0  0  0
M  END
>  <minimizedAffinity>
-5.04372168

>  <minimizedRMSD>
0.640429974

$$$$
