
 OpenBabel03272509433D

 41 43  0  0  1  0  0  0  0  0999 V2000
   36.9820   30.8780   49.1710 C   0  0  0  0  0  0  0  0  0  0  0  0
   36.6620   31.7890   50.1790 C   0  0  0  0  0  0  0  0  0  0  0  0
   37.2030   33.0690   50.2060 C   0  0  0  0  0  0  0  0  0  0  0  0
   38.0900   33.4580   49.1990 C   0  0  0  0  0  0  0  0  0  0  0  0
   38.3920   32.5560   48.2210 C   0  0  0  0  0  0  0  0  0  0  0  0
   37.8340   31.2870   48.2250 C   0  0  0  0  0  0  0  0  0  0  0  0
   35.9650   31.4680   50.9580 H   0  0  0  0  0  0  0  0  0  0  0  0
   36.8870   33.6830   51.0280 H   0  0  0  0  0  0  0  0  0  0  0  0
   38.4550   34.4600   49.3000 H   0  0  0  0  0  0  0  0  0  0  0  0
   39.0940   33.0030   47.5130 H   0  0  0  0  0  0  0  0  0  0  0  0
   36.4490   29.5340   49.1640 C   0  0  2  0  0  0  0  0  0  0  0  0
   36.9180   29.0240   48.2360 H   0  0  0  0  0  0  0  0  0  0  0  0
   33.5730   29.5820   46.9440 C   0  0  0  0  0  0  0  0  0  0  0  0
   32.7860   28.5360   47.3930 C   0  0  0  0  0  0  0  0  0  0  0  0
   33.2050   27.8390   48.5090 C   0  0  0  0  0  0  0  0  0  0  0  0
   34.3810   28.2020   49.1320 N   0  0  0  0  0  0  0  0  0  0  0  0
   35.0880   29.2050   48.6530 C   0  0  0  0  0  0  0  0  0  0  0  0
   34.6930   29.8970   47.5700 N   0  0  0  0  0  0  0  0  0  0  0  0
   33.2160   30.1070   46.0680 H   0  0  0  0  0  0  0  0  0  0  0  0
   31.8540   28.1920   46.9590 H   0  0  0  0  0  0  0  0  0  0  0  0
   32.6880   27.0010   48.9690 H   0  0  0  0  0  0  0  0  0  0  0  0
   37.0000   28.7790   50.0490 O   0  0  0  0  0  0  0  0  0  0  0  0
   36.9160   29.1430   50.9870 H   0  0  0  0  0  0  0  0  0  0  0  0
   38.2610   30.4240   47.1480 C   0  0  0  0  0  3  0  0  0  0  0  0
   38.7670   30.8710   45.9920 C   0  0  0  0  0  3  0  0  0  0  0  0
   39.2730   30.0830   44.8440 C   0  0  0  0  0  0  0  0  0  0  0  0
   40.2300   29.5400   45.0860 H   0  0  0  0  0  0  0  0  0  0  0  0
   38.5390   29.3000   44.5800 H   0  0  0  0  0  0  0  0  0  0  0  0
   39.5720   31.1760   43.4510 S   0  0  0  0  0  0  0  0  0  0  0  0
   40.3260   31.0310   40.8750 C   0  0  1  0  0  3  0  0  0  0  0  0
   40.7360   30.5380   42.2520 C   0  0  2  0  0  3  0  0  0  0  0  0
   40.8250   29.1550   42.2970 O   0  0  0  0  0  0  0  0  0  0  0  0
   41.5930   28.7290   41.2070 C   0  0  0  0  0  2  0  0  0  0  0  0
   40.6640   28.7540   40.0130 C   0  0  1  0  0  3  0  0  0  0  0  0
   39.6990   29.9170   40.0500 C   0  0  2  0  0  3  0  0  0  0  0  0
   39.3610   32.0350   40.9780 O   0  0  0  0  0  0  0  0  0  0  0  0
   39.3850   32.5140   41.8440 H   0  0  0  0  0  0  0  0  0  0  0  0
   41.3980   28.8740   38.8540 O   0  0  0  0  0  0  0  0  0  0  0  0
   42.3530   28.7610   38.9910 H   0  0  0  0  0  0  0  0  0  0  0  0
   39.4570   30.4380   38.7800 O   0  0  0  0  0  0  0  0  0  0  0  0
   40.2370   30.9000   38.4050 H   0  0  0  0  0  0  0  0  0  0  0  0
  1  2  1  0  0  0  0
  2  3  2  0  0  0  0
  2  7  1  0  0  0  0
  3  8  1  0  0  0  0
  4  9  1  0  0  0  0
  4  3  1  0  0  0  0
  5  6  1  0  0  0  0
  5  4  2  0  0  0  0
  6  1  2  0  0  0  0
 10  5  1  0  0  0  0
 11 12  1  6  0  0  0
 11  1  1  0  0  0  0
 11 22  1  0  0  0  0
 13 14  2  0  0  0  0
 13 18  1  0  0  0  0
 14 15  1  0  0  0  0
 15 21  1  0  0  0  0
 15 16  2  0  0  0  0
 17 16  1  0  0  0  0
 17 11  1  0  0  0  0
 18 17  2  0  0  0  0
 19 13  1  0  0  0  0
 20 14  1  0  0  0  0
 22 23  1  0  0  0  0
 24  6  1  0  0  0  0
 25 24  2  0  0  0  0
 26 27  1  0  0  0  0
 26 25  1  0  0  0  0
 28 26  1  0  0  0  0
 29 26  1  0  0  0  0
 30 36  1  1  0  0  0
 30 31  1  0  0  0  0
 31 32  1  0  0  0  0
 31 29  1  1  0  0  0
 33 32  1  0  0  0  0
 34 38  1  6  0  0  0
 34 35  1  0  0  0  0
 34 33  1  0  0  0  0
 35 40  1  6  0  0  0
 35 30  1  0  0  0  0
 36 37  1  0  0  0  0
 38 39  1  0  0  0  0
 41 40  1  0  0  0  0
M  END
>  <minimizedAffinity>
-5.95928478

>  <minimizedRMSD>
1.10301495

$$$$
