
 OpenBabel03272501053D

 33 35  0  0  1  0  0  0  0  0999 V2000
   37.1030   30.8350   47.0010 C   0  0  2  0  0  0  0  0  0  0  0  0
   37.3130   31.6110   48.3120 C   0  0  2  0  0  0  0  0  0  0  0  0
   38.7410   31.9580   48.1930 C   0  0  0  0  0  0  0  0  0  0  0  0
   38.9520   32.2800   46.8560 O   0  0  0  0  0  0  0  0  0  0  0  0
   37.9530   31.7450   46.1050 C   0  0  0  0  0  0  0  0  0  0  0  0
   37.5160   29.8280   47.0370 H   0  0  0  0  0  0  0  0  0  0  0  0
   36.6920   32.5420   48.1870 H   0  0  0  0  0  0  0  0  0  0  0  0
   39.4350   31.1600   48.5320 H   0  0  0  0  0  0  0  0  0  0  0  0
   38.9790   32.8680   48.7870 H   0  0  0  0  0  0  0  0  0  0  0  0
   38.3460   31.0570   45.3130 H   0  0  0  0  0  0  0  0  0  0  0  0
   37.3530   32.5010   45.5800 H   0  0  0  0  0  0  0  0  0  0  0  0
   37.3300   29.9160   51.6900 C   0  0  0  0  0  0  0  0  0  0  0  0
   37.7770   30.7000   50.5950 C   0  0  0  0  0  0  0  0  0  0  0  0
   36.9220   30.8500   49.4740 C   0  0  0  0  0  0  0  0  0  0  0  0
   35.7050   30.2150   49.5280 N   0  0  0  0  0  0  0  0  0  0  0  0
   35.3150   29.4880   50.5650 C   0  0  0  0  0  0  0  0  0  0  0  0
   36.1080   29.3260   51.6480 N   0  0  0  0  0  0  0  0  0  0  0  0
   37.9950   29.8130   52.5340 H   0  0  0  0  0  0  0  0  0  0  0  0
   38.7500   31.1680   50.6350 H   0  0  0  0  0  0  0  0  0  0  0  0
   34.3280   29.0470   50.4630 H   0  0  0  0  0  0  0  0  0  0  0  0
   35.7900   30.8440   46.6000 O   0  0  0  0  0  0  0  0  0  0  0  0
   34.0410   29.2890   46.7900 C   0  0  1  0  0  0  0  0  0  0  0  0
   35.3000   29.6710   46.0900 C   0  0  1  0  0  0  0  0  0  0  0  0
   35.0640   29.8350   44.6900 O   0  0  0  0  0  0  0  0  0  0  0  0
   34.7660   28.5330   44.2280 C   0  0  0  0  0  0  0  0  0  0  0  0
   33.4370   28.0520   44.7740 C   0  0  1  0  0  0  0  0  0  0  0  0
   32.9470   29.0880   45.7440 C   0  0  2  0  0  0  0  0  0  0  0  0
   34.1650   28.0880   47.4790 O   0  0  0  0  0  0  0  0  0  0  0  0
   33.5150   27.9910   48.2140 H   0  0  0  0  0  0  0  0  0  0  0  0
   32.5080   27.9010   43.7350 O   0  0  0  0  0  0  0  0  0  0  0  0
   31.6850   28.3700   43.9700 H   0  0  0  0  0  0  0  0  0  0  0  0
   32.7460   30.2630   45.0140 O   0  0  0  0  0  0  0  0  0  0  0  0
   32.7430   30.1330   44.0460 H   0  0  0  0  0  0  0  0  0  0  0  0
  1  6  1  1  0  0  0
  1  2  1  0  0  0  0
  2  7  1  6  0  0  0
  2 14  1  0  0  0  0
  3  2  1  0  0  0  0
  3  8  1  0  0  0  0
  3  9  1  0  0  0  0
  4  3  1  0  0  0  0
  5  4  1  0  0  0  0
  5  1  1  0  0  0  0
 10  5  1  0  0  0  0
 11  5  1  0  0  0  0
 12 18  1  0  0  0  0
 13 19  1  0  0  0  0
 13 12  2  0  0  0  0
 14 15  2  0  0  0  0
 14 13  1  0  0  0  0
 15 16  1  0  0  0  0
 16 17  2  0  0  0  0
 17 12  1  0  0  0  0
 20 16  1  0  0  0  0
 21  1  1  0  0  0  0
 22 28  1  6  0  0  0
 23 21  1  1  0  0  0
 23 22  1  0  0  0  0
 24 23  1  0  0  0  0
 25 24  1  0  0  0  0
 25 26  1  0  0  0  0
 26 30  1  6  0  0  0
 26 27  1  0  0  0  0
 27 32  1  6  0  0  0
 27 22  1  0  0  0  0
 28 29  1  0  0  0  0
 30 31  1  0  0  0  0
 33 32  1  0  0  0  0
M  END
>  <minimizedAffinity>
-4.56205368

>  <minimizedRMSD>
0.960990071

$$$$
