
 OpenBabel03272506433D

 35 37  0  0  1  0  0  0  0  0999 V2000
   32.2090   28.0920   47.6440 C   0  0  2  0  0  0  0  0  0  0  0  0
   33.5290   28.0830   48.3970 C   0  0  1  0  0  0  0  0  0  0  0  0
   34.0860   26.8410   48.2490 O   0  0  0  0  0  0  0  0  0  0  0  0
   33.3840   26.1250   47.2910 C   0  0  0  0  0  0  0  0  0  0  0  0
   32.5650   27.1610   46.5110 C   0  0  1  0  0  0  0  0  0  0  0  0
   31.4420   27.6620   48.3150 H   0  0  0  0  0  0  0  0  0  0  0  0
   33.3040   28.3780   49.4320 H   0  0  0  0  0  0  0  0  0  0  0  0
   34.1430   25.6370   46.6400 H   0  0  0  0  0  0  0  0  0  0  0  0
   32.6560   25.4220   47.7250 H   0  0  0  0  0  0  0  0  0  0  0  0
   33.2270   27.6850   45.8250 H   0  0  0  0  0  0  0  0  0  0  0  0
   31.8890   29.3680   47.2130 O   0  0  0  0  0  0  0  0  0  0  0  0
   31.2820   29.3700   46.4430 H   0  0  0  0  0  0  0  0  0  0  0  0
   34.5970   29.2970   47.5630 S   0  0  0  0  0  0  0  0  0  0  0  0
   37.2270   29.3720   50.5290 C   0  0  0  0  0  0  0  0  0  0  0  0
   37.7790   30.6540   50.4970 C   0  0  0  0  0  0  0  0  0  0  0  0
   37.3110   31.5360   49.5040 C   0  0  0  0  0  0  0  0  0  0  0  0
   36.3620   31.1030   48.6430 N   0  0  0  0  0  0  0  0  0  0  0  0
   35.8510   29.8560   48.7060 C   0  0  0  0  0  0  0  0  0  0  0  0
   36.2720   28.9900   49.6370 N   0  0  0  0  0  0  0  0  0  0  0  0
   37.5150   28.6160   51.2530 H   0  0  0  0  0  0  0  0  0  0  0  0
   38.5270   30.9200   51.2140 H   0  0  0  0  0  0  0  0  0  0  0  0
   37.7330   32.5310   49.4710 H   0  0  0  0  0  0  0  0  0  0  0  0
   31.4580   26.5530   45.9500 O   0  0  0  0  0  0  0  0  0  0  0  0
   29.9070   27.8840   44.6650 C   0  0  2  0  0  3  0  0  0  0  0  0
   31.2080   27.1500   44.7150 C   0  0  2  0  0  3  0  0  0  0  0  0
   31.3770   26.2240   43.7000 O   0  0  0  0  0  0  0  0  0  0  0  0
   30.2910   25.3740   43.5480 C   0  0  0  0  0  2  0  0  0  0  0  0
   29.2050   26.2450   42.9490 C   0  0  1  0  0  3  0  0  0  0  0  0
   28.7620   27.1720   44.0460 C   0  0  1  0  0  3  0  0  0  0  0  0
   30.0390   29.1310   44.0440 O   0  0  0  0  0  0  0  0  0  0  0  0
   30.5720   29.0300   43.2380 H   0  0  0  0  0  0  0  0  0  0  0  0
   29.8260   27.0000   41.9330 O   0  0  0  0  0  0  0  0  0  0  0  0
   29.1560   27.4230   41.3440 H   0  0  0  0  0  0  0  0  0  0  0  0
   28.0700   26.4030   45.0010 O   0  0  0  0  0  0  0  0  0  0  0  0
   27.3890   27.0100   45.4130 H   0  0  0  0  0  0  0  0  0  0  0  0
  1  6  1  1  0  0  0
  1  2  1  0  0  0  0
  2  7  1  1  0  0  0
  3  2  1  0  0  0  0
  4  9  1  0  0  0  0
  4  3  1  0  0  0  0
  5 10  1  6  0  0  0
  5  4  1  0  0  0  0
  5  1  1  0  0  0  0
  8  4  1  0  0  0  0
 11  1  1  0  0  0  0
 12 11  1  0  0  0  0
 13  2  1  0  0  0  0
 13 18  1  0  0  0  0
 14 20  1  0  0  0  0
 15 14  1  0  0  0  0
 15 21  1  0  0  0  0
 16 15  2  0  0  0  0
 17 18  2  0  0  0  0
 17 16  1  0  0  0  0
 18 19  1  0  0  0  0
 19 14  2  0  0  0  0
 22 16  1  0  0  0  0
 23  5  1  0  0  0  0
 24 30  1  6  0  0  0
 24 25  1  0  0  0  0
 25 23  1  1  0  0  0
 26 25  1  0  0  0  0
 27 26  1  0  0  0  0
 28 32  1  6  0  0  0
 28 27  1  0  0  0  0
 28 29  1  0  0  0  0
 29 24  1  0  0  0  0
 29 34  1  1  0  0  0
 31 30  1  0  0  0  0
 33 32  1  0  0  0  0
 34 35  1  0  0  0  0
M  END
>  <minimizedAffinity>
-3.94618893

>  <minimizedRMSD>
1.09743762

$$$$
