
 OpenBabel03272509573D

 49 52  0  0  1  0  0  0  0  0999 V2000
   33.5270   27.6000   47.6020 C   0  0  0  0  0  0  0  0  0  0  0  0
   33.6740   27.5370   46.4900 H   0  0  0  0  0  0  0  0  0  0  0  0
   33.7780   26.5920   47.9820 H   0  0  0  0  0  0  0  0  0  0  0  0
   32.0840   27.9060   47.7880 C   0  0  0  0  0  0  0  0  0  0  0  0
   31.4710   27.4800   48.9610 C   0  0  0  0  0  0  0  0  0  0  0  0
   30.1490   27.7210   49.2100 C   0  0  0  0  0  0  0  0  0  0  0  0
   29.4290   28.3790   48.3070 N   0  0  0  0  0  0  0  0  0  0  0  0
   30.0330   28.7970   47.1560 C   0  0  0  0  0  0  0  0  0  0  0  0
   31.3280   28.5760   46.8830 N   0  0  0  0  0  0  0  0  0  0  0  0
   32.0180   26.9390   49.7290 H   0  0  0  0  0  0  0  0  0  0  0  0
   29.6840   27.3810   50.1320 H   0  0  0  0  0  0  0  0  0  0  0  0
   29.1850   29.5270   46.1820 C   0  0  0  0  0  0  0  0  0  0  0  0
   28.3280   30.0050   46.6820 H   0  0  0  0  0  0  0  0  0  0  0  0
   29.7150   30.3330   45.6410 H   0  0  0  0  0  0  0  0  0  0  0  0
   29.0530   28.7460   43.8100 C   0  0  2  0  0  3  0  0  0  0  0  0
   28.5970   28.5050   45.2320 C   0  0  1  0  0  3  0  0  0  0  0  0
   28.9780   27.2080   45.5650 O   0  0  0  0  0  0  0  0  0  0  0  0
   28.0000   26.3450   45.0760 C   0  0  0  0  0  2  0  0  0  0  0  0
   27.4570   26.7960   43.7420 C   0  0  1  0  0  3  0  0  0  0  0  0
   28.4560   27.6280   42.9710 C   0  0  1  0  0  3  0  0  0  0  0  0
   30.4530   28.6660   43.7970 O   0  0  0  0  0  0  0  0  0  0  0  0
   30.7350   27.8290   43.3320 H   0  0  0  0  0  0  0  0  0  0  0  0
   27.2110   25.6460   42.9860 O   0  0  0  0  0  0  0  0  0  0  0  0
   26.2280   25.4320   42.9450 H   0  0  0  0  0  0  0  0  0  0  0  0
   27.7320   28.2380   41.9430 O   0  0  0  0  0  0  0  0  0  0  0  0
   27.9180   27.8100   41.0730 H   0  0  0  0  0  0  0  0  0  0  0  0
   34.4210   28.6900   48.1030 C   0  0  0  0  0  0  0  0  0  0  0  0
   33.7920   29.6080   48.2210 H   0  0  0  0  0  0  0  0  0  0  0  0
   35.2180   28.9740   47.3620 H   0  0  0  0  0  0  0  0  0  0  0  0
   34.9700   28.3790   49.3700 O   0  0  0  0  0  0  0  0  0  0  0  0
   37.3000   30.1530   51.4810 C   0  0  0  0  0  0  0  0  0  0  0  0
   38.0440   30.8420   50.4890 C   0  0  0  0  0  0  0  0  0  0  0  0
   37.6940   30.6520   49.1670 C   0  0  0  0  0  0  0  0  0  0  0  0
   36.6520   29.8050   48.9280 N   0  0  0  0  0  0  0  0  0  0  0  0
   35.9580   29.1600   49.8640 C   0  0  0  0  0  0  0  0  0  0  0  0
   36.2950   29.3420   51.1600 N   0  0  0  0  0  0  0  0  0  0  0  0
   37.6260   30.3470   52.4930 H   0  0  0  0  0  0  0  0  0  0  0  0
   38.8610   31.5040   50.7000 H   0  0  0  0  0  0  0  0  0  0  0  0
   38.9160   33.2730   49.0050 F   0  0  0  0  0  0  0  0  0  0  0  0
   38.9170   32.4860   47.9350 C   0  0  0  0  0  0  0  0  0  0  0  0
   38.3450   31.2770   48.0320 C   0  0  0  0  0  0  0  0  0  0  0  0
   38.3970   30.5210   46.8500 C   0  0  0  0  0  0  0  0  0  0  0  0
   38.9840   30.9940   45.7070 C   0  0  0  0  0  0  0  0  0  0  0  0
   39.5570   32.2470   45.6630 C   0  0  0  0  0  0  0  0  0  0  0  0
   39.5120   32.9850   46.7980 C   0  0  0  0  0  0  0  0  0  0  0  0
   37.9740   29.5240   46.7890 H   0  0  0  0  0  0  0  0  0  0  0  0
   39.0130   30.3910   44.8000 H   0  0  0  0  0  0  0  0  0  0  0  0
   40.0240   32.6330   44.7660 H   0  0  0  0  0  0  0  0  0  0  0  0
   39.9580   33.9750   46.7870 H   0  0  0  0  0  0  0  0  0  0  0  0
  1  4  1  0  0  0  0
  1  3  1  0  0  0  0
  1 27  1  0  0  0  0
  2  1  1  0  0  0  0
  4  5  1  0  0  0  0
  5  6  2  0  0  0  0
  5 10  1  0  0  0  0
  6 11  1  0  0  0  0
  7  6  1  0  0  0  0
  8  7  2  0  0  0  0
  9  8  1  0  0  0  0
  9  4  2  0  0  0  0
 12 13  1  0  0  0  0
 12  8  1  0  0  0  0
 14 12  1  0  0  0  0
 15 21  1  1  0  0  0
 15 16  1  0  0  0  0
 16 17  1  0  0  0  0
 16 12  1  1  0  0  0
 18 17  1  0  0  0  0
 19 23  1  6  0  0  0
 19 18  1  0  0  0  0
 20 25  1  6  0  0  0
 20 19  1  0  0  0  0
 20 15  1  0  0  0  0
 22 21  1  0  0  0  0
 24 23  1  0  0  0  0
 26 25  1  0  0  0  0
 27 28  1  0  0  0  0
 27 30  1  0  0  0  0
 29 27  1  0  0  0  0
 30 35  1  0  0  0  0
 31 37  1  0  0  0  0
 32 38  1  0  0  0  0
 32 31  2  0  0  0  0
 33 32  1  0  0  0  0
 34 33  2  0  0  0  0
 34 35  1  0  0  0  0
 35 36  2  0  0  0  0
 36 31  1  0  0  0  0
 40 41  1  0  0  0  0
 40 39  1  0  0  0  0
 41 33  1  0  0  0  0
 42 41  2  0  0  0  0
 43 42  1  0  0  0  0
 44 43  2  0  0  0  0
 44 45  1  0  0  0  0
 45 40  2  0  0  0  0
 46 42  1  0  0  0  0
 47 43  1  0  0  0  0
 48 44  1  0  0  0  0
 49 45  1  0  0  0  0
M  END
>  <minimizedAffinity>
-6.4558506

>  <minimizedRMSD>
0.324028492

$$$$
