
 OpenBabel03272503503D

 40 42  0  0  1  0  0  0  0  0999 V2000
   33.3270   27.3190   45.7960 C   0  0  1  0  0  0  0  0  0  0  0  0
   33.9220   27.4460   47.2150 C   0  0  2  0  0  0  0  0  0  0  0  0
   33.6920   26.2220   47.7600 O   0  0  0  0  0  0  0  0  0  0  0  0
   34.0610   25.3200   46.7860 C   0  0  0  0  0  0  0  0  0  0  0  0
   33.7180   25.9050   45.4500 C   0  0  2  0  0  0  0  0  0  0  0  0
   33.8600   28.0640   45.1770 H   0  0  0  0  0  0  0  0  0  0  0  0
   34.9930   27.7360   47.0730 H   0  0  0  0  0  0  0  0  0  0  0  0
   33.4000   24.4200   46.9430 H   0  0  0  0  0  0  0  0  0  0  0  0
   35.0900   24.9410   46.8830 H   0  0  0  0  0  0  0  0  0  0  0  0
   32.8910   25.3810   44.9580 H   0  0  0  0  0  0  0  0  0  0  0  0
   31.9660   27.5540   45.8210 O   0  0  0  0  0  0  0  0  0  0  0  0
   31.5090   26.7760   46.1940 H   0  0  0  0  0  0  0  0  0  0  0  0
   33.2650   28.5050   47.7710 O   0  0  0  0  0  0  0  0  0  0  0  0
   35.3480   29.7990   46.7910 O   0  0  0  0  0  0  0  0  0  0  0  0
   34.0750   29.9720   47.6100 P   0  0  1  0  0  0  0  0  0  0  0  0
   33.1270   31.0610   46.7250 O   0  0  0  0  0  0  0  0  0  0  0  0
   32.1850   30.8830   46.9770 H   0  0  0  0  0  0  0  0  0  0  0  0
   34.3670   30.5560   49.1830 O   0  0  0  0  0  0  0  0  0  0  0  0
   35.6010   30.4620   49.7920 C   0  0  0  0  0  0  0  0  0  0  0  0
   35.9630   29.4530   50.7100 C   0  0  0  0  0  0  0  0  0  0  0  0
   37.2460   29.4890   51.2420 C   0  0  0  0  0  0  0  0  0  0  0  0
   38.0900   30.4980   50.8490 N   0  0  0  0  0  0  0  0  0  0  0  0
   37.7050   31.4540   49.9600 C   0  0  0  0  0  0  0  0  0  0  0  0
   36.4570   31.4410   49.4260 N   0  0  0  0  0  0  0  0  0  0  0  0
   35.2050   28.7440   50.9150 H   0  0  0  0  0  0  0  0  0  0  0  0
   37.5120   28.7270   51.9310 H   0  0  0  0  0  0  0  0  0  0  0  0
   38.4380   32.2100   49.7100 H   0  0  0  0  0  0  0  0  0  0  0  0
   34.8190   25.9180   44.6040 O   0  0  0  0  0  0  0  0  0  0  0  0
   35.4640   24.3880   42.8940 C   0  0  1  0  0  3  0  0  0  0  0  0
   34.5470   25.5150   43.3110 C   0  0  2  0  0  3  0  0  0  0  0  0
   34.8040   26.6390   42.4980 O   0  0  0  0  0  0  0  0  0  0  0  0
   36.1360   27.0250   42.7030 C   0  0  0  0  0  2  0  0  0  0  0  0
   37.0550   26.0280   42.0190 C   0  0  1  0  0  3  0  0  0  0  0  0
   36.2500   24.7960   41.6600 C   0  0  2  0  0  3  0  0  0  0  0  0
   36.4380   24.1360   43.8800 O   0  0  0  0  0  0  0  0  0  0  0  0
   36.5850   24.9090   44.4560 H   0  0  0  0  0  0  0  0  0  0  0  0
   37.5690   26.5740   40.8240 O   0  0  0  0  0  0  0  0  0  0  0  0
   37.9430   25.8120   40.3160 H   0  0  0  0  0  0  0  0  0  0  0  0
   35.4080   25.0990   40.5940 O   0  0  0  0  0  0  0  0  0  0  0  0
   34.6650   24.4570   40.6030 H   0  0  0  0  0  0  0  0  0  0  0  0
  1  6  1  6  0  0  0
  1 11  1  0  0  0  0
  1  2  1  0  0  0  0
  2  7  1  6  0  0  0
  2  3  1  0  0  0  0
  2 13  1  0  0  0  0
  4  9  1  0  0  0  0
  4  8  1  0  0  0  0
  4  3  1  0  0  0  0
  5 10  1  6  0  0  0
  5  1  1  0  0  0  0
  5  4  1  0  0  0  0
 11 12  1  0  0  0  0
 15 14  2  6  0  0  0
 15 13  1  0  0  0  0
 15 18  1  0  0  0  0
 16 17  1  0  0  0  0
 16 15  1  0  0  0  0
 18 19  1  0  0  0  0
 19 20  1  0  0  0  0
 20 25  1  0  0  0  0
 20 21  2  0  0  0  0
 21 26  1  0  0  0  0
 22 21  1  0  0  0  0
 23 22  2  0  0  0  0
 24 19  2  0  0  0  0
 24 23  1  0  0  0  0
 27 23  1  0  0  0  0
 28  5  1  0  0  0  0
 29 30  1  0  0  0  0
 29 35  1  1  0  0  0
 30 28  1  1  0  0  0
 31 32  1  0  0  0  0
 31 30  1  0  0  0  0
 33 37  1  6  0  0  0
 33 32  1  0  0  0  0
 34 39  1  6  0  0  0
 34 33  1  0  0  0  0
 34 29  1  0  0  0  0
 35 36  1  0  0  0  0
 38 37  1  0  0  0  0
 39 40  1  0  0  0  0
M  END
>  <minimizedAffinity>
-4.16514874

>  <minimizedRMSD>
0.99787873

$$$$
