
 OpenBabel03272504573D

 36 38  0  0  1  0  0  0  0  0999 V2000
   37.0040   31.5520   48.7090 C   0  0  1  0  0  0  0  0  0  0  0  0
   36.1890   30.9340   47.6910 C   0  0  0  0  0  0  0  0  0  0  0  0
   37.1700   30.1190   48.4700 C   0  0  2  0  0  0  0  0  0  0  0  0
   36.5960   31.8060   49.7500 H   0  0  0  0  0  0  0  0  0  0  0  0
   35.1660   31.1890   47.8890 H   0  0  0  0  0  0  0  0  0  0  0  0
   36.4660   31.1470   46.6370 H   0  0  0  0  0  0  0  0  0  0  0  0
   37.8360   29.6010   47.8060 H   0  0  0  0  0  0  0  0  0  0  0  0
   38.1550   32.4410   48.3410 C   0  0  0  0  0  0  0  0  0  0  0  0
   38.5330   33.3990   49.3190 C   0  0  0  0  0  0  0  0  0  0  0  0
   39.5910   34.1970   48.9480 C   0  0  0  0  0  0  0  0  0  0  0  0
   40.1880   34.0360   47.7300 N   0  0  0  0  0  0  0  0  0  0  0  0
   39.7910   33.1080   46.8290 C   0  0  0  0  0  0  0  0  0  0  0  0
   38.7430   32.3000   47.1690 N   0  0  0  0  0  0  0  0  0  0  0  0
   40.4010   32.9500   45.5810 N   0  0  0  0  0  0  0  0  0  0  0  0
   38.0690   33.5220   50.2660 H   0  0  0  0  0  0  0  0  0  0  0  0
   39.9210   34.9430   49.6540 H   0  0  0  0  0  0  0  0  0  0  0  0
   41.2800   33.5160   45.4010 H   0  0  0  0  0  0  0  0  0  0  0  0
   39.9980   32.3020   44.8710 H   0  0  0  0  0  0  0  0  0  0  0  0
   36.6090   29.2870   49.4530 O   0  0  0  0  0  0  0  0  0  0  0  0
   34.6660   27.6320   49.7800 O   0  0  0  0  0  0  0  0  0  0  0  0
   35.0450   28.8780   49.0480 P   0  0  1  0  0  0  0  0  0  0  0  0
   33.9700   30.1040   49.6360 O   0  0  0  0  0  0  0  0  0  0  0  0
   34.4200   30.5840   50.3840 H   0  0  0  0  0  0  0  0  0  0  0  0
   34.9240   28.7590   47.3790 O   0  0  0  0  0  0  0  0  0  0  0  0
   33.6930   28.7480   45.3960 C   0  0  2  0  0  3  0  0  0  0  0  0
   33.6460   28.9050   46.8970 C   0  0  1  0  0  3  0  0  0  0  0  0
   32.7270   28.0680   47.5180 O   0  0  0  0  0  0  0  0  0  0  0  0
   31.4610   28.4910   47.0520 C   0  0  0  0  0  2  0  0  0  0  0  0
   31.4030   27.9600   45.6150 C   0  0  1  0  0  3  0  0  0  0  0  0
   32.3110   28.9150   44.8320 C   0  0  2  0  0  3  0  0  0  0  0  0
   34.1200   27.4550   45.0410 O   0  0  0  0  0  0  0  0  0  0  0  0
   35.0400   27.5350   44.7300 H   0  0  0  0  0  0  0  0  0  0  0  0
   32.0350   26.7180   45.6030 O   0  0  0  0  0  0  0  0  0  0  0  0
   31.5260   26.1290   45.0120 H   0  0  0  0  0  0  0  0  0  0  0  0
   32.2530   28.6510   43.4750 O   0  0  0  0  0  0  0  0  0  0  0  0
   32.8210   27.8420   43.3010 H   0  0  0  0  0  0  0  0  0  0  0  0
  1  4  1  1  0  0  0
  2  5  1  0  0  0  0
  2  3  1  0  0  0  0
  2  1  1  0  0  0  0
  3  7  1  6  0  0  0
  3  1  1  0  0  0  0
  3 19  1  0  0  0  0
  6  2  1  0  0  0  0
  8  1  1  0  0  0  0
  8  9  1  0  0  0  0
  9 15  1  0  0  0  0
 10  9  2  0  0  0  0
 10 16  1  0  0  0  0
 11 10  1  0  0  0  0
 12 13  1  0  0  0  0
 12 11  2  0  0  0  0
 13  8  2  0  0  0  0
 14 12  1  0  0  0  0
 17 14  1  0  0  0  0
 18 14  1  0  0  0  0
 21 19  1  0  0  0  0
 21 22  1  0  0  0  0
 21 20  2  1  0  0  0
 22 23  1  0  0  0  0
 24 21  1  0  0  0  0
 25 31  1  1  0  0  0
 25 26  1  0  0  0  0
 26 24  1  1  0  0  0
 26 27  1  0  0  0  0
 28 27  1  0  0  0  0
 29 33  1  1  0  0  0
 29 28  1  0  0  0  0
 30 35  1  6  0  0  0
 30 25  1  0  0  0  0
 30 29  1  0  0  0  0
 32 31  1  0  0  0  0
 34 33  1  0  0  0  0
 36 35  1  0  0  0  0
M  END
>  <minimizedAffinity>
-4.61054993

>  <minimizedRMSD>
0.646812379

$$$$
