
 OpenBabel03272509433D

 41 43  0  0  1  0  0  0  0  0999 V2000
   37.0030   30.9310   49.0600 C   0  0  0  0  0  0  0  0  0  0  0  0
   36.6790   31.8110   50.0940 C   0  0  0  0  0  0  0  0  0  0  0  0
   37.2630   33.0690   50.1940 C   0  0  0  0  0  0  0  0  0  0  0  0
   38.1980   33.4670   49.2340 C   0  0  0  0  0  0  0  0  0  0  0  0
   38.5030   32.5940   48.2290 C   0  0  0  0  0  0  0  0  0  0  0  0
   37.9020   31.3470   48.1620 C   0  0  0  0  0  0  0  0  0  0  0  0
   35.9450   31.4840   50.8360 H   0  0  0  0  0  0  0  0  0  0  0  0
   36.9400   33.6600   51.0290 H   0  0  0  0  0  0  0  0  0  0  0  0
   38.5930   34.4500   49.3880 H   0  0  0  0  0  0  0  0  0  0  0  0
   39.2440   33.0450   47.5650 H   0  0  0  0  0  0  0  0  0  0  0  0
   36.4250   29.6080   48.9790 C   0  0  2  0  0  0  0  0  0  0  0  0
   36.9790   29.0860   48.1070 H   0  0  0  0  0  0  0  0  0  0  0  0
   33.6200   30.0920   46.7230 C   0  0  0  0  0  0  0  0  0  0  0  0
   32.9370   28.8900   46.7750 C   0  0  0  0  0  0  0  0  0  0  0  0
   33.3990   27.9160   47.6380 C   0  0  0  0  0  0  0  0  0  0  0  0
   34.5130   28.1700   48.4110 N   0  0  0  0  0  0  0  0  0  0  0  0
   35.1210   29.3340   48.3130 C   0  0  0  0  0  0  0  0  0  0  0  0
   34.6830   30.2940   47.4810 N   0  0  0  0  0  0  0  0  0  0  0  0
   33.2310   30.8330   46.0370 H   0  0  0  0  0  0  0  0  0  0  0  0
   32.0580   28.6170   46.2000 H   0  0  0  0  0  0  0  0  0  0  0  0
   32.9620   26.9310   47.7810 H   0  0  0  0  0  0  0  0  0  0  0  0
   36.8430   28.8280   49.9150 O   0  0  0  0  0  0  0  0  0  0  0  0
   36.6650   29.1900   50.8410 H   0  0  0  0  0  0  0  0  0  0  0  0
   38.3370   30.5140   47.0650 C   0  0  0  0  0  3  0  0  0  0  0  0
   38.9990   30.9750   45.9970 C   0  0  0  0  0  3  0  0  0  0  0  0
   39.5270   30.2120   44.8420 C   0  0  0  0  0  0  0  0  0  0  0  0
   40.5000   29.6960   45.0790 H   0  0  0  0  0  0  0  0  0  0  0  0
   38.8170   29.4080   44.5730 H   0  0  0  0  0  0  0  0  0  0  0  0
   39.7910   31.3240   43.4580 S   0  0  0  0  0  0  0  0  0  0  0  0
   39.2840   29.9240   41.2200 C   0  0  1  0  0  3  0  0  0  0  0  0
   40.4430   30.5330   41.9920 C   0  0  2  0  0  3  0  0  0  0  0  0
   41.4100   29.5860   42.2960 O   0  0  0  0  0  0  0  0  0  0  0  0
   41.7170   28.8820   41.1260 C   0  0  0  0  0  2  0  0  0  0  0  0
   40.6070   27.8700   40.9510 C   0  0  1  0  0  3  0  0  0  0  0  0
   39.2570   28.4100   41.3620 C   0  0  2  0  0  3  0  0  0  0  0  0
   38.0640   30.3890   41.7130 O   0  0  0  0  0  0  0  0  0  0  0  0
   38.1350   31.2650   42.1710 H   0  0  0  0  0  0  0  0  0  0  0  0
   40.5120   27.5080   39.6260 O   0  0  0  0  0  0  0  0  0  0  0  0
   41.2520   27.8290   39.0850 H   0  0  0  0  0  0  0  0  0  0  0  0
   38.2330   27.9430   40.5410 O   0  0  0  0  0  0  0  0  0  0  0  0
   38.2750   28.3150   39.6330 H   0  0  0  0  0  0  0  0  0  0  0  0
  1  2  1  0  0  0  0
  2  3  2  0  0  0  0
  2  7  1  0  0  0  0
  3  8  1  0  0  0  0
  4  9  1  0  0  0  0
  4  3  1  0  0  0  0
  5  4  2  0  0  0  0
  6  5  1  0  0  0  0
  6  1  2  0  0  0  0
 10  5  1  0  0  0  0
 11 12  1  6  0  0  0
 11  1  1  0  0  0  0
 11 22  1  0  0  0  0
 13 14  2  0  0  0  0
 13 18  1  0  0  0  0
 14 15  1  0  0  0  0
 15 21  1  0  0  0  0
 15 16  2  0  0  0  0
 17 16  1  0  0  0  0
 17 11  1  0  0  0  0
 18 17  2  0  0  0  0
 19 13  1  0  0  0  0
 20 14  1  0  0  0  0
 22 23  1  0  0  0  0
 24  6  1  0  0  0  0
 25 24  2  0  0  0  0
 26 27  1  0  0  0  0
 26 25  1  0  0  0  0
 28 26  1  0  0  0  0
 29 26  1  0  0  0  0
 30 35  1  0  0  0  0
 30 36  1  1  0  0  0
 30 31  1  0  0  0  0
 31 32  1  0  0  0  0
 31 29  1  1  0  0  0
 33 32  1  0  0  0  0
 34 38  1  6  0  0  0
 34 33  1  0  0  0  0
 34 35  1  0  0  0  0
 35 40  1  6  0  0  0
 36 37  1  0  0  0  0
 39 38  1  0  0  0  0
 41 40  1  0  0  0  0
M  END
>  <minimizedAffinity>
-6.1618166

>  <minimizedRMSD>
0.608820319

$$$$
