
 OpenBabel03272508283D

 41 44  0  0  1  0  0  0  0  0999 V2000
   33.9650   28.9850   47.3640 C   0  0  2  0  0  0  0  0  0  0  0  0
   34.7300   28.2280   48.4280 C   0  0  2  0  0  0  0  0  0  0  0  0
   33.8540   28.0510   49.4530 O   0  0  0  0  0  0  0  0  0  0  0  0
   32.5630   28.1130   48.9980 C   0  0  0  0  0  0  0  0  0  0  0  0
   32.6050   28.3080   47.4960 C   0  0  1  0  0  0  0  0  0  0  0  0
   33.8710   30.0580   47.6030 H   0  0  0  0  0  0  0  0  0  0  0  0
   35.0170   27.2570   47.9920 H   0  0  0  0  0  0  0  0  0  0  0  0
   32.0430   29.0230   49.4200 H   0  0  0  0  0  0  0  0  0  0  0  0
   31.9410   27.2490   49.2650 H   0  0  0  0  0  0  0  0  0  0  0  0
   32.5930   27.3270   47.0160 H   0  0  0  0  0  0  0  0  0  0  0  0
   35.7950   30.5090   49.0480 C   0  0  1  0  0  0  0  0  0  0  0  0
   35.8900   29.0840   48.8380 C   0  0  1  0  0  0  0  0  0  0  0  0
   36.0540   29.5730   50.2390 C   0  0  0  0  0  0  0  0  0  0  0  0
   34.8690   31.1010   49.2620 H   0  0  0  0  0  0  0  0  0  0  0  0
   36.8350   28.7510   48.3130 H   0  0  0  0  0  0  0  0  0  0  0  0
   37.0740   29.5320   50.6690 H   0  0  0  0  0  0  0  0  0  0  0  0
   35.2790   29.3970   50.9820 H   0  0  0  0  0  0  0  0  0  0  0  0
   36.9850   31.4180   48.7790 C   0  0  0  0  0  0  0  0  0  0  0  0
   37.1970   32.4680   49.6730 C   0  0  0  0  0  0  0  0  0  0  0  0
   38.2800   33.2880   49.3640 C   0  0  0  0  0  0  0  0  0  0  0  0
   39.0550   33.0510   48.2600 N   0  0  0  0  0  0  0  0  0  0  0  0
   38.8060   32.0180   47.4240 C   0  0  0  0  0  0  0  0  0  0  0  0
   37.7610   31.1930   47.6860 N   0  0  0  0  0  0  0  0  0  0  0  0
   36.5910   32.6430   50.5270 H   0  0  0  0  0  0  0  0  0  0  0  0
   38.5460   34.1390   49.9860 H   0  0  0  0  0  0  0  0  0  0  0  0
   39.4030   31.8130   46.5480 H   0  0  0  0  0  0  0  0  0  0  0  0
   34.4880   28.8210   46.0890 O   0  0  0  0  0  0  0  0  0  0  0  0
   34.2970   27.8980   45.8110 H   0  0  0  0  0  0  0  0  0  0  0  0
   31.5820   29.0860   47.0190 O   0  0  0  0  0  0  0  0  0  0  0  0
   30.8100   29.0010   44.7600 C   0  0  2  0  0  3  0  0  0  0  0  0
   30.7530   28.3950   46.1450 C   0  0  2  0  0  3  0  0  0  0  0  0
   29.4250   28.4080   46.5670 O   0  0  0  0  0  0  0  0  0  0  0  0
   28.7910   27.2910   46.0150 C   0  0  0  0  0  2  0  0  0  0  0  0
   29.1410   27.1230   44.5530 C   0  0  2  0  0  3  0  0  0  0  0  0
   29.6690   28.4100   43.9550 C   0  0  2  0  0  3  0  0  0  0  0  0
   32.0140   28.6040   44.1790 O   0  0  0  0  0  0  0  0  0  0  0  0
   31.8450   27.7880   43.6330 H   0  0  0  0  0  0  0  0  0  0  0  0
   27.9650   26.8050   43.8770 O   0  0  0  0  0  0  0  0  0  0  0  0
   28.1110   26.7090   42.8980 H   0  0  0  0  0  0  0  0  0  0  0  0
   30.0380   28.1420   42.6370 O   0  0  0  0  0  0  0  0  0  0  0  0
   30.6690   28.8530   42.3180 H   0  0  0  0  0  0  0  0  0  0  0  0
  1  5  1  0  0  0  0
  1  6  1  1  0  0  0
  1  2  1  0  0  0  0
  2  7  1  6  0  0  0
  2 12  1  0  0  0  0
  2  3  1  0  0  0  0
  4  9  1  0  0  0  0
  4  8  1  0  0  0  0
  4  3  1  0  0  0  0
  5 10  1  6  0  0  0
  5  4  1  0  0  0  0
 11 14  1  6  0  0  0
 11 13  1  0  0  0  0
 12 15  1  6  0  0  0
 12 11  1  0  0  0  0
 12 13  1  0  0  0  0
 13 16  1  0  0  0  0
 13 17  1  0  0  0  0
 18 11  1  0  0  0  0
 18 19  1  0  0  0  0
 19 24  1  0  0  0  0
 20 19  2  0  0  0  0
 20 25  1  0  0  0  0
 21 20  1  0  0  0  0
 22 23  1  0  0  0  0
 22 21  2  0  0  0  0
 23 18  2  0  0  0  0
 26 22  1  0  0  0  0
 27  1  1  0  0  0  0
 28 27  1  0  0  0  0
 29  5  1  0  0  0  0
 30 36  1  6  0  0  0
 30 31  1  0  0  0  0
 31 32  1  0  0  0  0
 31 29  1  1  0  0  0
 33 32  1  0  0  0  0
 34 38  1  6  0  0  0
 34 33  1  0  0  0  0
 35 40  1  6  0  0  0
 35 34  1  0  0  0  0
 35 30  1  0  0  0  0
 37 36  1  0  0  0  0
 39 38  1  0  0  0  0
 41 40  1  0  0  0  0
M  END
>  <minimizedAffinity>
-4.98967457

>  <minimizedRMSD>
0.253160119

$$$$
