
 OpenBabel03272509573D

 49 52  0  0  1  0  0  0  0  0999 V2000
   33.5140   27.6420   47.5710 C   0  0  0  0  0  0  0  0  0  0  0  0
   33.6390   27.6190   46.4540 H   0  0  0  0  0  0  0  0  0  0  0  0
   33.7830   26.6240   47.9100 H   0  0  0  0  0  0  0  0  0  0  0  0
   32.0730   27.9260   47.7960 C   0  0  0  0  0  0  0  0  0  0  0  0
   31.5050   27.5170   48.9970 C   0  0  0  0  0  0  0  0  0  0  0  0
   30.1870   27.7390   49.2840 C   0  0  0  0  0  0  0  0  0  0  0  0
   29.4270   28.3630   48.3900 N   0  0  0  0  0  0  0  0  0  0  0  0
   29.9860   28.7650   47.2110 C   0  0  0  0  0  0  0  0  0  0  0  0
   31.2760   28.5610   46.9010 N   0  0  0  0  0  0  0  0  0  0  0  0
   32.0870   27.0030   49.7600 H   0  0  0  0  0  0  0  0  0  0  0  0
   29.7590   27.4120   50.2280 H   0  0  0  0  0  0  0  0  0  0  0  0
   29.0940   29.4570   46.2480 C   0  0  0  0  0  0  0  0  0  0  0  0
   28.1520   29.7630   46.7300 H   0  0  0  0  0  0  0  0  0  0  0  0
   29.5300   30.3760   45.8120 H   0  0  0  0  0  0  0  0  0  0  0  0
   27.9690   27.2750   45.7710 C   0  0  2  0  0  3  0  0  0  0  0  0
   28.7100   28.4560   45.1800 C   0  0  1  0  0  3  0  0  0  0  0  0
   27.8740   29.0170   44.2180 O   0  0  0  0  0  0  0  0  0  0  0  0
   28.0410   28.2910   43.0420 C   0  0  0  0  0  2  0  0  0  0  0  0
   28.2260   26.8160   43.3040 C   0  0  1  0  0  3  0  0  0  0  0  0
   27.5840   26.3820   44.6010 C   0  0  1  0  0  3  0  0  0  0  0  0
   26.8200   27.7710   46.4000 O   0  0  0  0  0  0  0  0  0  0  0  0
   26.0120   27.5140   45.8710 H   0  0  0  0  0  0  0  0  0  0  0  0
   27.5770   26.1290   42.2750 O   0  0  0  0  0  0  0  0  0  0  0  0
   28.2320   25.7580   41.6060 H   0  0  0  0  0  0  0  0  0  0  0  0
   28.0990   25.1130   44.8770 O   0  0  0  0  0  0  0  0  0  0  0  0
   27.4320   24.4090   44.6950 H   0  0  0  0  0  0  0  0  0  0  0  0
   34.4080   28.7230   48.0910 C   0  0  0  0  0  0  0  0  0  0  0  0
   33.7740   29.6320   48.2450 H   0  0  0  0  0  0  0  0  0  0  0  0
   35.1930   29.0350   47.3490 H   0  0  0  0  0  0  0  0  0  0  0  0
   34.9770   28.3780   49.3410 O   0  0  0  0  0  0  0  0  0  0  0  0
   37.2870   30.1370   51.4860 C   0  0  0  0  0  0  0  0  0  0  0  0
   38.0330   30.8410   50.5060 C   0  0  0  0  0  0  0  0  0  0  0  0
   37.6930   30.6640   49.1800 C   0  0  0  0  0  0  0  0  0  0  0  0
   36.6560   29.8170   48.9260 N   0  0  0  0  0  0  0  0  0  0  0  0
   35.9580   29.1580   49.8500 C   0  0  0  0  0  0  0  0  0  0  0  0
   36.2870   29.3260   51.1500 N   0  0  0  0  0  0  0  0  0  0  0  0
   37.6060   30.3210   52.5020 H   0  0  0  0  0  0  0  0  0  0  0  0
   38.8470   31.5040   50.7300 H   0  0  0  0  0  0  0  0  0  0  0  0
   38.8880   33.3000   49.0500 F   0  0  0  0  0  0  0  0  0  0  0  0
   38.9080   32.5210   47.9740 C   0  0  0  0  0  0  0  0  0  0  0  0
   38.3480   31.3050   48.0570 C   0  0  0  0  0  0  0  0  0  0  0  0
   38.4190   30.5590   46.8690 C   0  0  0  0  0  0  0  0  0  0  0  0
   39.0120   31.0470   45.7350 C   0  0  0  0  0  0  0  0  0  0  0  0
   39.5710   32.3060   45.7060 C   0  0  0  0  0  0  0  0  0  0  0  0
   39.5080   33.0340   46.8460 C   0  0  0  0  0  0  0  0  0  0  0  0
   38.0070   29.5570   46.7960 H   0  0  0  0  0  0  0  0  0  0  0  0
   39.0560   30.4500   44.8240 H   0  0  0  0  0  0  0  0  0  0  0  0
   40.0430   32.7040   44.8170 H   0  0  0  0  0  0  0  0  0  0  0  0
   39.9440   34.0290   46.8480 H   0  0  0  0  0  0  0  0  0  0  0  0
  1  4  1  0  0  0  0
  1  3  1  0  0  0  0
  1 27  1  0  0  0  0
  2  1  1  0  0  0  0
  4  5  1  0  0  0  0
  5  6  2  0  0  0  0
  5 10  1  0  0  0  0
  6 11  1  0  0  0  0
  7  6  1  0  0  0  0
  8  7  2  0  0  0  0
  9  8  1  0  0  0  0
  9  4  2  0  0  0  0
 12 13  1  0  0  0  0
 12  8  1  0  0  0  0
 14 12  1  0  0  0  0
 15 21  1  6  0  0  0
 16 15  1  0  0  0  0
 16 12  1  1  0  0  0
 17 16  1  0  0  0  0
 18 19  1  0  0  0  0
 18 17  1  0  0  0  0
 19 23  1  6  0  0  0
 19 20  1  0  0  0  0
 20 25  1  1  0  0  0
 20 15  1  0  0  0  0
 22 21  1  0  0  0  0
 24 23  1  0  0  0  0
 26 25  1  0  0  0  0
 27 28  1  0  0  0  0
 27 30  1  0  0  0  0
 29 27  1  0  0  0  0
 30 35  1  0  0  0  0
 31 37  1  0  0  0  0
 32 38  1  0  0  0  0
 32 31  2  0  0  0  0
 33 32  1  0  0  0  0
 34 33  2  0  0  0  0
 34 35  1  0  0  0  0
 35 36  2  0  0  0  0
 36 31  1  0  0  0  0
 40 41  1  0  0  0  0
 40 39  1  0  0  0  0
 41 33  1  0  0  0  0
 42 41  2  0  0  0  0
 43 42  1  0  0  0  0
 44 43  2  0  0  0  0
 44 45  1  0  0  0  0
 45 49  1  0  0  0  0
 45 40  2  0  0  0  0
 46 42  1  0  0  0  0
 47 43  1  0  0  0  0
 48 44  1  0  0  0  0
M  END
>  <minimizedAffinity>
-6.69440794

>  <minimizedRMSD>
0.245381668

$$$$
