
 OpenBabel03272506433D

 35 37  0  0  1  0  0  0  0  0999 V2000
   32.4540   28.3670   47.6870 C   0  0  2  0  0  0  0  0  0  0  0  0
   33.7880   28.4040   48.4140 C   0  0  1  0  0  0  0  0  0  0  0  0
   34.3140   27.1400   48.3830 O   0  0  0  0  0  0  0  0  0  0  0  0
   33.5780   26.3470   47.5170 C   0  0  0  0  0  0  0  0  0  0  0  0
   32.7660   27.3180   46.6490 C   0  0  1  0  0  0  0  0  0  0  0  0
   31.6910   28.0270   48.4120 H   0  0  0  0  0  0  0  0  0  0  0  0
   33.5910   28.8080   49.4160 H   0  0  0  0  0  0  0  0  0  0  0  0
   34.3130   25.7780   46.9050 H   0  0  0  0  0  0  0  0  0  0  0  0
   32.8440   25.7090   48.0330 H   0  0  0  0  0  0  0  0  0  0  0  0
   33.4250   27.7530   45.9010 H   0  0  0  0  0  0  0  0  0  0  0  0
   32.1520   29.6000   47.1340 O   0  0  0  0  0  0  0  0  0  0  0  0
   31.5300   29.5380   46.3790 H   0  0  0  0  0  0  0  0  0  0  0  0
   34.8650   29.5010   47.4400 S   0  0  0  0  0  0  0  0  0  0  0  0
   37.5480   29.7600   50.3480 C   0  0  0  0  0  0  0  0  0  0  0  0
   38.2070   30.9720   50.1320 C   0  0  0  0  0  0  0  0  0  0  0  0
   37.7970   31.7440   49.0270 C   0  0  0  0  0  0  0  0  0  0  0  0
   36.7980   31.2790   48.2430 N   0  0  0  0  0  0  0  0  0  0  0  0
   36.1840   30.1030   48.4840 C   0  0  0  0  0  0  0  0  0  0  0  0
   36.5470   29.3410   49.5250 N   0  0  0  0  0  0  0  0  0  0  0  0
   37.7850   29.0900   51.1680 H   0  0  0  0  0  0  0  0  0  0  0  0
   38.9890   31.2690   50.7990 H   0  0  0  0  0  0  0  0  0  0  0  0
   38.3020   32.6840   48.8520 H   0  0  0  0  0  0  0  0  0  0  0  0
   31.6350   26.6820   46.1730 O   0  0  0  0  0  0  0  0  0  0  0  0
   30.0160   27.9540   44.9110 C   0  0  2  0  0  3  0  0  0  0  0  0
   31.3190   27.2220   44.9270 C   0  0  2  0  0  3  0  0  0  0  0  0
   31.4380   26.2510   43.9480 O   0  0  0  0  0  0  0  0  0  0  0  0
   30.3470   25.3950   43.8930 C   0  0  0  0  0  2  0  0  0  0  0  0
   29.2290   26.2380   43.3110 C   0  0  1  0  0  3  0  0  0  0  0  0
   28.8420   27.2130   44.3860 C   0  0  1  0  0  3  0  0  0  0  0  0
   30.1130   29.1700   44.2280 O   0  0  0  0  0  0  0  0  0  0  0  0
   30.6030   29.0310   43.4010 H   0  0  0  0  0  0  0  0  0  0  0  0
   29.7950   26.9440   42.2310 O   0  0  0  0  0  0  0  0  0  0  0  0
   29.0940   27.3410   41.6580 H   0  0  0  0  0  0  0  0  0  0  0  0
   28.2030   26.4900   45.4100 O   0  0  0  0  0  0  0  0  0  0  0  0
   27.5430   27.1150   45.8280 H   0  0  0  0  0  0  0  0  0  0  0  0
  1  6  1  1  0  0  0
  1  2  1  0  0  0  0
  2  7  1  1  0  0  0
  3  2  1  0  0  0  0
  4  9  1  0  0  0  0
  4  3  1  0  0  0  0
  5 10  1  6  0  0  0
  5  4  1  0  0  0  0
  5  1  1  0  0  0  0
  8  4  1  0  0  0  0
 11  1  1  0  0  0  0
 12 11  1  0  0  0  0
 13  2  1  0  0  0  0
 13 18  1  0  0  0  0
 14 20  1  0  0  0  0
 15 14  1  0  0  0  0
 15 21  1  0  0  0  0
 16 15  2  0  0  0  0
 17 18  2  0  0  0  0
 17 16  1  0  0  0  0
 18 19  1  0  0  0  0
 19 14  2  0  0  0  0
 22 16  1  0  0  0  0
 23  5  1  0  0  0  0
 24 30  1  6  0  0  0
 24 25  1  0  0  0  0
 25 23  1  1  0  0  0
 26 25  1  0  0  0  0
 27 26  1  0  0  0  0
 28 32  1  6  0  0  0
 28 27  1  0  0  0  0
 28 29  1  0  0  0  0
 29 24  1  0  0  0  0
 29 34  1  1  0  0  0
 31 30  1  0  0  0  0
 33 32  1  0  0  0  0
 34 35  1  0  0  0  0
M  END
>  <minimizedAffinity>
-3.96191645

>  <minimizedRMSD>
2.33010316

$$$$
