
 OpenBabel03272508283D

 41 44  0  0  1  0  0  0  0  0999 V2000
   33.9800   28.9870   47.3670 C   0  0  2  0  0  0  0  0  0  0  0  0
   34.7350   28.2380   48.4430 C   0  0  2  0  0  0  0  0  0  0  0  0
   33.8520   28.0710   49.4640 O   0  0  0  0  0  0  0  0  0  0  0  0
   32.5650   28.1320   48.9990 C   0  0  0  0  0  0  0  0  0  0  0  0
   32.6170   28.3150   47.4950 C   0  0  1  0  0  0  0  0  0  0  0  0
   33.8860   30.0630   47.5980 H   0  0  0  0  0  0  0  0  0  0  0  0
   35.0240   27.2630   48.0160 H   0  0  0  0  0  0  0  0  0  0  0  0
   32.0440   29.0460   49.4100 H   0  0  0  0  0  0  0  0  0  0  0  0
   31.9390   27.2710   49.2690 H   0  0  0  0  0  0  0  0  0  0  0  0
   32.6060   27.3300   47.0240 H   0  0  0  0  0  0  0  0  0  0  0  0
   35.8010   30.5210   49.0540 C   0  0  1  0  0  0  0  0  0  0  0  0
   35.8950   29.0940   48.8530 C   0  0  1  0  0  0  0  0  0  0  0  0
   36.0520   29.5920   50.2520 C   0  0  0  0  0  0  0  0  0  0  0  0
   34.8750   31.1160   49.2590 H   0  0  0  0  0  0  0  0  0  0  0  0
   36.8420   28.7570   48.3350 H   0  0  0  0  0  0  0  0  0  0  0  0
   37.0700   29.5520   50.6880 H   0  0  0  0  0  0  0  0  0  0  0  0
   35.2730   29.4220   50.9920 H   0  0  0  0  0  0  0  0  0  0  0  0
   36.9940   31.4270   48.7860 C   0  0  0  0  0  0  0  0  0  0  0  0
   37.2000   32.4840   49.6730 C   0  0  0  0  0  0  0  0  0  0  0  0
   38.2870   33.3000   49.3640 C   0  0  0  0  0  0  0  0  0  0  0  0
   39.0690   33.0530   48.2680 N   0  0  0  0  0  0  0  0  0  0  0  0
   38.8250   32.0130   47.4400 C   0  0  0  0  0  0  0  0  0  0  0  0
   37.7780   31.1910   47.7010 N   0  0  0  0  0  0  0  0  0  0  0  0
   36.5880   32.6680   50.5200 H   0  0  0  0  0  0  0  0  0  0  0  0
   38.5480   34.1560   49.9800 H   0  0  0  0  0  0  0  0  0  0  0  0
   39.4280   31.7990   46.5690 H   0  0  0  0  0  0  0  0  0  0  0  0
   34.5100   28.8120   46.0980 O   0  0  0  0  0  0  0  0  0  0  0  0
   34.3190   27.8880   45.8250 H   0  0  0  0  0  0  0  0  0  0  0  0
   31.5990   29.0910   47.0060 O   0  0  0  0  0  0  0  0  0  0  0  0
   29.3880   28.2490   47.3300 C   0  0  2  0  0  3  0  0  0  0  0  0
   30.5930   28.3370   46.4180 C   0  0  2  0  0  3  0  0  0  0  0  0
   31.0130   27.0370   46.1350 O   0  0  0  0  0  0  0  0  0  0  0  0
   30.2190   26.5510   45.0930 C   0  0  0  0  0  2  0  0  0  0  0  0
   28.7560   26.8600   45.3220 C   0  0  2  0  0  3  0  0  0  0  0  0
   28.4730   27.1720   46.7770 C   0  0  2  0  0  3  0  0  0  0  0  0
   28.7220   29.4730   47.2630 O   0  0  0  0  0  0  0  0  0  0  0  0
   28.0010   29.4000   46.5790 H   0  0  0  0  0  0  0  0  0  0  0  0
   28.0310   25.7160   44.9960 O   0  0  0  0  0  0  0  0  0  0  0  0
   27.0570   25.8330   45.1510 H   0  0  0  0  0  0  0  0  0  0  0  0
   27.1270   27.5220   46.8780 O   0  0  0  0  0  0  0  0  0  0  0  0
   26.9790   28.0290   47.7300 H   0  0  0  0  0  0  0  0  0  0  0  0
  1  5  1  0  0  0  0
  1  6  1  1  0  0  0
  1  2  1  0  0  0  0
  2  7  1  6  0  0  0
  2 12  1  0  0  0  0
  2  3  1  0  0  0  0
  4  9  1  0  0  0  0
  4  8  1  0  0  0  0
  4  3  1  0  0  0  0
  5 10  1  6  0  0  0
  5  4  1  0  0  0  0
 11 14  1  6  0  0  0
 11 13  1  0  0  0  0
 12 15  1  6  0  0  0
 12 11  1  0  0  0  0
 12 13  1  0  0  0  0
 13 16  1  0  0  0  0
 13 17  1  0  0  0  0
 18 11  1  0  0  0  0
 18 19  1  0  0  0  0
 19 24  1  0  0  0  0
 20 19  2  0  0  0  0
 20 25  1  0  0  0  0
 21 20  1  0  0  0  0
 22 23  1  0  0  0  0
 22 21  2  0  0  0  0
 23 18  2  0  0  0  0
 26 22  1  0  0  0  0
 27  1  1  0  0  0  0
 28 27  1  0  0  0  0
 29  5  1  0  0  0  0
 30 36  1  6  0  0  0
 31 29  1  1  0  0  0
 31 30  1  0  0  0  0
 32 31  1  0  0  0  0
 33 34  1  0  0  0  0
 33 32  1  0  0  0  0
 34 38  1  1  0  0  0
 34 35  1  0  0  0  0
 35 40  1  6  0  0  0
 35 30  1  0  0  0  0
 37 36  1  0  0  0  0
 38 39  1  0  0  0  0
 40 41  1  0  0  0  0
M  END
>  <minimizedAffinity>
-5.56642866

>  <minimizedRMSD>
0.668063998

$$$$
