
 OpenBabel03272506433D

 35 37  0  0  1  0  0  0  0  0999 V2000
   32.3670   28.3420   47.4860 C   0  0  2  0  0  0  0  0  0  0  0  0
   33.5920   28.3290   48.3840 C   0  0  1  0  0  0  0  0  0  0  0  0
   34.1160   27.0650   48.3550 O   0  0  0  0  0  0  0  0  0  0  0  0
   33.5020   26.3250   47.3570 C   0  0  0  0  0  0  0  0  0  0  0  0
   32.8140   27.3480   46.4430 C   0  0  1  0  0  0  0  0  0  0  0  0
   31.5140   27.9700   48.0820 H   0  0  0  0  0  0  0  0  0  0  0  0
   33.2630   28.6800   49.3720 H   0  0  0  0  0  0  0  0  0  0  0  0
   34.3120   25.7830   46.8190 H   0  0  0  0  0  0  0  0  0  0  0  0
   32.7050   25.6670   47.7350 H   0  0  0  0  0  0  0  0  0  0  0  0
   33.5680   27.8180   45.8140 H   0  0  0  0  0  0  0  0  0  0  0  0
   32.1430   29.6060   46.9650 O   0  0  0  0  0  0  0  0  0  0  0  0
   31.6280   29.5900   46.1310 H   0  0  0  0  0  0  0  0  0  0  0  0
   34.7910   29.4680   47.6250 S   0  0  0  0  0  0  0  0  0  0  0  0
   37.3530   29.3370   50.6480 C   0  0  0  0  0  0  0  0  0  0  0  0
   37.8470   30.6370   50.7660 C   0  0  0  0  0  0  0  0  0  0  0  0
   37.3600   31.6000   49.8610 C   0  0  0  0  0  0  0  0  0  0  0  0
   36.4490   31.2210   48.9350 N   0  0  0  0  0  0  0  0  0  0  0  0
   35.9940   29.9550   48.8520 C   0  0  0  0  0  0  0  0  0  0  0  0
   36.4350   29.0120   49.6960 N   0  0  0  0  0  0  0  0  0  0  0  0
   37.6600   28.5210   51.2940 H   0  0  0  0  0  0  0  0  0  0  0  0
   38.5670   30.8570   51.5260 H   0  0  0  0  0  0  0  0  0  0  0  0
   37.7370   32.6100   49.9450 H   0  0  0  0  0  0  0  0  0  0  0  0
   31.7560   26.7480   45.7860 O   0  0  0  0  0  0  0  0  0  0  0  0
   32.8910   27.7930   43.9290 C   0  0  2  0  0  3  0  0  0  0  0  0
   32.0830   26.6410   44.4340 C   0  0  2  0  0  3  0  0  0  0  0  0
   30.9430   26.3770   43.6930 O   0  0  0  0  0  0  0  0  0  0  0  0
   30.1720   27.5060   43.4570 C   0  0  0  0  0  2  0  0  0  0  0  0
   30.9720   28.3110   42.4510 C   0  0  1  0  0  3  0  0  0  0  0  0
   32.1520   28.8580   43.2040 C   0  0  1  0  0  3  0  0  0  0  0  0
   33.9510   27.3670   43.1240 O   0  0  0  0  0  0  0  0  0  0  0  0
   33.6310   26.6890   42.5070 H   0  0  0  0  0  0  0  0  0  0  0  0
   31.4290   27.3900   41.4880 O   0  0  0  0  0  0  0  0  0  0  0  0
   31.7650   27.8540   40.6820 H   0  0  0  0  0  0  0  0  0  0  0  0
   31.6750   29.8360   44.0970 O   0  0  0  0  0  0  0  0  0  0  0  0
   32.4110   30.5050   44.2040 H   0  0  0  0  0  0  0  0  0  0  0  0
  1  6  1  1  0  0  0
  1  2  1  0  0  0  0
  2  7  1  1  0  0  0
  3  2  1  0  0  0  0
  4  9  1  0  0  0  0
  4  3  1  0  0  0  0
  5 10  1  6  0  0  0
  5  4  1  0  0  0  0
  5  1  1  0  0  0  0
  8  4  1  0  0  0  0
 11  1  1  0  0  0  0
 12 11  1  0  0  0  0
 13  2  1  0  0  0  0
 13 18  1  0  0  0  0
 14 15  1  0  0  0  0
 14 20  1  0  0  0  0
 15 21  1  0  0  0  0
 16 22  1  0  0  0  0
 16 15  2  0  0  0  0
 17 16  1  0  0  0  0
 18 17  2  0  0  0  0
 18 19  1  0  0  0  0
 19 14  2  0  0  0  0
 23  5  1  0  0  0  0
 24 30  1  6  0  0  0
 24 25  1  0  0  0  0
 25 23  1  1  0  0  0
 26 25  1  0  0  0  0
 27 26  1  0  0  0  0
 28 32  1  6  0  0  0
 28 29  1  0  0  0  0
 28 27  1  0  0  0  0
 29 24  1  0  0  0  0
 29 34  1  1  0  0  0
 31 30  1  0  0  0  0
 33 32  1  0  0  0  0
 34 35  1  0  0  0  0
M  END
>  <minimizedAffinity>
-3.85298371

>  <minimizedRMSD>
0.472263992

$$$$
