
 OpenBabel03272508273D

 41 44  0  0  1  0  0  0  0  0999 V2000
   33.9820   28.9580   47.3820 C   0  0  2  0  0  0  0  0  0  0  0  0
   34.7180   28.2280   48.4840 C   0  0  2  0  0  0  0  0  0  0  0  0
   33.8300   28.1170   49.5080 O   0  0  0  0  0  0  0  0  0  0  0  0
   32.5450   28.1930   49.0390 C   0  0  0  0  0  0  0  0  0  0  0  0
   32.6020   28.3240   47.5310 C   0  0  1  0  0  0  0  0  0  0  0  0
   33.9140   30.0430   47.5760 H   0  0  0  0  0  0  0  0  0  0  0  0
   34.9830   27.2310   48.0910 H   0  0  0  0  0  0  0  0  0  0  0  0
   32.0470   29.1340   49.4190 H   0  0  0  0  0  0  0  0  0  0  0  0
   31.8980   27.3580   49.3380 H   0  0  0  0  0  0  0  0  0  0  0  0
   32.5680   27.3240   47.0930 H   0  0  0  0  0  0  0  0  0  0  0  0
   35.8170   30.4890   49.1140 C   0  0  1  0  0  0  0  0  0  0  0  0
   35.8980   29.0690   48.8670 C   0  0  1  0  0  0  0  0  0  0  0  0
   36.1190   29.5240   50.2710 C   0  0  0  0  0  0  0  0  0  0  0  0
   34.9040   31.0790   49.3770 H   0  0  0  0  0  0  0  0  0  0  0  0
   36.8190   28.7450   48.2970 H   0  0  0  0  0  0  0  0  0  0  0  0
   37.1550   29.4690   50.6600 H   0  0  0  0  0  0  0  0  0  0  0  0
   35.3730   29.3340   51.0400 H   0  0  0  0  0  0  0  0  0  0  0  0
   37.0010   31.4000   48.8190 C   0  0  0  0  0  0  0  0  0  0  0  0
   37.2000   32.4800   49.6790 C   0  0  0  0  0  0  0  0  0  0  0  0
   38.2770   33.2990   49.3470 C   0  0  0  0  0  0  0  0  0  0  0  0
   39.0570   33.0330   48.2530 N   0  0  0  0  0  0  0  0  0  0  0  0
   38.8210   31.9710   47.4520 C   0  0  0  0  0  0  0  0  0  0  0  0
   37.7830   31.1450   47.7370 N   0  0  0  0  0  0  0  0  0  0  0  0
   36.5890   32.6780   50.5240 H   0  0  0  0  0  0  0  0  0  0  0  0
   38.5330   34.1720   49.9410 H   0  0  0  0  0  0  0  0  0  0  0  0
   39.4230   31.7420   46.5840 H   0  0  0  0  0  0  0  0  0  0  0  0
   34.5090   28.7270   46.1200 O   0  0  0  0  0  0  0  0  0  0  0  0
   34.2950   27.7990   45.8790 H   0  0  0  0  0  0  0  0  0  0  0  0
   31.6040   29.1080   47.0130 O   0  0  0  0  0  0  0  0  0  0  0  0
   29.6510   27.7630   46.7250 C   0  0  2  0  0  3  0  0  0  0  0  0
   30.8390   28.4360   46.0700 C   0  0  2  0  0  3  0  0  0  0  0  0
   31.5740   27.4570   45.4030 O   0  0  0  0  0  0  0  0  0  0  0  0
   30.9690   27.2420   44.1620 C   0  0  0  0  0  2  0  0  0  0  0  0
   29.4660   27.1310   44.2920 C   0  0  2  0  0  3  0  0  0  0  0  0
   29.0510   26.8090   45.7110 C   0  0  2  0  0  3  0  0  0  0  0  0
   28.7120   28.7540   47.0090 O   0  0  0  0  0  0  0  0  0  0  0  0
   28.0620   28.7950   46.2550 H   0  0  0  0  0  0  0  0  0  0  0  0
   29.0550   26.0670   43.4890 O   0  0  0  0  0  0  0  0  0  0  0  0
   28.0760   25.9120   43.5470 H   0  0  0  0  0  0  0  0  0  0  0  0
   27.6560   26.8040   45.7520 O   0  0  0  0  0  0  0  0  0  0  0  0
   27.3530   26.9130   46.7010 H   0  0  0  0  0  0  0  0  0  0  0  0
  1  5  1  0  0  0  0
  1  6  1  1  0  0  0
  1  2  1  0  0  0  0
  2  7  1  6  0  0  0
  2 12  1  0  0  0  0
  2  3  1  0  0  0  0
  4  9  1  0  0  0  0
  4  8  1  0  0  0  0
  4  3  1  0  0  0  0
  5 10  1  6  0  0  0
  5  4  1  0  0  0  0
 11 14  1  6  0  0  0
 11 13  1  0  0  0  0
 12 15  1  6  0  0  0
 12 11  1  0  0  0  0
 12 13  1  0  0  0  0
 13 16  1  0  0  0  0
 13 17  1  0  0  0  0
 18 11  1  0  0  0  0
 18 19  1  0  0  0  0
 19 24  1  0  0  0  0
 20 19  2  0  0  0  0
 20 25  1  0  0  0  0
 21 20  1  0  0  0  0
 22 23  1  0  0  0  0
 22 21  2  0  0  0  0
 23 18  2  0  0  0  0
 26 22  1  0  0  0  0
 27  1  1  0  0  0  0
 28 27  1  0  0  0  0
 29  5  1  0  0  0  0
 30 36  1  6  0  0  0
 31 30  1  0  0  0  0
 31 29  1  1  0  0  0
 32 31  1  0  0  0  0
 33 34  1  0  0  0  0
 33 32  1  0  0  0  0
 34 38  1  6  0  0  0
 34 35  1  0  0  0  0
 35 40  1  6  0  0  0
 35 30  1  0  0  0  0
 37 36  1  0  0  0  0
 38 39  1  0  0  0  0
 40 41  1  0  0  0  0
M  END
>  <minimizedAffinity>
-5.11380148

>  <minimizedRMSD>
0.133087486

$$$$
