
 OpenBabel03272501063D

 33 35  0  0  1  0  0  0  0  0999 V2000
   37.8390   24.0000   33.3280 C   0  0  2  0  0  0  0  0  0  0  0  0
   37.3500   23.2890   32.0560 C   0  0  2  0  0  0  0  0  0  0  0  0
   36.6190   24.3870   31.3980 C   0  0  0  0  0  0  0  0  0  0  0  0
   37.3720   25.5380   31.6110 O   0  0  0  0  0  0  0  0  0  0  0  0
   38.2030   25.3370   32.6680 C   0  0  0  0  0  0  0  0  0  0  0  0
   37.0500   24.1320   34.0670 H   0  0  0  0  0  0  0  0  0  0  0  0
   38.2910   23.0700   31.4790 H   0  0  0  0  0  0  0  0  0  0  0  0
   35.5740   24.5170   31.7500 H   0  0  0  0  0  0  0  0  0  0  0  0
   36.5730   24.2300   30.2980 H   0  0  0  0  0  0  0  0  0  0  0  0
   38.0400   26.0930   33.4790 H   0  0  0  0  0  0  0  0  0  0  0  0
   39.2670   25.4010   32.4030 H   0  0  0  0  0  0  0  0  0  0  0  0
   35.1790   20.2150   31.7020 C   0  0  0  0  0  0  0  0  0  0  0  0
   35.9140   21.3720   31.3340 C   0  0  0  0  0  0  0  0  0  0  0  0
   36.6010   22.0890   32.3460 C   0  0  0  0  0  0  0  0  0  0  0  0
   36.5030   21.6080   33.6280 N   0  0  0  0  0  0  0  0  0  0  0  0
   35.8080   20.5250   33.9420 C   0  0  0  0  0  0  0  0  0  0  0  0
   35.1430   19.8190   33.0000 N   0  0  0  0  0  0  0  0  0  0  0  0
   34.6630   19.6810   30.9180 H   0  0  0  0  0  0  0  0  0  0  0  0
   35.9400   21.6810   30.2990 H   0  0  0  0  0  0  0  0  0  0  0  0
   35.8230   20.2660   34.9970 H   0  0  0  0  0  0  0  0  0  0  0  0
   38.9530   23.4000   33.8600 O   0  0  0  0  0  0  0  0  0  0  0  0
   38.0130   24.2700   35.8290 C   0  0  1  0  0  3  0  0  0  0  0  0
   39.2020   23.6420   35.1840 C   0  0  1  0  0  3  0  0  0  0  0  0
   39.5270   22.4090   35.8300 O   0  0  0  0  0  0  0  0  0  0  0  0
   39.9640   22.7900   37.1190 C   0  0  0  0  0  2  0  0  0  0  0  0
   38.8190   23.3470   37.9400 C   0  0  1  0  0  3  0  0  0  0  0  0
   37.6190   23.4300   37.0410 C   0  0  2  0  0  3  0  0  0  0  0  0
   38.2830   25.5510   36.2960 O   0  0  0  0  0  0  0  0  0  0  0  0
   37.4760   26.1100   36.3890 H   0  0  0  0  0  0  0  0  0  0  0  0
   38.5390   22.5040   39.0250 O   0  0  0  0  0  0  0  0  0  0  0  0
   37.5840   22.3060   39.0390 H   0  0  0  0  0  0  0  0  0  0  0  0
   37.3130   22.1230   36.6530 O   0  0  0  0  0  0  0  0  0  0  0  0
   37.7620   21.4370   37.1830 H   0  0  0  0  0  0  0  0  0  0  0  0
  1 21  1  0  0  0  0
  1  6  1  1  0  0  0
  2  7  1  6  0  0  0
  2 14  1  0  0  0  0
  2  1  1  0  0  0  0
  3  4  1  0  0  0  0
  3  8  1  0  0  0  0
  3  2  1  0  0  0  0
  4  5  1  0  0  0  0
  5  1  1  0  0  0  0
  5 10  1  0  0  0  0
  9  3  1  0  0  0  0
 11  5  1  0  0  0  0
 12 17  1  0  0  0  0
 13 12  2  0  0  0  0
 13 14  1  0  0  0  0
 14 15  2  0  0  0  0
 15 16  1  0  0  0  0
 16 20  1  0  0  0  0
 17 16  2  0  0  0  0
 18 12  1  0  0  0  0
 19 13  1  0  0  0  0
 22 28  1  1  0  0  0
 22 27  1  0  0  0  0
 23 21  1  6  0  0  0
 23 22  1  0  0  0  0
 23 24  1  0  0  0  0
 24 25  1  0  0  0  0
 25 26  1  0  0  0  0
 26 30  1  1  0  0  0
 27 32  1  6  0  0  0
 27 26  1  0  0  0  0
 28 29  1  0  0  0  0
 30 31  1  0  0  0  0
 32 33  1  0  0  0  0
M  END
>  <minimizedAffinity>
-5.62288475

$$$$

 OpenBabel03272501063D

 33 35  0  0  1  0  0  0  0  0999 V2000
   39.3950   24.9120   33.5360 C   0  0  2  0  0  0  0  0  0  0  0  0
   39.1070   24.7020   32.0400 C   0  0  2  0  0  0  0  0  0  0  0  0
   40.0240   25.6930   31.4490 C   0  0  0  0  0  0  0  0  0  0  0  0
   41.1910   25.6440   32.2060 O   0  0  0  0  0  0  0  0  0  0  0  0
   40.9150   25.0830   33.4130 C   0  0  0  0  0  0  0  0  0  0  0  0
   38.9310   25.8140   33.9320 H   0  0  0  0  0  0  0  0  0  0  0  0
   39.4900   23.6660   31.8260 H   0  0  0  0  0  0  0  0  0  0  0  0
   39.6150   26.7240   31.4020 H   0  0  0  0  0  0  0  0  0  0  0  0
   40.3000   25.4070   30.4100 H   0  0  0  0  0  0  0  0  0  0  0  0
   41.1810   25.7630   34.2620 H   0  0  0  0  0  0  0  0  0  0  0  0
   41.4610   24.1470   33.5920 H   0  0  0  0  0  0  0  0  0  0  0  0
   35.5000   23.9270   31.2210 C   0  0  0  0  0  0  0  0  0  0  0  0
   36.8620   23.7130   31.5580 C   0  0  0  0  0  0  0  0  0  0  0  0
   37.7060   24.8390   31.7220 C   0  0  0  0  0  0  0  0  0  0  0  0
   37.1380   26.0760   31.5390 N   0  0  0  0  0  0  0  0  0  0  0  0
   35.8630   26.2460   31.2230 C   0  0  0  0  0  0  0  0  0  0  0  0
   35.0320   25.1920   31.0600 N   0  0  0  0  0  0  0  0  0  0  0  0
   34.8720   23.0570   31.1000 H   0  0  0  0  0  0  0  0  0  0  0  0
   37.2260   22.7040   31.6860 H   0  0  0  0  0  0  0  0  0  0  0  0
   35.5580   27.2820   31.1110 H   0  0  0  0  0  0  0  0  0  0  0  0
   39.0880   23.8010   34.2820 O   0  0  0  0  0  0  0  0  0  0  0  0
   38.0020   24.4910   36.2470 C   0  0  1  0  0  3  0  0  0  0  0  0
   39.2370   23.9170   35.6380 C   0  0  1  0  0  3  0  0  0  0  0  0
   39.5130   22.6280   36.1890 O   0  0  0  0  0  0  0  0  0  0  0  0
   39.8510   22.8850   37.5370 C   0  0  0  0  0  2  0  0  0  0  0  0
   38.6470   23.3710   38.3180 C   0  0  1  0  0  3  0  0  0  0  0  0
   37.5180   23.5450   37.3430 C   0  0  2  0  0  3  0  0  0  0  0  0
   38.2350   25.7220   36.8500 O   0  0  0  0  0  0  0  0  0  0  0  0
   37.4240   26.2750   36.9340 H   0  0  0  0  0  0  0  0  0  0  0  0
   38.2860   22.4320   39.2950 O   0  0  0  0  0  0  0  0  0  0  0  0
   37.3330   22.2400   39.2190 H   0  0  0  0  0  0  0  0  0  0  0  0
   37.2430   22.2810   36.8130 O   0  0  0  0  0  0  0  0  0  0  0  0
   37.6510   21.5460   37.3090 H   0  0  0  0  0  0  0  0  0  0  0  0
  1  6  1  1  0  0  0
  1 21  1  0  0  0  0
  2  7  1  6  0  0  0
  2  1  1  0  0  0  0
  3  2  1  0  0  0  0
  3  4  1  0  0  0  0
  4  5  1  0  0  0  0
  5  1  1  0  0  0  0
  5 11  1  0  0  0  0
  5 10  1  0  0  0  0
  8  3  1  0  0  0  0
  9  3  1  0  0  0  0
 12 13  1  0  0  0  0
 13 19  1  0  0  0  0
 13 14  2  0  0  0  0
 14  2  1  0  0  0  0
 15 14  1  0  0  0  0
 16 15  2  0  0  0  0
 17 12  2  0  0  0  0
 17 16  1  0  0  0  0
 18 12  1  0  0  0  0
 20 16  1  0  0  0  0
 22 28  1  1  0  0  0
 22 27  1  0  0  0  0
 23 21  1  6  0  0  0
 23 24  1  0  0  0  0
 23 22  1  0  0  0  0
 24 25  1  0  0  0  0
 25 26  1  0  0  0  0
 26 30  1  1  0  0  0
 27 32  1  6  0  0  0
 27 26  1  0  0  0  0
 28 29  1  0  0  0  0
 31 30  1  0  0  0  0
 32 33  1  0  0  0  0
M  END
>  <minimizedAffinity>
-5.45497131

$$$$

 OpenBabel03272501063D

 33 35  0  0  1  0  0  0  0  0999 V2000
   38.2240   22.3350   32.8120 C   0  0  2  0  0  0  0  0  0  0  0  0
   37.1710   22.3900   31.6920 C   0  0  2  0  0  0  0  0  0  0  0  0
   37.8870   21.6850   30.6140 C   0  0  0  0  0  0  0  0  0  0  0  0
   38.5700   20.6360   31.2220 O   0  0  0  0  0  0  0  0  0  0  0  0
   38.7010   20.9010   32.5490 C   0  0  0  0  0  0  0  0  0  0  0  0
   39.0330   23.0490   32.6640 H   0  0  0  0  0  0  0  0  0  0  0  0
   36.3310   21.7420   32.0680 H   0  0  0  0  0  0  0  0  0  0  0  0
   38.5740   22.3280   30.0250 H   0  0  0  0  0  0  0  0  0  0  0  0
   37.1710   21.2310   29.8940 H   0  0  0  0  0  0  0  0  0  0  0  0
   39.7740   20.9090   32.8710 H   0  0  0  0  0  0  0  0  0  0  0  0
   38.1980   20.1640   33.1900 H   0  0  0  0  0  0  0  0  0  0  0  0
   37.1140   26.1330   31.1700 C   0  0  0  0  0  0  0  0  0  0  0  0
   37.6260   24.8360   31.4320 C   0  0  0  0  0  0  0  0  0  0  0  0
   36.7320   23.7370   31.4120 C   0  0  0  0  0  0  0  0  0  0  0  0
   35.4140   24.0100   31.1390 N   0  0  0  0  0  0  0  0  0  0  0  0
   34.9640   25.2320   30.8990 C   0  0  0  0  0  0  0  0  0  0  0  0
   35.7930   26.3010   30.9100 N   0  0  0  0  0  0  0  0  0  0  0  0
   37.8110   26.9580   31.1890 H   0  0  0  0  0  0  0  0  0  0  0  0
   38.6800   24.7090   31.6360 H   0  0  0  0  0  0  0  0  0  0  0  0
   33.8990   25.2920   30.6990 H   0  0  0  0  0  0  0  0  0  0  0  0
   37.6590   22.4410   34.0580 O   0  0  0  0  0  0  0  0  0  0  0  0
   37.7530   24.0220   35.7920 C   0  0  1  0  0  3  0  0  0  0  0  0
   38.4610   22.9400   35.0500 C   0  0  1  0  0  3  0  0  0  0  0  0
   38.8200   21.8780   35.9360 O   0  0  0  0  0  0  0  0  0  0  0  0
   39.7980   22.4430   36.7860 C   0  0  0  0  0  2  0  0  0  0  0  0
   39.1910   23.4930   37.6930 C   0  0  1  0  0  3  0  0  0  0  0  0
   37.7580   23.6730   37.2790 C   0  0  2  0  0  3  0  0  0  0  0  0
   38.3890   25.2510   35.6640 O   0  0  0  0  0  0  0  0  0  0  0  0
   37.7900   26.0180   35.8210 H   0  0  0  0  0  0  0  0  0  0  0  0
   39.2460   23.0750   39.0300 O   0  0  0  0  0  0  0  0  0  0  0  0
   38.3610   23.1640   39.4310 H   0  0  0  0  0  0  0  0  0  0  0  0
   37.1180   22.4490   37.4970 O   0  0  0  0  0  0  0  0  0  0  0  0
   37.6290   21.8280   38.0500 H   0  0  0  0  0  0  0  0  0  0  0  0
  1  6  1  6  0  0  0
  1 21  1  0  0  0  0
  2  7  1  1  0  0  0
  2  1  1  0  0  0  0
  3  4  1  0  0  0  0
  3  2  1  0  0  0  0
  4  5  1  0  0  0  0
  5  1  1  0  0  0  0
  5 10  1  0  0  0  0
  5 11  1  0  0  0  0
  8  3  1  0  0  0  0
  9  3  1  0  0  0  0
 12 18  1  0  0  0  0
 12 13  1  0  0  0  0
 13 19  1  0  0  0  0
 14 13  2  0  0  0  0
 14  2  1  0  0  0  0
 15 14  1  0  0  0  0
 16 17  1  0  0  0  0
 16 15  2  0  0  0  0
 17 12  2  0  0  0  0
 20 16  1  0  0  0  0
 22 28  1  1  0  0  0
 22 27  1  0  0  0  0
 23 21  1  6  0  0  0
 23 22  1  0  0  0  0
 23 24  1  0  0  0  0
 24 25  1  0  0  0  0
 25 26  1  0  0  0  0
 26 30  1  1  0  0  0
 27 32  1  6  0  0  0
 27 26  1  0  0  0  0
 28 29  1  0  0  0  0
 30 31  1  0  0  0  0
 32 33  1  0  0  0  0
M  END
>  <minimizedAffinity>
-5.17788267

$$$$

 OpenBabel03272501063D

 33 35  0  0  1  0  0  0  0  0999 V2000
   37.5580   24.4870   33.0250 C   0  0  2  0  0  0  0  0  0  0  0  0
   37.5490   23.6260   31.7510 C   0  0  2  0  0  0  0  0  0  0  0  0
   36.9000   24.5510   30.8050 C   0  0  0  0  0  0  0  0  0  0  0  0
   37.4050   25.8160   31.0910 O   0  0  0  0  0  0  0  0  0  0  0  0
   37.9180   25.8170   32.3500 C   0  0  0  0  0  0  0  0  0  0  0  0
   36.5810   24.5440   33.5020 H   0  0  0  0  0  0  0  0  0  0  0  0
   38.6360   23.5180   31.4810 H   0  0  0  0  0  0  0  0  0  0  0  0
   35.7900   24.5410   30.8430 H   0  0  0  0  0  0  0  0  0  0  0  0
   37.1910   24.3150   29.7580 H   0  0  0  0  0  0  0  0  0  0  0  0
   37.4340   26.5910   32.9990 H   0  0  0  0  0  0  0  0  0  0  0  0
   38.9950   26.0280   32.3790 H   0  0  0  0  0  0  0  0  0  0  0  0
   34.9490   20.9210   32.2100 C   0  0  0  0  0  0  0  0  0  0  0  0
   35.5010   22.2080   31.9820 C   0  0  0  0  0  0  0  0  0  0  0  0
   36.9120   22.3470   31.9540 C   0  0  0  0  0  0  0  0  0  0  0  0
   37.6540   21.2090   32.1540 N   0  0  0  0  0  0  0  0  0  0  0  0
   37.1110   20.0200   32.3670 C   0  0  0  0  0  0  0  0  0  0  0  0
   35.7690   19.8550   32.3990 N   0  0  0  0  0  0  0  0  0  0  0  0
   33.8730   20.8350   32.2280 H   0  0  0  0  0  0  0  0  0  0  0  0
   34.8430   23.0510   31.8310 H   0  0  0  0  0  0  0  0  0  0  0  0
   37.8250   19.2140   32.5090 H   0  0  0  0  0  0  0  0  0  0  0  0
   38.5420   24.1040   33.9020 O   0  0  0  0  0  0  0  0  0  0  0  0
   38.5320   22.4410   35.5610 C   0  0  1  0  0  3  0  0  0  0  0  0
   38.1440   23.8310   35.1830 C   0  0  1  0  0  3  0  0  0  0  0  0
   38.7470   24.7770   36.0690 O   0  0  0  0  0  0  0  0  0  0  0  0
   38.1200   24.5440   37.3140 C   0  0  0  0  0  2  0  0  0  0  0  0
   38.5190   23.1970   37.8820 C   0  0  1  0  0  3  0  0  0  0  0  0
   39.3540   22.5000   36.8460 C   0  0  2  0  0  3  0  0  0  0  0  0
   37.4270   21.6400   35.8250 O   0  0  0  0  0  0  0  0  0  0  0  0
   37.6110   20.6770   35.7210 H   0  0  0  0  0  0  0  0  0  0  0  0
   39.2660   23.3640   39.0570 O   0  0  0  0  0  0  0  0  0  0  0  0
   40.0870   22.8410   38.9910 H   0  0  0  0  0  0  0  0  0  0  0  0
   40.5000   23.2790   36.6600 O   0  0  0  0  0  0  0  0  0  0  0  0
   40.6370   23.9540   37.3520 H   0  0  0  0  0  0  0  0  0  0  0  0
  1  6  1  1  0  0  0
  1 21  1  0  0  0  0
  2  7  1  6  0  0  0
  2 14  1  0  0  0  0
  2  1  1  0  0  0  0
  3  8  1  0  0  0  0
  3  4  1  0  0  0  0
  3  2  1  0  0  0  0
  4  5  1  0  0  0  0
  5 11  1  0  0  0  0
  5 10  1  0  0  0  0
  5  1  1  0  0  0  0
  9  3  1  0  0  0  0
 12 18  1  0  0  0  0
 12 17  1  0  0  0  0
 13 12  2  0  0  0  0
 14 13  1  0  0  0  0
 14 15  2  0  0  0  0
 15 16  1  0  0  0  0
 16 17  2  0  0  0  0
 16 20  1  0  0  0  0
 19 13  1  0  0  0  0
 22 28  1  1  0  0  0
 22 27  1  0  0  0  0
 23 21  1  6  0  0  0
 23 22  1  0  0  0  0
 23 24  1  0  0  0  0
 24 25  1  0  0  0  0
 25 26  1  0  0  0  0
 26 30  1  1  0  0  0
 27 32  1  6  0  0  0
 27 26  1  0  0  0  0
 29 28  1  0  0  0  0
 31 30  1  0  0  0  0
 32 33  1  0  0  0  0
M  END
>  <minimizedAffinity>
-5.17035198

$$$$

 OpenBabel03272501063D

 33 35  0  0  1  0  0  0  0  0999 V2000
   37.1290   24.1720   32.5760 C   0  0  2  0  0  0  0  0  0  0  0  0
   36.4870   23.6210   31.2930 C   0  0  2  0  0  0  0  0  0  0  0  0
   35.3300   24.5260   31.1600 C   0  0  0  0  0  0  0  0  0  0  0  0
   35.7830   25.7900   31.5270 O   0  0  0  0  0  0  0  0  0  0  0  0
   36.9140   25.6600   32.2700 C   0  0  0  0  0  0  0  0  0  0  0  0
   36.5910   23.8780   33.4760 H   0  0  0  0  0  0  0  0  0  0  0  0
   37.2360   23.8530   30.4850 H   0  0  0  0  0  0  0  0  0  0  0  0
   34.4430   24.2250   31.7550 H   0  0  0  0  0  0  0  0  0  0  0  0
   35.0010   24.5950   30.1000 H   0  0  0  0  0  0  0  0  0  0  0  0
   36.8080   26.1330   33.2800 H   0  0  0  0  0  0  0  0  0  0  0  0
   37.7930   26.1280   31.8070 H   0  0  0  0  0  0  0  0  0  0  0  0
   34.9270   20.3020   32.2090 C   0  0  0  0  0  0  0  0  0  0  0  0
   35.1280   21.7060   32.1540 C   0  0  0  0  0  0  0  0  0  0  0  0
   36.2020   22.2090   31.3790 C   0  0  0  0  0  0  0  0  0  0  0  0
   36.9860   21.2870   30.7280 N   0  0  0  0  0  0  0  0  0  0  0  0
   36.7760   19.9810   30.7990 C   0  0  0  0  0  0  0  0  0  0  0  0
   35.7580   19.4720   31.5290 N   0  0  0  0  0  0  0  0  0  0  0  0
   34.1030   19.9380   32.8040 H   0  0  0  0  0  0  0  0  0  0  0  0
   34.4610   22.3620   32.6960 H   0  0  0  0  0  0  0  0  0  0  0  0
   37.4770   19.3780   30.2310 H   0  0  0  0  0  0  0  0  0  0  0  0
   38.4670   23.8790   32.6520 O   0  0  0  0  0  0  0  0  0  0  0  0
   39.7340   24.1630   34.6090 C   0  0  1  0  0  3  0  0  0  0  0  0
   38.8890   23.2460   33.7910 C   0  0  1  0  0  3  0  0  0  0  0  0
   37.7480   22.8190   34.5370 O   0  0  0  0  0  0  0  0  0  0  0  0
   38.2810   22.0090   35.5650 C   0  0  0  0  0  2  0  0  0  0  0  0
   39.0800   22.8370   36.5520 C   0  0  1  0  0  3  0  0  0  0  0  0
   39.1440   24.2380   36.0160 C   0  0  2  0  0  3  0  0  0  0  0  0
   41.0380   23.6990   34.7430 O   0  0  0  0  0  0  0  0  0  0  0  0
   41.6860   24.4120   34.9490 H   0  0  0  0  0  0  0  0  0  0  0  0
   38.4540   22.8390   37.8060 O   0  0  0  0  0  0  0  0  0  0  0  0
   38.3620   23.7600   38.1170 H   0  0  0  0  0  0  0  0  0  0  0  0
   37.8310   24.7150   35.9710 O   0  0  0  0  0  0  0  0  0  0  0  0
   37.1950   24.1720   36.4740 H   0  0  0  0  0  0  0  0  0  0  0  0
  1 21  1  0  0  0  0
  1  6  1  1  0  0  0
  2  7  1  6  0  0  0
  2 14  1  0  0  0  0
  2  1  1  0  0  0  0
  3  2  1  0  0  0  0
  3  4  1  0  0  0  0
  3  8  1  0  0  0  0
  4  5  1  0  0  0  0
  5  1  1  0  0  0  0
  5 10  1  0  0  0  0
  9  3  1  0  0  0  0
 11  5  1  0  0  0  0
 12 18  1  0  0  0  0
 13 12  1  0  0  0  0
 13 19  1  0  0  0  0
 14 13  2  0  0  0  0
 15 16  2  0  0  0  0
 15 14  1  0  0  0  0
 16 17  1  0  0  0  0
 17 12  2  0  0  0  0
 20 16  1  0  0  0  0
 22 28  1  1  0  0  0
 22 27  1  0  0  0  0
 23 21  1  6  0  0  0
 23 24  1  0  0  0  0
 23 22  1  0  0  0  0
 24 25  1  0  0  0  0
 25 26  1  0  0  0  0
 26 30  1  1  0  0  0
 27 32  1  6  0  0  0
 27 26  1  0  0  0  0
 28 29  1  0  0  0  0
 30 31  1  0  0  0  0
 32 33  1  0  0  0  0
M  END
>  <minimizedAffinity>
-5.071033

$$$$

 OpenBabel03272501063D

 33 35  0  0  1  0  0  0  0  0999 V2000
   39.4100   24.8870   33.6360 C   0  0  2  0  0  0  0  0  0  0  0  0
   39.1620   25.4230   32.2160 C   0  0  2  0  0  0  0  0  0  0  0  0
   40.4260   26.1410   31.9740 C   0  0  0  0  0  0  0  0  0  0  0  0
   41.4310   25.3540   32.5280 O   0  0  0  0  0  0  0  0  0  0  0  0
   40.8820   24.5050   33.4370 C   0  0  0  0  0  0  0  0  0  0  0  0
   39.3060   25.6560   34.4000 H   0  0  0  0  0  0  0  0  0  0  0  0
   39.1280   24.5000   31.5720 H   0  0  0  0  0  0  0  0  0  0  0  0
   40.4510   27.1740   32.3800 H   0  0  0  0  0  0  0  0  0  0  0  0
   40.6370   26.2160   30.8840 H   0  0  0  0  0  0  0  0  0  0  0  0
   41.3350   24.6300   34.4540 H   0  0  0  0  0  0  0  0  0  0  0  0
   41.0130   23.4460   33.1760 H   0  0  0  0  0  0  0  0  0  0  0  0
   35.6950   26.5950   31.2700 C   0  0  0  0  0  0  0  0  0  0  0  0
   36.8470   25.7690   31.3330 C   0  0  0  0  0  0  0  0  0  0  0  0
   37.9450   26.1950   32.1210 C   0  0  0  0  0  0  0  0  0  0  0  0
   37.8150   27.3950   32.7750 N   0  0  0  0  0  0  0  0  0  0  0  0
   36.7270   28.1470   32.6960 C   0  0  0  0  0  0  0  0  0  0  0  0
   35.6620   27.7670   31.9540 N   0  0  0  0  0  0  0  0  0  0  0  0
   34.8680   26.2530   30.6650 H   0  0  0  0  0  0  0  0  0  0  0  0
   36.8650   24.8360   30.7880 H   0  0  0  0  0  0  0  0  0  0  0  0
   36.7700   29.0680   33.2690 H   0  0  0  0  0  0  0  0  0  0  0  0
   38.6510   23.7770   33.9100 O   0  0  0  0  0  0  0  0  0  0  0  0
   38.5510   22.2960   35.7300 C   0  0  1  0  0  3  0  0  0  0  0  0
   38.2060   23.6460   35.1980 C   0  0  1  0  0  3  0  0  0  0  0  0
   38.7990   24.6670   36.0020 O   0  0  0  0  0  0  0  0  0  0  0  0
   38.1260   24.5760   37.2420 C   0  0  0  0  0  2  0  0  0  0  0  0
   38.4780   23.2880   37.9590 C   0  0  1  0  0  3  0  0  0  0  0  0
   39.3320   22.4740   37.0300 C   0  0  2  0  0  3  0  0  0  0  0  0
   37.4220   21.5460   36.0360 O   0  0  0  0  0  0  0  0  0  0  0  0
   37.5880   20.5750   36.0390 H   0  0  0  0  0  0  0  0  0  0  0  0
   39.1900   23.5630   39.1360 O   0  0  0  0  0  0  0  0  0  0  0  0
   40.0010   23.0210   39.1530 H   0  0  0  0  0  0  0  0  0  0  0  0
   40.4990   23.2090   36.8050 O   0  0  0  0  0  0  0  0  0  0  0  0
   40.6280   23.9490   37.4280 H   0  0  0  0  0  0  0  0  0  0  0  0
  1 21  1  0  0  0  0
  1  6  1  1  0  0  0
  2  7  1  6  0  0  0
  2  1  1  0  0  0  0
  3  2  1  0  0  0  0
  3  8  1  0  0  0  0
  3  4  1  0  0  0  0
  4  5  1  0  0  0  0
  5  1  1  0  0  0  0
  5 10  1  0  0  0  0
  9  3  1  0  0  0  0
 11  5  1  0  0  0  0
 12 13  2  0  0  0  0
 12 17  1  0  0  0  0
 13 14  1  0  0  0  0
 14  2  1  0  0  0  0
 14 15  2  0  0  0  0
 16 15  1  0  0  0  0
 16 20  1  0  0  0  0
 17 16  2  0  0  0  0
 18 12  1  0  0  0  0
 19 13  1  0  0  0  0
 22 28  1  1  0  0  0
 22 27  1  0  0  0  0
 23 21  1  6  0  0  0
 23 22  1  0  0  0  0
 23 24  1  0  0  0  0
 24 25  1  0  0  0  0
 25 26  1  0  0  0  0
 26 30  1  1  0  0  0
 27 32  1  6  0  0  0
 27 26  1  0  0  0  0
 28 29  1  0  0  0  0
 30 31  1  0  0  0  0
 32 33  1  0  0  0  0
M  END
>  <minimizedAffinity>
-4.85713434

$$$$

 OpenBabel03272501063D

 33 35  0  0  1  0  0  0  0  0999 V2000
   36.3430   28.6940   33.6100 C   0  0  2  0  0  0  0  0  0  0  0  0
   34.9280   29.2960   33.5860 C   0  0  2  0  0  0  0  0  0  0  0  0
   34.9200   29.9140   32.2480 C   0  0  0  0  0  0  0  0  0  0  0  0
   35.5880   29.0280   31.4080 O   0  0  0  0  0  0  0  0  0  0  0  0
   36.3600   28.1970   32.1580 C   0  0  0  0  0  0  0  0  0  0  0  0
   37.1160   29.4430   33.7750 H   0  0  0  0  0  0  0  0  0  0  0  0
   34.2450   28.4010   33.5880 H   0  0  0  0  0  0  0  0  0  0  0  0
   35.3730   30.9270   32.2090 H   0  0  0  0  0  0  0  0  0  0  0  0
   33.8820   30.0070   31.8610 H   0  0  0  0  0  0  0  0  0  0  0  0
   37.4400   28.2510   31.8660 H   0  0  0  0  0  0  0  0  0  0  0  0
   36.0730   27.1410   32.0700 H   0  0  0  0  0  0  0  0  0  0  0  0
   35.3890   31.7750   36.4020 C   0  0  0  0  0  0  0  0  0  0  0  0
   35.7050   30.9600   35.2840 C   0  0  0  0  0  0  0  0  0  0  0  0
   34.6800   30.1690   34.7090 C   0  0  0  0  0  0  0  0  0  0  0  0
   33.4350   30.2460   35.2840 N   0  0  0  0  0  0  0  0  0  0  0  0
   33.1690   31.0160   36.3290 C   0  0  0  0  0  0  0  0  0  0  0  0
   34.1260   31.7830   36.9000 N   0  0  0  0  0  0  0  0  0  0  0  0
   36.1830   32.3710   36.8260 H   0  0  0  0  0  0  0  0  0  0  0  0
   36.7120   30.9610   34.8920 H   0  0  0  0  0  0  0  0  0  0  0  0
   32.1400   30.9730   36.6730 H   0  0  0  0  0  0  0  0  0  0  0  0
   36.4430   27.6430   34.4860 O   0  0  0  0  0  0  0  0  0  0  0  0
   38.3130   26.8930   35.6930 C   0  0  1  0  0  3  0  0  0  0  0  0
   37.5770   26.8800   34.3960 C   0  0  1  0  0  3  0  0  0  0  0  0
   37.2140   25.5450   34.0410 O   0  0  0  0  0  0  0  0  0  0  0  0
   38.4440   24.9030   33.7730 C   0  0  0  0  0  2  0  0  0  0  0  0
   39.2610   24.7400   35.0390 C   0  0  1  0  0  3  0  0  0  0  0  0
   38.5290   25.4490   36.1420 C   0  0  2  0  0  3  0  0  0  0  0  0
   39.5720   27.4720   35.5790 O   0  0  0  0  0  0  0  0  0  0  0  0
   39.9210   27.8160   36.4340 H   0  0  0  0  0  0  0  0  0  0  0  0
   39.3980   23.3820   35.3600 O   0  0  0  0  0  0  0  0  0  0  0  0
   39.1450   23.2460   36.2920 H   0  0  0  0  0  0  0  0  0  0  0  0
   37.3020   24.7960   36.2980 O   0  0  0  0  0  0  0  0  0  0  0  0
   37.2550   23.9290   35.8520 H   0  0  0  0  0  0  0  0  0  0  0  0
  1  6  1  1  0  0  0
  1 21  1  0  0  0  0
  2  7  1  1  0  0  0
  2  1  1  0  0  0  0
  2 14  1  0  0  0  0
  3  2  1  0  0  0  0
  4  5  1  0  0  0  0
  4  3  1  0  0  0  0
  5  1  1  0  0  0  0
  8  3  1  0  0  0  0
  9  3  1  0  0  0  0
 10  5  1  0  0  0  0
 11  5  1  0  0  0  0
 12 18  1  0  0  0  0
 12 17  1  0  0  0  0
 13 12  2  0  0  0  0
 14 15  2  0  0  0  0
 14 13  1  0  0  0  0
 15 16  1  0  0  0  0
 16 20  1  0  0  0  0
 16 17  2  0  0  0  0
 19 13  1  0  0  0  0
 22 28  1  6  0  0  0
 22 27  1  0  0  0  0
 23 21  1  1  0  0  0
 23 22  1  0  0  0  0
 24 23  1  0  0  0  0
 25 24  1  0  0  0  0
 25 26  1  0  0  0  0
 26 30  1  1  0  0  0
 26 27  1  0  0  0  0
 27 32  1  6  0  0  0
 28 29  1  0  0  0  0
 30 31  1  0  0  0  0
 33 32  1  0  0  0  0
M  END
>  <minimizedAffinity>
-4.843575

$$$$

 OpenBabel03272501063D

 33 35  0  0  1  0  0  0  0  0999 V2000
   36.7960   24.4590   32.2400 C   0  0  2  0  0  0  0  0  0  0  0  0
   36.1930   23.4580   31.2410 C   0  0  2  0  0  0  0  0  0  0  0  0
   34.9670   24.1750   30.8470 C   0  0  0  0  0  0  0  0  0  0  0  0
   35.3170   25.5180   30.7490 O   0  0  0  0  0  0  0  0  0  0  0  0
   36.4590   25.7340   31.4550 C   0  0  0  0  0  0  0  0  0  0  0  0
   36.2890   24.4490   33.2040 H   0  0  0  0  0  0  0  0  0  0  0  0
   36.9160   23.4560   30.3780 H   0  0  0  0  0  0  0  0  0  0  0  0
   34.1100   24.0300   31.5390 H   0  0  0  0  0  0  0  0  0  0  0  0
   34.6270   23.8550   29.8380 H   0  0  0  0  0  0  0  0  0  0  0  0
   36.3220   26.5130   32.2480 H   0  0  0  0  0  0  0  0  0  0  0  0
   37.2950   26.0800   30.8320 H   0  0  0  0  0  0  0  0  0  0  0  0
   35.6440   19.7390   31.6350 C   0  0  0  0  0  0  0  0  0  0  0  0
   35.8270   20.9950   31.0000 C   0  0  0  0  0  0  0  0  0  0  0  0
   36.0250   22.1420   31.8100 C   0  0  0  0  0  0  0  0  0  0  0  0
   36.0250   21.9530   33.1700 N   0  0  0  0  0  0  0  0  0  0  0  0
   35.8500   20.7680   33.7350 C   0  0  0  0  0  0  0  0  0  0  0  0
   35.6590   19.6550   32.9900 N   0  0  0  0  0  0  0  0  0  0  0  0
   35.4940   18.8770   31.0020 H   0  0  0  0  0  0  0  0  0  0  0  0
   35.8150   21.0550   29.9220 H   0  0  0  0  0  0  0  0  0  0  0  0
   35.8750   20.7740   34.8200 H   0  0  0  0  0  0  0  0  0  0  0  0
   38.1550   24.3090   32.3660 O   0  0  0  0  0  0  0  0  0  0  0  0
   39.6560   25.8780   33.2600 C   0  0  1  0  0  3  0  0  0  0  0  0
   38.7120   24.7570   33.5340 C   0  0  1  0  0  3  0  0  0  0  0  0
   37.6690   25.1850   34.4130 O   0  0  0  0  0  0  0  0  0  0  0  0
   38.3220   25.4260   35.6430 C   0  0  0  0  0  2  0  0  0  0  0  0
   39.2410   26.6270   35.5460 C   0  0  1  0  0  3  0  0  0  0  0  0
   39.2460   27.0760   34.1130 C   0  0  2  0  0  3  0  0  0  0  0  0
   40.9640   25.5620   33.6110 O   0  0  0  0  0  0  0  0  0  0  0  0
   41.6370   26.1010   33.1320 H   0  0  0  0  0  0  0  0  0  0  0  0
   38.7760   27.6660   36.3650 O   0  0  0  0  0  0  0  0  0  0  0  0
   38.7290   28.4890   35.8430 H   0  0  0  0  0  0  0  0  0  0  0  0
   37.9400   27.4700   33.8090 O   0  0  0  0  0  0  0  0  0  0  0  0
   37.3690   27.5870   34.5910 H   0  0  0  0  0  0  0  0  0  0  0  0
  1 21  1  0  0  0  0
  1  6  1  1  0  0  0
  2  7  1  6  0  0  0
  2 14  1  0  0  0  0
  2  1  1  0  0  0  0
  3  2  1  0  0  0  0
  3  8  1  0  0  0  0
  4  3  1  0  0  0  0
  4  5  1  0  0  0  0
  5  1  1  0  0  0  0
  5 10  1  0  0  0  0
  9  3  1  0  0  0  0
 11  5  1  0  0  0  0
 12 17  1  0  0  0  0
 13 12  2  0  0  0  0
 13 14  1  0  0  0  0
 14 15  2  0  0  0  0
 15 16  1  0  0  0  0
 16 20  1  0  0  0  0
 17 16  2  0  0  0  0
 18 12  1  0  0  0  0
 19 13  1  0  0  0  0
 22 23  1  0  0  0  0
 22 28  1  1  0  0  0
 22 27  1  0  0  0  0
 23 21  1  6  0  0  0
 23 24  1  0  0  0  0
 24 25  1  0  0  0  0
 26 25  1  0  0  0  0
 26 30  1  1  0  0  0
 27 32  1  6  0  0  0
 27 26  1  0  0  0  0
 29 28  1  0  0  0  0
 31 30  1  0  0  0  0
 32 33  1  0  0  0  0
M  END
>  <minimizedAffinity>
-4.82851219

$$$$

 OpenBabel03272501063D

 33 35  0  0  1  0  0  0  0  0999 V2000
   38.0420   25.4810   34.0550 C   0  0  2  0  0  0  0  0  0  0  0  0
   37.8870   25.7170   35.5670 C   0  0  2  0  0  0  0  0  0  0  0  0
   38.4470   27.0750   35.6870 C   0  0  0  0  0  0  0  0  0  0  0  0
   38.0070   27.7760   34.5680 O   0  0  0  0  0  0  0  0  0  0  0  0
   37.6390   26.8910   33.6040 C   0  0  0  0  0  0  0  0  0  0  0  0
   39.0680   25.2580   33.7670 H   0  0  0  0  0  0  0  0  0  0  0  0
   36.7740   25.7570   35.7300 H   0  0  0  0  0  0  0  0  0  0  0  0
   39.5530   27.1080   35.7760 H   0  0  0  0  0  0  0  0  0  0  0  0
   38.0340   27.5970   36.5790 H   0  0  0  0  0  0  0  0  0  0  0  0
   38.2120   27.0460   32.6530 H   0  0  0  0  0  0  0  0  0  0  0  0
   36.5770   26.9610   33.3330 H   0  0  0  0  0  0  0  0  0  0  0  0
   38.7140   23.3100   38.3610 C   0  0  0  0  0  0  0  0  0  0  0  0
   38.0300   24.3200   37.6370 C   0  0  0  0  0  0  0  0  0  0  0  0
   38.5130   24.6820   36.3550 C   0  0  0  0  0  0  0  0  0  0  0  0
   39.6280   24.0210   35.8990 N   0  0  0  0  0  0  0  0  0  0  0  0
   40.2470   23.0820   36.5990 C   0  0  0  0  0  0  0  0  0  0  0  0
   39.8100   22.7140   37.8250 N   0  0  0  0  0  0  0  0  0  0  0  0
   38.3310   23.0470   39.3360 H   0  0  0  0  0  0  0  0  0  0  0  0
   37.1570   24.7880   38.0700 H   0  0  0  0  0  0  0  0  0  0  0  0
   41.1140   22.6490   36.1090 H   0  0  0  0  0  0  0  0  0  0  0  0
   37.1550   24.5470   33.5840 O   0  0  0  0  0  0  0  0  0  0  0  0
   37.5220   22.2270   33.5600 C   0  0  1  0  0  3  0  0  0  0  0  0
   37.6830   23.5240   32.8420 C   0  0  1  0  0  3  0  0  0  0  0  0
   37.0240   23.4800   31.5750 O   0  0  0  0  0  0  0  0  0  0  0  0
   37.7710   22.5460   30.8210 C   0  0  0  0  0  2  0  0  0  0  0  0
   37.6070   21.1440   31.3730 C   0  0  1  0  0  3  0  0  0  0  0  0
   36.8000   21.2490   32.6350 C   0  0  2  0  0  3  0  0  0  0  0  0
   38.7440   21.6490   33.8840 O   0  0  0  0  0  0  0  0  0  0  0  0
   38.6880   21.0170   34.6380 H   0  0  0  0  0  0  0  0  0  0  0  0
   36.9350   20.3310   30.4490 O   0  0  0  0  0  0  0  0  0  0  0  0
   36.1920   19.8840   30.8970 H   0  0  0  0  0  0  0  0  0  0  0  0
   35.5470   21.7510   32.2740 O   0  0  0  0  0  0  0  0  0  0  0  0
   35.3700   21.7230   31.3140 H   0  0  0  0  0  0  0  0  0  0  0  0
  1  6  1  6  0  0  0
  1  2  1  0  0  0  0
  2  3  1  0  0  0  0
  2  7  1  1  0  0  0
  2 14  1  0  0  0  0
  3  8  1  0  0  0  0
  3  9  1  0  0  0  0
  4  3  1  0  0  0  0
  5  1  1  0  0  0  0
  5  4  1  0  0  0  0
 10  5  1  0  0  0  0
 11  5  1  0  0  0  0
 12 18  1  0  0  0  0
 13 19  1  0  0  0  0
 13 12  2  0  0  0  0
 14 13  1  0  0  0  0
 15 14  2  0  0  0  0
 15 16  1  0  0  0  0
 16 17  2  0  0  0  0
 17 12  1  0  0  0  0
 20 16  1  0  0  0  0
 21  1  1  0  0  0  0
 22 28  1  6  0  0  0
 23 22  1  0  0  0  0
 23 21  1  1  0  0  0
 24 23  1  0  0  0  0
 25 26  1  0  0  0  0
 25 24  1  0  0  0  0
 26 30  1  6  0  0  0
 26 27  1  0  0  0  0
 27 32  1  6  0  0  0
 27 22  1  0  0  0  0
 28 29  1  0  0  0  0
 30 31  1  0  0  0  0
 33 32  1  0  0  0  0
M  END
>  <minimizedAffinity>
-4.76582813

$$$$
