
 OpenBabel03272509433D

 41 43  0  0  1  0  0  0  0  0999 V2000
   37.0170   30.9210   49.0920 C   0  0  0  0  0  0  0  0  0  0  0  0
   36.7060   31.8140   50.1190 C   0  0  0  0  0  0  0  0  0  0  0  0
   37.2830   33.0760   50.1900 C   0  0  0  0  0  0  0  0  0  0  0  0
   38.1960   33.4670   49.2070 C   0  0  0  0  0  0  0  0  0  0  0  0
   38.4880   32.5820   48.2090 C   0  0  0  0  0  0  0  0  0  0  0  0
   37.8950   31.3300   48.1710 C   0  0  0  0  0  0  0  0  0  0  0  0
   35.9890   31.4920   50.8790 H   0  0  0  0  0  0  0  0  0  0  0  0
   36.9710   33.6780   51.0230 H   0  0  0  0  0  0  0  0  0  0  0  0
   38.5880   34.4550   49.3400 H   0  0  0  0  0  0  0  0  0  0  0  0
   39.2130   33.0280   47.5240 H   0  0  0  0  0  0  0  0  0  0  0  0
   36.4460   29.5930   49.0410 C   0  0  2  0  0  0  0  0  0  0  0  0
   36.9490   29.0800   48.1340 H   0  0  0  0  0  0  0  0  0  0  0  0
   33.5890   29.9400   46.8240 C   0  0  0  0  0  0  0  0  0  0  0  0
   32.8460   28.7950   47.0540 C   0  0  0  0  0  0  0  0  0  0  0  0
   33.2870   27.9170   48.0250 C   0  0  0  0  0  0  0  0  0  0  0  0
   34.4410   28.2060   48.7240 N   0  0  0  0  0  0  0  0  0  0  0  0
   35.1060   29.3100   48.4560 C   0  0  0  0  0  0  0  0  0  0  0  0
   34.6890   30.1780   47.5170 N   0  0  0  0  0  0  0  0  0  0  0  0
   33.2160   30.6060   46.0580 H   0  0  0  0  0  0  0  0  0  0  0  0
   31.9340   28.5010   46.5470 H   0  0  0  0  0  0  0  0  0  0  0  0
   32.8040   26.9870   48.3100 H   0  0  0  0  0  0  0  0  0  0  0  0
   36.9280   28.8130   49.9460 O   0  0  0  0  0  0  0  0  0  0  0  0
   36.8050   29.1690   50.8820 H   0  0  0  0  0  0  0  0  0  0  0  0
   38.3150   30.4840   47.0780 C   0  0  0  0  0  3  0  0  0  0  0  0
   38.9110   30.9410   45.9700 C   0  0  0  0  0  3  0  0  0  0  0  0
   39.4180   30.1670   44.8130 C   0  0  0  0  0  0  0  0  0  0  0  0
   40.4940   30.4050   44.5780 H   0  0  0  0  0  0  0  0  0  0  0  0
   39.3920   29.0880   45.0490 H   0  0  0  0  0  0  0  0  0  0  0  0
   38.4230   30.5310   43.3640 S   0  0  0  0  0  0  0  0  0  0  0  0
   39.0520   28.7120   41.4870 C   0  0  1  0  0  3  0  0  0  0  0  0
   39.2340   30.1860   41.8070 C   0  0  2  0  0  3  0  0  0  0  0  0
   40.5730   30.5450   41.8260 O   0  0  0  0  0  0  0  0  0  0  0  0
   41.1730   30.0630   40.6580 C   0  0  0  0  0  2  0  0  0  0  0  0
   41.4370   28.5940   40.9050 C   0  0  1  0  0  3  0  0  0  0  0  0
   40.3400   27.9340   41.7070 C   0  0  2  0  0  3  0  0  0  0  0  0
   38.0960   28.1390   42.3280 O   0  0  0  0  0  0  0  0  0  0  0  0
   37.4510   28.7970   42.6920 H   0  0  0  0  0  0  0  0  0  0  0  0
   41.5180   27.9260   39.7040 O   0  0  0  0  0  0  0  0  0  0  0  0
   41.5540   28.5200   38.9360 H   0  0  0  0  0  0  0  0  0  0  0  0
   40.1000   26.6250   41.2890 O   0  0  0  0  0  0  0  0  0  0  0  0
   39.6860   26.5810   40.3990 H   0  0  0  0  0  0  0  0  0  0  0  0
  1  2  1  0  0  0  0
  2  3  2  0  0  0  0
  2  7  1  0  0  0  0
  3  8  1  0  0  0  0
  4  9  1  0  0  0  0
  4  3  1  0  0  0  0
  5  4  2  0  0  0  0
  6  5  1  0  0  0  0
  6  1  2  0  0  0  0
 10  5  1  0  0  0  0
 11 12  1  6  0  0  0
 11  1  1  0  0  0  0
 11 22  1  0  0  0  0
 13 14  2  0  0  0  0
 13 18  1  0  0  0  0
 14 15  1  0  0  0  0
 15 21  1  0  0  0  0
 15 16  2  0  0  0  0
 17 16  1  0  0  0  0
 17 11  1  0  0  0  0
 18 17  2  0  0  0  0
 19 13  1  0  0  0  0
 20 14  1  0  0  0  0
 22 23  1  0  0  0  0
 24  6  1  0  0  0  0
 25 24  2  0  0  0  0
 26 28  1  0  0  0  0
 26 25  1  0  0  0  0
 27 26  1  0  0  0  0
 29 26  1  0  0  0  0
 30 35  1  0  0  0  0
 30 31  1  0  0  0  0
 30 36  1  1  0  0  0
 31 32  1  0  0  0  0
 31 29  1  1  0  0  0
 33 34  1  0  0  0  0
 33 32  1  0  0  0  0
 34 38  1  6  0  0  0
 34 35  1  0  0  0  0
 35 40  1  6  0  0  0
 36 37  1  0  0  0  0
 39 38  1  0  0  0  0
 41 40  1  0  0  0  0
M  END
>  <minimizedAffinity>
-6.18360043

>  <minimizedRMSD>
0.523063064

$$$$
