
 OpenBabel03272509433D

 41 43  0  0  1  0  0  0  0  0999 V2000
   37.0710   30.9410   49.0600 C   0  0  0  0  0  0  0  0  0  0  0  0
   36.7700   31.8620   50.0640 C   0  0  0  0  0  0  0  0  0  0  0  0
   37.3590   33.1200   50.1020 C   0  0  0  0  0  0  0  0  0  0  0  0
   38.2750   33.4770   49.1080 C   0  0  0  0  0  0  0  0  0  0  0  0
   38.5570   32.5650   48.1330 C   0  0  0  0  0  0  0  0  0  0  0  0
   37.9520   31.3180   48.1270 C   0  0  0  0  0  0  0  0  0  0  0  0
   36.0510   31.5670   50.8330 H   0  0  0  0  0  0  0  0  0  0  0  0
   37.0540   33.7460   50.9200 H   0  0  0  0  0  0  0  0  0  0  0  0
   38.6760   34.4650   49.2160 H   0  0  0  0  0  0  0  0  0  0  0  0
   39.2860   32.9860   47.4370 H   0  0  0  0  0  0  0  0  0  0  0  0
   36.4880   29.6170   49.0430 C   0  0  2  0  0  0  0  0  0  0  0  0
   36.9860   29.0750   48.1500 H   0  0  0  0  0  0  0  0  0  0  0  0
   33.6240   29.9510   46.8330 C   0  0  0  0  0  0  0  0  0  0  0  0
   32.8800   28.8100   47.0750 C   0  0  0  0  0  0  0  0  0  0  0  0
   33.3230   27.9390   48.0510 C   0  0  0  0  0  0  0  0  0  0  0  0
   34.4790   28.2310   48.7440 N   0  0  0  0  0  0  0  0  0  0  0  0
   35.1450   29.3320   48.4650 C   0  0  0  0  0  0  0  0  0  0  0  0
   34.7260   30.1920   47.5200 N   0  0  0  0  0  0  0  0  0  0  0  0
   33.2490   30.6120   46.0630 H   0  0  0  0  0  0  0  0  0  0  0  0
   31.9650   28.5130   46.5740 H   0  0  0  0  0  0  0  0  0  0  0  0
   32.8390   27.0110   48.3450 H   0  0  0  0  0  0  0  0  0  0  0  0
   36.9620   28.8560   49.9680 O   0  0  0  0  0  0  0  0  0  0  0  0
   36.8420   29.2380   50.8950 H   0  0  0  0  0  0  0  0  0  0  0  0
   38.3620   30.4400   47.0560 C   0  0  0  0  0  3  0  0  0  0  0  0
   38.5580   30.8460   45.7960 C   0  0  0  0  0  3  0  0  0  0  0  0
   39.0160   30.0490   44.6340 C   0  0  0  0  0  0  0  0  0  0  0  0
   39.3060   28.9990   44.9220 H   0  0  0  0  0  0  0  0  0  0  0  0
   38.1900   29.9460   43.9060 H   0  0  0  0  0  0  0  0  0  0  0  0
   40.4380   30.8470   43.8800 S   0  0  0  0  0  0  0  0  0  0  0  0
   40.2960   30.8190   41.1960 C   0  0  1  0  0  3  0  0  0  0  0  0
   40.9760   30.0990   42.3480 C   0  0  2  0  0  3  0  0  0  0  0  0
   40.7270   28.7340   42.3190 O   0  0  0  0  0  0  0  0  0  0  0  0
   40.9900   28.2700   41.0250 C   0  0  0  0  0  2  0  0  0  0  0  0
   39.7740   28.6330   40.2020 C   0  0  1  0  0  3  0  0  0  0  0  0
   39.1880   29.9720   40.5880 C   0  0  2  0  0  3  0  0  0  0  0  0
   39.6920   31.9970   41.6390 O   0  0  0  0  0  0  0  0  0  0  0  0
   40.1010   32.3610   42.4650 H   0  0  0  0  0  0  0  0  0  0  0  0
   40.1190   28.7110   38.8710 O   0  0  0  0  0  0  0  0  0  0  0  0
   41.0090   28.3720   38.6840 H   0  0  0  0  0  0  0  0  0  0  0  0
   38.7020   30.6700   39.4840 O   0  0  0  0  0  0  0  0  0  0  0  0
   39.4180   30.9830   38.8880 H   0  0  0  0  0  0  0  0  0  0  0  0
  1  2  1  0  0  0  0
  2  3  2  0  0  0  0
  2  7  1  0  0  0  0
  3  8  1  0  0  0  0
  4  9  1  0  0  0  0
  4  3  1  0  0  0  0
  5  4  2  0  0  0  0
  6  5  1  0  0  0  0
  6  1  2  0  0  0  0
 10  5  1  0  0  0  0
 11 12  1  6  0  0  0
 11  1  1  0  0  0  0
 11 22  1  0  0  0  0
 13 14  2  0  0  0  0
 13 18  1  0  0  0  0
 14 15  1  0  0  0  0
 15 21  1  0  0  0  0
 15 16  2  0  0  0  0
 17 16  1  0  0  0  0
 17 11  1  0  0  0  0
 18 17  2  0  0  0  0
 19 13  1  0  0  0  0
 20 14  1  0  0  0  0
 22 23  1  0  0  0  0
 24  6  1  0  0  0  0
 25 24  2  0  0  0  0
 26 27  1  0  0  0  0
 26 25  1  0  0  0  0
 28 26  1  0  0  0  0
 29 26  1  0  0  0  0
 30 36  1  1  0  0  0
 30 31  1  0  0  0  0
 31 29  1  1  0  0  0
 32 31  1  0  0  0  0
 33 32  1  0  0  0  0
 34 38  1  6  0  0  0
 34 35  1  0  0  0  0
 34 33  1  0  0  0  0
 35 40  1  6  0  0  0
 35 30  1  0  0  0  0
 36 37  1  0  0  0  0
 39 38  1  0  0  0  0
 41 40  1  0  0  0  0
M  END
>  <minimizedAffinity>
-6.09607363

>  <minimizedRMSD>
0.938623786

$$$$
