
 OpenBabel03272506433D

 35 37  0  0  1  0  0  0  0  0999 V2000
   32.2510   28.2000   47.4940 C   0  0  2  0  0  0  0  0  0  0  0  0
   33.5260   28.1210   48.3170 C   0  0  1  0  0  0  0  0  0  0  0  0
   34.0760   26.8840   48.1160 O   0  0  0  0  0  0  0  0  0  0  0  0
   33.4220   26.2440   47.0740 C   0  0  0  0  0  0  0  0  0  0  0  0
   32.6600   27.3430   46.3220 C   0  0  1  0  0  0  0  0  0  0  0  0
   31.4420   27.7380   48.0900 H   0  0  0  0  0  0  0  0  0  0  0  0
   33.2460   28.3490   49.3550 H   0  0  0  0  0  0  0  0  0  0  0  0
   34.2120   25.7900   46.4350 H   0  0  0  0  0  0  0  0  0  0  0  0
   32.6630   25.5240   47.4180 H   0  0  0  0  0  0  0  0  0  0  0  0
   33.3660   27.9020   45.7110 H   0  0  0  0  0  0  0  0  0  0  0  0
   31.9700   29.5070   47.1340 O   0  0  0  0  0  0  0  0  0  0  0  0
   31.4070   29.5700   46.3330 H   0  0  0  0  0  0  0  0  0  0  0  0
   34.6530   29.3730   47.6280 S   0  0  0  0  0  0  0  0  0  0  0  0
   37.1990   29.2370   50.6650 C   0  0  0  0  0  0  0  0  0  0  0  0
   37.6230   30.5540   50.8470 C   0  0  0  0  0  0  0  0  0  0  0  0
   37.0920   31.5310   49.9820 C   0  0  0  0  0  0  0  0  0  0  0  0
   36.2080   31.1480   49.0320 N   0  0  0  0  0  0  0  0  0  0  0  0
   35.8210   29.8650   48.8870 C   0  0  0  0  0  0  0  0  0  0  0  0
   36.3050   28.9080   49.6910 N   0  0  0  0  0  0  0  0  0  0  0  0
   37.5450   28.4080   51.2750 H   0  0  0  0  0  0  0  0  0  0  0  0
   38.3260   30.7750   51.6220 H   0  0  0  0  0  0  0  0  0  0  0  0
   37.4140   32.5540   50.1160 H   0  0  0  0  0  0  0  0  0  0  0  0
   31.5800   26.7900   45.6590 O   0  0  0  0  0  0  0  0  0  0  0  0
   32.4930   28.1700   43.9010 C   0  0  2  0  0  3  0  0  0  0  0  0
   31.8030   26.9020   44.2870 C   0  0  2  0  0  3  0  0  0  0  0  0
   30.6260   26.6620   43.5980 O   0  0  0  0  0  0  0  0  0  0  0  0
   29.7680   27.7530   43.5850 C   0  0  0  0  0  2  0  0  0  0  0  0
   30.4330   28.7500   42.6560 C   0  0  1  0  0  3  0  0  0  0  0  0
   31.6330   29.2710   43.3970 C   0  0  1  0  0  3  0  0  0  0  0  0
   33.5110   27.9440   42.9700 O   0  0  0  0  0  0  0  0  0  0  0  0
   33.1850   27.3390   42.2840 H   0  0  0  0  0  0  0  0  0  0  0  0
   30.8690   28.0130   41.5380 O   0  0  0  0  0  0  0  0  0  0  0  0
   31.1070   28.6110   40.7880 H   0  0  0  0  0  0  0  0  0  0  0  0
   31.1680   30.0730   44.4560 O   0  0  0  0  0  0  0  0  0  0  0  0
   31.8670   30.7720   44.6080 H   0  0  0  0  0  0  0  0  0  0  0  0
  1  6  1  1  0  0  0
  1  2  1  0  0  0  0
  2  7  1  1  0  0  0
  3  2  1  0  0  0  0
  4  9  1  0  0  0  0
  4  3  1  0  0  0  0
  5 10  1  6  0  0  0
  5  4  1  0  0  0  0
  5  1  1  0  0  0  0
  8  4  1  0  0  0  0
 11  1  1  0  0  0  0
 12 11  1  0  0  0  0
 13  2  1  0  0  0  0
 13 18  1  0  0  0  0
 14 15  1  0  0  0  0
 14 20  1  0  0  0  0
 15 21  1  0  0  0  0
 16 22  1  0  0  0  0
 16 15  2  0  0  0  0
 17 16  1  0  0  0  0
 18 17  2  0  0  0  0
 18 19  1  0  0  0  0
 19 14  2  0  0  0  0
 23  5  1  0  0  0  0
 24 30  1  6  0  0  0
 24 25  1  0  0  0  0
 25 23  1  1  0  0  0
 26 25  1  0  0  0  0
 27 26  1  0  0  0  0
 28 32  1  6  0  0  0
 28 29  1  0  0  0  0
 28 27  1  0  0  0  0
 29 24  1  0  0  0  0
 29 34  1  1  0  0  0
 31 30  1  0  0  0  0
 33 32  1  0  0  0  0
 34 35  1  0  0  0  0
M  END
>  <minimizedAffinity>
-3.843292

>  <minimizedRMSD>
1.69761932

$$$$
