
 OpenBabel03272502303D

 27 28  0  0  1  0  0  0  0  0999 V2000
   39.4430   32.5910   46.6440 C   0  0  0  0  0  0  0  0  0  0  0  0
   39.7000   33.6450   46.7750 H   0  0  0  0  0  0  0  0  0  0  0  0
   40.4290   32.0750   46.4450 H   0  0  0  0  0  0  0  0  0  0  0  0
   38.1810   30.8420   47.8570 C   0  0  0  0  0  3  0  0  0  0  0  0
   38.8110   31.9730   47.8310 C   0  0  0  0  0  3  0  0  0  0  0  0
   37.3270   30.1960   51.4240 C   0  0  0  0  0  0  0  0  0  0  0  0
   37.9800   30.6880   50.2860 C   0  0  0  0  0  0  0  0  0  0  0  0
   37.5340   30.3670   49.0320 C   0  0  0  0  0  0  0  0  0  0  0  0
   36.4350   29.5580   48.9140 N   0  0  0  0  0  0  0  0  0  0  0  0
   35.8280   29.1020   50.0370 C   0  0  0  0  0  0  0  0  0  0  0  0
   36.2650   29.4140   51.2730 N   0  0  0  0  0  0  0  0  0  0  0  0
   37.6720   30.4300   52.4360 H   0  0  0  0  0  0  0  0  0  0  0  0
   38.8380   31.3190   50.4500 H   0  0  0  0  0  0  0  0  0  0  0  0
   34.9410   28.4500   50.0400 H   0  0  0  0  0  0  0  0  0  0  0  0
   38.3330   32.3480   45.2160 S   0  0  0  0  0  0  0  0  0  0  0  0
   38.2600   31.4770   42.6770 C   0  0  2  0  0  3  0  0  0  0  0  0
   39.2800   31.9920   43.6740 C   0  0  2  0  0  3  0  0  0  0  0  0
   40.2070   31.0340   44.0180 O   0  0  0  0  0  0  0  0  0  0  0  0
   40.7680   30.3170   43.0050 C   0  0  0  0  0  2  0  0  0  0  0  0
   39.6830   29.4360   42.3900 C   0  0  2  0  0  3  0  0  0  0  0  0
   38.7030   30.3900   41.7750 C   0  0  2  0  0  3  0  0  0  0  0  0
   37.8260   32.5340   41.8810 O   0  0  0  0  0  0  0  0  0  0  0  0
   36.8400   32.4870   41.7170 H   0  0  0  0  0  0  0  0  0  0  0  0
   39.1060   28.6470   43.3530 O   0  0  0  0  0  0  0  0  0  0  0  0
   38.1260   28.8000   43.4540 H   0  0  0  0  0  0  0  0  0  0  0  0
   39.1370   30.8810   40.5410 O   0  0  0  0  0  0  0  0  0  0  0  0
   38.3040   31.1730   40.0640 H   0  0  0  0  0  0  0  0  0  0  0  0
  1  2  1  0  0  0  0
  1  5  1  0  0  0  0
  3  1  1  0  0  0  0
  4  8  1  0  0  0  0
  5  4  2  0  0  0  0
  6 12  1  0  0  0  0
  7 13  1  0  0  0  0
  7  6  2  0  0  0  0
  8  7  1  0  0  0  0
  9  8  2  0  0  0  0
  9 10  1  0  0  0  0
 10 14  1  0  0  0  0
 10 11  2  0  0  0  0
 11  6  1  0  0  0  0
 15  1  1  0  0  0  0
 16 22  1  6  0  0  0
 16 17  1  0  0  0  0
 17 18  1  0  0  0  0
 17 15  1  1  0  0  0
 19 18  1  0  0  0  0
 20 19  1  0  0  0  0
 20 24  1  1  0  0  0
 21 26  1  6  0  0  0
 21 20  1  0  0  0  0
 21 16  1  0  0  0  0
 23 22  1  0  0  0  0
 24 25  1  0  0  0  0
 27 26  1  0  0  0  0
M  END
>  <minimizedAffinity>
-5.12241602

>  <minimizedRMSD>
1.08450294

$$$$
