
 OpenBabel03272502303D

 27 28  0  0  1  0  0  0  0  0999 V2000
   39.3170   32.6910   46.7200 C   0  0  0  0  0  0  0  0  0  0  0  0
   39.4780   33.7660   46.8270 H   0  0  0  0  0  0  0  0  0  0  0  0
   40.3510   32.2580   46.5750 H   0  0  0  0  0  0  0  0  0  0  0  0
   38.1630   30.8720   47.9380 C   0  0  0  0  0  0  0  0  0  0  0  0
   38.6920   32.0540   47.8990 C   0  0  0  0  0  0  0  0  0  0  0  0
   37.2930   30.1600   51.4880 C   0  0  0  0  0  0  0  0  0  0  0  0
   37.9510   30.6720   50.3620 C   0  0  0  0  0  0  0  0  0  0  0  0
   37.5100   30.3760   49.1000 C   0  0  0  0  0  0  0  0  0  0  0  0
   36.4110   29.5710   48.9620 N   0  0  0  0  0  0  0  0  0  0  0  0
   35.7980   29.0950   50.0730 C   0  0  0  0  0  0  0  0  0  0  0  0
   36.2300   29.3820   51.3170 N   0  0  0  0  0  0  0  0  0  0  0  0
   37.6330   30.3730   52.5050 H   0  0  0  0  0  0  0  0  0  0  0  0
   38.8100   31.2990   50.5410 H   0  0  0  0  0  0  0  0  0  0  0  0
   34.9100   28.4450   50.0600 H   0  0  0  0  0  0  0  0  0  0  0  0
   38.2920   32.3130   45.2570 S   0  0  0  0  0  0  0  0  0  0  0  0
   40.3030   31.1140   43.9420 C   0  0  2  0  0  0  0  0  0  0  0  0
   38.8870   30.8000   44.3860 C   0  0  2  0  0  0  0  0  0  0  0  0
   38.0320   30.6210   43.3230 O   0  0  0  0  0  0  0  0  0  0  0  0
   38.4600   29.8240   42.3040 C   0  0  0  0  0  0  0  0  0  0  0  0
   39.6200   30.5280   41.6050 C   0  0  2  0  0  0  0  0  0  0  0  0
   40.7170   30.5850   42.6230 C   0  0  2  0  0  0  0  0  0  0  0  0
   41.1970   30.6280   44.8920 O   0  0  0  0  0  0  0  0  0  0  0  0
   41.9470   31.2700   45.0510 H   0  0  0  0  0  0  0  0  0  0  0  0
   39.2340   31.7780   41.1850 O   0  0  0  0  0  0  0  0  0  0  0  0
   39.7760   32.5120   41.5860 H   0  0  0  0  0  0  0  0  0  0  0  0
   41.4010   29.3720   42.7400 O   0  0  0  0  0  0  0  0  0  0  0  0
   42.2990   29.6090   43.1240 H   0  0  0  0  0  0  0  0  0  0  0  0
  1  2  1  0  0  0  0
  1  5  1  0  0  0  0
  3  1  1  0  0  0  0
  4  8  1  0  0  0  0
  5  4  2  0  0  0  0
  6 12  1  0  0  0  0
  7 13  1  0  0  0  0
  7  6  2  0  0  0  0
  8  7  1  0  0  0  0
  9  8  2  0  0  0  0
  9 10  1  0  0  0  0
 10 11  2  0  0  0  0
 11  6  1  0  0  0  0
 14 10  1  0  0  0  0
 15  1  1  0  0  0  0
 16 17  1  0  0  0  0
 16 22  1  1  0  0  0
 17 15  1  1  0  0  0
 18 17  1  0  0  0  0
 19 18  1  0  0  0  0
 20 24  1  1  0  0  0
 20 19  1  0  0  0  0
 20 21  1  0  0  0  0
 21 26  1  1  0  0  0
 21 16  1  0  0  0  0
 22 23  1  0  0  0  0
 24 25  1  0  0  0  0
 26 27  1  0  0  0  0
M  END
>  <minimizedAffinity>
-5.75059509

>  <minimizedRMSD>
0.892554879

$$$$
