
 OpenBabel03272504573D

 36 38  0  0  1  0  0  0  0  0999 V2000
   36.9940   31.5630   48.6720 C   0  0  1  0  0  0  0  0  0  0  0  0
   36.2110   30.9170   47.6480 C   0  0  0  0  0  0  0  0  0  0  0  0
   37.1710   30.1250   48.4750 C   0  0  2  0  0  0  0  0  0  0  0  0
   36.5550   31.8420   49.6950 H   0  0  0  0  0  0  0  0  0  0  0  0
   35.1820   31.1730   47.8090 H   0  0  0  0  0  0  0  0  0  0  0  0
   36.5180   31.1040   46.5970 H   0  0  0  0  0  0  0  0  0  0  0  0
   37.8570   29.5920   47.8450 H   0  0  0  0  0  0  0  0  0  0  0  0
   38.1530   32.4470   48.3160 C   0  0  0  0  0  0  0  0  0  0  0  0
   38.5570   33.3690   49.3170 C   0  0  0  0  0  0  0  0  0  0  0  0
   39.6220   34.1630   48.9560 C   0  0  0  0  0  0  0  0  0  0  0  0
   40.2010   34.0310   47.7260 N   0  0  0  0  0  0  0  0  0  0  0  0
   39.7780   33.1350   46.8020 C   0  0  0  0  0  0  0  0  0  0  0  0
   38.7230   32.3330   47.1330 N   0  0  0  0  0  0  0  0  0  0  0  0
   40.3690   33.0070   45.5420 N   0  0  0  0  0  0  0  0  0  0  0  0
   38.1080   33.4700   50.2740 H   0  0  0  0  0  0  0  0  0  0  0  0
   39.9720   34.8830   49.6790 H   0  0  0  0  0  0  0  0  0  0  0  0
   41.2540   33.5660   45.3670 H   0  0  0  0  0  0  0  0  0  0  0  0
   39.9480   32.3860   44.8190 H   0  0  0  0  0  0  0  0  0  0  0  0
   36.5840   29.3160   49.4620 O   0  0  0  0  0  0  0  0  0  0  0  0
   34.5940   27.7060   49.7260 O   0  0  0  0  0  0  0  0  0  0  0  0
   34.9940   28.9930   49.0820 P   0  0  1  0  0  0  0  0  0  0  0  0
   33.9830   30.2030   49.8020 O   0  0  0  0  0  0  0  0  0  0  0  0
   34.4740   30.6070   50.5690 H   0  0  0  0  0  0  0  0  0  0  0  0
   34.8140   29.0120   47.4140 O   0  0  0  0  0  0  0  0  0  0  0  0
   32.9280   29.8030   46.2910 C   0  0  2  0  0  3  0  0  0  0  0  0
   33.5710   28.6220   46.9790 C   0  0  1  0  0  3  0  0  0  0  0  0
   33.5970   27.4700   46.2010 O   0  0  0  0  0  0  0  0  0  0  0  0
   32.2420   27.1110   46.0190 C   0  0  0  0  0  2  0  0  0  0  0  0
   31.7260   28.1300   44.9960 C   0  0  1  0  0  3  0  0  0  0  0  0
   31.5560   29.4170   45.8120 C   0  0  2  0  0  3  0  0  0  0  0  0
   33.6610   30.1800   45.1520 O   0  0  0  0  0  0  0  0  0  0  0  0
   34.1410   30.9970   45.3810 H   0  0  0  0  0  0  0  0  0  0  0  0
   32.7580   28.3720   44.0920 O   0  0  0  0  0  0  0  0  0  0  0  0
   32.3640   28.4480   43.2010 H   0  0  0  0  0  0  0  0  0  0  0  0
   30.9580   30.4070   45.0530 O   0  0  0  0  0  0  0  0  0  0  0  0
   31.6610   30.7910   44.4490 H   0  0  0  0  0  0  0  0  0  0  0  0
  1  4  1  1  0  0  0
  2  5  1  0  0  0  0
  2  3  1  0  0  0  0
  2  1  1  0  0  0  0
  3  7  1  6  0  0  0
  3  1  1  0  0  0  0
  3 19  1  0  0  0  0
  6  2  1  0  0  0  0
  8  1  1  0  0  0  0
  8  9  1  0  0  0  0
  9 15  1  0  0  0  0
 10  9  2  0  0  0  0
 10 16  1  0  0  0  0
 11 10  1  0  0  0  0
 12 13  1  0  0  0  0
 12 11  2  0  0  0  0
 13  8  2  0  0  0  0
 14 12  1  0  0  0  0
 17 14  1  0  0  0  0
 18 14  1  0  0  0  0
 21 19  1  0  0  0  0
 21 20  2  1  0  0  0
 21 22  1  0  0  0  0
 22 23  1  0  0  0  0
 24 21  1  0  0  0  0
 25 31  1  6  0  0  0
 25 26  1  0  0  0  0
 26 24  1  6  0  0  0
 27 26  1  0  0  0  0
 28 27  1  0  0  0  0
 29 33  1  6  0  0  0
 29 30  1  0  0  0  0
 29 28  1  0  0  0  0
 30 35  1  6  0  0  0
 30 25  1  0  0  0  0
 31 32  1  0  0  0  0
 34 33  1  0  0  0  0
 36 35  1  0  0  0  0
M  END
>  <minimizedAffinity>
-4.8757863

>  <minimizedRMSD>
0.150699422

$$$$
