
 OpenBabel03272509583D

 49 52  0  0  1  0  0  0  0  0999 V2000
   33.5210   27.5960   47.6020 C   0  0  0  0  0  0  0  0  0  0  0  0
   33.6820   27.5270   46.4920 H   0  0  0  0  0  0  0  0  0  0  0  0
   33.7660   26.5910   47.9910 H   0  0  0  0  0  0  0  0  0  0  0  0
   32.0760   27.9030   47.7660 C   0  0  0  0  0  0  0  0  0  0  0  0
   31.4380   27.4550   48.9180 C   0  0  0  0  0  0  0  0  0  0  0  0
   30.1120   27.6950   49.1470 C   0  0  0  0  0  0  0  0  0  0  0  0
   29.4120   28.3740   48.2440 N   0  0  0  0  0  0  0  0  0  0  0  0
   30.0390   28.8140   47.1140 C   0  0  0  0  0  0  0  0  0  0  0  0
   31.3390   28.5940   46.8620 N   0  0  0  0  0  0  0  0  0  0  0  0
   31.9690   26.8950   49.6860 H   0  0  0  0  0  0  0  0  0  0  0  0
   29.6300   27.3370   50.0530 H   0  0  0  0  0  0  0  0  0  0  0  0
   29.2120   29.5670   46.1400 C   0  0  0  0  0  0  0  0  0  0  0  0
   28.4720   30.2010   46.6540 H   0  0  0  0  0  0  0  0  0  0  0  0
   29.7940   30.2420   45.4840 H   0  0  0  0  0  0  0  0  0  0  0  0
   27.0790   29.1260   44.9100 C   0  0  2  0  0  3  0  0  0  0  0  0
   28.4150   28.5580   45.3410 C   0  0  1  0  0  3  0  0  0  0  0  0
   29.0810   28.1700   44.1820 O   0  0  0  0  0  0  0  0  0  0  0  0
   28.6230   26.9010   43.8390 C   0  0  0  0  0  2  0  0  0  0  0  0
   27.1480   26.7340   44.1110 C   0  0  1  0  0  3  0  0  0  0  0  0
   26.4080   28.0520   44.0680 C   0  0  1  0  0  3  0  0  0  0  0  0
   27.3360   30.2620   44.1320 O   0  0  0  0  0  0  0  0  0  0  0  0
   27.1210   30.0680   43.1760 H   0  0  0  0  0  0  0  0  0  0  0  0
   26.6250   25.9380   43.0880 O   0  0  0  0  0  0  0  0  0  0  0  0
   26.4550   24.9960   43.4010 H   0  0  0  0  0  0  0  0  0  0  0  0
   25.1600   27.8080   44.6470 O   0  0  0  0  0  0  0  0  0  0  0  0
   24.4510   27.7660   43.9610 H   0  0  0  0  0  0  0  0  0  0  0  0
   34.4080   28.6900   48.1080 C   0  0  0  0  0  0  0  0  0  0  0  0
   33.7720   29.6010   48.2360 H   0  0  0  0  0  0  0  0  0  0  0  0
   35.2010   28.9850   47.3680 H   0  0  0  0  0  0  0  0  0  0  0  0
   34.9640   28.3720   49.3710 O   0  0  0  0  0  0  0  0  0  0  0  0
   37.2900   30.1490   51.4840 C   0  0  0  0  0  0  0  0  0  0  0  0
   38.0340   30.8380   50.4930 C   0  0  0  0  0  0  0  0  0  0  0  0
   37.6860   30.6470   49.1700 C   0  0  0  0  0  0  0  0  0  0  0  0
   36.6450   29.8000   48.9310 N   0  0  0  0  0  0  0  0  0  0  0  0
   35.9500   29.1540   49.8660 C   0  0  0  0  0  0  0  0  0  0  0  0
   36.2850   29.3370   51.1630 N   0  0  0  0  0  0  0  0  0  0  0  0
   37.6140   30.3430   52.4970 H   0  0  0  0  0  0  0  0  0  0  0  0
   38.8510   31.5010   50.7050 H   0  0  0  0  0  0  0  0  0  0  0  0
   38.9150   33.2650   49.0120 F   0  0  0  0  0  0  0  0  0  0  0  0
   38.9130   32.4800   47.9400 C   0  0  0  0  0  0  0  0  0  0  0  0
   38.3380   31.2720   48.0360 C   0  0  0  0  0  0  0  0  0  0  0  0
   38.3860   30.5180   46.8530 C   0  0  0  0  0  0  0  0  0  0  0  0
   38.9740   30.9920   45.7100 C   0  0  0  0  0  0  0  0  0  0  0  0
   39.5500   32.2430   45.6680 C   0  0  0  0  0  0  0  0  0  0  0  0
   39.5090   32.9790   46.8030 C   0  0  0  0  0  0  0  0  0  0  0  0
   37.9600   29.5220   46.7900 H   0  0  0  0  0  0  0  0  0  0  0  0
   39.0000   30.3890   44.8020 H   0  0  0  0  0  0  0  0  0  0  0  0
   40.0180   32.6290   44.7710 H   0  0  0  0  0  0  0  0  0  0  0  0
   39.9580   33.9680   46.7950 H   0  0  0  0  0  0  0  0  0  0  0  0
  1  4  1  0  0  0  0
  1  3  1  0  0  0  0
  1 27  1  0  0  0  0
  2  1  1  0  0  0  0
  4  5  1  0  0  0  0
  5  6  2  0  0  0  0
  5 10  1  0  0  0  0
  6 11  1  0  0  0  0
  7  6  1  0  0  0  0
  8  7  2  0  0  0  0
  9  8  1  0  0  0  0
  9  4  2  0  0  0  0
 12 13  1  0  0  0  0
 12  8  1  0  0  0  0
 14 12  1  0  0  0  0
 15 21  1  6  0  0  0
 15 16  1  0  0  0  0
 16 12  1  6  0  0  0
 17 16  1  0  0  0  0
 18 19  1  0  0  0  0
 18 17  1  0  0  0  0
 19 23  1  6  0  0  0
 20 19  1  0  0  0  0
 20 25  1  1  0  0  0
 20 15  1  0  0  0  0
 22 21  1  0  0  0  0
 23 24  1  0  0  0  0
 26 25  1  0  0  0  0
 27 28  1  0  0  0  0
 27 30  1  0  0  0  0
 29 27  1  0  0  0  0
 30 35  1  0  0  0  0
 31 37  1  0  0  0  0
 32 38  1  0  0  0  0
 32 31  2  0  0  0  0
 33 32  1  0  0  0  0
 34 33  2  0  0  0  0
 34 35  1  0  0  0  0
 35 36  2  0  0  0  0
 36 31  1  0  0  0  0
 40 41  1  0  0  0  0
 40 39  1  0  0  0  0
 41 33  1  0  0  0  0
 42 41  2  0  0  0  0
 43 42  1  0  0  0  0
 44 43  2  0  0  0  0
 44 45  1  0  0  0  0
 45 40  2  0  0  0  0
 46 42  1  0  0  0  0
 47 43  1  0  0  0  0
 48 44  1  0  0  0  0
 49 45  1  0  0  0  0
M  END
>  <minimizedAffinity>
-6.87476826

>  <minimizedRMSD>
0.58450526

$$$$
