
 OpenBabel03262521323D

 46 49  0  0  1  0  0  0  0  0999 V2000
   37.4110   22.6960   33.3940 C   0  0  1  0  0  0  0  0  0  0  0  0
   38.3430   23.2780   32.3780 C   0  0  1  0  0  0  0  0  0  0  0  0
   38.4480   22.0950   31.3890 C   0  0  0  0  0  0  0  0  0  0  0  0
   37.1400   21.6260   31.3490 O   0  0  0  0  0  0  0  0  0  0  0  0
   36.5490   21.7950   32.5960 C   0  0  0  0  0  0  0  0  0  0  0  0
   36.8810   23.5300   33.8920 H   0  0  0  0  0  0  0  0  0  0  0  0
   39.3680   23.3130   32.8220 H   0  0  0  0  0  0  0  0  0  0  0  0
   38.7330   22.4680   30.3920 H   0  0  0  0  0  0  0  0  0  0  0  0
   39.1900   21.3570   31.7000 H   0  0  0  0  0  0  0  0  0  0  0  0
   35.5960   22.3490   32.3720 H   0  0  0  0  0  0  0  0  0  0  0  0
   36.2090   20.8660   33.0760 H   0  0  0  0  0  0  0  0  0  0  0  0
   37.9320   24.2550   31.6410 O   0  0  0  0  0  0  0  0  0  0  0  0
   37.1700   26.3470   31.0480 C   0  0  1  0  0  0  0  0  0  0  0  0
   37.5860   27.7140   31.5590 C   0  0  2  0  0  0  0  0  0  0  0  0
   38.1140   27.4930   32.8400 O   0  0  0  0  0  0  0  0  0  0  0  0
   38.7700   26.3010   32.6610 C   0  0  0  0  0  0  0  0  0  0  0  0
   37.4910   25.4480   32.1260 C   0  0  2  0  0  0  0  0  0  0  0  0
   37.9210   26.0980   30.1950 H   0  0  0  0  0  0  0  0  0  0  0  0
   38.3900   28.1140   30.9270 H   0  0  0  0  0  0  0  0  0  0  0  0
   39.0300   25.8310   33.5770 H   0  0  0  0  0  0  0  0  0  0  0  0
   39.5250   26.4300   31.9650 H   0  0  0  0  0  0  0  0  0  0  0  0
   37.1290   25.4110   33.1160 H   0  0  0  0  0  0  0  0  0  0  0  0
   35.4070   30.7070   30.9440 C   0  0  0  0  0  0  0  0  0  0  0  0
   36.5250   29.8290   30.8010 C   0  0  0  0  0  0  0  0  0  0  0  0
   36.4900   28.6870   31.6220 C   0  0  0  0  0  0  0  0  0  0  0  0
   35.4280   28.4660   32.4990 N   0  0  0  0  0  0  0  0  0  0  0  0
   34.4130   29.3480   32.5690 C   0  0  0  0  0  0  0  0  0  0  0  0
   34.4000   30.4510   31.8050 N   0  0  0  0  0  0  0  0  0  0  0  0
   35.3280   31.6190   30.3590 H   0  0  0  0  0  0  0  0  0  0  0  0
   37.3070   30.0800   30.1130 H   0  0  0  0  0  0  0  0  0  0  0  0
   33.6760   29.0290   33.2920 H   0  0  0  0  0  0  0  0  0  0  0  0
   35.9720   26.2840   30.4680 O   0  0  0  0  0  0  0  0  0  0  0  0
   35.3000   25.7700   30.9770 H   0  0  0  0  0  0  0  0  0  0  0  0
   38.1970   22.0760   34.3510 O   0  0  0  0  0  0  0  0  0  0  0  0
   38.1880   23.9470   35.7450 C   0  0  1  0  0  3  0  0  0  0  0  0
   39.0320   22.8760   35.0810 C   0  0  1  0  0  3  0  0  0  0  0  0
   39.7360   22.0890   35.9560 O   0  0  0  0  0  0  0  0  0  0  0  0
   40.0710   22.6570   37.1640 C   0  0  0  0  0  2  0  0  0  0  0  0
   38.9010   23.2130   37.9220 C   0  0  1  0  0  3  0  0  0  0  0  0
   37.6690   23.3540   37.0380 C   0  0  2  0  0  3  0  0  0  0  0  0
   38.9160   25.1120   35.9640 O   0  0  0  0  0  0  0  0  0  0  0  0
   38.3310   25.8890   36.0610 H   0  0  0  0  0  0  0  0  0  0  0  0
   38.6220   22.5430   39.1060 O   0  0  0  0  0  0  0  0  0  0  0  0
   37.6770   22.2030   39.0140 H   0  0  0  0  0  0  0  0  0  0  0  0
   37.1000   22.1210   36.7260 O   0  0  0  0  0  0  0  0  0  0  0  0
   37.7370   21.4160   37.0400 H   0  0  0  0  0  0  0  0  0  0  0  0
  1  6  1  1  0  0  0
  1 34  1  0  0  0  0
  2  7  1  1  0  0  0
  2  1  1  0  0  0  0
  3  9  1  0  0  0  0
  3  2  1  0  0  0  0
  4  3  1  0  0  0  0
  4  5  1  0  0  0  0
  5 11  1  0  0  0  0
  5  1  1  0  0  0  0
  8  3  1  0  0  0  0
 10  5  1  0  0  0  0
 12 17  1  0  0  0  0
 12  2  1  0  0  0  0
 13 18  1  6  0  0  0
 13 14  1  0  0  0  0
 13 17  1  0  0  0  0
 14 19  1  6  0  0  0
 14 25  1  0  0  0  0
 14 15  1  0  0  0  0
 16 15  1  0  0  0  0
 16 20  1  0  0  0  0
 17 16  1  0  0  0  0
 17 22  1  1  0  0  0
 21 16  1  0  0  0  0
 23 28  1  0  0  0  0
 24 23  2  0  0  0  0
 24 25  1  0  0  0  0
 25 26  2  0  0  0  0
 26 27  1  0  0  0  0
 27 31  1  0  0  0  0
 28 27  2  0  0  0  0
 29 23  1  0  0  0  0
 30 24  1  0  0  0  0
 32 33  1  0  0  0  0
 32 13  1  0  0  0  0
 35 41  1  1  0  0  0
 35 40  1  0  0  0  0
 36 34  1  1  0  0  0
 36 35  1  0  0  0  0
 36 37  1  0  0  0  0
 37 38  1  0  0  0  0
 38 39  1  0  0  0  0
 39 43  1  1  0  0  0
 40 45  1  6  0  0  0
 40 39  1  0  0  0  0
 41 42  1  0  0  0  0
 44 43  1  0  0  0  0
 45 46  1  0  0  0  0
M  END
>  <minimizedAffinity>
-6.1592927

$$$$

 OpenBabel03262521323D

 46 49  0  0  1  0  0  0  0  0999 V2000
   35.5620   30.4880   33.8040 C   0  0  1  0  0  0  0  0  0  0  0  0
   35.5520   28.9910   33.8270 C   0  0  1  0  0  0  0  0  0  0  0  0
   35.0140   28.6960   32.4080 C   0  0  0  0  0  0  0  0  0  0  0  0
   35.6690   29.6490   31.6390 O   0  0  0  0  0  0  0  0  0  0  0  0
   35.8420   30.8090   32.3860 C   0  0  0  0  0  0  0  0  0  0  0  0
   36.3260   30.8380   34.5230 H   0  0  0  0  0  0  0  0  0  0  0  0
   34.7100   28.6560   34.4800 H   0  0  0  0  0  0  0  0  0  0  0  0
   35.3330   27.6880   32.0930 H   0  0  0  0  0  0  0  0  0  0  0  0
   33.9240   28.7370   32.3610 H   0  0  0  0  0  0  0  0  0  0  0  0
   36.9420   31.0270   32.2990 H   0  0  0  0  0  0  0  0  0  0  0  0
   35.3600   31.7040   31.9670 H   0  0  0  0  0  0  0  0  0  0  0  0
   36.6780   28.3610   33.8630 O   0  0  0  0  0  0  0  0  0  0  0  0
   38.1210   26.9350   34.9550 C   0  0  1  0  0  0  0  0  0  0  0  0
   38.5390   25.5190   34.6060 C   0  0  2  0  0  0  0  0  0  0  0  0
   37.4970   25.0010   33.8210 O   0  0  0  0  0  0  0  0  0  0  0  0
   37.1430   26.1020   33.0810 C   0  0  0  0  0  0  0  0  0  0  0  0
   36.8320   27.0930   34.3340 C   0  0  2  0  0  0  0  0  0  0  0  0
   38.8460   27.6220   34.3570 H   0  0  0  0  0  0  0  0  0  0  0  0
   39.4460   25.5430   33.9880 H   0  0  0  0  0  0  0  0  0  0  0  0
   36.2030   25.9910   32.5990 H   0  0  0  0  0  0  0  0  0  0  0  0
   37.9440   26.3880   32.4930 H   0  0  0  0  0  0  0  0  0  0  0  0
   35.9290   26.5720   34.4940 H   0  0  0  0  0  0  0  0  0  0  0  0
   40.0770   23.1030   37.0320 C   0  0  0  0  0  0  0  0  0  0  0  0
   39.9540   23.9020   35.8540 C   0  0  0  0  0  0  0  0  0  0  0  0
   38.7710   24.6590   35.7710 C   0  0  0  0  0  0  0  0  0  0  0  0
   37.8130   24.6040   36.7840 N   0  0  0  0  0  0  0  0  0  0  0  0
   38.0100   23.8220   37.8620 C   0  0  0  0  0  0  0  0  0  0  0  0
   39.1230   23.0830   37.9860 N   0  0  0  0  0  0  0  0  0  0  0  0
   40.9490   22.4780   37.2010 H   0  0  0  0  0  0  0  0  0  0  0  0
   40.7320   23.8770   35.1170 H   0  0  0  0  0  0  0  0  0  0  0  0
   37.1780   23.8950   38.5470 H   0  0  0  0  0  0  0  0  0  0  0  0
   38.2930   27.2930   36.2270 O   0  0  0  0  0  0  0  0  0  0  0  0
   37.4530   27.4330   36.7270 H   0  0  0  0  0  0  0  0  0  0  0  0
   34.3280   30.9040   34.2770 O   0  0  0  0  0  0  0  0  0  0  0  0
   34.5610   32.2670   36.1560 C   0  0  1  0  0  3  0  0  0  0  0  0
   34.1520   30.9030   35.6330 C   0  0  1  0  0  3  0  0  0  0  0  0
   32.8510   30.5610   35.9030 O   0  0  0  0  0  0  0  0  0  0  0  0
   32.2840   31.1290   37.0220 C   0  0  0  0  0  2  0  0  0  0  0  0
   32.3560   32.6280   37.0470 C   0  0  1  0  0  3  0  0  0  0  0  0
   33.3490   33.1650   36.0260 C   0  0  2  0  0  3  0  0  0  0  0  0
   35.0160   32.1970   37.4690 O   0  0  0  0  0  0  0  0  0  0  0  0
   35.5840   32.9600   37.6930 H   0  0  0  0  0  0  0  0  0  0  0  0
   31.1200   33.2560   36.9570 O   0  0  0  0  0  0  0  0  0  0  0  0
   31.1640   33.8330   36.1320 H   0  0  0  0  0  0  0  0  0  0  0  0
   32.8820   33.0390   34.7190 O   0  0  0  0  0  0  0  0  0  0  0  0
   32.0540   32.4770   34.7560 H   0  0  0  0  0  0  0  0  0  0  0  0
  1  2  1  0  0  0  0
  1 34  1  0  0  0  0
  1  6  1  1  0  0  0
  2 12  1  0  0  0  0
  2  7  1  1  0  0  0
  3  2  1  0  0  0  0
  4  5  1  0  0  0  0
  4  3  1  0  0  0  0
  5  1  1  0  0  0  0
  8  3  1  0  0  0  0
  9  3  1  0  0  0  0
 10  5  1  0  0  0  0
 11  5  1  0  0  0  0
 12 17  1  0  0  0  0
 13 18  1  6  0  0  0
 13 32  1  0  0  0  0
 14 19  1  6  0  0  0
 14 13  1  0  0  0  0
 14 25  1  0  0  0  0
 15 14  1  0  0  0  0
 16 15  1  0  0  0  0
 16 17  1  0  0  0  0
 17 22  1  1  0  0  0
 17 13  1  0  0  0  0
 20 16  1  0  0  0  0
 21 16  1  0  0  0  0
 23 29  1  0  0  0  0
 23 28  1  0  0  0  0
 24 23  2  0  0  0  0
 25 24  1  0  0  0  0
 25 26  2  0  0  0  0
 26 27  1  0  0  0  0
 27 28  2  0  0  0  0
 27 31  1  0  0  0  0
 30 24  1  0  0  0  0
 32 33  1  0  0  0  0
 35 41  1  1  0  0  0
 36 34  1  6  0  0  0
 36 37  1  0  0  0  0
 36 35  1  0  0  0  0
 37 38  1  0  0  0  0
 38 39  1  0  0  0  0
 39 43  1  6  0  0  0
 40 45  1  6  0  0  0
 40 35  1  0  0  0  0
 40 39  1  0  0  0  0
 41 42  1  0  0  0  0
 44 43  1  0  0  0  0
 45 46  1  0  0  0  0
M  END
>  <minimizedAffinity>
-6.04142189

$$$$

 OpenBabel03262521323D

 46 49  0  0  1  0  0  0  0  0999 V2000
   37.3790   23.9230   32.8120 C   0  0  1  0  0  0  0  0  0  0  0  0
   38.3280   24.9360   32.2510 C   0  0  1  0  0  0  0  0  0  0  0  0
   38.9280   24.1300   31.0760 C   0  0  0  0  0  0  0  0  0  0  0  0
   37.8180   23.4620   30.5770 O   0  0  0  0  0  0  0  0  0  0  0  0
   36.9550   23.1500   31.6220 C   0  0  0  0  0  0  0  0  0  0  0  0
   36.5660   24.4640   33.3320 H   0  0  0  0  0  0  0  0  0  0  0  0
   39.1960   25.0280   32.9480 H   0  0  0  0  0  0  0  0  0  0  0  0
   39.3130   24.8230   30.3090 H   0  0  0  0  0  0  0  0  0  0  0  0
   39.7500   23.4840   31.3920 H   0  0  0  0  0  0  0  0  0  0  0  0
   35.9630   23.5600   31.2880 H   0  0  0  0  0  0  0  0  0  0  0  0
   36.7660   22.0750   31.7600 H   0  0  0  0  0  0  0  0  0  0  0  0
   37.8490   25.9910   31.6830 O   0  0  0  0  0  0  0  0  0  0  0  0
   36.7220   27.9920   31.4980 C   0  0  1  0  0  0  0  0  0  0  0  0
   36.2980   28.9720   32.5760 C   0  0  2  0  0  0  0  0  0  0  0  0
   36.2070   28.2190   33.7560 O   0  0  0  0  0  0  0  0  0  0  0  0
   37.2670   27.3590   33.6110 C   0  0  0  0  0  0  0  0  0  0  0  0
   36.8180   26.7280   32.1800 C   0  0  2  0  0  0  0  0  0  0  0  0
   37.8150   28.2890   31.2280 H   0  0  0  0  0  0  0  0  0  0  0  0
   37.0830   29.7270   32.7170 H   0  0  0  0  0  0  0  0  0  0  0  0
   37.2270   26.5360   34.2810 H   0  0  0  0  0  0  0  0  0  0  0  0
   38.1460   27.9050   33.5860 H   0  0  0  0  0  0  0  0  0  0  0  0
   36.0810   26.1660   32.6830 H   0  0  0  0  0  0  0  0  0  0  0  0
   32.6770   29.9560   32.6350 C   0  0  0  0  0  0  0  0  0  0  0  0
   33.8590   29.2290   32.9740 C   0  0  0  0  0  0  0  0  0  0  0  0
   35.0240   29.6460   32.3040 C   0  0  0  0  0  0  0  0  0  0  0  0
   34.9850   30.6930   31.3830 N   0  0  0  0  0  0  0  0  0  0  0  0
   33.8250   31.3240   31.1220 C   0  0  0  0  0  0  0  0  0  0  0  0
   32.6880   30.9630   31.7370 N   0  0  0  0  0  0  0  0  0  0  0  0
   31.7190   29.7200   33.0910 H   0  0  0  0  0  0  0  0  0  0  0  0
   33.8000   28.4290   33.6840 H   0  0  0  0  0  0  0  0  0  0  0  0
   33.9690   32.1050   30.3900 H   0  0  0  0  0  0  0  0  0  0  0  0
   36.0590   28.0750   30.3450 O   0  0  0  0  0  0  0  0  0  0  0  0
   35.4800   27.2990   30.1530 H   0  0  0  0  0  0  0  0  0  0  0  0
   38.0780   23.2070   33.7700 O   0  0  0  0  0  0  0  0  0  0  0  0
   38.0430   24.1320   35.9120 C   0  0  1  0  0  3  0  0  0  0  0  0
   38.8470   23.9270   34.6420 C   0  0  1  0  0  3  0  0  0  0  0  0
   40.0340   23.2640   34.8260 O   0  0  0  0  0  0  0  0  0  0  0  0
   40.6200   23.3810   36.0660 C   0  0  0  0  0  2  0  0  0  0  0  0
   39.7220   22.9910   37.2040 C   0  0  1  0  0  3  0  0  0  0  0  0
   38.2640   22.9040   36.7710 C   0  0  2  0  0  3  0  0  0  0  0  0
   38.4140   25.3000   36.5710 O   0  0  0  0  0  0  0  0  0  0  0  0
   37.7060   25.6150   37.1670 H   0  0  0  0  0  0  0  0  0  0  0  0
   40.1330   21.8540   37.8880 O   0  0  0  0  0  0  0  0  0  0  0  0
   39.3750   21.1950   37.8080 H   0  0  0  0  0  0  0  0  0  0  0  0
   38.0170   21.7910   35.9700 O   0  0  0  0  0  0  0  0  0  0  0  0
   38.9060   21.3900   35.7430 H   0  0  0  0  0  0  0  0  0  0  0  0
  1  6  1  1  0  0  0
  1 34  1  0  0  0  0
  2  1  1  0  0  0  0
  2  7  1  1  0  0  0
  3  9  1  0  0  0  0
  3  2  1  0  0  0  0
  4  3  1  0  0  0  0
  4  5  1  0  0  0  0
  5 11  1  0  0  0  0
  5  1  1  0  0  0  0
  8  3  1  0  0  0  0
 10  5  1  0  0  0  0
 12 17  1  0  0  0  0
 12  2  1  0  0  0  0
 13 18  1  6  0  0  0
 13 17  1  0  0  0  0
 13 14  1  0  0  0  0
 14 19  1  1  0  0  0
 14 15  1  0  0  0  0
 16 15  1  0  0  0  0
 16 20  1  0  0  0  0
 17 22  1  1  0  0  0
 17 16  1  0  0  0  0
 21 16  1  0  0  0  0
 23 24  1  0  0  0  0
 23 29  1  0  0  0  0
 24 30  1  0  0  0  0
 25 14  1  0  0  0  0
 25 24  2  0  0  0  0
 26 25  1  0  0  0  0
 27 26  2  0  0  0  0
 27 28  1  0  0  0  0
 28 23  2  0  0  0  0
 31 27  1  0  0  0  0
 32 13  1  0  0  0  0
 33 32  1  0  0  0  0
 35 41  1  1  0  0  0
 35 40  1  0  0  0  0
 36 34  1  6  0  0  0
 36 37  1  0  0  0  0
 36 35  1  0  0  0  0
 37 38  1  0  0  0  0
 38 39  1  0  0  0  0
 39 43  1  6  0  0  0
 40 45  1  6  0  0  0
 40 39  1  0  0  0  0
 41 42  1  0  0  0  0
 44 43  1  0  0  0  0
 46 45  1  0  0  0  0
M  END
>  <minimizedAffinity>
-5.82631445

$$$$

 OpenBabel03262521323D

 46 49  0  0  1  0  0  0  0  0999 V2000
   36.1710   28.9710   32.3540 C   0  0  1  0  0  0  0  0  0  0  0  0
   36.5140   27.5400   32.6330 C   0  0  1  0  0  0  0  0  0  0  0  0
   35.9960   26.8750   31.3370 C   0  0  0  0  0  0  0  0  0  0  0  0
   36.3750   27.7890   30.3630 O   0  0  0  0  0  0  0  0  0  0  0  0
   36.3050   29.0770   30.8840 C   0  0  0  0  0  0  0  0  0  0  0  0
   36.8640   29.6100   32.9340 H   0  0  0  0  0  0  0  0  0  0  0  0
   35.8030   27.1530   33.4040 H   0  0  0  0  0  0  0  0  0  0  0  0
   36.5270   25.9230   31.1720 H   0  0  0  0  0  0  0  0  0  0  0  0
   34.9260   26.6630   31.3780 H   0  0  0  0  0  0  0  0  0  0  0  0
   37.3180   29.5140   30.6660 H   0  0  0  0  0  0  0  0  0  0  0  0
   35.6080   29.7490   30.3610 H   0  0  0  0  0  0  0  0  0  0  0  0
   37.7560   27.1940   32.6780 O   0  0  0  0  0  0  0  0  0  0  0  0
   37.6980   25.6270   34.3660 C   0  0  1  0  0  0  0  0  0  0  0  0
   37.8410   25.8080   35.8660 C   0  0  2  0  0  0  0  0  0  0  0  0
   38.5630   26.9990   36.0350 O   0  0  0  0  0  0  0  0  0  0  0  0
   38.0490   27.7730   35.0250 C   0  0  0  0  0  0  0  0  0  0  0  0
   38.3890   26.7560   33.8010 C   0  0  2  0  0  0  0  0  0  0  0  0
   36.5700   25.8040   34.1440 H   0  0  0  0  0  0  0  0  0  0  0  0
   36.8500   25.9480   36.3170 H   0  0  0  0  0  0  0  0  0  0  0  0
   38.6400   28.6310   34.8210 H   0  0  0  0  0  0  0  0  0  0  0  0
   37.0400   27.9240   35.1930 H   0  0  0  0  0  0  0  0  0  0  0  0
   39.4020   27.0430   33.8720 H   0  0  0  0  0  0  0  0  0  0  0  0
   38.7860   23.1470   38.3390 C   0  0  0  0  0  0  0  0  0  0  0  0
   38.0440   24.2300   37.7750 C   0  0  0  0  0  0  0  0  0  0  0  0
   38.5260   24.6990   36.5390 C   0  0  0  0  0  0  0  0  0  0  0  0
   39.6500   24.1250   35.9430 N   0  0  0  0  0  0  0  0  0  0  0  0
   40.2900   23.1060   36.5460 C   0  0  0  0  0  0  0  0  0  0  0  0
   39.8670   22.6230   37.7240 N   0  0  0  0  0  0  0  0  0  0  0  0
   38.5030   22.7050   39.2900 H   0  0  0  0  0  0  0  0  0  0  0  0
   37.1990   24.6220   38.3050 H   0  0  0  0  0  0  0  0  0  0  0  0
   41.1340   22.7790   35.9560 H   0  0  0  0  0  0  0  0  0  0  0  0
   37.9410   24.4010   33.9040 O   0  0  0  0  0  0  0  0  0  0  0  0
   38.7570   24.3290   33.3530 H   0  0  0  0  0  0  0  0  0  0  0  0
   34.8970   29.1820   32.8540 O   0  0  0  0  0  0  0  0  0  0  0  0
   35.5110   30.8080   34.4120 C   0  0  1  0  0  3  0  0  0  0  0  0
   34.7960   29.4900   34.1830 C   0  0  1  0  0  3  0  0  0  0  0  0
   33.4680   29.5000   34.5280 O   0  0  0  0  0  0  0  0  0  0  0  0
   33.0930   30.3890   35.5110 C   0  0  0  0  0  2  0  0  0  0  0  0
   33.4810   31.8100   35.2270 C   0  0  1  0  0  3  0  0  0  0  0  0
   34.5110   31.9040   34.1090 C   0  0  2  0  0  3  0  0  0  0  0  0
   36.0090   30.9030   35.7070 O   0  0  0  0  0  0  0  0  0  0  0  0
   36.7360   31.5530   35.7650 H   0  0  0  0  0  0  0  0  0  0  0  0
   32.4040   32.6620   35.0190 O   0  0  0  0  0  0  0  0  0  0  0  0
   32.5260   33.0390   34.0930 H   0  0  0  0  0  0  0  0  0  0  0  0
   33.9600   31.6260   32.8600 O   0  0  0  0  0  0  0  0  0  0  0  0
   33.0350   31.2770   33.0180 H   0  0  0  0  0  0  0  0  0  0  0  0
  1  2  1  0  0  0  0
  1 34  1  0  0  0  0
  1  6  1  1  0  0  0
  2 12  1  0  0  0  0
  2  7  1  1  0  0  0
  3  9  1  0  0  0  0
  3  2  1  0  0  0  0
  4  5  1  0  0  0  0
  4  3  1  0  0  0  0
  5  1  1  0  0  0  0
  8  3  1  0  0  0  0
 10  5  1  0  0  0  0
 11  5  1  0  0  0  0
 12 17  1  0  0  0  0
 13 18  1  6  0  0  0
 13 14  1  0  0  0  0
 14 15  1  0  0  0  0
 14 19  1  1  0  0  0
 14 25  1  0  0  0  0
 16 21  1  0  0  0  0
 16 15  1  0  0  0  0
 17 22  1  6  0  0  0
 17 13  1  0  0  0  0
 17 16  1  0  0  0  0
 20 16  1  0  0  0  0
 23 29  1  0  0  0  0
 24 30  1  0  0  0  0
 24 23  1  0  0  0  0
 25 24  2  0  0  0  0
 26 25  1  0  0  0  0
 26 27  2  0  0  0  0
 27 28  1  0  0  0  0
 28 23  2  0  0  0  0
 31 27  1  0  0  0  0
 32 13  1  0  0  0  0
 33 32  1  0  0  0  0
 35 41  1  1  0  0  0
 36 34  1  6  0  0  0
 36 35  1  0  0  0  0
 36 37  1  0  0  0  0
 37 38  1  0  0  0  0
 39 43  1  6  0  0  0
 39 38  1  0  0  0  0
 40 45  1  6  0  0  0
 40 35  1  0  0  0  0
 40 39  1  0  0  0  0
 41 42  1  0  0  0  0
 44 43  1  0  0  0  0
 45 46  1  0  0  0  0
M  END
>  <minimizedAffinity>
-5.76904917

$$$$

 OpenBabel03262521323D

 46 49  0  0  1  0  0  0  0  0999 V2000
   38.7700   24.6950   33.0770 C   0  0  1  0  0  0  0  0  0  0  0  0
   38.5030   26.1650   33.1680 C   0  0  1  0  0  0  0  0  0  0  0  0
   39.8940   26.7220   32.7880 C   0  0  0  0  0  0  0  0  0  0  0  0
   40.2850   25.8700   31.7630 O   0  0  0  0  0  0  0  0  0  0  0  0
   39.7870   24.5940   32.0050 C   0  0  0  0  0  0  0  0  0  0  0  0
   37.8120   24.1840   32.8610 H   0  0  0  0  0  0  0  0  0  0  0  0
   38.4200   26.4400   34.2470 H   0  0  0  0  0  0  0  0  0  0  0  0
   39.7890   27.7460   32.3920 H   0  0  0  0  0  0  0  0  0  0  0  0
   40.5750   26.7570   33.6410 H   0  0  0  0  0  0  0  0  0  0  0  0
   39.2510   24.3260   31.0540 H   0  0  0  0  0  0  0  0  0  0  0  0
   40.5530   23.8120   32.1090 H   0  0  0  0  0  0  0  0  0  0  0  0
   37.7120   26.7100   32.3060 O   0  0  0  0  0  0  0  0  0  0  0  0
   36.4550   28.6100   31.9570 C   0  0  1  0  0  0  0  0  0  0  0  0
   35.7630   29.5150   32.9580 C   0  0  2  0  0  0  0  0  0  0  0  0
   35.5380   28.7210   34.0920 O   0  0  0  0  0  0  0  0  0  0  0  0
   36.6820   27.9620   34.1230 C   0  0  0  0  0  0  0  0  0  0  0  0
   36.5470   27.3380   32.6260 C   0  0  2  0  0  0  0  0  0  0  0  0
   37.5460   29.0090   31.8870 H   0  0  0  0  0  0  0  0  0  0  0  0
   36.4390   30.3310   33.2460 H   0  0  0  0  0  0  0  0  0  0  0  0
   36.6010   27.1190   34.7630 H   0  0  0  0  0  0  0  0  0  0  0  0
   37.4970   28.5830   34.2600 H   0  0  0  0  0  0  0  0  0  0  0  0
   35.7880   26.6990   32.9840 H   0  0  0  0  0  0  0  0  0  0  0  0
   32.1150   30.2560   32.4820 C   0  0  0  0  0  0  0  0  0  0  0  0
   33.2820   29.6340   33.0220 C   0  0  0  0  0  0  0  0  0  0  0  0
   34.4990   30.0830   32.4770 C   0  0  0  0  0  0  0  0  0  0  0  0
   34.5220   31.0620   31.4830 N   0  0  0  0  0  0  0  0  0  0  0  0
   33.3720   31.5950   31.0310 C   0  0  0  0  0  0  0  0  0  0  0  0
   32.1860   31.2010   31.5210 N   0  0  0  0  0  0  0  0  0  0  0  0
   31.1210   29.9880   32.8290 H   0  0  0  0  0  0  0  0  0  0  0  0
   33.1760   28.8800   33.7760 H   0  0  0  0  0  0  0  0  0  0  0  0
   33.5650   32.3350   30.2670 H   0  0  0  0  0  0  0  0  0  0  0  0
   35.9980   28.6700   30.7070 O   0  0  0  0  0  0  0  0  0  0  0  0
   35.5340   27.8520   30.4040 H   0  0  0  0  0  0  0  0  0  0  0  0
   39.1850   24.2840   34.3330 O   0  0  0  0  0  0  0  0  0  0  0  0
   38.5630   22.4310   35.6070 C   0  0  1  0  0  3  0  0  0  0  0  0
   38.2150   23.8480   35.1930 C   0  0  1  0  0  3  0  0  0  0  0  0
   38.1260   24.7360   36.2360 O   0  0  0  0  0  0  0  0  0  0  0  0
   37.7820   24.2140   37.4620 C   0  0  0  0  0  2  0  0  0  0  0  0
   38.6690   23.0930   37.9180 C   0  0  1  0  0  3  0  0  0  0  0  0
   39.5160   22.5410   36.7790 C   0  0  2  0  0  3  0  0  0  0  0  0
   37.4250   21.6980   35.9310 O   0  0  0  0  0  0  0  0  0  0  0  0
   37.5870   20.7360   35.8620 H   0  0  0  0  0  0  0  0  0  0  0  0
   39.4320   23.3930   39.0390 O   0  0  0  0  0  0  0  0  0  0  0  0
   40.3930   23.2820   38.7560 H   0  0  0  0  0  0  0  0  0  0  0  0
   40.5310   23.4190   36.4020 O   0  0  0  0  0  0  0  0  0  0  0  0
   40.3630   24.2820   36.8800 H   0  0  0  0  0  0  0  0  0  0  0  0
  1  6  1  6  0  0  0
  1  2  1  0  0  0  0
  1 34  1  0  0  0  0
  2  7  1  1  0  0  0
  3  2  1  0  0  0  0
  3  9  1  0  0  0  0
  4  5  1  0  0  0  0
  4  3  1  0  0  0  0
  5 11  1  0  0  0  0
  5  1  1  0  0  0  0
  8  3  1  0  0  0  0
 10  5  1  0  0  0  0
 12 17  1  0  0  0  0
 12  2  1  0  0  0  0
 13 18  1  6  0  0  0
 13 17  1  0  0  0  0
 13 14  1  0  0  0  0
 14 19  1  1  0  0  0
 14 15  1  0  0  0  0
 15 16  1  0  0  0  0
 16 21  1  0  0  0  0
 16 20  1  0  0  0  0
 17 22  1  6  0  0  0
 17 16  1  0  0  0  0
 23 29  1  0  0  0  0
 23 24  1  0  0  0  0
 24 30  1  0  0  0  0
 25 14  1  0  0  0  0
 25 24  2  0  0  0  0
 26 25  1  0  0  0  0
 27 26  2  0  0  0  0
 27 28  1  0  0  0  0
 28 23  2  0  0  0  0
 31 27  1  0  0  0  0
 32 13  1  0  0  0  0
 33 32  1  0  0  0  0
 35 41  1  1  0  0  0
 35 40  1  0  0  0  0
 36 34  1  6  0  0  0
 36 35  1  0  0  0  0
 36 37  1  0  0  0  0
 37 38  1  0  0  0  0
 38 39  1  0  0  0  0
 39 43  1  1  0  0  0
 40 45  1  6  0  0  0
 40 39  1  0  0  0  0
 42 41  1  0  0  0  0
 44 43  1  0  0  0  0
 45 46  1  0  0  0  0
M  END
>  <minimizedAffinity>
-5.72199297

$$$$

 OpenBabel03262521323D

 46 49  0  0  1  0  0  0  0  0999 V2000
   36.3030   29.6280   32.9080 C   0  0  1  0  0  0  0  0  0  0  0  0
   36.1020   28.1580   33.1120 C   0  0  1  0  0  0  0  0  0  0  0  0
   35.4520   27.7780   31.7620 C   0  0  0  0  0  0  0  0  0  0  0  0
   36.1810   28.5390   30.8570 O   0  0  0  0  0  0  0  0  0  0  0  0
   36.5430   29.7430   31.4510 C   0  0  0  0  0  0  0  0  0  0  0  0
   37.1450   29.9520   33.5470 H   0  0  0  0  0  0  0  0  0  0  0  0
   35.2600   28.0170   33.8330 H   0  0  0  0  0  0  0  0  0  0  0  0
   35.6190   26.7070   31.5580 H   0  0  0  0  0  0  0  0  0  0  0  0
   34.3750   27.9600   31.7530 H   0  0  0  0  0  0  0  0  0  0  0  0
   37.6560   29.7990   31.2950 H   0  0  0  0  0  0  0  0  0  0  0  0
   36.1580   30.6420   30.9460 H   0  0  0  0  0  0  0  0  0  0  0  0
   37.1370   27.3900   33.1790 O   0  0  0  0  0  0  0  0  0  0  0  0
   38.4200   26.2010   34.6780 C   0  0  1  0  0  0  0  0  0  0  0  0
   38.8100   24.7350   34.6750 C   0  0  2  0  0  0  0  0  0  0  0  0
   37.8220   24.0830   33.9210 O   0  0  0  0  0  0  0  0  0  0  0  0
   37.5790   25.0080   32.9360 C   0  0  0  0  0  0  0  0  0  0  0  0
   37.1980   26.2490   33.9180 C   0  0  2  0  0  0  0  0  0  0  0  0
   39.2210   26.7310   34.0210 H   0  0  0  0  0  0  0  0  0  0  0  0
   39.7690   24.6090   34.1550 H   0  0  0  0  0  0  0  0  0  0  0  0
   36.6810   24.8160   32.4020 H   0  0  0  0  0  0  0  0  0  0  0  0
   38.4400   25.1460   32.3800 H   0  0  0  0  0  0  0  0  0  0  0  0
   36.2640   25.7930   34.0980 H   0  0  0  0  0  0  0  0  0  0  0  0
   40.0340   22.8680   37.6920 C   0  0  0  0  0  0  0  0  0  0  0  0
   40.0480   23.4010   36.3670 C   0  0  0  0  0  0  0  0  0  0  0  0
   38.9040   24.1380   36.0120 C   0  0  0  0  0  0  0  0  0  0  0  0
   37.8540   24.3100   36.9140 N   0  0  0  0  0  0  0  0  0  0  0  0
   37.9230   23.7710   38.1460 C   0  0  0  0  0  0  0  0  0  0  0  0
   38.9950   23.0620   38.5310 N   0  0  0  0  0  0  0  0  0  0  0  0
   40.8660   22.2820   38.0740 H   0  0  0  0  0  0  0  0  0  0  0  0
   40.8910   23.2110   35.7320 H   0  0  0  0  0  0  0  0  0  0  0  0
   37.0330   23.9980   38.7150 H   0  0  0  0  0  0  0  0  0  0  0  0
   38.4930   26.8180   35.8560 O   0  0  0  0  0  0  0  0  0  0  0  0
   37.6180   27.0770   36.2340 H   0  0  0  0  0  0  0  0  0  0  0  0
   35.1620   30.2580   33.3750 O   0  0  0  0  0  0  0  0  0  0  0  0
   34.0050   32.1570   34.0830 C   0  0  1  0  0  3  0  0  0  0  0  0
   35.3370   31.4300   34.0560 C   0  0  1  0  0  3  0  0  0  0  0  0
   35.8480   31.1420   35.2960 O   0  0  0  0  0  0  0  0  0  0  0  0
   35.4780   31.9780   36.3260 C   0  0  0  0  0  2  0  0  0  0  0  0
   33.9930   32.1230   36.4890 C   0  0  1  0  0  3  0  0  0  0  0  0
   33.2360   31.6130   35.2690 C   0  0  2  0  0  3  0  0  0  0  0  0
   34.1740   33.5350   34.1620 O   0  0  0  0  0  0  0  0  0  0  0  0
   33.3840   34.0130   33.8420 H   0  0  0  0  0  0  0  0  0  0  0  0
   33.4980   31.5900   37.6720 O   0  0  0  0  0  0  0  0  0  0  0  0
   32.8290   30.8870   37.3990 H   0  0  0  0  0  0  0  0  0  0  0  0
   33.2630   30.2230   35.1750 O   0  0  0  0  0  0  0  0  0  0  0  0
   33.9120   29.8950   35.8620 H   0  0  0  0  0  0  0  0  0  0  0  0
  1  2  1  0  0  0  0
  1 34  1  0  0  0  0
  1  6  1  1  0  0  0
  2 12  1  0  0  0  0
  2  7  1  1  0  0  0
  3  2  1  0  0  0  0
  4  5  1  0  0  0  0
  4  3  1  0  0  0  0
  5  1  1  0  0  0  0
  8  3  1  0  0  0  0
  9  3  1  0  0  0  0
 10  5  1  0  0  0  0
 11  5  1  0  0  0  0
 12 17  1  0  0  0  0
 13 18  1  6  0  0  0
 13 32  1  0  0  0  0
 14 19  1  6  0  0  0
 14 13  1  0  0  0  0
 14 25  1  0  0  0  0
 15 14  1  0  0  0  0
 16 17  1  0  0  0  0
 16 15  1  0  0  0  0
 17 22  1  1  0  0  0
 17 13  1  0  0  0  0
 20 16  1  0  0  0  0
 21 16  1  0  0  0  0
 23 29  1  0  0  0  0
 23 28  1  0  0  0  0
 24 23  2  0  0  0  0
 25 24  1  0  0  0  0
 25 26  2  0  0  0  0
 26 27  1  0  0  0  0
 27 28  2  0  0  0  0
 27 31  1  0  0  0  0
 30 24  1  0  0  0  0
 32 33  1  0  0  0  0
 35 41  1  1  0  0  0
 35 40  1  0  0  0  0
 36 34  1  6  0  0  0
 36 35  1  0  0  0  0
 36 37  1  0  0  0  0
 37 38  1  0  0  0  0
 38 39  1  0  0  0  0
 39 43  1  1  0  0  0
 40 45  1  6  0  0  0
 40 39  1  0  0  0  0
 42 41  1  0  0  0  0
 44 43  1  0  0  0  0
 45 46  1  0  0  0  0
M  END
>  <minimizedAffinity>
-5.66981173

$$$$

 OpenBabel03262521323D

 46 49  0  0  1  0  0  0  0  0999 V2000
   35.9850   29.1640   32.3710 C   0  0  1  0  0  0  0  0  0  0  0  0
   36.1400   27.6750   32.3290 C   0  0  1  0  0  0  0  0  0  0  0  0
   36.2660   27.4540   30.8040 C   0  0  0  0  0  0  0  0  0  0  0  0
   37.0630   28.5230   30.4150 O   0  0  0  0  0  0  0  0  0  0  0  0
   36.7810   29.6270   31.2120 C   0  0  0  0  0  0  0  0  0  0  0  0
   36.3440   29.5190   33.3560 H   0  0  0  0  0  0  0  0  0  0  0  0
   35.1490   27.2130   32.5590 H   0  0  0  0  0  0  0  0  0  0  0  0
   36.8000   26.5090   30.6090 H   0  0  0  0  0  0  0  0  0  0  0  0
   35.2930   27.4020   30.3100 H   0  0  0  0  0  0  0  0  0  0  0  0
   37.7870   29.9480   31.5980 H   0  0  0  0  0  0  0  0  0  0  0  0
   36.4120   30.5080   30.6660 H   0  0  0  0  0  0  0  0  0  0  0  0
   37.2180   27.1470   32.8030 O   0  0  0  0  0  0  0  0  0  0  0  0
   38.4710   26.0290   34.3810 C   0  0  1  0  0  0  0  0  0  0  0  0
   38.7990   24.5520   34.4930 C   0  0  2  0  0  0  0  0  0  0  0  0
   37.7750   23.8840   33.8050 O   0  0  0  0  0  0  0  0  0  0  0  0
   37.5570   24.7360   32.7510 C   0  0  0  0  0  0  0  0  0  0  0  0
   37.2420   26.0670   33.6330 C   0  0  2  0  0  0  0  0  0  0  0  0
   39.2840   26.4690   33.6750 H   0  0  0  0  0  0  0  0  0  0  0  0
   39.7450   24.3440   33.9750 H   0  0  0  0  0  0  0  0  0  0  0  0
   36.6450   24.5400   32.2430 H   0  0  0  0  0  0  0  0  0  0  0  0
   38.4150   24.7920   32.1770 H   0  0  0  0  0  0  0  0  0  0  0  0
   36.2920   25.6680   33.8580 H   0  0  0  0  0  0  0  0  0  0  0  0
   39.9850   22.8830   37.6390 C   0  0  0  0  0  0  0  0  0  0  0  0
   40.0030   23.3060   36.2750 C   0  0  0  0  0  0  0  0  0  0  0  0
   38.8870   24.0620   35.8740 C   0  0  0  0  0  0  0  0  0  0  0  0
   37.8580   24.3530   36.7700 N   0  0  0  0  0  0  0  0  0  0  0  0
   37.9220   23.9130   38.0410 C   0  0  0  0  0  0  0  0  0  0  0  0
   38.9670   23.1900   38.4710 N   0  0  0  0  0  0  0  0  0  0  0  0
   40.7960   22.2940   38.0580 H   0  0  0  0  0  0  0  0  0  0  0  0
   40.8270   23.0280   35.6480 H   0  0  0  0  0  0  0  0  0  0  0  0
   37.0510   24.2240   38.5990 H   0  0  0  0  0  0  0  0  0  0  0  0
   38.5850   26.7360   35.5040 O   0  0  0  0  0  0  0  0  0  0  0  0
   37.7270   27.0620   35.8690 H   0  0  0  0  0  0  0  0  0  0  0  0
   34.6270   29.4270   32.3060 O   0  0  0  0  0  0  0  0  0  0  0  0
   32.8170   30.8430   32.7080 C   0  0  1  0  0  3  0  0  0  0  0  0
   34.1140   30.2740   33.2490 C   0  0  1  0  0  3  0  0  0  0  0  0
   33.9800   29.5840   34.4280 O   0  0  0  0  0  0  0  0  0  0  0  0
   32.9330   29.9520   35.2420 C   0  0  0  0  0  2  0  0  0  0  0  0
   31.5940   29.9210   34.5640 C   0  0  1  0  0  3  0  0  0  0  0  0
   31.7280   29.8470   33.0490 C   0  0  2  0  0  3  0  0  0  0  0  0
   32.5500   32.1030   33.2350 O   0  0  0  0  0  0  0  0  0  0  0  0
   31.9380   32.6090   32.6640 H   0  0  0  0  0  0  0  0  0  0  0  0
   30.7290   28.9560   35.0610 O   0  0  0  0  0  0  0  0  0  0  0  0
   30.5050   28.3580   34.2800 H   0  0  0  0  0  0  0  0  0  0  0  0
   32.1660   28.5960   32.6180 O   0  0  0  0  0  0  0  0  0  0  0  0
   32.4360   28.0840   33.4340 H   0  0  0  0  0  0  0  0  0  0  0  0
  1  6  1  1  0  0  0
  2  1  1  0  0  0  0
  2  7  1  1  0  0  0
  2 12  1  0  0  0  0
  3  2  1  0  0  0  0
  4  3  1  0  0  0  0
  4  5  1  0  0  0  0
  5 10  1  0  0  0  0
  5  1  1  0  0  0  0
  8  3  1  0  0  0  0
  9  3  1  0  0  0  0
 11  5  1  0  0  0  0
 12 17  1  0  0  0  0
 13 18  1  6  0  0  0
 13 14  1  0  0  0  0
 13 32  1  0  0  0  0
 14 19  1  6  0  0  0
 14 25  1  0  0  0  0
 15 14  1  0  0  0  0
 16 17  1  0  0  0  0
 16 15  1  0  0  0  0
 17 22  1  1  0  0  0
 17 13  1  0  0  0  0
 20 16  1  0  0  0  0
 21 16  1  0  0  0  0
 23 29  1  0  0  0  0
 23 28  1  0  0  0  0
 24 23  2  0  0  0  0
 25 24  1  0  0  0  0
 25 26  2  0  0  0  0
 26 27  1  0  0  0  0
 27 28  2  0  0  0  0
 27 31  1  0  0  0  0
 30 24  1  0  0  0  0
 32 33  1  0  0  0  0
 34  1  1  0  0  0  0
 35 40  1  0  0  0  0
 35 41  1  1  0  0  0
 35 36  1  0  0  0  0
 36 34  1  6  0  0  0
 36 37  1  0  0  0  0
 37 38  1  0  0  0  0
 39 43  1  1  0  0  0
 39 38  1  0  0  0  0
 40 45  1  1  0  0  0
 40 39  1  0  0  0  0
 42 41  1  0  0  0  0
 44 43  1  0  0  0  0
 45 46  1  0  0  0  0
M  END
>  <minimizedAffinity>
-5.6524415

$$$$

 OpenBabel03262521323D

 46 49  0  0  1  0  0  0  0  0999 V2000
   37.7840   24.8810   33.1620 C   0  0  1  0  0  0  0  0  0  0  0  0
   38.2920   26.2440   32.8060 C   0  0  1  0  0  0  0  0  0  0  0  0
   39.4110   25.8700   31.8070 C   0  0  0  0  0  0  0  0  0  0  0  0
   38.8290   24.8340   31.0860 O   0  0  0  0  0  0  0  0  0  0  0  0
   37.9930   24.1010   31.9210 C   0  0  0  0  0  0  0  0  0  0  0  0
   36.7300   24.9800   33.4800 H   0  0  0  0  0  0  0  0  0  0  0  0
   38.8700   26.6410   33.6770 H   0  0  0  0  0  0  0  0  0  0  0  0
   39.6050   26.7200   31.1320 H   0  0  0  0  0  0  0  0  0  0  0  0
   40.3460   25.6130   32.3070 H   0  0  0  0  0  0  0  0  0  0  0  0
   37.0140   24.0740   31.3690 H   0  0  0  0  0  0  0  0  0  0  0  0
   38.2660   23.0410   32.0320 H   0  0  0  0  0  0  0  0  0  0  0  0
   37.5310   27.0360   32.1290 O   0  0  0  0  0  0  0  0  0  0  0  0
   36.0490   28.0650   33.5620 C   0  0  1  0  0  0  0  0  0  0  0  0
   35.0870   29.2100   33.3090 C   0  0  2  0  0  0  0  0  0  0  0  0
   35.6220   29.9180   32.2220 O   0  0  0  0  0  0  0  0  0  0  0  0
   36.1140   28.8960   31.4490 C   0  0  0  0  0  0  0  0  0  0  0  0
   37.0860   28.2410   32.5790 C   0  0  2  0  0  0  0  0  0  0  0  0
   35.4720   27.1050   33.2440 H   0  0  0  0  0  0  0  0  0  0  0  0
   34.1110   28.8110   33.0040 H   0  0  0  0  0  0  0  0  0  0  0  0
   36.7830   29.2330   30.6960 H   0  0  0  0  0  0  0  0  0  0  0  0
   35.3310   28.2900   31.1490 H   0  0  0  0  0  0  0  0  0  0  0  0
   37.7590   29.0400   32.4320 H   0  0  0  0  0  0  0  0  0  0  0  0
   33.5670   31.1600   36.1320 C   0  0  0  0  0  0  0  0  0  0  0  0
   33.6270   30.2680   35.0180 C   0  0  0  0  0  0  0  0  0  0  0  0
   34.9060   30.1050   34.4570 C   0  0  0  0  0  0  0  0  0  0  0  0
   36.0090   30.7820   34.9780 N   0  0  0  0  0  0  0  0  0  0  0  0
   35.8630   31.6060   36.0330 C   0  0  0  0  0  0  0  0  0  0  0  0
   34.6620   31.7930   36.6020 N   0  0  0  0  0  0  0  0  0  0  0  0
   32.6300   31.3620   36.6440 H   0  0  0  0  0  0  0  0  0  0  0  0
   32.7290   29.7970   34.6720 H   0  0  0  0  0  0  0  0  0  0  0  0
   36.8080   32.0490   36.3090 H   0  0  0  0  0  0  0  0  0  0  0  0
   36.3750   27.8510   34.8370 O   0  0  0  0  0  0  0  0  0  0  0  0
   37.3150   28.0590   35.0570 H   0  0  0  0  0  0  0  0  0  0  0  0
   38.5110   24.4570   34.2620 O   0  0  0  0  0  0  0  0  0  0  0  0
   38.2430   22.4750   35.4630 C   0  0  1  0  0  3  0  0  0  0  0  0
   37.8040   23.9180   35.3010 C   0  0  1  0  0  3  0  0  0  0  0  0
   37.9990   24.6970   36.4130 O   0  0  0  0  0  0  0  0  0  0  0  0
   37.9920   24.0490   37.6280 C   0  0  0  0  0  2  0  0  0  0  0  0
   38.9630   22.9090   37.7170 C   0  0  1  0  0  3  0  0  0  0  0  0
   39.4740   22.4910   36.3450 C   0  0  2  0  0  3  0  0  0  0  0  0
   37.2300   21.6880   36.0020 O   0  0  0  0  0  0  0  0  0  0  0  0
   37.3630   20.7410   35.7960 H   0  0  0  0  0  0  0  0  0  0  0  0
   39.9980   23.1150   38.6200 O   0  0  0  0  0  0  0  0  0  0  0  0
   40.8490   23.0550   38.0830 H   0  0  0  0  0  0  0  0  0  0  0  0
   40.3560   23.4240   35.8030 O   0  0  0  0  0  0  0  0  0  0  0  0
   40.3250   24.2330   36.3920 H   0  0  0  0  0  0  0  0  0  0  0  0
  1  6  1  1  0  0  0
  1 34  1  0  0  0  0
  2  1  1  0  0  0  0
  2  7  1  1  0  0  0
  3  9  1  0  0  0  0
  3  2  1  0  0  0  0
  4  3  1  0  0  0  0
  4  5  1  0  0  0  0
  5 11  1  0  0  0  0
  5  1  1  0  0  0  0
  8  3  1  0  0  0  0
 10  5  1  0  0  0  0
 12 17  1  0  0  0  0
 12  2  1  0  0  0  0
 13 18  1  6  0  0  0
 13 32  1  0  0  0  0
 14 19  1  6  0  0  0
 14 13  1  0  0  0  0
 14 25  1  0  0  0  0
 15 14  1  0  0  0  0
 16 15  1  0  0  0  0
 16 17  1  0  0  0  0
 17 22  1  1  0  0  0
 17 13  1  0  0  0  0
 20 16  1  0  0  0  0
 21 16  1  0  0  0  0
 23 28  1  0  0  0  0
 23 29  1  0  0  0  0
 24 23  2  0  0  0  0
 25 26  2  0  0  0  0
 25 24  1  0  0  0  0
 26 27  1  0  0  0  0
 27 31  1  0  0  0  0
 27 28  2  0  0  0  0
 30 24  1  0  0  0  0
 32 33  1  0  0  0  0
 35 41  1  1  0  0  0
 35 40  1  0  0  0  0
 36 34  1  6  0  0  0
 36 35  1  0  0  0  0
 36 37  1  0  0  0  0
 37 38  1  0  0  0  0
 38 39  1  0  0  0  0
 39 43  1  1  0  0  0
 40 45  1  6  0  0  0
 40 39  1  0  0  0  0
 42 41  1  0  0  0  0
 44 43  1  0  0  0  0
 45 46  1  0  0  0  0
M  END
>  <minimizedAffinity>
-5.6446147

$$$$

 OpenBabel03262521323D

 46 49  0  0  1  0  0  0  0  0999 V2000
   37.0230   22.2830   33.1730 C   0  0  1  0  0  0  0  0  0  0  0  0
   37.3380   22.8240   31.8130 C   0  0  1  0  0  0  0  0  0  0  0  0
   37.1710   21.5450   30.9610 C   0  0  0  0  0  0  0  0  0  0  0  0
   36.0520   20.9520   31.5330 O   0  0  0  0  0  0  0  0  0  0  0  0
   36.0360   21.2130   32.8990 C   0  0  0  0  0  0  0  0  0  0  0  0
   36.6480   23.1160   33.7970 H   0  0  0  0  0  0  0  0  0  0  0  0
   38.4380   23.0110   31.7560 H   0  0  0  0  0  0  0  0  0  0  0  0
   36.9450   21.8210   29.9180 H   0  0  0  0  0  0  0  0  0  0  0  0
   38.0700   20.9260   30.9610 H   0  0  0  0  0  0  0  0  0  0  0  0
   35.0130   21.6420   33.0820 H   0  0  0  0  0  0  0  0  0  0  0  0
   36.0690   20.3200   33.5410 H   0  0  0  0  0  0  0  0  0  0  0  0
   36.5180   23.6600   31.2700 O   0  0  0  0  0  0  0  0  0  0  0  0
   38.1880   25.2020   30.8910 C   0  0  1  0  0  0  0  0  0  0  0  0
   38.4730   26.5180   31.5890 C   0  0  2  0  0  0  0  0  0  0  0  0
   37.2470   26.9280   32.1350 O   0  0  0  0  0  0  0  0  0  0  0  0
   36.7160   25.7280   32.5400 C   0  0  0  0  0  0  0  0  0  0  0  0
   36.7790   24.9850   31.0940 C   0  0  2  0  0  0  0  0  0  0  0  0
   38.7270   24.3940   31.5320 H   0  0  0  0  0  0  0  0  0  0  0  0
   39.1730   26.3530   32.4180 H   0  0  0  0  0  0  0  0  0  0  0  0
   35.6780   25.7880   32.7560 H   0  0  0  0  0  0  0  0  0  0  0  0
   37.3270   25.3150   33.2650 H   0  0  0  0  0  0  0  0  0  0  0  0
   35.9490   25.5580   30.7860 H   0  0  0  0  0  0  0  0  0  0  0  0
   38.7780   29.5190   29.3550 C   0  0  0  0  0  0  0  0  0  0  0  0
   38.1500   28.5550   30.2030 C   0  0  0  0  0  0  0  0  0  0  0  0
   39.0080   27.5600   30.7050 C   0  0  0  0  0  0  0  0  0  0  0  0
   40.3640   27.5480   30.3760 N   0  0  0  0  0  0  0  0  0  0  0  0
   40.8730   28.4980   29.5680 C   0  0  0  0  0  0  0  0  0  0  0  0
   40.0940   29.4680   29.0650 N   0  0  0  0  0  0  0  0  0  0  0  0
   38.2120   30.3330   28.9110 H   0  0  0  0  0  0  0  0  0  0  0  0
   37.0980   28.6290   30.3960 H   0  0  0  0  0  0  0  0  0  0  0  0
   41.9310   28.3440   29.4150 H   0  0  0  0  0  0  0  0  0  0  0  0
   38.7110   25.0660   29.6730 O   0  0  0  0  0  0  0  0  0  0  0  0
   38.0450   25.0470   28.9440 H   0  0  0  0  0  0  0  0  0  0  0  0
   38.2220   21.8610   33.7230 O   0  0  0  0  0  0  0  0  0  0  0  0
   38.1990   23.6480   35.2230 C   0  0  1  0  0  3  0  0  0  0  0  0
   39.0310   22.8250   34.2590 C   0  0  1  0  0  3  0  0  0  0  0  0
   40.1180   22.2130   34.8310 O   0  0  0  0  0  0  0  0  0  0  0  0
   40.6530   22.8220   35.9430 C   0  0  0  0  0  2  0  0  0  0  0  0
   39.6610   23.0670   37.0420 C   0  0  1  0  0  3  0  0  0  0  0  0
   38.2260   22.9240   36.5520 C   0  0  2  0  0  3  0  0  0  0  0  0
   38.6780   24.9500   35.3320 O   0  0  0  0  0  0  0  0  0  0  0  0
   37.9870   25.5610   35.6550 H   0  0  0  0  0  0  0  0  0  0  0  0
   39.8970   22.3270   38.1940 O   0  0  0  0  0  0  0  0  0  0  0  0
   39.0680   21.7720   38.3390 H   0  0  0  0  0  0  0  0  0  0  0  0
   37.8830   21.5960   36.3040 O   0  0  0  0  0  0  0  0  0  0  0  0
   38.7260   21.0590   36.3660 H   0  0  0  0  0  0  0  0  0  0  0  0
  1 34  1  0  0  0  0
  1  6  1  1  0  0  0
  2  7  1  6  0  0  0
  2  1  1  0  0  0  0
  3  4  1  0  0  0  0
  3  2  1  0  0  0  0
  4  5  1  0  0  0  0
  5 10  1  0  0  0  0
  5  1  1  0  0  0  0
  5 11  1  0  0  0  0
  8  3  1  0  0  0  0
  9  3  1  0  0  0  0
 12  2  1  0  0  0  0
 13 17  1  0  0  0  0
 13 18  1  1  0  0  0
 13 14  1  0  0  0  0
 14 15  1  0  0  0  0
 14 19  1  1  0  0  0
 15 16  1  0  0  0  0
 16 20  1  0  0  0  0
 16 21  1  0  0  0  0
 17 22  1  6  0  0  0
 17 12  1  0  0  0  0
 17 16  1  0  0  0  0
 23 24  1  0  0  0  0
 24 30  1  0  0  0  0
 24 25  2  0  0  0  0
 25 14  1  0  0  0  0
 26 25  1  0  0  0  0
 27 26  2  0  0  0  0
 28 23  2  0  0  0  0
 28 27  1  0  0  0  0
 29 23  1  0  0  0  0
 31 27  1  0  0  0  0
 32 13  1  0  0  0  0
 33 32  1  0  0  0  0
 35 41  1  1  0  0  0
 35 40  1  0  0  0  0
 36 34  1  1  0  0  0
 36 37  1  0  0  0  0
 36 35  1  0  0  0  0
 37 38  1  0  0  0  0
 38 39  1  0  0  0  0
 39 43  1  1  0  0  0
 40 45  1  6  0  0  0
 40 39  1  0  0  0  0
 41 42  1  0  0  0  0
 43 44  1  0  0  0  0
 45 46  1  0  0  0  0
M  END
>  <minimizedAffinity>
-5.49578285

$$$$
