
 OpenBabel03272506433D

 35 37  0  0  1  0  0  0  0  0999 V2000
   32.2360   28.1790   47.5890 C   0  0  2  0  0  0  0  0  0  0  0  0
   33.5270   28.1380   48.3890 C   0  0  1  0  0  0  0  0  0  0  0  0
   34.0640   26.8870   48.2500 O   0  0  0  0  0  0  0  0  0  0  0  0
   33.3840   26.1920   47.2620 C   0  0  0  0  0  0  0  0  0  0  0  0
   32.6150   27.2500   46.4610 C   0  0  1  0  0  0  0  0  0  0  0  0
   31.4360   27.7600   48.2270 H   0  0  0  0  0  0  0  0  0  0  0  0
   33.2700   28.4300   49.4170 H   0  0  0  0  0  0  0  0  0  0  0  0
   34.1580   25.6940   46.6350 H   0  0  0  0  0  0  0  0  0  0  0  0
   32.6280   25.5000   47.6640 H   0  0  0  0  0  0  0  0  0  0  0  0
   33.3110   27.7660   45.8040 H   0  0  0  0  0  0  0  0  0  0  0  0
   31.9560   29.4640   47.1570 O   0  0  0  0  0  0  0  0  0  0  0  0
   31.3780   29.4850   46.3650 H   0  0  0  0  0  0  0  0  0  0  0  0
   34.6480   29.3380   47.6040 S   0  0  0  0  0  0  0  0  0  0  0  0
   37.2780   29.3060   50.5710 C   0  0  0  0  0  0  0  0  0  0  0  0
   37.7430   30.6190   50.6630 C   0  0  0  0  0  0  0  0  0  0  0  0
   37.2140   31.5580   49.7570 C   0  0  0  0  0  0  0  0  0  0  0  0
   36.2920   31.1460   48.8560 N   0  0  0  0  0  0  0  0  0  0  0  0
   35.8660   29.8680   48.7990 C   0  0  0  0  0  0  0  0  0  0  0  0
   36.3470   28.9470   49.6440 N   0  0  0  0  0  0  0  0  0  0  0  0
   37.6190   28.5050   51.2200 H   0  0  0  0  0  0  0  0  0  0  0  0
   38.4750   30.8650   51.4040 H   0  0  0  0  0  0  0  0  0  0  0  0
   37.5680   32.5780   49.8200 H   0  0  0  0  0  0  0  0  0  0  0  0
   31.5180   26.6680   45.8550 O   0  0  0  0  0  0  0  0  0  0  0  0
   30.2650   28.1310   44.3980 C   0  0  2  0  0  3  0  0  0  0  0  0
   31.4070   27.1810   44.5630 C   0  0  2  0  0  3  0  0  0  0  0  0
   31.4230   26.1470   43.6420 O   0  0  0  0  0  0  0  0  0  0  0  0
   30.2010   25.4980   43.5280 C   0  0  0  0  0  2  0  0  0  0  0  0
   29.3080   26.4900   42.8110 C   0  0  1  0  0  3  0  0  0  0  0  0
   29.0210   27.5820   43.8030 C   0  0  1  0  0  3  0  0  0  0  0  0
   30.6370   29.2680   43.6740 O   0  0  0  0  0  0  0  0  0  0  0  0
   31.1590   28.9940   42.9010 H   0  0  0  0  0  0  0  0  0  0  0  0
   30.0780   27.0200   41.7570 O   0  0  0  0  0  0  0  0  0  0  0  0
   29.5090   27.4990   41.1070 H   0  0  0  0  0  0  0  0  0  0  0  0
   28.1800   27.0470   44.7980 O   0  0  0  0  0  0  0  0  0  0  0  0
   27.6150   27.8040   45.1270 H   0  0  0  0  0  0  0  0  0  0  0  0
  1  6  1  1  0  0  0
  1  2  1  0  0  0  0
  2  7  1  1  0  0  0
  3  2  1  0  0  0  0
  4  9  1  0  0  0  0
  4  3  1  0  0  0  0
  5 10  1  6  0  0  0
  5  4  1  0  0  0  0
  5  1  1  0  0  0  0
  8  4  1  0  0  0  0
 11  1  1  0  0  0  0
 12 11  1  0  0  0  0
 13  2  1  0  0  0  0
 13 18  1  0  0  0  0
 14 15  1  0  0  0  0
 14 20  1  0  0  0  0
 15 21  1  0  0  0  0
 16 22  1  0  0  0  0
 16 15  2  0  0  0  0
 17 16  1  0  0  0  0
 18 17  2  0  0  0  0
 18 19  1  0  0  0  0
 19 14  2  0  0  0  0
 23  5  1  0  0  0  0
 24 30  1  6  0  0  0
 24 25  1  0  0  0  0
 25 23  1  1  0  0  0
 26 25  1  0  0  0  0
 27 26  1  0  0  0  0
 28 32  1  6  0  0  0
 28 27  1  0  0  0  0
 28 29  1  0  0  0  0
 29 24  1  0  0  0  0
 29 34  1  1  0  0  0
 31 30  1  0  0  0  0
 33 32  1  0  0  0  0
 34 35  1  0  0  0  0
M  END
>  <minimizedAffinity>
-3.91482568

>  <minimizedRMSD>
1.33789361

$$$$
