
 OpenBabel03272506433D

 35 37  0  0  1  0  0  0  0  0999 V2000
   32.4210   28.3580   47.5590 C   0  0  2  0  0  0  0  0  0  0  0  0
   33.6750   28.4280   48.4150 C   0  0  1  0  0  0  0  0  0  0  0  0
   34.2270   27.1760   48.4490 O   0  0  0  0  0  0  0  0  0  0  0  0
   33.5970   26.3600   47.5220 C   0  0  0  0  0  0  0  0  0  0  0  0
   32.8570   27.3070   46.5680 C   0  0  1  0  0  0  0  0  0  0  0  0
   31.5970   28.0070   48.2070 H   0  0  0  0  0  0  0  0  0  0  0  0
   33.3700   28.8360   49.3890 H   0  0  0  0  0  0  0  0  0  0  0  0
   34.4010   25.8010   46.9930 H   0  0  0  0  0  0  0  0  0  0  0  0
   32.8290   25.7110   47.9690 H   0  0  0  0  0  0  0  0  0  0  0  0
   33.5790   27.7500   45.8850 H   0  0  0  0  0  0  0  0  0  0  0  0
   32.1520   29.5790   46.9660 O   0  0  0  0  0  0  0  0  0  0  0  0
   31.6100   29.4980   46.1530 H   0  0  0  0  0  0  0  0  0  0  0  0
   34.8220   29.5400   47.5420 S   0  0  0  0  0  0  0  0  0  0  0  0
   37.5040   29.5300   50.4630 C   0  0  0  0  0  0  0  0  0  0  0  0
   38.0720   30.8050   50.4440 C   0  0  0  0  0  0  0  0  0  0  0  0
   37.5970   31.7100   49.4740 C   0  0  0  0  0  0  0  0  0  0  0  0
   36.6280   31.3040   48.6230 N   0  0  0  0  0  0  0  0  0  0  0  0
   36.1030   30.0630   48.6730 C   0  0  0  0  0  0  0  0  0  0  0  0
   36.5290   29.1750   49.5810 N   0  0  0  0  0  0  0  0  0  0  0  0
   37.7950   28.7570   51.1680 H   0  0  0  0  0  0  0  0  0  0  0  0
   38.8350   31.0490   51.1520 H   0  0  0  0  0  0  0  0  0  0  0  0
   38.0320   32.7000   49.4520 H   0  0  0  0  0  0  0  0  0  0  0  0
   31.7920   26.6430   45.9880 O   0  0  0  0  0  0  0  0  0  0  0  0
   30.4740   26.8580   43.9760 C   0  0  2  0  0  3  0  0  0  0  0  0
   31.8260   26.8770   44.6130 C   0  0  2  0  0  3  0  0  0  0  0  0
   32.7490   26.0370   44.0140 O   0  0  0  0  0  0  0  0  0  0  0  0
   32.2700   24.7490   43.8190 C   0  0  0  0  0  2  0  0  0  0  0  0
   31.2550   24.8840   42.7010 C   0  0  1  0  0  3  0  0  0  0  0  0
   30.0750   25.6000   43.2980 C   0  0  1  0  0  3  0  0  0  0  0  0
   30.3100   27.9150   43.0770 O   0  0  0  0  0  0  0  0  0  0  0  0
   31.1070   27.9910   42.5270 H   0  0  0  0  0  0  0  0  0  0  0  0
   31.8510   25.7130   41.7310 O   0  0  0  0  0  0  0  0  0  0  0  0
   31.3580   25.6700   40.8750 H   0  0  0  0  0  0  0  0  0  0  0  0
   29.4500   24.7170   44.1990 O   0  0  0  0  0  0  0  0  0  0  0  0
   28.4780   24.9530   44.1970 H   0  0  0  0  0  0  0  0  0  0  0  0
  1  6  1  1  0  0  0
  1  2  1  0  0  0  0
  2  3  1  0  0  0  0
  2  7  1  1  0  0  0
  4  9  1  0  0  0  0
  4  3  1  0  0  0  0
  5 10  1  6  0  0  0
  5  4  1  0  0  0  0
  5  1  1  0  0  0  0
  8  4  1  0  0  0  0
 11  1  1  0  0  0  0
 12 11  1  0  0  0  0
 13  2  1  0  0  0  0
 13 18  1  0  0  0  0
 14 20  1  0  0  0  0
 15 14  1  0  0  0  0
 15 21  1  0  0  0  0
 16 15  2  0  0  0  0
 17 18  2  0  0  0  0
 17 16  1  0  0  0  0
 18 19  1  0  0  0  0
 19 14  2  0  0  0  0
 22 16  1  0  0  0  0
 23  5  1  0  0  0  0
 24 30  1  6  0  0  0
 24 25  1  0  0  0  0
 25 23  1  1  0  0  0
 26 25  1  0  0  0  0
 27 26  1  0  0  0  0
 28 32  1  6  0  0  0
 28 29  1  0  0  0  0
 28 27  1  0  0  0  0
 29 24  1  0  0  0  0
 29 34  1  1  0  0  0
 31 30  1  0  0  0  0
 33 32  1  0  0  0  0
 35 34  1  0  0  0  0
M  END
>  <minimizedAffinity>
-3.81230736

>  <minimizedRMSD>
0.391806215

$$$$
