
 OpenBabel03272506433D

 35 37  0  0  1  0  0  0  0  0999 V2000
   32.2300   28.1640   47.6010 C   0  0  2  0  0  0  0  0  0  0  0  0
   33.5350   28.1330   48.3790 C   0  0  1  0  0  0  0  0  0  0  0  0
   34.0720   26.8810   48.2440 O   0  0  0  0  0  0  0  0  0  0  0  0
   33.3760   26.1750   47.2750 C   0  0  0  0  0  0  0  0  0  0  0  0
   32.5900   27.2240   46.4770 C   0  0  1  0  0  0  0  0  0  0  0  0
   31.4430   27.7500   48.2580 H   0  0  0  0  0  0  0  0  0  0  0  0
   33.2960   28.4350   49.4090 H   0  0  0  0  0  0  0  0  0  0  0  0
   34.1390   25.6720   46.6400 H   0  0  0  0  0  0  0  0  0  0  0  0
   32.6280   25.4860   47.6970 H   0  0  0  0  0  0  0  0  0  0  0  0
   33.2740   27.7340   45.8020 H   0  0  0  0  0  0  0  0  0  0  0  0
   31.9400   29.4440   47.1620 O   0  0  0  0  0  0  0  0  0  0  0  0
   31.3480   29.4550   46.3800 H   0  0  0  0  0  0  0  0  0  0  0  0
   34.6400   29.3260   47.5620 S   0  0  0  0  0  0  0  0  0  0  0  0
   37.2330   29.3670   50.5610 C   0  0  0  0  0  0  0  0  0  0  0  0
   37.7780   30.6520   50.5570 C   0  0  0  0  0  0  0  0  0  0  0  0
   37.3170   31.5470   49.5730 C   0  0  0  0  0  0  0  0  0  0  0  0
   36.3810   31.1230   48.6930 N   0  0  0  0  0  0  0  0  0  0  0  0
   35.8770   29.8730   48.7290 C   0  0  0  0  0  0  0  0  0  0  0  0
   36.2910   28.9930   49.6510 N   0  0  0  0  0  0  0  0  0  0  0  0
   37.5170   28.6000   51.2760 H   0  0  0  0  0  0  0  0  0  0  0  0
   38.5160   30.9100   51.2880 H   0  0  0  0  0  0  0  0  0  0  0  0
   37.7340   32.5450   49.5620 H   0  0  0  0  0  0  0  0  0  0  0  0
   31.4830   26.6330   45.8970 O   0  0  0  0  0  0  0  0  0  0  0  0
   31.8410   28.0050   43.9420 C   0  0  2  0  0  3  0  0  0  0  0  0
   31.6600   26.6360   44.5140 C   0  0  2  0  0  3  0  0  0  0  0  0
   30.6580   25.8960   43.9080 O   0  0  0  0  0  0  0  0  0  0  0  0
   29.4610   26.5880   43.7940 C   0  0  0  0  0  2  0  0  0  0  0  0
   29.7220   27.6260   42.7210 C   0  0  1  0  0  3  0  0  0  0  0  0
   30.6430   28.6390   43.3390 C   0  0  1  0  0  3  0  0  0  0  0  0
   32.8780   28.0430   43.0060 O   0  0  0  0  0  0  0  0  0  0  0  0
   32.8020   27.2750   42.4160 H   0  0  0  0  0  0  0  0  0  0  0  0
   30.4050   26.9560   41.6870 O   0  0  0  0  0  0  0  0  0  0  0  0
   30.4140   27.4950   40.8580 H   0  0  0  0  0  0  0  0  0  0  0  0
   29.9070   29.3510   44.3060 O   0  0  0  0  0  0  0  0  0  0  0  0
   30.3010   30.2710   44.3410 H   0  0  0  0  0  0  0  0  0  0  0  0
  1  6  1  1  0  0  0
  1  2  1  0  0  0  0
  2  7  1  1  0  0  0
  3  2  1  0  0  0  0
  4  9  1  0  0  0  0
  4  3  1  0  0  0  0
  5 10  1  6  0  0  0
  5  4  1  0  0  0  0
  5  1  1  0  0  0  0
  8  4  1  0  0  0  0
 11  1  1  0  0  0  0
 12 11  1  0  0  0  0
 13  2  1  0  0  0  0
 13 18  1  0  0  0  0
 14 20  1  0  0  0  0
 15 14  1  0  0  0  0
 15 21  1  0  0  0  0
 16 15  2  0  0  0  0
 17 18  2  0  0  0  0
 17 16  1  0  0  0  0
 18 19  1  0  0  0  0
 19 14  2  0  0  0  0
 22 16  1  0  0  0  0
 23  5  1  0  0  0  0
 24 30  1  6  0  0  0
 24 25  1  0  0  0  0
 25 23  1  1  0  0  0
 26 25  1  0  0  0  0
 27 26  1  0  0  0  0
 28 32  1  6  0  0  0
 28 29  1  0  0  0  0
 28 27  1  0  0  0  0
 29 24  1  0  0  0  0
 29 34  1  1  0  0  0
 31 30  1  0  0  0  0
 33 32  1  0  0  0  0
 34 35  1  0  0  0  0
M  END
>  <minimizedAffinity>
-3.84332895

>  <minimizedRMSD>
0.38885802

$$$$
