
 OpenBabel03272509573D

 49 52  0  0  1  0  0  0  0  0999 V2000
   33.3870   27.6510   47.5220 C   0  0  0  0  0  0  0  0  0  0  0  0
   33.4910   27.6820   46.4030 H   0  0  0  0  0  0  0  0  0  0  0  0
   33.6510   26.6150   47.8060 H   0  0  0  0  0  0  0  0  0  0  0  0
   31.9520   27.9360   47.7870 C   0  0  0  0  0  0  0  0  0  0  0  0
   31.4080   27.4930   48.9880 C   0  0  0  0  0  0  0  0  0  0  0  0
   30.0990   27.7140   49.3100 C   0  0  0  0  0  0  0  0  0  0  0  0
   29.3230   28.3690   48.4520 N   0  0  0  0  0  0  0  0  0  0  0  0
   29.8580   28.8030   47.2740 C   0  0  0  0  0  0  0  0  0  0  0  0
   31.1390   28.6020   46.9300 N   0  0  0  0  0  0  0  0  0  0  0  0
   32.0030   26.9530   49.7210 H   0  0  0  0  0  0  0  0  0  0  0  0
   29.6890   27.3600   50.2530 H   0  0  0  0  0  0  0  0  0  0  0  0
   28.9490   29.5290   46.3530 C   0  0  0  0  0  0  0  0  0  0  0  0
   28.0020   29.7880   46.8530 H   0  0  0  0  0  0  0  0  0  0  0  0
   29.3650   30.4800   45.9690 H   0  0  0  0  0  0  0  0  0  0  0  0
   27.8930   27.3410   45.7580 C   0  0  2  0  0  3  0  0  0  0  0  0
   28.5840   28.5810   45.2310 C   0  0  1  0  0  3  0  0  0  0  0  0
   27.7140   29.1700   44.3170 O   0  0  0  0  0  0  0  0  0  0  0  0
   27.8880   28.5220   43.0960 C   0  0  0  0  0  2  0  0  0  0  0  0
   28.1290   27.0420   43.2640 C   0  0  1  0  0  3  0  0  0  0  0  0
   27.5210   26.5080   44.5410 C   0  0  1  0  0  3  0  0  0  0  0  0
   26.7380   27.7570   46.4320 O   0  0  0  0  0  0  0  0  0  0  0  0
   25.9310   27.5050   45.8990 H   0  0  0  0  0  0  0  0  0  0  0  0
   27.4870   26.3950   42.2050 O   0  0  0  0  0  0  0  0  0  0  0  0
   28.1430   26.0890   41.5050 H   0  0  0  0  0  0  0  0  0  0  0  0
   28.0850   25.2440   44.7330 O   0  0  0  0  0  0  0  0  0  0  0  0
   27.4400   24.5280   44.5170 H   0  0  0  0  0  0  0  0  0  0  0  0
   34.3000   28.6980   48.0780 C   0  0  0  0  0  0  0  0  0  0  0  0
   33.6800   29.6080   48.2750 H   0  0  0  0  0  0  0  0  0  0  0  0
   35.0830   29.0290   47.3420 H   0  0  0  0  0  0  0  0  0  0  0  0
   34.8740   28.2930   49.3070 O   0  0  0  0  0  0  0  0  0  0  0  0
   37.1160   30.0070   51.5600 C   0  0  0  0  0  0  0  0  0  0  0  0
   37.8840   30.7400   50.6200 C   0  0  0  0  0  0  0  0  0  0  0  0
   37.5800   30.5970   49.2800 C   0  0  0  0  0  0  0  0  0  0  0  0
   36.5550   29.7510   48.9760 N   0  0  0  0  0  0  0  0  0  0  0  0
   35.8370   29.0640   49.8630 C   0  0  0  0  0  0  0  0  0  0  0  0
   36.1290   29.2000   51.1760 N   0  0  0  0  0  0  0  0  0  0  0  0
   37.4060   30.1640   52.5890 H   0  0  0  0  0  0  0  0  0  0  0  0
   38.6870   31.4010   50.8830 H   0  0  0  0  0  0  0  0  0  0  0  0
   38.7960   33.2260   49.2640 F   0  0  0  0  0  0  0  0  0  0  0  0
   38.8320   32.4840   48.1630 C   0  0  0  0  0  0  0  0  0  0  0  0
   38.2620   31.2700   48.1930 C   0  0  0  0  0  0  0  0  0  0  0  0
   38.3500   30.5650   46.9820 C   0  0  0  0  0  0  0  0  0  0  0  0
   38.9690   31.0870   45.8770 C   0  0  0  0  0  0  0  0  0  0  0  0
   39.5380   32.3420   45.9020 C   0  0  0  0  0  0  0  0  0  0  0  0
   39.4580   33.0310   47.0650 C   0  0  0  0  0  0  0  0  0  0  0  0
   37.9320   29.5700   46.8660 H   0  0  0  0  0  0  0  0  0  0  0  0
   39.0260   30.5220   44.9470 H   0  0  0  0  0  0  0  0  0  0  0  0
   40.0290   32.7670   45.0370 H   0  0  0  0  0  0  0  0  0  0  0  0
   39.9000   34.0220   47.1090 H   0  0  0  0  0  0  0  0  0  0  0  0
  1  4  1  0  0  0  0
  1  3  1  0  0  0  0
  1 27  1  0  0  0  0
  2  1  1  0  0  0  0
  4  5  1  0  0  0  0
  5  6  2  0  0  0  0
  5 10  1  0  0  0  0
  6 11  1  0  0  0  0
  7  6  1  0  0  0  0
  8  7  2  0  0  0  0
  9  8  1  0  0  0  0
  9  4  2  0  0  0  0
 12 13  1  0  0  0  0
 12  8  1  0  0  0  0
 14 12  1  0  0  0  0
 15 21  1  6  0  0  0
 16 15  1  0  0  0  0
 16 12  1  1  0  0  0
 17 16  1  0  0  0  0
 18 19  1  0  0  0  0
 18 17  1  0  0  0  0
 19 23  1  6  0  0  0
 19 20  1  0  0  0  0
 20 25  1  1  0  0  0
 20 15  1  0  0  0  0
 22 21  1  0  0  0  0
 24 23  1  0  0  0  0
 26 25  1  0  0  0  0
 27 28  1  0  0  0  0
 27 30  1  0  0  0  0
 29 27  1  0  0  0  0
 30 35  1  0  0  0  0
 31 37  1  0  0  0  0
 32 38  1  0  0  0  0
 32 31  2  0  0  0  0
 33 32  1  0  0  0  0
 34 33  2  0  0  0  0
 34 35  1  0  0  0  0
 35 36  2  0  0  0  0
 36 31  1  0  0  0  0
 40 41  1  0  0  0  0
 40 39  1  0  0  0  0
 41 33  1  0  0  0  0
 42 41  2  0  0  0  0
 43 44  2  0  0  0  0
 43 42  1  0  0  0  0
 44 45  1  0  0  0  0
 45 49  1  0  0  0  0
 45 40  2  0  0  0  0
 46 42  1  0  0  0  0
 47 43  1  0  0  0  0
 48 44  1  0  0  0  0
M  END
>  <minimizedAffinity>
-6.7111063

>  <minimizedRMSD>
0.857768476

$$$$
