
 OpenBabel03272509583D

 49 52  0  0  1  0  0  0  0  0999 V2000
   33.1830   28.0390   47.1570 C   0  0  0  0  0  0  0  0  0  0  0  0
   33.1260   28.3920   46.0920 H   0  0  0  0  0  0  0  0  0  0  0  0
   33.5720   27.0050   47.0960 H   0  0  0  0  0  0  0  0  0  0  0  0
   31.7820   28.0630   47.6510 C   0  0  0  0  0  0  0  0  0  0  0  0
   31.4740   27.3160   48.7830 C   0  0  0  0  0  0  0  0  0  0  0  0
   30.2100   27.2830   49.3020 C   0  0  0  0  0  0  0  0  0  0  0  0
   29.2480   27.9840   48.7100 N   0  0  0  0  0  0  0  0  0  0  0  0
   29.5530   28.7180   47.6000 C   0  0  0  0  0  0  0  0  0  0  0  0
   30.7830   28.7700   47.0670 N   0  0  0  0  0  0  0  0  0  0  0  0
   32.2270   26.7260   49.3020 H   0  0  0  0  0  0  0  0  0  0  0  0
   29.9870   26.6930   50.1870 H   0  0  0  0  0  0  0  0  0  0  0  0
   28.4430   29.4820   46.9780 C   0  0  0  0  0  0  0  0  0  0  0  0
   27.5100   29.3630   47.5510 H   0  0  0  0  0  0  0  0  0  0  0  0
   28.6280   30.5710   46.9140 H   0  0  0  0  0  0  0  0  0  0  0  0
   27.2870   27.6560   45.7200 C   0  0  2  0  0  3  0  0  0  0  0  0
   28.1770   28.8760   45.6170 C   0  0  1  0  0  3  0  0  0  0  0  0
   27.5360   29.7720   44.7650 O   0  0  0  0  0  0  0  0  0  0  0  0
   27.8470   29.4040   43.4590 C   0  0  0  0  0  2  0  0  0  0  0  0
   27.9060   27.9060   43.2880 C   0  0  1  0  0  3  0  0  0  0  0  0
   27.0430   27.1820   44.2950 C   0  0  1  0  0  3  0  0  0  0  0  0
   26.0830   28.0610   46.3090 O   0  0  0  0  0  0  0  0  0  0  0  0
   25.3560   28.0500   45.6250 H   0  0  0  0  0  0  0  0  0  0  0  0
   27.3890   27.6130   42.0220 O   0  0  0  0  0  0  0  0  0  0  0  0
   28.1190   27.3880   41.3660 H   0  0  0  0  0  0  0  0  0  0  0  0
   27.4360   25.8420   44.2430 O   0  0  0  0  0  0  0  0  0  0  0  0
   26.7680   25.2920   43.7700 H   0  0  0  0  0  0  0  0  0  0  0  0
   34.0740   28.9930   47.8890 C   0  0  0  0  0  0  0  0  0  0  0  0
   33.4130   29.7320   48.4080 H   0  0  0  0  0  0  0  0  0  0  0  0
   34.7160   29.6060   47.1990 H   0  0  0  0  0  0  0  0  0  0  0  0
   34.8460   28.3370   48.8780 O   0  0  0  0  0  0  0  0  0  0  0  0
   36.9200   29.8220   51.4320 C   0  0  0  0  0  0  0  0  0  0  0  0
   37.7440   30.6440   50.6220 C   0  0  0  0  0  0  0  0  0  0  0  0
   37.5310   30.6330   49.2570 C   0  0  0  0  0  0  0  0  0  0  0  0
   36.5350   29.8210   48.8040 N   0  0  0  0  0  0  0  0  0  0  0  0
   35.7640   29.0500   49.5700 C   0  0  0  0  0  0  0  0  0  0  0  0
   35.9670   29.0560   50.9060 N   0  0  0  0  0  0  0  0  0  0  0  0
   37.1400   29.8790   52.4890 H   0  0  0  0  0  0  0  0  0  0  0  0
   38.5240   31.2770   51.0010 H   0  0  0  0  0  0  0  0  0  0  0  0
   38.6600   33.2840   49.5540 F   0  0  0  0  0  0  0  0  0  0  0  0
   38.8110   32.6360   48.4040 C   0  0  0  0  0  0  0  0  0  0  0  0
   38.2790   31.4100   48.2890 C   0  0  0  0  0  0  0  0  0  0  0  0
   38.4900   30.8090   47.0380 C   0  0  0  0  0  0  0  0  0  0  0  0
   39.1810   31.4350   46.0350 C   0  0  0  0  0  0  0  0  0  0  0  0
   39.7060   32.6970   46.2080 C   0  0  0  0  0  0  0  0  0  0  0  0
   39.5080   33.2870   47.4110 C   0  0  0  0  0  0  0  0  0  0  0  0
   38.1150   29.8160   46.8090 H   0  0  0  0  0  0  0  0  0  0  0  0
   39.3330   30.9490   45.0710 H   0  0  0  0  0  0  0  0  0  0  0  0
   40.2540   33.2030   45.4240 H   0  0  0  0  0  0  0  0  0  0  0  0
   39.9130   34.2820   47.5710 H   0  0  0  0  0  0  0  0  0  0  0  0
  1  4  1  0  0  0  0
  1 27  1  0  0  0  0
  2  1  1  0  0  0  0
  3  1  1  0  0  0  0
  4  5  1  0  0  0  0
  5 10  1  0  0  0  0
  5  6  2  0  0  0  0
  6 11  1  0  0  0  0
  7  6  1  0  0  0  0
  8  7  2  0  0  0  0
  9  8  1  0  0  0  0
  9  4  2  0  0  0  0
 12 13  1  0  0  0  0
 12  8  1  0  0  0  0
 14 12  1  0  0  0  0
 15 21  1  6  0  0  0
 16 15  1  0  0  0  0
 16 12  1  1  0  0  0
 17 16  1  0  0  0  0
 18 17  1  0  0  0  0
 19 23  1  6  0  0  0
 19 18  1  0  0  0  0
 19 20  1  0  0  0  0
 20 25  1  1  0  0  0
 20 15  1  0  0  0  0
 22 21  1  0  0  0  0
 24 23  1  0  0  0  0
 26 25  1  0  0  0  0
 27 28  1  0  0  0  0
 27 30  1  0  0  0  0
 29 27  1  0  0  0  0
 30 35  1  0  0  0  0
 31 37  1  0  0  0  0
 32 38  1  0  0  0  0
 32 31  2  0  0  0  0
 33 32  1  0  0  0  0
 34 33  2  0  0  0  0
 34 35  1  0  0  0  0
 35 36  2  0  0  0  0
 36 31  1  0  0  0  0
 40 39  1  0  0  0  0
 41 40  1  0  0  0  0
 41 33  1  0  0  0  0
 42 41  2  0  0  0  0
 43 44  2  0  0  0  0
 43 42  1  0  0  0  0
 44 45  1  0  0  0  0
 45 49  1  0  0  0  0
 45 40  2  0  0  0  0
 46 42  1  0  0  0  0
 47 43  1  0  0  0  0
 48 44  1  0  0  0  0
M  END
>  <minimizedAffinity>
-6.84937429

>  <minimizedRMSD>
0.801205754

$$$$
