
 OpenBabel03262522283D

 49 52  0  0  1  0  0  0  0  0999 V2000
   34.8020   30.5920   49.7920 C   0  0  0  0  0  0  0  0  0  0  0  0
   34.1520   30.2760   50.6440 H   0  0  0  0  0  0  0  0  0  0  0  0
   34.6500   31.6840   49.6770 H   0  0  0  0  0  0  0  0  0  0  0  0
   34.5050   27.8650   49.9580 F   0  0  0  0  0  0  0  0  0  0  0  0
   34.3600   28.4600   48.7410 C   0  0  0  0  0  0  0  0  0  0  0  0
   34.4920   29.8370   48.5420 C   0  0  0  0  0  0  0  0  0  0  0  0
   34.3400   30.4010   47.2990 C   0  0  0  0  0  0  0  0  0  0  0  0
   34.0420   29.5770   46.1950 C   0  0  0  0  0  0  0  0  0  0  0  0
   33.9120   28.2220   46.3880 C   0  0  0  0  0  0  0  0  0  0  0  0
   34.0670   27.6720   47.6370 C   0  0  0  0  0  0  0  0  0  0  0  0
   34.4720   31.4660   47.3180 H   0  0  0  0  0  0  0  0  0  0  0  0
   33.9490   30.1300   45.2960 H   0  0  0  0  0  0  0  0  0  0  0  0
   33.6880   27.7620   45.4480 H   0  0  0  0  0  0  0  0  0  0  0  0
   33.9200   26.3140   47.7650 O   0  0  0  0  0  0  0  0  0  0  0  0
   32.2410   24.8840   46.7710 C   0  0  1  0  0  0  0  0  0  0  0  0
   33.6820   25.3990   46.7540 C   0  0  2  0  0  0  0  0  0  0  0  0
   34.4750   24.2620   46.9660 O   0  0  0  0  0  0  0  0  0  0  0  0
   34.5760   23.4920   45.8150 C   0  0  0  0  0  0  0  0  0  0  0  0
   33.1980   22.9540   45.4950 C   0  0  2  0  0  0  0  0  0  0  0  0
   32.1680   23.4100   46.5060 C   0  0  1  0  0  0  0  0  0  0  0  0
   31.7790   25.1560   48.0640 O   0  0  0  0  0  0  0  0  0  0  0  0
   32.5330   24.9310   48.6970 H   0  0  0  0  0  0  0  0  0  0  0  0
   33.2410   21.5510   45.5760 O   0  0  0  0  0  0  0  0  0  0  0  0
   33.4760   21.1390   44.7200 H   0  0  0  0  0  0  0  0  0  0  0  0
   32.2430   22.6870   47.6930 O   0  0  0  0  0  0  0  0  0  0  0  0
   33.0830   22.1380   47.6360 H   0  0  0  0  0  0  0  0  0  0  0  0
   36.4970   30.1670   50.2550 S   0  0  0  0  0  0  0  0  0  0  0  0
   38.7650   32.8920   48.3320 C   0  0  0  0  0  0  0  0  0  0  0  0
   39.0640   32.2210   47.1480 C   0  0  0  0  0  0  0  0  0  0  0  0
   38.5530   30.9550   46.9940 C   0  0  0  0  0  0  0  0  0  0  0  0
   37.7900   30.4440   48.0070 N   0  0  0  0  0  0  0  0  0  0  0  0
   37.5320   31.1020   49.1010 C   0  0  0  0  0  0  0  0  0  0  0  0
   38.0120   32.3720   49.3200 N   0  0  0  0  0  0  0  0  0  0  0  0
   39.1410   33.8990   48.5140 H   0  0  0  0  0  0  0  0  0  0  0  0
   38.7630   30.4050   46.0880 H   0  0  0  0  0  0  0  0  0  0  0  0
   39.8330   32.8510   46.2270 O   0  0  0  0  0  0  0  0  0  0  0  0
   39.9810   32.2950   44.9660 C   0  0  0  0  0  0  0  0  0  0  0  0
   40.6690   31.1640   44.6080 C   0  0  0  0  0  0  0  0  0  0  0  0
   40.6960   30.7790   43.3150 C   0  0  0  0  0  0  0  0  0  0  0  0
   40.0330   31.5330   42.3890 C   0  0  0  0  0  0  0  0  0  0  0  0
   39.3320   32.6850   42.7590 C   0  0  0  0  0  0  0  0  0  0  0  0
   39.3260   33.0410   44.0640 N   0  0  0  0  0  0  0  0  0  0  0  0
   41.1530   30.6520   45.4310 H   0  0  0  0  0  0  0  0  0  0  0  0
   41.2360   29.8920   43.0400 H   0  0  0  0  0  0  0  0  0  0  0  0
   40.0110   31.2850   41.3350 H   0  0  0  0  0  0  0  0  0  0  0  0
   38.6010   33.5100   41.7140 C   0  0  0  0  0  0  0  0  0  0  0  0
   39.1030   33.3140   40.7490 H   0  0  0  0  0  0  0  0  0  0  0  0
   38.6600   34.5680   42.0290 H   0  0  0  0  0  0  0  0  0  0  0  0
   37.5520   33.1870   41.6160 H   0  0  0  0  0  0  0  0  0  0  0  0
  1 27  1  0  0  0  0
  1  2  1  0  0  0  0
  3  1  1  0  0  0  0
  5  4  1  0  0  0  0
  6  5  1  0  0  0  0
  6  1  1  0  0  0  0
  7 11  1  0  0  0  0
  7  6  2  0  0  0  0
  8  9  2  0  0  0  0
  8  7  1  0  0  0  0
  9 10  1  0  0  0  0
 10 14  1  0  0  0  0
 10  5  2  0  0  0  0
 12  8  1  0  0  0  0
 13  9  1  0  0  0  0
 15 21  1  1  0  0  0
 16 15  1  0  0  0  0
 16 17  1  0  0  0  0
 16 14  1  1  0  0  0
 18 17  1  0  0  0  0
 19 23  1  1  0  0  0
 19 18  1  0  0  0  0
 19 20  1  0  0  0  0
 20 15  1  0  0  0  0
 20 25  1  1  0  0  0
 21 22  1  0  0  0  0
 24 23  1  0  0  0  0
 26 25  1  0  0  0  0
 28 34  1  0  0  0  0
 28 33  1  0  0  0  0
 29 28  2  0  0  0  0
 30 29  1  0  0  0  0
 30 31  2  0  0  0  0
 31 32  1  0  0  0  0
 32 33  2  0  0  0  0
 32 27  1  0  0  0  0
 35 30  1  0  0  0  0
 36 29  1  0  0  0  0
 37 36  1  0  0  0  0
 38 37  1  0  0  0  0
 38 43  1  0  0  0  0
 39 38  2  0  0  0  0
 40 41  2  0  0  0  0
 40 39  1  0  0  0  0
 41 42  1  0  0  0  0
 42 37  2  0  0  0  0
 44 39  1  0  0  0  0
 45 40  1  0  0  0  0
 46 48  1  0  0  0  0
 46 41  1  0  0  0  0
 47 46  1  0  0  0  0
 49 46  1  0  0  0  0
M  END
>  <minimizedAffinity>
-6.25942564

>  <minimizedRMSD>
0.684476137

$$$$
