
 OpenBabel03272506433D

 35 37  0  0  1  0  0  0  0  0999 V2000
   32.3630   28.3310   47.4800 C   0  0  2  0  0  0  0  0  0  0  0  0
   33.5850   28.3290   48.3830 C   0  0  1  0  0  0  0  0  0  0  0  0
   34.1190   27.0690   48.3590 O   0  0  0  0  0  0  0  0  0  0  0  0
   33.5140   26.3230   47.3600 C   0  0  0  0  0  0  0  0  0  0  0  0
   32.8210   27.3380   46.4410 C   0  0  1  0  0  0  0  0  0  0  0  0
   31.5110   27.9530   48.0750 H   0  0  0  0  0  0  0  0  0  0  0  0
   33.2490   28.6800   49.3690 H   0  0  0  0  0  0  0  0  0  0  0  0
   34.3300   25.7860   46.8260 H   0  0  0  0  0  0  0  0  0  0  0  0
   32.7210   25.6590   47.7370 H   0  0  0  0  0  0  0  0  0  0  0  0
   33.5730   27.8120   45.8140 H   0  0  0  0  0  0  0  0  0  0  0  0
   32.1310   29.5920   46.9560 O   0  0  0  0  0  0  0  0  0  0  0  0
   31.6180   29.5700   46.1210 H   0  0  0  0  0  0  0  0  0  0  0  0
   34.7780   29.4760   47.6250 S   0  0  0  0  0  0  0  0  0  0  0  0
   37.3480   29.3360   50.6400 C   0  0  0  0  0  0  0  0  0  0  0  0
   37.8440   30.6360   50.7600 C   0  0  0  0  0  0  0  0  0  0  0  0
   37.3550   31.6010   49.8580 C   0  0  0  0  0  0  0  0  0  0  0  0
   36.4410   31.2250   48.9340 N   0  0  0  0  0  0  0  0  0  0  0  0
   35.9850   29.9590   48.8500 C   0  0  0  0  0  0  0  0  0  0  0  0
   36.4270   29.0140   49.6900 N   0  0  0  0  0  0  0  0  0  0  0  0
   37.6570   28.5180   51.2840 H   0  0  0  0  0  0  0  0  0  0  0  0
   38.5660   30.8530   51.5180 H   0  0  0  0  0  0  0  0  0  0  0  0
   37.7330   32.6100   49.9430 H   0  0  0  0  0  0  0  0  0  0  0  0
   31.7700   26.7280   45.7820 O   0  0  0  0  0  0  0  0  0  0  0  0
   32.8280   27.8390   43.9170 C   0  0  2  0  0  3  0  0  0  0  0  0
   32.0920   26.6430   44.4280 C   0  0  2  0  0  3  0  0  0  0  0  0
   30.9640   26.3140   43.6950 O   0  0  0  0  0  0  0  0  0  0  0  0
   30.1270   27.3960   43.4660 C   0  0  0  0  0  2  0  0  0  0  0  0
   30.8710   28.2470   42.4560 C   0  0  1  0  0  3  0  0  0  0  0  0
   32.0240   28.8610   43.2010 C   0  0  1  0  0  3  0  0  0  0  0  0
   33.9070   27.4780   43.1050 O   0  0  0  0  0  0  0  0  0  0  0  0
   33.6210   26.7830   42.4890 H   0  0  0  0  0  0  0  0  0  0  0  0
   31.3740   27.3560   41.4880 O   0  0  0  0  0  0  0  0  0  0  0  0
   31.6760   27.8400   40.6800 H   0  0  0  0  0  0  0  0  0  0  0  0
   31.4970   29.8090   44.0990 O   0  0  0  0  0  0  0  0  0  0  0  0
   32.1930   30.5190   44.2010 H   0  0  0  0  0  0  0  0  0  0  0  0
  1  6  1  1  0  0  0
  1  2  1  0  0  0  0
  2  7  1  1  0  0  0
  3  2  1  0  0  0  0
  4  9  1  0  0  0  0
  4  3  1  0  0  0  0
  5 10  1  6  0  0  0
  5  4  1  0  0  0  0
  5  1  1  0  0  0  0
  8  4  1  0  0  0  0
 11  1  1  0  0  0  0
 12 11  1  0  0  0  0
 13  2  1  0  0  0  0
 13 18  1  0  0  0  0
 14 15  1  0  0  0  0
 14 20  1  0  0  0  0
 15 21  1  0  0  0  0
 16 22  1  0  0  0  0
 16 15  2  0  0  0  0
 17 16  1  0  0  0  0
 18 17  2  0  0  0  0
 18 19  1  0  0  0  0
 19 14  2  0  0  0  0
 23  5  1  0  0  0  0
 24 30  1  6  0  0  0
 24 25  1  0  0  0  0
 25 23  1  1  0  0  0
 26 25  1  0  0  0  0
 27 26  1  0  0  0  0
 28 32  1  6  0  0  0
 28 29  1  0  0  0  0
 28 27  1  0  0  0  0
 29 24  1  0  0  0  0
 29 34  1  1  0  0  0
 31 30  1  0  0  0  0
 33 32  1  0  0  0  0
 34 35  1  0  0  0  0
M  END
>  <minimizedAffinity>
-3.86054039

>  <minimizedRMSD>
1.27854741

$$$$
