
 OpenBabel03272509573D

 49 52  0  0  1  0  0  0  0  0999 V2000
   33.5220   27.5970   47.6030 C   0  0  0  0  0  0  0  0  0  0  0  0
   33.6850   27.5270   46.4930 H   0  0  0  0  0  0  0  0  0  0  0  0
   33.7680   26.5910   47.9930 H   0  0  0  0  0  0  0  0  0  0  0  0
   32.0770   27.9030   47.7670 C   0  0  0  0  0  0  0  0  0  0  0  0
   31.4390   27.4550   48.9180 C   0  0  0  0  0  0  0  0  0  0  0  0
   30.1130   27.6940   49.1460 C   0  0  0  0  0  0  0  0  0  0  0  0
   29.4130   28.3730   48.2430 N   0  0  0  0  0  0  0  0  0  0  0  0
   30.0410   28.8130   47.1140 C   0  0  0  0  0  0  0  0  0  0  0  0
   31.3410   28.5940   46.8620 N   0  0  0  0  0  0  0  0  0  0  0  0
   31.9700   26.8950   49.6860 H   0  0  0  0  0  0  0  0  0  0  0  0
   29.6300   27.3360   50.0510 H   0  0  0  0  0  0  0  0  0  0  0  0
   29.2140   29.5670   46.1380 C   0  0  0  0  0  0  0  0  0  0  0  0
   28.4750   30.2010   46.6520 H   0  0  0  0  0  0  0  0  0  0  0  0
   29.7960   30.2410   45.4820 H   0  0  0  0  0  0  0  0  0  0  0  0
   27.0810   29.1260   44.9100 C   0  0  2  0  0  3  0  0  0  0  0  0
   28.4160   28.5580   45.3400 C   0  0  1  0  0  3  0  0  0  0  0  0
   29.0830   28.1700   44.1810 O   0  0  0  0  0  0  0  0  0  0  0  0
   28.6230   26.9000   43.8390 C   0  0  0  0  0  2  0  0  0  0  0  0
   27.1480   26.7350   44.1120 C   0  0  1  0  0  3  0  0  0  0  0  0
   26.4090   28.0530   44.0690 C   0  0  1  0  0  3  0  0  0  0  0  0
   27.3380   30.2620   44.1310 O   0  0  0  0  0  0  0  0  0  0  0  0
   27.1220   30.0680   43.1750 H   0  0  0  0  0  0  0  0  0  0  0  0
   26.6250   25.9390   43.0890 O   0  0  0  0  0  0  0  0  0  0  0  0
   26.4550   24.9960   43.4030 H   0  0  0  0  0  0  0  0  0  0  0  0
   25.1620   27.8090   44.6480 O   0  0  0  0  0  0  0  0  0  0  0  0
   24.4510   27.7670   43.9640 H   0  0  0  0  0  0  0  0  0  0  0  0
   34.4090   28.6900   48.1090 C   0  0  0  0  0  0  0  0  0  0  0  0
   33.7730   29.6020   48.2350 H   0  0  0  0  0  0  0  0  0  0  0  0
   35.2020   28.9850   47.3690 H   0  0  0  0  0  0  0  0  0  0  0  0
   34.9630   28.3740   49.3730 O   0  0  0  0  0  0  0  0  0  0  0  0
   37.2920   30.1490   51.4850 C   0  0  0  0  0  0  0  0  0  0  0  0
   38.0360   30.8380   50.4930 C   0  0  0  0  0  0  0  0  0  0  0  0
   37.6870   30.6480   49.1710 C   0  0  0  0  0  0  0  0  0  0  0  0
   36.6450   29.8010   48.9320 N   0  0  0  0  0  0  0  0  0  0  0  0
   35.9510   29.1560   49.8670 C   0  0  0  0  0  0  0  0  0  0  0  0
   36.2860   29.3380   51.1640 N   0  0  0  0  0  0  0  0  0  0  0  0
   37.6170   30.3430   52.4970 H   0  0  0  0  0  0  0  0  0  0  0  0
   38.8530   31.5010   50.7050 H   0  0  0  0  0  0  0  0  0  0  0  0
   38.9150   33.2660   49.0120 F   0  0  0  0  0  0  0  0  0  0  0  0
   38.9130   32.4810   47.9400 C   0  0  0  0  0  0  0  0  0  0  0  0
   38.3390   31.2720   48.0370 C   0  0  0  0  0  0  0  0  0  0  0  0
   38.3870   30.5180   46.8530 C   0  0  0  0  0  0  0  0  0  0  0  0
   38.9740   30.9920   45.7100 C   0  0  0  0  0  0  0  0  0  0  0  0
   39.5500   32.2430   45.6680 C   0  0  0  0  0  0  0  0  0  0  0  0
   39.5090   32.9790   46.8030 C   0  0  0  0  0  0  0  0  0  0  0  0
   37.9610   29.5220   46.7910 H   0  0  0  0  0  0  0  0  0  0  0  0
   39.0010   30.3890   44.8020 H   0  0  0  0  0  0  0  0  0  0  0  0
   40.0170   32.6290   44.7710 H   0  0  0  0  0  0  0  0  0  0  0  0
   39.9570   33.9680   46.7940 H   0  0  0  0  0  0  0  0  0  0  0  0
  1  4  1  0  0  0  0
  1  3  1  0  0  0  0
  1 27  1  0  0  0  0
  2  1  1  0  0  0  0
  4  5  1  0  0  0  0
  5  6  2  0  0  0  0
  5 10  1  0  0  0  0
  6 11  1  0  0  0  0
  7  6  1  0  0  0  0
  8  7  2  0  0  0  0
  9  8  1  0  0  0  0
  9  4  2  0  0  0  0
 12 13  1  0  0  0  0
 12  8  1  0  0  0  0
 14 12  1  0  0  0  0
 15 21  1  6  0  0  0
 15 16  1  0  0  0  0
 16 12  1  6  0  0  0
 17 16  1  0  0  0  0
 18 19  1  0  0  0  0
 18 17  1  0  0  0  0
 19 23  1  6  0  0  0
 20 19  1  0  0  0  0
 20 25  1  1  0  0  0
 20 15  1  0  0  0  0
 22 21  1  0  0  0  0
 23 24  1  0  0  0  0
 26 25  1  0  0  0  0
 27 28  1  0  0  0  0
 27 30  1  0  0  0  0
 29 27  1  0  0  0  0
 30 35  1  0  0  0  0
 31 37  1  0  0  0  0
 32 38  1  0  0  0  0
 32 31  2  0  0  0  0
 33 32  1  0  0  0  0
 34 33  2  0  0  0  0
 34 35  1  0  0  0  0
 35 36  2  0  0  0  0
 36 31  1  0  0  0  0
 40 41  1  0  0  0  0
 40 39  1  0  0  0  0
 41 33  1  0  0  0  0
 42 41  2  0  0  0  0
 43 42  1  0  0  0  0
 44 43  2  0  0  0  0
 44 45  1  0  0  0  0
 45 40  2  0  0  0  0
 46 42  1  0  0  0  0
 47 43  1  0  0  0  0
 48 44  1  0  0  0  0
 49 45  1  0  0  0  0
M  END
>  <minimizedAffinity>
-6.87423706

>  <minimizedRMSD>
1.21460664

$$$$
