
 OpenBabel03272503503D

 40 42  0  0  1  0  0  0  0  0999 V2000
   32.7880   27.3810   46.1010 C   0  0  1  0  0  0  0  0  0  0  0  0
   33.8710   27.5350   47.1900 C   0  0  2  0  0  0  0  0  0  0  0  0
   33.9250   26.2990   47.7530 O   0  0  0  0  0  0  0  0  0  0  0  0
   33.9380   25.4210   46.6920 C   0  0  0  0  0  0  0  0  0  0  0  0
   33.0840   25.9910   45.6010 C   0  0  2  0  0  0  0  0  0  0  0  0
   33.0090   28.1560   45.3430 H   0  0  0  0  0  0  0  0  0  0  0  0
   34.7930   27.8820   46.6590 H   0  0  0  0  0  0  0  0  0  0  0  0
   33.4290   24.4870   47.0680 H   0  0  0  0  0  0  0  0  0  0  0  0
   34.9430   25.0970   46.3830 H   0  0  0  0  0  0  0  0  0  0  0  0
   32.1590   25.4260   45.4470 H   0  0  0  0  0  0  0  0  0  0  0  0
   31.5290   27.5450   46.6470 O   0  0  0  0  0  0  0  0  0  0  0  0
   31.2860   26.7430   47.1470 H   0  0  0  0  0  0  0  0  0  0  0  0
   33.4260   28.5570   47.9780 O   0  0  0  0  0  0  0  0  0  0  0  0
   35.3490   29.8660   46.7290 O   0  0  0  0  0  0  0  0  0  0  0  0
   34.1370   30.0440   47.6370 P   0  0  1  0  0  0  0  0  0  0  0  0
   33.0630   31.0080   46.7520 O   0  0  0  0  0  0  0  0  0  0  0  0
   32.1550   30.8060   47.0940 H   0  0  0  0  0  0  0  0  0  0  0  0
   34.5210   30.7690   49.1290 O   0  0  0  0  0  0  0  0  0  0  0  0
   35.7320   30.5740   49.7580 C   0  0  0  0  0  0  0  0  0  0  0  0
   35.9960   29.5410   50.6810 C   0  0  0  0  0  0  0  0  0  0  0  0
   37.2690   29.4730   51.2350 C   0  0  0  0  0  0  0  0  0  0  0  0
   38.1990   30.4090   50.8560 N   0  0  0  0  0  0  0  0  0  0  0  0
   37.9070   31.3930   49.9610 C   0  0  0  0  0  0  0  0  0  0  0  0
   36.6710   31.4810   49.4070 N   0  0  0  0  0  0  0  0  0  0  0  0
   35.1800   28.8950   50.8730 H   0  0  0  0  0  0  0  0  0  0  0  0
   37.4610   28.6920   51.9280 H   0  0  0  0  0  0  0  0  0  0  0  0
   38.7030   32.0870   49.7240 H   0  0  0  0  0  0  0  0  0  0  0  0
   33.7790   26.0640   44.4000 O   0  0  0  0  0  0  0  0  0  0  0  0
   35.9500   25.6150   43.5230 C   0  0  1  0  0  3  0  0  0  0  0  0
   34.7290   25.0760   44.2320 C   0  0  2  0  0  3  0  0  0  0  0  0
   34.1230   24.0950   43.4190 O   0  0  0  0  0  0  0  0  0  0  0  0
   33.7290   24.7120   42.2220 C   0  0  0  0  0  2  0  0  0  0  0  0
   34.9590   24.9880   41.3760 C   0  0  1  0  0  3  0  0  0  0  0  0
   36.1890   24.8290   42.2450 C   0  0  2  0  0  3  0  0  0  0  0  0
   35.7460   26.9440   43.1020 O   0  0  0  0  0  0  0  0  0  0  0  0
   34.7980   27.1580   43.0120 H   0  0  0  0  0  0  0  0  0  0  0  0
   35.0490   24.0540   40.3210 O   0  0  0  0  0  0  0  0  0  0  0  0
   35.9720   24.1270   39.9730 H   0  0  0  0  0  0  0  0  0  0  0  0
   36.3900   23.4770   42.5060 O   0  0  0  0  0  0  0  0  0  0  0  0
   36.9310   23.4040   43.3230 H   0  0  0  0  0  0  0  0  0  0  0  0
  1  6  1  6  0  0  0
  1 11  1  0  0  0  0
  1  2  1  0  0  0  0
  2  7  1  6  0  0  0
  2  3  1  0  0  0  0
  2 13  1  0  0  0  0
  4  8  1  0  0  0  0
  4  3  1  0  0  0  0
  5 10  1  6  0  0  0
  5  1  1  0  0  0  0
  5  4  1  0  0  0  0
  9  4  1  0  0  0  0
 11 12  1  0  0  0  0
 15 14  2  6  0  0  0
 15 13  1  0  0  0  0
 15 18  1  0  0  0  0
 16 17  1  0  0  0  0
 16 15  1  0  0  0  0
 18 19  1  0  0  0  0
 19 20  1  0  0  0  0
 20 25  1  0  0  0  0
 20 21  2  0  0  0  0
 21 26  1  0  0  0  0
 22 21  1  0  0  0  0
 23 22  2  0  0  0  0
 24 19  2  0  0  0  0
 24 23  1  0  0  0  0
 27 23  1  0  0  0  0
 28  5  1  0  0  0  0
 29 35  1  6  0  0  0
 29 30  1  0  0  0  0
 30 28  1  6  0  0  0
 31 30  1  0  0  0  0
 32 31  1  0  0  0  0
 33 37  1  6  0  0  0
 33 32  1  0  0  0  0
 33 34  1  0  0  0  0
 34 39  1  1  0  0  0
 34 29  1  0  0  0  0
 36 35  1  0  0  0  0
 38 37  1  0  0  0  0
 39 40  1  0  0  0  0
M  END
>  <minimizedAffinity>
-4.07350159

>  <minimizedRMSD>
2.05097842

$$$$
