
 OpenBabel03272508083D

 27 28  0  0  1  0  0  0  0  0999 V2000
   38.2990   33.2300   48.3120 O   0  0  0  0  0  0  0  0  0  0  0  0
   38.3630   31.8630   47.7330 P   0  0  2  0  0  0  0  0  0  0  0  0
   37.0710   31.6210   46.6600 O   0  0  0  0  0  0  0  0  0  0  0  0
   36.3840   32.3150   46.7060 H   0  0  0  0  0  0  0  0  0  0  0  0
   38.4260   30.6110   48.8720 O   0  0  0  0  0  0  0  0  0  0  0  0
   36.1140   29.4070   51.5110 C   0  0  0  0  0  0  0  0  0  0  0  0
   37.2590   30.0050   50.9890 C   0  0  0  0  0  0  0  0  0  0  0  0
   37.4080   30.0800   49.5940 C   0  0  0  0  0  0  0  0  0  0  0  0
   36.4150   29.5560   48.8330 N   0  0  0  0  0  0  0  0  0  0  0  0
   35.3190   28.9840   49.3800 C   0  0  0  0  0  0  0  0  0  0  0  0
   35.1730   28.9110   50.7120 N   0  0  0  0  0  0  0  0  0  0  0  0
   36.1400   29.4230   52.5840 H   0  0  0  0  0  0  0  0  0  0  0  0
   38.0870   30.4410   51.5220 H   0  0  0  0  0  0  0  0  0  0  0  0
   34.5340   28.5700   48.7510 H   0  0  0  0  0  0  0  0  0  0  0  0
   39.7760   31.7830   46.7960 O   0  0  0  0  0  0  0  0  0  0  0  0
   39.0000   32.7910   44.8580 C   0  0  2  0  0  3  0  0  0  0  0  0
   39.5140   31.4950   45.4610 C   0  0  1  0  0  3  0  0  0  0  0  0
   40.7250   31.2030   44.8430 O   0  0  0  0  0  0  0  0  0  0  0  0
   40.5610   30.7590   43.5400 C   0  0  0  0  0  2  0  0  0  0  0  0
   39.2790   31.2460   42.9160 C   0  0  1  0  0  3  0  0  0  0  0  0
   38.8870   32.6170   43.3850 C   0  0  2  0  0  3  0  0  0  0  0  0
   39.9070   33.8000   45.1480 O   0  0  0  0  0  0  0  0  0  0  0  0
   40.8330   33.4750   45.0510 H   0  0  0  0  0  0  0  0  0  0  0  0
   39.4900   31.3450   41.5350 O   0  0  0  0  0  0  0  0  0  0  0  0
   38.6460   31.4990   41.0430 H   0  0  0  0  0  0  0  0  0  0  0  0
   39.5740   33.6100   42.7340 O   0  0  0  0  0  0  0  0  0  0  0  0
   40.1550   33.2810   42.0090 H   0  0  0  0  0  0  0  0  0  0  0  0
  2  1  2  1  0  0  0
  2  5  1  0  0  0  0
  3  4  1  0  0  0  0
  3  2  1  0  0  0  0
  5  8  1  0  0  0  0
  6 12  1  0  0  0  0
  7  6  1  0  0  0  0
  7 13  1  0  0  0  0
  8  7  2  0  0  0  0
  9 10  2  0  0  0  0
  9  8  1  0  0  0  0
 10 11  1  0  0  0  0
 11  6  2  0  0  0  0
 14 10  1  0  0  0  0
 15  2  1  0  0  0  0
 16 22  1  6  0  0  0
 16 17  1  0  0  0  0
 17 15  1  1  0  0  0
 18 17  1  0  0  0  0
 19 18  1  0  0  0  0
 20 24  1  6  0  0  0
 20 21  1  0  0  0  0
 20 19  1  0  0  0  0
 21 26  1  6  0  0  0
 21 16  1  0  0  0  0
 23 22  1  0  0  0  0
 25 24  1  0  0  0  0
 27 26  1  0  0  0  0
M  END
>  <minimizedAffinity>
-5.50880909

>  <minimizedRMSD>
2.270365

$$$$
