
 OpenBabel03272508273D

 41 44  0  0  1  0  0  0  0  0999 V2000
   33.9820   28.9600   47.3830 C   0  0  2  0  0  0  0  0  0  0  0  0
   34.7190   28.2290   48.4840 C   0  0  2  0  0  0  0  0  0  0  0  0
   33.8310   28.1150   49.5080 O   0  0  0  0  0  0  0  0  0  0  0  0
   32.5460   28.1900   49.0390 C   0  0  0  0  0  0  0  0  0  0  0  0
   32.6040   28.3230   47.5300 C   0  0  1  0  0  0  0  0  0  0  0  0
   33.9130   30.0440   47.5780 H   0  0  0  0  0  0  0  0  0  0  0  0
   34.9860   27.2340   48.0890 H   0  0  0  0  0  0  0  0  0  0  0  0
   32.0470   29.1300   49.4190 H   0  0  0  0  0  0  0  0  0  0  0  0
   31.9010   27.3540   49.3360 H   0  0  0  0  0  0  0  0  0  0  0  0
   32.5710   27.3240   47.0910 H   0  0  0  0  0  0  0  0  0  0  0  0
   35.8170   30.4920   49.1100 C   0  0  1  0  0  0  0  0  0  0  0  0
   35.8980   29.0710   48.8680 C   0  0  1  0  0  0  0  0  0  0  0  0
   36.1150   29.5310   50.2720 C   0  0  0  0  0  0  0  0  0  0  0  0
   34.9020   31.0840   49.3690 H   0  0  0  0  0  0  0  0  0  0  0  0
   36.8210   28.7460   48.3030 H   0  0  0  0  0  0  0  0  0  0  0  0
   37.1490   29.4770   50.6640 H   0  0  0  0  0  0  0  0  0  0  0  0
   35.3660   29.3440   51.0380 H   0  0  0  0  0  0  0  0  0  0  0  0
   37.0010   31.4020   48.8170 C   0  0  0  0  0  0  0  0  0  0  0  0
   37.2010   32.4810   49.6780 C   0  0  0  0  0  0  0  0  0  0  0  0
   38.2790   33.2990   49.3470 C   0  0  0  0  0  0  0  0  0  0  0  0
   39.0590   33.0350   48.2530 N   0  0  0  0  0  0  0  0  0  0  0  0
   38.8220   31.9730   47.4500 C   0  0  0  0  0  0  0  0  0  0  0  0
   37.7820   31.1490   47.7340 N   0  0  0  0  0  0  0  0  0  0  0  0
   36.5910   32.6790   50.5230 H   0  0  0  0  0  0  0  0  0  0  0  0
   38.5360   34.1720   49.9420 H   0  0  0  0  0  0  0  0  0  0  0  0
   39.4230   31.7460   46.5820 H   0  0  0  0  0  0  0  0  0  0  0  0
   34.5100   28.7310   46.1210 O   0  0  0  0  0  0  0  0  0  0  0  0
   34.2980   27.8030   45.8780 H   0  0  0  0  0  0  0  0  0  0  0  0
   31.6050   29.1060   47.0140 O   0  0  0  0  0  0  0  0  0  0  0  0
   29.6530   27.7620   46.7210 C   0  0  2  0  0  3  0  0  0  0  0  0
   30.8410   28.4350   46.0680 C   0  0  2  0  0  3  0  0  0  0  0  0
   31.5780   27.4560   45.4020 O   0  0  0  0  0  0  0  0  0  0  0  0
   30.9760   27.2420   44.1600 C   0  0  0  0  0  2  0  0  0  0  0  0
   29.4730   27.1300   44.2870 C   0  0  2  0  0  3  0  0  0  0  0  0
   29.0540   26.8070   45.7050 C   0  0  2  0  0  3  0  0  0  0  0  0
   28.7130   28.7530   47.0030 O   0  0  0  0  0  0  0  0  0  0  0  0
   28.0640   28.7930   46.2480 H   0  0  0  0  0  0  0  0  0  0  0  0
   29.0630   26.0670   43.4830 O   0  0  0  0  0  0  0  0  0  0  0  0
   28.0840   25.9130   43.5380 H   0  0  0  0  0  0  0  0  0  0  0  0
   27.6600   26.8020   45.7430 O   0  0  0  0  0  0  0  0  0  0  0  0
   27.3540   26.9100   46.6910 H   0  0  0  0  0  0  0  0  0  0  0  0
  1  5  1  0  0  0  0
  1  6  1  1  0  0  0
  1  2  1  0  0  0  0
  2  7  1  6  0  0  0
  2 12  1  0  0  0  0
  2  3  1  0  0  0  0
  4  9  1  0  0  0  0
  4  8  1  0  0  0  0
  4  3  1  0  0  0  0
  5 10  1  6  0  0  0
  5  4  1  0  0  0  0
 11 14  1  6  0  0  0
 11 13  1  0  0  0  0
 12 15  1  6  0  0  0
 12 11  1  0  0  0  0
 12 13  1  0  0  0  0
 13 16  1  0  0  0  0
 13 17  1  0  0  0  0
 18 11  1  0  0  0  0
 18 19  1  0  0  0  0
 19 24  1  0  0  0  0
 20 19  2  0  0  0  0
 20 25  1  0  0  0  0
 21 20  1  0  0  0  0
 22 23  1  0  0  0  0
 22 21  2  0  0  0  0
 23 18  2  0  0  0  0
 26 22  1  0  0  0  0
 27  1  1  0  0  0  0
 28 27  1  0  0  0  0
 29  5  1  0  0  0  0
 30 36  1  6  0  0  0
 31 30  1  0  0  0  0
 31 29  1  1  0  0  0
 32 31  1  0  0  0  0
 33 34  1  0  0  0  0
 33 32  1  0  0  0  0
 34 38  1  6  0  0  0
 34 35  1  0  0  0  0
 35 40  1  6  0  0  0
 35 30  1  0  0  0  0
 37 36  1  0  0  0  0
 38 39  1  0  0  0  0
 40 41  1  0  0  0  0
M  END
>  <minimizedAffinity>
-5.11082077

>  <minimizedRMSD>
0.290008724

$$$$
