
 OpenBabel03272508273D

 41 44  0  0  1  0  0  0  0  0999 V2000
   33.7300   28.9290   47.2130 C   0  0  2  0  0  0  0  0  0  0  0  0
   34.4560   28.1270   48.2710 C   0  0  2  0  0  0  0  0  0  0  0  0
   33.5690   27.9760   49.2910 O   0  0  0  0  0  0  0  0  0  0  0  0
   32.2840   28.1000   48.8310 C   0  0  0  0  0  0  0  0  0  0  0  0
   32.3400   28.3120   47.3320 C   0  0  1  0  0  0  0  0  0  0  0  0
   33.6820   30.0030   47.4660 H   0  0  0  0  0  0  0  0  0  0  0  0
   34.7020   27.1490   47.8230 H   0  0  0  0  0  0  0  0  0  0  0  0
   31.8030   29.0270   49.2630 H   0  0  0  0  0  0  0  0  0  0  0  0
   31.6230   27.2610   49.0860 H   0  0  0  0  0  0  0  0  0  0  0  0
   32.2870   27.3380   46.8410 H   0  0  0  0  0  0  0  0  0  0  0  0
   35.5950   30.3300   49.0260 C   0  0  1  0  0  0  0  0  0  0  0  0
   35.6510   28.9250   48.6950 C   0  0  1  0  0  0  0  0  0  0  0  0
   35.8880   29.2930   50.1220 C   0  0  0  0  0  0  0  0  0  0  0  0
   34.6930   30.9180   49.3300 H   0  0  0  0  0  0  0  0  0  0  0  0
   36.5640   28.6220   48.1010 H   0  0  0  0  0  0  0  0  0  0  0  0
   36.9260   29.1990   50.5000 H   0  0  0  0  0  0  0  0  0  0  0  0
   35.1440   29.0700   50.8830 H   0  0  0  0  0  0  0  0  0  0  0  0
   36.7910   31.2380   48.7780 C   0  0  0  0  0  0  0  0  0  0  0  0
   37.0380   32.2340   49.7220 C   0  0  0  0  0  0  0  0  0  0  0  0
   38.1250   33.0560   49.4310 C   0  0  0  0  0  0  0  0  0  0  0  0
   38.8700   32.8710   48.2970 N   0  0  0  0  0  0  0  0  0  0  0  0
   38.5870   31.8880   47.4130 C   0  0  0  0  0  0  0  0  0  0  0  0
   37.5380   31.0630   47.6550 N   0  0  0  0  0  0  0  0  0  0  0  0
   36.4560   32.3700   50.5980 H   0  0  0  0  0  0  0  0  0  0  0  0
   38.4170   33.8690   50.0920 H   0  0  0  0  0  0  0  0  0  0  0  0
   39.1600   31.7240   46.5120 H   0  0  0  0  0  0  0  0  0  0  0  0
   34.2490   28.7580   45.9390 O   0  0  0  0  0  0  0  0  0  0  0  0
   34.0190   27.8480   45.6480 H   0  0  0  0  0  0  0  0  0  0  0  0
   31.3540   29.1400   46.8620 O   0  0  0  0  0  0  0  0  0  0  0  0
   29.1180   28.3470   47.1390 C   0  0  2  0  0  3  0  0  0  0  0  0
   30.3300   28.4420   46.2370 C   0  0  2  0  0  3  0  0  0  0  0  0
   30.7150   27.1460   45.8960 O   0  0  0  0  0  0  0  0  0  0  0  0
   29.9130   26.7290   44.8300 C   0  0  0  0  0  2  0  0  0  0  0  0
   28.4580   27.0700   45.0680 C   0  0  2  0  0  3  0  0  0  0  0  0
   28.1770   27.3240   46.5340 C   0  0  2  0  0  3  0  0  0  0  0  0
   28.4890   29.5900   47.1250 O   0  0  0  0  0  0  0  0  0  0  0  0
   27.7690   29.5700   46.4370 H   0  0  0  0  0  0  0  0  0  0  0  0
   27.7020   25.9630   44.6860 O   0  0  0  0  0  0  0  0  0  0  0  0
   26.7310   26.1030   44.8430 H   0  0  0  0  0  0  0  0  0  0  0  0
   26.8400   27.7070   46.6460 O   0  0  0  0  0  0  0  0  0  0  0  0
   26.7040   28.1790   47.5200 H   0  0  0  0  0  0  0  0  0  0  0  0
  1  5  1  0  0  0  0
  1  6  1  1  0  0  0
  1  2  1  0  0  0  0
  2  7  1  6  0  0  0
  2 12  1  0  0  0  0
  2  3  1  0  0  0  0
  4  9  1  0  0  0  0
  4  8  1  0  0  0  0
  4  3  1  0  0  0  0
  5 10  1  6  0  0  0
  5  4  1  0  0  0  0
 11 14  1  1  0  0  0
 11 13  1  0  0  0  0
 12 15  1  6  0  0  0
 12 11  1  0  0  0  0
 12 13  1  0  0  0  0
 13 16  1  0  0  0  0
 13 17  1  0  0  0  0
 18 11  1  0  0  0  0
 18 19  1  0  0  0  0
 19 24  1  0  0  0  0
 20 19  2  0  0  0  0
 20 25  1  0  0  0  0
 21 20  1  0  0  0  0
 22 23  1  0  0  0  0
 22 21  2  0  0  0  0
 23 18  2  0  0  0  0
 26 22  1  0  0  0  0
 27  1  1  0  0  0  0
 28 27  1  0  0  0  0
 29  5  1  0  0  0  0
 30 36  1  6  0  0  0
 31 29  1  1  0  0  0
 31 30  1  0  0  0  0
 32 31  1  0  0  0  0
 33 34  1  0  0  0  0
 33 32  1  0  0  0  0
 34 38  1  1  0  0  0
 34 35  1  0  0  0  0
 35 40  1  6  0  0  0
 35 30  1  0  0  0  0
 37 36  1  0  0  0  0
 38 39  1  0  0  0  0
 40 41  1  0  0  0  0
M  END
>  <minimizedAffinity>
-5.54160404

>  <minimizedRMSD>
0.86844039

$$$$
