
 OpenBabel03272509573D

 49 52  0  0  1  0  0  0  0  0999 V2000
   33.5540   27.5480   47.7030 C   0  0  0  0  0  0  0  0  0  0  0  0
   33.7700   27.4100   46.6090 H   0  0  0  0  0  0  0  0  0  0  0  0
   33.7620   26.5640   48.1620 H   0  0  0  0  0  0  0  0  0  0  0  0
   32.1080   27.8840   47.7750 C   0  0  0  0  0  0  0  0  0  0  0  0
   31.3930   27.4660   48.8920 C   0  0  0  0  0  0  0  0  0  0  0  0
   30.0610   27.7340   49.0360 C   0  0  0  0  0  0  0  0  0  0  0  0
   29.4300   28.4120   48.0830 N   0  0  0  0  0  0  0  0  0  0  0  0
   30.1330   28.8230   46.9870 C   0  0  0  0  0  0  0  0  0  0  0  0
   31.4410   28.5750   46.8170 N   0  0  0  0  0  0  0  0  0  0  0  0
   31.8650   26.9080   49.6980 H   0  0  0  0  0  0  0  0  0  0  0  0
   29.5170   27.3990   49.9150 H   0  0  0  0  0  0  0  0  0  0  0  0
   29.3810   29.5760   45.9530 C   0  0  0  0  0  0  0  0  0  0  0  0
   28.7020   30.3110   46.4140 H   0  0  0  0  0  0  0  0  0  0  0  0
   30.0250   30.1460   45.2560 H   0  0  0  0  0  0  0  0  0  0  0  0
   27.4860   29.2990   44.3460 C   0  0  2  0  0  3  0  0  0  0  0  0
   28.4970   28.5900   45.2210 C   0  0  1  0  0  3  0  0  0  0  0  0
   29.2320   27.7500   44.3890 O   0  0  0  0  0  0  0  0  0  0  0  0
   28.5050   26.5730   44.2320 C   0  0  0  0  0  2  0  0  0  0  0  0
   27.0200   26.8280   44.1460 C   0  0  1  0  0  3  0  0  0  0  0  0
   26.7090   28.2110   43.6200 C   0  0  1  0  0  3  0  0  0  0  0  0
   28.1990   30.0790   43.4260 O   0  0  0  0  0  0  0  0  0  0  0  0
   28.1220   29.6770   42.5160 H   0  0  0  0  0  0  0  0  0  0  0  0
   26.4970   25.9140   43.2260 O   0  0  0  0  0  0  0  0  0  0  0  0
   26.0090   25.1630   43.6860 H   0  0  0  0  0  0  0  0  0  0  0  0
   25.3570   28.4290   43.8970 O   0  0  0  0  0  0  0  0  0  0  0  0
   24.8090   28.3560   43.0790 H   0  0  0  0  0  0  0  0  0  0  0  0
   34.4330   28.6560   48.1890 C   0  0  0  0  0  0  0  0  0  0  0  0
   33.7890   29.5650   48.3030 H   0  0  0  0  0  0  0  0  0  0  0  0
   35.2220   28.9460   47.4420 H   0  0  0  0  0  0  0  0  0  0  0  0
   34.9930   28.3650   49.4560 O   0  0  0  0  0  0  0  0  0  0  0  0
   37.3330   30.1750   51.5260 C   0  0  0  0  0  0  0  0  0  0  0  0
   38.0590   30.8620   50.5200 C   0  0  0  0  0  0  0  0  0  0  0  0
   37.6960   30.6580   49.2030 C   0  0  0  0  0  0  0  0  0  0  0  0
   36.6590   29.8010   48.9840 N   0  0  0  0  0  0  0  0  0  0  0  0
   35.9800   29.1580   49.9320 C   0  0  0  0  0  0  0  0  0  0  0  0
   36.3300   29.3530   51.2230 N   0  0  0  0  0  0  0  0  0  0  0  0
   37.6680   30.3800   52.5330 H   0  0  0  0  0  0  0  0  0  0  0  0
   38.8740   31.5320   50.7160 H   0  0  0  0  0  0  0  0  0  0  0  0
   38.9450   33.2650   49.0210 F   0  0  0  0  0  0  0  0  0  0  0  0
   38.9130   32.4810   47.9490 C   0  0  0  0  0  0  0  0  0  0  0  0
   38.3300   31.2780   48.0560 C   0  0  0  0  0  0  0  0  0  0  0  0
   38.3460   30.5250   46.8710 C   0  0  0  0  0  0  0  0  0  0  0  0
   38.9140   30.9950   45.7160 C   0  0  0  0  0  0  0  0  0  0  0  0
   39.4990   32.2410   45.6630 C   0  0  0  0  0  0  0  0  0  0  0  0
   39.4890   32.9760   46.8000 C   0  0  0  0  0  0  0  0  0  0  0  0
   37.9100   29.5330   46.8170 H   0  0  0  0  0  0  0  0  0  0  0  0
   38.9150   30.3930   44.8080 H   0  0  0  0  0  0  0  0  0  0  0  0
   39.9510   32.6240   44.7570 H   0  0  0  0  0  0  0  0  0  0  0  0
   39.9460   33.9610   46.7830 H   0  0  0  0  0  0  0  0  0  0  0  0
  1  4  1  0  0  0  0
  1  3  1  0  0  0  0
  1 27  1  0  0  0  0
  2  1  1  0  0  0  0
  4  5  1  0  0  0  0
  5  6  2  0  0  0  0
  5 10  1  0  0  0  0
  6 11  1  0  0  0  0
  7  6  1  0  0  0  0
  8  7  2  0  0  0  0
  9  8  1  0  0  0  0
  9  4  2  0  0  0  0
 12 13  1  0  0  0  0
 12  8  1  0  0  0  0
 14 12  1  0  0  0  0
 15 21  1  6  0  0  0
 15 16  1  0  0  0  0
 16 12  1  6  0  0  0
 17 16  1  0  0  0  0
 18 17  1  0  0  0  0
 19 23  1  6  0  0  0
 19 18  1  0  0  0  0
 20 25  1  1  0  0  0
 20 19  1  0  0  0  0
 20 15  1  0  0  0  0
 22 21  1  0  0  0  0
 23 24  1  0  0  0  0
 26 25  1  0  0  0  0
 27 28  1  0  0  0  0
 27 30  1  0  0  0  0
 29 27  1  0  0  0  0
 30 35  1  0  0  0  0
 31 37  1  0  0  0  0
 32 38  1  0  0  0  0
 32 31  2  0  0  0  0
 33 32  1  0  0  0  0
 34 33  2  0  0  0  0
 34 35  1  0  0  0  0
 35 36  2  0  0  0  0
 36 31  1  0  0  0  0
 40 41  1  0  0  0  0
 40 39  1  0  0  0  0
 41 33  1  0  0  0  0
 42 41  2  0  0  0  0
 43 42  1  0  0  0  0
 44 43  2  0  0  0  0
 44 45  1  0  0  0  0
 45 40  2  0  0  0  0
 46 42  1  0  0  0  0
 47 43  1  0  0  0  0
 48 44  1  0  0  0  0
 49 45  1  0  0  0  0
M  END
>  <minimizedAffinity>
-6.67593193

>  <minimizedRMSD>
0.601503313

$$$$
