
 OpenBabel03272506433D

 35 37  0  0  1  0  0  0  0  0999 V2000
   32.4240   28.3720   47.5250 C   0  0  2  0  0  0  0  0  0  0  0  0
   33.6720   28.4310   48.3900 C   0  0  1  0  0  0  0  0  0  0  0  0
   34.2230   27.1790   48.4140 O   0  0  0  0  0  0  0  0  0  0  0  0
   33.5990   26.3750   47.4720 C   0  0  0  0  0  0  0  0  0  0  0  0
   32.8660   27.3330   46.5240 C   0  0  1  0  0  0  0  0  0  0  0  0
   31.5950   28.0140   48.1640 H   0  0  0  0  0  0  0  0  0  0  0  0
   33.3610   28.8280   49.3670 H   0  0  0  0  0  0  0  0  0  0  0  0
   34.4070   25.8220   46.9420 H   0  0  0  0  0  0  0  0  0  0  0  0
   32.8270   25.7210   47.9060 H   0  0  0  0  0  0  0  0  0  0  0  0
   33.5930   27.7840   45.8520 H   0  0  0  0  0  0  0  0  0  0  0  0
   32.1600   29.6010   46.9450 O   0  0  0  0  0  0  0  0  0  0  0  0
   31.6230   29.5310   46.1280 H   0  0  0  0  0  0  0  0  0  0  0  0
   34.8260   29.5530   47.5400 S   0  0  0  0  0  0  0  0  0  0  0  0
   37.4810   29.5050   50.4840 C   0  0  0  0  0  0  0  0  0  0  0  0
   38.0590   30.7760   50.4770 C   0  0  0  0  0  0  0  0  0  0  0  0
   37.6010   31.6900   49.5090 C   0  0  0  0  0  0  0  0  0  0  0  0
   36.6360   31.2970   48.6460 N   0  0  0  0  0  0  0  0  0  0  0  0
   36.1010   30.0600   48.6840 C   0  0  0  0  0  0  0  0  0  0  0  0
   36.5110   29.1630   49.5910 N   0  0  0  0  0  0  0  0  0  0  0  0
   37.7600   28.7260   51.1870 H   0  0  0  0  0  0  0  0  0  0  0  0
   38.8180   31.0090   51.1930 H   0  0  0  0  0  0  0  0  0  0  0  0
   38.0430   32.6770   49.4950 H   0  0  0  0  0  0  0  0  0  0  0  0
   31.8050   26.6770   45.9290 O   0  0  0  0  0  0  0  0  0  0  0  0
   31.3940   27.9260   43.9030 C   0  0  2  0  0  3  0  0  0  0  0  0
   31.9870   26.7140   44.5470 C   0  0  2  0  0  3  0  0  0  0  0  0
   31.5790   25.5150   43.9860 O   0  0  0  0  0  0  0  0  0  0  0  0
   30.2020   25.4210   43.8390 C   0  0  0  0  0  2  0  0  0  0  0  0
   29.8720   26.3790   42.7100 C   0  0  1  0  0  3  0  0  0  0  0  0
   30.0610   27.7610   43.2710 C   0  0  1  0  0  3  0  0  0  0  0  0
   32.2610   28.4890   42.9630 O   0  0  0  0  0  0  0  0  0  0  0  0
   32.6390   27.7820   42.4140 H   0  0  0  0  0  0  0  0  0  0  0  0
   30.8400   26.1530   41.7120 O   0  0  0  0  0  0  0  0  0  0  0  0
   30.5720   26.5690   40.8550 H   0  0  0  0  0  0  0  0  0  0  0  0
   29.0300   27.9880   44.2030 O   0  0  0  0  0  0  0  0  0  0  0  0
   28.8460   28.9720   44.1860 H   0  0  0  0  0  0  0  0  0  0  0  0
  1  6  1  1  0  0  0
  1  2  1  0  0  0  0
  2  3  1  0  0  0  0
  2  7  1  1  0  0  0
  4  9  1  0  0  0  0
  4  3  1  0  0  0  0
  5 10  1  6  0  0  0
  5  4  1  0  0  0  0
  5  1  1  0  0  0  0
  8  4  1  0  0  0  0
 11  1  1  0  0  0  0
 12 11  1  0  0  0  0
 13  2  1  0  0  0  0
 13 18  1  0  0  0  0
 14 20  1  0  0  0  0
 15 14  1  0  0  0  0
 15 21  1  0  0  0  0
 16 15  2  0  0  0  0
 17 18  2  0  0  0  0
 17 16  1  0  0  0  0
 18 19  1  0  0  0  0
 19 14  2  0  0  0  0
 22 16  1  0  0  0  0
 23  5  1  0  0  0  0
 24 30  1  6  0  0  0
 24 25  1  0  0  0  0
 25 23  1  1  0  0  0
 26 25  1  0  0  0  0
 27 26  1  0  0  0  0
 28 32  1  6  0  0  0
 28 29  1  0  0  0  0
 28 27  1  0  0  0  0
 29 24  1  0  0  0  0
 29 34  1  1  0  0  0
 31 30  1  0  0  0  0
 33 32  1  0  0  0  0
 35 34  1  0  0  0  0
M  END
>  <minimizedAffinity>
-3.85425353

>  <minimizedRMSD>
0.117457733

$$$$
