
 OpenBabel03272503493D

 40 42  0  0  1  0  0  0  0  0999 V2000
   33.1060   27.4240   45.8360 C   0  0  1  0  0  0  0  0  0  0  0  0
   33.9460   27.5040   47.1290 C   0  0  2  0  0  0  0  0  0  0  0  0
   33.8480   26.2500   47.6430 O   0  0  0  0  0  0  0  0  0  0  0  0
   34.0540   25.4060   46.5730 C   0  0  0  0  0  0  0  0  0  0  0  0
   33.4590   26.0410   45.3540 C   0  0  2  0  0  0  0  0  0  0  0  0
   33.5000   28.2140   45.1700 H   0  0  0  0  0  0  0  0  0  0  0  0
   34.9670   27.8350   46.8110 H   0  0  0  0  0  0  0  0  0  0  0  0
   33.4530   24.4790   46.8010 H   0  0  0  0  0  0  0  0  0  0  0  0
   35.0910   25.0560   46.4640 H   0  0  0  0  0  0  0  0  0  0  0  0
   32.5690   25.5140   44.9930 H   0  0  0  0  0  0  0  0  0  0  0  0
   31.7670   27.6140   46.1190 O   0  0  0  0  0  0  0  0  0  0  0  0
   31.4040   26.8060   46.5280 H   0  0  0  0  0  0  0  0  0  0  0  0
   33.3770   28.5160   47.8470 O   0  0  0  0  0  0  0  0  0  0  0  0
   35.3620   29.8760   46.7600 O   0  0  0  0  0  0  0  0  0  0  0  0
   34.1110   30.0130   47.6200 P   0  0  1  0  0  0  0  0  0  0  0  0
   33.0840   31.0330   46.7420 O   0  0  0  0  0  0  0  0  0  0  0  0
   32.1600   30.8190   47.0320 H   0  0  0  0  0  0  0  0  0  0  0  0
   34.4310   30.6530   49.1660 O   0  0  0  0  0  0  0  0  0  0  0  0
   35.6550   30.5180   49.7860 C   0  0  0  0  0  0  0  0  0  0  0  0
   35.9780   29.4960   50.7030 C   0  0  0  0  0  0  0  0  0  0  0  0
   37.2560   29.4910   51.2470 C   0  0  0  0  0  0  0  0  0  0  0  0
   38.1350   30.4740   50.8660 N   0  0  0  0  0  0  0  0  0  0  0  0
   37.7870   31.4450   49.9760 C   0  0  0  0  0  0  0  0  0  0  0  0
   36.5440   31.4720   49.4310 N   0  0  0  0  0  0  0  0  0  0  0  0
   35.1970   28.8100   50.8990 H   0  0  0  0  0  0  0  0  0  0  0  0
   37.4920   28.7190   51.9360 H   0  0  0  0  0  0  0  0  0  0  0  0
   38.5460   32.1790   49.7360 H   0  0  0  0  0  0  0  0  0  0  0  0
   34.3880   26.1270   44.3240 O   0  0  0  0  0  0  0  0  0  0  0  0
   33.7760   26.8630   42.1410 C   0  0  1  0  0  3  0  0  0  0  0  0
   34.2470   27.2450   43.5250 C   0  0  2  0  0  3  0  0  0  0  0  0
   35.5360   27.8130   43.4290 O   0  0  0  0  0  0  0  0  0  0  0  0
   36.3970   26.8400   42.9000 C   0  0  0  0  0  2  0  0  0  0  0  0
   36.1060   26.6710   41.4190 C   0  0  1  0  0  3  0  0  0  0  0  0
   34.7820   27.3380   41.1070 C   0  0  2  0  0  3  0  0  0  0  0  0
   33.7320   25.4620   41.9900 O   0  0  0  0  0  0  0  0  0  0  0  0
   34.3200   25.0070   42.6220 H   0  0  0  0  0  0  0  0  0  0  0  0
   37.1030   27.3050   40.6460 O   0  0  0  0  0  0  0  0  0  0  0  0
   36.7340   27.3770   39.7310 H   0  0  0  0  0  0  0  0  0  0  0  0
   34.9470   28.7200   41.1510 O   0  0  0  0  0  0  0  0  0  0  0  0
   34.0660   29.1240   41.3110 H   0  0  0  0  0  0  0  0  0  0  0  0
  1  6  1  6  0  0  0
  1 11  1  0  0  0  0
  1  2  1  0  0  0  0
  2  7  1  6  0  0  0
  2  3  1  0  0  0  0
  2 13  1  0  0  0  0
  4  8  1  0  0  0  0
  4  3  1  0  0  0  0
  5 10  1  6  0  0  0
  5  1  1  0  0  0  0
  5  4  1  0  0  0  0
  9  4  1  0  0  0  0
 11 12  1  0  0  0  0
 15 14  2  6  0  0  0
 15 13  1  0  0  0  0
 15 18  1  0  0  0  0
 16 17  1  0  0  0  0
 16 15  1  0  0  0  0
 18 19  1  0  0  0  0
 19 20  1  0  0  0  0
 20 25  1  0  0  0  0
 20 21  2  0  0  0  0
 21 26  1  0  0  0  0
 22 21  1  0  0  0  0
 23 22  2  0  0  0  0
 24 19  2  0  0  0  0
 24 23  1  0  0  0  0
 27 23  1  0  0  0  0
 28  5  1  0  0  0  0
 29 35  1  1  0  0  0
 29 30  1  0  0  0  0
 30 28  1  1  0  0  0
 31 30  1  0  0  0  0
 32 31  1  0  0  0  0
 33 37  1  6  0  0  0
 33 32  1  0  0  0  0
 34 39  1  1  0  0  0
 34 33  1  0  0  0  0
 34 29  1  0  0  0  0
 35 36  1  0  0  0  0
 38 37  1  0  0  0  0
 39 40  1  0  0  0  0
M  END
>  <minimizedAffinity>
-4.12422514

>  <minimizedRMSD>
2.54341054

$$$$
