
 OpenBabel03272510243D

 35 38  0  0  1  0  0  0  0  0999 V2000
   36.0160   30.2030   46.7830 C   0  0  0  0  0  0  0  0  0  0  0  0
   37.1510   30.3860   47.5580 C   0  0  0  0  0  0  0  0  0  0  0  0
   38.3640   30.7540   46.9790 C   0  0  0  0  0  0  0  0  0  0  0  0
   38.3690   30.9210   45.5990 C   0  0  0  0  0  0  0  0  0  0  0  0
   39.4070   31.2730   44.7940 N   0  0  0  0  0  0  0  0  0  0  0  0
   38.9470   31.3120   43.5460 C   0  0  0  0  0  0  0  0  0  0  0  0
   37.6600   30.9990   43.5300 N   0  0  0  0  0  0  0  0  0  0  0  0
   37.2520   30.7470   44.7900 C   0  0  0  0  0  0  0  0  0  0  0  0
   36.0600   30.3810   45.3990 C   0  0  0  0  0  0  0  0  0  0  0  0
   35.0510   29.9190   47.1800 H   0  0  0  0  0  0  0  0  0  0  0  0
   39.2280   30.8920   47.5810 H   0  0  0  0  0  0  0  0  0  0  0  0
   40.3920   31.4730   45.1370 H   0  0  0  0  0  0  0  0  0  0  0  0
   35.1840   30.2440   44.7700 H   0  0  0  0  0  0  0  0  0  0  0  0
   37.6970   30.3470   51.2710 C   0  0  0  0  0  0  0  0  0  0  0  0
   37.9450   30.6080   49.9280 C   0  0  0  0  0  0  0  0  0  0  0  0
   37.0120   30.1790   48.9890 C   0  0  0  0  0  0  0  0  0  0  0  0
   35.9040   29.5270   49.4450 N   0  0  0  0  0  0  0  0  0  0  0  0
   35.6910   29.2890   50.7620 C   0  0  0  0  0  0  0  0  0  0  0  0
   36.5860   29.7000   51.6590 N   0  0  0  0  0  0  0  0  0  0  0  0
   38.4230   30.6800   52.0090 H   0  0  0  0  0  0  0  0  0  0  0  0
   38.8260   31.1260   49.5770 H   0  0  0  0  0  0  0  0  0  0  0  0
   34.7750   28.7640   50.9850 H   0  0  0  0  0  0  0  0  0  0  0  0
   39.7510   31.6410   42.4520 O   0  0  0  0  0  0  0  0  0  0  0  0
   40.5050   29.3430   42.2880 C   0  0  1  0  0  0  0  0  0  0  0  0
   40.7550   30.7980   41.9610 C   0  0  1  0  0  0  0  0  0  0  0  0
   40.8520   30.9780   40.5880 O   0  0  0  0  0  0  0  0  0  0  0  0
   41.5200   29.9310   39.9760 C   0  0  0  0  0  0  0  0  0  0  0  0
   40.5880   28.7670   39.8530 C   0  0  2  0  0  0  0  0  0  0  0  0
   39.8040   28.6270   41.1410 C   0  0  2  0  0  0  0  0  0  0  0  0
   41.7260   28.7250   42.6110 O   0  0  0  0  0  0  0  0  0  0  0  0
   42.3260   29.4390   42.9240 H   0  0  0  0  0  0  0  0  0  0  0  0
   41.3240   27.6120   39.5900 O   0  0  0  0  0  0  0  0  0  0  0  0
   41.1570   26.9260   40.2660 H   0  0  0  0  0  0  0  0  0  0  0  0
   38.5410   29.2060   41.0270 O   0  0  0  0  0  0  0  0  0  0  0  0
   37.9040   28.7460   41.6230 H   0  0  0  0  0  0  0  0  0  0  0  0
  1 10  1  0  0  0  0
  1  2  1  0  0  0  0
  2 16  1  0  0  0  0
  3  2  2  0  0  0  0
  3 11  1  0  0  0  0
  4  3  1  0  0  0  0
  5 12  1  0  0  0  0
  5  4  1  0  0  0  0
  6  5  1  0  0  0  0
  7  6  2  0  0  0  0
  7  8  1  0  0  0  0
  8  9  1  0  0  0  0
  8  4  2  0  0  0  0
  9  1  2  0  0  0  0
 13  9  1  0  0  0  0
 14 19  1  0  0  0  0
 14 20  1  0  0  0  0
 15 14  2  0  0  0  0
 16 17  2  0  0  0  0
 16 15  1  0  0  0  0
 17 18  1  0  0  0  0
 18 22  1  0  0  0  0
 18 19  2  0  0  0  0
 21 15  1  0  0  0  0
 23  6  1  0  0  0  0
 24 30  1  6  0  0  0
 25 24  1  0  0  0  0
 25 23  1  6  0  0  0
 26 25  1  0  0  0  0
 27 26  1  0  0  0  0
 28 32  1  1  0  0  0
 28 27  1  0  0  0  0
 28 29  1  0  0  0  0
 29 34  1  6  0  0  0
 29 24  1  0  0  0  0
 30 31  1  0  0  0  0
 32 33  1  0  0  0  0
 34 35  1  0  0  0  0
M  END
>  <minimizedAffinity>
-6.15777636

>  <minimizedRMSD>
3.40456319

$$$$
