
 OpenBabel03272509433D

 41 43  0  0  1  0  0  0  0  0999 V2000
   37.0180   30.9180   49.0820 C   0  0  0  0  0  0  0  0  0  0  0  0
   36.7100   31.8220   50.0990 C   0  0  0  0  0  0  0  0  0  0  0  0
   37.2920   33.0830   50.1570 C   0  0  0  0  0  0  0  0  0  0  0  0
   38.2080   33.4600   49.1720 C   0  0  0  0  0  0  0  0  0  0  0  0
   38.4980   32.5630   48.1840 C   0  0  0  0  0  0  0  0  0  0  0  0
   37.8990   31.3130   48.1580 C   0  0  0  0  0  0  0  0  0  0  0  0
   35.9900   31.5120   50.8620 H   0  0  0  0  0  0  0  0  0  0  0  0
   36.9810   33.6940   50.9840 H   0  0  0  0  0  0  0  0  0  0  0  0
   38.6040   34.4470   49.2950 H   0  0  0  0  0  0  0  0  0  0  0  0
   39.2260   32.9990   47.4960 H   0  0  0  0  0  0  0  0  0  0  0  0
   36.4420   29.5920   49.0440 C   0  0  2  0  0  0  0  0  0  0  0  0
   36.9460   29.0660   48.1450 H   0  0  0  0  0  0  0  0  0  0  0  0
   33.5900   29.9320   46.8190 C   0  0  0  0  0  0  0  0  0  0  0  0
   32.8450   28.7900   47.0520 C   0  0  0  0  0  0  0  0  0  0  0  0
   33.2830   27.9150   48.0280 C   0  0  0  0  0  0  0  0  0  0  0  0
   34.4360   28.2050   48.7280 N   0  0  0  0  0  0  0  0  0  0  0  0
   35.1020   29.3080   48.4570 C   0  0  0  0  0  0  0  0  0  0  0  0
   34.6890   30.1720   47.5130 N   0  0  0  0  0  0  0  0  0  0  0  0
   33.2190   30.5960   46.0490 H   0  0  0  0  0  0  0  0  0  0  0  0
   31.9340   28.4950   46.5450 H   0  0  0  0  0  0  0  0  0  0  0  0
   32.7980   26.9860   48.3150 H   0  0  0  0  0  0  0  0  0  0  0  0
   36.9170   28.8200   49.9590 O   0  0  0  0  0  0  0  0  0  0  0  0
   36.7910   29.1880   50.8910 H   0  0  0  0  0  0  0  0  0  0  0  0
   38.3170   30.4540   47.0740 C   0  0  0  0  0  3  0  0  0  0  0  0
   38.9210   30.8960   45.9650 C   0  0  0  0  0  3  0  0  0  0  0  0
   39.4280   30.1080   44.8170 C   0  0  0  0  0  0  0  0  0  0  0  0
   40.4950   30.3620   44.5610 H   0  0  0  0  0  0  0  0  0  0  0  0
   39.4260   29.0330   45.0760 H   0  0  0  0  0  0  0  0  0  0  0  0
   38.4040   30.4200   43.3750 S   0  0  0  0  0  0  0  0  0  0  0  0
   39.7270   30.7900   41.0650 C   0  0  1  0  0  3  0  0  0  0  0  0
   39.0270   29.7020   41.8600 C   0  0  2  0  0  3  0  0  0  0  0  0
   38.0240   29.0910   41.1220 O   0  0  0  0  0  0  0  0  0  0  0  0
   38.5510   28.7380   39.8750 C   0  0  0  0  0  2  0  0  0  0  0  0
   38.5540   30.0070   39.0520 C   0  0  1  0  0  3  0  0  0  0  0  0
   38.8920   31.2310   39.8720 C   0  0  2  0  0  3  0  0  0  0  0  0
   39.9220   31.9280   41.8500 O   0  0  0  0  0  0  0  0  0  0  0  0
   39.9450   31.7330   42.8210 H   0  0  0  0  0  0  0  0  0  0  0  0
   39.4980   29.9150   38.0540 O   0  0  0  0  0  0  0  0  0  0  0  0
   39.8670   29.0210   37.9570 H   0  0  0  0  0  0  0  0  0  0  0  0
   39.6610   32.1470   39.1550 O   0  0  0  0  0  0  0  0  0  0  0  0
   40.5710   31.8240   38.9790 H   0  0  0  0  0  0  0  0  0  0  0  0
  1  2  1  0  0  0  0
  2  3  2  0  0  0  0
  2  7  1  0  0  0  0
  3  8  1  0  0  0  0
  4  9  1  0  0  0  0
  4  3  1  0  0  0  0
  5  4  2  0  0  0  0
  6  5  1  0  0  0  0
  6  1  2  0  0  0  0
 10  5  1  0  0  0  0
 11 12  1  6  0  0  0
 11  1  1  0  0  0  0
 11 22  1  0  0  0  0
 13 14  2  0  0  0  0
 13 18  1  0  0  0  0
 14 15  1  0  0  0  0
 15 21  1  0  0  0  0
 15 16  2  0  0  0  0
 17 16  1  0  0  0  0
 17 11  1  0  0  0  0
 18 17  2  0  0  0  0
 19 13  1  0  0  0  0
 20 14  1  0  0  0  0
 22 23  1  0  0  0  0
 24  6  1  0  0  0  0
 25 24  2  0  0  0  0
 26 28  1  0  0  0  0
 26 25  1  0  0  0  0
 27 26  1  0  0  0  0
 29 26  1  0  0  0  0
 30 36  1  1  0  0  0
 30 31  1  0  0  0  0
 31 29  1  1  0  0  0
 32 31  1  0  0  0  0
 33 32  1  0  0  0  0
 34 38  1  6  0  0  0
 34 35  1  0  0  0  0
 34 33  1  0  0  0  0
 35 40  1  6  0  0  0
 35 30  1  0  0  0  0
 36 37  1  0  0  0  0
 39 38  1  0  0  0  0
 41 40  1  0  0  0  0
M  END
>  <minimizedAffinity>
-5.61701775

>  <minimizedRMSD>
1.14275897

$$$$
