
 OpenBabel03272505493D

 43 47  0  0  1  0  0  0  0  0999 V2000
   35.8900   30.1620   46.1080 C   0  0  0  0  0  0  0  0  0  0  0  0
   36.3730   30.5990   47.3050 C   0  0  0  0  0  0  0  0  0  0  0  0
   35.7000   30.3210   48.4860 C   0  0  0  0  0  0  0  0  0  0  0  0
   34.5230   29.5840   48.4040 C   0  0  0  0  0  0  0  0  0  0  0  0
   34.0280   29.1340   47.1710 C   0  0  0  0  0  0  0  0  0  0  0  0
   34.7410   29.4480   46.0790 N   0  0  0  0  0  0  0  0  0  0  0  0
   37.2860   31.1670   47.3310 H   0  0  0  0  0  0  0  0  0  0  0  0
   36.0300   30.6360   49.4450 H   0  0  0  0  0  0  0  0  0  0  0  0
   33.9090   29.3020   49.2490 H   0  0  0  0  0  0  0  0  0  0  0  0
   36.6170   30.4610   44.8180 C   0  0  0  0  0  0  0  0  0  0  0  0
   36.3790   29.5690   43.6670 C   0  0  0  0  0  0  0  0  0  0  0  0
   35.7930   30.9640   43.6700 C   0  0  0  0  0  0  0  0  0  0  0  0
   37.1970   29.4050   42.9180 H   0  0  0  0  0  0  0  0  0  0  0  0
   35.7090   28.6920   43.7640 H   0  0  0  0  0  0  0  0  0  0  0  0
   36.2320   31.7530   43.0560 H   0  0  0  0  0  0  0  0  0  0  0  0
   34.7200   31.1090   43.8910 H   0  0  0  0  0  0  0  0  0  0  0  0
   39.2300   33.0670   45.0950 C   0  0  0  0  0  0  0  0  0  0  0  0
   40.3460   32.3390   45.5240 C   0  0  0  0  0  0  0  0  0  0  0  0
   40.1860   30.9380   45.7160 C   0  0  0  0  0  0  0  0  0  0  0  0
   38.9740   30.3860   45.4770 N   0  0  0  0  0  0  0  0  0  0  0  0
   37.9160   31.1250   45.0620 C   0  0  0  0  0  0  0  0  0  0  0  0
   38.0370   32.4520   44.8710 N   0  0  0  0  0  0  0  0  0  0  0  0
   39.2650   34.1330   44.9230 H   0  0  0  0  0  0  0  0  0  0  0  0
   41.2690   32.8580   45.6890 H   0  0  0  0  0  0  0  0  0  0  0  0
   41.0490   30.3730   46.0490 H   0  0  0  0  0  0  0  0  0  0  0  0
   32.8000   28.3600   47.0450 C   0  0  0  0  0  0  0  0  0  0  0  0
   32.3400   27.5860   46.0260 N   0  0  0  0  0  0  0  0  0  0  0  0
   31.1390   27.0730   46.3900 C   0  0  0  0  0  0  0  0  0  0  0  0
   30.8470   27.5290   47.6480 N   0  0  0  0  0  0  0  0  0  0  0  0
   31.8570   28.3000   48.0210 N   0  0  0  0  0  0  0  0  0  0  0  0
   30.4700   26.4190   45.8560 H   0  0  0  0  0  0  0  0  0  0  0  0
   28.4880   26.9360   47.7290 C   0  0  1  0  0  0  0  0  0  0  0  0
   29.7070   27.2980   48.5100 C   0  0  2  0  0  0  0  0  0  0  0  0
   29.4030   28.4230   49.2740 O   0  0  0  0  0  0  0  0  0  0  0  0
   28.6200   28.0870   50.3520 C   0  0  0  0  0  0  0  0  0  0  0  0
   27.8260   26.8310   50.1610 C   0  0  2  0  0  0  0  0  0  0  0  0
   27.3870   26.6250   48.7290 C   0  0  1  0  0  0  0  0  0  0  0  0
   28.0080   27.9920   46.9460 O   0  0  0  0  0  0  0  0  0  0  0  0
   28.0730   28.8410   47.4790 H   0  0  0  0  0  0  0  0  0  0  0  0
   26.6660   26.9420   50.9480 O   0  0  0  0  0  0  0  0  0  0  0  0
   26.9330   27.4520   51.7560 H   0  0  0  0  0  0  0  0  0  0  0  0
   26.2410   27.3870   48.5240 O   0  0  0  0  0  0  0  0  0  0  0  0
   25.5330   26.9000   48.0550 H   0  0  0  0  0  0  0  0  0  0  0  0
  1  2  1  0  0  0  0
  2  7  1  0  0  0  0
  2  3  2  0  0  0  0
  3  8  1  0  0  0  0
  4  3  1  0  0  0  0
  4  9  1  0  0  0  0
  5  4  2  0  0  0  0
  6  1  2  0  0  0  0
  6  5  1  0  0  0  0
 10 21  1  0  0  0  0
 10  1  1  0  0  0  0
 11 12  1  0  0  0  0
 11 14  1  0  0  0  0
 11 10  1  0  0  0  0
 12 16  1  0  0  0  0
 12 10  1  0  0  0  0
 13 11  1  0  0  0  0
 15 12  1  0  0  0  0
 17 18  1  0  0  0  0
 18 24  1  0  0  0  0
 18 19  2  0  0  0  0
 19 25  1  0  0  0  0
 20 19  1  0  0  0  0
 21 20  2  0  0  0  0
 22 21  1  0  0  0  0
 22 17  2  0  0  0  0
 23 17  1  0  0  0  0
 26  5  1  0  0  0  0
 26 30  2  0  0  0  0
 27 28  2  0  0  0  0
 27 26  1  0  0  0  0
 28 29  1  0  0  0  0
 29 30  1  0  0  0  0
 31 28  1  0  0  0  0
 32 38  1  6  0  0  0
 32 33  1  0  0  0  0
 32 37  1  0  0  0  0
 33 29  1  6  0  0  0
 33 34  1  0  0  0  0
 34 35  1  0  0  0  0
 36 35  1  0  0  0  0
 36 40  1  1  0  0  0
 37 42  1  6  0  0  0
 37 36  1  0  0  0  0
 38 39  1  0  0  0  0
 40 41  1  0  0  0  0
 43 42  1  0  0  0  0
M  END
>  <minimizedAffinity>
-6.7974534

>  <minimizedRMSD>
1.4704591

$$$$
