
 OpenBabel03272509573D

 49 52  0  0  1  0  0  0  0  0999 V2000
   33.5730   27.5450   47.6770 C   0  0  0  0  0  0  0  0  0  0  0  0
   33.8070   27.3930   46.5880 H   0  0  0  0  0  0  0  0  0  0  0  0
   33.7670   26.5650   48.1510 H   0  0  0  0  0  0  0  0  0  0  0  0
   32.1280   27.8910   47.7190 C   0  0  0  0  0  0  0  0  0  0  0  0
   31.3660   27.3920   48.7700 C   0  0  0  0  0  0  0  0  0  0  0  0
   30.0310   27.6630   48.8840 C   0  0  0  0  0  0  0  0  0  0  0  0
   29.4440   28.4230   47.9650 N   0  0  0  0  0  0  0  0  0  0  0  0
   30.1940   28.9120   46.9340 C   0  0  0  0  0  0  0  0  0  0  0  0
   31.5050   28.6640   46.7950 N   0  0  0  0  0  0  0  0  0  0  0  0
   31.8020   26.7660   49.5460 H   0  0  0  0  0  0  0  0  0  0  0  0
   29.4500   27.2640   49.7120 H   0  0  0  0  0  0  0  0  0  0  0  0
   29.4900   29.7550   45.9360 C   0  0  0  0  0  0  0  0  0  0  0  0
   28.7970   30.4560   46.4270 H   0  0  0  0  0  0  0  0  0  0  0  0
   30.1640   30.3730   45.3140 H   0  0  0  0  0  0  0  0  0  0  0  0
   27.1990   29.3320   45.0260 C   0  0  2  0  0  3  0  0  0  0  0  0
   28.6290   28.8400   45.0910 C   0  0  1  0  0  3  0  0  0  0  0  0
   29.0870   28.7600   43.7790 O   0  0  0  0  0  0  0  0  0  0  0  0
   28.6640   27.5390   43.2620 C   0  0  0  0  0  2  0  0  0  0  0  0
   27.2830   27.1630   43.7410 C   0  0  1  0  0  3  0  0  0  0  0  0
   26.4570   28.3760   44.1050 C   0  0  1  0  0  3  0  0  0  0  0  0
   27.2210   30.6190   44.4720 O   0  0  0  0  0  0  0  0  0  0  0  0
   26.8420   30.5920   43.5480 H   0  0  0  0  0  0  0  0  0  0  0  0
   26.6330   26.5300   42.6780 O   0  0  0  0  0  0  0  0  0  0  0  0
   26.5940   25.5320   42.8110 H   0  0  0  0  0  0  0  0  0  0  0  0
   25.3630   27.8910   44.8250 O   0  0  0  0  0  0  0  0  0  0  0  0
   24.5410   27.9060   44.2790 H   0  0  0  0  0  0  0  0  0  0  0  0
   34.4500   28.6540   48.1650 C   0  0  0  0  0  0  0  0  0  0  0  0
   33.8090   29.5650   48.2660 H   0  0  0  0  0  0  0  0  0  0  0  0
   35.2480   28.9370   47.4250 H   0  0  0  0  0  0  0  0  0  0  0  0
   34.9960   28.3690   49.4400 O   0  0  0  0  0  0  0  0  0  0  0  0
   37.3330   30.1730   51.5180 C   0  0  0  0  0  0  0  0  0  0  0  0
   38.0630   30.8600   50.5150 C   0  0  0  0  0  0  0  0  0  0  0  0
   37.7040   30.6580   49.1970 C   0  0  0  0  0  0  0  0  0  0  0  0
   36.6650   29.8040   48.9740 N   0  0  0  0  0  0  0  0  0  0  0  0
   35.9830   29.1600   49.9200 C   0  0  0  0  0  0  0  0  0  0  0  0
   36.3300   29.3530   51.2120 N   0  0  0  0  0  0  0  0  0  0  0  0
   37.6660   30.3760   52.5260 H   0  0  0  0  0  0  0  0  0  0  0  0
   38.8780   31.5290   50.7140 H   0  0  0  0  0  0  0  0  0  0  0  0
   38.9350   33.2730   49.0160 F   0  0  0  0  0  0  0  0  0  0  0  0
   38.9170   32.4860   47.9460 C   0  0  0  0  0  0  0  0  0  0  0  0
   38.3410   31.2790   48.0530 C   0  0  0  0  0  0  0  0  0  0  0  0
   38.3700   30.5230   46.8700 C   0  0  0  0  0  0  0  0  0  0  0  0
   38.9430   30.9930   45.7180 C   0  0  0  0  0  0  0  0  0  0  0  0
   39.5210   32.2420   45.6650 C   0  0  0  0  0  0  0  0  0  0  0  0
   39.4970   32.9810   46.8000 C   0  0  0  0  0  0  0  0  0  0  0  0
   37.9410   29.5280   46.8160 H   0  0  0  0  0  0  0  0  0  0  0  0
   38.9550   30.3880   44.8110 H   0  0  0  0  0  0  0  0  0  0  0  0
   39.9760   32.6260   44.7610 H   0  0  0  0  0  0  0  0  0  0  0  0
   39.9480   33.9690   46.7820 H   0  0  0  0  0  0  0  0  0  0  0  0
  1  4  1  0  0  0  0
  1  3  1  0  0  0  0
  1 27  1  0  0  0  0
  2  1  1  0  0  0  0
  4  5  1  0  0  0  0
  5  6  2  0  0  0  0
  5 10  1  0  0  0  0
  6 11  1  0  0  0  0
  7  6  1  0  0  0  0
  8  7  2  0  0  0  0
  9  8  1  0  0  0  0
  9  4  2  0  0  0  0
 12 13  1  0  0  0  0
 12  8  1  0  0  0  0
 14 12  1  0  0  0  0
 15 21  1  6  0  0  0
 15 16  1  0  0  0  0
 16 12  1  1  0  0  0
 17 16  1  0  0  0  0
 18 19  1  0  0  0  0
 18 17  1  0  0  0  0
 19 23  1  6  0  0  0
 19 20  1  0  0  0  0
 20 25  1  1  0  0  0
 20 15  1  0  0  0  0
 22 21  1  0  0  0  0
 23 24  1  0  0  0  0
 26 25  1  0  0  0  0
 27 28  1  0  0  0  0
 27 30  1  0  0  0  0
 29 27  1  0  0  0  0
 30 35  1  0  0  0  0
 31 37  1  0  0  0  0
 32 38  1  0  0  0  0
 32 31  2  0  0  0  0
 33 32  1  0  0  0  0
 34 33  2  0  0  0  0
 34 35  1  0  0  0  0
 35 36  2  0  0  0  0
 36 31  1  0  0  0  0
 40 41  1  0  0  0  0
 40 39  1  0  0  0  0
 41 33  1  0  0  0  0
 42 41  2  0  0  0  0
 43 42  1  0  0  0  0
 44 43  2  0  0  0  0
 44 45  1  0  0  0  0
 45 40  2  0  0  0  0
 46 42  1  0  0  0  0
 47 43  1  0  0  0  0
 48 44  1  0  0  0  0
 49 45  1  0  0  0  0
M  END
>  <minimizedAffinity>
-6.85597134

>  <minimizedRMSD>
0.474108666

$$$$
