
 OpenBabel03272509453D

 22 23  0  0  1  0  0  0  0  0999 V2000
   33.3750   28.0620   49.0040 C   0  0  2  0  0  3  0  0  0  0  0  0
   34.4390   28.0570   47.9540 C   0  0  1  0  0  3  0  0  0  0  0  0
   34.0060   27.6090   46.7170 O   0  0  0  0  0  0  0  0  0  0  0  0
   32.8730   28.2390   46.2470 C   0  0  0  0  0  2  0  0  0  0  0  0
   31.6700   28.0440   47.1420 C   0  0  1  0  0  3  0  0  0  0  0  0
   32.0370   27.5440   48.4950 C   0  0  2  0  0  3  0  0  0  0  0  0
   33.2130   29.3320   49.5950 O   0  0  0  0  0  0  0  0  0  0  0  0
   33.4910   30.0590   48.9850 H   0  0  0  0  0  0  0  0  0  0  0  0
   30.9530   29.2500   47.2570 O   0  0  0  0  0  0  0  0  0  0  0  0
   31.6050   29.9600   47.4650 H   0  0  0  0  0  0  0  0  0  0  0  0
   31.0350   27.9370   49.3790 O   0  0  0  0  0  0  0  0  0  0  0  0
   31.3040   28.7200   49.9110 H   0  0  0  0  0  0  0  0  0  0  0  0
   35.0980   29.3090   47.7980 O   0  0  0  0  0  0  0  0  0  0  0  0
   37.5000   29.5720   50.5190 C   0  0  0  0  0  0  0  0  0  0  0  0
   37.9810   30.8750   50.3000 C   0  0  0  0  0  0  0  0  0  0  0  0
   37.4440   31.5950   49.2160 C   0  0  0  0  0  0  0  0  0  0  0  0
   36.4800   30.9860   48.4330 N   0  0  0  0  0  0  0  0  0  0  0  0
   36.0610   29.7350   48.6930 C   0  0  0  0  0  0  0  0  0  0  0  0
   36.5630   29.0290   49.7250 N   0  0  0  0  0  0  0  0  0  0  0  0
   37.8630   28.9540   51.3310 H   0  0  0  0  0  0  0  0  0  0  0  0
   38.7310   31.2830   50.9510 H   0  0  0  0  0  0  0  0  0  0  0  0
   37.7790   32.5840   49.0150 H   0  0  0  0  0  0  0  0  0  0  0  0
  1  7  1  6  0  0  0
  2 13  1  6  0  0  0
  2  1  1  0  0  0  0
  3  2  1  0  0  0  0
  4  3  1  0  0  0  0
  4  5  1  0  0  0  0
  5  9  1  1  0  0  0
  5  6  1  0  0  0  0
  6  1  1  0  0  0  0
  6 11  1  1  0  0  0
  8  7  1  0  0  0  0
  9 10  1  0  0  0  0
 11 12  1  0  0  0  0
 13 18  1  0  0  0  0
 14 20  1  0  0  0  0
 15 14  1  0  0  0  0
 15 21  1  0  0  0  0
 16 15  2  0  0  0  0
 17 18  2  0  0  0  0
 17 16  1  0  0  0  0
 18 19  1  0  0  0  0
 19 14  2  0  0  0  0
 22 16  1  0  0  0  0
M  END
>  <minimizedAffinity>
-4.83288002

>  <minimizedRMSD>
2.31876278

$$$$
