
 OpenBabel03272504573D

 36 38  0  0  1  0  0  0  0  0999 V2000
   37.0470   31.5490   48.6300 C   0  0  1  0  0  0  0  0  0  0  0  0
   36.3240   30.8620   47.5880 C   0  0  0  0  0  0  0  0  0  0  0  0
   37.2750   30.1140   48.4650 C   0  0  2  0  0  0  0  0  0  0  0  0
   36.5620   31.8310   49.6300 H   0  0  0  0  0  0  0  0  0  0  0  0
   35.2820   31.0890   47.7060 H   0  0  0  0  0  0  0  0  0  0  0  0
   36.6650   31.0410   46.5470 H   0  0  0  0  0  0  0  0  0  0  0  0
   38.0000   29.5920   47.8710 H   0  0  0  0  0  0  0  0  0  0  0  0
   38.1920   32.4620   48.3020 C   0  0  0  0  0  0  0  0  0  0  0  0
   38.5360   33.4050   49.3050 C   0  0  0  0  0  0  0  0  0  0  0  0
   39.5900   34.2260   48.9700 C   0  0  0  0  0  0  0  0  0  0  0  0
   40.2130   34.0970   47.7610 N   0  0  0  0  0  0  0  0  0  0  0  0
   39.8470   33.1800   46.8350 C   0  0  0  0  0  0  0  0  0  0  0  0
   38.8040   32.3510   47.1400 N   0  0  0  0  0  0  0  0  0  0  0  0
   40.4840   33.0550   45.5970 N   0  0  0  0  0  0  0  0  0  0  0  0
   38.0530   33.5050   50.2450 H   0  0  0  0  0  0  0  0  0  0  0  0
   39.8950   34.9640   49.6960 H   0  0  0  0  0  0  0  0  0  0  0  0
   41.3570   33.6380   45.4450 H   0  0  0  0  0  0  0  0  0  0  0  0
   40.1040   32.4150   44.8670 H   0  0  0  0  0  0  0  0  0  0  0  0
   36.6750   29.3050   49.4440 O   0  0  0  0  0  0  0  0  0  0  0  0
   34.6500   27.7450   49.7500 O   0  0  0  0  0  0  0  0  0  0  0  0
   35.0870   28.9880   49.0460 P   0  0  1  0  0  0  0  0  0  0  0  0
   34.0840   30.2530   49.6780 O   0  0  0  0  0  0  0  0  0  0  0  0
   34.5660   30.6890   50.4330 H   0  0  0  0  0  0  0  0  0  0  0  0
   34.9430   28.9200   47.3760 O   0  0  0  0  0  0  0  0  0  0  0  0
   32.6140   29.0550   47.3610 C   0  0  2  0  0  3  0  0  0  0  0  0
   33.8230   28.2580   46.9360 C   0  0  1  0  0  3  0  0  0  0  0  0
   33.8550   27.9730   45.5750 O   0  0  0  0  0  0  0  0  0  0  0  0
   32.7440   27.1300   45.3450 C   0  0  0  0  0  2  0  0  0  0  0  0
   31.5420   28.0790   45.4090 C   0  0  1  0  0  3  0  0  0  0  0  0
   31.3660   28.3530   46.9060 C   0  0  2  0  0  3  0  0  0  0  0  0
   32.6080   30.3220   46.7500 O   0  0  0  0  0  0  0  0  0  0  0  0
   32.8640   30.9680   47.4330 H   0  0  0  0  0  0  0  0  0  0  0  0
   31.9330   29.2860   44.8320 O   0  0  0  0  0  0  0  0  0  0  0  0
   31.1820   29.6240   44.3070 H   0  0  0  0  0  0  0  0  0  0  0  0
   30.2210   29.0930   47.1420 O   0  0  0  0  0  0  0  0  0  0  0  0
   30.4260   30.0470   46.9130 H   0  0  0  0  0  0  0  0  0  0  0  0
  1  4  1  1  0  0  0
  2  5  1  0  0  0  0
  2  3  1  0  0  0  0
  2  1  1  0  0  0  0
  3  7  1  6  0  0  0
  3  1  1  0  0  0  0
  3 19  1  0  0  0  0
  6  2  1  0  0  0  0
  8  1  1  0  0  0  0
  8  9  1  0  0  0  0
  9 15  1  0  0  0  0
 10  9  2  0  0  0  0
 10 16  1  0  0  0  0
 11 10  1  0  0  0  0
 12 13  1  0  0  0  0
 12 11  2  0  0  0  0
 13  8  2  0  0  0  0
 14 12  1  0  0  0  0
 17 14  1  0  0  0  0
 18 14  1  0  0  0  0
 21 19  1  0  0  0  0
 21 22  1  0  0  0  0
 21 20  2  1  0  0  0
 22 23  1  0  0  0  0
 24 21  1  0  0  0  0
 25 31  1  6  0  0  0
 26 25  1  0  0  0  0
 26 24  1  6  0  0  0
 27 26  1  0  0  0  0
 28 29  1  0  0  0  0
 28 27  1  0  0  0  0
 29 33  1  6  0  0  0
 29 30  1  0  0  0  0
 30 35  1  6  0  0  0
 30 25  1  0  0  0  0
 31 32  1  0  0  0  0
 34 33  1  0  0  0  0
 36 35  1  0  0  0  0
M  END
>  <minimizedAffinity>
-5.27710533

>  <minimizedRMSD>
0.544582784

$$$$
