
 OpenBabel03272506393D

 40 42  0  0  1  0  0  0  0  0999 V2000
   34.9000   28.6320   50.0980 O   0  0  0  0  0  0  0  0  0  0  0  0
   34.6680   28.9760   48.9320 C   0  0  0  0  0  0  0  0  0  0  0  0
   35.3720   30.0820   48.3200 C   0  0  2  0  0  0  0  0  0  0  0  0
   34.8640   29.9940   46.8430 C   0  0  0  0  0  0  0  0  0  0  0  0
   33.5260   29.3200   46.9990 C   0  0  0  0  0  0  0  0  0  0  0  0
   33.7120   28.3480   48.0680 N   0  0  0  0  0  0  0  0  0  0  0  0
   35.1460   31.0770   48.6940 H   0  0  0  0  0  0  0  0  0  0  0  0
   34.7250   31.0290   46.4800 H   0  0  0  0  0  0  0  0  0  0  0  0
   35.5530   29.3800   46.2580 H   0  0  0  0  0  0  0  0  0  0  0  0
   32.7700   30.0900   47.2770 H   0  0  0  0  0  0  0  0  0  0  0  0
   33.2170   28.8530   46.0530 H   0  0  0  0  0  0  0  0  0  0  0  0
   33.0500   27.0790   48.1670 C   0  0  0  0  0  0  0  0  0  0  0  0
   33.5190   26.5710   49.0620 H   0  0  0  0  0  0  0  0  0  0  0  0
   33.3480   26.4650   47.3060 H   0  0  0  0  0  0  0  0  0  0  0  0
   30.7830   27.4750   47.1150 C   0  0  2  0  0  0  0  0  0  0  0  0
   31.5670   27.1440   48.3350 C   0  0  2  0  0  0  0  0  0  0  0  0
   31.1980   28.0070   49.3710 O   0  0  0  0  0  0  0  0  0  0  0  0
   29.9720   27.5970   49.9160 C   0  0  0  0  0  0  0  0  0  0  0  0
   29.0460   27.1430   48.7960 C   0  0  2  0  0  0  0  0  0  0  0  0
   29.3990   27.9140   47.5230 C   0  0  1  0  0  0  0  0  0  0  0  0
   30.7390   26.4260   46.1940 O   0  0  0  0  0  0  0  0  0  0  0  0
   30.5250   26.7560   45.2840 H   0  0  0  0  0  0  0  0  0  0  0  0
   27.7470   27.4250   49.1970 O   0  0  0  0  0  0  0  0  0  0  0  0
   27.3150   28.1260   48.6650 H   0  0  0  0  0  0  0  0  0  0  0  0
   29.2860   29.2680   47.6950 O   0  0  0  0  0  0  0  0  0  0  0  0
   29.9120   29.7770   47.1190 H   0  0  0  0  0  0  0  0  0  0  0  0
   36.7870   29.9170   48.2520 O   0  0  0  0  0  0  0  0  0  0  0  0
   37.5760   31.0670   48.3060 C   0  0  0  0  0  0  0  0  0  0  0  0
   37.7260   31.6660   49.5440 C   0  0  0  0  0  0  0  0  0  0  0  0
   38.5040   32.8090   49.6240 C   0  0  0  0  0  0  0  0  0  0  0  0
   39.0810   33.2920   48.4910 N   0  0  0  0  0  0  0  0  0  0  0  0
   38.9210   32.6910   47.2870 C   0  0  0  0  0  0  0  0  0  0  0  0
   38.1770   31.6000   47.2180 N   0  0  0  0  0  0  0  0  0  0  0  0
   40.4430   32.3100   45.5160 C   0  0  0  0  0  0  0  0  0  0  0  0
   40.7330   31.1340   45.8850 O   0  0  0  0  0  0  0  0  0  0  0  0
   39.5410   33.2300   46.1240 N   0  0  0  0  0  0  0  0  0  0  0  0
   37.2840   31.3100   50.4630 H   0  0  0  0  0  0  0  0  0  0  0  0
   38.6360   33.2950   50.5890 H   0  0  0  0  0  0  0  0  0  0  0  0
   40.9910   32.5800   44.6140 H   0  0  0  0  0  0  0  0  0  0  0  0
   39.3990   34.1870   45.7010 H   0  0  0  0  0  0  0  0  0  0  0  0
  2  1  2  0  0  0  0
  3  7  1  1  0  0  0
  3  2  1  0  0  0  0
  4  5  1  0  0  0  0
  4  3  1  0  0  0  0
  5 10  1  0  0  0  0
  5  6  1  0  0  0  0
  6 12  1  0  0  0  0
  6  2  1  0  0  0  0
  8  4  1  0  0  0  0
  9  4  1  0  0  0  0
 11  5  1  0  0  0  0
 12 13  1  0  0  0  0
 14 12  1  0  0  0  0
 15 21  1  6  0  0  0
 15 20  1  0  0  0  0
 15 16  1  0  0  0  0
 16 12  1  6  0  0  0
 16 17  1  0  0  0  0
 17 18  1  0  0  0  0
 19 23  1  1  0  0  0
 19 18  1  0  0  0  0
 20 25  1  1  0  0  0
 20 19  1  0  0  0  0
 22 21  1  0  0  0  0
 24 23  1  0  0  0  0
 26 25  1  0  0  0  0
 27 28  1  0  0  0  0
 27  3  1  0  0  0  0
 28 29  1  0  0  0  0
 29 30  2  0  0  0  0
 29 37  1  0  0  0  0
 30 38  1  0  0  0  0
 31 30  1  0  0  0  0
 32 31  2  0  0  0  0
 33 32  1  0  0  0  0
 33 28  2  0  0  0  0
 34 35  2  0  0  0  0
 34 36  1  0  0  0  0
 36 32  1  0  0  0  0
 39 34  1  0  0  0  0
 40 36  1  0  0  0  0
M  END
>  <minimizedAffinity>
-6.73135138

>  <minimizedRMSD>
1.48444128

$$$$
