
 OpenBabel03272510243D

 35 38  0  0  1  0  0  0  0  0999 V2000
   36.0990   30.0400   46.8010 C   0  0  0  0  0  0  0  0  0  0  0  0
   36.9910   30.7320   47.6070 C   0  0  0  0  0  0  0  0  0  0  0  0
   37.8490   31.6900   47.0690 C   0  0  0  0  0  0  0  0  0  0  0  0
   37.7590   31.9050   45.6990 C   0  0  0  0  0  0  0  0  0  0  0  0
   38.4730   32.7720   44.9310 N   0  0  0  0  0  0  0  0  0  0  0  0
   38.0490   32.6350   43.6780 C   0  0  0  0  0  0  0  0  0  0  0  0
   37.0960   31.7170   43.6220 N   0  0  0  0  0  0  0  0  0  0  0  0
   36.8790   31.2310   44.8610 C   0  0  0  0  0  0  0  0  0  0  0  0
   36.0380   30.2840   45.4290 C   0  0  0  0  0  0  0  0  0  0  0  0
   35.4120   29.2880   47.1660 H   0  0  0  0  0  0  0  0  0  0  0  0
   38.5290   32.2150   47.6940 H   0  0  0  0  0  0  0  0  0  0  0  0
   39.2250   33.4250   45.3030 H   0  0  0  0  0  0  0  0  0  0  0  0
   35.3480   29.7550   44.7760 H   0  0  0  0  0  0  0  0  0  0  0  0
   37.8830   30.3940   51.2370 C   0  0  0  0  0  0  0  0  0  0  0  0
   38.0080   30.7590   49.9000 C   0  0  0  0  0  0  0  0  0  0  0  0
   36.9840   30.4120   49.0240 C   0  0  0  0  0  0  0  0  0  0  0  0
   35.9160   29.7320   49.5290 N   0  0  0  0  0  0  0  0  0  0  0  0
   35.8250   29.3910   50.8380 C   0  0  0  0  0  0  0  0  0  0  0  0
   36.8050   29.7240   51.6750 N   0  0  0  0  0  0  0  0  0  0  0  0
   38.6790   30.6620   51.9270 H   0  0  0  0  0  0  0  0  0  0  0  0
   38.8580   31.2980   49.5100 H   0  0  0  0  0  0  0  0  0  0  0  0
   34.9270   28.8540   51.1050 H   0  0  0  0  0  0  0  0  0  0  0  0
   38.5700   33.3790   42.6160 O   0  0  0  0  0  0  0  0  0  0  0  0
   37.1110   32.4710   40.9070 C   0  0  1  0  0  3  0  0  0  0  0  0
   38.4900   32.9650   41.2810 C   0  0  1  0  0  3  0  0  0  0  0  0
   38.8640   34.0240   40.4660 O   0  0  0  0  0  0  0  0  0  0  0  0
   38.4470   33.8420   39.1590 C   0  0  0  0  0  2  0  0  0  0  0  0
   36.9880   34.1630   39.0670 C   0  0  2  0  0  3  0  0  0  0  0  0
   36.2790   33.5750   40.2680 C   0  0  2  0  0  3  0  0  0  0  0  0
   37.2330   31.3600   40.0560 O   0  0  0  0  0  0  0  0  0  0  0  0
   38.1130   30.9610   40.2410 H   0  0  0  0  0  0  0  0  0  0  0  0
   36.4740   33.6440   37.8790 O   0  0  0  0  0  0  0  0  0  0  0  0
   35.7310   33.0330   38.0550 H   0  0  0  0  0  0  0  0  0  0  0  0
   36.0740   34.5370   41.2560 O   0  0  0  0  0  0  0  0  0  0  0  0
   35.2690   34.3170   41.7790 H   0  0  0  0  0  0  0  0  0  0  0  0
  1 10  1  0  0  0  0
  1  2  1  0  0  0  0
  2 16  1  0  0  0  0
  3  2  2  0  0  0  0
  3 11  1  0  0  0  0
  4  3  1  0  0  0  0
  5 12  1  0  0  0  0
  5  4  1  0  0  0  0
  6  5  1  0  0  0  0
  7  6  2  0  0  0  0
  7  8  1  0  0  0  0
  8  9  1  0  0  0  0
  8  4  2  0  0  0  0
  9  1  2  0  0  0  0
 13  9  1  0  0  0  0
 14 19  1  0  0  0  0
 14 20  1  0  0  0  0
 15 14  2  0  0  0  0
 16 17  2  0  0  0  0
 16 15  1  0  0  0  0
 17 18  1  0  0  0  0
 18 22  1  0  0  0  0
 18 19  2  0  0  0  0
 21 15  1  0  0  0  0
 23  6  1  0  0  0  0
 24 30  1  6  0  0  0
 24 25  1  0  0  0  0
 25 23  1  1  0  0  0
 26 25  1  0  0  0  0
 27 26  1  0  0  0  0
 28 32  1  6  0  0  0
 28 27  1  0  0  0  0
 28 29  1  0  0  0  0
 29 24  1  0  0  0  0
 29 34  1  1  0  0  0
 30 31  1  0  0  0  0
 32 33  1  0  0  0  0
 34 35  1  0  0  0  0
M  END
>  <minimizedAffinity>
-5.46617174

>  <minimizedRMSD>
2.01358128

$$$$
