
 OpenBabel03272503483D

 27 28  0  0  1  0  0  0  0  0999 V2000
   39.9870   26.8350   35.1250 O   0  0  0  0  0  0  0  0  0  0  0  0
   38.4760   26.8710   34.9820 P   0  0  2  0  0  0  0  0  0  0  0  0
   37.9140   28.1050   35.9770 O   0  0  0  0  0  0  0  0  0  0  0  0
   38.2080   28.9740   35.6000 H   0  0  0  0  0  0  0  0  0  0  0  0
   37.7500   25.3860   35.4570 O   0  0  0  0  0  0  0  0  0  0  0  0
   38.3580   24.5210   36.3670 C   0  0  0  0  0  0  0  0  0  0  0  0
   38.0190   24.3880   37.7250 C   0  0  0  0  0  0  0  0  0  0  0  0
   38.7410   23.4710   38.4690 C   0  0  0  0  0  0  0  0  0  0  0  0
   39.7280   22.7460   37.8860 N   0  0  0  0  0  0  0  0  0  0  0  0
   40.0300   22.9020   36.5620 C   0  0  0  0  0  0  0  0  0  0  0  0
   39.3350   23.7940   35.8150 N   0  0  0  0  0  0  0  0  0  0  0  0
   37.2150   25.0230   38.0650 H   0  0  0  0  0  0  0  0  0  0  0  0
   38.4380   23.4180   39.4870 H   0  0  0  0  0  0  0  0  0  0  0  0
   40.8300   22.2880   36.1680 H   0  0  0  0  0  0  0  0  0  0  0  0
   38.0350   27.1220   33.3570 O   0  0  0  0  0  0  0  0  0  0  0  0
   36.5860   25.9190   31.8760 C   0  0  2  0  0  3  0  0  0  0  0  0
   37.7300   25.8520   32.8380 C   0  0  1  0  0  3  0  0  0  0  0  0
   38.8980   25.3310   32.3200 O   0  0  0  0  0  0  0  0  0  0  0  0
   38.8800   25.0890   30.9660 C   0  0  0  0  0  2  0  0  0  0  0  0
   37.7680   24.1900   30.5030 C   0  0  2  0  0  3  0  0  0  0  0  0
   36.4730   24.6610   31.0810 C   0  0  1  0  0  3  0  0  0  0  0  0
   36.6100   27.0560   31.0720 O   0  0  0  0  0  0  0  0  0  0  0  0
   37.0500   27.7750   31.5900 H   0  0  0  0  0  0  0  0  0  0  0  0
   38.0080   22.8580   30.8180 O   0  0  0  0  0  0  0  0  0  0  0  0
   38.8260   22.7170   31.3570 H   0  0  0  0  0  0  0  0  0  0  0  0
   35.8940   23.6960   31.9210 O   0  0  0  0  0  0  0  0  0  0  0  0
   36.5240   23.0040   32.1760 H   0  0  0  0  0  0  0  0  0  0  0  0
  2  1  2  1  0  0  0
  2  5  1  0  0  0  0
  2  3  1  0  0  0  0
  4  3  1  0  0  0  0
  5  6  1  0  0  0  0
  6  7  1  0  0  0  0
  7 12  1  0  0  0  0
  7  8  2  0  0  0  0
  8 13  1  0  0  0  0
  9  8  1  0  0  0  0
 10  9  2  0  0  0  0
 11  6  2  0  0  0  0
 11 10  1  0  0  0  0
 14 10  1  0  0  0  0
 15  2  1  0  0  0  0
 16 22  1  6  0  0  0
 16 17  1  0  0  0  0
 17 15  1  6  0  0  0
 18 17  1  0  0  0  0
 19 18  1  0  0  0  0
 20 24  1  1  0  0  0
 20 19  1  0  0  0  0
 20 21  1  0  0  0  0
 21 16  1  0  0  0  0
 21 26  1  1  0  0  0
 22 23  1  0  0  0  0
 24 25  1  0  0  0  0
 26 27  1  0  0  0  0
M  END
>  <minimizedAffinity>
-4.96892738

$$$$

 OpenBabel03272503483D

 27 28  0  0  1  0  0  0  0  0999 V2000
   39.1060   20.6580   32.8650 O   0  0  0  0  0  0  0  0  0  0  0  0
   38.3780   21.9840   32.9990 P   0  0  2  0  0  0  0  0  0  0  0  0
   36.9080   21.6670   33.7520 O   0  0  0  0  0  0  0  0  0  0  0  0
   37.0850   21.3980   34.6890 H   0  0  0  0  0  0  0  0  0  0  0  0
   38.0860   22.7120   31.4690 O   0  0  0  0  0  0  0  0  0  0  0  0
   37.3350   23.8800   31.3350 C   0  0  0  0  0  0  0  0  0  0  0  0
   37.8550   25.1830   31.2380 C   0  0  0  0  0  0  0  0  0  0  0  0
   36.9460   26.2180   31.1100 C   0  0  0  0  0  0  0  0  0  0  0  0
   35.6150   25.9570   31.0820 N   0  0  0  0  0  0  0  0  0  0  0  0
   35.1460   24.6760   31.1780 C   0  0  0  0  0  0  0  0  0  0  0  0
   36.0190   23.6490   31.3040 N   0  0  0  0  0  0  0  0  0  0  0  0
   38.9330   25.2550   31.2740 H   0  0  0  0  0  0  0  0  0  0  0  0
   37.4010   27.1770   31.0420 H   0  0  0  0  0  0  0  0  0  0  0  0
   34.0710   24.5470   31.1480 H   0  0  0  0  0  0  0  0  0  0  0  0
   39.3150   23.0930   33.8880 O   0  0  0  0  0  0  0  0  0  0  0  0
   40.5590   22.9720   35.9320 C   0  0  2  0  0  3  0  0  0  0  0  0
   39.2840   22.6450   35.2200 C   0  0  1  0  0  3  0  0  0  0  0  0
   38.1440   23.1640   35.7990 O   0  0  0  0  0  0  0  0  0  0  0  0
   38.3610   24.0200   36.8540 C   0  0  0  0  0  2  0  0  0  0  0  0
   39.1850   23.4430   37.9710 C   0  0  2  0  0  3  0  0  0  0  0  0
   40.4120   22.8050   37.4080 C   0  0  1  0  0  3  0  0  0  0  0  0
   41.0790   24.2160   35.5850 O   0  0  0  0  0  0  0  0  0  0  0  0
   40.8040   24.4030   34.6540 H   0  0  0  0  0  0  0  0  0  0  0  0
   38.4590   22.5450   38.7460 O   0  0  0  0  0  0  0  0  0  0  0  0
   37.5470   22.3700   38.4030 H   0  0  0  0  0  0  0  0  0  0  0  0
   40.4540   21.4270   37.6710 O   0  0  0  0  0  0  0  0  0  0  0  0
   39.5930   21.0790   37.9500 H   0  0  0  0  0  0  0  0  0  0  0  0
  2  1  2  6  0  0  0
  2  3  1  0  0  0  0
  2 15  1  0  0  0  0
  3  4  1  0  0  0  0
  5  2  1  0  0  0  0
  6  5  1  0  0  0  0
  7 12  1  0  0  0  0
  7  6  2  0  0  0  0
  8  7  1  0  0  0  0
  9  8  2  0  0  0  0
  9 10  1  0  0  0  0
 10 11  2  0  0  0  0
 11  6  1  0  0  0  0
 13  8  1  0  0  0  0
 14 10  1  0  0  0  0
 16 22  1  1  0  0  0
 16 21  1  0  0  0  0
 17 15  1  6  0  0  0
 17 18  1  0  0  0  0
 17 16  1  0  0  0  0
 18 19  1  0  0  0  0
 19 20  1  0  0  0  0
 20 24  1  6  0  0  0
 21 26  1  6  0  0  0
 21 20  1  0  0  0  0
 23 22  1  0  0  0  0
 25 24  1  0  0  0  0
 26 27  1  0  0  0  0
M  END
>  <minimizedAffinity>
-4.90830708

$$$$

 OpenBabel03272503483D

 27 28  0  0  1  0  0  0  0  0999 V2000
   37.1190   27.9610   35.1380 O   0  0  0  0  0  0  0  0  0  0  0  0
   38.0360   26.7580   35.0190 P   0  0  2  0  0  0  0  0  0  0  0  0
   39.4990   27.1780   35.7330 O   0  0  0  0  0  0  0  0  0  0  0  0
   39.3590   27.2730   36.7100 H   0  0  0  0  0  0  0  0  0  0  0  0
   38.3120   26.3210   33.3780 O   0  0  0  0  0  0  0  0  0  0  0  0
   37.3520   25.6540   32.6170 C   0  0  0  0  0  0  0  0  0  0  0  0
   36.3240   26.2640   31.8760 C   0  0  0  0  0  0  0  0  0  0  0  0
   35.4660   25.4300   31.1810 C   0  0  0  0  0  0  0  0  0  0  0  0
   35.6330   24.0840   31.2320 N   0  0  0  0  0  0  0  0  0  0  0  0
   36.6450   23.5270   31.9630 C   0  0  0  0  0  0  0  0  0  0  0  0
   37.4970   24.3260   32.6500 N   0  0  0  0  0  0  0  0  0  0  0  0
   36.3000   27.3430   31.9190 H   0  0  0  0  0  0  0  0  0  0  0  0
   34.7120   25.9500   30.6430 H   0  0  0  0  0  0  0  0  0  0  0  0
   36.7150   22.4460   31.9540 H   0  0  0  0  0  0  0  0  0  0  0  0
   37.3390   25.3970   35.7670 O   0  0  0  0  0  0  0  0  0  0  0  0
   37.8280   23.6980   37.3850 C   0  0  2  0  0  3  0  0  0  0  0  0
   38.3560   24.8210   36.5490 C   0  0  1  0  0  3  0  0  0  0  0  0
   39.3830   24.4780   35.6930 O   0  0  0  0  0  0  0  0  0  0  0  0
   39.6680   23.1330   35.6310 C   0  0  0  0  0  2  0  0  0  0  0  0
   39.9820   22.4970   36.9560 C   0  0  2  0  0  3  0  0  0  0  0  0
   38.9380   22.8800   37.9540 C   0  0  1  0  0  3  0  0  0  0  0  0
   36.8770   22.9230   36.7270 O   0  0  0  0  0  0  0  0  0  0  0  0
   36.4100   23.5100   36.0820 H   0  0  0  0  0  0  0  0  0  0  0  0
   41.2560   22.8260   37.4050 O   0  0  0  0  0  0  0  0  0  0  0  0
   41.7250   23.4800   36.8280 H   0  0  0  0  0  0  0  0  0  0  0  0
   39.4800   23.6090   39.0240 O   0  0  0  0  0  0  0  0  0  0  0  0
   40.3670   23.9470   38.8270 H   0  0  0  0  0  0  0  0  0  0  0  0
  2  1  2  1  0  0  0
  2  3  1  0  0  0  0
  2 15  1  0  0  0  0
  3  4  1  0  0  0  0
  5  2  1  0  0  0  0
  6 11  1  0  0  0  0
  6  5  1  0  0  0  0
  7 12  1  0  0  0  0
  7  6  2  0  0  0  0
  8  9  2  0  0  0  0
  8  7  1  0  0  0  0
  9 10  1  0  0  0  0
 10 11  2  0  0  0  0
 13  8  1  0  0  0  0
 14 10  1  0  0  0  0
 16 22  1  6  0  0  0
 16 21  1  0  0  0  0
 17 15  1  6  0  0  0
 17 16  1  0  0  0  0
 18 17  1  0  0  0  0
 19 18  1  0  0  0  0
 19 20  1  0  0  0  0
 20 24  1  1  0  0  0
 20 21  1  0  0  0  0
 21 26  1  1  0  0  0
 23 22  1  0  0  0  0
 25 24  1  0  0  0  0
 27 26  1  0  0  0  0
M  END
>  <minimizedAffinity>
-4.85263109

$$$$

 OpenBabel03272503483D

 27 28  0  0  1  0  0  0  0  0999 V2000
   39.4380   26.3490   33.8930 O   0  0  0  0  0  0  0  0  0  0  0  0
   38.0390   25.8470   34.2010 P   0  0  2  0  0  0  0  0  0  0  0  0
   37.4190   26.8240   35.4210 O   0  0  0  0  0  0  0  0  0  0  0  0
   37.2690   27.7330   35.0530 H   0  0  0  0  0  0  0  0  0  0  0  0
   38.0460   24.2120   34.7330 O   0  0  0  0  0  0  0  0  0  0  0  0
   38.4460   23.8520   36.0200 C   0  0  0  0  0  0  0  0  0  0  0  0
   39.6040   23.1240   36.3450 C   0  0  0  0  0  0  0  0  0  0  0  0
   39.8310   22.8640   37.6860 C   0  0  0  0  0  0  0  0  0  0  0  0
   38.9550   23.3050   38.6230 N   0  0  0  0  0  0  0  0  0  0  0  0
   37.8390   24.0110   38.2690 C   0  0  0  0  0  0  0  0  0  0  0  0
   37.5990   24.2770   36.9630 N   0  0  0  0  0  0  0  0  0  0  0  0
   40.2180   22.8310   35.5060 H   0  0  0  0  0  0  0  0  0  0  0  0
   40.7200   22.3100   37.8660 H   0  0  0  0  0  0  0  0  0  0  0  0
   37.1880   24.3300   39.0730 H   0  0  0  0  0  0  0  0  0  0  0  0
   37.0670   25.8930   32.8030 O   0  0  0  0  0  0  0  0  0  0  0  0
   36.9220   27.1900   30.7940 C   0  0  2  0  0  3  0  0  0  0  0  0
   37.2360   27.1770   32.2560 C   0  0  1  0  0  3  0  0  0  0  0  0
   36.4860   28.0480   33.0210 O   0  0  0  0  0  0  0  0  0  0  0  0
   35.4690   28.6870   32.3510 C   0  0  0  0  0  2  0  0  0  0  0  0
   35.9030   29.4510   31.1320 C   0  0  2  0  0  3  0  0  0  0  0  0
   36.7760   28.5840   30.2840 C   0  0  1  0  0  3  0  0  0  0  0  0
   35.8380   26.3820   30.4570 O   0  0  0  0  0  0  0  0  0  0  0  0
   35.8090   25.6380   31.1080 H   0  0  0  0  0  0  0  0  0  0  0  0
   36.5410   30.6420   31.4610 O   0  0  0  0  0  0  0  0  0  0  0  0
   36.6760   30.7660   32.4340 H   0  0  0  0  0  0  0  0  0  0  0  0
   38.0700   29.1120   30.1540 O   0  0  0  0  0  0  0  0  0  0  0  0
   38.2550   29.8000   30.8120 H   0  0  0  0  0  0  0  0  0  0  0  0
  2  1  2  6  0  0  0
  2  5  1  0  0  0  0
  2  3  1  0  0  0  0
  4  3  1  0  0  0  0
  5  6  1  0  0  0  0
  6  7  2  0  0  0  0
  6 11  1  0  0  0  0
  7  8  1  0  0  0  0
  8 13  1  0  0  0  0
  8  9  2  0  0  0  0
 10  9  1  0  0  0  0
 10 14  1  0  0  0  0
 11 10  2  0  0  0  0
 12  7  1  0  0  0  0
 15  2  1  0  0  0  0
 16 22  1  1  0  0  0
 16 17  1  0  0  0  0
 17 15  1  1  0  0  0
 17 18  1  0  0  0  0
 19 18  1  0  0  0  0
 20 24  1  1  0  0  0
 20 19  1  0  0  0  0
 21 26  1  1  0  0  0
 21 16  1  0  0  0  0
 21 20  1  0  0  0  0
 22 23  1  0  0  0  0
 24 25  1  0  0  0  0
 26 27  1  0  0  0  0
M  END
>  <minimizedAffinity>
-4.82858706

$$$$

 OpenBabel03272503483D

 27 28  0  0  1  0  0  0  0  0999 V2000
   36.7410   21.5160   33.9220 O   0  0  0  0  0  0  0  0  0  0  0  0
   37.8680   22.4240   33.4660 P   0  0  2  0  0  0  0  0  0  0  0  0
   39.2800   21.5100   33.4890 O   0  0  0  0  0  0  0  0  0  0  0  0
   39.2250   20.8250   32.7750 H   0  0  0  0  0  0  0  0  0  0  0  0
   38.0570   23.7830   34.5030 O   0  0  0  0  0  0  0  0  0  0  0  0
   38.3590   23.6470   35.8580 C   0  0  0  0  0  0  0  0  0  0  0  0
   37.6190   24.1930   36.9220 C   0  0  0  0  0  0  0  0  0  0  0  0
   38.0810   23.9460   38.2030 C   0  0  0  0  0  0  0  0  0  0  0  0
   39.2020   23.2070   38.3940 N   0  0  0  0  0  0  0  0  0  0  0  0
   39.8960   22.6920   37.3340 C   0  0  0  0  0  0  0  0  0  0  0  0
   39.4610   22.9210   36.0720 N   0  0  0  0  0  0  0  0  0  0  0  0
   36.7470   24.7620   36.6350 H   0  0  0  0  0  0  0  0  0  0  0  0
   37.4790   24.3850   38.9620 H   0  0  0  0  0  0  0  0  0  0  0  0
   40.7810   22.1120   37.5660 H   0  0  0  0  0  0  0  0  0  0  0  0
   37.5450   23.0450   31.9140 O   0  0  0  0  0  0  0  0  0  0  0  0
   38.0580   25.2460   31.1190 C   0  0  2  0  0  3  0  0  0  0  0  0
   37.2840   24.4150   32.0920 C   0  0  1  0  0  3  0  0  0  0  0  0
   35.9150   24.5800   32.0400 O   0  0  0  0  0  0  0  0  0  0  0  0
   35.4600   25.3690   31.0090 C   0  0  0  0  0  2  0  0  0  0  0  0
   36.0600   26.7460   30.9600 C   0  0  2  0  0  3  0  0  0  0  0  0
   37.5460   26.6470   31.0760 C   0  0  1  0  0  3  0  0  0  0  0  0
   38.1460   24.6720   29.8530 O   0  0  0  0  0  0  0  0  0  0  0  0
   38.1170   23.6900   29.9710 H   0  0  0  0  0  0  0  0  0  0  0  0
   35.5310   27.5820   31.9370 O   0  0  0  0  0  0  0  0  0  0  0  0
   34.9050   27.1260   32.5540 H   0  0  0  0  0  0  0  0  0  0  0  0
   38.0260   27.2950   32.2250 O   0  0  0  0  0  0  0  0  0  0  0  0
   37.3200   27.4820   32.8640 H   0  0  0  0  0  0  0  0  0  0  0  0
  2  3  1  0  0  0  0
  2  1  2  1  0  0  0
  2  5  1  0  0  0  0
  4  3  1  0  0  0  0
  5  6  1  0  0  0  0
  6 11  2  0  0  0  0
  6  7  1  0  0  0  0
  7  8  2  0  0  0  0
  8  9  1  0  0  0  0
  8 13  1  0  0  0  0
 10 14  1  0  0  0  0
 10  9  2  0  0  0  0
 11 10  1  0  0  0  0
 12  7  1  0  0  0  0
 15  2  1  0  0  0  0
 16 22  1  6  0  0  0
 16 17  1  0  0  0  0
 17 15  1  6  0  0  0
 18 17  1  0  0  0  0
 19 18  1  0  0  0  0
 20 19  1  0  0  0  0
 20 21  1  0  0  0  0
 20 24  1  1  0  0  0
 21 16  1  0  0  0  0
 21 26  1  1  0  0  0
 22 23  1  0  0  0  0
 24 25  1  0  0  0  0
 26 27  1  0  0  0  0
M  END
>  <minimizedAffinity>
-4.74859047

$$$$

 OpenBabel03272503483D

 27 28  0  0  1  0  0  0  0  0999 V2000
   38.4180   27.0980   36.6350 O   0  0  0  0  0  0  0  0  0  0  0  0
   38.1320   26.6750   35.2060 P   0  0  2  0  0  0  0  0  0  0  0  0
   39.4590   27.1320   34.2800 O   0  0  0  0  0  0  0  0  0  0  0  0
   40.2350   26.5730   34.5420 H   0  0  0  0  0  0  0  0  0  0  0  0
   36.7190   27.4310   34.5820 O   0  0  0  0  0  0  0  0  0  0  0  0
   36.6010   27.7910   33.2400 C   0  0  0  0  0  0  0  0  0  0  0  0
   36.0150   28.9750   32.7570 C   0  0  0  0  0  0  0  0  0  0  0  0
   35.9920   29.1530   31.3850 C   0  0  0  0  0  0  0  0  0  0  0  0
   36.5200   28.2100   30.5650 N   0  0  0  0  0  0  0  0  0  0  0  0
   37.0810   27.0710   31.0720 C   0  0  0  0  0  0  0  0  0  0  0  0
   37.1150   26.8760   32.4120 N   0  0  0  0  0  0  0  0  0  0  0  0
   35.6330   29.6440   33.5140 H   0  0  0  0  0  0  0  0  0  0  0  0
   35.5370   30.0660   31.0830 H   0  0  0  0  0  0  0  0  0  0  0  0
   37.4820   26.3640   30.3550 H   0  0  0  0  0  0  0  0  0  0  0  0
   37.8550   24.9970   35.1230 O   0  0  0  0  0  0  0  0  0  0  0  0
   38.5200   22.9640   36.2040 C   0  0  2  0  0  3  0  0  0  0  0  0
   38.8350   24.4020   35.9370 C   0  0  1  0  0  3  0  0  0  0  0  0
   40.0570   24.6300   35.3370 O   0  0  0  0  0  0  0  0  0  0  0  0
   40.7350   23.5000   34.9440 C   0  0  0  0  0  2  0  0  0  0  0  0
   40.9740   22.4980   36.0380 C   0  0  2  0  0  3  0  0  0  0  0  0
   39.6990   22.2490   36.7750 C   0  0  1  0  0  3  0  0  0  0  0  0
   37.9810   22.3060   35.1010 O   0  0  0  0  0  0  0  0  0  0  0  0
   37.4880   22.9780   34.5670 H   0  0  0  0  0  0  0  0  0  0  0  0
   41.9870   22.9000   36.9020 O   0  0  0  0  0  0  0  0  0  0  0  0
   42.3380   23.8050   36.7100 H   0  0  0  0  0  0  0  0  0  0  0  0
   39.7920   22.6240   38.1250 O   0  0  0  0  0  0  0  0  0  0  0  0
   40.5590   23.1920   38.2960 H   0  0  0  0  0  0  0  0  0  0  0  0
  2  1  2  1  0  0  0
  3  4  1  0  0  0  0
  3  2  1  0  0  0  0
  5  2  1  0  0  0  0
  6  5  1  0  0  0  0
  7  6  1  0  0  0  0
  7 12  1  0  0  0  0
  8  7  2  0  0  0  0
  9 10  2  0  0  0  0
  9  8  1  0  0  0  0
 10 11  1  0  0  0  0
 11  6  2  0  0  0  0
 13  8  1  0  0  0  0
 14 10  1  0  0  0  0
 15  2  1  0  0  0  0
 16 22  1  6  0  0  0
 16 21  1  0  0  0  0
 17 15  1  6  0  0  0
 17 16  1  0  0  0  0
 18 17  1  0  0  0  0
 19 18  1  0  0  0  0
 19 20  1  0  0  0  0
 20 21  1  0  0  0  0
 20 24  1  1  0  0  0
 21 26  1  1  0  0  0
 23 22  1  0  0  0  0
 25 24  1  0  0  0  0
 26 27  1  0  0  0  0
M  END
>  <minimizedAffinity>
-4.73838997

$$$$

 OpenBabel03272503483D

 27 28  0  0  1  0  0  0  0  0999 V2000
   39.6300   27.1890   35.1680 O   0  0  0  0  0  0  0  0  0  0  0  0
   40.4960   26.7500   34.0010 P   0  0  2  0  0  0  0  0  0  0  0  0
   41.9770   27.5300   34.1620 O   0  0  0  0  0  0  0  0  0  0  0  0
   42.4440   27.1610   34.9550 H   0  0  0  0  0  0  0  0  0  0  0  0
   39.7950   27.1710   32.4880 O   0  0  0  0  0  0  0  0  0  0  0  0
   38.4460   26.9510   32.2080 C   0  0  0  0  0  0  0  0  0  0  0  0
   37.4350   27.9270   32.2280 C   0  0  0  0  0  0  0  0  0  0  0  0
   36.1510   27.5120   31.9190 C   0  0  0  0  0  0  0  0  0  0  0  0
   35.9090   26.2130   31.6150 N   0  0  0  0  0  0  0  0  0  0  0  0
   36.9190   25.2910   31.6060 C   0  0  0  0  0  0  0  0  0  0  0  0
   38.1830   25.6760   31.9040 N   0  0  0  0  0  0  0  0  0  0  0  0
   37.7590   28.9250   32.4860 H   0  0  0  0  0  0  0  0  0  0  0  0
   35.4330   28.2950   31.9520 H   0  0  0  0  0  0  0  0  0  0  0  0
   36.6480   24.2730   31.3530 H   0  0  0  0  0  0  0  0  0  0  0  0
   40.6740   25.0560   33.9920 O   0  0  0  0  0  0  0  0  0  0  0  0
   38.8090   23.9710   35.0360 C   0  0  2  0  0  3  0  0  0  0  0  0
   40.1520   24.6060   35.2180 C   0  0  1  0  0  3  0  0  0  0  0  0
   41.1080   23.7940   35.7950 O   0  0  0  0  0  0  0  0  0  0  0  0
   40.7270   22.4860   35.9810 C   0  0  0  0  0  2  0  0  0  0  0  0
   39.4690   22.3050   36.7840 C   0  0  2  0  0  3  0  0  0  0  0  0
   38.4040   23.2060   36.2510 C   0  0  1  0  0  3  0  0  0  0  0  0
   38.7130   23.2130   33.8720 O   0  0  0  0  0  0  0  0  0  0  0  0
   39.3230   23.6150   33.2050 H   0  0  0  0  0  0  0  0  0  0  0  0
   39.6810   22.5190   38.1410 O   0  0  0  0  0  0  0  0  0  0  0  0
   40.5960   22.8270   38.3580 H   0  0  0  0  0  0  0  0  0  0  0  0
   37.9860   24.1450   37.2070 O   0  0  0  0  0  0  0  0  0  0  0  0
   38.6060   24.2150   37.9490 H   0  0  0  0  0  0  0  0  0  0  0  0
  2  3  1  0  0  0  0
  2  1  2  1  0  0  0
  3  4  1  0  0  0  0
  5  2  1  0  0  0  0
  6  7  1  0  0  0  0
  6  5  1  0  0  0  0
  7 12  1  0  0  0  0
  8 13  1  0  0  0  0
  8  7  2  0  0  0  0
  9  8  1  0  0  0  0
 10  9  2  0  0  0  0
 10 11  1  0  0  0  0
 11  6  2  0  0  0  0
 14 10  1  0  0  0  0
 15  2  1  0  0  0  0
 16 22  1  6  0  0  0
 16 17  1  0  0  0  0
 16 21  1  0  0  0  0
 17 15  1  6  0  0  0
 17 18  1  0  0  0  0
 18 19  1  0  0  0  0
 19 20  1  0  0  0  0
 20 24  1  1  0  0  0
 21 20  1  0  0  0  0
 21 26  1  1  0  0  0
 23 22  1  0  0  0  0
 24 25  1  0  0  0  0
 26 27  1  0  0  0  0
M  END
>  <minimizedAffinity>
-4.71221018

$$$$

 OpenBabel03272503483D

 27 28  0  0  1  0  0  0  0  0999 V2000
   39.9000   27.3390   34.0900 O   0  0  0  0  0  0  0  0  0  0  0  0
   38.9680   26.7050   35.1060 P   0  0  2  0  0  0  0  0  0  0  0  0
   38.8630   27.7620   36.4090 O   0  0  0  0  0  0  0  0  0  0  0  0
   38.3780   28.5760   36.1180 H   0  0  0  0  0  0  0  0  0  0  0  0
   39.5560   25.1850   35.6560 O   0  0  0  0  0  0  0  0  0  0  0  0
   38.7210   24.0790   35.8150 C   0  0  0  0  0  0  0  0  0  0  0  0
   37.8860   23.8340   36.9200 C   0  0  0  0  0  0  0  0  0  0  0  0
   37.1280   22.6770   36.8940 C   0  0  0  0  0  0  0  0  0  0  0  0
   37.2080   21.8330   35.8340 N   0  0  0  0  0  0  0  0  0  0  0  0
   38.0310   22.1050   34.7770 C   0  0  0  0  0  0  0  0  0  0  0  0
   38.7810   23.2330   34.7820 N   0  0  0  0  0  0  0  0  0  0  0  0
   37.9150   24.5840   37.6970 H   0  0  0  0  0  0  0  0  0  0  0  0
   36.5200   22.5490   37.7560 H   0  0  0  0  0  0  0  0  0  0  0  0
   38.0400   21.3840   33.9680 H   0  0  0  0  0  0  0  0  0  0  0  0
   37.4420   26.4060   34.4130 O   0  0  0  0  0  0  0  0  0  0  0  0
   37.6470   25.5640   32.1790 C   0  0  2  0  0  3  0  0  0  0  0  0
   37.5540   26.7700   33.0590 C   0  0  1  0  0  3  0  0  0  0  0  0
   36.5030   27.6190   32.7760 O   0  0  0  0  0  0  0  0  0  0  0  0
   35.6180   27.1580   31.8290 C   0  0  0  0  0  2  0  0  0  0  0  0
   36.2430   26.7940   30.5110 C   0  0  2  0  0  3  0  0  0  0  0  0
   37.4320   25.9220   30.7460 C   0  0  1  0  0  3  0  0  0  0  0  0
   36.8300   24.5160   32.5950 O   0  0  0  0  0  0  0  0  0  0  0  0
   36.7400   24.5810   33.5780 H   0  0  0  0  0  0  0  0  0  0  0  0
   36.5790   27.9170   29.7640 O   0  0  0  0  0  0  0  0  0  0  0  0
   36.4270   28.7720   30.2400 H   0  0  0  0  0  0  0  0  0  0  0  0
   38.6180   26.5190   30.2900 O   0  0  0  0  0  0  0  0  0  0  0  0
   38.5120   27.4690   30.1270 H   0  0  0  0  0  0  0  0  0  0  0  0
  2  1  2  6  0  0  0
  2  5  1  0  0  0  0
  2  3  1  0  0  0  0
  4  3  1  0  0  0  0
  5  6  1  0  0  0  0
  6  7  1  0  0  0  0
  7 12  1  0  0  0  0
  8  7  2  0  0  0  0
  8 13  1  0  0  0  0
  9  8  1  0  0  0  0
 10 11  1  0  0  0  0
 10  9  2  0  0  0  0
 11  6  2  0  0  0  0
 14 10  1  0  0  0  0
 15  2  1  0  0  0  0
 16 22  1  1  0  0  0
 16 17  1  0  0  0  0
 17 15  1  1  0  0  0
 18 17  1  0  0  0  0
 19 18  1  0  0  0  0
 20 24  1  1  0  0  0
 20 21  1  0  0  0  0
 20 19  1  0  0  0  0
 21 26  1  1  0  0  0
 21 16  1  0  0  0  0
 22 23  1  0  0  0  0
 24 25  1  0  0  0  0
 27 26  1  0  0  0  0
M  END
>  <minimizedAffinity>
-4.69710493

$$$$

 OpenBabel03272503483D

 27 28  0  0  1  0  0  0  0  0999 V2000
   38.6760   26.9890   35.3590 O   0  0  0  0  0  0  0  0  0  0  0  0
   38.4130   26.1340   34.1320 P   0  0  2  0  0  0  0  0  0  0  0  0
   36.9110   26.5850   33.5260 O   0  0  0  0  0  0  0  0  0  0  0  0
   36.9790   27.5050   33.1640 H   0  0  0  0  0  0  0  0  0  0  0  0
   38.3900   24.4570   34.5120 O   0  0  0  0  0  0  0  0  0  0  0  0
   38.6830   23.9810   35.7900 C   0  0  0  0  0  0  0  0  0  0  0  0
   39.8830   23.3590   36.1780 C   0  0  0  0  0  0  0  0  0  0  0  0
   39.9860   22.9530   37.4970 C   0  0  0  0  0  0  0  0  0  0  0  0
   38.9560   23.1600   38.3560 N   0  0  0  0  0  0  0  0  0  0  0  0
   37.8040   23.7690   37.9420 C   0  0  0  0  0  0  0  0  0  0  0  0
   37.6830   24.1740   36.6550 N   0  0  0  0  0  0  0  0  0  0  0  0
   40.6230   23.2540   35.3980 H   0  0  0  0  0  0  0  0  0  0  0  0
   40.9140   22.4900   37.7280 H   0  0  0  0  0  0  0  0  0  0  0  0
   37.0270   23.9000   38.6850 H   0  0  0  0  0  0  0  0  0  0  0  0
   39.6470   26.3480   32.9790 O   0  0  0  0  0  0  0  0  0  0  0  0
   41.7070   25.3610   33.7020 C   0  0  2  0  0  3  0  0  0  0  0  0
   40.8270   26.5710   33.7100 C   0  0  1  0  0  3  0  0  0  0  0  0
   41.4070   27.7180   33.2090 O   0  0  0  0  0  0  0  0  0  0  0  0
   42.6500   27.5460   32.6460 C   0  0  0  0  0  2  0  0  0  0  0  0
   43.6680   26.9100   33.5520 C   0  0  2  0  0  3  0  0  0  0  0  0
   43.0820   25.6890   34.1810 C   0  0  1  0  0  3  0  0  0  0  0  0
   41.7140   24.6950   32.4790 O   0  0  0  0  0  0  0  0  0  0  0  0
   40.8320   24.8440   32.0550 H   0  0  0  0  0  0  0  0  0  0  0  0
   44.1390   27.7980   34.5120 O   0  0  0  0  0  0  0  0  0  0  0  0
   43.6840   28.6770   34.5000 H   0  0  0  0  0  0  0  0  0  0  0  0
   43.0130   25.8020   35.5790 O   0  0  0  0  0  0  0  0  0  0  0  0
   43.1240   26.7180   35.8800 H   0  0  0  0  0  0  0  0  0  0  0  0
  2  5  1  0  0  0  0
  2  1  2  1  0  0  0
  3  2  1  0  0  0  0
  4  3  1  0  0  0  0
  5  6  1  0  0  0  0
  6  7  2  0  0  0  0
  6 11  1  0  0  0  0
  7  8  1  0  0  0  0
  8 13  1  0  0  0  0
  8  9  2  0  0  0  0
 10  9  1  0  0  0  0
 10 14  1  0  0  0  0
 11 10  2  0  0  0  0
 12  7  1  0  0  0  0
 15  2  1  0  0  0  0
 16 22  1  6  0  0  0
 16 17  1  0  0  0  0
 16 21  1  0  0  0  0
 17 15  1  6  0  0  0
 18 17  1  0  0  0  0
 19 18  1  0  0  0  0
 19 20  1  0  0  0  0
 20 21  1  0  0  0  0
 20 24  1  1  0  0  0
 21 26  1  1  0  0  0
 23 22  1  0  0  0  0
 25 24  1  0  0  0  0
 26 27  1  0  0  0  0
M  END
>  <minimizedAffinity>
-4.46300459

$$$$
