
 OpenBabel03272500063D

 32 34  0  0  1  0  0  0  0  0999 V2000
   37.4740   27.0690   33.3830 C   0  0  0  0  0  0  0  0  0  0  0  0
   36.5050   27.0770   32.3630 C   0  0  0  0  0  0  0  0  0  0  0  0
   36.1280   25.8600   31.7910 C   0  0  0  0  0  0  0  0  0  0  0  0
   36.7110   24.7230   32.2420 N   0  0  0  0  0  0  0  0  0  0  0  0
   37.6270   24.7340   33.2090 C   0  0  0  0  0  0  0  0  0  0  0  0
   38.0270   25.9090   33.7990 N   0  0  0  0  0  0  0  0  0  0  0  0
   37.7990   27.9860   33.8580 H   0  0  0  0  0  0  0  0  0  0  0  0
   35.3840   25.8640   31.0080 H   0  0  0  0  0  0  0  0  0  0  0  0
   35.9620   28.3340   31.9720 N   0  0  0  0  0  0  0  0  0  0  0  0
   34.9980   28.9530   32.6860 C   0  0  0  0  0  0  0  0  0  0  0  0
   34.5040   30.1850   32.2570 C   0  0  0  0  0  0  0  0  0  0  0  0
   35.0720   30.6610   31.1040 C   0  0  0  0  0  0  0  0  0  0  0  0
   34.6140   31.7800   30.7250 O   0  0  0  0  0  0  0  0  0  0  0  0
   36.0190   30.0750   30.3810 N   0  0  0  0  0  0  0  0  0  0  0  0
   36.4650   28.8830   30.8400 C   0  0  0  0  0  0  0  0  0  0  0  0
   37.3660   28.3140   30.1630 O   0  0  0  0  0  0  0  0  0  0  0  0
   34.6120   28.4920   33.5910 H   0  0  0  0  0  0  0  0  0  0  0  0
   33.7300   30.7070   32.8080 H   0  0  0  0  0  0  0  0  0  0  0  0
   36.4050   30.5010   29.5080 H   0  0  0  0  0  0  0  0  0  0  0  0
   38.2540   23.5870   33.7070 O   0  0  0  0  0  0  0  0  0  0  0  0
   39.9350   23.4230   35.4720 C   0  0  2  0  0  3  0  0  0  0  0  0
   38.5020   23.6470   35.1210 C   0  0  2  0  0  3  0  0  0  0  0  0
   37.7140   22.6500   35.6900 O   0  0  0  0  0  0  0  0  0  0  0  0
   37.4640   23.0420   37.0020 C   0  0  0  0  0  2  0  0  0  0  0  0
   38.7530   23.3870   37.7010 C   0  0  2  0  0  3  0  0  0  0  0  0
   39.9710   22.9660   36.9150 C   0  0  1  0  0  3  0  0  0  0  0  0
   40.6190   24.6380   35.3240 O   0  0  0  0  0  0  0  0  0  0  0  0
   40.1310   25.1740   34.6450 H   0  0  0  0  0  0  0  0  0  0  0  0
   38.7610   22.6520   38.8920 O   0  0  0  0  0  0  0  0  0  0  0  0
   39.1120   23.1750   39.6530 H   0  0  0  0  0  0  0  0  0  0  0  0
   39.9920   21.5600   36.9620 O   0  0  0  0  0  0  0  0  0  0  0  0
   40.8780   21.2810   36.5860 H   0  0  0  0  0  0  0  0  0  0  0  0
  1  6  1  0  0  0  0
  1  7  1  0  0  0  0
  2  1  2  0  0  0  0
  3  4  2  0  0  0  0
  3  2  1  0  0  0  0
  4  5  1  0  0  0  0
  5 20  1  0  0  0  0
  5  6  2  0  0  0  0
  8  3  1  0  0  0  0
  9  2  1  0  0  0  0
  9 10  1  0  0  0  0
 10 17  1  0  0  0  0
 11 10  2  0  0  0  0
 11 18  1  0  0  0  0
 12 11  1  0  0  0  0
 13 12  2  0  0  0  0
 14 15  1  0  0  0  0
 14 12  1  0  0  0  0
 15  9  1  0  0  0  0
 16 15  2  0  0  0  0
 19 14  1  0  0  0  0
 21 27  1  1  0  0  0
 21 26  1  0  0  0  0
 22 20  1  6  0  0  0
 22 21  1  0  0  0  0
 22 23  1  0  0  0  0
 23 24  1  0  0  0  0
 24 25  1  0  0  0  0
 25 29  1  1  0  0  0
 26 31  1  6  0  0  0
 26 25  1  0  0  0  0
 28 27  1  0  0  0  0
 29 30  1  0  0  0  0
 32 31  1  0  0  0  0
M  END
>  <minimizedAffinity>
-6.03355789

$$$$

 OpenBabel03272500063D

 32 34  0  0  1  0  0  0  0  0999 V2000
   38.1630   24.3360   34.2190 C   0  0  0  0  0  0  0  0  0  0  0  0
   39.0500   24.7870   35.2150 C   0  0  0  0  0  0  0  0  0  0  0  0
   39.1330   26.1580   35.4630 C   0  0  0  0  0  0  0  0  0  0  0  0
   38.3570   26.9980   34.7360 N   0  0  0  0  0  0  0  0  0  0  0  0
   37.5230   26.5540   33.7970 C   0  0  0  0  0  0  0  0  0  0  0  0
   37.4090   25.2120   33.5200 N   0  0  0  0  0  0  0  0  0  0  0  0
   38.0620   23.2830   33.9890 H   0  0  0  0  0  0  0  0  0  0  0  0
   39.8140   26.5060   36.2270 H   0  0  0  0  0  0  0  0  0  0  0  0
   39.8140   23.8100   35.9140 N   0  0  0  0  0  0  0  0  0  0  0  0
   41.0680   23.4780   35.5420 C   0  0  0  0  0  0  0  0  0  0  0  0
   41.7720   22.5150   36.2660 C   0  0  0  0  0  0  0  0  0  0  0  0
   41.0880   21.9800   37.3260 C   0  0  0  0  0  0  0  0  0  0  0  0
   41.7380   21.1070   37.9750 O   0  0  0  0  0  0  0  0  0  0  0  0
   39.8560   22.2870   37.7160 N   0  0  0  0  0  0  0  0  0  0  0  0
   39.2170   23.2270   36.9820 C   0  0  0  0  0  0  0  0  0  0  0  0
   38.0450   23.5280   37.3400 O   0  0  0  0  0  0  0  0  0  0  0  0
   41.5250   23.9610   34.6830 H   0  0  0  0  0  0  0  0  0  0  0  0
   42.7800   22.2260   35.9910 H   0  0  0  0  0  0  0  0  0  0  0  0
   39.3980   21.8350   38.5390 H   0  0  0  0  0  0  0  0  0  0  0  0
   36.7030   27.3810   33.0230 O   0  0  0  0  0  0  0  0  0  0  0  0
   36.5190   28.8900   31.1110 C   0  0  2  0  0  3  0  0  0  0  0  0
   37.4090   28.0520   31.9670 C   0  0  2  0  0  3  0  0  0  0  0  0
   37.9960   27.0480   31.2010 O   0  0  0  0  0  0  0  0  0  0  0  0
   39.1070   27.6170   30.5850 C   0  0  0  0  0  2  0  0  0  0  0  0
   38.7210   28.8890   29.8780 C   0  0  2  0  0  3  0  0  0  0  0  0
   37.2260   29.0720   29.7840 C   0  0  1  0  0  3  0  0  0  0  0  0
   36.3370   30.1280   31.7440 O   0  0  0  0  0  0  0  0  0  0  0  0
   36.4500   29.9820   32.7200 H   0  0  0  0  0  0  0  0  0  0  0  0
   39.2020   28.7710   28.5690 O   0  0  0  0  0  0  0  0  0  0  0  0
   39.5880   29.6160   28.2330 H   0  0  0  0  0  0  0  0  0  0  0  0
   36.7760   28.0960   28.8750 O   0  0  0  0  0  0  0  0  0  0  0  0
   35.8170   28.3140   28.6830 H   0  0  0  0  0  0  0  0  0  0  0  0
  1  2  1  0  0  0  0
  2  3  2  0  0  0  0
  2  9  1  0  0  0  0
  3  8  1  0  0  0  0
  4  3  1  0  0  0  0
  5  4  2  0  0  0  0
  6  5  1  0  0  0  0
  6  1  2  0  0  0  0
  7  1  1  0  0  0  0
  9 15  1  0  0  0  0
 10  9  1  0  0  0  0
 10 11  2  0  0  0  0
 11 12  1  0  0  0  0
 12 14  1  0  0  0  0
 12 13  2  0  0  0  0
 14 19  1  0  0  0  0
 15 16  2  0  0  0  0
 15 14  1  0  0  0  0
 17 10  1  0  0  0  0
 18 11  1  0  0  0  0
 20  5  1  0  0  0  0
 21 27  1  1  0  0  0
 21 22  1  0  0  0  0
 22 20  1  1  0  0  0
 23 22  1  0  0  0  0
 24 23  1  0  0  0  0
 25 29  1  6  0  0  0
 25 24  1  0  0  0  0
 26 31  1  6  0  0  0
 26 25  1  0  0  0  0
 26 21  1  0  0  0  0
 27 28  1  0  0  0  0
 30 29  1  0  0  0  0
 32 31  1  0  0  0  0
M  END
>  <minimizedAffinity>
-5.834692

$$$$

 OpenBabel03272500063D

 32 34  0  0  1  0  0  0  0  0999 V2000
   38.1100   25.5050   30.8980 C   0  0  0  0  0  0  0  0  0  0  0  0
   38.0190   26.7660   31.5170 C   0  0  0  0  0  0  0  0  0  0  0  0
   38.0810   26.8320   32.9100 C   0  0  0  0  0  0  0  0  0  0  0  0
   38.2270   25.6810   33.6090 N   0  0  0  0  0  0  0  0  0  0  0  0
   38.3120   24.4950   33.0080 C   0  0  0  0  0  0  0  0  0  0  0  0
   38.2550   24.3840   31.6380 N   0  0  0  0  0  0  0  0  0  0  0  0
   38.0670   25.4010   29.8220 H   0  0  0  0  0  0  0  0  0  0  0  0
   38.0110   27.8000   33.3860 H   0  0  0  0  0  0  0  0  0  0  0  0
   37.8670   27.9070   30.6780 N   0  0  0  0  0  0  0  0  0  0  0  0
   38.8980   28.4260   29.9790 C   0  0  0  0  0  0  0  0  0  0  0  0
   38.6920   29.5450   29.1710 C   0  0  0  0  0  0  0  0  0  0  0  0
   37.4080   30.0240   29.1720 C   0  0  0  0  0  0  0  0  0  0  0  0
   37.2340   31.0390   28.4340 O   0  0  0  0  0  0  0  0  0  0  0  0
   36.3750   29.5350   29.8480 N   0  0  0  0  0  0  0  0  0  0  0  0
   36.6270   28.4500   30.6150 C   0  0  0  0  0  0  0  0  0  0  0  0
   35.6550   27.9740   31.2650 O   0  0  0  0  0  0  0  0  0  0  0  0
   39.8830   27.9720   30.0460 H   0  0  0  0  0  0  0  0  0  0  0  0
   39.5000   29.9850   28.5980 H   0  0  0  0  0  0  0  0  0  0  0  0
   35.4200   29.9560   29.7980 H   0  0  0  0  0  0  0  0  0  0  0  0
   38.4640   23.2820   33.6860 O   0  0  0  0  0  0  0  0  0  0  0  0
   40.0590   23.3170   35.5360 C   0  0  2  0  0  3  0  0  0  0  0  0
   38.6360   23.4430   35.1030 C   0  0  2  0  0  3  0  0  0  0  0  0
   37.8700   22.4440   35.6980 O   0  0  0  0  0  0  0  0  0  0  0  0
   37.5340   22.9050   36.9680 C   0  0  0  0  0  2  0  0  0  0  0  0
   38.7670   23.3590   37.7040 C   0  0  2  0  0  3  0  0  0  0  0  0
   40.0430   22.9540   37.0070 C   0  0  1  0  0  3  0  0  0  0  0  0
   40.6900   24.5540   35.3420 O   0  0  0  0  0  0  0  0  0  0  0  0
   40.2110   25.0200   34.6070 H   0  0  0  0  0  0  0  0  0  0  0  0
   38.7500   22.7030   38.9390 O   0  0  0  0  0  0  0  0  0  0  0  0
   39.0350   23.2900   39.6810 H   0  0  0  0  0  0  0  0  0  0  0  0
   40.1300   21.5570   37.1460 O   0  0  0  0  0  0  0  0  0  0  0  0
   41.0470   21.3010   36.8320 H   0  0  0  0  0  0  0  0  0  0  0  0
  1  2  2  0  0  0  0
  1  6  1  0  0  0  0
  2  3  1  0  0  0  0
  3  8  1  0  0  0  0
  3  4  2  0  0  0  0
  5  4  1  0  0  0  0
  5 20  1  0  0  0  0
  6  5  2  0  0  0  0
  7  1  1  0  0  0  0
  9  2  1  0  0  0  0
 10 17  1  0  0  0  0
 10  9  1  0  0  0  0
 11 12  1  0  0  0  0
 11 10  2  0  0  0  0
 12 14  1  0  0  0  0
 13 12  2  0  0  0  0
 14 15  1  0  0  0  0
 15  9  1  0  0  0  0
 15 16  2  0  0  0  0
 18 11  1  0  0  0  0
 19 14  1  0  0  0  0
 21 27  1  1  0  0  0
 21 26  1  0  0  0  0
 22 20  1  6  0  0  0
 22 21  1  0  0  0  0
 22 23  1  0  0  0  0
 23 24  1  0  0  0  0
 24 25  1  0  0  0  0
 25 29  1  1  0  0  0
 26 31  1  6  0  0  0
 26 25  1  0  0  0  0
 28 27  1  0  0  0  0
 29 30  1  0  0  0  0
 32 31  1  0  0  0  0
M  END
>  <minimizedAffinity>
-5.70274496

$$$$

 OpenBabel03272500063D

 32 34  0  0  1  0  0  0  0  0999 V2000
   36.2710   27.2890   32.4260 C   0  0  0  0  0  0  0  0  0  0  0  0
   36.2870   28.3000   33.4040 C   0  0  0  0  0  0  0  0  0  0  0  0
   36.8680   28.0220   34.6430 C   0  0  0  0  0  0  0  0  0  0  0  0
   37.3930   26.7900   34.8520 N   0  0  0  0  0  0  0  0  0  0  0  0
   37.3700   25.8440   33.9150 C   0  0  0  0  0  0  0  0  0  0  0  0
   36.8070   26.0750   32.6810 N   0  0  0  0  0  0  0  0  0  0  0  0
   35.8320   27.4540   31.4510 H   0  0  0  0  0  0  0  0  0  0  0  0
   36.8810   28.7970   35.3950 H   0  0  0  0  0  0  0  0  0  0  0  0
   35.7050   29.5560   33.0700 N   0  0  0  0  0  0  0  0  0  0  0  0
   36.2460   30.3750   32.1440 C   0  0  0  0  0  0  0  0  0  0  0  0
   35.6320   31.5930   31.8550 C   0  0  0  0  0  0  0  0  0  0  0  0
   34.4920   31.8460   32.5730 C   0  0  0  0  0  0  0  0  0  0  0  0
   33.9450   32.9560   32.3010 O   0  0  0  0  0  0  0  0  0  0  0  0
   33.9370   31.0610   33.4890 N   0  0  0  0  0  0  0  0  0  0  0  0
   34.5700   29.8910   33.7320 C   0  0  0  0  0  0  0  0  0  0  0  0
   34.0540   29.1340   34.6000 O   0  0  0  0  0  0  0  0  0  0  0  0
   37.1560   30.0830   31.6270 H   0  0  0  0  0  0  0  0  0  0  0  0
   36.0430   32.2720   31.1170 H   0  0  0  0  0  0  0  0  0  0  0  0
   33.0620   31.3230   33.9970 H   0  0  0  0  0  0  0  0  0  0  0  0
   37.9000   24.5610   34.0830 O   0  0  0  0  0  0  0  0  0  0  0  0
   39.7530   23.7350   35.4440 C   0  0  2  0  0  3  0  0  0  0  0  0
   38.3780   24.3170   35.4150 C   0  0  2  0  0  3  0  0  0  0  0  0
   37.4750   23.4260   35.9890 O   0  0  0  0  0  0  0  0  0  0  0  0
   37.5410   23.6240   37.3660 C   0  0  0  0  0  2  0  0  0  0  0  0
   38.9700   23.5580   37.8370 C   0  0  2  0  0  3  0  0  0  0  0  0
   39.9080   23.0340   36.7780 C   0  0  1  0  0  3  0  0  0  0  0  0
   40.6760   24.7830   35.3290 O   0  0  0  0  0  0  0  0  0  0  0  0
   40.2290   25.5220   34.8380 H   0  0  0  0  0  0  0  0  0  0  0  0
   38.9920   22.6410   38.8930 O   0  0  0  0  0  0  0  0  0  0  0  0
   39.5760   22.9350   39.6340 H   0  0  0  0  0  0  0  0  0  0  0  0
   39.5960   21.6700   36.6300 O   0  0  0  0  0  0  0  0  0  0  0  0
   40.3170   21.2790   36.0530 H   0  0  0  0  0  0  0  0  0  0  0  0
  1  6  2  0  0  0  0
  1  2  1  0  0  0  0
  2  3  2  0  0  0  0
  3  4  1  0  0  0  0
  3  8  1  0  0  0  0
  5 20  1  0  0  0  0
  5  4  2  0  0  0  0
  6  5  1  0  0  0  0
  7  1  1  0  0  0  0
  9  2  1  0  0  0  0
  9 15  1  0  0  0  0
 10  9  1  0  0  0  0
 11 10  2  0  0  0  0
 11 12  1  0  0  0  0
 12 14  1  0  0  0  0
 13 12  2  0  0  0  0
 14 15  1  0  0  0  0
 14 19  1  0  0  0  0
 15 16  2  0  0  0  0
 17 10  1  0  0  0  0
 18 11  1  0  0  0  0
 21 27  1  1  0  0  0
 21 26  1  0  0  0  0
 22 20  1  6  0  0  0
 22 21  1  0  0  0  0
 22 23  1  0  0  0  0
 23 24  1  0  0  0  0
 24 25  1  0  0  0  0
 25 29  1  1  0  0  0
 26 31  1  6  0  0  0
 26 25  1  0  0  0  0
 28 27  1  0  0  0  0
 29 30  1  0  0  0  0
 32 31  1  0  0  0  0
M  END
>  <minimizedAffinity>
-5.49244452

$$$$

 OpenBabel03272500063D

 32 34  0  0  1  0  0  0  0  0999 V2000
   37.6710   25.5960   31.7470 C   0  0  0  0  0  0  0  0  0  0  0  0
   38.6320   26.5890   31.4830 C   0  0  0  0  0  0  0  0  0  0  0  0
   39.1350   27.3320   32.5520 C   0  0  0  0  0  0  0  0  0  0  0  0
   38.6780   27.0670   33.8000 N   0  0  0  0  0  0  0  0  0  0  0  0
   37.7670   26.1230   34.0320 C   0  0  0  0  0  0  0  0  0  0  0  0
   37.2450   25.3680   33.0090 N   0  0  0  0  0  0  0  0  0  0  0  0
   37.2510   24.9930   30.9530 H   0  0  0  0  0  0  0  0  0  0  0  0
   39.8740   28.0950   32.3510 H   0  0  0  0  0  0  0  0  0  0  0  0
   39.0380   26.7770   30.1310 N   0  0  0  0  0  0  0  0  0  0  0  0
   40.0430   26.0670   29.5770 C   0  0  0  0  0  0  0  0  0  0  0  0
   40.3970   26.2920   28.2470 C   0  0  0  0  0  0  0  0  0  0  0  0
   39.6560   27.2540   27.6110 C   0  0  0  0  0  0  0  0  0  0  0  0
   39.9880   27.4490   26.4030 O   0  0  0  0  0  0  0  0  0  0  0  0
   38.6630   27.9680   28.1290 N   0  0  0  0  0  0  0  0  0  0  0  0
   38.3580   27.7110   29.4210 C   0  0  0  0  0  0  0  0  0  0  0  0
   37.4170   28.3820   29.9280 O   0  0  0  0  0  0  0  0  0  0  0  0
   40.5710   25.3230   30.1670 H   0  0  0  0  0  0  0  0  0  0  0  0
   41.2000   25.7380   27.7740 H   0  0  0  0  0  0  0  0  0  0  0  0
   38.1420   28.6870   27.5790 H   0  0  0  0  0  0  0  0  0  0  0  0
   37.2660   25.8130   35.3010 O   0  0  0  0  0  0  0  0  0  0  0  0
   38.7850   23.8990   35.2660 C   0  0  2  0  0  3  0  0  0  0  0  0
   38.1520   24.9860   36.0720 C   0  0  2  0  0  3  0  0  0  0  0  0
   37.3740   24.4320   37.0850 O   0  0  0  0  0  0  0  0  0  0  0  0
   38.2390   24.1420   38.1370 C   0  0  0  0  0  2  0  0  0  0  0  0
   39.4100   23.3330   37.6440 C   0  0  2  0  0  3  0  0  0  0  0  0
   39.2130   22.8200   36.2380 C   0  0  1  0  0  3  0  0  0  0  0  0
   39.8980   24.4350   34.6030 O   0  0  0  0  0  0  0  0  0  0  0  0
   39.7310   25.4050   34.4770 H   0  0  0  0  0  0  0  0  0  0  0  0
   39.4910   22.2130   38.4790 O   0  0  0  0  0  0  0  0  0  0  0  0
   40.4240   21.9840   38.7110 H   0  0  0  0  0  0  0  0  0  0  0  0
   38.2080   21.8400   36.3240 O   0  0  0  0  0  0  0  0  0  0  0  0
   38.1870   21.3830   35.4320 H   0  0  0  0  0  0  0  0  0  0  0  0
  1  6  1  0  0  0  0
  2  1  2  0  0  0  0
  2  3  1  0  0  0  0
  3  4  2  0  0  0  0
  4  5  1  0  0  0  0
  5 20  1  0  0  0  0
  6  5  2  0  0  0  0
  7  1  1  0  0  0  0
  8  3  1  0  0  0  0
  9  2  1  0  0  0  0
 10  9  1  0  0  0  0
 10 17  1  0  0  0  0
 11 10  2  0  0  0  0
 12 14  1  0  0  0  0
 12 11  1  0  0  0  0
 13 12  2  0  0  0  0
 14 15  1  0  0  0  0
 15 16  2  0  0  0  0
 15  9  1  0  0  0  0
 18 11  1  0  0  0  0
 19 14  1  0  0  0  0
 21 27  1  1  0  0  0
 21 22  1  0  0  0  0
 21 26  1  0  0  0  0
 22 20  1  6  0  0  0
 22 23  1  0  0  0  0
 23 24  1  0  0  0  0
 25 24  1  0  0  0  0
 25 29  1  1  0  0  0
 26 31  1  1  0  0  0
 26 25  1  0  0  0  0
 28 27  1  0  0  0  0
 29 30  1  0  0  0  0
 32 31  1  0  0  0  0
M  END
>  <minimizedAffinity>
-5.46310234

$$$$

 OpenBabel03272500063D

 32 34  0  0  1  0  0  0  0  0999 V2000
   34.6340   29.5180   33.8370 C   0  0  0  0  0  0  0  0  0  0  0  0
   34.9930   30.8780   33.8400 C   0  0  0  0  0  0  0  0  0  0  0  0
   35.7540   31.3710   32.7780 C   0  0  0  0  0  0  0  0  0  0  0  0
   36.1150   30.5190   31.7880 N   0  0  0  0  0  0  0  0  0  0  0  0
   35.7660   29.2330   31.8000 C   0  0  0  0  0  0  0  0  0  0  0  0
   35.0180   28.7060   32.8270 N   0  0  0  0  0  0  0  0  0  0  0  0
   34.0460   29.0880   34.6370 H   0  0  0  0  0  0  0  0  0  0  0  0
   36.0300   32.4150   32.7790 H   0  0  0  0  0  0  0  0  0  0  0  0
   34.5560   31.6770   34.9340 N   0  0  0  0  0  0  0  0  0  0  0  0
   33.4060   32.3830   34.8940 C   0  0  0  0  0  0  0  0  0  0  0  0
   33.0260   33.1480   35.9970 C   0  0  0  0  0  0  0  0  0  0  0  0
   33.8970   33.1040   37.0540 C   0  0  0  0  0  0  0  0  0  0  0  0
   33.5400   33.8030   38.0490 O   0  0  0  0  0  0  0  0  0  0  0  0
   35.0340   32.4210   37.1220 N   0  0  0  0  0  0  0  0  0  0  0  0
   35.3570   31.6950   36.0280 C   0  0  0  0  0  0  0  0  0  0  0  0
   36.4350   31.0400   36.0770 O   0  0  0  0  0  0  0  0  0  0  0  0
   32.7810   32.3520   34.0060 H   0  0  0  0  0  0  0  0  0  0  0  0
   32.1080   33.7250   35.9950 H   0  0  0  0  0  0  0  0  0  0  0  0
   35.6490   32.4370   37.9670 H   0  0  0  0  0  0  0  0  0  0  0  0
   36.1130   28.3170   30.8020 O   0  0  0  0  0  0  0  0  0  0  0  0
   37.7230   26.5400   31.2670 C   0  0  2  0  0  3  0  0  0  0  0  0
   36.2970   26.9820   31.2980 C   0  0  2  0  0  3  0  0  0  0  0  0
   35.5290   26.1590   30.4790 O   0  0  0  0  0  0  0  0  0  0  0  0
   35.2070   25.0350   31.2350 C   0  0  0  0  0  2  0  0  0  0  0  0
   36.4500   24.4380   31.8410 C   0  0  2  0  0  3  0  0  0  0  0  0
   37.7160   25.0250   31.2680 C   0  0  1  0  0  3  0  0  0  0  0  0
   38.3610   27.0300   32.4140 O   0  0  0  0  0  0  0  0  0  0  0  0
   37.8800   27.8520   32.6940 H   0  0  0  0  0  0  0  0  0  0  0  0
   36.4380   23.0810   31.5020 O   0  0  0  0  0  0  0  0  0  0  0  0
   36.7340   22.5050   32.2480 H   0  0  0  0  0  0  0  0  0  0  0  0
   37.7940   24.5540   29.9450 O   0  0  0  0  0  0  0  0  0  0  0  0
   38.7060   24.8020   29.6130 H   0  0  0  0  0  0  0  0  0  0  0  0
  1  2  1  0  0  0  0
  1  7  1  0  0  0  0
  2  9  1  0  0  0  0
  3  8  1  0  0  0  0
  3  2  2  0  0  0  0
  4  5  2  0  0  0  0
  4  3  1  0  0  0  0
  5  6  1  0  0  0  0
  6  1  2  0  0  0  0
  9 15  1  0  0  0  0
 10  9  1  0  0  0  0
 10 11  2  0  0  0  0
 11 12  1  0  0  0  0
 12 14  1  0  0  0  0
 12 13  2  0  0  0  0
 14 19  1  0  0  0  0
 15 16  2  0  0  0  0
 15 14  1  0  0  0  0
 17 10  1  0  0  0  0
 18 11  1  0  0  0  0
 20  5  1  0  0  0  0
 21 26  1  0  0  0  0
 21 22  1  0  0  0  0
 21 27  1  1  0  0  0
 22 20  1  6  0  0  0
 23 24  1  0  0  0  0
 23 22  1  0  0  0  0
 24 25  1  0  0  0  0
 25 29  1  6  0  0  0
 26 31  1  6  0  0  0
 26 25  1  0  0  0  0
 27 28  1  0  0  0  0
 29 30  1  0  0  0  0
 32 31  1  0  0  0  0
M  END
>  <minimizedAffinity>
-5.40458441

$$$$

 OpenBabel03272500063D

 32 34  0  0  1  0  0  0  0  0999 V2000
   38.0470   27.1090   35.6850 C   0  0  0  0  0  0  0  0  0  0  0  0
   38.1520   25.8930   34.9860 C   0  0  0  0  0  0  0  0  0  0  0  0
   37.4700   25.7580   33.7750 C   0  0  0  0  0  0  0  0  0  0  0  0
   36.7360   26.8040   33.3230 N   0  0  0  0  0  0  0  0  0  0  0  0
   36.6470   27.9490   33.9980 C   0  0  0  0  0  0  0  0  0  0  0  0
   37.3020   28.1240   35.1950 N   0  0  0  0  0  0  0  0  0  0  0  0
   38.5560   27.2630   36.6280 H   0  0  0  0  0  0  0  0  0  0  0  0
   37.5500   24.8250   33.2360 H   0  0  0  0  0  0  0  0  0  0  0  0
   38.9530   24.8650   35.5590 N   0  0  0  0  0  0  0  0  0  0  0  0
   40.2210   24.6350   35.1570 C   0  0  0  0  0  0  0  0  0  0  0  0
   40.9610   23.6150   35.7560 C   0  0  0  0  0  0  0  0  0  0  0  0
   40.2950   22.9190   36.7310 C   0  0  0  0  0  0  0  0  0  0  0  0
   40.9790   21.9960   37.2660 O   0  0  0  0  0  0  0  0  0  0  0  0
   39.0510   23.1220   37.1470 N   0  0  0  0  0  0  0  0  0  0  0  0
   38.3760   24.1230   36.5360 C   0  0  0  0  0  0  0  0  0  0  0  0
   37.1920   24.3280   36.9190 O   0  0  0  0  0  0  0  0  0  0  0  0
   40.6610   25.2440   34.3730 H   0  0  0  0  0  0  0  0  0  0  0  0
   41.9810   23.4050   35.4550 H   0  0  0  0  0  0  0  0  0  0  0  0
   38.6090   22.5480   37.9000 H   0  0  0  0  0  0  0  0  0  0  0  0
   35.9040   29.0540   33.5720 O   0  0  0  0  0  0  0  0  0  0  0  0
   33.9510   30.1190   34.5820 C   0  0  2  0  0  3  0  0  0  0  0  0
   35.4200   29.8630   34.6560 C   0  0  2  0  0  3  0  0  0  0  0  0
   36.1150   31.0670   34.5760 O   0  0  0  0  0  0  0  0  0  0  0  0
   36.1330   31.6010   35.8620 C   0  0  0  0  0  2  0  0  0  0  0  0
   34.7390   31.6450   36.4310 C   0  0  2  0  0  3  0  0  0  0  0  0
   33.6780   31.3680   35.3940 C   0  0  1  0  0  3  0  0  0  0  0  0
   33.2840   29.0170   35.1360 O   0  0  0  0  0  0  0  0  0  0  0  0
   33.8720   28.2250   35.0230 H   0  0  0  0  0  0  0  0  0  0  0  0
   34.5410   32.9550   36.8790 O   0  0  0  0  0  0  0  0  0  0  0  0
   34.0580   32.9880   37.7410 H   0  0  0  0  0  0  0  0  0  0  0  0
   33.6710   32.4880   34.5430 O   0  0  0  0  0  0  0  0  0  0  0  0
   32.8660   32.3880   33.9550 H   0  0  0  0  0  0  0  0  0  0  0  0
  1  7  1  0  0  0  0
  2  9  1  0  0  0  0
  2  1  2  0  0  0  0
  3  2  1  0  0  0  0
  4  3  2  0  0  0  0
  4  5  1  0  0  0  0
  5  6  2  0  0  0  0
  6  1  1  0  0  0  0
  8  3  1  0  0  0  0
  9 15  1  0  0  0  0
 10  9  1  0  0  0  0
 10 11  2  0  0  0  0
 11 12  1  0  0  0  0
 12 14  1  0  0  0  0
 12 13  2  0  0  0  0
 14 19  1  0  0  0  0
 15 16  2  0  0  0  0
 15 14  1  0  0  0  0
 17 10  1  0  0  0  0
 18 11  1  0  0  0  0
 20  5  1  0  0  0  0
 21 22  1  0  0  0  0
 21 27  1  1  0  0  0
 21 26  1  0  0  0  0
 22 20  1  6  0  0  0
 23 22  1  0  0  0  0
 23 24  1  0  0  0  0
 24 25  1  0  0  0  0
 25 29  1  6  0  0  0
 26 31  1  6  0  0  0
 26 25  1  0  0  0  0
 28 27  1  0  0  0  0
 29 30  1  0  0  0  0
 32 31  1  0  0  0  0
M  END
>  <minimizedAffinity>
-5.36621141

$$$$

 OpenBabel03272500063D

 32 34  0  0  1  0  0  0  0  0999 V2000
   37.7070   24.1740   33.4150 C   0  0  0  0  0  0  0  0  0  0  0  0
   38.3640   24.7780   34.5030 C   0  0  0  0  0  0  0  0  0  0  0  0
   38.1980   26.1490   34.7060 C   0  0  0  0  0  0  0  0  0  0  0  0
   37.4110   26.8420   33.8480 N   0  0  0  0  0  0  0  0  0  0  0  0
   36.7960   26.2550   32.8220 C   0  0  0  0  0  0  0  0  0  0  0  0
   36.9320   24.9070   32.5850 N   0  0  0  0  0  0  0  0  0  0  0  0
   37.8040   23.1150   33.2150 H   0  0  0  0  0  0  0  0  0  0  0  0
   38.7020   26.6140   35.5410 H   0  0  0  0  0  0  0  0  0  0  0  0
   39.1650   23.9480   35.3370 N   0  0  0  0  0  0  0  0  0  0  0  0
   40.4690   23.7160   35.0800 C   0  0  0  0  0  0  0  0  0  0  0  0
   41.2060   22.8940   35.9340 C   0  0  0  0  0  0  0  0  0  0  0  0
   40.5000   22.3840   36.9920 C   0  0  0  0  0  0  0  0  0  0  0  0
   41.1810   21.6400   37.7590 O   0  0  0  0  0  0  0  0  0  0  0  0
   39.2190   22.5940   37.2700 N   0  0  0  0  0  0  0  0  0  0  0  0
   38.5480   23.3980   36.4130 C   0  0  0  0  0  0  0  0  0  0  0  0
   37.3290   23.6070   36.6630 O   0  0  0  0  0  0  0  0  0  0  0  0
   40.9400   24.1690   34.2130 H   0  0  0  0  0  0  0  0  0  0  0  0
   42.2560   22.6890   35.7540 H   0  0  0  0  0  0  0  0  0  0  0  0
   38.7460   22.1690   38.0990 H   0  0  0  0  0  0  0  0  0  0  0  0
   35.9740   26.9270   31.9120 O   0  0  0  0  0  0  0  0  0  0  0  0
   35.0650   29.1070   32.5370 C   0  0  2  0  0  3  0  0  0  0  0  0
   36.1840   28.3480   31.9030 C   0  0  2  0  0  3  0  0  0  0  0  0
   36.3010   28.7090   30.5640 O   0  0  0  0  0  0  0  0  0  0  0  0
   37.0610   29.8760   30.5320 C   0  0  0  0  0  2  0  0  0  0  0  0
   36.4880   30.9000   31.4760 C   0  0  2  0  0  3  0  0  0  0  0  0
   35.1220   30.5180   31.9900 C   0  0  1  0  0  3  0  0  0  0  0  0
   35.2660   29.1090   33.9250 O   0  0  0  0  0  0  0  0  0  0  0  0
   35.7890   28.2960   34.1520 H   0  0  0  0  0  0  0  0  0  0  0  0
   36.3310   32.0740   30.7310 O   0  0  0  0  0  0  0  0  0  0  0  0
   36.5850   32.8800   31.2420 H   0  0  0  0  0  0  0  0  0  0  0  0
   34.2520   30.6300   30.8900 O   0  0  0  0  0  0  0  0  0  0  0  0
   33.3240   30.5390   31.2570 H   0  0  0  0  0  0  0  0  0  0  0  0
  1  2  1  0  0  0  0
  2  3  2  0  0  0  0
  2  9  1  0  0  0  0
  3  8  1  0  0  0  0
  4  3  1  0  0  0  0
  5  4  2  0  0  0  0
  6  5  1  0  0  0  0
  6  1  2  0  0  0  0
  7  1  1  0  0  0  0
  9 15  1  0  0  0  0
 10  9  1  0  0  0  0
 10 11  2  0  0  0  0
 11 12  1  0  0  0  0
 12 14  1  0  0  0  0
 12 13  2  0  0  0  0
 14 19  1  0  0  0  0
 15 16  2  0  0  0  0
 15 14  1  0  0  0  0
 17 10  1  0  0  0  0
 18 11  1  0  0  0  0
 20  5  1  0  0  0  0
 21 27  1  1  0  0  0
 22 20  1  6  0  0  0
 22 21  1  0  0  0  0
 23 22  1  0  0  0  0
 24 23  1  0  0  0  0
 24 25  1  0  0  0  0
 25 29  1  6  0  0  0
 25 26  1  0  0  0  0
 26 31  1  6  0  0  0
 26 21  1  0  0  0  0
 27 28  1  0  0  0  0
 29 30  1  0  0  0  0
 31 32  1  0  0  0  0
M  END
>  <minimizedAffinity>
-5.35240126

$$$$

 OpenBabel03272500063D

 32 34  0  0  1  0  0  0  0  0999 V2000
   37.1010   25.6970   32.0370 C   0  0  0  0  0  0  0  0  0  0  0  0
   37.5290   26.9860   32.4030 C   0  0  0  0  0  0  0  0  0  0  0  0
   38.7720   27.1260   33.0230 C   0  0  0  0  0  0  0  0  0  0  0  0
   39.5140   26.0150   33.2480 N   0  0  0  0  0  0  0  0  0  0  0  0
   39.0930   24.8010   32.8950 C   0  0  0  0  0  0  0  0  0  0  0  0
   37.8760   24.6180   32.2820 N   0  0  0  0  0  0  0  0  0  0  0  0
   36.1460   25.5360   31.5540 H   0  0  0  0  0  0  0  0  0  0  0  0
   39.1020   28.1150   33.3050 H   0  0  0  0  0  0  0  0  0  0  0  0
   36.6630   28.0790   32.1160 N   0  0  0  0  0  0  0  0  0  0  0  0
   35.8670   28.6310   33.0560 C   0  0  0  0  0  0  0  0  0  0  0  0
   35.0390   29.7020   32.7180 C   0  0  0  0  0  0  0  0  0  0  0  0
   35.1220   30.1020   31.4100 C   0  0  0  0  0  0  0  0  0  0  0  0
   34.3660   31.0750   31.1180 O   0  0  0  0  0  0  0  0  0  0  0  0
   35.8950   29.5800   30.4650 N   0  0  0  0  0  0  0  0  0  0  0  0
   36.6790   28.5440   30.8420 C   0  0  0  0  0  0  0  0  0  0  0  0
   37.4180   28.0370   29.9550 O   0  0  0  0  0  0  0  0  0  0  0  0
   35.8730   28.2410   34.0690 H   0  0  0  0  0  0  0  0  0  0  0  0
   34.3880   30.1660   33.4510 H   0  0  0  0  0  0  0  0  0  0  0  0
   35.9040   29.9400   29.4840 H   0  0  0  0  0  0  0  0  0  0  0  0
   39.8240   23.6270   33.1040 O   0  0  0  0  0  0  0  0  0  0  0  0
   38.2450   23.2100   34.9210 C   0  0  2  0  0  3  0  0  0  0  0  0
   39.6440   23.0750   34.4180 C   0  0  2  0  0  3  0  0  0  0  0  0
   40.5150   23.7730   35.2500 O   0  0  0  0  0  0  0  0  0  0  0  0
   40.8070   22.9290   36.3180 C   0  0  0  0  0  2  0  0  0  0  0  0
   39.5370   22.4050   36.9340 C   0  0  2  0  0  3  0  0  0  0  0  0
   38.3080   23.1220   36.4320 C   0  0  1  0  0  3  0  0  0  0  0  0
   37.4850   22.1540   34.3980 O   0  0  0  0  0  0  0  0  0  0  0  0
   37.9070   21.8790   33.5430 H   0  0  0  0  0  0  0  0  0  0  0  0
   39.6300   22.6650   38.3050 O   0  0  0  0  0  0  0  0  0  0  0  0
   39.2880   21.9170   38.8540 H   0  0  0  0  0  0  0  0  0  0  0  0
   38.3700   24.4190   36.9750 O   0  0  0  0  0  0  0  0  0  0  0  0
   37.4840   24.8450   36.7830 H   0  0  0  0  0  0  0  0  0  0  0  0
  1  6  2  0  0  0  0
  1  2  1  0  0  0  0
  2  3  2  0  0  0  0
  3  4  1  0  0  0  0
  3  8  1  0  0  0  0
  5 20  1  0  0  0  0
  5  4  2  0  0  0  0
  6  5  1  0  0  0  0
  7  1  1  0  0  0  0
  9  2  1  0  0  0  0
  9 10  1  0  0  0  0
 10 17  1  0  0  0  0
 11 10  2  0  0  0  0
 11 18  1  0  0  0  0
 12 11  1  0  0  0  0
 13 12  2  0  0  0  0
 14 15  1  0  0  0  0
 14 12  1  0  0  0  0
 15  9  1  0  0  0  0
 16 15  2  0  0  0  0
 19 14  1  0  0  0  0
 21 27  1  6  0  0  0
 21 26  1  0  0  0  0
 22 20  1  6  0  0  0
 22 21  1  0  0  0  0
 22 23  1  0  0  0  0
 23 24  1  0  0  0  0
 24 25  1  0  0  0  0
 25 29  1  1  0  0  0
 26 25  1  0  0  0  0
 26 31  1  1  0  0  0
 28 27  1  0  0  0  0
 29 30  1  0  0  0  0
 32 31  1  0  0  0  0
M  END
>  <minimizedAffinity>
-5.30229044

$$$$
