
 OpenBabel03272505503D

 43 47  0  0  1  0  0  0  0  0999 V2000
   35.7890   29.5290   33.0840 C   0  0  0  0  0  0  0  0  0  0  0  0
   36.1630   30.1690   31.9390 C   0  0  0  0  0  0  0  0  0  0  0  0
   36.9210   29.5180   30.9770 C   0  0  0  0  0  0  0  0  0  0  0  0
   37.2820   28.1970   31.2200 C   0  0  0  0  0  0  0  0  0  0  0  0
   36.8970   27.5390   32.3970 C   0  0  0  0  0  0  0  0  0  0  0  0
   36.1660   28.2430   33.2750 N   0  0  0  0  0  0  0  0  0  0  0  0
   35.8650   31.1910   31.7850 H   0  0  0  0  0  0  0  0  0  0  0  0
   37.2390   29.9670   30.0680 H   0  0  0  0  0  0  0  0  0  0  0  0
   37.8680   27.5830   30.5500 H   0  0  0  0  0  0  0  0  0  0  0  0
   34.9650   30.2320   34.1360 C   0  0  0  0  0  0  0  0  0  0  0  0
   35.6740   30.8340   35.2820 C   0  0  0  0  0  0  0  0  0  0  0  0
   35.0830   31.7250   34.2120 C   0  0  0  0  0  0  0  0  0  0  0  0
   35.1630   30.8920   36.2780 H   0  0  0  0  0  0  0  0  0  0  0  0
   36.7750   30.7420   35.3740 H   0  0  0  0  0  0  0  0  0  0  0  0
   34.1630   32.2830   34.3990 H   0  0  0  0  0  0  0  0  0  0  0  0
   35.7410   32.1830   33.4510 H   0  0  0  0  0  0  0  0  0  0  0  0
   31.6640   28.8240   33.2320 C   0  0  0  0  0  0  0  0  0  0  0  0
   31.0850   28.5730   34.4820 C   0  0  0  0  0  0  0  0  0  0  0  0
   31.8480   28.8940   35.6400 C   0  0  0  0  0  0  0  0  0  0  0  0
   33.0820   29.4220   35.4760 N   0  0  0  0  0  0  0  0  0  0  0  0
   33.6100   29.6520   34.2480 C   0  0  0  0  0  0  0  0  0  0  0  0
   32.9120   29.3580   33.1340 N   0  0  0  0  0  0  0  0  0  0  0  0
   31.1540   28.6110   32.3050 H   0  0  0  0  0  0  0  0  0  0  0  0
   30.1000   28.1510   34.5190 H   0  0  0  0  0  0  0  0  0  0  0  0
   31.4000   28.6990   36.6080 H   0  0  0  0  0  0  0  0  0  0  0  0
   37.2560   26.1570   32.6880 C   0  0  0  0  0  0  0  0  0  0  0  0
   37.1710   25.0380   31.9210 N   0  0  0  0  0  0  0  0  0  0  0  0
   37.6320   23.9890   32.6460 C   0  0  0  0  0  0  0  0  0  0  0  0
   38.0080   24.4580   33.8760 N   0  0  0  0  0  0  0  0  0  0  0  0
   37.7730   25.7610   33.8800 N   0  0  0  0  0  0  0  0  0  0  0  0
   37.7220   22.9480   32.3850 H   0  0  0  0  0  0  0  0  0  0  0  0
   37.7600   24.0400   36.2610 C   0  0  1  0  0  3  0  0  0  0  0  0
   38.5640   23.7810   35.0310 C   0  0  2  0  0  3  0  0  0  0  0  0
   39.8720   24.1860   35.2840 O   0  0  0  0  0  0  0  0  0  0  0  0
   40.5200   23.2780   36.0860 C   0  0  0  0  0  2  0  0  0  0  0  0
   39.6030   22.4550   36.9380 C   0  0  2  0  0  3  0  0  0  0  0  0
   38.3720   23.2130   37.3800 C   0  0  1  0  0  3  0  0  0  0  0  0
   37.8290   25.3720   36.6870 O   0  0  0  0  0  0  0  0  0  0  0  0
   38.7750   25.6920   36.5850 H   0  0  0  0  0  0  0  0  0  0  0  0
   40.3150   22.0920   38.0950 O   0  0  0  0  0  0  0  0  0  0  0  0
   41.2560   21.9690   37.8080 H   0  0  0  0  0  0  0  0  0  0  0  0
   38.7220   23.9800   38.4880 O   0  0  0  0  0  0  0  0  0  0  0  0
   38.0690   23.9250   39.2160 H   0  0  0  0  0  0  0  0  0  0  0  0
  1  6  1  0  0  0  0
  1 10  1  0  0  0  0
  2  1  2  0  0  0  0
  3  4  2  0  0  0  0
  3  2  1  0  0  0  0
  4  5  1  0  0  0  0
  5 26  1  0  0  0  0
  5  6  2  0  0  0  0
  7  2  1  0  0  0  0
  8  3  1  0  0  0  0
  9  4  1  0  0  0  0
 10 12  1  0  0  0  0
 10 21  1  0  0  0  0
 10 11  1  0  0  0  0
 11 14  1  0  0  0  0
 11 13  1  0  0  0  0
 12 15  1  0  0  0  0
 12 11  1  0  0  0  0
 16 12  1  0  0  0  0
 17 18  1  0  0  0  0
 18 24  1  0  0  0  0
 18 19  2  0  0  0  0
 19 25  1  0  0  0  0
 20 19  1  0  0  0  0
 21 20  2  0  0  0  0
 22 17  2  0  0  0  0
 22 21  1  0  0  0  0
 23 17  1  0  0  0  0
 26 30  2  0  0  0  0
 27 28  2  0  0  0  0
 27 26  1  0  0  0  0
 28 29  1  0  0  0  0
 29 30  1  0  0  0  0
 31 28  1  0  0  0  0
 32 38  1  1  0  0  0
 32 37  1  0  0  0  0
 33 29  1  6  0  0  0
 33 34  1  0  0  0  0
 33 32  1  0  0  0  0
 34 35  1  0  0  0  0
 35 36  1  0  0  0  0
 36 37  1  0  0  0  0
 36 40  1  1  0  0  0
 37 42  1  1  0  0  0
 39 38  1  0  0  0  0
 41 40  1  0  0  0  0
 42 43  1  0  0  0  0
M  END
>  <minimizedAffinity>
-6.76506519

$$$$

 OpenBabel03272505503D

 43 47  0  0  1  0  0  0  0  0999 V2000
   38.5610   25.6720   33.6230 C   0  0  0  0  0  0  0  0  0  0  0  0
   38.0750   24.6550   32.8570 C   0  0  0  0  0  0  0  0  0  0  0  0
   36.9950   24.8580   32.0100 C   0  0  0  0  0  0  0  0  0  0  0  0
   36.4320   26.1290   31.9690 C   0  0  0  0  0  0  0  0  0  0  0  0
   36.9340   27.1750   32.7580 C   0  0  0  0  0  0  0  0  0  0  0  0
   37.9790   26.8920   33.5500 N   0  0  0  0  0  0  0  0  0  0  0  0
   38.5350   23.6840   32.9130 H   0  0  0  0  0  0  0  0  0  0  0  0
   36.5760   24.1030   31.3910 H   0  0  0  0  0  0  0  0  0  0  0  0
   35.5910   26.4140   31.3520 H   0  0  0  0  0  0  0  0  0  0  0  0
   39.7350   25.4580   34.5480 C   0  0  0  0  0  0  0  0  0  0  0  0
   41.0830   25.3840   33.9500 C   0  0  0  0  0  0  0  0  0  0  0  0
   40.6760   26.6120   34.7360 C   0  0  0  0  0  0  0  0  0  0  0  0
   41.8690   24.7520   34.4390 H   0  0  0  0  0  0  0  0  0  0  0  0
   41.2150   25.4550   32.8520 H   0  0  0  0  0  0  0  0  0  0  0  0
   41.0570   26.7770   35.7460 H   0  0  0  0  0  0  0  0  0  0  0  0
   40.3940   27.5380   34.2040 H   0  0  0  0  0  0  0  0  0  0  0  0
   37.9500   24.3980   37.6110 C   0  0  0  0  0  0  0  0  0  0  0  0
   38.6540   23.2510   37.9950 C   0  0  0  0  0  0  0  0  0  0  0  0
   39.7520   22.8470   37.1850 C   0  0  0  0  0  0  0  0  0  0  0  0
   40.0570   23.5870   36.0940 N   0  0  0  0  0  0  0  0  0  0  0  0
   39.3510   24.6930   35.7530 C   0  0  0  0  0  0  0  0  0  0  0  0
   38.3070   25.0990   36.5010 N   0  0  0  0  0  0  0  0  0  0  0  0
   37.1050   24.7730   38.1700 H   0  0  0  0  0  0  0  0  0  0  0  0
   38.3430   22.7250   38.8770 H   0  0  0  0  0  0  0  0  0  0  0  0
   40.2970   21.9590   37.4820 H   0  0  0  0  0  0  0  0  0  0  0  0
   36.3710   28.5200   32.7440 C   0  0  0  0  0  0  0  0  0  0  0  0
   36.3360   29.4570   31.7600 N   0  0  0  0  0  0  0  0  0  0  0  0
   35.6980   30.5530   32.2400 C   0  0  0  0  0  0  0  0  0  0  0  0
   35.3310   30.2970   33.5330 N   0  0  0  0  0  0  0  0  0  0  0  0
   35.7450   29.0720   33.8160 N   0  0  0  0  0  0  0  0  0  0  0  0
   35.4760   31.4940   31.7630 H   0  0  0  0  0  0  0  0  0  0  0  0
   35.5760   31.8300   35.4080 C   0  0  1  0  0  3  0  0  0  0  0  0
   34.6300   31.1080   34.5080 C   0  0  2  0  0  3  0  0  0  0  0  0
   33.7880   30.3380   35.3070 O   0  0  0  0  0  0  0  0  0  0  0  0
   32.8460   31.1230   35.9260 C   0  0  0  0  0  2  0  0  0  0  0  0
   33.2580   32.5540   36.0920 C   0  0  2  0  0  3  0  0  0  0  0  0
   34.7440   32.7150   36.3210 C   0  0  1  0  0  3  0  0  0  0  0  0
   36.2880   30.9700   36.2530 O   0  0  0  0  0  0  0  0  0  0  0  0
   35.6630   30.2600   36.5890 H   0  0  0  0  0  0  0  0  0  0  0  0
   32.5970   33.0550   37.2270 O   0  0  0  0  0  0  0  0  0  0  0  0
   31.7150   32.6030   37.2490 H   0  0  0  0  0  0  0  0  0  0  0  0
   34.9910   32.4820   37.6710 O   0  0  0  0  0  0  0  0  0  0  0  0
   35.5860   33.1480   38.0730 H   0  0  0  0  0  0  0  0  0  0  0  0
  1 10  1  0  0  0  0
  2  7  1  0  0  0  0
  2  1  2  0  0  0  0
  3  2  1  0  0  0  0
  4  3  2  0  0  0  0
  4  5  1  0  0  0  0
  5  6  2  0  0  0  0
  6  1  1  0  0  0  0
  8  3  1  0  0  0  0
  9  4  1  0  0  0  0
 10 12  1  0  0  0  0
 10 21  1  0  0  0  0
 11 13  1  0  0  0  0
 11 10  1  0  0  0  0
 11 12  1  0  0  0  0
 12 15  1  0  0  0  0
 14 11  1  0  0  0  0
 16 12  1  0  0  0  0
 17 18  1  0  0  0  0
 17 23  1  0  0  0  0
 18 24  1  0  0  0  0
 19 25  1  0  0  0  0
 19 18  2  0  0  0  0
 20 19  1  0  0  0  0
 21 20  2  0  0  0  0
 21 22  1  0  0  0  0
 22 17  2  0  0  0  0
 26  5  1  0  0  0  0
 26 30  2  0  0  0  0
 27 28  2  0  0  0  0
 27 26  1  0  0  0  0
 28 29  1  0  0  0  0
 29 30  1  0  0  0  0
 31 28  1  0  0  0  0
 32 38  1  1  0  0  0
 32 37  1  0  0  0  0
 33 29  1  6  0  0  0
 33 34  1  0  0  0  0
 33 32  1  0  0  0  0
 34 35  1  0  0  0  0
 35 36  1  0  0  0  0
 36 37  1  0  0  0  0
 36 40  1  1  0  0  0
 37 42  1  1  0  0  0
 38 39  1  0  0  0  0
 40 41  1  0  0  0  0
 42 43  1  0  0  0  0
M  END
>  <minimizedAffinity>
-6.61914635

$$$$

 OpenBabel03272505503D

 43 47  0  0  1  0  0  0  0  0999 V2000
   35.0470   30.3500   34.0130 C   0  0  0  0  0  0  0  0  0  0  0  0
   34.5370   30.6440   32.7830 C   0  0  0  0  0  0  0  0  0  0  0  0
   34.9280   29.9260   31.6630 C   0  0  0  0  0  0  0  0  0  0  0  0
   35.8520   28.9010   31.8380 C   0  0  0  0  0  0  0  0  0  0  0  0
   36.3750   28.5990   33.1040 C   0  0  0  0  0  0  0  0  0  0  0  0
   35.9440   29.3440   34.1340 N   0  0  0  0  0  0  0  0  0  0  0  0
   33.8240   31.4440   32.6850 H   0  0  0  0  0  0  0  0  0  0  0  0
   34.5640   30.1120   30.6820 H   0  0  0  0  0  0  0  0  0  0  0  0
   36.2340   28.2700   31.0480 H   0  0  0  0  0  0  0  0  0  0  0  0
   34.6270   31.1280   35.2380 C   0  0  0  0  0  0  0  0  0  0  0  0
   35.6800   31.5600   36.1780 C   0  0  0  0  0  0  0  0  0  0  0  0
   35.0040   32.5800   35.2870 C   0  0  0  0  0  0  0  0  0  0  0  0
   35.4400   31.6560   37.2680 H   0  0  0  0  0  0  0  0  0  0  0  0
   36.7400   31.2910   35.9970 H   0  0  0  0  0  0  0  0  0  0  0  0
   34.2600   33.2680   35.6950 H   0  0  0  0  0  0  0  0  0  0  0  0
   35.5260   32.9600   34.3900 H   0  0  0  0  0  0  0  0  0  0  0  0
   31.1700   31.3940   36.5310 C   0  0  0  0  0  0  0  0  0  0  0  0
   30.7230   30.0670   36.4860 C   0  0  0  0  0  0  0  0  0  0  0  0
   31.6280   29.0810   36.0030 C   0  0  0  0  0  0  0  0  0  0  0  0
   32.8640   29.4720   35.6170 N   0  0  0  0  0  0  0  0  0  0  0  0
   33.2620   30.7660   35.6750 C   0  0  0  0  0  0  0  0  0  0  0  0
   32.4280   31.7220   36.1270 N   0  0  0  0  0  0  0  0  0  0  0  0
   30.5470   32.2030   36.8840 H   0  0  0  0  0  0  0  0  0  0  0  0
   29.7250   29.8480   36.8120 H   0  0  0  0  0  0  0  0  0  0  0  0
   31.2820   28.0550   35.9680 H   0  0  0  0  0  0  0  0  0  0  0  0
   37.3440   27.5340   33.3290 C   0  0  0  0  0  0  0  0  0  0  0  0
   38.3510   27.0700   32.5420 N   0  0  0  0  0  0  0  0  0  0  0  0
   38.9730   26.0600   33.2000 C   0  0  0  0  0  0  0  0  0  0  0  0
   38.3500   25.8940   34.4070 N   0  0  0  0  0  0  0  0  0  0  0  0
   37.3750   26.7870   34.4640 N   0  0  0  0  0  0  0  0  0  0  0  0
   39.8090   25.4490   32.9050 H   0  0  0  0  0  0  0  0  0  0  0  0
   38.8610   23.5880   34.9960 C   0  0  1  0  0  3  0  0  0  0  0  0
   38.6010   24.9700   35.4950 C   0  0  2  0  0  3  0  0  0  0  0  0
   37.5230   24.9080   36.3750 O   0  0  0  0  0  0  0  0  0  0  0  0
   37.9060   24.3770   37.5830 C   0  0  0  0  0  2  0  0  0  0  0  0
   39.1140   23.4950   37.5050 C   0  0  2  0  0  3  0  0  0  0  0  0
   39.2020   22.7300   36.2040 C   0  0  1  0  0  3  0  0  0  0  0  0
   37.7340   22.9980   34.4120 O   0  0  0  0  0  0  0  0  0  0  0  0
   36.9290   23.2270   34.9660 H   0  0  0  0  0  0  0  0  0  0  0  0
   39.0170   22.5540   38.5450 O   0  0  0  0  0  0  0  0  0  0  0  0
   38.5770   23.0240   39.2980 H   0  0  0  0  0  0  0  0  0  0  0  0
   38.3850   21.6090   36.3170 O   0  0  0  0  0  0  0  0  0  0  0  0
   38.8110   20.7880   35.9950 H   0  0  0  0  0  0  0  0  0  0  0  0
  1  6  1  0  0  0  0
  1 10  1  0  0  0  0
  2  1  2  0  0  0  0
  3  4  2  0  0  0  0
  3  2  1  0  0  0  0
  4  5  1  0  0  0  0
  5 26  1  0  0  0  0
  5  6  2  0  0  0  0
  7  2  1  0  0  0  0
  8  3  1  0  0  0  0
  9  4  1  0  0  0  0
 10 12  1  0  0  0  0
 10 21  1  0  0  0  0
 10 11  1  0  0  0  0
 11 13  1  0  0  0  0
 12 15  1  0  0  0  0
 12 11  1  0  0  0  0
 14 11  1  0  0  0  0
 16 12  1  0  0  0  0
 17 23  1  0  0  0  0
 18 17  1  0  0  0  0
 18 24  1  0  0  0  0
 19 18  2  0  0  0  0
 20 21  2  0  0  0  0
 20 19  1  0  0  0  0
 21 22  1  0  0  0  0
 22 17  2  0  0  0  0
 25 19  1  0  0  0  0
 26 30  2  0  0  0  0
 27 28  2  0  0  0  0
 27 26  1  0  0  0  0
 28 29  1  0  0  0  0
 29 30  1  0  0  0  0
 31 28  1  0  0  0  0
 32 38  1  1  0  0  0
 32 33  1  0  0  0  0
 32 37  1  0  0  0  0
 33 29  1  6  0  0  0
 33 34  1  0  0  0  0
 34 35  1  0  0  0  0
 36 35  1  0  0  0  0
 36 40  1  1  0  0  0
 37 42  1  1  0  0  0
 37 36  1  0  0  0  0
 38 39  1  0  0  0  0
 40 41  1  0  0  0  0
 43 42  1  0  0  0  0
M  END
>  <minimizedAffinity>
-6.5857811

$$$$

 OpenBabel03272505503D

 43 47  0  0  1  0  0  0  0  0999 V2000
   35.9000   29.4500   31.9790 C   0  0  0  0  0  0  0  0  0  0  0  0
   35.9940   29.6810   30.6390 C   0  0  0  0  0  0  0  0  0  0  0  0
   36.9630   29.0470   29.8760 C   0  0  0  0  0  0  0  0  0  0  0  0
   37.8290   28.1730   30.5230 C   0  0  0  0  0  0  0  0  0  0  0  0
   37.7310   27.9350   31.9020 C   0  0  0  0  0  0  0  0  0  0  0  0
   36.7650   28.5910   32.5650 N   0  0  0  0  0  0  0  0  0  0  0  0
   35.3060   30.3640   30.1710 H   0  0  0  0  0  0  0  0  0  0  0  0
   37.0820   29.1890   28.8300 H   0  0  0  0  0  0  0  0  0  0  0  0
   38.6240   27.6190   30.0420 H   0  0  0  0  0  0  0  0  0  0  0  0
   34.8470   30.1370   32.8160 C   0  0  0  0  0  0  0  0  0  0  0  0
   33.4940   30.2840   32.2440 C   0  0  0  0  0  0  0  0  0  0  0  0
   33.7360   29.2840   33.3530 C   0  0  0  0  0  0  0  0  0  0  0  0
   32.8650   31.1650   32.5340 H   0  0  0  0  0  0  0  0  0  0  0  0
   33.2760   29.9240   31.2180 H   0  0  0  0  0  0  0  0  0  0  0  0
   33.4030   29.4920   34.3720 H   0  0  0  0  0  0  0  0  0  0  0  0
   33.8150   28.2070   33.1150 H   0  0  0  0  0  0  0  0  0  0  0  0
   36.0610   31.7830   35.9000 C   0  0  0  0  0  0  0  0  0  0  0  0
   36.5500   33.0050   35.4230 C   0  0  0  0  0  0  0  0  0  0  0  0
   36.4570   33.2540   34.0250 C   0  0  0  0  0  0  0  0  0  0  0  0
   35.9040   32.3060   33.2350 N   0  0  0  0  0  0  0  0  0  0  0  0
   35.4400   31.1330   33.7340 C   0  0  0  0  0  0  0  0  0  0  0  0
   35.5150   30.8700   35.0520 N   0  0  0  0  0  0  0  0  0  0  0  0
   36.0930   31.5160   36.9460 H   0  0  0  0  0  0  0  0  0  0  0  0
   36.9730   33.7000   36.1220 H   0  0  0  0  0  0  0  0  0  0  0  0
   36.8360   34.2000   33.6560 H   0  0  0  0  0  0  0  0  0  0  0  0
   38.6190   27.0270   32.6160 C   0  0  0  0  0  0  0  0  0  0  0  0
   39.9160   26.6890   32.3850 N   0  0  0  0  0  0  0  0  0  0  0  0
   40.2990   25.7990   33.3350 C   0  0  0  0  0  0  0  0  0  0  0  0
   39.2330   25.5810   34.1650 N   0  0  0  0  0  0  0  0  0  0  0  0
   38.2360   26.3270   33.7160 N   0  0  0  0  0  0  0  0  0  0  0  0
   41.2440   25.3060   33.4850 H   0  0  0  0  0  0  0  0  0  0  0  0
   39.0080   23.2920   34.9620 C   0  0  1  0  0  3  0  0  0  0  0  0
   39.0850   24.7360   35.3330 C   0  0  2  0  0  3  0  0  0  0  0  0
   37.9360   25.0510   36.0540 O   0  0  0  0  0  0  0  0  0  0  0  0
   38.0100   24.5580   37.3340 C   0  0  0  0  0  2  0  0  0  0  0  0
   38.9260   23.3820   37.4820 C   0  0  2  0  0  3  0  0  0  0  0  0
   38.9510   22.4970   36.2560 C   0  0  1  0  0  3  0  0  0  0  0  0
   37.8390   22.9710   34.2630 O   0  0  0  0  0  0  0  0  0  0  0  0
   37.0700   23.4600   34.6820 H   0  0  0  0  0  0  0  0  0  0  0  0
   38.4480   22.6070   38.5540 O   0  0  0  0  0  0  0  0  0  0  0  0
   38.0700   23.2500   39.2070 H   0  0  0  0  0  0  0  0  0  0  0  0
   37.8470   21.6530   36.3220 O   0  0  0  0  0  0  0  0  0  0  0  0
   38.0630   20.7200   36.1150 H   0  0  0  0  0  0  0  0  0  0  0  0
  1  6  1  0  0  0  0
  1 10  1  0  0  0  0
  2  1  2  0  0  0  0
  3  4  2  0  0  0  0
  3  2  1  0  0  0  0
  4  5  1  0  0  0  0
  5  6  2  0  0  0  0
  5 26  1  0  0  0  0
  7  2  1  0  0  0  0
  8  3  1  0  0  0  0
  9  4  1  0  0  0  0
 10 12  1  0  0  0  0
 10 21  1  0  0  0  0
 11 13  1  0  0  0  0
 11 10  1  0  0  0  0
 11 12  1  0  0  0  0
 12 15  1  0  0  0  0
 14 11  1  0  0  0  0
 16 12  1  0  0  0  0
 17 23  1  0  0  0  0
 18 17  1  0  0  0  0
 18 24  1  0  0  0  0
 19 18  2  0  0  0  0
 20 21  2  0  0  0  0
 20 19  1  0  0  0  0
 21 22  1  0  0  0  0
 22 17  2  0  0  0  0
 25 19  1  0  0  0  0
 26 30  2  0  0  0  0
 27 26  1  0  0  0  0
 27 28  2  0  0  0  0
 28 31  1  0  0  0  0
 28 29  1  0  0  0  0
 30 29  1  0  0  0  0
 32 38  1  6  0  0  0
 32 33  1  0  0  0  0
 32 37  1  0  0  0  0
 33 29  1  6  0  0  0
 33 34  1  0  0  0  0
 34 35  1  0  0  0  0
 35 36  1  0  0  0  0
 36 40  1  1  0  0  0
 37 42  1  6  0  0  0
 37 36  1  0  0  0  0
 38 39  1  0  0  0  0
 40 41  1  0  0  0  0
 43 42  1  0  0  0  0
M  END
>  <minimizedAffinity>
-6.53437424

$$$$

 OpenBabel03272505503D

 43 47  0  0  1  0  0  0  0  0999 V2000
   38.4360   24.4510   35.4770 C   0  0  0  0  0  0  0  0  0  0  0  0
   38.5270   25.2600   36.5700 C   0  0  0  0  0  0  0  0  0  0  0  0
   38.1940   26.6040   36.4880 C   0  0  0  0  0  0  0  0  0  0  0  0
   37.7660   27.0930   35.2580 C   0  0  0  0  0  0  0  0  0  0  0  0
   37.6730   26.2590   34.1340 C   0  0  0  0  0  0  0  0  0  0  0  0
   38.0150   24.9720   34.3010 N   0  0  0  0  0  0  0  0  0  0  0  0
   38.8610   24.8470   37.5060 H   0  0  0  0  0  0  0  0  0  0  0  0
   38.2450   27.2790   37.3070 H   0  0  0  0  0  0  0  0  0  0  0  0
   37.4790   28.1170   35.0650 H   0  0  0  0  0  0  0  0  0  0  0  0
   38.7970   22.9860   35.5590 C   0  0  0  0  0  0  0  0  0  0  0  0
   40.2160   22.6130   35.3950 C   0  0  0  0  0  0  0  0  0  0  0  0
   39.5730   22.5410   36.7630 C   0  0  0  0  0  0  0  0  0  0  0  0
   40.4770   21.6210   34.9440 H   0  0  0  0  0  0  0  0  0  0  0  0
   40.9810   23.3890   35.1880 H   0  0  0  0  0  0  0  0  0  0  0  0
   39.2990   21.5770   37.1970 H   0  0  0  0  0  0  0  0  0  0  0  0
   39.7760   23.3300   37.5090 H   0  0  0  0  0  0  0  0  0  0  0  0
   36.5640   20.9790   33.3960 C   0  0  0  0  0  0  0  0  0  0  0  0
   35.6030   20.5090   34.2990 C   0  0  0  0  0  0  0  0  0  0  0  0
   35.7350   20.8930   35.6630 C   0  0  0  0  0  0  0  0  0  0  0  0
   36.7730   21.6850   36.0140 N   0  0  0  0  0  0  0  0  0  0  0  0
   37.6850   22.1210   35.1100 C   0  0  0  0  0  0  0  0  0  0  0  0
   37.5860   21.7750   33.8130 N   0  0  0  0  0  0  0  0  0  0  0  0
   36.5370   20.7360   32.3430 H   0  0  0  0  0  0  0  0  0  0  0  0
   34.8130   19.8840   33.9330 H   0  0  0  0  0  0  0  0  0  0  0  0
   34.9920   20.5290   36.3630 H   0  0  0  0  0  0  0  0  0  0  0  0
   37.2290   26.7330   32.8290 C   0  0  0  0  0  0  0  0  0  0  0  0
   36.3470   26.1990   31.9440 N   0  0  0  0  0  0  0  0  0  0  0  0
   36.2750   27.0200   30.8670 C   0  0  0  0  0  0  0  0  0  0  0  0
   37.1180   28.0760   31.0830 N   0  0  0  0  0  0  0  0  0  0  0  0
   37.6820   27.8840   32.2660 N   0  0  0  0  0  0  0  0  0  0  0  0
   35.6900   26.9380   29.9670 H   0  0  0  0  0  0  0  0  0  0  0  0
   36.6120   30.4200   30.6650 C   0  0  1  0  0  3  0  0  0  0  0  0
   37.4300   29.2360   30.2720 C   0  0  2  0  0  3  0  0  0  0  0  0
   37.2020   28.9930   28.9190 O   0  0  0  0  0  0  0  0  0  0  0  0
   37.8670   29.9060   28.1380 C   0  0  0  0  0  2  0  0  0  0  0  0
   38.1560   31.2030   28.8300 C   0  0  2  0  0  3  0  0  0  0  0  0
   37.0840   31.5930   29.8210 C   0  0  1  0  0  3  0  0  0  0  0  0
   35.2520   30.2640   30.3770 O   0  0  0  0  0  0  0  0  0  0  0  0
   35.1630   29.8230   29.4800 H   0  0  0  0  0  0  0  0  0  0  0  0
   38.2070   32.2050   27.8440 O   0  0  0  0  0  0  0  0  0  0  0  0
   38.5900   31.7740   27.0380 H   0  0  0  0  0  0  0  0  0  0  0  0
   36.0500   32.1960   29.1110 O   0  0  0  0  0  0  0  0  0  0  0  0
   35.7260   33.0210   29.5290 H   0  0  0  0  0  0  0  0  0  0  0  0
  1 10  1  0  0  0  0
  1  2  1  0  0  0  0
  2  7  1  0  0  0  0
  3  2  2  0  0  0  0
  3  8  1  0  0  0  0
  4  3  1  0  0  0  0
  5  6  1  0  0  0  0
  5  4  2  0  0  0  0
  6  1  2  0  0  0  0
  9  4  1  0  0  0  0
 10 12  1  0  0  0  0
 11 10  1  0  0  0  0
 11 12  1  0  0  0  0
 12 15  1  0  0  0  0
 12 16  1  0  0  0  0
 13 11  1  0  0  0  0
 14 11  1  0  0  0  0
 17 22  2  0  0  0  0
 17 18  1  0  0  0  0
 18 19  2  0  0  0  0
 19 20  1  0  0  0  0
 19 25  1  0  0  0  0
 21 10  1  0  0  0  0
 21 20  2  0  0  0  0
 22 21  1  0  0  0  0
 23 17  1  0  0  0  0
 24 18  1  0  0  0  0
 26  5  1  0  0  0  0
 27 26  1  0  0  0  0
 28 29  1  0  0  0  0
 28 27  2  0  0  0  0
 29 30  1  0  0  0  0
 30 26  2  0  0  0  0
 31 28  1  0  0  0  0
 32 38  1  6  0  0  0
 33 32  1  0  0  0  0
 33 29  1  1  0  0  0
 34 33  1  0  0  0  0
 35 36  1  0  0  0  0
 35 34  1  0  0  0  0
 36 40  1  6  0  0  0
 36 37  1  0  0  0  0
 37 42  1  6  0  0  0
 37 32  1  0  0  0  0
 39 38  1  0  0  0  0
 41 40  1  0  0  0  0
 42 43  1  0  0  0  0
M  END
>  <minimizedAffinity>
-6.47277308

$$$$

 OpenBabel03272505503D

 43 47  0  0  1  0  0  0  0  0999 V2000
   38.7970   24.6000   35.5360 C   0  0  0  0  0  0  0  0  0  0  0  0
   40.1120   24.7830   35.2280 C   0  0  0  0  0  0  0  0  0  0  0  0
   40.5060   25.8090   34.3810 C   0  0  0  0  0  0  0  0  0  0  0  0
   39.5180   26.6380   33.8620 C   0  0  0  0  0  0  0  0  0  0  0  0
   38.1650   26.4490   34.1800 C   0  0  0  0  0  0  0  0  0  0  0  0
   37.8710   25.4320   35.0060 N   0  0  0  0  0  0  0  0  0  0  0  0
   40.8500   24.1220   35.6480 H   0  0  0  0  0  0  0  0  0  0  0  0
   41.5150   25.9980   34.1080 H   0  0  0  0  0  0  0  0  0  0  0  0
   39.6950   27.4700   33.1940 H   0  0  0  0  0  0  0  0  0  0  0  0
   38.3600   23.4850   36.4560 C   0  0  0  0  0  0  0  0  0  0  0  0
   39.2580   23.1120   37.5670 C   0  0  0  0  0  0  0  0  0  0  0  0
   37.9770   23.8650   37.8560 C   0  0  0  0  0  0  0  0  0  0  0  0
   39.2740   22.0530   37.9320 H   0  0  0  0  0  0  0  0  0  0  0  0
   40.2340   23.6210   37.6950 H   0  0  0  0  0  0  0  0  0  0  0  0
   37.1160   23.3510   38.2890 H   0  0  0  0  0  0  0  0  0  0  0  0
   38.0130   24.9480   38.0740 H   0  0  0  0  0  0  0  0  0  0  0  0
   36.9000   21.3540   33.8070 C   0  0  0  0  0  0  0  0  0  0  0  0
   35.8800   20.6760   34.4850 C   0  0  0  0  0  0  0  0  0  0  0  0
   35.7020   20.9630   35.8680 C   0  0  0  0  0  0  0  0  0  0  0  0
   36.5210   21.8680   36.4500 N   0  0  0  0  0  0  0  0  0  0  0  0
   37.4980   22.5050   35.7600 C   0  0  0  0  0  0  0  0  0  0  0  0
   37.6900   22.2550   34.4510 N   0  0  0  0  0  0  0  0  0  0  0  0
   37.1010   21.1960   32.7570 H   0  0  0  0  0  0  0  0  0  0  0  0
   35.2770   19.9740   33.9430 H   0  0  0  0  0  0  0  0  0  0  0  0
   34.9130   20.4380   36.3930 H   0  0  0  0  0  0  0  0  0  0  0  0
   37.1010   27.2960   33.6570 C   0  0  0  0  0  0  0  0  0  0  0  0
   36.4850   27.3010   32.4450 N   0  0  0  0  0  0  0  0  0  0  0  0
   35.5540   28.2870   32.4440 C   0  0  0  0  0  0  0  0  0  0  0  0
   35.5880   28.9010   33.6670 N   0  0  0  0  0  0  0  0  0  0  0  0
   36.5230   28.2910   34.3790 N   0  0  0  0  0  0  0  0  0  0  0  0
   34.8710   28.5990   31.6730 H   0  0  0  0  0  0  0  0  0  0  0  0
   35.6970   31.0650   34.7770 C   0  0  1  0  0  3  0  0  0  0  0  0
   34.8170   30.0030   34.2080 C   0  0  2  0  0  3  0  0  0  0  0  0
   33.9530   29.5810   35.2160 O   0  0  0  0  0  0  0  0  0  0  0  0
   32.9610   30.5060   35.4310 C   0  0  0  0  0  2  0  0  0  0  0  0
   33.3290   31.9000   35.0230 C   0  0  2  0  0  3  0  0  0  0  0  0
   34.7960   32.2040   35.2250 C   0  0  1  0  0  3  0  0  0  0  0  0
   36.3850   30.6470   35.9230 O   0  0  0  0  0  0  0  0  0  0  0  0
   35.7600   30.1040   36.4910 H   0  0  0  0  0  0  0  0  0  0  0  0
   32.5970   32.7840   35.8360 O   0  0  0  0  0  0  0  0  0  0  0  0
   31.7260   32.3410   36.0040 H   0  0  0  0  0  0  0  0  0  0  0  0
   34.9780   32.5410   36.5630 O   0  0  0  0  0  0  0  0  0  0  0  0
   35.5350   33.3370   36.6870 H   0  0  0  0  0  0  0  0  0  0  0  0
  1 10  1  0  0  0  0
  2  1  1  0  0  0  0
  2  7  1  0  0  0  0
  3  2  2  0  0  0  0
  4  5  2  0  0  0  0
  4  3  1  0  0  0  0
  5  6  1  0  0  0  0
  6  1  2  0  0  0  0
  8  3  1  0  0  0  0
  9  4  1  0  0  0  0
 10 11  1  0  0  0  0
 10 12  1  0  0  0  0
 11 14  1  0  0  0  0
 11 12  1  0  0  0  0
 11 13  1  0  0  0  0
 12 16  1  0  0  0  0
 12 15  1  0  0  0  0
 17 22  2  0  0  0  0
 17 18  1  0  0  0  0
 18 19  2  0  0  0  0
 19 25  1  0  0  0  0
 19 20  1  0  0  0  0
 21 20  2  0  0  0  0
 21 10  1  0  0  0  0
 22 21  1  0  0  0  0
 23 17  1  0  0  0  0
 24 18  1  0  0  0  0
 26  5  1  0  0  0  0
 26 30  2  0  0  0  0
 27 26  1  0  0  0  0
 28 27  2  0  0  0  0
 28 29  1  0  0  0  0
 29 30  1  0  0  0  0
 31 28  1  0  0  0  0
 32 37  1  0  0  0  0
 32 38  1  1  0  0  0
 33 29  1  1  0  0  0
 33 32  1  0  0  0  0
 33 34  1  0  0  0  0
 34 35  1  0  0  0  0
 36 37  1  0  0  0  0
 36 35  1  0  0  0  0
 36 40  1  1  0  0  0
 37 42  1  1  0  0  0
 38 39  1  0  0  0  0
 40 41  1  0  0  0  0
 42 43  1  0  0  0  0
M  END
>  <minimizedAffinity>
-6.41061258

$$$$

 OpenBabel03272505503D

 43 47  0  0  1  0  0  0  0  0999 V2000
   38.3310   25.0990   36.3210 C   0  0  0  0  0  0  0  0  0  0  0  0
   38.4160   26.4460   36.5120 C   0  0  0  0  0  0  0  0  0  0  0  0
   38.0850   27.3290   35.4950 C   0  0  0  0  0  0  0  0  0  0  0  0
   37.6650   26.7940   34.2810 C   0  0  0  0  0  0  0  0  0  0  0  0
   37.5780   25.4070   34.0860 C   0  0  0  0  0  0  0  0  0  0  0  0
   37.9180   24.6250   35.1220 N   0  0  0  0  0  0  0  0  0  0  0  0
   38.7440   26.8250   37.4640 H   0  0  0  0  0  0  0  0  0  0  0  0
   38.1310   28.3860   35.5880 H   0  0  0  0  0  0  0  0  0  0  0  0
   37.3800   27.3740   33.4150 H   0  0  0  0  0  0  0  0  0  0  0  0
   38.6910   24.1310   37.4230 C   0  0  0  0  0  0  0  0  0  0  0  0
   38.3200   24.4890   38.8060 C   0  0  0  0  0  0  0  0  0  0  0  0
   37.5610   23.3970   38.0840 C   0  0  0  0  0  0  0  0  0  0  0  0
   38.9570   24.1350   39.6580 H   0  0  0  0  0  0  0  0  0  0  0  0
   37.8190   25.4540   39.0220 H   0  0  0  0  0  0  0  0  0  0  0  0
   37.7320   22.3470   38.3280 H   0  0  0  0  0  0  0  0  0  0  0  0
   36.5590   23.6060   37.6670 H   0  0  0  0  0  0  0  0  0  0  0  0
   41.3350   21.5440   37.5230 C   0  0  0  0  0  0  0  0  0  0  0  0
   42.1730   21.9220   36.4670 C   0  0  0  0  0  0  0  0  0  0  0  0
   41.8150   23.0790   35.7200 C   0  0  0  0  0  0  0  0  0  0  0  0
   40.6930   23.7490   36.0660 N   0  0  0  0  0  0  0  0  0  0  0  0
   39.9050   23.3540   37.0960 C   0  0  0  0  0  0  0  0  0  0  0  0
   40.2190   22.2630   37.8210 N   0  0  0  0  0  0  0  0  0  0  0  0
   41.5350   20.6800   38.1400 H   0  0  0  0  0  0  0  0  0  0  0  0
   43.0440   21.3300   36.2620 H   0  0  0  0  0  0  0  0  0  0  0  0
   42.4630   23.3710   34.9020 H   0  0  0  0  0  0  0  0  0  0  0  0
   37.1430   24.8090   32.8310 C   0  0  0  0  0  0  0  0  0  0  0  0
   36.7060   25.3820   31.6780 N   0  0  0  0  0  0  0  0  0  0  0  0
   36.4190   24.3950   30.7940 C   0  0  0  0  0  0  0  0  0  0  0  0
   36.6800   23.1950   31.4000 N   0  0  0  0  0  0  0  0  0  0  0  0
   37.1130   23.4670   32.6210 N   0  0  0  0  0  0  0  0  0  0  0  0
   36.0500   24.4510   29.7840 H   0  0  0  0  0  0  0  0  0  0  0  0
   35.6700   21.0180   31.8060 C   0  0  1  0  0  3  0  0  0  0  0  0
   36.5540   21.8330   30.9220 C   0  0  2  0  0  3  0  0  0  0  0  0
   37.7910   21.1960   30.8530 O   0  0  0  0  0  0  0  0  0  0  0  0
   37.7290   20.0930   30.0370 C   0  0  0  0  0  2  0  0  0  0  0  0
   36.3560   19.5090   29.9030 C   0  0  2  0  0  3  0  0  0  0  0  0
   35.5330   19.6470   31.1640 C   0  0  1  0  0  3  0  0  0  0  0  0
   36.2210   20.7950   33.0720 O   0  0  0  0  0  0  0  0  0  0  0  0
   37.2010   20.6020   32.9660 H   0  0  0  0  0  0  0  0  0  0  0  0
   36.5050   18.1350   29.6430 O   0  0  0  0  0  0  0  0  0  0  0  0
   37.3270   18.0500   29.0950 H   0  0  0  0  0  0  0  0  0  0  0  0
   35.8960   18.6120   32.0210 O   0  0  0  0  0  0  0  0  0  0  0  0
   35.1270   18.1620   32.4280 H   0  0  0  0  0  0  0  0  0  0  0  0
  1  2  1  0  0  0  0
  1 10  1  0  0  0  0
  2  7  1  0  0  0  0
  3  8  1  0  0  0  0
  3  2  2  0  0  0  0
  4  3  1  0  0  0  0
  5  4  2  0  0  0  0
  5  6  1  0  0  0  0
  6  1  2  0  0  0  0
  9  4  1  0  0  0  0
 10 12  1  0  0  0  0
 10 11  1  0  0  0  0
 11 14  1  0  0  0  0
 11 13  1  0  0  0  0
 12 15  1  0  0  0  0
 12 11  1  0  0  0  0
 16 12  1  0  0  0  0
 17 22  1  0  0  0  0
 17 23  1  0  0  0  0
 18 17  2  0  0  0  0
 19 20  2  0  0  0  0
 19 18  1  0  0  0  0
 20 21  1  0  0  0  0
 21 10  1  0  0  0  0
 21 22  2  0  0  0  0
 24 18  1  0  0  0  0
 25 19  1  0  0  0  0
 26  5  1  0  0  0  0
 27 26  1  0  0  0  0
 28 29  1  0  0  0  0
 28 27  2  0  0  0  0
 29 30  1  0  0  0  0
 30 26  2  0  0  0  0
 31 28  1  0  0  0  0
 32 38  1  1  0  0  0
 33 29  1  1  0  0  0
 33 32  1  0  0  0  0
 34 33  1  0  0  0  0
 35 34  1  0  0  0  0
 36 40  1  1  0  0  0
 36 35  1  0  0  0  0
 36 37  1  0  0  0  0
 37 32  1  0  0  0  0
 37 42  1  1  0  0  0
 39 38  1  0  0  0  0
 41 40  1  0  0  0  0
 42 43  1  0  0  0  0
M  END
>  <minimizedAffinity>
-6.34227133

$$$$

 OpenBabel03272505503D

 43 47  0  0  1  0  0  0  0  0999 V2000
   38.4120   27.1360   33.0760 C   0  0  0  0  0  0  0  0  0  0  0  0
   39.1250   27.1230   31.9150 C   0  0  0  0  0  0  0  0  0  0  0  0
   38.6830   27.8240   30.8030 C   0  0  0  0  0  0  0  0  0  0  0  0
   37.4940   28.5360   30.9150 C   0  0  0  0  0  0  0  0  0  0  0  0
   36.7600   28.5490   32.1110 C   0  0  0  0  0  0  0  0  0  0  0  0
   37.2600   27.8430   33.1370 N   0  0  0  0  0  0  0  0  0  0  0  0
   40.0420   26.5620   31.8640 H   0  0  0  0  0  0  0  0  0  0  0  0
   39.1980   27.8500   29.8740 H   0  0  0  0  0  0  0  0  0  0  0  0
   37.0450   29.1210   30.1240 H   0  0  0  0  0  0  0  0  0  0  0  0
   38.8870   26.3750   34.2920 C   0  0  0  0  0  0  0  0  0  0  0  0
   40.1400   26.8130   34.9370 C   0  0  0  0  0  0  0  0  0  0  0  0
   38.8130   27.0820   35.6130 C   0  0  0  0  0  0  0  0  0  0  0  0
   40.7870   26.0590   35.4540 H   0  0  0  0  0  0  0  0  0  0  0  0
   40.7220   27.6580   34.5170 H   0  0  0  0  0  0  0  0  0  0  0  0
   38.4970   26.4880   36.4730 H   0  0  0  0  0  0  0  0  0  0  0  0
   38.3730   28.0950   35.5780 H   0  0  0  0  0  0  0  0  0  0  0  0
   37.5980   23.1290   33.0680 C   0  0  0  0  0  0  0  0  0  0  0  0
   37.6630   22.3220   34.2100 C   0  0  0  0  0  0  0  0  0  0  0  0
   38.1580   22.9120   35.4080 C   0  0  0  0  0  0  0  0  0  0  0  0
   38.5350   24.2100   35.3810 N   0  0  0  0  0  0  0  0  0  0  0  0
   38.4580   24.9600   34.2550 C   0  0  0  0  0  0  0  0  0  0  0  0
   37.9940   24.4300   33.1070 N   0  0  0  0  0  0  0  0  0  0  0  0
   37.2350   22.7610   32.1190 H   0  0  0  0  0  0  0  0  0  0  0  0
   37.3420   21.3010   34.1400 H   0  0  0  0  0  0  0  0  0  0  0  0
   38.2090   22.2870   36.2920 H   0  0  0  0  0  0  0  0  0  0  0  0
   35.5110   29.2820   32.2680 C   0  0  0  0  0  0  0  0  0  0  0  0
   34.8760   30.1440   31.4290 N   0  0  0  0  0  0  0  0  0  0  0  0
   33.7390   30.5660   32.0340 C   0  0  0  0  0  0  0  0  0  0  0  0
   33.6620   29.9610   33.2600 N   0  0  0  0  0  0  0  0  0  0  0  0
   34.7350   29.1960   33.3800 N   0  0  0  0  0  0  0  0  0  0  0  0
   32.9780   31.2470   31.6900 H   0  0  0  0  0  0  0  0  0  0  0  0
   32.9350   31.1960   35.2280 C   0  0  1  0  0  3  0  0  0  0  0  0
   32.6680   30.0490   34.3110 C   0  0  2  0  0  3  0  0  0  0  0  0
   32.6310   28.8890   35.0820 O   0  0  0  0  0  0  0  0  0  0  0  0
   31.4530   28.8040   35.7840 C   0  0  0  0  0  2  0  0  0  0  0  0
   30.7960   30.1270   36.0340 C   0  0  2  0  0  3  0  0  0  0  0  0
   31.7900   31.2500   36.2260 C   0  0  1  0  0  3  0  0  0  0  0  0
   34.0980   31.0280   35.9880 O   0  0  0  0  0  0  0  0  0  0  0  0
   34.1460   30.0730   36.2930 H   0  0  0  0  0  0  0  0  0  0  0  0
   30.0540   30.0110   37.2230 O   0  0  0  0  0  0  0  0  0  0  0  0
   29.7160   29.0790   37.2420 H   0  0  0  0  0  0  0  0  0  0  0  0
   32.2240   31.2100   37.5480 O   0  0  0  0  0  0  0  0  0  0  0  0
   32.2370   32.0910   37.9760 H   0  0  0  0  0  0  0  0  0  0  0  0
  1  6  1  0  0  0  0
  1 10  1  0  0  0  0
  2  1  2  0  0  0  0
  3  4  2  0  0  0  0
  3  2  1  0  0  0  0
  4  5  1  0  0  0  0
  5 26  1  0  0  0  0
  5  6  2  0  0  0  0
  7  2  1  0  0  0  0
  8  3  1  0  0  0  0
  9  4  1  0  0  0  0
 10 11  1  0  0  0  0
 10 12  1  0  0  0  0
 11 13  1  0  0  0  0
 11 12  1  0  0  0  0
 12 15  1  0  0  0  0
 14 11  1  0  0  0  0
 16 12  1  0  0  0  0
 17 22  2  0  0  0  0
 17 18  1  0  0  0  0
 18 19  2  0  0  0  0
 19 25  1  0  0  0  0
 20 19  1  0  0  0  0
 21 10  1  0  0  0  0
 21 20  2  0  0  0  0
 22 21  1  0  0  0  0
 23 17  1  0  0  0  0
 24 18  1  0  0  0  0
 26 30  2  0  0  0  0
 27 28  2  0  0  0  0
 27 26  1  0  0  0  0
 28 29  1  0  0  0  0
 29 30  1  0  0  0  0
 31 28  1  0  0  0  0
 32 38  1  1  0  0  0
 32 37  1  0  0  0  0
 33 29  1  6  0  0  0
 33 34  1  0  0  0  0
 33 32  1  0  0  0  0
 34 35  1  0  0  0  0
 35 36  1  0  0  0  0
 36 37  1  0  0  0  0
 36 40  1  1  0  0  0
 37 42  1  1  0  0  0
 38 39  1  0  0  0  0
 40 41  1  0  0  0  0
 42 43  1  0  0  0  0
M  END
>  <minimizedAffinity>
-6.26656199

$$$$

 OpenBabel03272505503D

 43 47  0  0  1  0  0  0  0  0999 V2000
   38.8110   24.7480   33.7240 C   0  0  0  0  0  0  0  0  0  0  0  0
   40.0930   25.0630   33.3840 C   0  0  0  0  0  0  0  0  0  0  0  0
   40.3990   26.3010   32.8390 C   0  0  0  0  0  0  0  0  0  0  0  0
   39.3580   27.2050   32.6550 C   0  0  0  0  0  0  0  0  0  0  0  0
   38.0390   26.8800   33.0060 C   0  0  0  0  0  0  0  0  0  0  0  0
   37.8310   25.6600   33.5250 N   0  0  0  0  0  0  0  0  0  0  0  0
   40.8740   24.3390   33.5400 H   0  0  0  0  0  0  0  0  0  0  0  0
   41.3790   26.5990   32.5570 H   0  0  0  0  0  0  0  0  0  0  0  0
   39.4670   28.1980   32.2420 H   0  0  0  0  0  0  0  0  0  0  0  0
   38.4700   23.4010   34.3160 C   0  0  0  0  0  0  0  0  0  0  0  0
   37.4800   22.5650   33.6100 C   0  0  0  0  0  0  0  0  0  0  0  0
   38.9450   22.1880   33.5730 C   0  0  0  0  0  0  0  0  0  0  0  0
   36.8290   21.8670   34.1960 H   0  0  0  0  0  0  0  0  0  0  0  0
   36.9860   22.9360   32.6890 H   0  0  0  0  0  0  0  0  0  0  0  0
   39.3200   21.3570   34.1740 H   0  0  0  0  0  0  0  0  0  0  0  0
   39.5440   22.3970   32.6680 H   0  0  0  0  0  0  0  0  0  0  0  0
   37.7990   23.9560   37.9130 C   0  0  0  0  0  0  0  0  0  0  0  0
   38.9160   23.3750   38.5260 C   0  0  0  0  0  0  0  0  0  0  0  0
   39.9020   22.7900   37.6840 C   0  0  0  0  0  0  0  0  0  0  0  0
   39.7130   22.8240   36.3450 N   0  0  0  0  0  0  0  0  0  0  0  0
   38.6180   23.3970   35.7870 C   0  0  0  0  0  0  0  0  0  0  0  0
   37.6680   23.9590   36.5580 N   0  0  0  0  0  0  0  0  0  0  0  0
   37.0060   24.4230   38.4780 H   0  0  0  0  0  0  0  0  0  0  0  0
   38.9850   23.3930   39.5960 H   0  0  0  0  0  0  0  0  0  0  0  0
   40.7660   22.3390   38.1590 H   0  0  0  0  0  0  0  0  0  0  0  0
   36.9220   27.7990   32.8290 C   0  0  0  0  0  0  0  0  0  0  0  0
   36.1810   28.0930   31.7270 N   0  0  0  0  0  0  0  0  0  0  0  0
   35.2510   29.0170   32.0750 C   0  0  0  0  0  0  0  0  0  0  0  0
   35.4130   29.3010   33.4040 N   0  0  0  0  0  0  0  0  0  0  0  0
   36.4210   28.5600   33.8360 N   0  0  0  0  0  0  0  0  0  0  0  0
   34.4880   29.4930   31.4820 H   0  0  0  0  0  0  0  0  0  0  0  0
   35.6340   31.0880   35.0420 C   0  0  1  0  0  3  0  0  0  0  0  0
   34.7000   30.2050   34.2840 C   0  0  2  0  0  3  0  0  0  0  0  0
   33.9220   29.5140   35.2110 O   0  0  0  0  0  0  0  0  0  0  0  0
   32.9600   30.3320   35.7500 C   0  0  0  0  0  2  0  0  0  0  0  0
   33.3020   31.7890   35.7030 C   0  0  2  0  0  3  0  0  0  0  0  0
   34.7830   32.0510   35.8540 C   0  0  1  0  0  3  0  0  0  0  0  0
   36.4140   30.3880   35.9700 O   0  0  0  0  0  0  0  0  0  0  0  0
   35.8360   29.7030   36.4220 H   0  0  0  0  0  0  0  0  0  0  0  0
   32.6500   32.4110   36.7830 O   0  0  0  0  0  0  0  0  0  0  0  0
   31.7930   31.9260   36.8990 H   0  0  0  0  0  0  0  0  0  0  0  0
   35.0820   32.0190   37.2130 O   0  0  0  0  0  0  0  0  0  0  0  0
   35.6540   32.7610   37.5000 H   0  0  0  0  0  0  0  0  0  0  0  0
  1 10  1  0  0  0  0
  2  7  1  0  0  0  0
  2  1  2  0  0  0  0
  3  2  1  0  0  0  0
  4  3  2  0  0  0  0
  4  5  1  0  0  0  0
  5  6  2  0  0  0  0
  6  1  1  0  0  0  0
  8  3  1  0  0  0  0
  9  4  1  0  0  0  0
 10 21  1  0  0  0  0
 11 13  1  0  0  0  0
 11 10  1  0  0  0  0
 12 11  1  0  0  0  0
 12 15  1  0  0  0  0
 12 10  1  0  0  0  0
 14 11  1  0  0  0  0
 16 12  1  0  0  0  0
 17 23  1  0  0  0  0
 17 18  1  0  0  0  0
 18 24  1  0  0  0  0
 19 25  1  0  0  0  0
 19 18  2  0  0  0  0
 20 19  1  0  0  0  0
 21 20  2  0  0  0  0
 21 22  1  0  0  0  0
 22 17  2  0  0  0  0
 26  5  1  0  0  0  0
 26 30  2  0  0  0  0
 27 28  2  0  0  0  0
 27 26  1  0  0  0  0
 28 29  1  0  0  0  0
 29 30  1  0  0  0  0
 31 28  1  0  0  0  0
 32 37  1  0  0  0  0
 32 38  1  1  0  0  0
 33 29  1  1  0  0  0
 33 32  1  0  0  0  0
 33 34  1  0  0  0  0
 34 35  1  0  0  0  0
 36 35  1  0  0  0  0
 36 37  1  0  0  0  0
 36 40  1  1  0  0  0
 37 42  1  1  0  0  0
 38 39  1  0  0  0  0
 40 41  1  0  0  0  0
 42 43  1  0  0  0  0
M  END
>  <minimizedAffinity>
-6.2594018

$$$$
