
 OpenBabel03272509573D

 49 52  0  0  1  0  0  0  0  0999 V2000
   33.5280   27.5990   47.6020 C   0  0  0  0  0  0  0  0  0  0  0  0
   33.6750   27.5350   46.4890 H   0  0  0  0  0  0  0  0  0  0  0  0
   33.7790   26.5910   47.9820 H   0  0  0  0  0  0  0  0  0  0  0  0
   32.0860   27.9050   47.7870 C   0  0  0  0  0  0  0  0  0  0  0  0
   31.4710   27.4790   48.9600 C   0  0  0  0  0  0  0  0  0  0  0  0
   30.1490   27.7200   49.2090 C   0  0  0  0  0  0  0  0  0  0  0  0
   29.4300   28.3790   48.3060 N   0  0  0  0  0  0  0  0  0  0  0  0
   30.0350   28.7970   47.1550 C   0  0  0  0  0  0  0  0  0  0  0  0
   31.3300   28.5760   46.8830 N   0  0  0  0  0  0  0  0  0  0  0  0
   32.0180   26.9370   49.7280 H   0  0  0  0  0  0  0  0  0  0  0  0
   29.6850   27.3800   50.1300 H   0  0  0  0  0  0  0  0  0  0  0  0
   29.1870   29.5280   46.1810 C   0  0  0  0  0  0  0  0  0  0  0  0
   28.3310   30.0070   46.6820 H   0  0  0  0  0  0  0  0  0  0  0  0
   29.7180   30.3340   45.6400 H   0  0  0  0  0  0  0  0  0  0  0  0
   29.0560   28.7470   43.8090 C   0  0  2  0  0  3  0  0  0  0  0  0
   28.5980   28.5060   45.2320 C   0  0  1  0  0  3  0  0  0  0  0  0
   28.9770   27.2080   45.5640 O   0  0  0  0  0  0  0  0  0  0  0  0
   27.9980   26.3480   45.0750 C   0  0  0  0  0  2  0  0  0  0  0  0
   27.4560   26.7980   43.7420 C   0  0  1  0  0  3  0  0  0  0  0  0
   28.4560   27.6290   42.9710 C   0  0  1  0  0  3  0  0  0  0  0  0
   30.4550   28.6640   43.7980 O   0  0  0  0  0  0  0  0  0  0  0  0
   30.7370   27.8260   43.3320 H   0  0  0  0  0  0  0  0  0  0  0  0
   27.2090   25.6490   42.9850 O   0  0  0  0  0  0  0  0  0  0  0  0
   26.2250   25.4360   42.9450 H   0  0  0  0  0  0  0  0  0  0  0  0
   27.7340   28.2390   41.9420 O   0  0  0  0  0  0  0  0  0  0  0  0
   27.9190   27.8110   41.0730 H   0  0  0  0  0  0  0  0  0  0  0  0
   34.4230   28.6890   48.1020 C   0  0  0  0  0  0  0  0  0  0  0  0
   33.7940   29.6070   48.2180 H   0  0  0  0  0  0  0  0  0  0  0  0
   35.2210   28.9710   47.3620 H   0  0  0  0  0  0  0  0  0  0  0  0
   34.9700   28.3790   49.3700 O   0  0  0  0  0  0  0  0  0  0  0  0
   37.3000   30.1530   51.4810 C   0  0  0  0  0  0  0  0  0  0  0  0
   38.0440   30.8430   50.4890 C   0  0  0  0  0  0  0  0  0  0  0  0
   37.6940   30.6520   49.1660 C   0  0  0  0  0  0  0  0  0  0  0  0
   36.6520   29.8060   48.9280 N   0  0  0  0  0  0  0  0  0  0  0  0
   35.9580   29.1600   49.8640 C   0  0  0  0  0  0  0  0  0  0  0  0
   36.2950   29.3420   51.1600 N   0  0  0  0  0  0  0  0  0  0  0  0
   37.6260   30.3470   52.4930 H   0  0  0  0  0  0  0  0  0  0  0  0
   38.8610   31.5040   50.7000 H   0  0  0  0  0  0  0  0  0  0  0  0
   38.9160   33.2730   49.0040 F   0  0  0  0  0  0  0  0  0  0  0  0
   38.9170   32.4860   47.9340 C   0  0  0  0  0  0  0  0  0  0  0  0
   38.3450   31.2770   48.0320 C   0  0  0  0  0  0  0  0  0  0  0  0
   38.3970   30.5210   46.8500 C   0  0  0  0  0  0  0  0  0  0  0  0
   38.9840   30.9940   45.7060 C   0  0  0  0  0  0  0  0  0  0  0  0
   39.5570   32.2460   45.6630 C   0  0  0  0  0  0  0  0  0  0  0  0
   39.5120   32.9840   46.7970 C   0  0  0  0  0  0  0  0  0  0  0  0
   37.9740   29.5240   46.7880 H   0  0  0  0  0  0  0  0  0  0  0  0
   39.0130   30.3900   44.8000 H   0  0  0  0  0  0  0  0  0  0  0  0
   40.0240   32.6330   44.7660 H   0  0  0  0  0  0  0  0  0  0  0  0
   39.9580   33.9750   46.7870 H   0  0  0  0  0  0  0  0  0  0  0  0
  1  4  1  0  0  0  0
  1  3  1  0  0  0  0
  1 27  1  0  0  0  0
  2  1  1  0  0  0  0
  4  5  1  0  0  0  0
  5  6  2  0  0  0  0
  5 10  1  0  0  0  0
  6 11  1  0  0  0  0
  7  6  1  0  0  0  0
  8  7  2  0  0  0  0
  9  8  1  0  0  0  0
  9  4  2  0  0  0  0
 12 13  1  0  0  0  0
 12  8  1  0  0  0  0
 14 12  1  0  0  0  0
 15 21  1  1  0  0  0
 15 16  1  0  0  0  0
 16 17  1  0  0  0  0
 16 12  1  1  0  0  0
 18 17  1  0  0  0  0
 19 23  1  6  0  0  0
 19 18  1  0  0  0  0
 20 25  1  6  0  0  0
 20 19  1  0  0  0  0
 20 15  1  0  0  0  0
 22 21  1  0  0  0  0
 24 23  1  0  0  0  0
 26 25  1  0  0  0  0
 27 28  1  0  0  0  0
 27 30  1  0  0  0  0
 29 27  1  0  0  0  0
 30 35  1  0  0  0  0
 31 37  1  0  0  0  0
 32 38  1  0  0  0  0
 32 31  2  0  0  0  0
 33 32  1  0  0  0  0
 34 33  2  0  0  0  0
 34 35  1  0  0  0  0
 35 36  2  0  0  0  0
 36 31  1  0  0  0  0
 40 41  1  0  0  0  0
 40 39  1  0  0  0  0
 41 33  1  0  0  0  0
 42 41  2  0  0  0  0
 43 42  1  0  0  0  0
 44 43  2  0  0  0  0
 44 45  1  0  0  0  0
 45 40  2  0  0  0  0
 46 42  1  0  0  0  0
 47 43  1  0  0  0  0
 48 44  1  0  0  0  0
 49 45  1  0  0  0  0
M  END
>  <minimizedAffinity>
-6.45588684

>  <minimizedRMSD>
0.626834393

$$$$
