
 OpenBabel03272509403D

 38 40  0  0  1  0  0  0  0  0999 V2000
   36.9140   30.8860   48.9880 C   0  0  0  0  0  0  0  0  0  0  0  0
   36.6630   31.7820   50.0410 C   0  0  0  0  0  0  0  0  0  0  0  0
   37.2930   33.0160   50.1340 C   0  0  0  0  0  0  0  0  0  0  0  0
   38.2140   33.4020   49.1550 C   0  0  0  0  0  0  0  0  0  0  0  0
   38.4500   32.5120   48.1250 C   0  0  0  0  0  0  0  0  0  0  0  0
   37.8070   31.2870   48.0600 C   0  0  0  0  0  0  0  0  0  0  0  0
   35.9560   31.5200   50.8200 H   0  0  0  0  0  0  0  0  0  0  0  0
   37.0540   33.6560   50.9720 H   0  0  0  0  0  0  0  0  0  0  0  0
   38.6900   34.3700   49.2530 H   0  0  0  0  0  0  0  0  0  0  0  0
   39.1740   32.8940   47.4180 H   0  0  0  0  0  0  0  0  0  0  0  0
   36.2140   29.6300   48.9750 C   0  0  0  0  0  0  0  0  0  0  0  0
   36.7040   28.7280   49.7370 O   0  0  0  0  0  0  0  0  0  0  0  0
   33.4890   30.2680   46.6560 C   0  0  0  0  0  0  0  0  0  0  0  0
   32.8140   29.0520   46.5840 C   0  0  0  0  0  0  0  0  0  0  0  0
   33.2930   27.9910   47.3420 C   0  0  0  0  0  0  0  0  0  0  0  0
   34.3960   28.1740   48.1200 N   0  0  0  0  0  0  0  0  0  0  0  0
   35.0210   29.3390   48.1710 C   0  0  0  0  0  0  0  0  0  0  0  0
   34.5530   30.3760   47.4320 N   0  0  0  0  0  0  0  0  0  0  0  0
   33.0810   31.0670   46.0490 H   0  0  0  0  0  0  0  0  0  0  0  0
   31.9400   28.9560   45.9490 H   0  0  0  0  0  0  0  0  0  0  0  0
   32.8010   27.0270   47.3180 H   0  0  0  0  0  0  0  0  0  0  0  0
   38.1890   30.4870   46.9310 C   0  0  0  0  0  3  0  0  0  0  0  0
   38.9490   30.8290   45.9070 C   0  0  0  0  0  3  0  0  0  0  0  0
   39.4380   30.1170   44.7310 C   0  0  0  0  0  0  0  0  0  0  0  0
   40.0650   30.8290   44.1360 H   0  0  0  0  0  0  0  0  0  0  0  0
   40.1310   29.3130   45.0570 H   0  0  0  0  0  0  0  0  0  0  0  0
   37.8490   30.2990   42.7670 C   0  0  2  0  0  3  0  0  0  0  0  0
   38.3970   29.4760   43.8630 C   0  0  1  0  0  3  0  0  0  0  0  0
   38.8810   28.2590   43.4100 O   0  0  0  0  0  0  0  0  0  0  0  0
   39.9580   28.3650   42.5470 C   0  0  0  0  0  2  0  0  0  0  0  0
   39.5490   29.2450   41.3860 C   0  0  2  0  0  3  0  0  0  0  0  0
   38.0590   29.5160   41.4570 C   0  0  2  0  0  3  0  0  0  0  0  0
   38.5020   31.5100   42.5520 O   0  0  0  0  0  0  0  0  0  0  0  0
   37.8350   32.0560   42.0260 H   0  0  0  0  0  0  0  0  0  0  0  0
   39.8530   28.5750   40.2070 O   0  0  0  0  0  0  0  0  0  0  0  0
   40.7630   28.2090   40.3080 H   0  0  0  0  0  0  0  0  0  0  0  0
   37.6250   30.3000   40.4020 O   0  0  0  0  0  0  0  0  0  0  0  0
   38.2250   30.1250   39.6330 H   0  0  0  0  0  0  0  0  0  0  0  0
  1  2  1  0  0  0  0
  2  3  2  0  0  0  0
  2  7  1  0  0  0  0
  3  8  1  0  0  0  0
  4  9  1  0  0  0  0
  4  3  1  0  0  0  0
  5  4  2  0  0  0  0
  6  5  1  0  0  0  0
  6  1  2  0  0  0  0
 10  5  1  0  0  0  0
 11  1  1  0  0  0  0
 11 12  2  0  0  0  0
 13 18  1  0  0  0  0
 14 13  2  0  0  0  0
 14 15  1  0  0  0  0
 15 16  2  0  0  0  0
 16 17  1  0  0  0  0
 17 11  1  0  0  0  0
 18 17  2  0  0  0  0
 19 13  1  0  0  0  0
 20 14  1  0  0  0  0
 21 15  1  0  0  0  0
 22  6  1  0  0  0  0
 23 22  2  0  0  0  0
 24 26  1  0  0  0  0
 24 23  1  0  0  0  0
 25 24  1  0  0  0  0
 27 33  1  6  0  0  0
 27 28  1  0  0  0  0
 28 24  1  6  0  0  0
 29 28  1  0  0  0  0
 30 29  1  0  0  0  0
 31 35  1  6  0  0  0
 31 32  1  0  0  0  0
 31 30  1  0  0  0  0
 32 37  1  6  0  0  0
 32 27  1  0  0  0  0
 34 33  1  0  0  0  0
 35 36  1  0  0  0  0
 38 37  1  0  0  0  0
M  END
>  <minimizedAffinity>
-6.01330757

>  <minimizedRMSD>
1.62366855

$$$$
