
 OpenBabel03272503503D

 40 42  0  0  1  0  0  0  0  0999 V2000
   33.2110   27.3240   45.8540 C   0  0  1  0  0  0  0  0  0  0  0  0
   33.9290   27.4650   47.2130 C   0  0  2  0  0  0  0  0  0  0  0  0
   33.7730   26.2380   47.7770 O   0  0  0  0  0  0  0  0  0  0  0  0
   34.0680   25.3410   46.7730 C   0  0  0  0  0  0  0  0  0  0  0  0
   33.5930   25.9170   45.4740 C   0  0  2  0  0  0  0  0  0  0  0  0
   33.6710   28.0780   45.1880 H   0  0  0  0  0  0  0  0  0  0  0  0
   34.9780   27.7740   46.9730 H   0  0  0  0  0  0  0  0  0  0  0  0
   33.4390   24.4300   46.9900 H   0  0  0  0  0  0  0  0  0  0  0  0
   35.1080   24.9810   46.7770 H   0  0  0  0  0  0  0  0  0  0  0  0
   32.7350   25.3770   45.0600 H   0  0  0  0  0  0  0  0  0  0  0  0
   31.8530   27.5350   46.0030 O   0  0  0  0  0  0  0  0  0  0  0  0
   31.4460   26.7500   46.4160 H   0  0  0  0  0  0  0  0  0  0  0  0
   33.3070   28.5130   47.8250 O   0  0  0  0  0  0  0  0  0  0  0  0
   35.3470   29.8190   46.7740 O   0  0  0  0  0  0  0  0  0  0  0  0
   34.0860   29.9900   47.6130 P   0  0  1  0  0  0  0  0  0  0  0  0
   33.1020   31.0390   46.7200 O   0  0  0  0  0  0  0  0  0  0  0  0
   32.1680   30.8510   46.9940 H   0  0  0  0  0  0  0  0  0  0  0  0
   34.3980   30.6180   49.1650 O   0  0  0  0  0  0  0  0  0  0  0  0
   35.6250   30.4970   49.7820 C   0  0  0  0  0  0  0  0  0  0  0  0
   35.9590   29.4820   50.7030 C   0  0  0  0  0  0  0  0  0  0  0  0
   37.2400   29.4900   51.2440 C   0  0  0  0  0  0  0  0  0  0  0  0
   38.1080   30.4790   50.8540 N   0  0  0  0  0  0  0  0  0  0  0  0
   37.7500   31.4430   49.9610 C   0  0  0  0  0  0  0  0  0  0  0  0
   36.5050   31.4560   49.4190 N   0  0  0  0  0  0  0  0  0  0  0  0
   35.1850   28.7900   50.9050 H   0  0  0  0  0  0  0  0  0  0  0  0
   37.4840   28.7240   51.9360 H   0  0  0  0  0  0  0  0  0  0  0  0
   38.5020   32.1810   49.7140 H   0  0  0  0  0  0  0  0  0  0  0  0
   34.6130   25.9480   44.5310 O   0  0  0  0  0  0  0  0  0  0  0  0
   34.5320   25.0410   42.3280 C   0  0  1  0  0  3  0  0  0  0  0  0
   34.1860   26.1950   43.2410 C   0  0  2  0  0  3  0  0  0  0  0  0
   34.8920   27.3410   42.8180 O   0  0  0  0  0  0  0  0  0  0  0  0
   36.2640   27.0650   42.9190 C   0  0  0  0  0  2  0  0  0  0  0  0
   36.6650   26.1190   41.8020 C   0  0  1  0  0  3  0  0  0  0  0  0
   35.4090   25.5340   41.1900 C   0  0  2  0  0  3  0  0  0  0  0  0
   35.3120   24.0790   43.0010 O   0  0  0  0  0  0  0  0  0  0  0  0
   35.7790   24.4590   43.7690 H   0  0  0  0  0  0  0  0  0  0  0  0
   37.3560   26.8180   40.7890 O   0  0  0  0  0  0  0  0  0  0  0  0
   37.3650   26.2190   40.0030 H   0  0  0  0  0  0  0  0  0  0  0  0
   34.7700   26.5150   40.4380 O   0  0  0  0  0  0  0  0  0  0  0  0
   33.8240   26.2630   40.3540 H   0  0  0  0  0  0  0  0  0  0  0  0
  1  6  1  6  0  0  0
  1 11  1  0  0  0  0
  1  2  1  0  0  0  0
  2  7  1  6  0  0  0
  2  3  1  0  0  0  0
  2 13  1  0  0  0  0
  4  9  1  0  0  0  0
  4  8  1  0  0  0  0
  4  3  1  0  0  0  0
  5 10  1  6  0  0  0
  5  1  1  0  0  0  0
  5  4  1  0  0  0  0
 11 12  1  0  0  0  0
 15 14  2  6  0  0  0
 15 13  1  0  0  0  0
 15 18  1  0  0  0  0
 16 17  1  0  0  0  0
 16 15  1  0  0  0  0
 18 19  1  0  0  0  0
 19 20  1  0  0  0  0
 20 25  1  0  0  0  0
 20 21  2  0  0  0  0
 21 26  1  0  0  0  0
 22 21  1  0  0  0  0
 23 22  2  0  0  0  0
 24 19  2  0  0  0  0
 24 23  1  0  0  0  0
 27 23  1  0  0  0  0
 28  5  1  0  0  0  0
 29 35  1  1  0  0  0
 29 30  1  0  0  0  0
 30 28  1  1  0  0  0
 31 32  1  0  0  0  0
 31 30  1  0  0  0  0
 33 37  1  6  0  0  0
 33 32  1  0  0  0  0
 34 39  1  1  0  0  0
 34 33  1  0  0  0  0
 34 29  1  0  0  0  0
 35 36  1  0  0  0  0
 38 37  1  0  0  0  0
 40 39  1  0  0  0  0
M  END
>  <minimizedAffinity>
-4.11472988

>  <minimizedRMSD>
1.70554781

$$$$
