
 OpenBabel03272509583D

 49 52  0  0  1  0  0  0  0  0999 V2000
   33.4470   28.0230   47.1630 C   0  0  0  0  0  0  0  0  0  0  0  0
   33.4480   28.2860   46.0700 H   0  0  0  0  0  0  0  0  0  0  0  0
   33.8230   26.9840   47.2090 H   0  0  0  0  0  0  0  0  0  0  0  0
   32.0220   28.1020   47.5800 C   0  0  0  0  0  0  0  0  0  0  0  0
   31.6710   27.5680   48.8150 C   0  0  0  0  0  0  0  0  0  0  0  0
   30.3840   27.6000   49.2740 C   0  0  0  0  0  0  0  0  0  0  0  0
   29.4420   28.1560   48.5200 N   0  0  0  0  0  0  0  0  0  0  0  0
   29.7880   28.6800   47.3080 C   0  0  0  0  0  0  0  0  0  0  0  0
   31.0420   28.6640   46.8310 N   0  0  0  0  0  0  0  0  0  0  0  0
   32.4070   27.1030   49.4680 H   0  0  0  0  0  0  0  0  0  0  0  0
   30.1270   27.1770   50.2420 H   0  0  0  0  0  0  0  0  0  0  0  0
   28.6980   29.2890   46.5060 C   0  0  0  0  0  0  0  0  0  0  0  0
   27.8260   29.5240   47.1370 H   0  0  0  0  0  0  0  0  0  0  0  0
   28.9810   30.2360   46.0080 H   0  0  0  0  0  0  0  0  0  0  0  0
   28.4150   28.7250   44.0870 C   0  0  2  0  0  3  0  0  0  0  0  0
   28.2270   28.2500   45.5120 C   0  0  1  0  0  3  0  0  0  0  0  0
   28.9310   27.0560   45.6360 O   0  0  0  0  0  0  0  0  0  0  0  0
   28.1130   26.0340   45.1600 C   0  0  0  0  0  2  0  0  0  0  0  0
   27.3010   26.4640   43.9630 C   0  0  1  0  0  3  0  0  0  0  0  0
   27.9710   27.5790   43.1910 C   0  0  1  0  0  3  0  0  0  0  0  0
   29.7800   28.9800   43.9050 O   0  0  0  0  0  0  0  0  0  0  0  0
   30.1760   28.2820   43.3100 H   0  0  0  0  0  0  0  0  0  0  0  0
   27.2160   25.3650   43.1040 O   0  0  0  0  0  0  0  0  0  0  0  0
   26.3090   24.9280   43.1500 H   0  0  0  0  0  0  0  0  0  0  0  0
   26.9940   28.0910   42.3360 O   0  0  0  0  0  0  0  0  0  0  0  0
   27.1450   27.8020   41.4050 H   0  0  0  0  0  0  0  0  0  0  0  0
   34.3120   29.0270   47.8580 C   0  0  0  0  0  0  0  0  0  0  0  0
   33.6330   29.7860   48.3210 H   0  0  0  0  0  0  0  0  0  0  0  0
   34.9620   29.6070   47.1480 H   0  0  0  0  0  0  0  0  0  0  0  0
   35.0700   28.4360   48.8980 O   0  0  0  0  0  0  0  0  0  0  0  0
   37.2280   30.0340   51.3100 C   0  0  0  0  0  0  0  0  0  0  0  0
   38.0200   30.8220   50.4370 C   0  0  0  0  0  0  0  0  0  0  0  0
   37.7590   30.7520   49.0820 C   0  0  0  0  0  0  0  0  0  0  0  0
   36.7500   29.9190   48.7000 N   0  0  0  0  0  0  0  0  0  0  0  0
   36.0100   29.1800   49.5250 C   0  0  0  0  0  0  0  0  0  0  0  0
   36.2600   29.2440   50.8520 N   0  0  0  0  0  0  0  0  0  0  0  0
   37.4850   30.1360   52.3550 H   0  0  0  0  0  0  0  0  0  0  0  0
   38.8100   31.4720   50.7610 H   0  0  0  0  0  0  0  0  0  0  0  0
   38.8340   33.4390   49.2040 F   0  0  0  0  0  0  0  0  0  0  0  0
   38.9750   32.7300   48.0890 C   0  0  0  0  0  0  0  0  0  0  0  0
   38.4690   31.4880   48.0560 C   0  0  0  0  0  0  0  0  0  0  0  0
   38.6680   30.8210   46.8360 C   0  0  0  0  0  0  0  0  0  0  0  0
   39.3250   31.4040   45.7850 C   0  0  0  0  0  0  0  0  0  0  0  0
   39.8240   32.6840   45.8750 C   0  0  0  0  0  0  0  0  0  0  0  0
   39.6370   33.3380   47.0460 C   0  0  0  0  0  0  0  0  0  0  0  0
   38.3110   29.8100   46.6720 H   0  0  0  0  0  0  0  0  0  0  0  0
   39.4680   30.8670   44.8470 H   0  0  0  0  0  0  0  0  0  0  0  0
   40.3440   33.1570   45.0520 H   0  0  0  0  0  0  0  0  0  0  0  0
   40.0230   34.3480   47.1410 H   0  0  0  0  0  0  0  0  0  0  0  0
  1  3  1  0  0  0  0
  1  4  1  0  0  0  0
  1 27  1  0  0  0  0
  2  1  1  0  0  0  0
  4  5  1  0  0  0  0
  5  6  2  0  0  0  0
  5 10  1  0  0  0  0
  6 11  1  0  0  0  0
  7  6  1  0  0  0  0
  8  7  2  0  0  0  0
  9  8  1  0  0  0  0
  9  4  2  0  0  0  0
 12 13  1  0  0  0  0
 12  8  1  0  0  0  0
 14 12  1  0  0  0  0
 15 21  1  1  0  0  0
 15 16  1  0  0  0  0
 16 17  1  0  0  0  0
 16 12  1  1  0  0  0
 18 17  1  0  0  0  0
 19 23  1  6  0  0  0
 19 18  1  0  0  0  0
 20 25  1  6  0  0  0
 20 19  1  0  0  0  0
 20 15  1  0  0  0  0
 22 21  1  0  0  0  0
 23 24  1  0  0  0  0
 26 25  1  0  0  0  0
 27 28  1  0  0  0  0
 27 30  1  0  0  0  0
 29 27  1  0  0  0  0
 30 35  1  0  0  0  0
 31 37  1  0  0  0  0
 32 38  1  0  0  0  0
 32 31  2  0  0  0  0
 33 32  1  0  0  0  0
 34 33  2  0  0  0  0
 34 35  1  0  0  0  0
 35 36  2  0  0  0  0
 36 31  1  0  0  0  0
 40 39  1  0  0  0  0
 41 40  1  0  0  0  0
 41 33  1  0  0  0  0
 42 41  2  0  0  0  0
 43 44  2  0  0  0  0
 43 42  1  0  0  0  0
 44 45  1  0  0  0  0
 45 49  1  0  0  0  0
 45 40  2  0  0  0  0
 46 42  1  0  0  0  0
 47 43  1  0  0  0  0
 48 44  1  0  0  0  0
M  END
>  <minimizedAffinity>
-6.54387808

>  <minimizedRMSD>
0.752523363

$$$$
