
 OpenBabel03272509433D

 41 43  0  0  1  0  0  0  0  0999 V2000
   37.0600   30.9320   49.0630 C   0  0  0  0  0  0  0  0  0  0  0  0
   36.7730   31.8380   50.0850 C   0  0  0  0  0  0  0  0  0  0  0  0
   37.3630   33.0960   50.1330 C   0  0  0  0  0  0  0  0  0  0  0  0
   38.2670   33.4660   49.1340 C   0  0  0  0  0  0  0  0  0  0  0  0
   38.5360   32.5680   48.1420 C   0  0  0  0  0  0  0  0  0  0  0  0
   37.9290   31.3220   48.1250 C   0  0  0  0  0  0  0  0  0  0  0  0
   36.0620   31.5330   50.8580 H   0  0  0  0  0  0  0  0  0  0  0  0
   37.0690   33.7090   50.9640 H   0  0  0  0  0  0  0  0  0  0  0  0
   38.6700   34.4520   49.2500 H   0  0  0  0  0  0  0  0  0  0  0  0
   39.2560   32.9990   47.4420 H   0  0  0  0  0  0  0  0  0  0  0  0
   36.4750   29.6090   49.0350 C   0  0  2  0  0  0  0  0  0  0  0  0
   36.9750   29.0740   48.1380 H   0  0  0  0  0  0  0  0  0  0  0  0
   33.6060   29.9790   46.8370 C   0  0  0  0  0  0  0  0  0  0  0  0
   32.8690   28.8280   47.0520 C   0  0  0  0  0  0  0  0  0  0  0  0
   33.3190   27.9370   48.0060 C   0  0  0  0  0  0  0  0  0  0  0  0
   34.4740   28.2180   48.7040 N   0  0  0  0  0  0  0  0  0  0  0  0
   35.1330   29.3300   48.4510 C   0  0  0  0  0  0  0  0  0  0  0  0
   34.7080   30.2100   47.5280 N   0  0  0  0  0  0  0  0  0  0  0  0
   33.2270   30.6560   46.0830 H   0  0  0  0  0  0  0  0  0  0  0  0
   31.9560   28.5380   46.5440 H   0  0  0  0  0  0  0  0  0  0  0  0
   32.8400   26.9990   48.2780 H   0  0  0  0  0  0  0  0  0  0  0  0
   36.9460   28.8400   49.9550 O   0  0  0  0  0  0  0  0  0  0  0  0
   36.8240   29.2150   50.8840 H   0  0  0  0  0  0  0  0  0  0  0  0
   38.3250   30.4590   47.0360 C   0  0  0  0  0  3  0  0  0  0  0  0
   38.8200   30.9060   45.8760 C   0  0  0  0  0  3  0  0  0  0  0  0
   39.2950   30.1180   44.7140 C   0  0  0  0  0  0  0  0  0  0  0  0
   40.2180   30.5630   44.2450 H   0  0  0  0  0  0  0  0  0  0  0  0
   39.5830   29.1040   45.0470 H   0  0  0  0  0  0  0  0  0  0  0  0
   38.0020   30.0410   43.4710 S   0  0  0  0  0  0  0  0  0  0  0  0
   38.4470   27.9500   41.8420 C   0  0  1  0  0  3  0  0  0  0  0  0
   38.5520   29.4660   41.8700 C   0  0  2  0  0  3  0  0  0  0  0  0
   39.8370   29.8970   41.5750 O   0  0  0  0  0  0  0  0  0  0  0  0
   40.2620   29.2440   40.4110 C   0  0  0  0  0  2  0  0  0  0  0  0
   40.6930   27.8610   40.8470 C   0  0  1  0  0  3  0  0  0  0  0  0
   39.8170   27.2980   41.9420 C   0  0  2  0  0  3  0  0  0  0  0  0
   37.7100   27.4870   42.9330 O   0  0  0  0  0  0  0  0  0  0  0  0
   37.0830   28.1630   43.2970 H   0  0  0  0  0  0  0  0  0  0  0  0
   40.6200   26.9920   39.7820 O   0  0  0  0  0  0  0  0  0  0  0  0
   40.4680   27.4380   38.9320 H   0  0  0  0  0  0  0  0  0  0  0  0
   39.6240   25.9230   41.8030 O   0  0  0  0  0  0  0  0  0  0  0  0
   39.0650   25.6950   41.0280 H   0  0  0  0  0  0  0  0  0  0  0  0
  1  2  1  0  0  0  0
  2  3  2  0  0  0  0
  2  7  1  0  0  0  0
  3  8  1  0  0  0  0
  4  9  1  0  0  0  0
  4  3  1  0  0  0  0
  5  4  2  0  0  0  0
  6  5  1  0  0  0  0
  6  1  2  0  0  0  0
 10  5  1  0  0  0  0
 11 12  1  6  0  0  0
 11  1  1  0  0  0  0
 11 22  1  0  0  0  0
 13 14  2  0  0  0  0
 13 18  1  0  0  0  0
 14 15  1  0  0  0  0
 15 21  1  0  0  0  0
 15 16  2  0  0  0  0
 17 16  1  0  0  0  0
 17 11  1  0  0  0  0
 18 17  2  0  0  0  0
 19 13  1  0  0  0  0
 20 14  1  0  0  0  0
 22 23  1  0  0  0  0
 24  6  1  0  0  0  0
 25 24  2  0  0  0  0
 26 28  1  0  0  0  0
 26 25  1  0  0  0  0
 27 26  1  0  0  0  0
 29 26  1  0  0  0  0
 30 31  1  0  0  0  0
 30 35  1  0  0  0  0
 30 36  1  1  0  0  0
 31 29  1  1  0  0  0
 32 31  1  0  0  0  0
 33 34  1  0  0  0  0
 33 32  1  0  0  0  0
 34 38  1  6  0  0  0
 34 35  1  0  0  0  0
 35 40  1  6  0  0  0
 36 37  1  0  0  0  0
 39 38  1  0  0  0  0
 41 40  1  0  0  0  0
M  END
>  <minimizedAffinity>
-6.09498215

>  <minimizedRMSD>
0.678919733

$$$$
