
 OpenBabel03272505313D

 43 46  0  0  1  0  0  0  0  0999 V2000
   37.3400   31.1560   47.1000 N   0  0  0  0  0  0  0  0  0  0  0  0
   36.6940   30.9360   45.9250 C   0  0  0  0  0  0  0  0  0  0  0  0
   37.1340   31.4670   44.7270 C   0  0  0  0  0  0  0  0  0  0  0  0
   38.2970   32.2620   44.7550 C   0  0  0  0  0  0  0  0  0  0  0  0
   38.7400   32.7680   43.6970 O   0  0  0  0  0  0  0  0  0  0  0  0
   38.9450   32.4790   45.9510 N   0  0  0  0  0  0  0  0  0  0  0  0
   38.4240   31.9160   47.0280 C   0  0  0  0  0  0  0  0  0  0  0  0
   39.0410   32.1360   48.0950 O   0  0  0  0  0  0  0  0  0  0  0  0
   35.7890   30.3180   45.8970 H   0  0  0  0  0  0  0  0  0  0  0  0
   37.2670   29.4030   50.3770 C   0  0  0  0  0  0  0  0  0  0  0  0
   37.7460   29.9540   49.1710 C   0  0  0  0  0  0  0  0  0  0  0  0
   36.8740   30.6070   48.2980 C   0  0  0  0  0  0  0  0  0  0  0  0
   35.5720   30.6900   48.6470 N   0  0  0  0  0  0  0  0  0  0  0  0
   35.0960   30.1620   49.8100 C   0  0  0  0  0  0  0  0  0  0  0  0
   35.9490   29.5270   50.6590 N   0  0  0  0  0  0  0  0  0  0  0  0
   37.9620   28.9100   51.0220 H   0  0  0  0  0  0  0  0  0  0  0  0
   38.7720   29.9080   48.8600 H   0  0  0  0  0  0  0  0  0  0  0  0
   34.0770   30.2150   50.1050 H   0  0  0  0  0  0  0  0  0  0  0  0
   36.4840   31.2640   43.4460 C   0  0  0  0  0  0  0  0  0  0  0  0
   36.8170   30.2520   42.5880 C   0  0  0  0  0  0  0  0  0  0  0  0
   36.2320   30.0190   41.3680 C   0  0  0  0  0  0  0  0  0  0  0  0
   35.2060   30.8880   40.9540 C   0  0  0  0  0  0  0  0  0  0  0  0
   34.8950   31.9060   41.8530 C   0  0  0  0  0  0  0  0  0  0  0  0
   35.5100   32.0700   43.0280 N   0  0  0  0  0  0  0  0  0  0  0  0
   37.6060   29.5560   42.8690 H   0  0  0  0  0  0  0  0  0  0  0  0
   36.4960   29.2200   40.6930 H   0  0  0  0  0  0  0  0  0  0  0  0
   34.6670   30.8180   40.0250 H   0  0  0  0  0  0  0  0  0  0  0  0
   34.4580   34.2760   41.3540 C   0  0  2  0  0  3  0  0  0  0  0  0
   33.8270   32.9160   41.5650 C   0  0  1  0  0  3  0  0  0  0  0  0
   33.0740   32.4970   40.4720 O   0  0  0  0  0  0  0  0  0  0  0  0
   32.0020   33.3220   40.2600 C   0  0  0  0  0  2  0  0  0  0  0  0
   32.3390   34.8030   40.2910 C   0  0  2  0  0  3  0  0  0  0  0  0
   33.8380   34.9120   40.1220 C   0  0  1  0  0  3  0  0  0  0  0  0
   35.8490   34.1890   41.2260 O   0  0  0  0  0  0  0  0  0  0  0  0
   36.2420   34.4690   42.1130 H   0  0  0  0  0  0  0  0  0  0  0  0
   32.0600   35.2470   41.6000 O   0  0  0  0  0  0  0  0  0  0  0  0
   31.1070   35.0170   41.8240 H   0  0  0  0  0  0  0  0  0  0  0  0
   34.2720   36.2340   40.0620 O   0  0  0  0  0  0  0  0  0  0  0  0
   34.7010   36.3860   39.1750 H   0  0  0  0  0  0  0  0  0  0  0  0
   40.1350   33.2940   45.9730 C   0  0  0  0  0  0  0  0  0  0  0  0
   40.0730   34.2760   45.0460 F   0  0  0  0  0  0  0  0  0  0  0  0
   41.3020   32.5760   45.7070 F   0  0  0  0  0  0  0  0  0  0  0  0
   40.2390   33.8960   47.2320 F   0  0  0  0  0  0  0  0  0  0  0  0
  1 12  1  0  0  0  0
  2  1  1  0  0  0  0
  3  4  1  0  0  0  0
  3  2  2  0  0  0  0
  4  6  1  0  0  0  0
  5  4  2  0  0  0  0
  6 40  1  0  0  0  0
  6  7  1  0  0  0  0
  7  1  1  0  0  0  0
  7  8  2  0  0  0  0
  9  2  1  0  0  0  0
 10 15  1  0  0  0  0
 10 16  1  0  0  0  0
 11 10  2  0  0  0  0
 12 13  2  0  0  0  0
 12 11  1  0  0  0  0
 13 14  1  0  0  0  0
 14 18  1  0  0  0  0
 14 15  2  0  0  0  0
 17 11  1  0  0  0  0
 19  3  1  0  0  0  0
 20 25  1  0  0  0  0
 20 19  2  0  0  0  0
 21 20  1  0  0  0  0
 22 21  2  0  0  0  0
 22 23  1  0  0  0  0
 23 24  2  0  0  0  0
 24 19  1  0  0  0  0
 26 21  1  0  0  0  0
 27 22  1  0  0  0  0
 28 34  1  6  0  0  0
 28 29  1  0  0  0  0
 29 23  1  6  0  0  0
 30 29  1  0  0  0  0
 31 32  1  0  0  0  0
 31 30  1  0  0  0  0
 32 36  1  1  0  0  0
 33 38  1  1  0  0  0
 33 32  1  0  0  0  0
 33 28  1  0  0  0  0
 34 35  1  0  0  0  0
 36 37  1  0  0  0  0
 39 38  1  0  0  0  0
 40 43  1  0  0  0  0
 41 40  1  0  0  0  0
 42 40  1  0  0  0  0
M  END
>  <minimizedAffinity>
-6.80919647

>  <minimizedRMSD>
0.831289351

$$$$
