
 OpenBabel03272505313D

 43 46  0  0  1  0  0  0  0  0999 V2000
   37.3830   31.1970   47.0850 N   0  0  0  0  0  0  0  0  0  0  0  0
   36.7220   30.9780   45.9170 C   0  0  0  0  0  0  0  0  0  0  0  0
   37.1520   31.5030   44.7130 C   0  0  0  0  0  0  0  0  0  0  0  0
   38.3210   32.2890   44.7250 C   0  0  0  0  0  0  0  0  0  0  0  0
   38.7550   32.7890   43.6610 O   0  0  0  0  0  0  0  0  0  0  0  0
   38.9840   32.5050   45.9130 N   0  0  0  0  0  0  0  0  0  0  0  0
   38.4720   31.9480   46.9980 C   0  0  0  0  0  0  0  0  0  0  0  0
   39.1030   32.1670   48.0570 O   0  0  0  0  0  0  0  0  0  0  0  0
   35.8120   30.3680   45.9020 H   0  0  0  0  0  0  0  0  0  0  0  0
   37.3460   29.5080   50.3950 C   0  0  0  0  0  0  0  0  0  0  0  0
   37.8150   30.0520   49.1830 C   0  0  0  0  0  0  0  0  0  0  0  0
   36.9270   30.6550   48.2900 C   0  0  0  0  0  0  0  0  0  0  0  0
   35.6200   30.6970   48.6260 N   0  0  0  0  0  0  0  0  0  0  0  0
   35.1530   30.1740   49.7950 C   0  0  0  0  0  0  0  0  0  0  0  0
   36.0220   29.5880   50.6640 N   0  0  0  0  0  0  0  0  0  0  0  0
   38.0530   29.0540   51.0560 H   0  0  0  0  0  0  0  0  0  0  0  0
   38.8440   30.0380   48.8800 H   0  0  0  0  0  0  0  0  0  0  0  0
   34.1300   30.1950   50.0810 H   0  0  0  0  0  0  0  0  0  0  0  0
   36.4850   31.3020   43.4400 C   0  0  0  0  0  0  0  0  0  0  0  0
   36.5980   30.1520   42.7080 C   0  0  0  0  0  0  0  0  0  0  0  0
   35.9890   29.9140   41.5010 C   0  0  0  0  0  0  0  0  0  0  0  0
   35.1790   30.9310   40.9620 C   0  0  0  0  0  0  0  0  0  0  0  0
   35.0890   32.0860   41.7350 C   0  0  0  0  0  0  0  0  0  0  0  0
   35.7140   32.2460   42.9050 N   0  0  0  0  0  0  0  0  0  0  0  0
   37.2150   29.3390   43.0880 H   0  0  0  0  0  0  0  0  0  0  0  0
   36.0790   29.0060   40.9250 H   0  0  0  0  0  0  0  0  0  0  0  0
   34.6470   30.8740   40.0280 H   0  0  0  0  0  0  0  0  0  0  0  0
   32.9300   33.2360   42.0150 C   0  0  2  0  0  3  0  0  0  0  0  0
   34.2680   33.2630   41.3050 C   0  0  1  0  0  3  0  0  0  0  0  0
   34.9790   34.4360   41.5420 O   0  0  0  0  0  0  0  0  0  0  0  0
   34.3210   35.5270   41.0370 C   0  0  0  0  0  2  0  0  0  0  0  0
   32.8420   35.5780   41.3830 C   0  0  2  0  0  3  0  0  0  0  0  0
   32.6320   34.6290   42.5410 C   0  0  1  0  0  3  0  0  0  0  0  0
   32.9130   32.2940   43.0510 O   0  0  0  0  0  0  0  0  0  0  0  0
   32.4140   31.4880   42.7040 H   0  0  0  0  0  0  0  0  0  0  0  0
   32.1580   35.0160   40.2860 O   0  0  0  0  0  0  0  0  0  0  0  0
   32.4250   35.5080   39.4510 H   0  0  0  0  0  0  0  0  0  0  0  0
   31.3170   34.6360   43.0030 O   0  0  0  0  0  0  0  0  0  0  0  0
   31.3180   34.9420   43.9500 H   0  0  0  0  0  0  0  0  0  0  0  0
   40.1810   33.3100   45.9190 C   0  0  0  0  0  0  0  0  0  0  0  0
   40.1250   34.2770   44.9750 F   0  0  0  0  0  0  0  0  0  0  0  0
   41.3420   32.5790   45.6630 F   0  0  0  0  0  0  0  0  0  0  0  0
   40.2930   33.9330   47.1670 F   0  0  0  0  0  0  0  0  0  0  0  0
  1 12  1  0  0  0  0
  2  1  1  0  0  0  0
  3  4  1  0  0  0  0
  3  2  2  0  0  0  0
  4  6  1  0  0  0  0
  5  4  2  0  0  0  0
  6 40  1  0  0  0  0
  6  7  1  0  0  0  0
  7  1  1  0  0  0  0
  7  8  2  0  0  0  0
  9  2  1  0  0  0  0
 10 15  1  0  0  0  0
 10 16  1  0  0  0  0
 11 10  2  0  0  0  0
 12 13  2  0  0  0  0
 12 11  1  0  0  0  0
 13 14  1  0  0  0  0
 14 18  1  0  0  0  0
 14 15  2  0  0  0  0
 17 11  1  0  0  0  0
 19  3  1  0  0  0  0
 20 25  1  0  0  0  0
 20 19  2  0  0  0  0
 21 20  1  0  0  0  0
 22 21  2  0  0  0  0
 22 23  1  0  0  0  0
 23 24  2  0  0  0  0
 24 19  1  0  0  0  0
 26 21  1  0  0  0  0
 27 22  1  0  0  0  0
 28 33  1  0  0  0  0
 28 34  1  1  0  0  0
 29 30  1  0  0  0  0
 29 23  1  1  0  0  0
 29 28  1  0  0  0  0
 31 32  1  0  0  0  0
 31 30  1  0  0  0  0
 32 36  1  6  0  0  0
 32 33  1  0  0  0  0
 33 38  1  6  0  0  0
 35 34  1  0  0  0  0
 37 36  1  0  0  0  0
 38 39  1  0  0  0  0
 40 43  1  0  0  0  0
 41 40  1  0  0  0  0
 42 40  1  0  0  0  0
M  END
>  <minimizedAffinity>
-7.12120342

>  <minimizedRMSD>
1.58753061

$$$$
