
 OpenBabel03272500083D

 42 45  0  0  1  0  0  0  0  0999 V2000
   30.4880   27.6170   48.1070 C   0  0  0  0  0  0  0  0  0  0  0  0
   30.4880   27.4490   49.4730 C   0  0  0  0  0  0  0  0  0  0  0  0
   29.3770   27.7570   50.2290 C   0  0  0  0  0  0  0  0  0  0  0  0
   28.2380   28.2500   49.5800 C   0  0  0  0  0  0  0  0  0  0  0  0
   28.2470   28.4180   48.1980 C   0  0  0  0  0  0  0  0  0  0  0  0
   29.3640   28.1000   47.4880 C   0  0  0  0  0  0  0  0  0  0  0  0
   31.3420   27.0720   50.0180 H   0  0  0  0  0  0  0  0  0  0  0  0
   29.3880   27.6200   51.3100 H   0  0  0  0  0  0  0  0  0  0  0  0
   27.4070   28.4710   50.2380 H   0  0  0  0  0  0  0  0  0  0  0  0
   27.3420   28.8000   47.7640 H   0  0  0  0  0  0  0  0  0  0  0  0
   29.1350   26.9420   45.3440 C   0  0  1  0  0  3  0  0  0  0  0  0
   29.3460   28.2690   46.0340 C   0  0  1  0  0  3  0  0  0  0  0  0
   28.3610   29.1950   45.7060 O   0  0  0  0  0  0  0  0  0  0  0  0
   27.8710   29.0290   44.4150 C   0  0  0  0  0  2  0  0  0  0  0  0
   26.9740   27.8190   44.4230 C   0  0  1  0  0  3  0  0  0  0  0  0
   27.7160   26.6370   45.0000 C   0  0  1  0  0  3  0  0  0  0  0  0
   29.9490   26.7980   44.2310 O   0  0  0  0  0  0  0  0  0  0  0  0
   30.8130   27.2650   44.3930 H   0  0  0  0  0  0  0  0  0  0  0  0
   25.8450   28.0240   45.2150 O   0  0  0  0  0  0  0  0  0  0  0  0
   25.3490   27.1460   45.1840 H   0  0  0  0  0  0  0  0  0  0  0  0
   27.7370   25.6400   44.0110 O   0  0  0  0  0  0  0  0  0  0  0  0
   28.6520   25.3430   43.7850 H   0  0  0  0  0  0  0  0  0  0  0  0
   31.6780   27.2660   47.4810 O   0  0  0  0  0  0  0  0  0  0  0  0
   34.7710   28.6410   48.6990 C   0  0  0  0  0  0  0  0  0  0  0  0
   34.8440   29.8930   48.0410 C   0  0  0  0  0  0  0  0  0  0  0  0
   33.8060   30.2310   47.1840 C   0  0  0  0  0  0  0  0  0  0  0  0
   32.7840   29.3440   47.0260 N   0  0  0  0  0  0  0  0  0  0  0  0
   32.7400   28.1700   47.6570 C   0  0  0  0  0  0  0  0  0  0  0  0
   33.7410   27.7970   48.5110 N   0  0  0  0  0  0  0  0  0  0  0  0
   35.5860   28.3700   49.3760 H   0  0  0  0  0  0  0  0  0  0  0  0
   33.8510   31.1840   46.6780 H   0  0  0  0  0  0  0  0  0  0  0  0
   35.9690   30.7160   48.2990 N   0  0  0  0  0  0  0  0  0  0  0  0
   36.1990   31.2590   49.4900 C   0  0  0  0  0  0  0  0  0  0  0  0
   37.3250   32.0520   49.6650 C   0  0  0  0  0  0  0  0  0  0  0  0
   38.1180   32.2110   48.5730 C   0  0  0  0  0  0  0  0  0  0  0  0
   39.1540   32.9350   48.7180 O   0  0  0  0  0  0  0  0  0  0  0  0
   37.9240   31.6890   47.3770 N   0  0  0  0  0  0  0  0  0  0  0  0
   36.8120   30.9140   47.2280 C   0  0  0  0  0  0  0  0  0  0  0  0
   36.6040   30.4000   46.0830 O   0  0  0  0  0  0  0  0  0  0  0  0
   35.4920   31.0580   50.2890 H   0  0  0  0  0  0  0  0  0  0  0  0
   37.4940   32.4850   50.6430 H   0  0  0  0  0  0  0  0  0  0  0  0
   38.5780   31.8570   46.5870 H   0  0  0  0  0  0  0  0  0  0  0  0
  1  2  1  0  0  0  0
  2  7  1  0  0  0  0
  2  3  2  0  0  0  0
  3  8  1  0  0  0  0
  4  3  1  0  0  0  0
  4  9  1  0  0  0  0
  5  4  2  0  0  0  0
  6  1  2  0  0  0  0
  6  5  1  0  0  0  0
 10  5  1  0  0  0  0
 11 17  1  6  0  0  0
 11 12  1  0  0  0  0
 12  6  1  1  0  0  0
 13 12  1  0  0  0  0
 14 15  1  0  0  0  0
 14 13  1  0  0  0  0
 15 16  1  0  0  0  0
 15 19  1  1  0  0  0
 16 21  1  6  0  0  0
 16 11  1  0  0  0  0
 17 18  1  0  0  0  0
 20 19  1  0  0  0  0
 22 21  1  0  0  0  0
 23 28  1  0  0  0  0
 23  1  1  0  0  0  0
 24 30  1  0  0  0  0
 25 32  1  0  0  0  0
 25 24  2  0  0  0  0
 26 25  1  0  0  0  0
 27 26  2  0  0  0  0
 27 28  1  0  0  0  0
 28 29  2  0  0  0  0
 29 24  1  0  0  0  0
 31 26  1  0  0  0  0
 32 33  1  0  0  0  0
 33 34  2  0  0  0  0
 33 40  1  0  0  0  0
 34 41  1  0  0  0  0
 35 36  2  0  0  0  0
 35 34  1  0  0  0  0
 37 35  1  0  0  0  0
 38 37  1  0  0  0  0
 38 32  1  0  0  0  0
 39 38  2  0  0  0  0
 42 37  1  0  0  0  0
M  END
>  <minimizedAffinity>
-6.3349719

>  <minimizedRMSD>
2.17481351

$$$$
