
 OpenBabel03272506143D

 27 28  0  0  1  0  0  0  0  0999 V2000
   36.8830   30.8210   49.3750 C   0  0  0  0  0  0  0  0  0  0  0  0
   37.5500   30.6890   48.1580 C   0  0  0  0  0  0  0  0  0  0  0  0
   38.3020   31.7720   47.7060 C   0  0  0  0  0  0  0  0  0  0  0  0
   38.3500   32.9000   48.4690 N   0  0  0  0  0  0  0  0  0  0  0  0
   37.6900   32.9920   49.6470 C   0  0  0  0  0  0  0  0  0  0  0  0
   36.9580   31.9580   50.1030 N   0  0  0  0  0  0  0  0  0  0  0  0
   37.4270   29.7450   47.6570 H   0  0  0  0  0  0  0  0  0  0  0  0
   37.7580   33.9150   50.2220 H   0  0  0  0  0  0  0  0  0  0  0  0
   38.0270   31.5040   45.2510 C   0  0  2  0  0  0  0  0  0  0  0  0
   39.0020   31.6150   46.4130 C   0  0  1  0  0  0  0  0  0  0  0  0
   39.7770   32.7450   46.1000 O   0  0  0  0  0  0  0  0  0  0  0  0
   40.6840   32.3410   45.1440 C   0  0  0  0  0  0  0  0  0  0  0  0
   40.0980   31.7310   43.9270 C   0  0  1  0  0  0  0  0  0  0  0  0
   38.8420   30.9570   44.0980 C   0  0  2  0  0  0  0  0  0  0  0  0
   37.6250   32.7980   44.8830 O   0  0  0  0  0  0  0  0  0  0  0  0
   36.6390   32.8770   44.8540 H   0  0  0  0  0  0  0  0  0  0  0  0
   39.9560   32.6680   42.8770 O   0  0  0  0  0  0  0  0  0  0  0  0
   39.6160   32.1130   42.1090 H   0  0  0  0  0  0  0  0  0  0  0  0
   38.1260   30.9700   42.9050 O   0  0  0  0  0  0  0  0  0  0  0  0
   38.4210   30.1970   42.3840 H   0  0  0  0  0  0  0  0  0  0  0  0
   36.0900   29.8540   49.9850 O   0  0  0  0  0  0  0  0  0  0  0  0
   34.1930   30.1820   48.1210 O   0  0  0  0  0  0  0  0  0  0  0  0
   34.5440   29.4260   49.3960 P   0  0  0  0  0  0  0  0  0  0  0  0
   34.5730   27.7530   49.1430 O   0  0  0  0  0  0  0  0  0  0  0  0
   34.3430   27.2950   49.9870 H   0  0  0  0  0  0  0  0  0  0  0  0
   33.3710   29.8440   50.5460 O   0  0  0  0  0  0  0  0  0  0  0  0
   33.5610   30.7380   50.9100 H   0  0  0  0  0  0  0  0  0  0  0  0
  1 21  1  0  0  0  0
  1  6  1  0  0  0  0
  2  1  2  0  0  0  0
  3  2  1  0  0  0  0
  3  4  2  0  0  0  0
  4  5  1  0  0  0  0
  5  6  2  0  0  0  0
  5  8  1  0  0  0  0
  7  2  1  0  0  0  0
  9 15  1  6  0  0  0
  9 10  1  0  0  0  0
 10  3  1  1  0  0  0
 11 10  1  0  0  0  0
 12 11  1  0  0  0  0
 13 17  1  6  0  0  0
 13 14  1  0  0  0  0
 13 12  1  0  0  0  0
 14 19  1  6  0  0  0
 14  9  1  0  0  0  0
 16 15  1  0  0  0  0
 18 17  1  0  0  0  0
 20 19  1  0  0  0  0
 22 23  2  0  0  0  0
 23 21  1  0  0  0  0
 23 26  1  0  0  0  0
 24 23  1  0  0  0  0
 24 25  1  0  0  0  0
 26 27  1  0  0  0  0
M  END
>  <minimizedAffinity>
-6.16643763

>  <minimizedRMSD>
6.89206886

$$$$
