
 OpenBabel03272509053D

 36 38  0  0  1  0  0  0  0  0999 V2000
   37.8230   30.5290   50.9690 C   0  0  0  0  0  0  0  0  0  0  0  0
   38.1820   31.2710   49.8030 C   0  0  0  0  0  0  0  0  0  0  0  0
   37.4680   31.0280   48.6100 C   0  0  0  0  0  0  0  0  0  0  0  0
   36.4740   30.0960   48.6380 N   0  0  0  0  0  0  0  0  0  0  0  0
   36.1820   29.4250   49.7690 C   0  0  0  0  0  0  0  0  0  0  0  0
   36.8370   29.6280   50.9250 N   0  0  0  0  0  0  0  0  0  0  0  0
   38.4170   30.7730   51.8380 H   0  0  0  0  0  0  0  0  0  0  0  0
   38.9760   32.0120   49.7950 H   0  0  0  0  0  0  0  0  0  0  0  0
   37.5930   30.8620   46.2100 C   0  0  2  0  0  3  0  0  0  0  0  0
   37.8060   31.7790   47.3720 C   0  0  2  0  0  3  0  0  0  0  0  0
   39.1250   32.1900   47.5110 O   0  0  0  0  0  0  0  0  0  0  0  0
   39.7180   32.6650   46.3790 C   0  0  0  0  0  2  0  0  0  0  0  0
   38.8530   32.6710   45.1520 C   0  0  2  0  0  3  0  0  0  0  0  0
   38.3660   31.2430   44.9690 C   0  0  2  0  0  3  0  0  0  0  0  0
   36.2370   30.8690   45.8820 O   0  0  0  0  0  0  0  0  0  0  0  0
   35.8840   29.9590   45.9570 H   0  0  0  0  0  0  0  0  0  0  0  0
   39.6750   33.0040   44.0700 O   0  0  0  0  0  0  0  0  0  0  0  0
   40.4480   32.3970   44.0420 H   0  0  0  0  0  0  0  0  0  0  0  0
   37.6450   31.1130   43.8020 O   0  0  0  0  0  0  0  0  0  0  0  0
   36.8200   31.6440   43.8250 H   0  0  0  0  0  0  0  0  0  0  0  0
   35.1070   28.4490   49.6630 C   0  0  0  0  0  3  0  0  0  0  0  0
   34.4800   28.3450   48.5380 C   0  0  0  0  0  3  0  0  0  0  0  0
   33.3800   27.4330   48.1800 C   0  0  0  0  0  0  0  0  0  0  0  0
   33.1640   26.8000   49.0870 H   0  0  0  0  0  0  0  0  0  0  0  0
   32.4340   27.9580   47.9570 H   0  0  0  0  0  0  0  0  0  0  0  0
   33.7350   26.4580   47.1040 C   0  0  0  0  0  0  0  0  0  0  0  0
   33.9620   25.1110   47.2780 C   0  0  0  0  0  0  0  0  0  0  0  0
   34.2810   24.3270   46.1800 C   0  0  0  0  0  0  0  0  0  0  0  0
   34.3820   24.8590   44.9010 C   0  0  0  0  0  0  0  0  0  0  0  0
   34.1580   26.2020   44.7230 C   0  0  0  0  0  0  0  0  0  0  0  0
   33.8370   26.9970   45.8190 C   0  0  0  0  0  0  0  0  0  0  0  0
   33.8710   24.7410   48.2900 H   0  0  0  0  0  0  0  0  0  0  0  0
   34.4350   23.2890   46.4440 H   0  0  0  0  0  0  0  0  0  0  0  0
   34.6390   24.1440   44.1310 H   0  0  0  0  0  0  0  0  0  0  0  0
   34.2450   26.5860   43.7160 H   0  0  0  0  0  0  0  0  0  0  0  0
   33.6760   28.0430   45.5870 H   0  0  0  0  0  0  0  0  0  0  0  0
  1  7  1  0  0  0  0
  2  1  2  0  0  0  0
  3  4  2  0  0  0  0
  3  2  1  0  0  0  0
  4  5  1  0  0  0  0
  5  6  2  0  0  0  0
  6  1  1  0  0  0  0
  8  2  1  0  0  0  0
  9 15  1  6  0  0  0
  9 10  1  0  0  0  0
 10 11  1  0  0  0  0
 10  3  1  1  0  0  0
 12 11  1  0  0  0  0
 13 17  1  6  0  0  0
 13 12  1  0  0  0  0
 14 19  1  6  0  0  0
 14 13  1  0  0  0  0
 14  9  1  0  0  0  0
 15 16  1  0  0  0  0
 18 17  1  0  0  0  0
 19 20  1  0  0  0  0
 21  5  1  0  0  0  0
 22 21  2  0  0  0  0
 23 22  1  0  0  0  0
 23 24  1  0  0  0  0
 25 23  1  0  0  0  0
 26 27  1  0  0  0  0
 26 23  1  0  0  0  0
 27 32  1  0  0  0  0
 28 33  1  0  0  0  0
 28 27  2  0  0  0  0
 29 28  1  0  0  0  0
 30 29  2  0  0  0  0
 30 31  1  0  0  0  0
 31 26  2  0  0  0  0
 34 29  1  0  0  0  0
 35 30  1  0  0  0  0
 36 31  1  0  0  0  0
M  END
>  <minimizedAffinity>
-6.436728

>  <minimizedRMSD>
1.26016998

$$$$
