
 OpenBabel03272507333D

 39 42  0  0  1  0  0  0  0  0999 V2000
   33.0760   27.7130   48.2800 C   0  0  0  0  0  0  0  0  0  0  0  0
   31.8810   27.5730   48.7020 O   0  0  0  0  0  0  0  0  0  0  0  0
   35.9160   29.2230   49.8430 C   0  0  0  0  0  0  0  0  0  0  0  0
   34.9410   29.6620   50.7140 C   0  0  0  0  0  0  0  0  0  0  0  0
   33.7130   29.1570   50.2550 C   0  0  0  0  0  0  0  0  0  0  0  0
   34.0270   28.4390   49.1230 C   0  0  0  0  0  0  0  0  0  0  0  0
   35.3250   28.5050   48.9200 O   0  0  0  0  0  0  0  0  0  0  0  0
   35.0530   30.2810   51.6030 H   0  0  0  0  0  0  0  0  0  0  0  0
   32.7400   29.2820   50.6610 H   0  0  0  0  0  0  0  0  0  0  0  0
   37.3180   29.5620   50.0200 C   0  0  0  0  0  0  0  0  0  0  0  0
   37.9870   28.9540   50.8690 O   0  0  0  0  0  0  0  0  0  0  0  0
   37.8490   30.6010   49.1810 C   0  0  0  0  0  0  0  0  0  0  0  0
   38.1910   31.7960   49.7980 C   0  0  0  0  0  0  0  0  0  0  0  0
   38.7080   32.8300   49.0080 C   0  0  0  0  0  0  0  0  0  0  0  0
   38.8480   32.6010   47.6610 N   0  0  0  0  0  0  0  0  0  0  0  0
   38.5090   31.4400   47.1030 C   0  0  0  0  0  0  0  0  0  0  0  0
   38.0120   30.4390   47.8500 N   0  0  0  0  0  0  0  0  0  0  0  0
   38.0760   31.9580   50.8460 H   0  0  0  0  0  0  0  0  0  0  0  0
   38.9900   33.7850   49.4480 H   0  0  0  0  0  0  0  0  0  0  0  0
   38.6310   31.2900   46.0440 H   0  0  0  0  0  0  0  0  0  0  0  0
   33.5060   27.1460   46.9600 C   0  0  1  0  0  0  0  0  0  0  0  0
   33.8190   25.6070   47.1150 C   0  0  0  0  0  0  0  0  0  0  0  0
   32.7020   26.1250   46.2830 C   0  0  2  0  0  0  0  0  0  0  0  0
   34.4440   27.6230   46.5460 H   0  0  0  0  0  0  0  0  0  0  0  0
   33.6680   25.1570   48.0890 H   0  0  0  0  0  0  0  0  0  0  0  0
   34.6670   25.2130   46.5500 H   0  0  0  0  0  0  0  0  0  0  0  0
   31.6840   25.9750   46.7250 H   0  0  0  0  0  0  0  0  0  0  0  0
   33.1090   27.2940   44.1870 C   0  0  1  0  0  3  0  0  0  0  0  0
   32.8120   25.9830   44.7690 C   0  0  1  0  0  3  0  0  0  0  0  0
   33.6290   24.9400   44.5020 O   0  0  0  0  0  0  0  0  0  0  0  0
   34.4290   24.9530   43.4180 C   0  0  0  0  0  2  0  0  0  0  0  0
   34.1210   25.9680   42.3580 C   0  0  2  0  0  3  0  0  0  0  0  0
   34.1100   27.3110   43.0670 C   0  0  2  0  0  3  0  0  0  0  0  0
   31.9480   27.9140   43.7060 O   0  0  0  0  0  0  0  0  0  0  0  0
   32.1930   28.8490   43.4600 H   0  0  0  0  0  0  0  0  0  0  0  0
   32.8960   25.7020   41.7550 O   0  0  0  0  0  0  0  0  0  0  0  0
   33.0690   25.6740   40.7870 H   0  0  0  0  0  0  0  0  0  0  0  0
   35.4010   27.4890   43.5980 O   0  0  0  0  0  0  0  0  0  0  0  0
   36.0710   27.3590   42.8740 H   0  0  0  0  0  0  0  0  0  0  0  0
  1  2  2  0  0  0  0
  1  6  1  0  0  0  0
  3 10  1  0  0  0  0
  3  4  2  0  0  0  0
  4  8  1  0  0  0  0
  5  9  1  0  0  0  0
  5  4  1  0  0  0  0
  6  5  2  0  0  0  0
  7  6  1  0  0  0  0
  7  3  1  0  0  0  0
 10 11  2  0  0  0  0
 12 13  1  0  0  0  0
 12 10  1  0  0  0  0
 13 18  1  0  0  0  0
 14 19  1  0  0  0  0
 14 13  2  0  0  0  0
 15 14  1  0  0  0  0
 16 15  2  0  0  0  0
 16 17  1  0  0  0  0
 17 12  2  0  0  0  0
 20 16  1  0  0  0  0
 21 24  1  6  0  0  0
 21 22  1  0  0  0  0
 21  1  1  0  0  0  0
 22 25  1  0  0  0  0
 23 27  1  1  0  0  0
 23 21  1  0  0  0  0
 23 22  1  0  0  0  0
 26 22  1  0  0  0  0
 28 34  1  6  0  0  0
 28 29  1  0  0  0  0
 29 30  1  1  0  0  0
 29 23  1  0  0  0  0
 31 30  1  0  0  0  0
 32 36  1  1  0  0  0
 32 33  1  0  0  0  0
 32 31  1  0  0  0  0
 33 38  1  1  0  0  0
 33 28  1  0  0  0  0
 35 34  1  0  0  0  0
 37 36  1  0  0  0  0
 39 38  1  0  0  0  0
M  END
>  <minimizedAffinity>
-4.96326065

>  <minimizedRMSD>
0.635179281

$$$$
