
 OpenBabel03272509093D

 43 46  0  0  1  0  0  0  0  0999 V2000
   33.1050   27.0150   47.3580 C   0  0  0  0  0  0  0  0  0  0  0  0
   33.7460   25.7800   47.4130 C   0  0  0  0  0  0  0  0  0  0  0  0
   33.9580   25.0340   46.2740 C   0  0  0  0  0  0  0  0  0  0  0  0
   33.5440   25.4790   45.0350 C   0  0  0  0  0  0  0  0  0  0  0  0
   32.9200   26.6790   44.9750 C   0  0  0  0  0  0  0  0  0  0  0  0
   32.6910   27.4550   46.0970 C   0  0  0  0  0  0  0  0  0  0  0  0
   34.0390   25.5030   48.4160 H   0  0  0  0  0  0  0  0  0  0  0  0
   34.4650   24.0960   46.4520 H   0  0  0  0  0  0  0  0  0  0  0  0
   33.7280   24.8660   44.1690 H   0  0  0  0  0  0  0  0  0  0  0  0
   32.6040   27.0050   43.9820 H   0  0  0  0  0  0  0  0  0  0  0  0
   31.1940   28.8080   44.6200 C   0  0  1  0  0  3  0  0  0  0  0  0
   31.9940   28.7500   45.8830 C   0  0  2  0  0  3  0  0  0  0  0  0
   32.9520   29.7720   45.7990 O   0  0  0  0  0  0  0  0  0  0  0  0
   32.3330   31.0160   45.8810 C   0  0  0  0  0  2  0  0  0  0  0  0
   31.4280   31.2260   44.7020 C   0  0  1  0  0  3  0  0  0  0  0  0
   30.4090   30.1130   44.6740 C   0  0  2  0  0  3  0  0  0  0  0  0
   32.0210   28.8520   43.5010 O   0  0  0  0  0  0  0  0  0  0  0  0
   32.8650   29.3190   43.6310 H   0  0  0  0  0  0  0  0  0  0  0  0
   30.8670   32.4850   44.7420 O   0  0  0  0  0  0  0  0  0  0  0  0
   29.9570   32.5600   44.3800 H   0  0  0  0  0  0  0  0  0  0  0  0
   29.6450   30.0850   45.8330 O   0  0  0  0  0  0  0  0  0  0  0  0
   28.8070   30.6120   45.7590 H   0  0  0  0  0  0  0  0  0  0  0  0
   32.8460   27.8660   48.5400 C   0  0  0  0  0  0  0  0  0  0  0  0
   31.9420   28.4900   48.4580 H   0  0  0  0  0  0  0  0  0  0  0  0
   32.6100   27.1420   49.3730 H   0  0  0  0  0  0  0  0  0  0  0  0
   35.0460   28.2600   49.6420 C   0  0  0  0  0  3  0  0  0  0  0  0
   34.0120   28.6700   48.9500 C   0  0  0  0  0  3  0  0  0  0  0  0
   37.5330   30.2840   51.3960 C   0  0  0  0  0  0  0  0  0  0  0  0
   38.0700   31.0460   50.3380 C   0  0  0  0  0  0  0  0  0  0  0  0
   37.5640   30.8450   49.0460 C   0  0  0  0  0  0  0  0  0  0  0  0
   36.5660   29.9130   48.8720 N   0  0  0  0  0  0  0  0  0  0  0  0
   36.0970   29.2150   49.9450 C   0  0  0  0  0  0  0  0  0  0  0  0
   36.5690   29.3970   51.1700 N   0  0  0  0  0  0  0  0  0  0  0  0
   37.9130   30.4310   52.3840 H   0  0  0  0  0  0  0  0  0  0  0  0
   38.8520   31.7750   50.4740 H   0  0  0  0  0  0  0  0  0  0  0  0
   38.0480   31.5800   47.8760 C   0  0  0  0  0  0  0  0  0  0  0  0
   37.6180   31.3110   46.6000 C   0  0  0  0  0  0  0  0  0  0  0  0
   38.2760   32.1880   45.7410 C   0  0  0  0  0  0  0  0  0  0  0  0
   39.0770   32.9510   46.5280 N   0  0  0  0  0  0  0  0  0  0  0  0
   38.9350   32.5830   47.7950 N   0  0  0  0  0  0  0  0  0  0  0  0
   36.9110   30.5750   46.2820 H   0  0  0  0  0  0  0  0  0  0  0  0
   38.1970   32.2800   44.6650 H   0  0  0  0  0  0  0  0  0  0  0  0
   39.7350   33.7330   46.2520 H   0  0  0  0  0  0  0  0  0  0  0  0
  1  2  1  0  0  0  0
  1 23  1  0  0  0  0
  2  7  1  0  0  0  0
  3  8  1  0  0  0  0
  3  2  2  0  0  0  0
  4  3  1  0  0  0  0
  5  4  2  0  0  0  0
  5  6  1  0  0  0  0
  6  1  2  0  0  0  0
  9  4  1  0  0  0  0
 10  5  1  0  0  0  0
 11 17  1  6  0  0  0
 11 16  1  0  0  0  0
 11 12  1  0  0  0  0
 12  6  1  6  0  0  0
 13 14  1  0  0  0  0
 13 12  1  0  0  0  0
 15 19  1  1  0  0  0
 15 14  1  0  0  0  0
 16 15  1  0  0  0  0
 16 21  1  1  0  0  0
 17 18  1  0  0  0  0
 20 19  1  0  0  0  0
 22 21  1  0  0  0  0
 23 27  1  0  0  0  0
 23 25  1  0  0  0  0
 24 23  1  0  0  0  0
 26 32  1  0  0  0  0
 27 26  2  0  0  0  0
 28 34  1  0  0  0  0
 29 35  1  0  0  0  0
 29 28  2  0  0  0  0
 30 29  1  0  0  0  0
 31 30  2  0  0  0  0
 31 32  1  0  0  0  0
 32 33  2  0  0  0  0
 33 28  1  0  0  0  0
 36 30  1  0  0  0  0
 37 36  1  0  0  0  0
 38 39  1  0  0  0  0
 38 37  2  0  0  0  0
 39 40  1  0  0  0  0
 40 36  2  0  0  0  0
 41 37  1  0  0  0  0
 42 38  1  0  0  0  0
 43 39  1  0  0  0  0
M  END
>  <minimizedAffinity>
-6.49489498

>  <minimizedRMSD>
1.87754095

$$$$
