
 OpenBabel03272507333D

 39 42  0  0  1  0  0  0  0  0999 V2000
   33.0340   27.5790   48.2710 C   0  0  0  0  0  0  0  0  0  0  0  0
   31.8150   27.5190   48.6440 O   0  0  0  0  0  0  0  0  0  0  0  0
   35.8480   29.1620   49.8110 C   0  0  0  0  0  0  0  0  0  0  0  0
   34.8530   29.6710   50.6200 C   0  0  0  0  0  0  0  0  0  0  0  0
   33.6330   29.1510   50.1600 C   0  0  0  0  0  0  0  0  0  0  0  0
   33.9690   28.3510   49.0910 C   0  0  0  0  0  0  0  0  0  0  0  0
   35.2740   28.3880   48.9230 O   0  0  0  0  0  0  0  0  0  0  0  0
   34.9480   30.3500   51.4670 H   0  0  0  0  0  0  0  0  0  0  0  0
   32.6500   29.3150   50.5270 H   0  0  0  0  0  0  0  0  0  0  0  0
   37.2490   29.4960   50.0060 C   0  0  0  0  0  0  0  0  0  0  0  0
   37.9080   28.8740   50.8530 O   0  0  0  0  0  0  0  0  0  0  0  0
   37.7890   30.5450   49.1880 C   0  0  0  0  0  0  0  0  0  0  0  0
   38.1310   31.7290   49.8260 C   0  0  0  0  0  0  0  0  0  0  0  0
   38.6580   32.7730   49.0550 C   0  0  0  0  0  0  0  0  0  0  0  0
   38.8070   32.5650   47.7060 N   0  0  0  0  0  0  0  0  0  0  0  0
   38.4680   31.4140   47.1270 C   0  0  0  0  0  0  0  0  0  0  0  0
   37.9610   30.4030   47.8550 N   0  0  0  0  0  0  0  0  0  0  0  0
   38.0090   31.8750   50.8750 H   0  0  0  0  0  0  0  0  0  0  0  0
   38.9400   33.7200   49.5120 H   0  0  0  0  0  0  0  0  0  0  0  0
   38.5970   31.2800   46.0670 H   0  0  0  0  0  0  0  0  0  0  0  0
   33.5060   26.8760   47.0340 C   0  0  1  0  0  0  0  0  0  0  0  0
   33.7860   25.3570   47.3570 C   0  0  0  0  0  0  0  0  0  0  0  0
   32.7120   25.8010   46.4330 C   0  0  2  0  0  0  0  0  0  0  0  0
   34.4660   27.2960   46.6110 H   0  0  0  0  0  0  0  0  0  0  0  0
   33.5910   25.0110   48.3640 H   0  0  0  0  0  0  0  0  0  0  0  0
   34.6500   24.8970   46.8690 H   0  0  0  0  0  0  0  0  0  0  0  0
   31.6750   25.7090   46.8470 H   0  0  0  0  0  0  0  0  0  0  0  0
   31.8510   24.5440   44.5340 C   0  0  1  0  0  3  0  0  0  0  0  0
   32.8780   25.5040   44.9460 C   0  0  1  0  0  3  0  0  0  0  0  0
   32.9840   26.6820   44.2920 O   0  0  0  0  0  0  0  0  0  0  0  0
   32.4900   26.8230   43.0470 C   0  0  0  0  0  2  0  0  0  0  0  0
   32.1580   25.5660   42.3000 C   0  0  2  0  0  3  0  0  0  0  0  0
   31.2080   24.7940   43.2000 C   0  0  2  0  0  3  0  0  0  0  0  0
   32.3570   23.2370   44.5060 O   0  0  0  0  0  0  0  0  0  0  0  0
   31.5820   22.6250   44.3620 H   0  0  0  0  0  0  0  0  0  0  0  0
   33.3060   24.8320   42.0250 O   0  0  0  0  0  0  0  0  0  0  0  0
   33.2950   24.6590   41.0560 H   0  0  0  0  0  0  0  0  0  0  0  0
   30.0760   25.6110   43.3740 O   0  0  0  0  0  0  0  0  0  0  0  0
   29.7360   25.8890   42.4810 H   0  0  0  0  0  0  0  0  0  0  0  0
  1  2  2  0  0  0  0
  1  6  1  0  0  0  0
  3 10  1  0  0  0  0
  3  4  2  0  0  0  0
  4  8  1  0  0  0  0
  5  9  1  0  0  0  0
  5  4  1  0  0  0  0
  6  5  2  0  0  0  0
  7  6  1  0  0  0  0
  7  3  1  0  0  0  0
 10 11  2  0  0  0  0
 12 13  1  0  0  0  0
 12 10  1  0  0  0  0
 13 18  1  0  0  0  0
 14 19  1  0  0  0  0
 14 13  2  0  0  0  0
 15 14  1  0  0  0  0
 16 15  2  0  0  0  0
 16 17  1  0  0  0  0
 17 12  2  0  0  0  0
 20 16  1  0  0  0  0
 21 24  1  6  0  0  0
 21 22  1  0  0  0  0
 21  1  1  0  0  0  0
 22 25  1  0  0  0  0
 23 27  1  1  0  0  0
 23 21  1  0  0  0  0
 23 22  1  0  0  0  0
 26 22  1  0  0  0  0
 28 34  1  6  0  0  0
 28 29  1  0  0  0  0
 29 30  1  6  0  0  0
 29 23  1  0  0  0  0
 31 30  1  0  0  0  0
 32 36  1  1  0  0  0
 32 31  1  0  0  0  0
 32 33  1  0  0  0  0
 33 38  1  1  0  0  0
 33 28  1  0  0  0  0
 35 34  1  0  0  0  0
 37 36  1  0  0  0  0
 39 38  1  0  0  0  0
M  END
>  <minimizedAffinity>
-4.90178299

>  <minimizedRMSD>
0.159942195

$$$$
