
 OpenBabel03272500083D

 42 45  0  0  1  0  0  0  0  0999 V2000
   30.5270   27.6380   48.1770 C   0  0  0  0  0  0  0  0  0  0  0  0
   30.4370   27.5840   49.5490 C   0  0  0  0  0  0  0  0  0  0  0  0
   29.2850   27.9670   50.2030 C   0  0  0  0  0  0  0  0  0  0  0  0
   28.1980   28.4170   49.4420 C   0  0  0  0  0  0  0  0  0  0  0  0
   28.2980   28.4690   48.0550 C   0  0  0  0  0  0  0  0  0  0  0  0
   29.4530   28.0800   47.4480 C   0  0  0  0  0  0  0  0  0  0  0  0
   31.2470   27.2440   50.1780 H   0  0  0  0  0  0  0  0  0  0  0  0
   29.2230   27.9200   51.2900 H   0  0  0  0  0  0  0  0  0  0  0  0
   27.3300   28.7010   50.0250 H   0  0  0  0  0  0  0  0  0  0  0  0
   27.4290   28.8230   47.5320 H   0  0  0  0  0  0  0  0  0  0  0  0
   29.2280   26.7720   45.3900 C   0  0  1  0  0  3  0  0  0  0  0  0
   29.5310   28.1280   45.9870 C   0  0  1  0  0  3  0  0  0  0  0  0
   28.6610   29.1100   45.5260 O   0  0  0  0  0  0  0  0  0  0  0  0
   28.2290   28.8840   44.2240 C   0  0  0  0  0  2  0  0  0  0  0  0
   27.2180   27.7680   44.2700 C   0  0  1  0  0  3  0  0  0  0  0  0
   27.8070   26.5740   44.9840 C   0  0  1  0  0  3  0  0  0  0  0  0
   30.0830   26.4610   44.3470 O   0  0  0  0  0  0  0  0  0  0  0  0
   30.9790   26.8560   44.5240 H   0  0  0  0  0  0  0  0  0  0  0  0
   26.0730   28.1440   44.9730 O   0  0  0  0  0  0  0  0  0  0  0  0
   25.4950   27.3160   44.9790 H   0  0  0  0  0  0  0  0  0  0  0  0
   27.7830   25.5000   44.0790 O   0  0  0  0  0  0  0  0  0  0  0  0
   28.6760   25.1010   43.9350 H   0  0  0  0  0  0  0  0  0  0  0  0
   31.7480   27.2210   47.6610 O   0  0  0  0  0  0  0  0  0  0  0  0
   34.8250   28.6680   48.8360 C   0  0  0  0  0  0  0  0  0  0  0  0
   34.8970   29.8890   48.1200 C   0  0  0  0  0  0  0  0  0  0  0  0
   33.8640   30.1810   47.2400 C   0  0  0  0  0  0  0  0  0  0  0  0
   32.8480   29.2820   47.1170 N   0  0  0  0  0  0  0  0  0  0  0  0
   32.8040   28.1390   47.8020 C   0  0  0  0  0  0  0  0  0  0  0  0
   33.8010   27.8120   48.6800 N   0  0  0  0  0  0  0  0  0  0  0  0
   35.6350   28.4340   49.5310 H   0  0  0  0  0  0  0  0  0  0  0  0
   33.9090   31.1090   46.6900 H   0  0  0  0  0  0  0  0  0  0  0  0
   36.0160   30.7290   48.3480 N   0  0  0  0  0  0  0  0  0  0  0  0
   36.2640   31.2850   49.5290 C   0  0  0  0  0  0  0  0  0  0  0  0
   37.3820   32.0950   49.6740 C   0  0  0  0  0  0  0  0  0  0  0  0
   38.1500   32.2540   48.5640 C   0  0  0  0  0  0  0  0  0  0  0  0
   39.1790   32.9930   48.6810 O   0  0  0  0  0  0  0  0  0  0  0  0
   37.9380   31.7200   47.3780 N   0  0  0  0  0  0  0  0  0  0  0  0
   36.8340   30.9280   47.2580 C   0  0  0  0  0  0  0  0  0  0  0  0
   36.6090   30.4020   46.1220 O   0  0  0  0  0  0  0  0  0  0  0  0
   35.5750   31.0830   50.3440 H   0  0  0  0  0  0  0  0  0  0  0  0
   37.5660   32.5380   50.6440 H   0  0  0  0  0  0  0  0  0  0  0  0
   38.5740   31.8890   46.5720 H   0  0  0  0  0  0  0  0  0  0  0  0
  1  2  1  0  0  0  0
  2  7  1  0  0  0  0
  2  3  2  0  0  0  0
  3  8  1  0  0  0  0
  4  9  1  0  0  0  0
  4  3  1  0  0  0  0
  5  4  2  0  0  0  0
  6  5  1  0  0  0  0
  6  1  2  0  0  0  0
 10  5  1  0  0  0  0
 11 17  1  6  0  0  0
 11 12  1  0  0  0  0
 12  6  1  1  0  0  0
 13 12  1  0  0  0  0
 14 15  1  0  0  0  0
 14 13  1  0  0  0  0
 15 19  1  1  0  0  0
 15 16  1  0  0  0  0
 16 21  1  6  0  0  0
 16 11  1  0  0  0  0
 17 18  1  0  0  0  0
 19 20  1  0  0  0  0
 22 21  1  0  0  0  0
 23 28  1  0  0  0  0
 23  1  1  0  0  0  0
 24 30  1  0  0  0  0
 25 32  1  0  0  0  0
 25 24  2  0  0  0  0
 26 25  1  0  0  0  0
 27 26  2  0  0  0  0
 27 28  1  0  0  0  0
 28 29  2  0  0  0  0
 29 24  1  0  0  0  0
 31 26  1  0  0  0  0
 32 33  1  0  0  0  0
 33 34  2  0  0  0  0
 33 40  1  0  0  0  0
 34 41  1  0  0  0  0
 35 36  2  0  0  0  0
 35 34  1  0  0  0  0
 37 35  1  0  0  0  0
 38 37  1  0  0  0  0
 38 32  1  0  0  0  0
 39 38  2  0  0  0  0
 42 37  1  0  0  0  0
M  END
>  <minimizedAffinity>
-6.25341558

>  <minimizedRMSD>
1.83461976

$$$$
