
 OpenBabel03272501363D

 39 42  0  0  1  0  0  0  0  0999 V2000
   37.5950   30.2180   51.4190 C   0  0  0  0  0  0  0  0  0  0  0  0
   38.2040   31.0710   50.5260 C   0  0  0  0  0  0  0  0  0  0  0  0
   37.5720   31.5100   49.3450 C   0  0  0  0  0  0  0  0  0  0  0  0
   36.3600   31.0610   49.1390 N   0  0  0  0  0  0  0  0  0  0  0  0
   35.7630   30.2100   50.0370 C   0  0  0  0  0  0  0  0  0  0  0  0
   36.3540   29.7920   51.1530 N   0  0  0  0  0  0  0  0  0  0  0  0
   38.1680   29.9420   52.2940 H   0  0  0  0  0  0  0  0  0  0  0  0
   39.2090   31.4310   50.7210 H   0  0  0  0  0  0  0  0  0  0  0  0
   34.3650   28.2250   49.5280 C   0  0  1  0  0  0  0  0  0  0  0  0
   34.3820   29.7000   49.7970 C   0  0  2  0  0  0  0  0  0  0  0  0
   33.8770   30.4340   48.7080 O   0  0  0  0  0  0  0  0  0  0  0  0
   34.3840   29.8850   47.5150 C   0  0  0  0  0  0  0  0  0  0  0  0
   33.5100   28.6830   47.2180 C   0  0  2  0  0  0  0  0  0  0  0  0
   33.2450   27.9750   48.5280 C   0  0  2  0  0  0  0  0  0  0  0  0
   35.5700   27.6940   49.1330 O   0  0  0  0  0  0  0  0  0  0  0  0
   35.7850   26.8430   49.6200 H   0  0  0  0  0  0  0  0  0  0  0  0
   34.0250   27.8580   46.2370 O   0  0  0  0  0  0  0  0  0  0  0  0
   33.3500   27.6670   45.5100 H   0  0  0  0  0  0  0  0  0  0  0  0
   32.0920   28.5750   49.0750 O   0  0  0  0  0  0  0  0  0  0  0  0
   31.2720   28.1400   48.7030 H   0  0  0  0  0  0  0  0  0  0  0  0
   38.2940   32.3750   48.4600 C   0  0  1  0  0  0  0  0  0  0  0  0
   39.0070   33.3780   48.8540 O   0  0  0  0  0  0  0  0  0  0  0  0
   38.2150   32.0820   46.9810 C   0  0  2  0  0  0  0  0  0  0  0  0
   38.6640   30.5690   46.7770 C   0  0  0  0  0  0  0  0  0  0  0  0
   39.3900   31.7750   46.2350 C   0  0  1  0  0  0  0  0  0  0  0  0
   37.1960   32.2060   46.5260 H   0  0  0  0  0  0  0  0  0  0  0  0
   38.0080   30.0040   46.0880 H   0  0  0  0  0  0  0  0  0  0  0  0
   39.0430   30.0280   47.6350 H   0  0  0  0  0  0  0  0  0  0  0  0
   40.4050   31.8800   46.7420 H   0  0  0  0  0  0  0  0  0  0  0  0
   39.5290   31.8230   44.7800 C   0  0  0  0  0  0  0  0  0  0  0  0
   38.8820   32.8500   44.1110 C   0  0  0  0  0  0  0  0  0  0  0  0
   39.0090   32.9050   42.7420 C   0  0  0  0  0  0  0  0  0  0  0  0
   39.7580   31.9680   42.0440 C   0  0  0  0  0  0  0  0  0  0  0  0
   40.3880   30.9590   42.7500 C   0  0  0  0  0  0  0  0  0  0  0  0
   40.2560   30.9170   44.0850 N   0  0  0  0  0  0  0  0  0  0  0  0
   38.2820   33.6210   44.5490 H   0  0  0  0  0  0  0  0  0  0  0  0
   38.5480   33.6610   42.1200 H   0  0  0  0  0  0  0  0  0  0  0  0
   39.8550   32.0180   40.9540 H   0  0  0  0  0  0  0  0  0  0  0  0
   40.9760   30.2210   42.2200 H   0  0  0  0  0  0  0  0  0  0  0  0
  1  7  1  0  0  0  0
  2  8  1  0  0  0  0
  2  1  2  0  0  0  0
  3  2  1  0  0  0  0
  4  3  2  0  0  0  0
  4  5  1  0  0  0  0
  5  6  2  0  0  0  0
  6  1  1  0  0  0  0
  9 15  1  6  0  0  0
  9 10  1  0  0  0  0
 10  5  1  6  0  0  0
 11 10  1  0  0  0  0
 12 11  1  0  0  0  0
 13 17  1  6  0  0  0
 13 12  1  0  0  0  0
 13 14  1  0  0  0  0
 14 19  1  1  0  0  0
 14  9  1  0  0  0  0
 15 16  1  0  0  0  0
 18 17  1  0  0  0  0
 20 19  1  0  0  0  0
 21 22  1  1  0  0  0
 21  3  1  0  0  0  0
 23 26  1  6  0  0  0
 23 21  1  0  0  0  0
 24 23  1  0  0  0  0
 24 28  1  0  0  0  0
 25 29  1  1  0  0  0
 25 24  1  0  0  0  0
 25 23  1  0  0  0  0
 27 24  1  0  0  0  0
 30 25  1  0  0  0  0
 31 36  1  0  0  0  0
 31 30  1  0  0  0  0
 32 31  2  0  0  0  0
 33 32  1  0  0  0  0
 33 34  2  0  0  0  0
 34 35  1  0  0  0  0
 35 30  2  0  0  0  0
 37 32  1  0  0  0  0
 38 33  1  0  0  0  0
 39 34  1  0  0  0  0
M  END
>  <minimizedAffinity>
-6.35630465

>  <minimizedRMSD>
1.03872192

$$$$
