
 OpenBabel03272505313D

 43 46  0  0  1  0  0  0  0  0999 V2000
   37.3210   31.1710   47.0940 N   0  0  0  0  0  0  0  0  0  0  0  0
   36.6500   30.9960   45.9250 C   0  0  0  0  0  0  0  0  0  0  0  0
   37.0800   31.5510   44.7350 C   0  0  0  0  0  0  0  0  0  0  0  0
   38.2600   32.3210   44.7630 C   0  0  0  0  0  0  0  0  0  0  0  0
   38.6950   32.8470   43.7110 O   0  0  0  0  0  0  0  0  0  0  0  0
   38.9330   32.4920   45.9520 N   0  0  0  0  0  0  0  0  0  0  0  0
   38.4190   31.9100   47.0230 C   0  0  0  0  0  0  0  0  0  0  0  0
   39.0600   32.0880   48.0840 O   0  0  0  0  0  0  0  0  0  0  0  0
   35.7320   30.3990   45.8970 H   0  0  0  0  0  0  0  0  0  0  0  0
   37.2810   29.3810   50.3510 C   0  0  0  0  0  0  0  0  0  0  0  0
   37.7490   29.9550   49.1530 C   0  0  0  0  0  0  0  0  0  0  0  0
   36.8650   30.5990   48.2850 C   0  0  0  0  0  0  0  0  0  0  0  0
   35.5610   30.6500   48.6320 N   0  0  0  0  0  0  0  0  0  0  0  0
   35.0940   30.0980   49.7880 C   0  0  0  0  0  0  0  0  0  0  0  0
   35.9600   29.4720   50.6320 N   0  0  0  0  0  0  0  0  0  0  0  0
   37.9850   28.8970   50.9930 H   0  0  0  0  0  0  0  0  0  0  0  0
   38.7760   29.9350   48.8430 H   0  0  0  0  0  0  0  0  0  0  0  0
   34.0740   30.1260   50.0810 H   0  0  0  0  0  0  0  0  0  0  0  0
   36.4040   31.3970   43.4600 C   0  0  0  0  0  0  0  0  0  0  0  0
   36.7500   30.4500   42.5360 C   0  0  0  0  0  0  0  0  0  0  0  0
   36.1410   30.2650   41.3200 C   0  0  0  0  0  0  0  0  0  0  0  0
   35.0730   31.1160   40.9830 C   0  0  0  0  0  0  0  0  0  0  0  0
   34.7490   32.0680   41.9470 C   0  0  0  0  0  0  0  0  0  0  0  0
   35.3900   32.1880   43.1140 N   0  0  0  0  0  0  0  0  0  0  0  0
   37.5720   29.7690   42.7570 H   0  0  0  0  0  0  0  0  0  0  0  0
   36.4160   29.5160   40.5930 H   0  0  0  0  0  0  0  0  0  0  0  0
   34.5110   31.0780   40.0650 H   0  0  0  0  0  0  0  0  0  0  0  0
   34.1870   34.4600   41.8150 C   0  0  2  0  0  3  0  0  0  0  0  0
   33.6370   33.0500   41.7460 C   0  0  1  0  0  3  0  0  0  0  0  0
   32.9930   32.7820   40.5410 O   0  0  0  0  0  0  0  0  0  0  0  0
   31.8850   33.5710   40.3830 C   0  0  0  0  0  2  0  0  0  0  0  0
   32.1180   35.0420   40.6850 C   0  0  2  0  0  3  0  0  0  0  0  0
   33.6130   35.2610   40.6580 C   0  0  1  0  0  3  0  0  0  0  0  0
   35.5860   34.4730   41.7870 O   0  0  0  0  0  0  0  0  0  0  0  0
   35.8950   34.6190   42.7370 H   0  0  0  0  0  0  0  0  0  0  0  0
   31.7170   35.2410   42.0230 O   0  0  0  0  0  0  0  0  0  0  0  0
   30.7690   34.9230   42.1290 H   0  0  0  0  0  0  0  0  0  0  0  0
   33.9590   36.5960   40.8540 O   0  0  0  0  0  0  0  0  0  0  0  0
   34.4380   36.9210   40.0420 H   0  0  0  0  0  0  0  0  0  0  0  0
   40.1400   33.2810   45.9750 C   0  0  0  0  0  0  0  0  0  0  0  0
   40.1060   34.2560   45.0380 F   0  0  0  0  0  0  0  0  0  0  0  0
   41.2940   32.5360   45.7230 F   0  0  0  0  0  0  0  0  0  0  0  0
   40.2500   33.8920   47.2280 F   0  0  0  0  0  0  0  0  0  0  0  0
  1 12  1  0  0  0  0
  2  1  1  0  0  0  0
  3  4  1  0  0  0  0
  3  2  2  0  0  0  0
  4  6  1  0  0  0  0
  5  4  2  0  0  0  0
  6 40  1  0  0  0  0
  6  7  1  0  0  0  0
  7  1  1  0  0  0  0
  7  8  2  0  0  0  0
  9  2  1  0  0  0  0
 10 15  1  0  0  0  0
 10 16  1  0  0  0  0
 11 10  2  0  0  0  0
 12 13  2  0  0  0  0
 12 11  1  0  0  0  0
 13 14  1  0  0  0  0
 14 18  1  0  0  0  0
 14 15  2  0  0  0  0
 17 11  1  0  0  0  0
 19  3  1  0  0  0  0
 20 25  1  0  0  0  0
 20 19  2  0  0  0  0
 21 20  1  0  0  0  0
 22 21  2  0  0  0  0
 22 23  1  0  0  0  0
 23 24  2  0  0  0  0
 24 19  1  0  0  0  0
 26 21  1  0  0  0  0
 27 22  1  0  0  0  0
 28 34  1  6  0  0  0
 29 28  1  0  0  0  0
 29 23  1  6  0  0  0
 30 29  1  0  0  0  0
 31 30  1  0  0  0  0
 31 32  1  0  0  0  0
 32 36  1  1  0  0  0
 33 32  1  0  0  0  0
 33 38  1  1  0  0  0
 33 28  1  0  0  0  0
 34 35  1  0  0  0  0
 36 37  1  0  0  0  0
 39 38  1  0  0  0  0
 40 43  1  0  0  0  0
 41 40  1  0  0  0  0
 42 40  1  0  0  0  0
M  END
>  <minimizedAffinity>
-6.97188473

>  <minimizedRMSD>
0.686388373

$$$$
