
 OpenBabel03272507353D

 39 42  0  0  1  0  0  0  0  0999 V2000
   35.7930   28.7430   33.7160 C   0  0  0  0  0  0  0  0  0  0  0  0
   35.4180   28.4960   32.5210 O   0  0  0  0  0  0  0  0  0  0  0  0
   37.7600   25.9660   34.8140 C   0  0  0  0  0  0  0  0  0  0  0  0
   38.3230   26.9460   35.6040 C   0  0  0  0  0  0  0  0  0  0  0  0
   37.6650   28.1510   35.3090 C   0  0  0  0  0  0  0  0  0  0  0  0
   36.7360   27.8200   34.3480 C   0  0  0  0  0  0  0  0  0  0  0  0
   36.8270   26.5330   34.0900 O   0  0  0  0  0  0  0  0  0  0  0  0
   39.1270   26.8520   36.3340 H   0  0  0  0  0  0  0  0  0  0  0  0
   37.8220   29.1200   35.7130 H   0  0  0  0  0  0  0  0  0  0  0  0
   38.2050   24.5830   34.8640 C   0  0  0  0  0  0  0  0  0  0  0  0
   38.3260   23.9470   33.8060 O   0  0  0  0  0  0  0  0  0  0  0  0
   38.4820   24.0330   36.1610 C   0  0  0  0  0  0  0  0  0  0  0  0
   39.7150   23.4230   36.3380 C   0  0  0  0  0  0  0  0  0  0  0  0
   40.0150   22.8740   37.5910 C   0  0  0  0  0  0  0  0  0  0  0  0
   39.0650   22.9720   38.5780 N   0  0  0  0  0  0  0  0  0  0  0  0
   37.8910   23.5650   38.3730 C   0  0  0  0  0  0  0  0  0  0  0  0
   37.5910   24.0960   37.1750 N   0  0  0  0  0  0  0  0  0  0  0  0
   40.4420   23.3560   35.5600 H   0  0  0  0  0  0  0  0  0  0  0  0
   40.9700   22.3860   37.7750 H   0  0  0  0  0  0  0  0  0  0  0  0
   37.1660   23.6260   39.1670 H   0  0  0  0  0  0  0  0  0  0  0  0
   35.2910   29.9470   34.4550 C   0  0  1  0  0  0  0  0  0  0  0  0
   35.5960   31.2520   33.6220 C   0  0  0  0  0  0  0  0  0  0  0  0
   34.2170   30.7760   33.9010 C   0  0  2  0  0  0  0  0  0  0  0  0
   35.7750   30.0920   35.4660 H   0  0  0  0  0  0  0  0  0  0  0  0
   36.0760   31.1340   32.6580 H   0  0  0  0  0  0  0  0  0  0  0  0
   35.8970   32.1400   34.1830 H   0  0  0  0  0  0  0  0  0  0  0  0
   33.6950   30.3210   33.0200 H   0  0  0  0  0  0  0  0  0  0  0  0
   33.3970   30.9910   36.1840 C   0  0  1  0  0  3  0  0  0  0  0  0
   33.3540   31.5980   34.8520 C   0  0  1  0  0  3  0  0  0  0  0  0
   33.6910   32.8990   34.7060 O   0  0  0  0  0  0  0  0  0  0  0  0
   33.6490   33.7410   35.7560 C   0  0  0  0  0  2  0  0  0  0  0  0
   32.8890   33.2840   36.9640 C   0  0  2  0  0  3  0  0  0  0  0  0
   33.4910   31.9420   37.3420 C   0  0  2  0  0  3  0  0  0  0  0  0
   32.2790   30.1780   36.4100 O   0  0  0  0  0  0  0  0  0  0  0  0
   32.4400   29.6870   37.2640 H   0  0  0  0  0  0  0  0  0  0  0  0
   31.5310   33.1720   36.6870 O   0  0  0  0  0  0  0  0  0  0  0  0
   31.0670   33.6990   37.3770 H   0  0  0  0  0  0  0  0  0  0  0  0
   34.8440   32.1840   37.6390 O   0  0  0  0  0  0  0  0  0  0  0  0
   34.9040   32.9160   38.3100 H   0  0  0  0  0  0  0  0  0  0  0  0
  1  6  1  0  0  0  0
  1 21  1  0  0  0  0
  2  1  2  0  0  0  0
  3 10  1  0  0  0  0
  3  4  2  0  0  0  0
  4  8  1  0  0  0  0
  5  4  1  0  0  0  0
  5  9  1  0  0  0  0
  6  5  2  0  0  0  0
  7  6  1  0  0  0  0
  7  3  1  0  0  0  0
 10 12  1  0  0  0  0
 11 10  2  0  0  0  0
 12 13  2  0  0  0  0
 12 17  1  0  0  0  0
 13 14  1  0  0  0  0
 14 19  1  0  0  0  0
 14 15  2  0  0  0  0
 16 15  1  0  0  0  0
 16 20  1  0  0  0  0
 17 16  2  0  0  0  0
 18 13  1  0  0  0  0
 21 24  1  1  0  0  0
 22 23  1  0  0  0  0
 22 26  1  0  0  0  0
 22 21  1  0  0  0  0
 23 27  1  6  0  0  0
 23 21  1  0  0  0  0
 23 29  1  0  0  0  0
 25 22  1  0  0  0  0
 28 34  1  1  0  0  0
 28 33  1  0  0  0  0
 29 30  1  1  0  0  0
 29 28  1  0  0  0  0
 30 31  1  0  0  0  0
 31 32  1  0  0  0  0
 32 36  1  6  0  0  0
 32 33  1  0  0  0  0
 33 38  1  6  0  0  0
 34 35  1  0  0  0  0
 36 37  1  0  0  0  0
 38 39  1  0  0  0  0
M  END
>  <minimizedAffinity>
-6.20733118

$$$$

 OpenBabel03272507353D

 39 42  0  0  1  0  0  0  0  0999 V2000
   36.9170   27.4070   33.1920 C   0  0  0  0  0  0  0  0  0  0  0  0
   36.9430   26.6600   32.1590 O   0  0  0  0  0  0  0  0  0  0  0  0
   37.9940   25.4500   35.9850 C   0  0  0  0  0  0  0  0  0  0  0  0
   38.4570   26.6810   36.4010 C   0  0  0  0  0  0  0  0  0  0  0  0
   38.1210   27.6120   35.4060 C   0  0  0  0  0  0  0  0  0  0  0  0
   37.4700   26.8790   34.4400 C   0  0  0  0  0  0  0  0  0  0  0  0
   37.4180   25.6200   34.8210 O   0  0  0  0  0  0  0  0  0  0  0  0
   38.9870   26.9320   37.3200 H   0  0  0  0  0  0  0  0  0  0  0  0
   38.3120   28.6570   35.3700 H   0  0  0  0  0  0  0  0  0  0  0  0
   38.1710   24.2480   36.7830 C   0  0  0  0  0  0  0  0  0  0  0  0
   37.3410   23.9770   37.6630 O   0  0  0  0  0  0  0  0  0  0  0  0
   39.3200   23.4360   36.4930 C   0  0  0  0  0  0  0  0  0  0  0  0
   39.9040   22.7670   37.5580 C   0  0  0  0  0  0  0  0  0  0  0  0
   41.0280   21.9700   37.3090 C   0  0  0  0  0  0  0  0  0  0  0  0
   41.4900   21.8950   36.0180 N   0  0  0  0  0  0  0  0  0  0  0  0
   40.9030   22.5520   35.0190 C   0  0  0  0  0  0  0  0  0  0  0  0
   39.8230   23.3210   35.2440 N   0  0  0  0  0  0  0  0  0  0  0  0
   39.5340   22.8360   38.5560 H   0  0  0  0  0  0  0  0  0  0  0  0
   41.5200   21.4270   38.1140 H   0  0  0  0  0  0  0  0  0  0  0  0
   41.2870   22.4740   34.0160 H   0  0  0  0  0  0  0  0  0  0  0  0
   36.3430   28.7910   33.1370 C   0  0  1  0  0  0  0  0  0  0  0  0
   34.8570   28.7330   32.6100 C   0  0  0  0  0  0  0  0  0  0  0  0
   35.2100   29.1690   33.9850 C   0  0  2  0  0  0  0  0  0  0  0  0
   36.9030   29.4860   32.4430 H   0  0  0  0  0  0  0  0  0  0  0  0
   34.4370   27.7600   32.3890 H   0  0  0  0  0  0  0  0  0  0  0  0
   34.5350   29.5370   31.9420 H   0  0  0  0  0  0  0  0  0  0  0  0
   34.9670   28.4240   34.7860 H   0  0  0  0  0  0  0  0  0  0  0  0
   33.5870   30.8890   34.5680 C   0  0  1  0  0  3  0  0  0  0  0  0
   35.0130   30.6380   34.3440 C   0  0  1  0  0  3  0  0  0  0  0  0
   35.9020   30.9580   35.3100 O   0  0  0  0  0  0  0  0  0  0  0  0
   35.5890   31.8600   36.2600 C   0  0  0  0  0  2  0  0  0  0  0  0
   34.4010   32.7370   36.0000 C   0  0  2  0  0  3  0  0  0  0  0  0
   33.2470   31.7890   35.7210 C   0  0  2  0  0  3  0  0  0  0  0  0
   32.9790   31.4330   33.4290 O   0  0  0  0  0  0  0  0  0  0  0  0
   31.9960   31.4440   33.5970 H   0  0  0  0  0  0  0  0  0  0  0  0
   34.6330   33.5850   34.9240 O   0  0  0  0  0  0  0  0  0  0  0  0
   34.4380   34.4950   35.2470 H   0  0  0  0  0  0  0  0  0  0  0  0
   33.0790   31.0150   36.8840 O   0  0  0  0  0  0  0  0  0  0  0  0
   32.9930   31.6220   37.6680 H   0  0  0  0  0  0  0  0  0  0  0  0
  1  6  1  0  0  0  0
  2  1  2  0  0  0  0
  3  4  2  0  0  0  0
  3 10  1  0  0  0  0
  4  8  1  0  0  0  0
  5  4  1  0  0  0  0
  6  7  1  0  0  0  0
  6  5  2  0  0  0  0
  7  3  1  0  0  0  0
  9  5  1  0  0  0  0
 10 11  2  0  0  0  0
 12 10  1  0  0  0  0
 12 13  1  0  0  0  0
 13 18  1  0  0  0  0
 14 13  2  0  0  0  0
 14 19  1  0  0  0  0
 15 14  1  0  0  0  0
 16 17  1  0  0  0  0
 16 15  2  0  0  0  0
 17 12  2  0  0  0  0
 20 16  1  0  0  0  0
 21 24  1  6  0  0  0
 21  1  1  0  0  0  0
 21 23  1  0  0  0  0
 22 21  1  0  0  0  0
 22 23  1  0  0  0  0
 23 29  1  0  0  0  0
 23 27  1  1  0  0  0
 25 22  1  0  0  0  0
 26 22  1  0  0  0  0
 28 34  1  6  0  0  0
 28 33  1  0  0  0  0
 29 28  1  0  0  0  0
 29 30  1  1  0  0  0
 30 31  1  0  0  0  0
 32 36  1  6  0  0  0
 32 31  1  0  0  0  0
 33 32  1  0  0  0  0
 33 38  1  1  0  0  0
 34 35  1  0  0  0  0
 36 37  1  0  0  0  0
 38 39  1  0  0  0  0
M  END
>  <minimizedAffinity>
-5.95503855

$$$$

 OpenBabel03272507353D

 39 42  0  0  1  0  0  0  0  0999 V2000
   36.2700   28.4650   33.5770 C   0  0  0  0  0  0  0  0  0  0  0  0
   36.5760   28.8010   32.3850 O   0  0  0  0  0  0  0  0  0  0  0  0
   37.9210   25.4870   34.6720 C   0  0  0  0  0  0  0  0  0  0  0  0
   38.4680   26.3730   35.5750 C   0  0  0  0  0  0  0  0  0  0  0  0
   37.9280   27.6390   35.2990 C   0  0  0  0  0  0  0  0  0  0  0  0
   37.0790   27.4370   34.2340 C   0  0  0  0  0  0  0  0  0  0  0  0
   37.1060   26.1640   33.9010 O   0  0  0  0  0  0  0  0  0  0  0  0
   39.1860   26.1750   36.3710 H   0  0  0  0  0  0  0  0  0  0  0  0
   38.1100   28.5680   35.7800 H   0  0  0  0  0  0  0  0  0  0  0  0
   38.2620   24.0740   34.6710 C   0  0  0  0  0  0  0  0  0  0  0  0
   37.8950   23.3620   33.7250 O   0  0  0  0  0  0  0  0  0  0  0  0
   39.0180   23.5860   35.7910 C   0  0  0  0  0  0  0  0  0  0  0  0
   40.3390   23.2330   35.5540 C   0  0  0  0  0  0  0  0  0  0  0  0
   41.1030   22.7500   36.6240 C   0  0  0  0  0  0  0  0  0  0  0  0
   40.4970   22.6530   37.8530 N   0  0  0  0  0  0  0  0  0  0  0  0
   39.2260   23.0010   38.0440 C   0  0  0  0  0  0  0  0  0  0  0  0
   38.4820   23.4670   37.0250 N   0  0  0  0  0  0  0  0  0  0  0  0
   40.7940   23.3140   34.5930 H   0  0  0  0  0  0  0  0  0  0  0  0
   42.1430   22.4610   36.4850 H   0  0  0  0  0  0  0  0  0  0  0  0
   38.7790   22.9150   39.0190 H   0  0  0  0  0  0  0  0  0  0  0  0
   35.1200   29.1040   34.2950 C   0  0  1  0  0  0  0  0  0  0  0  0
   35.4980   30.5810   34.7030 C   0  0  0  0  0  0  0  0  0  0  0  0
   34.4280   30.2630   33.7230 C   0  0  2  0  0  0  0  0  0  0  0  0
   34.8280   28.5730   35.2490 H   0  0  0  0  0  0  0  0  0  0  0  0
   36.4730   30.9510   34.4110 H   0  0  0  0  0  0  0  0  0  0  0  0
   35.1410   30.9350   35.6740 H   0  0  0  0  0  0  0  0  0  0  0  0
   34.6960   30.4760   32.6560 H   0  0  0  0  0  0  0  0  0  0  0  0
   32.1960   29.3140   33.9370 C   0  0  1  0  0  3  0  0  0  0  0  0
   32.9830   30.5340   34.1280 C   0  0  1  0  0  3  0  0  0  0  0  0
   32.9910   31.1340   35.3390 O   0  0  0  0  0  0  0  0  0  0  0  0
   32.0010   30.9090   36.2240 C   0  0  0  0  0  2  0  0  0  0  0  0
   30.7470   30.2810   35.6950 C   0  0  2  0  0  3  0  0  0  0  0  0
   31.1890   29.0010   35.0060 C   0  0  2  0  0  3  0  0  0  0  0  0
   31.5050   29.3370   32.7180 O   0  0  0  0  0  0  0  0  0  0  0  0
   31.1110   28.4300   32.5850 H   0  0  0  0  0  0  0  0  0  0  0  0
   30.0950   31.1340   34.8120 O   0  0  0  0  0  0  0  0  0  0  0  0
   29.1690   31.2070   35.1360 H   0  0  0  0  0  0  0  0  0  0  0  0
   31.7930   28.2060   35.9970 O   0  0  0  0  0  0  0  0  0  0  0  0
   31.1690   28.1170   36.7670 H   0  0  0  0  0  0  0  0  0  0  0  0
  1  6  1  0  0  0  0
  1 21  1  0  0  0  0
  2  1  2  0  0  0  0
  3  4  2  0  0  0  0
  4  8  1  0  0  0  0
  5  4  1  0  0  0  0
  5  9  1  0  0  0  0
  6  5  2  0  0  0  0
  7  6  1  0  0  0  0
  7  3  1  0  0  0  0
 10  3  1  0  0  0  0
 10 12  1  0  0  0  0
 11 10  2  0  0  0  0
 12 17  1  0  0  0  0
 13 12  2  0  0  0  0
 13 14  1  0  0  0  0
 14 15  2  0  0  0  0
 15 16  1  0  0  0  0
 16 20  1  0  0  0  0
 17 16  2  0  0  0  0
 18 13  1  0  0  0  0
 19 14  1  0  0  0  0
 21 22  1  0  0  0  0
 21 24  1  1  0  0  0
 22 26  1  0  0  0  0
 23 27  1  6  0  0  0
 23 29  1  0  0  0  0
 23 21  1  0  0  0  0
 23 22  1  0  0  0  0
 25 22  1  0  0  0  0
 28 34  1  6  0  0  0
 28 29  1  0  0  0  0
 28 33  1  0  0  0  0
 29 30  1  1  0  0  0
 30 31  1  0  0  0  0
 32 36  1  6  0  0  0
 32 31  1  0  0  0  0
 33 32  1  0  0  0  0
 33 38  1  1  0  0  0
 35 34  1  0  0  0  0
 36 37  1  0  0  0  0
 38 39  1  0  0  0  0
M  END
>  <minimizedAffinity>
-5.91395473

$$$$

 OpenBabel03272507353D

 39 42  0  0  1  0  0  0  0  0999 V2000
   37.5760   27.4960   34.7620 C   0  0  0  0  0  0  0  0  0  0  0  0
   37.3110   28.6290   35.2850 O   0  0  0  0  0  0  0  0  0  0  0  0
   36.1580   26.0390   31.8200 C   0  0  0  0  0  0  0  0  0  0  0  0
   36.2450   27.3440   31.3850 C   0  0  0  0  0  0  0  0  0  0  0  0
   36.7940   28.0990   32.4340 C   0  0  0  0  0  0  0  0  0  0  0  0
   37.0080   27.1930   33.4480 C   0  0  0  0  0  0  0  0  0  0  0  0
   36.6210   26.0010   33.0450 O   0  0  0  0  0  0  0  0  0  0  0  0
   35.9550   27.7590   30.4200 H   0  0  0  0  0  0  0  0  0  0  0  0
   37.0110   29.1380   32.4740 H   0  0  0  0  0  0  0  0  0  0  0  0
   35.6290   24.9780   30.9790 C   0  0  0  0  0  0  0  0  0  0  0  0
   34.5740   25.1670   30.3560 O   0  0  0  0  0  0  0  0  0  0  0  0
   36.3800   23.7540   30.9230 C   0  0  0  0  0  0  0  0  0  0  0  0
   35.7230   22.5940   31.3050 C   0  0  0  0  0  0  0  0  0  0  0  0
   36.4280   21.3840   31.2650 C   0  0  0  0  0  0  0  0  0  0  0  0
   37.7360   21.4170   30.8490 N   0  0  0  0  0  0  0  0  0  0  0  0
   38.3360   22.5510   30.4900 C   0  0  0  0  0  0  0  0  0  0  0  0
   37.6700   23.7180   30.5230 N   0  0  0  0  0  0  0  0  0  0  0  0
   34.7060   22.5850   31.6260 H   0  0  0  0  0  0  0  0  0  0  0  0
   35.9530   20.4480   31.5550 H   0  0  0  0  0  0  0  0  0  0  0  0
   39.3630   22.5450   30.1680 H   0  0  0  0  0  0  0  0  0  0  0  0
   38.4510   26.5010   35.4630 C   0  0  1  0  0  0  0  0  0  0  0  0
   38.2650   26.6330   37.0240 C   0  0  0  0  0  0  0  0  0  0  0  0
   37.8680   25.4210   36.2630 C   0  0  2  0  0  0  0  0  0  0  0  0
   39.5530   26.6430   35.2580 H   0  0  0  0  0  0  0  0  0  0  0  0
   37.5510   27.3610   37.3880 H   0  0  0  0  0  0  0  0  0  0  0  0
   39.1590   26.5130   37.6420 H   0  0  0  0  0  0  0  0  0  0  0  0
   36.7620   25.2970   36.1300 H   0  0  0  0  0  0  0  0  0  0  0  0
   37.8690   22.9940   36.0560 C   0  0  1  0  0  3  0  0  0  0  0  0
   38.6730   24.1440   36.4780 C   0  0  1  0  0  3  0  0  0  0  0  0
   39.9000   24.3250   35.9430 O   0  0  0  0  0  0  0  0  0  0  0  0
   40.5640   23.2970   35.3820 C   0  0  0  0  0  2  0  0  0  0  0  0
   40.0670   21.9170   35.6910 C   0  0  2  0  0  3  0  0  0  0  0  0
   38.5970   21.9160   35.3070 C   0  0  2  0  0  3  0  0  0  0  0  0
   37.2400   22.3820   37.1480 O   0  0  0  0  0  0  0  0  0  0  0  0
   36.6030   21.7080   36.7810 H   0  0  0  0  0  0  0  0  0  0  0  0
   40.2400   21.6140   37.0370 O   0  0  0  0  0  0  0  0  0  0  0  0
   40.7280   20.7590   37.0640 H   0  0  0  0  0  0  0  0  0  0  0  0
   38.5480   22.1910   33.9280 O   0  0  0  0  0  0  0  0  0  0  0  0
   39.1460   21.5560   33.4490 H   0  0  0  0  0  0  0  0  0  0  0  0
  1  2  2  0  0  0  0
  1 21  1  0  0  0  0
  3  7  1  0  0  0  0
  4  3  2  0  0  0  0
  4  5  1  0  0  0  0
  5  9  1  0  0  0  0
  5  6  2  0  0  0  0
  6  1  1  0  0  0  0
  7  6  1  0  0  0  0
  8  4  1  0  0  0  0
 10  3  1  0  0  0  0
 11 10  2  0  0  0  0
 12 10  1  0  0  0  0
 12 13  1  0  0  0  0
 13 18  1  0  0  0  0
 14 13  2  0  0  0  0
 14 19  1  0  0  0  0
 15 14  1  0  0  0  0
 16 17  1  0  0  0  0
 16 15  2  0  0  0  0
 17 12  2  0  0  0  0
 20 16  1  0  0  0  0
 21 24  1  6  0  0  0
 21 23  1  0  0  0  0
 21 22  1  0  0  0  0
 22 25  1  0  0  0  0
 22 26  1  0  0  0  0
 23 27  1  6  0  0  0
 23 29  1  0  0  0  0
 23 22  1  0  0  0  0
 28 29  1  0  0  0  0
 28 34  1  1  0  0  0
 29 30  1  6  0  0  0
 31 32  1  0  0  0  0
 31 30  1  0  0  0  0
 32 36  1  1  0  0  0
 33 38  1  6  0  0  0
 33 32  1  0  0  0  0
 33 28  1  0  0  0  0
 35 34  1  0  0  0  0
 36 37  1  0  0  0  0
 39 38  1  0  0  0  0
M  END
>  <minimizedAffinity>
-5.87105083

$$$$

 OpenBabel03272507353D

 39 42  0  0  1  0  0  0  0  0999 V2000
   36.3260   25.4970   31.3250 C   0  0  0  0  0  0  0  0  0  0  0  0
   35.5460   26.3670   30.8120 O   0  0  0  0  0  0  0  0  0  0  0  0
   38.1050   26.2150   34.3430 C   0  0  0  0  0  0  0  0  0  0  0  0
   38.9520   26.8370   33.4490 C   0  0  0  0  0  0  0  0  0  0  0  0
   38.4080   26.6590   32.1660 C   0  0  0  0  0  0  0  0  0  0  0  0
   37.2550   25.9340   32.3680 C   0  0  0  0  0  0  0  0  0  0  0  0
   37.1180   25.6970   33.6550 O   0  0  0  0  0  0  0  0  0  0  0  0
   39.8760   27.3760   33.6520 H   0  0  0  0  0  0  0  0  0  0  0  0
   38.7760   26.9930   31.2270 H   0  0  0  0  0  0  0  0  0  0  0  0
   38.3650   26.2040   35.7730 C   0  0  0  0  0  0  0  0  0  0  0  0
   38.2950   27.2660   36.4100 O   0  0  0  0  0  0  0  0  0  0  0  0
   38.6930   24.9380   36.3660 C   0  0  0  0  0  0  0  0  0  0  0  0
   38.0350   24.6030   37.5410 C   0  0  0  0  0  0  0  0  0  0  0  0
   38.3350   23.3770   38.1470 C   0  0  0  0  0  0  0  0  0  0  0  0
   39.2680   22.5710   37.5400 N   0  0  0  0  0  0  0  0  0  0  0  0
   39.8800   22.9260   36.4120 C   0  0  0  0  0  0  0  0  0  0  0  0
   39.6010   24.1000   35.8200 N   0  0  0  0  0  0  0  0  0  0  0  0
   37.3130   25.2400   38.0000 H   0  0  0  0  0  0  0  0  0  0  0  0
   37.8440   23.0720   39.0690 H   0  0  0  0  0  0  0  0  0  0  0  0
   40.6070   22.2730   35.9590 H   0  0  0  0  0  0  0  0  0  0  0  0
   36.2920   24.0650   30.8840 C   0  0  1  0  0  0  0  0  0  0  0  0
   37.7390   23.6030   30.4550 C   0  0  0  0  0  0  0  0  0  0  0  0
   37.0230   23.0330   31.6250 C   0  0  2  0  0  0  0  0  0  0  0  0
   35.6200   23.8800   29.9950 H   0  0  0  0  0  0  0  0  0  0  0  0
   38.5460   24.3190   30.5500 H   0  0  0  0  0  0  0  0  0  0  0  0
   37.8110   22.9360   29.5920 H   0  0  0  0  0  0  0  0  0  0  0  0
   37.4130   23.3720   32.6190 H   0  0  0  0  0  0  0  0  0  0  0  0
   37.1020   20.8340   32.6680 C   0  0  1  0  0  3  0  0  0  0  0  0
   36.5480   21.5870   31.5390 C   0  0  1  0  0  3  0  0  0  0  0  0
   35.2120   21.5930   31.3390 O   0  0  0  0  0  0  0  0  0  0  0  0
   34.4350   20.6230   31.8580 C   0  0  0  0  0  2  0  0  0  0  0  0
   35.1250   19.3810   32.3350 C   0  0  2  0  0  3  0  0  0  0  0  0
   36.1760   19.8530   33.3270 C   0  0  2  0  0  3  0  0  0  0  0  0
   38.2520   20.1260   32.2940 O   0  0  0  0  0  0  0  0  0  0  0  0
   38.6550   19.7580   33.1300 H   0  0  0  0  0  0  0  0  0  0  0  0
   35.7010   18.6920   31.2750 O   0  0  0  0  0  0  0  0  0  0  0  0
   35.3660   17.7680   31.3350 H   0  0  0  0  0  0  0  0  0  0  0  0
   35.4790   20.4940   34.3670 O   0  0  0  0  0  0  0  0  0  0  0  0
   34.7710   19.8840   34.7080 H   0  0  0  0  0  0  0  0  0  0  0  0
  1  6  1  0  0  0  0
  2  1  2  0  0  0  0
  3 10  1  0  0  0  0
  4  8  1  0  0  0  0
  4  3  2  0  0  0  0
  5  6  2  0  0  0  0
  5  4  1  0  0  0  0
  6  7  1  0  0  0  0
  7  3  1  0  0  0  0
  9  5  1  0  0  0  0
 10 12  1  0  0  0  0
 10 11  2  0  0  0  0
 12 13  1  0  0  0  0
 13 18  1  0  0  0  0
 13 14  2  0  0  0  0
 14 19  1  0  0  0  0
 15 14  1  0  0  0  0
 16 15  2  0  0  0  0
 17 12  2  0  0  0  0
 17 16  1  0  0  0  0
 20 16  1  0  0  0  0
 21 24  1  6  0  0  0
 21  1  1  0  0  0  0
 21 23  1  0  0  0  0
 22 25  1  0  0  0  0
 22 21  1  0  0  0  0
 22 23  1  0  0  0  0
 23 27  1  1  0  0  0
 26 22  1  0  0  0  0
 28 34  1  6  0  0  0
 28 33  1  0  0  0  0
 29 30  1  1  0  0  0
 29 23  1  0  0  0  0
 29 28  1  0  0  0  0
 30 31  1  0  0  0  0
 31 32  1  0  0  0  0
 32 36  1  6  0  0  0
 32 33  1  0  0  0  0
 33 38  1  1  0  0  0
 34 35  1  0  0  0  0
 36 37  1  0  0  0  0
 38 39  1  0  0  0  0
M  END
>  <minimizedAffinity>
-5.852561

$$$$

 OpenBabel03272507353D

 39 42  0  0  1  0  0  0  0  0999 V2000
   36.7200   22.1340   31.8220 C   0  0  0  0  0  0  0  0  0  0  0  0
   36.5600   21.2530   30.9130 O   0  0  0  0  0  0  0  0  0  0  0  0
   36.4920   25.6610   31.2770 C   0  0  0  0  0  0  0  0  0  0  0  0
   35.1930   25.3180   30.9690 C   0  0  0  0  0  0  0  0  0  0  0  0
   35.0780   23.9270   31.1270 C   0  0  0  0  0  0  0  0  0  0  0  0
   36.3290   23.5120   31.5240 C   0  0  0  0  0  0  0  0  0  0  0  0
   37.1240   24.5590   31.5990 O   0  0  0  0  0  0  0  0  0  0  0  0
   34.3740   25.9670   30.6590 H   0  0  0  0  0  0  0  0  0  0  0  0
   34.2340   23.3000   30.9800 H   0  0  0  0  0  0  0  0  0  0  0  0
   36.9630   27.0350   31.2200 C   0  0  0  0  0  0  0  0  0  0  0  0
   37.7870   27.3580   30.3510 O   0  0  0  0  0  0  0  0  0  0  0  0
   36.4320   27.9470   32.1940 C   0  0  0  0  0  0  0  0  0  0  0  0
   36.7990   27.7410   33.5160 C   0  0  0  0  0  0  0  0  0  0  0  0
   36.2950   28.6120   34.4910 C   0  0  0  0  0  0  0  0  0  0  0  0
   35.4630   29.6250   34.0800 N   0  0  0  0  0  0  0  0  0  0  0  0
   35.1330   29.7920   32.8010 C   0  0  0  0  0  0  0  0  0  0  0  0
   35.6090   28.9640   31.8550 N   0  0  0  0  0  0  0  0  0  0  0  0
   37.4460   26.9500   33.8190 H   0  0  0  0  0  0  0  0  0  0  0  0
   36.5560   28.4890   35.5410 H   0  0  0  0  0  0  0  0  0  0  0  0
   34.4790   30.5960   32.5090 H   0  0  0  0  0  0  0  0  0  0  0  0
   37.2840   21.7730   33.1630 C   0  0  1  0  0  0  0  0  0  0  0  0
   38.7210   21.1470   32.9880 C   0  0  0  0  0  0  0  0  0  0  0  0
   38.4820   22.4400   33.6780 C   0  0  2  0  0  0  0  0  0  0  0  0
   36.6670   21.0100   33.7240 H   0  0  0  0  0  0  0  0  0  0  0  0
   39.1240   21.0790   31.9850 H   0  0  0  0  0  0  0  0  0  0  0  0
   38.9850   20.3170   33.6490 H   0  0  0  0  0  0  0  0  0  0  0  0
   38.7920   23.3440   33.0930 H   0  0  0  0  0  0  0  0  0  0  0  0
   39.3190   23.7840   35.5280 C   0  0  1  0  0  3  0  0  0  0  0  0
   38.7050   22.5000   35.1850 C   0  0  1  0  0  3  0  0  0  0  0  0
   37.5570   22.1320   35.7950 O   0  0  0  0  0  0  0  0  0  0  0  0
   37.1970   22.6780   36.9720 C   0  0  0  0  0  2  0  0  0  0  0  0
   38.2600   23.4100   37.7340 C   0  0  2  0  0  3  0  0  0  0  0  0
   38.8090   24.4510   36.7730 C   0  0  2  0  0  3  0  0  0  0  0  0
   40.7080   23.6650   35.6670 O   0  0  0  0  0  0  0  0  0  0  0  0
   41.0760   24.5890   35.7550 H   0  0  0  0  0  0  0  0  0  0  0  0
   39.2560   22.5400   38.1630 O   0  0  0  0  0  0  0  0  0  0  0  0
   39.3500   22.6880   39.1310 H   0  0  0  0  0  0  0  0  0  0  0  0
   37.7310   25.2930   36.4430 O   0  0  0  0  0  0  0  0  0  0  0  0
   37.3090   25.6230   37.2810 H   0  0  0  0  0  0  0  0  0  0  0  0
  1 21  1  0  0  0  0
  2  1  2  0  0  0  0
  3  7  1  0  0  0  0
  4  5  1  0  0  0  0
  4  3  2  0  0  0  0
  5  6  2  0  0  0  0
  6  7  1  0  0  0  0
  6  1  1  0  0  0  0
  8  4  1  0  0  0  0
  9  5  1  0  0  0  0
 10  3  1  0  0  0  0
 10 12  1  0  0  0  0
 11 10  2  0  0  0  0
 12 13  1  0  0  0  0
 13 18  1  0  0  0  0
 13 14  2  0  0  0  0
 14 19  1  0  0  0  0
 15 14  1  0  0  0  0
 16 15  2  0  0  0  0
 17 12  2  0  0  0  0
 17 16  1  0  0  0  0
 20 16  1  0  0  0  0
 21 23  1  0  0  0  0
 21 24  1  1  0  0  0
 22 21  1  0  0  0  0
 22 26  1  0  0  0  0
 22 23  1  0  0  0  0
 23 27  1  6  0  0  0
 23 29  1  0  0  0  0
 25 22  1  0  0  0  0
 28 34  1  1  0  0  0
 28 33  1  0  0  0  0
 29 28  1  0  0  0  0
 29 30  1  1  0  0  0
 30 31  1  0  0  0  0
 31 32  1  0  0  0  0
 32 36  1  6  0  0  0
 33 38  1  6  0  0  0
 33 32  1  0  0  0  0
 34 35  1  0  0  0  0
 36 37  1  0  0  0  0
 38 39  1  0  0  0  0
M  END
>  <minimizedAffinity>
-5.84311104

$$$$

 OpenBabel03272507353D

 39 42  0  0  1  0  0  0  0  0999 V2000
   36.0060   27.4090   31.2480 C   0  0  0  0  0  0  0  0  0  0  0  0
   36.5830   27.9030   30.2230 O   0  0  0  0  0  0  0  0  0  0  0  0
   36.5510   23.9370   31.9140 C   0  0  0  0  0  0  0  0  0  0  0  0
   35.3430   23.8370   31.2570 C   0  0  0  0  0  0  0  0  0  0  0  0
   34.9490   25.1370   30.9040 C   0  0  0  0  0  0  0  0  0  0  0  0
   35.9540   25.9520   31.3750 C   0  0  0  0  0  0  0  0  0  0  0  0
   36.8700   25.2080   31.9590 O   0  0  0  0  0  0  0  0  0  0  0  0
   34.7670   22.9400   31.0300 H   0  0  0  0  0  0  0  0  0  0  0  0
   34.0780   25.4610   30.3900 H   0  0  0  0  0  0  0  0  0  0  0  0
   37.2540   22.7710   32.4220 C   0  0  0  0  0  0  0  0  0  0  0  0
   38.2940   22.9280   33.0800 O   0  0  0  0  0  0  0  0  0  0  0  0
   36.6860   21.4860   32.1240 C   0  0  0  0  0  0  0  0  0  0  0  0
   35.9430   20.8770   33.1250 C   0  0  0  0  0  0  0  0  0  0  0  0
   35.3780   19.6220   32.8670 C   0  0  0  0  0  0  0  0  0  0  0  0
   35.5930   19.0630   31.6310 N   0  0  0  0  0  0  0  0  0  0  0  0
   36.3120   19.6770   30.6930 C   0  0  0  0  0  0  0  0  0  0  0  0
   36.8600   20.8820   30.9280 N   0  0  0  0  0  0  0  0  0  0  0  0
   35.7850   21.3250   34.0800 H   0  0  0  0  0  0  0  0  0  0  0  0
   34.7870   19.1070   33.6220 H   0  0  0  0  0  0  0  0  0  0  0  0
   36.4630   19.2130   29.7330 H   0  0  0  0  0  0  0  0  0  0  0  0
   35.4020   28.2880   32.3020 C   0  0  1  0  0  0  0  0  0  0  0  0
   36.3800   28.3920   33.5360 C   0  0  0  0  0  0  0  0  0  0  0  0
   36.0370   29.5540   32.6770 C   0  0  2  0  0  0  0  0  0  0  0  0
   34.4190   27.9040   32.7040 H   0  0  0  0  0  0  0  0  0  0  0  0
   37.3280   27.8730   33.4740 H   0  0  0  0  0  0  0  0  0  0  0  0
   35.9250   28.4060   34.5300 H   0  0  0  0  0  0  0  0  0  0  0  0
   36.8560   29.8800   31.9860 H   0  0  0  0  0  0  0  0  0  0  0  0
   34.7920   30.2800   34.6410 C   0  0  1  0  0  3  0  0  0  0  0  0
   35.1770   30.6610   33.2790 C   0  0  1  0  0  3  0  0  0  0  0  0
   35.8040   31.8400   33.0740 O   0  0  0  0  0  0  0  0  0  0  0  0
   35.7090   32.8350   33.9750 C   0  0  0  0  0  2  0  0  0  0  0  0
   34.6190   32.7230   34.9990 C   0  0  2  0  0  3  0  0  0  0  0  0
   34.8240   31.3750   35.6680 C   0  0  2  0  0  3  0  0  0  0  0  0
   33.5060   29.7260   34.6720 O   0  0  0  0  0  0  0  0  0  0  0  0
   33.3650   29.3600   35.5890 H   0  0  0  0  0  0  0  0  0  0  0  0
   33.3660   32.8100   34.4050 O   0  0  0  0  0  0  0  0  0  0  0  0
   32.8820   33.5160   34.8910 H   0  0  0  0  0  0  0  0  0  0  0  0
   36.0980   31.4180   36.2650 O   0  0  0  0  0  0  0  0  0  0  0  0
   36.1590   32.2270   36.8400 H   0  0  0  0  0  0  0  0  0  0  0  0
  1  6  1  0  0  0  0
  1 21  1  0  0  0  0
  2  1  2  0  0  0  0
  3  7  1  0  0  0  0
  3 10  1  0  0  0  0
  4  3  2  0  0  0  0
  5  4  1  0  0  0  0
  5  6  2  0  0  0  0
  6  7  1  0  0  0  0
  8  4  1  0  0  0  0
  9  5  1  0  0  0  0
 10 11  2  0  0  0  0
 12 10  1  0  0  0  0
 12 13  1  0  0  0  0
 13 18  1  0  0  0  0
 14 13  2  0  0  0  0
 14 19  1  0  0  0  0
 15 14  1  0  0  0  0
 16 17  1  0  0  0  0
 16 15  2  0  0  0  0
 17 12  2  0  0  0  0
 20 16  1  0  0  0  0
 21 23  1  0  0  0  0
 21 24  1  1  0  0  0
 21 22  1  0  0  0  0
 22 26  1  0  0  0  0
 23 27  1  6  0  0  0
 23 29  1  0  0  0  0
 23 22  1  0  0  0  0
 25 22  1  0  0  0  0
 28 34  1  6  0  0  0
 28 33  1  0  0  0  0
 29 30  1  1  0  0  0
 29 28  1  0  0  0  0
 30 31  1  0  0  0  0
 31 32  1  0  0  0  0
 32 36  1  6  0  0  0
 32 33  1  0  0  0  0
 33 38  1  6  0  0  0
 34 35  1  0  0  0  0
 36 37  1  0  0  0  0
 38 39  1  0  0  0  0
M  END
>  <minimizedAffinity>
-5.77103281

$$$$

 OpenBabel03272507353D

 39 42  0  0  1  0  0  0  0  0999 V2000
   40.7900   26.6900   34.0140 C   0  0  0  0  0  0  0  0  0  0  0  0
   41.9670   26.9200   34.4520 O   0  0  0  0  0  0  0  0  0  0  0  0
   38.8450   24.4720   36.0360 C   0  0  0  0  0  0  0  0  0  0  0  0
   38.1700   25.6450   36.3030 C   0  0  0  0  0  0  0  0  0  0  0  0
   38.8040   26.6670   35.5780 C   0  0  0  0  0  0  0  0  0  0  0  0
   39.8340   26.0420   34.9120 C   0  0  0  0  0  0  0  0  0  0  0  0
   39.8200   24.7600   35.2100 O   0  0  0  0  0  0  0  0  0  0  0  0
   37.3030   25.7980   36.9460 H   0  0  0  0  0  0  0  0  0  0  0  0
   38.5710   27.7020   35.5310 H   0  0  0  0  0  0  0  0  0  0  0  0
   38.4530   23.2030   36.6260 C   0  0  0  0  0  0  0  0  0  0  0  0
   38.8870   22.8950   37.7460 O   0  0  0  0  0  0  0  0  0  0  0  0
   37.5680   22.3730   35.8570 C   0  0  0  0  0  0  0  0  0  0  0  0
   36.5500   21.7300   36.5460 C   0  0  0  0  0  0  0  0  0  0  0  0
   35.6720   20.9100   35.8250 C   0  0  0  0  0  0  0  0  0  0  0  0
   35.8710   20.7890   34.4710 N   0  0  0  0  0  0  0  0  0  0  0  0
   36.8600   21.4220   33.8430 C   0  0  0  0  0  0  0  0  0  0  0  0
   37.7090   22.2120   34.5230 N   0  0  0  0  0  0  0  0  0  0  0  0
   36.4090   21.8340   37.5970 H   0  0  0  0  0  0  0  0  0  0  0  0
   34.8580   20.3860   36.3230 H   0  0  0  0  0  0  0  0  0  0  0  0
   36.9910   21.3080   32.7810 H   0  0  0  0  0  0  0  0  0  0  0  0
   40.3890   27.0760   32.6220 C   0  0  1  0  0  0  0  0  0  0  0  0
   40.8070   25.9390   31.6110 C   0  0  0  0  0  0  0  0  0  0  0  0
   39.3910   26.2970   31.8850 C   0  0  2  0  0  0  0  0  0  0  0  0
   40.8790   28.0270   32.2560 H   0  0  0  0  0  0  0  0  0  0  0  0
   41.2790   25.0530   32.0150 H   0  0  0  0  0  0  0  0  0  0  0  0
   41.1790   26.2570   30.6330 H   0  0  0  0  0  0  0  0  0  0  0  0
   38.8360   25.5520   32.5110 H   0  0  0  0  0  0  0  0  0  0  0  0
   37.1830   27.0220   31.1570 C   0  0  1  0  0  3  0  0  0  0  0  0
   38.5960   26.9760   30.7750 C   0  0  1  0  0  3  0  0  0  0  0  0
   39.2300   28.1230   30.4450 O   0  0  0  0  0  0  0  0  0  0  0  0
   38.5320   29.2060   30.0520 C   0  0  0  0  0  2  0  0  0  0  0  0
   37.1040   28.9850   29.6520 C   0  0  2  0  0  3  0  0  0  0  0  0
   36.4510   28.2920   30.8360 C   0  0  2  0  0  3  0  0  0  0  0  0
   36.4620   25.9730   30.5720 O   0  0  0  0  0  0  0  0  0  0  0  0
   35.5520   25.9760   30.9820 H   0  0  0  0  0  0  0  0  0  0  0  0
   37.0220   28.2100   28.5020 O   0  0  0  0  0  0  0  0  0  0  0  0
   36.4580   28.7150   27.8720 H   0  0  0  0  0  0  0  0  0  0  0  0
   36.5570   29.1800   31.9230 O   0  0  0  0  0  0  0  0  0  0  0  0
   36.1930   30.0660   31.6540 H   0  0  0  0  0  0  0  0  0  0  0  0
  1  2  2  0  0  0  0
  1  6  1  0  0  0  0
  3  4  2  0  0  0  0
  3 10  1  0  0  0  0
  4  8  1  0  0  0  0
  5  4  1  0  0  0  0
  6  7  1  0  0  0  0
  6  5  2  0  0  0  0
  7  3  1  0  0  0  0
  9  5  1  0  0  0  0
 10 11  2  0  0  0  0
 12 13  1  0  0  0  0
 12 10  1  0  0  0  0
 13 18  1  0  0  0  0
 14 19  1  0  0  0  0
 14 13  2  0  0  0  0
 15 14  1  0  0  0  0
 16 15  2  0  0  0  0
 16 17  1  0  0  0  0
 17 12  2  0  0  0  0
 20 16  1  0  0  0  0
 21 24  1  6  0  0  0
 21  1  1  0  0  0  0
 22 23  1  0  0  0  0
 22 25  1  0  0  0  0
 22 21  1  0  0  0  0
 23 27  1  1  0  0  0
 23 21  1  0  0  0  0
 26 22  1  0  0  0  0
 28 34  1  6  0  0  0
 29 30  1  1  0  0  0
 29 28  1  0  0  0  0
 29 23  1  0  0  0  0
 31 30  1  0  0  0  0
 32 36  1  6  0  0  0
 32 31  1  0  0  0  0
 32 33  1  0  0  0  0
 33 28  1  0  0  0  0
 33 38  1  1  0  0  0
 34 35  1  0  0  0  0
 37 36  1  0  0  0  0
 39 38  1  0  0  0  0
M  END
>  <minimizedAffinity>
-5.76884937

$$$$

 OpenBabel03272507353D

 39 42  0  0  1  0  0  0  0  0999 V2000
   37.1500   26.2560   31.9420 C   0  0  0  0  0  0  0  0  0  0  0  0
   38.0230   26.5160   31.0490 O   0  0  0  0  0  0  0  0  0  0  0  0
   35.9550   29.2360   33.5190 C   0  0  0  0  0  0  0  0  0  0  0  0
   36.3790   28.5590   34.6440 C   0  0  0  0  0  0  0  0  0  0  0  0
   36.8960   27.3250   34.2200 C   0  0  0  0  0  0  0  0  0  0  0  0
   36.7510   27.3320   32.8510 C   0  0  0  0  0  0  0  0  0  0  0  0
   36.1970   28.4680   32.4850 O   0  0  0  0  0  0  0  0  0  0  0  0
   36.3410   28.8810   35.6840 H   0  0  0  0  0  0  0  0  0  0  0  0
   37.3120   26.5350   34.7960 H   0  0  0  0  0  0  0  0  0  0  0  0
   35.3620   30.5600   33.5920 C   0  0  0  0  0  0  0  0  0  0  0  0
   35.4150   31.3040   32.6000 O   0  0  0  0  0  0  0  0  0  0  0  0
   34.7400   30.9290   34.8330 C   0  0  0  0  0  0  0  0  0  0  0  0
   35.4760   31.7320   35.6930 C   0  0  0  0  0  0  0  0  0  0  0  0
   34.8990   32.1070   36.9130 C   0  0  0  0  0  0  0  0  0  0  0  0
   33.6320   31.6560   37.1900 N   0  0  0  0  0  0  0  0  0  0  0  0
   32.9540   30.8850   36.3400 C   0  0  0  0  0  0  0  0  0  0  0  0
   33.4960   30.5190   35.1650 N   0  0  0  0  0  0  0  0  0  0  0  0
   36.4600   32.0730   35.4630 H   0  0  0  0  0  0  0  0  0  0  0  0
   35.4390   32.7350   37.6180 H   0  0  0  0  0  0  0  0  0  0  0  0
   31.9620   30.5480   36.5840 H   0  0  0  0  0  0  0  0  0  0  0  0
   36.5390   24.8920   32.0590 C   0  0  1  0  0  0  0  0  0  0  0  0
   35.2260   24.8180   31.1880 C   0  0  0  0  0  0  0  0  0  0  0  0
   36.4380   24.0110   30.8930 C   0  0  2  0  0  0  0  0  0  0  0  0
   36.2400   24.6190   33.1140 H   0  0  0  0  0  0  0  0  0  0  0  0
   34.9480   25.6950   30.6170 H   0  0  0  0  0  0  0  0  0  0  0  0
   34.3870   24.2510   31.6010 H   0  0  0  0  0  0  0  0  0  0  0  0
   37.0230   24.3590   30.0030 H   0  0  0  0  0  0  0  0  0  0  0  0
   37.6930   22.0100   31.4840 C   0  0  1  0  0  3  0  0  0  0  0  0
   36.3650   22.5040   31.1100 C   0  0  1  0  0  3  0  0  0  0  0  0
   35.3120   22.2450   31.9160 O   0  0  0  0  0  0  0  0  0  0  0  0
   35.3520   21.2240   32.7930 C   0  0  0  0  0  2  0  0  0  0  0  0
   36.4240   20.1960   32.5910 C   0  0  2  0  0  3  0  0  0  0  0  0
   37.7320   20.9680   32.5650 C   0  0  2  0  0  3  0  0  0  0  0  0
   38.3700   21.4790   30.3780 O   0  0  0  0  0  0  0  0  0  0  0  0
   39.3080   21.2970   30.6670 H   0  0  0  0  0  0  0  0  0  0  0  0
   36.2250   19.4940   31.4080 O   0  0  0  0  0  0  0  0  0  0  0  0
   36.2380   18.5400   31.6500 H   0  0  0  0  0  0  0  0  0  0  0  0
   37.8450   21.5990   33.8170 O   0  0  0  0  0  0  0  0  0  0  0  0
   37.7300   20.9190   34.5340 H   0  0  0  0  0  0  0  0  0  0  0  0
  1 21  1  0  0  0  0
  1  6  1  0  0  0  0
  2  1  2  0  0  0  0
  3 10  1  0  0  0  0
  3  4  2  0  0  0  0
  4  8  1  0  0  0  0
  5  4  1  0  0  0  0
  5  9  1  0  0  0  0
  6  5  2  0  0  0  0
  7  6  1  0  0  0  0
  7  3  1  0  0  0  0
 10 12  1  0  0  0  0
 11 10  2  0  0  0  0
 12 17  2  0  0  0  0
 12 13  1  0  0  0  0
 13 14  2  0  0  0  0
 14 15  1  0  0  0  0
 14 19  1  0  0  0  0
 16 20  1  0  0  0  0
 16 15  2  0  0  0  0
 17 16  1  0  0  0  0
 18 13  1  0  0  0  0
 21 24  1  1  0  0  0
 22 26  1  0  0  0  0
 22 21  1  0  0  0  0
 23 27  1  6  0  0  0
 23 29  1  0  0  0  0
 23 22  1  0  0  0  0
 23 21  1  0  0  0  0
 25 22  1  0  0  0  0
 28 34  1  6  0  0  0
 28 33  1  0  0  0  0
 29 28  1  0  0  0  0
 29 30  1  1  0  0  0
 30 31  1  0  0  0  0
 32 36  1  6  0  0  0
 32 31  1  0  0  0  0
 33 32  1  0  0  0  0
 33 38  1  1  0  0  0
 34 35  1  0  0  0  0
 36 37  1  0  0  0  0
 38 39  1  0  0  0  0
M  END
>  <minimizedAffinity>
-5.73873425

$$$$
