
 OpenBabel03272505313D

 43 46  0  0  1  0  0  0  0  0999 V2000
   37.3600   31.1600   47.2030 N   0  0  0  0  0  0  0  0  0  0  0  0
   36.6670   30.9360   46.0550 C   0  0  0  0  0  0  0  0  0  0  0  0
   37.0640   31.4550   44.8370 C   0  0  0  0  0  0  0  0  0  0  0  0
   38.2340   32.2410   44.8140 C   0  0  0  0  0  0  0  0  0  0  0  0
   38.6390   32.7360   43.7360 O   0  0  0  0  0  0  0  0  0  0  0  0
   38.9290   32.4610   45.9810 N   0  0  0  0  0  0  0  0  0  0  0  0
   38.4460   31.9090   47.0820 C   0  0  0  0  0  0  0  0  0  0  0  0
   39.1070   32.1320   48.1230 O   0  0  0  0  0  0  0  0  0  0  0  0
   35.7560   30.3270   46.0670 H   0  0  0  0  0  0  0  0  0  0  0  0
   37.4150   29.4970   50.5260 C   0  0  0  0  0  0  0  0  0  0  0  0
   37.8500   30.0350   49.2990 C   0  0  0  0  0  0  0  0  0  0  0  0
   36.9370   30.6230   48.4220 C   0  0  0  0  0  0  0  0  0  0  0  0
   35.6380   30.6560   48.7880 N   0  0  0  0  0  0  0  0  0  0  0  0
   35.2030   30.1390   49.9720 C   0  0  0  0  0  0  0  0  0  0  0  0
   36.0960   29.5670   50.8250 N   0  0  0  0  0  0  0  0  0  0  0  0
   38.1410   29.0550   51.1740 H   0  0  0  0  0  0  0  0  0  0  0  0
   38.8730   30.0280   48.9730 H   0  0  0  0  0  0  0  0  0  0  0  0
   34.1870   30.1530   50.2810 H   0  0  0  0  0  0  0  0  0  0  0  0
   36.3630   31.2490   43.5840 C   0  0  0  0  0  0  0  0  0  0  0  0
   36.4880   30.1130   42.8320 C   0  0  0  0  0  0  0  0  0  0  0  0
   35.8470   29.8720   41.6420 C   0  0  0  0  0  0  0  0  0  0  0  0
   34.9880   30.8680   41.1440 C   0  0  0  0  0  0  0  0  0  0  0  0
   34.8870   32.0100   41.9360 C   0  0  0  0  0  0  0  0  0  0  0  0
   35.5440   32.1750   43.0870 N   0  0  0  0  0  0  0  0  0  0  0  0
   37.1420   29.3150   43.1810 H   0  0  0  0  0  0  0  0  0  0  0  0
   35.9470   28.9740   41.0520 H   0  0  0  0  0  0  0  0  0  0  0  0
   34.4270   30.8070   40.2280 H   0  0  0  0  0  0  0  0  0  0  0  0
   32.8100   33.2210   42.4660 C   0  0  2  0  0  3  0  0  0  0  0  0
   34.0150   33.1650   41.5490 C   0  0  1  0  0  3  0  0  0  0  0  0
   34.7620   34.3390   41.5720 O   0  0  0  0  0  0  0  0  0  0  0  0
   34.0400   35.4000   41.0930 C   0  0  0  0  0  2  0  0  0  0  0  0
   32.6380   35.5080   41.6680 C   0  0  2  0  0  3  0  0  0  0  0  0
   32.6120   34.6570   42.9180 C   0  0  1  0  0  3  0  0  0  0  0  0
   32.9550   32.3670   43.5650 O   0  0  0  0  0  0  0  0  0  0  0  0
   32.4020   31.5450   43.3700 H   0  0  0  0  0  0  0  0  0  0  0  0
   31.7790   34.8740   40.7450 O   0  0  0  0  0  0  0  0  0  0  0  0
   31.9100   35.2930   39.8400 H   0  0  0  0  0  0  0  0  0  0  0  0
   31.3900   34.7280   43.5840 O   0  0  0  0  0  0  0  0  0  0  0  0
   31.5470   35.1080   44.4920 H   0  0  0  0  0  0  0  0  0  0  0  0
   40.1260   33.2650   45.9510 C   0  0  0  0  0  0  0  0  0  0  0  0
   40.0510   34.2190   44.9950 F   0  0  0  0  0  0  0  0  0  0  0  0
   41.2810   32.5300   45.6810 F   0  0  0  0  0  0  0  0  0  0  0  0
   40.2650   33.9050   47.1870 F   0  0  0  0  0  0  0  0  0  0  0  0
  1 12  1  0  0  0  0
  2  9  1  0  0  0  0
  2  1  1  0  0  0  0
  3  2  2  0  0  0  0
  4  3  1  0  0  0  0
  4  6  1  0  0  0  0
  5  4  2  0  0  0  0
  6  7  1  0  0  0  0
  7  1  1  0  0  0  0
  7  8  2  0  0  0  0
 10 15  1  0  0  0  0
 10 16  1  0  0  0  0
 11 10  2  0  0  0  0
 12 13  2  0  0  0  0
 12 11  1  0  0  0  0
 13 14  1  0  0  0  0
 14 18  1  0  0  0  0
 14 15  2  0  0  0  0
 17 11  1  0  0  0  0
 19  3  1  0  0  0  0
 20 25  1  0  0  0  0
 20 19  2  0  0  0  0
 21 20  1  0  0  0  0
 22 21  2  0  0  0  0
 22 23  1  0  0  0  0
 23 24  2  0  0  0  0
 24 19  1  0  0  0  0
 26 21  1  0  0  0  0
 27 22  1  0  0  0  0
 28 33  1  0  0  0  0
 28 34  1  1  0  0  0
 29 30  1  0  0  0  0
 29 23  1  1  0  0  0
 29 28  1  0  0  0  0
 31 30  1  0  0  0  0
 31 32  1  0  0  0  0
 32 36  1  6  0  0  0
 32 33  1  0  0  0  0
 33 38  1  6  0  0  0
 35 34  1  0  0  0  0
 37 36  1  0  0  0  0
 38 39  1  0  0  0  0
 40  6  1  0  0  0  0
 40 43  1  0  0  0  0
 41 40  1  0  0  0  0
 42 40  1  0  0  0  0
M  END
>  <minimizedAffinity>
-7.20545244

>  <minimizedRMSD>
0.618700564

$$$$
