
 OpenBabel03272509083D

 43 46  0  0  1  0  0  0  0  0999 V2000
   33.4920   26.9300   47.0480 C   0  0  0  0  0  0  0  0  0  0  0  0
   33.9360   25.6510   47.3720 C   0  0  0  0  0  0  0  0  0  0  0  0
   34.3090   24.7550   46.3930 C   0  0  0  0  0  0  0  0  0  0  0  0
   34.2550   25.0890   45.0550 C   0  0  0  0  0  0  0  0  0  0  0  0
   33.8240   26.3310   44.7340 C   0  0  0  0  0  0  0  0  0  0  0  0
   33.4430   27.2560   45.6900 C   0  0  0  0  0  0  0  0  0  0  0  0
   33.9500   25.4670   48.4370 H   0  0  0  0  0  0  0  0  0  0  0  0
   34.6350   23.7990   46.7750 H   0  0  0  0  0  0  0  0  0  0  0  0
   34.5550   24.3600   44.3210 H   0  0  0  0  0  0  0  0  0  0  0  0
   33.7920   26.5670   43.6680 H   0  0  0  0  0  0  0  0  0  0  0  0
   34.0980   29.4550   44.6970 C   0  0  1  0  0  3  0  0  0  0  0  0
   32.9890   28.5810   45.1940 C   0  0  2  0  0  3  0  0  0  0  0  0
   32.3720   29.2740   46.2480 O   0  0  0  0  0  0  0  0  0  0  0  0
   31.6940   30.3860   45.7580 C   0  0  0  0  0  2  0  0  0  0  0  0
   32.6610   31.3640   45.1570 C   0  0  1  0  0  3  0  0  0  0  0  0
   33.4290   30.6660   44.0580 C   0  0  2  0  0  3  0  0  0  0  0  0
   34.8900   29.9100   45.7480 O   0  0  0  0  0  0  0  0  0  0  0  0
   34.4190   30.0550   46.5870 H   0  0  0  0  0  0  0  0  0  0  0  0
   32.0010   32.4970   44.7320 O   0  0  0  0  0  0  0  0  0  0  0  0
   32.3710   32.9360   43.9350 H   0  0  0  0  0  0  0  0  0  0  0  0
   32.5850   30.1920   43.0620 O   0  0  0  0  0  0  0  0  0  0  0  0
   32.4600   30.8380   42.3200 H   0  0  0  0  0  0  0  0  0  0  0  0
   33.0780   27.9400   48.0470 C   0  0  0  0  0  0  0  0  0  0  0  0
   32.2820   28.6170   47.7020 H   0  0  0  0  0  0  0  0  0  0  0  0
   32.5970   27.3460   48.8790 H   0  0  0  0  0  0  0  0  0  0  0  0
   35.0210   28.2960   49.5660 C   0  0  0  0  0  3  0  0  0  0  0  0
   34.2070   28.6940   48.6210 C   0  0  0  0  0  3  0  0  0  0  0  0
   37.4070   30.1690   51.6050 C   0  0  0  0  0  0  0  0  0  0  0  0
   38.0800   30.9250   50.6230 C   0  0  0  0  0  0  0  0  0  0  0  0
   37.6980   30.7730   49.2830 C   0  0  0  0  0  0  0  0  0  0  0  0
   36.6820   29.8910   48.9900 N   0  0  0  0  0  0  0  0  0  0  0  0
   36.0780   29.1940   49.9940 C   0  0  0  0  0  0  0  0  0  0  0  0
   36.4330   29.3320   51.2640 N   0  0  0  0  0  0  0  0  0  0  0  0
   37.6930   30.2790   52.6290 H   0  0  0  0  0  0  0  0  0  0  0  0
   38.8760   31.6150   50.8530 H   0  0  0  0  0  0  0  0  0  0  0  0
   38.3270   31.5060   48.1840 C   0  0  0  0  0  0  0  0  0  0  0  0
   38.4960   30.9690   46.9320 C   0  0  0  0  0  0  0  0  0  0  0  0
   39.1220   31.9300   46.1420 C   0  0  0  0  0  0  0  0  0  0  0  0
   39.3090   33.0090   46.9450 N   0  0  0  0  0  0  0  0  0  0  0  0
   38.8330   32.7490   48.1560 N   0  0  0  0  0  0  0  0  0  0  0  0
   38.2130   29.9970   46.5870 H   0  0  0  0  0  0  0  0  0  0  0  0
   39.4180   31.8740   45.1020 H   0  0  0  0  0  0  0  0  0  0  0  0
   39.7520   33.9430   46.7160 H   0  0  0  0  0  0  0  0  0  0  0  0
  1  2  1  0  0  0  0
  1 23  1  0  0  0  0
  2  7  1  0  0  0  0
  3  8  1  0  0  0  0
  3  2  2  0  0  0  0
  4  3  1  0  0  0  0
  5  4  2  0  0  0  0
  5  6  1  0  0  0  0
  6  1  2  0  0  0  0
  9  4  1  0  0  0  0
 10  5  1  0  0  0  0
 11 12  1  0  0  0  0
 11 17  1  1  0  0  0
 12  6  1  1  0  0  0
 12 13  1  0  0  0  0
 14 13  1  0  0  0  0
 15 19  1  6  0  0  0
 15 14  1  0  0  0  0
 16 21  1  6  0  0  0
 16 11  1  0  0  0  0
 16 15  1  0  0  0  0
 17 18  1  0  0  0  0
 20 19  1  0  0  0  0
 22 21  1  0  0  0  0
 23 27  1  0  0  0  0
 23 25  1  0  0  0  0
 24 23  1  0  0  0  0
 26 32  1  0  0  0  0
 27 26  2  0  0  0  0
 28 34  1  0  0  0  0
 29 35  1  0  0  0  0
 29 28  2  0  0  0  0
 30 29  1  0  0  0  0
 31 30  2  0  0  0  0
 31 32  1  0  0  0  0
 32 33  2  0  0  0  0
 33 28  1  0  0  0  0
 36 30  1  0  0  0  0
 37 36  1  0  0  0  0
 38 37  2  0  0  0  0
 38 39  1  0  0  0  0
 39 40  1  0  0  0  0
 40 36  2  0  0  0  0
 41 37  1  0  0  0  0
 42 38  1  0  0  0  0
 43 39  1  0  0  0  0
M  END
>  <minimizedAffinity>
-6.65243292

>  <minimizedRMSD>
0.638402224

$$$$
