
 OpenBabel03272505313D

 43 46  0  0  1  0  0  0  0  0999 V2000
   37.3720   31.2220   47.0500 N   0  0  0  0  0  0  0  0  0  0  0  0
   36.6680   31.0150   45.9060 C   0  0  0  0  0  0  0  0  0  0  0  0
   37.0640   31.5340   44.6880 C   0  0  0  0  0  0  0  0  0  0  0  0
   38.2450   32.3040   44.6610 C   0  0  0  0  0  0  0  0  0  0  0  0
   38.6490   32.7990   43.5830 O   0  0  0  0  0  0  0  0  0  0  0  0
   38.9510   32.5080   45.8250 N   0  0  0  0  0  0  0  0  0  0  0  0
   38.4680   31.9580   46.9260 C   0  0  0  0  0  0  0  0  0  0  0  0
   39.1380   32.1660   47.9640 O   0  0  0  0  0  0  0  0  0  0  0  0
   35.7490   30.4170   45.9220 H   0  0  0  0  0  0  0  0  0  0  0  0
   37.4300   29.5690   50.3780 C   0  0  0  0  0  0  0  0  0  0  0  0
   37.8650   30.1080   49.1510 C   0  0  0  0  0  0  0  0  0  0  0  0
   36.9500   30.6850   48.2700 C   0  0  0  0  0  0  0  0  0  0  0  0
   35.6490   30.7080   48.6320 N   0  0  0  0  0  0  0  0  0  0  0  0
   35.2150   30.1900   49.8160 C   0  0  0  0  0  0  0  0  0  0  0  0
   36.1110   29.6280   50.6730 N   0  0  0  0  0  0  0  0  0  0  0  0
   38.1580   29.1350   51.0300 H   0  0  0  0  0  0  0  0  0  0  0  0
   38.8880   30.1090   48.8290 H   0  0  0  0  0  0  0  0  0  0  0  0
   34.1970   30.1960   50.1210 H   0  0  0  0  0  0  0  0  0  0  0  0
   36.3510   31.3440   43.4390 C   0  0  0  0  0  0  0  0  0  0  0  0
   36.4120   30.1890   42.7090 C   0  0  0  0  0  0  0  0  0  0  0  0
   35.7580   29.9620   41.5230 C   0  0  0  0  0  0  0  0  0  0  0  0
   34.9560   30.9960   41.0060 C   0  0  0  0  0  0  0  0  0  0  0  0
   34.9190   32.1560   41.7760 C   0  0  0  0  0  0  0  0  0  0  0  0
   35.5860   32.3050   42.9250 N   0  0  0  0  0  0  0  0  0  0  0  0
   37.0210   29.3630   43.0730 H   0  0  0  0  0  0  0  0  0  0  0  0
   35.8070   29.0490   40.9500 H   0  0  0  0  0  0  0  0  0  0  0  0
   34.3920   30.9480   40.0910 H   0  0  0  0  0  0  0  0  0  0  0  0
   32.8000   33.3600   42.1220 C   0  0  2  0  0  3  0  0  0  0  0  0
   34.1130   33.3510   41.3670 C   0  0  1  0  0  3  0  0  0  0  0  0
   34.8610   34.5070   41.5730 O   0  0  0  0  0  0  0  0  0  0  0  0
   34.2140   35.6110   41.0850 C   0  0  0  0  0  2  0  0  0  0  0  0
   32.7500   35.7010   41.4810 C   0  0  2  0  0  3  0  0  0  0  0  0
   32.5560   34.7630   42.6510 C   0  0  1  0  0  3  0  0  0  0  0  0
   32.7950   32.4260   43.1640 O   0  0  0  0  0  0  0  0  0  0  0  0
   32.2650   31.6300   42.8380 H   0  0  0  0  0  0  0  0  0  0  0  0
   32.0140   35.1500   40.4110 O   0  0  0  0  0  0  0  0  0  0  0  0
   32.2640   35.6320   39.5640 H   0  0  0  0  0  0  0  0  0  0  0  0
   31.2580   34.8060   43.1560 O   0  0  0  0  0  0  0  0  0  0  0  0
   31.2990   35.1160   44.1020 H   0  0  0  0  0  0  0  0  0  0  0  0
   40.1580   33.2960   45.7910 C   0  0  0  0  0  0  0  0  0  0  0  0
   40.1070   34.2280   44.8120 F   0  0  0  0  0  0  0  0  0  0  0  0
   41.3070   32.5390   45.5520 F   0  0  0  0  0  0  0  0  0  0  0  0
   40.2910   33.9630   47.0140 F   0  0  0  0  0  0  0  0  0  0  0  0
  1 12  1  0  0  0  0
  2  9  1  0  0  0  0
  2  1  1  0  0  0  0
  3  2  2  0  0  0  0
  4  3  1  0  0  0  0
  4  6  1  0  0  0  0
  5  4  2  0  0  0  0
  6  7  1  0  0  0  0
  7  1  1  0  0  0  0
  7  8  2  0  0  0  0
 10 15  1  0  0  0  0
 10 16  1  0  0  0  0
 11 10  2  0  0  0  0
 12 13  2  0  0  0  0
 12 11  1  0  0  0  0
 13 14  1  0  0  0  0
 14 18  1  0  0  0  0
 14 15  2  0  0  0  0
 17 11  1  0  0  0  0
 19  3  1  0  0  0  0
 20 25  1  0  0  0  0
 20 19  2  0  0  0  0
 21 20  1  0  0  0  0
 22 21  2  0  0  0  0
 22 23  1  0  0  0  0
 23 24  2  0  0  0  0
 24 19  1  0  0  0  0
 26 21  1  0  0  0  0
 27 22  1  0  0  0  0
 28 33  1  0  0  0  0
 28 34  1  1  0  0  0
 29 30  1  0  0  0  0
 29 23  1  1  0  0  0
 29 28  1  0  0  0  0
 31 32  1  0  0  0  0
 31 30  1  0  0  0  0
 32 36  1  6  0  0  0
 32 33  1  0  0  0  0
 33 38  1  6  0  0  0
 35 34  1  0  0  0  0
 37 36  1  0  0  0  0
 38 39  1  0  0  0  0
 40  6  1  0  0  0  0
 40 43  1  0  0  0  0
 41 40  1  0  0  0  0
 42 40  1  0  0  0  0
M  END
>  <minimizedAffinity>
-7.14668608

>  <minimizedRMSD>
1.53912544

$$$$
