
 OpenBabel03272509053D

 36 38  0  0  1  0  0  0  0  0999 V2000
   37.5740   30.3160   51.2360 C   0  0  0  0  0  0  0  0  0  0  0  0
   38.0130   31.0780   50.1120 C   0  0  0  0  0  0  0  0  0  0  0  0
   37.3600   30.8870   48.8760 C   0  0  0  0  0  0  0  0  0  0  0  0
   36.3420   29.9810   48.8250 N   0  0  0  0  0  0  0  0  0  0  0  0
   35.9720   29.2880   49.9200 C   0  0  0  0  0  0  0  0  0  0  0  0
   36.5680   29.4430   51.1150 N   0  0  0  0  0  0  0  0  0  0  0  0
   38.1250   30.5210   52.1420 H   0  0  0  0  0  0  0  0  0  0  0  0
   38.8250   31.7970   50.1660 H   0  0  0  0  0  0  0  0  0  0  0  0
   37.9310   30.6990   46.5430 C   0  0  2  0  0  3  0  0  0  0  0  0
   37.7830   31.6600   47.6790 C   0  0  2  0  0  3  0  0  0  0  0  0
   38.9710   32.2910   48.0210 O   0  0  0  0  0  0  0  0  0  0  0  0
   39.6680   32.8380   46.9850 C   0  0  0  0  0  2  0  0  0  0  0  0
   39.0440   32.6740   45.6300 C   0  0  2  0  0  3  0  0  0  0  0  0
   38.8370   31.1820   45.4350 C   0  0  2  0  0  3  0  0  0  0  0  0
   36.6710   30.4680   45.9890 O   0  0  0  0  0  0  0  0  0  0  0  0
   36.4640   29.5130   46.0470 H   0  0  0  0  0  0  0  0  0  0  0  0
   39.9790   33.1210   44.6890 O   0  0  0  0  0  0  0  0  0  0  0  0
   40.8330   32.6540   44.8230 H   0  0  0  0  0  0  0  0  0  0  0  0
   38.3640   30.9090   44.1710 O   0  0  0  0  0  0  0  0  0  0  0  0
   37.4730   31.2930   44.0260 H   0  0  0  0  0  0  0  0  0  0  0  0
   34.8800   28.3450   49.7300 C   0  0  0  0  0  3  0  0  0  0  0  0
   34.3570   28.2380   48.5530 C   0  0  0  0  0  3  0  0  0  0  0  0
   33.2660   27.3550   48.1080 C   0  0  0  0  0  0  0  0  0  0  0  0
   32.9400   26.7520   49.0030 H   0  0  0  0  0  0  0  0  0  0  0  0
   32.3650   27.9050   47.7820 H   0  0  0  0  0  0  0  0  0  0  0  0
   33.6890   26.3420   47.0940 C   0  0  0  0  0  0  0  0  0  0  0  0
   33.9350   25.0090   47.3370 C   0  0  0  0  0  0  0  0  0  0  0  0
   34.3200   24.1860   46.2910 C   0  0  0  0  0  0  0  0  0  0  0  0
   34.4680   24.6640   44.9950 C   0  0  0  0  0  0  0  0  0  0  0  0
   34.2250   25.9930   44.7480 C   0  0  0  0  0  0  0  0  0  0  0  0
   33.8380   26.8270   45.7920 C   0  0  0  0  0  0  0  0  0  0  0  0
   33.8060   24.6810   48.3600 H   0  0  0  0  0  0  0  0  0  0  0  0
   34.4820   23.1640   46.6070 H   0  0  0  0  0  0  0  0  0  0  0  0
   34.7740   23.9210   44.2700 H   0  0  0  0  0  0  0  0  0  0  0  0
   34.3500   26.3340   43.7290 H   0  0  0  0  0  0  0  0  0  0  0  0
   33.6680   27.8580   45.5070 H   0  0  0  0  0  0  0  0  0  0  0  0
  1  7  1  0  0  0  0
  2  8  1  0  0  0  0
  2  1  2  0  0  0  0
  3  2  1  0  0  0  0
  4  3  2  0  0  0  0
  4  5  1  0  0  0  0
  5  6  2  0  0  0  0
  6  1  1  0  0  0  0
  9 15  1  6  0  0  0
  9 10  1  0  0  0  0
 10 11  1  0  0  0  0
 10  3  1  1  0  0  0
 12 11  1  0  0  0  0
 13 17  1  6  0  0  0
 13 12  1  0  0  0  0
 14 19  1  6  0  0  0
 14 13  1  0  0  0  0
 14  9  1  0  0  0  0
 15 16  1  0  0  0  0
 17 18  1  0  0  0  0
 20 19  1  0  0  0  0
 21  5  1  0  0  0  0
 22 21  2  0  0  0  0
 23 22  1  0  0  0  0
 23 24  1  0  0  0  0
 25 23  1  0  0  0  0
 26 27  1  0  0  0  0
 26 23  1  0  0  0  0
 27 32  1  0  0  0  0
 28 33  1  0  0  0  0
 28 27  2  0  0  0  0
 29 28  1  0  0  0  0
 30 29  2  0  0  0  0
 30 31  1  0  0  0  0
 31 26  2  0  0  0  0
 34 29  1  0  0  0  0
 35 30  1  0  0  0  0
 36 31  1  0  0  0  0
M  END
>  <minimizedAffinity>
-6.26463604

>  <minimizedRMSD>
1.0753752

$$$$
