
 OpenBabel03272502063D

 42 45  0  0  1  0  0  0  0  0999 V2000
   34.5460   30.1020   47.6640 F   0  0  0  0  0  0  0  0  0  0  0  0
   34.8810   29.7970   46.3690 C   0  0  0  0  0  0  0  0  0  0  0  0
   33.9980   29.1510   45.5250 C   0  0  0  0  0  0  0  0  0  0  0  0
   34.3910   28.8870   44.2340 C   0  0  0  0  0  0  0  0  0  0  0  0
   35.6590   29.2650   43.7870 C   0  0  0  0  0  0  0  0  0  0  0  0
   36.4980   29.9080   44.6790 C   0  0  0  0  0  0  0  0  0  0  0  0
   36.1510   30.1840   45.9490 C   0  0  0  0  0  0  0  0  0  0  0  0
   33.6730   28.3810   43.6060 H   0  0  0  0  0  0  0  0  0  0  0  0
   35.9220   29.0370   42.7680 H   0  0  0  0  0  0  0  0  0  0  0  0
   37.4590   30.1660   44.2500 H   0  0  0  0  0  0  0  0  0  0  0  0
   37.9830   32.4240   44.7540 Br  0  0  0  0  0  0  0  0  0  0  0  0
   37.9440   31.8740   46.5750 C   0  0  0  0  0  0  0  0  0  0  0  0
   37.0720   30.8530   46.8500 C   0  0  0  0  0  0  0  0  0  0  0  0
   37.0150   30.3750   48.1700 C   0  0  0  0  0  0  0  0  0  0  0  0
   37.8020   30.9090   49.1380 C   0  0  0  0  0  0  0  0  0  0  0  0
   38.6640   31.9430   48.7940 C   0  0  0  0  0  0  0  0  0  0  0  0
   38.7400   32.4400   47.4830 C   0  0  0  0  0  0  0  0  0  0  0  0
   36.3600   29.5740   48.4740 H   0  0  0  0  0  0  0  0  0  0  0  0
   37.7810   30.5630   50.1540 H   0  0  0  0  0  0  0  0  0  0  0  0
   39.3050   32.3940   49.5430 H   0  0  0  0  0  0  0  0  0  0  0  0
   39.5590   33.4500   47.0820 O   0  0  0  0  0  0  0  0  0  0  0  0
   40.5620   33.2820   47.0580 H   0  0  0  0  0  0  0  0  0  0  0  0
   32.6040   27.5440   46.6700 C   0  0  0  0  0  0  0  0  0  0  0  0
   32.7310   28.8160   46.1020 C   0  0  0  0  0  0  0  0  0  0  0  0
   31.6270   29.6480   46.1470 C   0  0  0  0  0  0  0  0  0  0  0  0
   30.4820   29.2220   46.7250 N   0  0  0  0  0  0  0  0  0  0  0  0
   30.3900   27.9960   47.2610 C   0  0  0  0  0  0  0  0  0  0  0  0
   31.4300   27.1780   47.2320 N   0  0  0  0  0  0  0  0  0  0  0  0
   33.4330   26.8490   46.6630 H   0  0  0  0  0  0  0  0  0  0  0  0
   31.7100   30.6210   45.7170 H   0  0  0  0  0  0  0  0  0  0  0  0
   27.9860   28.1770   47.1730 C   0  0  1  0  0  3  0  0  0  0  0  0
   29.1340   27.5190   47.8990 C   0  0  2  0  0  3  0  0  0  0  0  0
   29.0880   27.6430   49.2540 O   0  0  0  0  0  0  0  0  0  0  0  0
   28.7810   28.8630   49.7760 C   0  0  0  0  0  2  0  0  0  0  0  0
   27.6800   29.6150   49.1120 C   0  0  1  0  0  3  0  0  0  0  0  0
   27.7710   29.6050   47.6060 C   0  0  2  0  0  3  0  0  0  0  0  0
   28.3150   28.1930   45.8180 O   0  0  0  0  0  0  0  0  0  0  0  0
   29.1670   28.6960   45.7400 H   0  0  0  0  0  0  0  0  0  0  0  0
   26.4120   29.2010   49.5080 O   0  0  0  0  0  0  0  0  0  0  0  0
   25.7870   29.4750   48.7890 H   0  0  0  0  0  0  0  0  0  0  0  0
   26.5410   30.0220   47.0970 O   0  0  0  0  0  0  0  0  0  0  0  0
   26.5690   30.9510   46.7570 H   0  0  0  0  0  0  0  0  0  0  0  0
  2  1  1  0  0  0  0
  3 24  1  0  0  0  0
  3  2  2  0  0  0  0
  4  3  1  0  0  0  0
  5  4  2  0  0  0  0
  5  6  1  0  0  0  0
  6  7  2  0  0  0  0
  7  2  1  0  0  0  0
  7 13  1  0  0  0  0
  8  4  1  0  0  0  0
  9  5  1  0  0  0  0
 10  6  1  0  0  0  0
 11 12  1  0  0  0  0
 12 13  2  0  0  0  0
 12 17  1  0  0  0  0
 13 14  1  0  0  0  0
 14 18  1  0  0  0  0
 14 15  2  0  0  0  0
 15 19  1  0  0  0  0
 16 15  1  0  0  0  0
 16 20  1  0  0  0  0
 17 16  2  0  0  0  0
 21 17  1  0  0  0  0
 22 21  1  0  0  0  0
 23 28  1  0  0  0  0
 24 25  1  0  0  0  0
 24 23  2  0  0  0  0
 25 26  2  0  0  0  0
 26 27  1  0  0  0  0
 28 27  2  0  0  0  0
 29 23  1  0  0  0  0
 30 25  1  0  0  0  0
 31 37  1  6  0  0  0
 31 36  1  0  0  0  0
 31 32  1  0  0  0  0
 32 27  1  6  0  0  0
 32 33  1  0  0  0  0
 33 34  1  0  0  0  0
 35 39  1  6  0  0  0
 35 34  1  0  0  0  0
 36 41  1  6  0  0  0
 36 35  1  0  0  0  0
 38 37  1  0  0  0  0
 40 39  1  0  0  0  0
 42 41  1  0  0  0  0
M  END
>  <minimizedAffinity>
-7.13144445

>  <minimizedRMSD>
0.935801208

$$$$
