
 OpenBabel03272505323D

 43 46  0  0  1  0  0  0  0  0999 V2000
   37.3610   31.0380   47.2890 N   0  0  0  0  0  0  0  0  0  0  0  0
   36.7450   30.7250   46.1190 C   0  0  0  0  0  0  0  0  0  0  0  0
   37.1810   31.2080   44.9000 C   0  0  0  0  0  0  0  0  0  0  0  0
   38.3090   32.0540   44.8990 C   0  0  0  0  0  0  0  0  0  0  0  0
   38.7470   32.5190   43.8210 O   0  0  0  0  0  0  0  0  0  0  0  0
   38.9260   32.3650   46.0900 N   0  0  0  0  0  0  0  0  0  0  0  0
   38.4120   31.8400   47.1900 C   0  0  0  0  0  0  0  0  0  0  0  0
   39.0020   32.1460   48.2520 O   0  0  0  0  0  0  0  0  0  0  0  0
   35.8680   30.0680   46.1130 H   0  0  0  0  0  0  0  0  0  0  0  0
   37.3100   29.4750   50.6600 C   0  0  0  0  0  0  0  0  0  0  0  0
   37.7840   29.9780   49.4330 C   0  0  0  0  0  0  0  0  0  0  0  0
   36.8990   30.5370   48.5090 C   0  0  0  0  0  0  0  0  0  0  0  0
   35.5880   30.5760   48.8310 N   0  0  0  0  0  0  0  0  0  0  0  0
   35.1160   30.0930   50.0150 C   0  0  0  0  0  0  0  0  0  0  0  0
   35.9820   29.5500   50.9140 N   0  0  0  0  0  0  0  0  0  0  0  0
   38.0150   29.0550   51.3450 H   0  0  0  0  0  0  0  0  0  0  0  0
   38.8170   29.9650   49.1410 H   0  0  0  0  0  0  0  0  0  0  0  0
   34.0900   30.1130   50.2900 H   0  0  0  0  0  0  0  0  0  0  0  0
   36.5620   30.9060   43.6220 C   0  0  0  0  0  0  0  0  0  0  0  0
   36.7600   29.7300   42.9520 C   0  0  0  0  0  0  0  0  0  0  0  0
   36.1980   29.3990   41.7440 C   0  0  0  0  0  0  0  0  0  0  0  0
   35.3470   30.3390   41.1350 C   0  0  0  0  0  0  0  0  0  0  0  0
   35.1700   31.5240   41.8470 C   0  0  0  0  0  0  0  0  0  0  0  0
   35.7530   31.7760   43.0220 N   0  0  0  0  0  0  0  0  0  0  0  0
   37.4120   28.9740   43.3880 H   0  0  0  0  0  0  0  0  0  0  0  0
   36.3550   28.4700   41.2180 H   0  0  0  0  0  0  0  0  0  0  0  0
   34.8440   30.2060   40.1930 H   0  0  0  0  0  0  0  0  0  0  0  0
   34.4410   33.8430   42.2310 C   0  0  2  0  0  0  0  0  0  0  0  0
   34.2950   32.6280   41.3380 C   0  0  1  0  0  0  0  0  0  0  0  0
   34.6130   32.8970   40.0100 O   0  0  0  0  0  0  0  0  0  0  0  0
   33.7450   33.8060   39.4640 C   0  0  0  0  0  0  0  0  0  0  0  0
   33.4930   35.0250   40.3350 C   0  0  2  0  0  0  0  0  0  0  0  0
   34.6080   35.0720   41.3550 C   0  0  1  0  0  0  0  0  0  0  0  0
   35.5170   33.7090   43.1160 O   0  0  0  0  0  0  0  0  0  0  0  0
   35.1270   33.4590   44.0140 H   0  0  0  0  0  0  0  0  0  0  0  0
   32.3110   34.7600   41.0580 O   0  0  0  0  0  0  0  0  0  0  0  0
   31.5770   34.5330   40.4080 H   0  0  0  0  0  0  0  0  0  0  0  0
   34.5300   36.1940   42.1780 O   0  0  0  0  0  0  0  0  0  0  0  0
   35.3530   36.7390   42.0450 H   0  0  0  0  0  0  0  0  0  0  0  0
   40.0800   33.2300   46.0830 C   0  0  0  0  0  0  0  0  0  0  0  0
   39.9690   34.1860   45.1330 F   0  0  0  0  0  0  0  0  0  0  0  0
   41.2760   32.5580   45.8270 F   0  0  0  0  0  0  0  0  0  0  0  0
   40.1660   33.8680   47.3260 F   0  0  0  0  0  0  0  0  0  0  0  0
  1 12  1  0  0  0  0
  2  1  1  0  0  0  0
  3  2  2  0  0  0  0
  4  3  1  0  0  0  0
  4  6  1  0  0  0  0
  5  4  2  0  0  0  0
  6  7  1  0  0  0  0
  7  1  1  0  0  0  0
  7  8  2  0  0  0  0
  9  2  1  0  0  0  0
 10 15  1  0  0  0  0
 10 16  1  0  0  0  0
 11 10  2  0  0  0  0
 12 13  2  0  0  0  0
 12 11  1  0  0  0  0
 13 14  1  0  0  0  0
 14 18  1  0  0  0  0
 14 15  2  0  0  0  0
 17 11  1  0  0  0  0
 19  3  1  0  0  0  0
 20 25  1  0  0  0  0
 20 19  2  0  0  0  0
 21 20  1  0  0  0  0
 22 21  2  0  0  0  0
 22 23  1  0  0  0  0
 23 24  2  0  0  0  0
 24 19  1  0  0  0  0
 26 21  1  0  0  0  0
 27 22  1  0  0  0  0
 28 34  1  1  0  0  0
 29 23  1  1  0  0  0
 29 28  1  0  0  0  0
 30 29  1  0  0  0  0
 31 30  1  0  0  0  0
 31 32  1  0  0  0  0
 32 36  1  1  0  0  0
 32 33  1  0  0  0  0
 33 38  1  1  0  0  0
 33 28  1  0  0  0  0
 34 35  1  0  0  0  0
 37 36  1  0  0  0  0
 39 38  1  0  0  0  0
 40  6  1  0  0  0  0
 40 43  1  0  0  0  0
 41 40  1  0  0  0  0
 42 40  1  0  0  0  0
M  END
>  <minimizedAffinity>
-7.52965307

>  <minimizedRMSD>
0.446346968

$$$$
