
 OpenBabel03272506023D

 49 52  0  0  1  0  0  0  0  0999 V2000
   35.3880   29.9200   49.2570 C   0  0  2  0  0  0  0  0  0  0  0  0
   36.2710   31.0300   48.9310 C   0  0  0  0  0  0  0  0  0  0  0  0
   37.7700   30.7100   49.2220 C   0  0  2  0  0  0  0  0  0  0  0  0
   38.0320   30.3540   50.5960 C   0  0  0  0  0  0  0  0  0  0  0  0
   36.9310   29.4960   51.2290 C   0  0  0  0  0  0  0  0  0  0  0  0
   36.0590   28.8840   50.1720 C   0  0  0  0  0  0  0  0  0  0  0  0
   34.5110   30.2570   49.8880 H   0  0  0  0  0  0  0  0  0  0  0  0
   36.0840   31.8610   49.6970 H   0  0  0  0  0  0  0  0  0  0  0  0
   36.2830   31.5270   47.9900 H   0  0  0  0  0  0  0  0  0  0  0  0
   38.0820   29.9390   48.5000 H   0  0  0  0  0  0  0  0  0  0  0  0
   38.1090   31.2440   51.2500 H   0  0  0  0  0  0  0  0  0  0  0  0
   39.0190   29.8560   50.6660 H   0  0  0  0  0  0  0  0  0  0  0  0
   36.3610   30.0270   51.9940 H   0  0  0  0  0  0  0  0  0  0  0  0
   37.4440   28.6480   51.7260 H   0  0  0  0  0  0  0  0  0  0  0  0
   36.6590   28.2270   49.5280 H   0  0  0  0  0  0  0  0  0  0  0  0
   35.2800   28.2900   50.6590 H   0  0  0  0  0  0  0  0  0  0  0  0
   38.6110   30.9230   46.4020 Cl  0  0  0  0  0  0  0  0  0  0  0  0
   38.9410   32.1730   47.5730 C   0  0  0  0  0  0  0  0  0  0  0  0
   38.4610   31.9820   48.8450 C   0  0  0  0  0  0  0  0  0  0  0  0
   38.7350   33.0360   49.7020 C   0  0  0  0  0  0  0  0  0  0  0  0
   39.4230   34.1710   49.3180 C   0  0  0  0  0  0  0  0  0  0  0  0
   39.8780   34.2860   48.0030 C   0  0  0  0  0  0  0  0  0  0  0  0
   39.6250   33.2480   47.1050 C   0  0  0  0  0  0  0  0  0  0  0  0
   38.3840   32.9590   50.7230 H   0  0  0  0  0  0  0  0  0  0  0  0
   39.5820   34.9310   50.0640 H   0  0  0  0  0  0  0  0  0  0  0  0
   40.4140   35.1630   47.6960 H   0  0  0  0  0  0  0  0  0  0  0  0
   40.0880   33.3690   45.7710 N   0  0  0  0  0  0  0  0  0  0  0  0
   39.3870   34.0010   45.3720 H   0  0  0  0  0  0  0  0  0  0  0  0
   40.9060   32.9580   45.2690 H   0  0  0  0  0  0  0  0  0  0  0  0
   34.8290   29.1780   48.1320 C   0  0  0  0  0  0  0  0  0  0  0  0
   34.9090   29.8380   46.9150 C   0  0  0  0  0  0  0  0  0  0  0  0
   34.4310   29.2060   45.7720 C   0  0  0  0  0  0  0  0  0  0  0  0
   33.8870   27.9260   45.9090 N   0  0  0  0  0  0  0  0  0  0  0  0
   33.8250   27.3160   47.1060 C   0  0  0  0  0  0  0  0  0  0  0  0
   34.2990   27.9670   48.1780 N   0  0  0  0  0  0  0  0  0  0  0  0
   35.2600   30.7870   46.5360 H   0  0  0  0  0  0  0  0  0  0  0  0
   34.3800   29.4940   44.7490 H   0  0  0  0  0  0  0  0  0  0  0  0
   33.4650   25.1910   45.9890 C   0  0  2  0  0  3  0  0  0  0  0  0
   33.2480   25.9620   47.2490 C   0  0  2  0  0  3  0  0  0  0  0  0
   31.9120   26.0080   47.6340 O   0  0  0  0  0  0  0  0  0  0  0  0
   31.0890   25.2640   46.8120 C   0  0  0  0  0  2  0  0  0  0  0  0
   31.5290   23.8260   46.6480 C   0  0  2  0  0  3  0  0  0  0  0  0
   32.8860   23.8160   46.0110 C   0  0  2  0  0  3  0  0  0  0  0  0
   34.8500   25.0530   45.8190 O   0  0  0  0  0  0  0  0  0  0  0  0
   35.1520   25.4100   44.9350 H   0  0  0  0  0  0  0  0  0  0  0  0
   30.6220   23.2140   45.8040 O   0  0  0  0  0  0  0  0  0  0  0  0
   31.1160   22.6470   45.1650 H   0  0  0  0  0  0  0  0  0  0  0  0
   33.7300   22.9230   46.6750 O   0  0  0  0  0  0  0  0  0  0  0  0
   34.5970   23.3650   46.8620 H   0  0  0  0  0  0  0  0  0  0  0  0
  1  7  1  1  0  0  0
  1  6  1  0  0  0  0
  2  3  1  0  0  0  0
  2  1  1  0  0  0  0
  2  8  1  0  0  0  0
  3 10  1  6  0  0  0
  3  4  1  0  0  0  0
  4 12  1  0  0  0  0
  4  5  1  0  0  0  0
  4 11  1  0  0  0  0
  5 14  1  0  0  0  0
  5 13  1  0  0  0  0
  6 16  1  0  0  0  0
  6  5  1  0  0  0  0
  9  2  1  0  0  0  0
 15  6  1  0  0  0  0
 17 18  1  0  0  0  0
 18 19  1  0  0  0  0
 19  3  1  0  0  0  0
 19 20  2  0  0  0  0
 20 24  1  0  0  0  0
 21 20  1  0  0  0  0
 21 25  1  0  0  0  0
 22 21  2  0  0  0  0
 23 18  2  0  0  0  0
 23 22  1  0  0  0  0
 26 22  1  0  0  0  0
 27 23  1  0  0  0  0
 28 27  1  0  0  0  0
 29 27  1  0  0  0  0
 30 35  1  0  0  0  0
 30  1  1  0  0  0  0
 31 30  2  0  0  0  0
 32 33  2  0  0  0  0
 32 31  1  0  0  0  0
 33 34  1  0  0  0  0
 34 35  2  0  0  0  0
 36 31  1  0  0  0  0
 37 32  1  0  0  0  0
 38 44  1  1  0  0  0
 38 43  1  0  0  0  0
 38 39  1  0  0  0  0
 39 34  1  6  0  0  0
 39 40  1  0  0  0  0
 41 40  1  0  0  0  0
 42 46  1  6  0  0  0
 42 41  1  0  0  0  0
 43 42  1  0  0  0  0
 43 48  1  1  0  0  0
 45 44  1  0  0  0  0
 47 46  1  0  0  0  0
 48 49  1  0  0  0  0
M  END
>  <minimizedAffinity>
-7.66562557

>  <minimizedRMSD>
1.40172422

$$$$
