
 OpenBabel03272509103D

 43 46  0  0  1  0  0  0  0  0999 V2000
   35.9010   29.8850   31.7900 C   0  0  0  0  0  0  0  0  0  0  0  0
   36.5260   30.0190   30.5530 C   0  0  0  0  0  0  0  0  0  0  0  0
   37.0700   31.2220   30.1540 C   0  0  0  0  0  0  0  0  0  0  0  0
   37.0160   32.3390   30.9620 C   0  0  0  0  0  0  0  0  0  0  0  0
   36.4100   32.2140   32.1670 C   0  0  0  0  0  0  0  0  0  0  0  0
   35.8540   31.0230   32.6000 C   0  0  0  0  0  0  0  0  0  0  0  0
   36.5270   29.1030   29.9800 H   0  0  0  0  0  0  0  0  0  0  0  0
   37.5250   31.1930   29.1750 H   0  0  0  0  0  0  0  0  0  0  0  0
   37.4520   33.2590   30.6140 H   0  0  0  0  0  0  0  0  0  0  0  0
   36.3820   33.1140   32.7850 H   0  0  0  0  0  0  0  0  0  0  0  0
   33.8460   31.6240   33.9640 C   0  0  1  0  0  3  0  0  0  0  0  0
   35.2200   31.0320   33.9440 C   0  0  2  0  0  3  0  0  0  0  0  0
   36.0050   31.8080   34.8110 O   0  0  0  0  0  0  0  0  0  0  0  0
   35.6010   31.6110   36.1280 C   0  0  0  0  0  2  0  0  0  0  0  0
   34.1960   32.1010   36.3210 C   0  0  1  0  0  3  0  0  0  0  0  0
   33.2930   31.3670   35.3600 C   0  0  2  0  0  3  0  0  0  0  0  0
   33.8870   33.0020   33.7680 O   0  0  0  0  0  0  0  0  0  0  0  0
   34.6760   33.4460   34.1280 H   0  0  0  0  0  0  0  0  0  0  0  0
   33.8170   31.9710   37.6410 O   0  0  0  0  0  0  0  0  0  0  0  0
   32.8680   31.7730   37.7970 H   0  0  0  0  0  0  0  0  0  0  0  0
   33.3260   29.9940   35.5680 O   0  0  0  0  0  0  0  0  0  0  0  0
   32.6210   29.6790   36.1930 H   0  0  0  0  0  0  0  0  0  0  0  0
   35.2990   28.6260   32.2800 C   0  0  0  0  0  0  0  0  0  0  0  0
   34.6000   28.7570   33.1210 H   0  0  0  0  0  0  0  0  0  0  0  0
   34.6480   28.2650   31.4310 H   0  0  0  0  0  0  0  0  0  0  0  0
   36.9220   27.3800   33.7030 C   0  0  0  0  0  3  0  0  0  0  0  0
   36.2910   27.5750   32.5720 C   0  0  0  0  0  3  0  0  0  0  0  0
   39.4670   24.8860   32.8900 C   0  0  0  0  0  0  0  0  0  0  0  0
   39.5880   24.2010   34.1160 C   0  0  0  0  0  0  0  0  0  0  0  0
   38.7920   24.6130   35.1940 C   0  0  0  0  0  0  0  0  0  0  0  0
   37.9290   25.6680   35.0030 N   0  0  0  0  0  0  0  0  0  0  0  0
   37.8680   26.2820   33.7870 C   0  0  0  0  0  0  0  0  0  0  0  0
   38.6170   25.8990   32.7630 N   0  0  0  0  0  0  0  0  0  0  0  0
   40.0720   24.5790   32.0640 H   0  0  0  0  0  0  0  0  0  0  0  0
   40.2640   23.3750   34.2660 H   0  0  0  0  0  0  0  0  0  0  0  0
   38.8360   23.9730   36.5100 C   0  0  0  0  0  0  0  0  0  0  0  0
   38.0050   24.3370   37.5410 C   0  0  0  0  0  0  0  0  0  0  0  0
   38.3150   23.5330   38.6350 C   0  0  0  0  0  0  0  0  0  0  0  0
   39.3190   22.7160   38.2250 N   0  0  0  0  0  0  0  0  0  0  0  0
   39.6220   22.9840   36.9610 N   0  0  0  0  0  0  0  0  0  0  0  0
   37.2480   25.0910   37.5440 H   0  0  0  0  0  0  0  0  0  0  0  0
   37.8750   23.5240   39.6240 H   0  0  0  0  0  0  0  0  0  0  0  0
   39.8300   21.9620   38.7650 H   0  0  0  0  0  0  0  0  0  0  0  0
  1 23  1  0  0  0  0
  1  6  1  0  0  0  0
  2  1  2  0  0  0  0
  3  2  1  0  0  0  0
  3  4  2  0  0  0  0
  4  5  1  0  0  0  0
  5  6  2  0  0  0  0
  5 10  1  0  0  0  0
  7  2  1  0  0  0  0
  8  3  1  0  0  0  0
  9  4  1  0  0  0  0
 11 17  1  1  0  0  0
 11 16  1  0  0  0  0
 12  6  1  6  0  0  0
 12 11  1  0  0  0  0
 12 13  1  0  0  0  0
 13 14  1  0  0  0  0
 14 15  1  0  0  0  0
 15 19  1  1  0  0  0
 16 21  1  1  0  0  0
 16 15  1  0  0  0  0
 17 18  1  0  0  0  0
 19 20  1  0  0  0  0
 21 22  1  0  0  0  0
 23 27  1  0  0  0  0
 23 24  1  0  0  0  0
 25 23  1  0  0  0  0
 26 32  1  0  0  0  0
 27 26  2  0  0  0  0
 28 29  1  0  0  0  0
 29 35  1  0  0  0  0
 29 30  2  0  0  0  0
 30 36  1  0  0  0  0
 31 30  1  0  0  0  0
 32 31  2  0  0  0  0
 33 28  2  0  0  0  0
 33 32  1  0  0  0  0
 34 28  1  0  0  0  0
 36 40  2  0  0  0  0
 36 37  1  0  0  0  0
 37 41  1  0  0  0  0
 37 38  2  0  0  0  0
 38 42  1  0  0  0  0
 39 38  1  0  0  0  0
 39 43  1  0  0  0  0
 40 39  1  0  0  0  0
M  END
>  <minimizedAffinity>
-6.63427162

$$$$

 OpenBabel03272509103D

 43 46  0  0  1  0  0  0  0  0999 V2000
   38.3440   25.2930   35.4010 C   0  0  0  0  0  0  0  0  0  0  0  0
   38.1320   24.9740   36.7400 C   0  0  0  0  0  0  0  0  0  0  0  0
   37.8540   23.6830   37.1320 C   0  0  0  0  0  0  0  0  0  0  0  0
   37.7730   22.6550   36.2140 C   0  0  0  0  0  0  0  0  0  0  0  0
   37.9780   22.9580   34.9110 C   0  0  0  0  0  0  0  0  0  0  0  0
   38.2600   24.2430   34.4820 C   0  0  0  0  0  0  0  0  0  0  0  0
   38.2120   25.8310   37.3940 H   0  0  0  0  0  0  0  0  0  0  0  0
   37.7110   23.5690   38.1960 H   0  0  0  0  0  0  0  0  0  0  0  0
   37.5530   21.6590   36.5610 H   0  0  0  0  0  0  0  0  0  0  0  0
   37.9080   22.1250   34.2090 H   0  0  0  0  0  0  0  0  0  0  0  0
   37.1920   24.6200   32.2520 C   0  0  1  0  0  3  0  0  0  0  0  0
   38.4610   24.4300   33.0220 C   0  0  2  0  0  3  0  0  0  0  0  0
   39.0810   23.2850   32.4990 O   0  0  0  0  0  0  0  0  0  0  0  0
   39.5350   23.5330   31.2060 C   0  0  0  0  0  2  0  0  0  0  0  0
   38.3780   23.8100   30.2910 C   0  0  1  0  0  3  0  0  0  0  0  0
   37.6060   24.9890   30.8340 C   0  0  2  0  0  3  0  0  0  0  0  0
   36.4580   23.4380   32.1900 O   0  0  0  0  0  0  0  0  0  0  0  0
   36.9910   22.6230   32.1670 H   0  0  0  0  0  0  0  0  0  0  0  0
   38.8190   23.9890   28.9970 O   0  0  0  0  0  0  0  0  0  0  0  0
   38.3050   24.6260   28.4540 H   0  0  0  0  0  0  0  0  0  0  0  0
   38.3970   26.1270   30.9190 O   0  0  0  0  0  0  0  0  0  0  0  0
   38.3480   26.6960   30.1070 H   0  0  0  0  0  0  0  0  0  0  0  0
   38.6470   26.6560   34.9120 C   0  0  0  0  0  0  0  0  0  0  0  0
   39.3880   27.1990   35.5190 H   0  0  0  0  0  0  0  0  0  0  0  0
   39.1600   26.5010   33.9190 H   0  0  0  0  0  0  0  0  0  0  0  0
   37.0520   27.9950   33.5440 C   0  0  0  0  0  3  0  0  0  0  0  0
   37.4450   27.4770   34.6810 C   0  0  0  0  0  3  0  0  0  0  0  0
   33.8410   29.4440   32.5700 C   0  0  0  0  0  0  0  0  0  0  0  0
   33.5890   30.3170   33.6480 C   0  0  0  0  0  0  0  0  0  0  0  0
   34.5300   30.3860   34.6850 C   0  0  0  0  0  0  0  0  0  0  0  0
   35.6550   29.5980   34.6010 N   0  0  0  0  0  0  0  0  0  0  0  0
   35.8290   28.7780   33.5260 C   0  0  0  0  0  0  0  0  0  0  0  0
   34.9460   28.7050   32.5410 N   0  0  0  0  0  0  0  0  0  0  0  0
   33.1290   29.3840   31.7750 H   0  0  0  0  0  0  0  0  0  0  0  0
   32.7080   30.9330   33.7140 H   0  0  0  0  0  0  0  0  0  0  0  0
   34.3700   31.2560   35.8510 C   0  0  0  0  0  0  0  0  0  0  0  0
   33.1410   31.6250   36.3400 C   0  0  0  0  0  0  0  0  0  0  0  0
   33.3560   32.4470   37.4430 C   0  0  0  0  0  0  0  0  0  0  0  0
   34.7040   32.5450   37.5790 N   0  0  0  0  0  0  0  0  0  0  0  0
   35.2980   31.8330   36.6290 N   0  0  0  0  0  0  0  0  0  0  0  0
   32.1740   31.3530   35.9720 H   0  0  0  0  0  0  0  0  0  0  0  0
   32.6330   32.9300   38.0880 H   0  0  0  0  0  0  0  0  0  0  0  0
   35.2650   33.0800   38.2990 H   0  0  0  0  0  0  0  0  0  0  0  0
  1  2  1  0  0  0  0
  2  3  2  0  0  0  0
  2  7  1  0  0  0  0
  3  8  1  0  0  0  0
  4  9  1  0  0  0  0
  4  3  1  0  0  0  0
  5  4  2  0  0  0  0
  6  5  1  0  0  0  0
  6  1  2  0  0  0  0
 10  5  1  0  0  0  0
 11 17  1  6  0  0  0
 11 12  1  0  0  0  0
 12  6  1  1  0  0  0
 13 12  1  0  0  0  0
 14 13  1  0  0  0  0
 15 19  1  6  0  0  0
 15 16  1  0  0  0  0
 15 14  1  0  0  0  0
 16 21  1  1  0  0  0
 16 11  1  0  0  0  0
 18 17  1  0  0  0  0
 20 19  1  0  0  0  0
 22 21  1  0  0  0  0
 23  1  1  0  0  0  0
 23 24  1  0  0  0  0
 25 23  1  0  0  0  0
 26 27  2  0  0  0  0
 27 23  1  0  0  0  0
 28 29  1  0  0  0  0
 29 35  1  0  0  0  0
 29 30  2  0  0  0  0
 30 36  1  0  0  0  0
 31 30  1  0  0  0  0
 32 26  1  0  0  0  0
 32 31  2  0  0  0  0
 33 28  2  0  0  0  0
 33 32  1  0  0  0  0
 34 28  1  0  0  0  0
 36 37  1  0  0  0  0
 36 40  2  0  0  0  0
 37 38  2  0  0  0  0
 38 39  1  0  0  0  0
 38 42  1  0  0  0  0
 39 43  1  0  0  0  0
 40 39  1  0  0  0  0
 41 37  1  0  0  0  0
M  END
>  <minimizedAffinity>
-6.42532825

$$$$

 OpenBabel03272509103D

 43 46  0  0  1  0  0  0  0  0999 V2000
   33.2260   29.9020   34.4680 C   0  0  0  0  0  0  0  0  0  0  0  0
   32.3250   28.8730   34.7280 C   0  0  0  0  0  0  0  0  0  0  0  0
   31.5500   28.8730   35.8680 C   0  0  0  0  0  0  0  0  0  0  0  0
   31.6360   29.8910   36.7960 C   0  0  0  0  0  0  0  0  0  0  0  0
   32.5110   30.8940   36.5490 C   0  0  0  0  0  0  0  0  0  0  0  0
   33.3040   30.9260   35.4150 C   0  0  0  0  0  0  0  0  0  0  0  0
   32.3160   28.1160   33.9560 H   0  0  0  0  0  0  0  0  0  0  0  0
   30.8920   28.0200   35.9510 H   0  0  0  0  0  0  0  0  0  0  0  0
   31.0140   29.8540   37.6740 H   0  0  0  0  0  0  0  0  0  0  0  0
   32.5580   31.6850   37.3000 H   0  0  0  0  0  0  0  0  0  0  0  0
   35.4590   31.9910   36.1070 C   0  0  1  0  0  3  0  0  0  0  0  0
   34.2200   32.0880   35.2740 C   0  0  2  0  0  3  0  0  0  0  0  0
   33.5480   33.2490   35.6890 O   0  0  0  0  0  0  0  0  0  0  0  0
   34.2660   34.3790   35.3110 C   0  0  0  0  0  2  0  0  0  0  0  0
   35.5900   34.4160   36.0160 C   0  0  1  0  0  3  0  0  0  0  0  0
   36.3480   33.1540   35.6840 C   0  0  2  0  0  3  0  0  0  0  0  0
   35.1710   32.1430   37.4610 O   0  0  0  0  0  0  0  0  0  0  0  0
   34.4290   32.7420   37.6590 H   0  0  0  0  0  0  0  0  0  0  0  0
   36.2750   35.5700   35.6970 O   0  0  0  0  0  0  0  0  0  0  0  0
   37.2530   35.4910   35.6610 H   0  0  0  0  0  0  0  0  0  0  0  0
   36.5660   33.0280   34.3190 O   0  0  0  0  0  0  0  0  0  0  0  0
   37.4340   33.4130   34.0270 H   0  0  0  0  0  0  0  0  0  0  0  0
   34.0870   29.9640   33.2660 C   0  0  0  0  0  0  0  0  0  0  0  0
   33.5340   29.9550   32.3140 H   0  0  0  0  0  0  0  0  0  0  0  0
   34.5630   30.9870   33.3030 H   0  0  0  0  0  0  0  0  0  0  0  0
   35.9410   28.6350   34.2690 C   0  0  0  0  0  3  0  0  0  0  0  0
   35.1650   28.9590   33.2650 C   0  0  0  0  0  3  0  0  0  0  0  0
   38.6720   26.6490   32.8700 C   0  0  0  0  0  0  0  0  0  0  0  0
   38.7850   25.6180   33.8250 C   0  0  0  0  0  0  0  0  0  0  0  0
   37.9200   25.6300   34.9280 C   0  0  0  0  0  0  0  0  0  0  0  0
   37.0000   26.6500   35.0260 N   0  0  0  0  0  0  0  0  0  0  0  0
   36.9500   27.6120   34.0620 C   0  0  0  0  0  0  0  0  0  0  0  0
   37.7640   27.6090   33.0150 N   0  0  0  0  0  0  0  0  0  0  0  0
   39.3280   26.6470   32.0260 H   0  0  0  0  0  0  0  0  0  0  0  0
   39.5060   24.8200   33.7490 H   0  0  0  0  0  0  0  0  0  0  0  0
   37.9510   24.6110   35.9790 C   0  0  0  0  0  0  0  0  0  0  0  0
   38.0140   24.9230   37.3150 C   0  0  0  0  0  0  0  0  0  0  0  0
   38.0280   23.7260   38.0260 C   0  0  0  0  0  0  0  0  0  0  0  0
   37.9730   22.7380   37.0960 N   0  0  0  0  0  0  0  0  0  0  0  0
   37.9270   23.2740   35.8820 N   0  0  0  0  0  0  0  0  0  0  0  0
   38.0480   25.8920   37.7660 H   0  0  0  0  0  0  0  0  0  0  0  0
   38.0710   23.5660   39.0960 H   0  0  0  0  0  0  0  0  0  0  0  0
   37.9630   21.6890   37.2350 H   0  0  0  0  0  0  0  0  0  0  0  0
  1  2  2  0  0  0  0
  1  6  1  0  0  0  0
  2  3  1  0  0  0  0
  3  8  1  0  0  0  0
  3  4  2  0  0  0  0
  4  9  1  0  0  0  0
  5  4  1  0  0  0  0
  5 10  1  0  0  0  0
  6  5  2  0  0  0  0
  7  2  1  0  0  0  0
 11 17  1  1  0  0  0
 12  6  1  1  0  0  0
 12 13  1  0  0  0  0
 12 11  1  0  0  0  0
 14 13  1  0  0  0  0
 14 15  1  0  0  0  0
 15 19  1  6  0  0  0
 16 21  1  6  0  0  0
 16 15  1  0  0  0  0
 16 11  1  0  0  0  0
 17 18  1  0  0  0  0
 20 19  1  0  0  0  0
 22 21  1  0  0  0  0
 23 25  1  0  0  0  0
 23  1  1  0  0  0  0
 24 23  1  0  0  0  0
 27 23  1  0  0  0  0
 27 26  2  0  0  0  0
 28 33  2  0  0  0  0
 28 29  1  0  0  0  0
 29 30  2  0  0  0  0
 30 31  1  0  0  0  0
 30 36  1  0  0  0  0
 32 26  1  0  0  0  0
 32 31  2  0  0  0  0
 33 32  1  0  0  0  0
 34 28  1  0  0  0  0
 35 29  1  0  0  0  0
 36 37  1  0  0  0  0
 37 41  1  0  0  0  0
 37 38  2  0  0  0  0
 38 42  1  0  0  0  0
 39 43  1  0  0  0  0
 39 38  1  0  0  0  0
 40 36  2  0  0  0  0
 40 39  1  0  0  0  0
M  END
>  <minimizedAffinity>
-6.42006111

$$$$

 OpenBabel03272509103D

 43 46  0  0  1  0  0  0  0  0999 V2000
   36.5960   27.9560   33.4140 C   0  0  0  0  0  0  0  0  0  0  0  0
   36.4640   29.3390   33.3180 C   0  0  0  0  0  0  0  0  0  0  0  0
   36.2250   29.9520   32.1070 C   0  0  0  0  0  0  0  0  0  0  0  0
   36.1080   29.2220   30.9420 C   0  0  0  0  0  0  0  0  0  0  0  0
   36.2350   27.8760   31.0280 C   0  0  0  0  0  0  0  0  0  0  0  0
   36.4740   27.2280   32.2270 C   0  0  0  0  0  0  0  0  0  0  0  0
   36.5690   29.8380   34.2710 H   0  0  0  0  0  0  0  0  0  0  0  0
   36.1430   31.0270   32.1690 H   0  0  0  0  0  0  0  0  0  0  0  0
   35.9210   29.7380   30.0160 H   0  0  0  0  0  0  0  0  0  0  0  0
   36.1370   27.3250   30.0910 H   0  0  0  0  0  0  0  0  0  0  0  0
   37.8900   25.2610   31.6090 C   0  0  1  0  0  3  0  0  0  0  0  0
   36.5920   25.7470   32.1730 C   0  0  2  0  0  3  0  0  0  0  0  0
   35.5790   25.2420   31.3430 O   0  0  0  0  0  0  0  0  0  0  0  0
   35.4840   23.8610   31.4910 C   0  0  0  0  0  2  0  0  0  0  0  0
   36.7460   23.1980   31.0220 C   0  0  1  0  0  3  0  0  0  0  0  0
   37.9040   23.7520   31.8170 C   0  0  2  0  0  3  0  0  0  0  0  0
   37.9690   25.5050   30.2400 O   0  0  0  0  0  0  0  0  0  0  0  0
   37.1210   25.4630   29.7650 H   0  0  0  0  0  0  0  0  0  0  0  0
   36.6290   21.8260   31.1030 O   0  0  0  0  0  0  0  0  0  0  0  0
   37.4550   21.3380   31.3130 H   0  0  0  0  0  0  0  0  0  0  0  0
   37.7510   23.5230   33.1780 O   0  0  0  0  0  0  0  0  0  0  0  0
   38.1790   22.6790   33.4800 H   0  0  0  0  0  0  0  0  0  0  0  0
   36.8520   27.2340   34.6790 C   0  0  0  0  0  0  0  0  0  0  0  0
   36.6190   27.8150   35.5850 H   0  0  0  0  0  0  0  0  0  0  0  0
   36.1030   26.3900   34.6890 H   0  0  0  0  0  0  0  0  0  0  0  0
   39.3260   27.2050   34.3820 C   0  0  0  0  0  3  0  0  0  0  0  0
   38.2020   26.6470   34.7570 C   0  0  0  0  0  3  0  0  0  0  0  0
   42.8230   26.1530   34.2420 C   0  0  0  0  0  0  0  0  0  0  0  0
   42.7730   24.9240   34.9320 C   0  0  0  0  0  0  0  0  0  0  0  0
   41.5380   24.4870   35.4300 C   0  0  0  0  0  0  0  0  0  0  0  0
   40.4310   25.2790   35.2210 N   0  0  0  0  0  0  0  0  0  0  0  0
   40.5590   26.4550   34.5430 C   0  0  0  0  0  0  0  0  0  0  0  0
   41.7220   26.8770   34.0690 N   0  0  0  0  0  0  0  0  0  0  0  0
   43.7620   26.4940   33.8600 H   0  0  0  0  0  0  0  0  0  0  0  0
   43.6400   24.3050   35.0970 H   0  0  0  0  0  0  0  0  0  0  0  0
   41.3710   23.2300   36.1610 C   0  0  0  0  0  0  0  0  0  0  0  0
   42.4200   22.3880   36.4400 C   0  0  0  0  0  0  0  0  0  0  0  0
   41.9090   21.2980   37.1400 C   0  0  0  0  0  0  0  0  0  0  0  0
   40.5750   21.5200   37.2570 N   0  0  0  0  0  0  0  0  0  0  0  0
   40.2640   22.6710   36.6730 N   0  0  0  0  0  0  0  0  0  0  0  0
   43.4510   22.5100   36.1850 H   0  0  0  0  0  0  0  0  0  0  0  0
   42.4270   20.4310   37.5300 H   0  0  0  0  0  0  0  0  0  0  0  0
   39.8360   20.9230   37.7240 H   0  0  0  0  0  0  0  0  0  0  0  0
  1 23  1  0  0  0  0
  2  1  1  0  0  0  0
  2  7  1  0  0  0  0
  3  8  1  0  0  0  0
  3  2  2  0  0  0  0
  4  5  2  0  0  0  0
  4  3  1  0  0  0  0
  5  6  1  0  0  0  0
  6  1  2  0  0  0  0
  9  4  1  0  0  0  0
 10  5  1  0  0  0  0
 11 17  1  6  0  0  0
 11 16  1  0  0  0  0
 11 12  1  0  0  0  0
 12  6  1  6  0  0  0
 13 14  1  0  0  0  0
 13 12  1  0  0  0  0
 15 19  1  1  0  0  0
 15 14  1  0  0  0  0
 15 16  1  0  0  0  0
 16 21  1  1  0  0  0
 18 17  1  0  0  0  0
 19 20  1  0  0  0  0
 21 22  1  0  0  0  0
 23 25  1  0  0  0  0
 23 27  1  0  0  0  0
 23 24  1  0  0  0  0
 26 32  1  0  0  0  0
 26 27  2  0  0  0  0
 28 29  1  0  0  0  0
 29 35  1  0  0  0  0
 29 30  2  0  0  0  0
 30 36  1  0  0  0  0
 31 30  1  0  0  0  0
 32 31  2  0  0  0  0
 33 28  2  0  0  0  0
 33 32  1  0  0  0  0
 34 28  1  0  0  0  0
 36 37  1  0  0  0  0
 36 40  2  0  0  0  0
 37 38  2  0  0  0  0
 38 39  1  0  0  0  0
 38 42  1  0  0  0  0
 39 43  1  0  0  0  0
 40 39  1  0  0  0  0
 41 37  1  0  0  0  0
M  END
>  <minimizedAffinity>
-6.27294636

$$$$

 OpenBabel03272509103D

 43 46  0  0  1  0  0  0  0  0999 V2000
   36.7620   27.7750   32.0970 C   0  0  0  0  0  0  0  0  0  0  0  0
   35.6910   28.6370   31.8730 C   0  0  0  0  0  0  0  0  0  0  0  0
   35.1080   29.3360   32.9080 C   0  0  0  0  0  0  0  0  0  0  0  0
   35.5620   29.2110   34.2050 C   0  0  0  0  0  0  0  0  0  0  0  0
   36.6030   28.3750   34.4300 C   0  0  0  0  0  0  0  0  0  0  0  0
   37.2120   27.6580   33.4150 C   0  0  0  0  0  0  0  0  0  0  0  0
   35.3960   28.6800   30.8340 H   0  0  0  0  0  0  0  0  0  0  0  0
   34.2880   29.9700   32.6020 H   0  0  0  0  0  0  0  0  0  0  0  0
   35.0790   29.7750   34.9860 H   0  0  0  0  0  0  0  0  0  0  0  0
   36.9400   28.2960   35.4650 H   0  0  0  0  0  0  0  0  0  0  0  0
   38.3940   26.4650   35.2680 C   0  0  1  0  0  3  0  0  0  0  0  0
   38.3430   26.7770   33.8060 C   0  0  2  0  0  3  0  0  0  0  0  0
   39.5490   27.4220   33.4900 O   0  0  0  0  0  0  0  0  0  0  0  0
   40.6100   26.5250   33.5800 C   0  0  0  0  0  2  0  0  0  0  0  0
   40.7730   26.0500   34.9950 C   0  0  1  0  0  3  0  0  0  0  0  0
   39.4800   25.4110   35.4400 C   0  0  2  0  0  3  0  0  0  0  0  0
   38.7620   27.5840   36.0110 O   0  0  0  0  0  0  0  0  0  0  0  0
   39.3780   28.1910   35.5630 H   0  0  0  0  0  0  0  0  0  0  0  0
   41.8650   25.2140   35.1000 O   0  0  0  0  0  0  0  0  0  0  0  0
   41.7900   24.4930   35.7630 H   0  0  0  0  0  0  0  0  0  0  0  0
   39.1350   24.3310   34.6370 O   0  0  0  0  0  0  0  0  0  0  0  0
   39.4760   23.4650   34.9840 H   0  0  0  0  0  0  0  0  0  0  0  0
   37.4330   26.9960   31.0330 C   0  0  0  0  0  0  0  0  0  0  0  0
   36.9840   27.1150   30.0350 H   0  0  0  0  0  0  0  0  0  0  0  0
   38.4570   27.4600   30.9350 H   0  0  0  0  0  0  0  0  0  0  0  0
   37.0730   24.5450   30.7590 C   0  0  0  0  0  3  0  0  0  0  0  0
   37.6080   25.5720   31.3720 C   0  0  0  0  0  3  0  0  0  0  0  0
   38.2210   21.0840   31.0030 C   0  0  0  0  0  0  0  0  0  0  0  0
   37.8590   20.7630   32.3280 C   0  0  0  0  0  0  0  0  0  0  0  0
   37.2310   21.7450   33.1060 C   0  0  0  0  0  0  0  0  0  0  0  0
   36.9950   22.9770   32.5380 N   0  0  0  0  0  0  0  0  0  0  0  0
   37.3730   23.2130   31.2500 C   0  0  0  0  0  0  0  0  0  0  0  0
   37.9680   22.2910   30.5070 N   0  0  0  0  0  0  0  0  0  0  0  0
   38.7010   20.3410   30.4030 H   0  0  0  0  0  0  0  0  0  0  0  0
   38.0440   19.7980   32.7720 H   0  0  0  0  0  0  0  0  0  0  0  0
   36.8140   21.5200   34.4910 C   0  0  0  0  0  0  0  0  0  0  0  0
   35.7250   20.7520   34.8240 C   0  0  0  0  0  0  0  0  0  0  0  0
   35.6190   20.7530   36.2130 C   0  0  0  0  0  0  0  0  0  0  0  0
   36.6440   21.5190   36.6660 N   0  0  0  0  0  0  0  0  0  0  0  0
   37.3490   21.9700   35.6350 N   0  0  0  0  0  0  0  0  0  0  0  0
   35.0570   20.2340   34.1700 H   0  0  0  0  0  0  0  0  0  0  0  0
   34.8900   20.2600   36.8430 H   0  0  0  0  0  0  0  0  0  0  0  0
   36.9070   21.7630   37.6620 H   0  0  0  0  0  0  0  0  0  0  0  0
  1  6  1  0  0  0  0
  2  1  2  0  0  0  0
  2  3  1  0  0  0  0
  3  4  2  0  0  0  0
  4  5  1  0  0  0  0
  4  9  1  0  0  0  0
  5 10  1  0  0  0  0
  6  5  2  0  0  0  0
  7  2  1  0  0  0  0
  8  3  1  0  0  0  0
 11 16  1  0  0  0  0
 11 17  1  1  0  0  0
 12  6  1  1  0  0  0
 12 11  1  0  0  0  0
 13 14  1  0  0  0  0
 13 12  1  0  0  0  0
 14 15  1  0  0  0  0
 15 19  1  6  0  0  0
 15 16  1  0  0  0  0
 16 21  1  6  0  0  0
 18 17  1  0  0  0  0
 19 20  1  0  0  0  0
 21 22  1  0  0  0  0
 23 27  1  0  0  0  0
 23  1  1  0  0  0  0
 24 23  1  0  0  0  0
 25 23  1  0  0  0  0
 26 32  1  0  0  0  0
 26 27  2  0  0  0  0
 28 29  1  0  0  0  0
 29 35  1  0  0  0  0
 29 30  2  0  0  0  0
 30 36  1  0  0  0  0
 31 30  1  0  0  0  0
 32 31  2  0  0  0  0
 33 28  2  0  0  0  0
 33 32  1  0  0  0  0
 34 28  1  0  0  0  0
 36 37  1  0  0  0  0
 36 40  2  0  0  0  0
 37 38  2  0  0  0  0
 38 39  1  0  0  0  0
 38 42  1  0  0  0  0
 39 43  1  0  0  0  0
 40 39  1  0  0  0  0
 41 37  1  0  0  0  0
M  END
>  <minimizedAffinity>
-6.23868179

$$$$

 OpenBabel03272509103D

 43 46  0  0  1  0  0  0  0  0999 V2000
   39.8360   23.4530   36.2570 C   0  0  0  0  0  0  0  0  0  0  0  0
   39.8630   22.7940   37.4840 C   0  0  0  0  0  0  0  0  0  0  0  0
   38.9790   23.1200   38.4900 C   0  0  0  0  0  0  0  0  0  0  0  0
   38.0330   24.1110   38.3230 C   0  0  0  0  0  0  0  0  0  0  0  0
   38.0010   24.7550   37.1320 C   0  0  0  0  0  0  0  0  0  0  0  0
   38.8730   24.4540   36.1010 C   0  0  0  0  0  0  0  0  0  0  0  0
   40.6300   22.0340   37.5360 H   0  0  0  0  0  0  0  0  0  0  0  0
   39.1040   22.5350   39.3890 H   0  0  0  0  0  0  0  0  0  0  0  0
   37.3600   24.3350   39.1330 H   0  0  0  0  0  0  0  0  0  0  0  0
   37.2420   25.5330   37.0290 H   0  0  0  0  0  0  0  0  0  0  0  0
   39.6270   26.4340   34.7710 C   0  0  1  0  0  3  0  0  0  0  0  0
   38.7250   25.2430   34.8500 C   0  0  2  0  0  3  0  0  0  0  0  0
   37.4100   25.7290   34.7740 O   0  0  0  0  0  0  0  0  0  0  0  0
   37.1570   26.2280   33.4990 C   0  0  0  0  0  2  0  0  0  0  0  0
   38.0340   27.4120   33.2180 C   0  0  1  0  0  3  0  0  0  0  0  0
   39.4760   26.9890   33.3610 C   0  0  2  0  0  3  0  0  0  0  0  0
   39.2330   27.4260   35.6660 O   0  0  0  0  0  0  0  0  0  0  0  0
   38.2740   27.4800   35.8240 H   0  0  0  0  0  0  0  0  0  0  0  0
   37.7380   27.9500   31.9830 O   0  0  0  0  0  0  0  0  0  0  0  0
   38.4930   28.3450   31.4960 H   0  0  0  0  0  0  0  0  0  0  0  0
   39.8020   25.9660   32.4800 O   0  0  0  0  0  0  0  0  0  0  0  0
   40.1700   26.2980   31.6190 H   0  0  0  0  0  0  0  0  0  0  0  0
   40.7540   23.1540   35.1370 C   0  0  0  0  0  0  0  0  0  0  0  0
   41.0230   24.0310   34.5270 H   0  0  0  0  0  0  0  0  0  0  0  0
   41.7230   22.8490   35.6290 H   0  0  0  0  0  0  0  0  0  0  0  0
   40.7070   21.7510   33.0780 C   0  0  0  0  0  3  0  0  0  0  0  0
   40.3010   22.0360   34.2900 C   0  0  0  0  0  3  0  0  0  0  0  0
   40.3000   18.6440   31.1970 C   0  0  0  0  0  0  0  0  0  0  0  0
   38.8970   18.4960   31.2020 C   0  0  0  0  0  0  0  0  0  0  0  0
   38.1250   19.4680   31.8530 C   0  0  0  0  0  0  0  0  0  0  0  0
   38.7730   20.5220   32.4560 N   0  0  0  0  0  0  0  0  0  0  0  0
   40.1340   20.5970   32.4090 C   0  0  0  0  0  0  0  0  0  0  0  0
   40.8720   19.6830   31.7960 N   0  0  0  0  0  0  0  0  0  0  0  0
   40.8960   17.9070   30.7040 H   0  0  0  0  0  0  0  0  0  0  0  0
   38.3900   17.6710   30.7300 H   0  0  0  0  0  0  0  0  0  0  0  0
   36.6640   19.4140   31.9200 C   0  0  0  0  0  0  0  0  0  0  0  0
   35.8700   20.5180   31.7270 C   0  0  0  0  0  0  0  0  0  0  0  0
   34.5450   20.1120   31.8610 C   0  0  0  0  0  0  0  0  0  0  0  0
   34.5870   18.7810   32.1280 N   0  0  0  0  0  0  0  0  0  0  0  0
   35.8500   18.3750   32.1610 N   0  0  0  0  0  0  0  0  0  0  0  0
   36.1730   21.5210   31.5140 H   0  0  0  0  0  0  0  0  0  0  0  0
   33.6380   20.6960   31.7770 H   0  0  0  0  0  0  0  0  0  0  0  0
   33.7880   18.1070   32.2940 H   0  0  0  0  0  0  0  0  0  0  0  0
  1  2  1  0  0  0  0
  2  7  1  0  0  0  0
  2  3  2  0  0  0  0
  3  8  1  0  0  0  0
  4  3  1  0  0  0  0
  4  9  1  0  0  0  0
  5  4  2  0  0  0  0
  6  1  2  0  0  0  0
  6  5  1  0  0  0  0
 10  5  1  0  0  0  0
 11 12  1  0  0  0  0
 11 17  1  1  0  0  0
 12  6  1  1  0  0  0
 13 12  1  0  0  0  0
 14 13  1  0  0  0  0
 15 19  1  6  0  0  0
 15 16  1  0  0  0  0
 15 14  1  0  0  0  0
 16 21  1  6  0  0  0
 16 11  1  0  0  0  0
 17 18  1  0  0  0  0
 20 19  1  0  0  0  0
 22 21  1  0  0  0  0
 23 25  1  0  0  0  0
 23  1  1  0  0  0  0
 24 23  1  0  0  0  0
 26 27  2  0  0  0  0
 27 23  1  0  0  0  0
 28 29  2  0  0  0  0
 28 33  1  0  0  0  0
 29 30  1  0  0  0  0
 30 36  1  0  0  0  0
 30 31  2  0  0  0  0
 32 31  1  0  0  0  0
 32 26  1  0  0  0  0
 33 32  2  0  0  0  0
 34 28  1  0  0  0  0
 35 29  1  0  0  0  0
 36 40  2  0  0  0  0
 37 38  2  0  0  0  0
 37 36  1  0  0  0  0
 38 39  1  0  0  0  0
 39 40  1  0  0  0  0
 39 43  1  0  0  0  0
 41 37  1  0  0  0  0
 42 38  1  0  0  0  0
M  END
>  <minimizedAffinity>
-6.19928598

$$$$

 OpenBabel03272509103D

 43 46  0  0  1  0  0  0  0  0999 V2000
   39.8870   26.5210   34.3850 C   0  0  0  0  0  0  0  0  0  0  0  0
   40.8000   27.2580   33.6350 C   0  0  0  0  0  0  0  0  0  0  0  0
   41.5130   26.6780   32.6070 C   0  0  0  0  0  0  0  0  0  0  0  0
   41.3510   25.3470   32.2810 C   0  0  0  0  0  0  0  0  0  0  0  0
   40.4640   24.6260   33.0060 C   0  0  0  0  0  0  0  0  0  0  0  0
   39.7320   25.1750   34.0440 C   0  0  0  0  0  0  0  0  0  0  0  0
   40.8700   28.2890   33.9510 H   0  0  0  0  0  0  0  0  0  0  0  0
   42.1870   27.3560   32.1050 H   0  0  0  0  0  0  0  0  0  0  0  0
   41.9270   24.9320   31.4720 H   0  0  0  0  0  0  0  0  0  0  0  0
   40.3570   23.5760   32.7260 H   0  0  0  0  0  0  0  0  0  0  0  0
   39.3380   23.7140   36.0360 C   0  0  1  0  0  3  0  0  0  0  0  0
   38.7960   24.2650   34.7550 C   0  0  2  0  0  3  0  0  0  0  0  0
   38.5190   23.1640   33.9290 O   0  0  0  0  0  0  0  0  0  0  0  0
   37.4430   22.4430   34.4380 C   0  0  0  0  0  2  0  0  0  0  0  0
   37.7920   21.8570   35.7740 C   0  0  1  0  0  3  0  0  0  0  0  0
   38.1830   22.9790   36.7050 C   0  0  2  0  0  3  0  0  0  0  0  0
   40.3530   22.7900   35.7990 O   0  0  0  0  0  0  0  0  0  0  0  0
   40.2530   22.2690   34.9830 H   0  0  0  0  0  0  0  0  0  0  0  0
   36.7530   21.0850   36.2500 O   0  0  0  0  0  0  0  0  0  0  0  0
   36.6360   21.0770   37.2250 H   0  0  0  0  0  0  0  0  0  0  0  0
   37.1530   23.8960   36.8680 O   0  0  0  0  0  0  0  0  0  0  0  0
   36.5710   23.6910   37.6470 H   0  0  0  0  0  0  0  0  0  0  0  0
   39.0900   27.0800   35.4990 C   0  0  0  0  0  0  0  0  0  0  0  0
   38.7600   26.3320   36.2380 H   0  0  0  0  0  0  0  0  0  0  0  0
   39.8090   27.7370   36.0700 H   0  0  0  0  0  0  0  0  0  0  0  0
   37.1100   27.6470   34.0960 C   0  0  0  0  0  3  0  0  0  0  0  0
   37.9640   27.9190   35.0520 C   0  0  0  0  0  3  0  0  0  0  0  0
   34.5300   29.6050   32.4040 C   0  0  0  0  0  0  0  0  0  0  0  0
   34.1200   30.4770   33.4350 C   0  0  0  0  0  0  0  0  0  0  0  0
   34.7400   30.3700   34.6870 C   0  0  0  0  0  0  0  0  0  0  0  0
   35.7220   29.4180   34.8510 N   0  0  0  0  0  0  0  0  0  0  0  0
   36.0640   28.6110   33.8070 C   0  0  0  0  0  0  0  0  0  0  0  0
   35.4830   28.7050   32.6200 N   0  0  0  0  0  0  0  0  0  0  0  0
   34.0610   29.6800   31.4470 H   0  0  0  0  0  0  0  0  0  0  0  0
   33.3520   31.2220   33.3060 H   0  0  0  0  0  0  0  0  0  0  0  0
   34.3940   31.2210   35.8260 C   0  0  0  0  0  0  0  0  0  0  0  0
   33.1250   31.2820   36.3490 C   0  0  0  0  0  0  0  0  0  0  0  0
   33.1510   32.1820   37.4110 C   0  0  0  0  0  0  0  0  0  0  0  0
   34.4310   32.6310   37.4900 N   0  0  0  0  0  0  0  0  0  0  0  0
   35.1620   32.0540   36.5440 N   0  0  0  0  0  0  0  0  0  0  0  0
   32.2530   30.7540   36.0290 H   0  0  0  0  0  0  0  0  0  0  0  0
   32.3470   32.4910   38.0670 H   0  0  0  0  0  0  0  0  0  0  0  0
   34.8550   33.3250   38.1670 H   0  0  0  0  0  0  0  0  0  0  0  0
  1 23  1  0  0  0  0
  2  7  1  0  0  0  0
  2  1  2  0  0  0  0
  3  2  1  0  0  0  0
  4  3  2  0  0  0  0
  4  5  1  0  0  0  0
  5  6  2  0  0  0  0
  6  1  1  0  0  0  0
  8  3  1  0  0  0  0
  9  4  1  0  0  0  0
 10  5  1  0  0  0  0
 11 17  1  6  0  0  0
 11 16  1  0  0  0  0
 12  6  1  6  0  0  0
 12 11  1  0  0  0  0
 13 14  1  0  0  0  0
 13 12  1  0  0  0  0
 14 15  1  0  0  0  0
 15 19  1  1  0  0  0
 15 16  1  0  0  0  0
 16 21  1  6  0  0  0
 18 17  1  0  0  0  0
 19 20  1  0  0  0  0
 21 22  1  0  0  0  0
 23 25  1  0  0  0  0
 23 24  1  0  0  0  0
 26 27  2  0  0  0  0
 27 23  1  0  0  0  0
 28 33  2  0  0  0  0
 28 29  1  0  0  0  0
 29 30  2  0  0  0  0
 30 31  1  0  0  0  0
 30 36  1  0  0  0  0
 32 26  1  0  0  0  0
 32 31  2  0  0  0  0
 33 32  1  0  0  0  0
 34 28  1  0  0  0  0
 35 29  1  0  0  0  0
 36 37  1  0  0  0  0
 36 40  2  0  0  0  0
 37 38  2  0  0  0  0
 38 39  1  0  0  0  0
 38 42  1  0  0  0  0
 39 43  1  0  0  0  0
 40 39  1  0  0  0  0
 41 37  1  0  0  0  0
M  END
>  <minimizedAffinity>
-6.16277647

$$$$

 OpenBabel03272509103D

 43 46  0  0  1  0  0  0  0  0999 V2000
   36.4110   28.4870   30.9320 C   0  0  0  0  0  0  0  0  0  0  0  0
   37.1100   28.2950   29.7430 C   0  0  0  0  0  0  0  0  0  0  0  0
   37.5360   29.3640   28.9840 C   0  0  0  0  0  0  0  0  0  0  0  0
   37.2860   30.6650   29.3700 C   0  0  0  0  0  0  0  0  0  0  0  0
   36.6060   30.8580   30.5250 C   0  0  0  0  0  0  0  0  0  0  0  0
   36.1650   29.8090   31.3120 C   0  0  0  0  0  0  0  0  0  0  0  0
   37.2660   27.2510   29.5100 H   0  0  0  0  0  0  0  0  0  0  0  0
   38.0660   29.0810   28.0860 H   0  0  0  0  0  0  0  0  0  0  0  0
   37.6340   31.4730   28.7490 H   0  0  0  0  0  0  0  0  0  0  0  0
   36.4240   31.8970   30.8060 H   0  0  0  0  0  0  0  0  0  0  0  0
   33.9420   30.1190   32.4160 C   0  0  1  0  0  3  0  0  0  0  0  0
   35.4310   30.1680   32.5540 C   0  0  2  0  0  3  0  0  0  0  0  0
   35.7580   31.4860   32.9090 O   0  0  0  0  0  0  0  0  0  0  0  0
   35.3180   31.7580   34.2010 C   0  0  0  0  0  2  0  0  0  0  0  0
   33.8200   31.6910   34.2650 C   0  0  1  0  0  3  0  0  0  0  0  0
   33.3790   30.3190   33.8170 C   0  0  2  0  0  3  0  0  0  0  0  0
   33.4750   31.1580   31.6150 O   0  0  0  0  0  0  0  0  0  0  0  0
   33.9880   31.9830   31.6700 H   0  0  0  0  0  0  0  0  0  0  0  0
   33.3760   32.0270   35.5280 O   0  0  0  0  0  0  0  0  0  0  0  0
   32.5640   31.5670   35.8320 H   0  0  0  0  0  0  0  0  0  0  0  0
   33.9110   29.3190   34.6200 O   0  0  0  0  0  0  0  0  0  0  0  0
   33.3160   29.0680   35.3740 H   0  0  0  0  0  0  0  0  0  0  0  0
   35.9270   27.3860   31.7930 C   0  0  0  0  0  0  0  0  0  0  0  0
   35.1920   27.6970   32.5520 H   0  0  0  0  0  0  0  0  0  0  0  0
   35.3450   26.7100   31.1020 H   0  0  0  0  0  0  0  0  0  0  0  0
   37.9830   27.0370   33.1570 C   0  0  0  0  0  3  0  0  0  0  0  0
   37.0130   26.5930   32.3980 C   0  0  0  0  0  3  0  0  0  0  0  0
   40.9600   24.9490   33.5240 C   0  0  0  0  0  0  0  0  0  0  0  0
   40.6820   24.2760   34.7320 C   0  0  0  0  0  0  0  0  0  0  0  0
   39.4780   24.5580   35.3920 C   0  0  0  0  0  0  0  0  0  0  0  0
   38.6230   25.4780   34.8280 N   0  0  0  0  0  0  0  0  0  0  0  0
   38.9610   26.0870   33.6570 C   0  0  0  0  0  0  0  0  0  0  0  0
   40.0970   25.8280   33.0250 N   0  0  0  0  0  0  0  0  0  0  0  0
   41.8760   24.7400   33.0140 H   0  0  0  0  0  0  0  0  0  0  0  0
   41.3520   23.5560   35.1730 H   0  0  0  0  0  0  0  0  0  0  0  0
   39.0900   23.9190   36.6500 C   0  0  0  0  0  0  0  0  0  0  0  0
   37.9480   24.2590   37.3340 C   0  0  0  0  0  0  0  0  0  0  0  0
   37.8890   23.4640   38.4760 C   0  0  0  0  0  0  0  0  0  0  0  0
   38.9940   22.6750   38.4400 N   0  0  0  0  0  0  0  0  0  0  0  0
   39.7010   22.9530   37.3510 N   0  0  0  0  0  0  0  0  0  0  0  0
   37.2150   24.9920   37.0730 H   0  0  0  0  0  0  0  0  0  0  0  0
   37.1400   23.4420   39.2570 H   0  0  0  0  0  0  0  0  0  0  0  0
   39.3100   21.9350   39.1280 H   0  0  0  0  0  0  0  0  0  0  0  0
  1  6  1  0  0  0  0
  1 23  1  0  0  0  0
  2  1  2  0  0  0  0
  3  4  2  0  0  0  0
  3  2  1  0  0  0  0
  4  5  1  0  0  0  0
  5 10  1  0  0  0  0
  5  6  2  0  0  0  0
  7  2  1  0  0  0  0
  8  3  1  0  0  0  0
  9  4  1  0  0  0  0
 11 17  1  6  0  0  0
 11 12  1  0  0  0  0
 11 16  1  0  0  0  0
 12  6  1  6  0  0  0
 12 13  1  0  0  0  0
 13 14  1  0  0  0  0
 14 15  1  0  0  0  0
 15 19  1  1  0  0  0
 16 15  1  0  0  0  0
 16 21  1  1  0  0  0
 17 18  1  0  0  0  0
 19 20  1  0  0  0  0
 21 22  1  0  0  0  0
 23 27  1  0  0  0  0
 23 24  1  0  0  0  0
 25 23  1  0  0  0  0
 26 32  1  0  0  0  0
 27 26  2  0  0  0  0
 28 29  1  0  0  0  0
 29 35  1  0  0  0  0
 29 30  2  0  0  0  0
 30 36  1  0  0  0  0
 31 30  1  0  0  0  0
 32 31  2  0  0  0  0
 33 28  2  0  0  0  0
 33 32  1  0  0  0  0
 34 28  1  0  0  0  0
 36 37  1  0  0  0  0
 36 40  2  0  0  0  0
 37 38  2  0  0  0  0
 38 42  1  0  0  0  0
 39 38  1  0  0  0  0
 39 43  1  0  0  0  0
 40 39  1  0  0  0  0
 41 37  1  0  0  0  0
M  END
>  <minimizedAffinity>
-6.08827257

$$$$

 OpenBabel03272509103D

 43 46  0  0  1  0  0  0  0  0999 V2000
   35.7260   29.9380   31.8070 C   0  0  0  0  0  0  0  0  0  0  0  0
   36.3430   30.0470   30.5640 C   0  0  0  0  0  0  0  0  0  0  0  0
   36.9750   31.2100   30.1790 C   0  0  0  0  0  0  0  0  0  0  0  0
   37.0220   32.3110   31.0090 C   0  0  0  0  0  0  0  0  0  0  0  0
   36.4240   32.2120   32.2200 C   0  0  0  0  0  0  0  0  0  0  0  0
   35.7810   31.0600   32.6380 C   0  0  0  0  0  0  0  0  0  0  0  0
   36.2630   29.1440   29.9740 H   0  0  0  0  0  0  0  0  0  0  0  0
   37.4140   31.1650   29.1930 H   0  0  0  0  0  0  0  0  0  0  0  0
   37.5250   33.2010   30.6710 H   0  0  0  0  0  0  0  0  0  0  0  0
   36.4760   33.0980   32.8540 H   0  0  0  0  0  0  0  0  0  0  0  0
   33.8120   31.7270   34.0300 C   0  0  1  0  0  3  0  0  0  0  0  0
   35.1670   31.0930   33.9920 C   0  0  2  0  0  3  0  0  0  0  0  0
   35.9880   31.8470   34.8440 O   0  0  0  0  0  0  0  0  0  0  0  0
   35.5980   31.6670   36.1680 C   0  0  0  0  0  2  0  0  0  0  0  0
   34.2120   32.2010   36.3800 C   0  0  1  0  0  3  0  0  0  0  0  0
   33.2730   31.4910   35.4350 C   0  0  2  0  0  3  0  0  0  0  0  0
   33.8930   33.1030   33.8280 O   0  0  0  0  0  0  0  0  0  0  0  0
   34.7000   33.5230   34.1750 H   0  0  0  0  0  0  0  0  0  0  0  0
   33.8490   32.0870   37.7060 O   0  0  0  0  0  0  0  0  0  0  0  0
   32.8970   31.9190   37.8760 H   0  0  0  0  0  0  0  0  0  0  0  0
   33.2670   30.1190   35.6480 O   0  0  0  0  0  0  0  0  0  0  0  0
   32.5620   29.8280   36.2840 H   0  0  0  0  0  0  0  0  0  0  0  0
   35.0320   28.7210   32.2830 C   0  0  0  0  0  0  0  0  0  0  0  0
   34.6250   28.8030   33.3030 H   0  0  0  0  0  0  0  0  0  0  0  0
   34.1180   28.6320   31.6250 H   0  0  0  0  0  0  0  0  0  0  0  0
   35.6480   26.5450   31.2360 C   0  0  0  0  0  3  0  0  0  0  0  0
   35.8280   27.4910   32.1240 C   0  0  0  0  0  3  0  0  0  0  0  0
   38.5960   24.4150   30.8780 C   0  0  0  0  0  0  0  0  0  0  0  0
   38.1000   23.1740   31.3250 C   0  0  0  0  0  0  0  0  0  0  0  0
   36.7630   23.0980   31.7400 C   0  0  0  0  0  0  0  0  0  0  0  0
   35.9980   24.2420   31.6900 N   0  0  0  0  0  0  0  0  0  0  0  0
   36.5480   25.4070   31.2450 C   0  0  0  0  0  0  0  0  0  0  0  0
   37.8110   25.4880   30.8510 N   0  0  0  0  0  0  0  0  0  0  0  0
   39.6150   24.4820   30.5600 H   0  0  0  0  0  0  0  0  0  0  0  0
   38.6990   22.2790   31.3640 H   0  0  0  0  0  0  0  0  0  0  0  0
   36.1450   21.8620   32.2220 C   0  0  0  0  0  0  0  0  0  0  0  0
   35.2650   21.1270   31.4650 C   0  0  0  0  0  0  0  0  0  0  0  0
   34.8760   20.0260   32.2240 C   0  0  0  0  0  0  0  0  0  0  0  0
   35.5330   20.1370   33.4080 N   0  0  0  0  0  0  0  0  0  0  0  0
   36.2850   21.2310   33.3970 N   0  0  0  0  0  0  0  0  0  0  0  0
   34.9180   21.3280   30.4750 H   0  0  0  0  0  0  0  0  0  0  0  0
   34.1960   19.2240   31.9680 H   0  0  0  0  0  0  0  0  0  0  0  0
   35.5040   19.4970   34.2500 H   0  0  0  0  0  0  0  0  0  0  0  0
  1 23  1  0  0  0  0
  1  6  1  0  0  0  0
  2  1  2  0  0  0  0
  3  2  1  0  0  0  0
  3  4  2  0  0  0  0
  4  5  1  0  0  0  0
  5  6  2  0  0  0  0
  5 10  1  0  0  0  0
  7  2  1  0  0  0  0
  8  3  1  0  0  0  0
  9  4  1  0  0  0  0
 11 17  1  1  0  0  0
 11 16  1  0  0  0  0
 12  6  1  6  0  0  0
 12 11  1  0  0  0  0
 12 13  1  0  0  0  0
 13 14  1  0  0  0  0
 14 15  1  0  0  0  0
 15 19  1  1  0  0  0
 16 21  1  1  0  0  0
 16 15  1  0  0  0  0
 17 18  1  0  0  0  0
 19 20  1  0  0  0  0
 21 22  1  0  0  0  0
 23 24  1  0  0  0  0
 25 23  1  0  0  0  0
 26 32  1  0  0  0  0
 26 27  2  0  0  0  0
 27 23  1  0  0  0  0
 28 29  1  0  0  0  0
 29 35  1  0  0  0  0
 29 30  2  0  0  0  0
 30 36  1  0  0  0  0
 31 30  1  0  0  0  0
 32 31  2  0  0  0  0
 33 28  2  0  0  0  0
 33 32  1  0  0  0  0
 34 28  1  0  0  0  0
 36 40  2  0  0  0  0
 37 36  1  0  0  0  0
 37 38  2  0  0  0  0
 38 39  1  0  0  0  0
 39 43  1  0  0  0  0
 40 39  1  0  0  0  0
 41 37  1  0  0  0  0
 42 38  1  0  0  0  0
M  END
>  <minimizedAffinity>
-6.05875158

$$$$
