
 OpenBabel03272505313D

 43 46  0  0  1  0  0  0  0  0999 V2000
   37.3400   31.1550   47.1010 N   0  0  0  0  0  0  0  0  0  0  0  0
   36.6950   30.9340   45.9250 C   0  0  0  0  0  0  0  0  0  0  0  0
   37.1350   31.4650   44.7280 C   0  0  0  0  0  0  0  0  0  0  0  0
   38.2980   32.2600   44.7550 C   0  0  0  0  0  0  0  0  0  0  0  0
   38.7400   32.7660   43.6970 O   0  0  0  0  0  0  0  0  0  0  0  0
   38.9450   32.4780   45.9510 N   0  0  0  0  0  0  0  0  0  0  0  0
   38.4240   31.9150   47.0280 C   0  0  0  0  0  0  0  0  0  0  0  0
   39.0410   32.1370   48.0950 O   0  0  0  0  0  0  0  0  0  0  0  0
   35.7900   30.3160   45.8980 H   0  0  0  0  0  0  0  0  0  0  0  0
   37.2680   29.4040   50.3780 C   0  0  0  0  0  0  0  0  0  0  0  0
   37.7470   29.9540   49.1730 C   0  0  0  0  0  0  0  0  0  0  0  0
   36.8750   30.6070   48.2990 C   0  0  0  0  0  0  0  0  0  0  0  0
   35.5730   30.6900   48.6480 N   0  0  0  0  0  0  0  0  0  0  0  0
   35.0970   30.1620   49.8110 C   0  0  0  0  0  0  0  0  0  0  0  0
   35.9500   29.5280   50.6610 N   0  0  0  0  0  0  0  0  0  0  0  0
   37.9630   28.9120   51.0240 H   0  0  0  0  0  0  0  0  0  0  0  0
   38.7720   29.9080   48.8610 H   0  0  0  0  0  0  0  0  0  0  0  0
   34.0780   30.2160   50.1060 H   0  0  0  0  0  0  0  0  0  0  0  0
   36.4850   31.2610   43.4460 C   0  0  0  0  0  0  0  0  0  0  0  0
   36.8190   30.2480   42.5890 C   0  0  0  0  0  0  0  0  0  0  0  0
   36.2340   30.0150   41.3680 C   0  0  0  0  0  0  0  0  0  0  0  0
   35.2080   30.8820   40.9540 C   0  0  0  0  0  0  0  0  0  0  0  0
   34.8960   31.9010   41.8530 C   0  0  0  0  0  0  0  0  0  0  0  0
   35.5110   32.0660   43.0270 N   0  0  0  0  0  0  0  0  0  0  0  0
   37.6080   29.5530   42.8700 H   0  0  0  0  0  0  0  0  0  0  0  0
   36.4990   29.2150   40.6940 H   0  0  0  0  0  0  0  0  0  0  0  0
   34.6690   30.8110   40.0250 H   0  0  0  0  0  0  0  0  0  0  0  0
   34.4580   34.2710   41.3520 C   0  0  2  0  0  3  0  0  0  0  0  0
   33.8270   32.9090   41.5640 C   0  0  1  0  0  3  0  0  0  0  0  0
   33.0750   32.4890   40.4720 O   0  0  0  0  0  0  0  0  0  0  0  0
   32.0010   33.3130   40.2590 C   0  0  0  0  0  2  0  0  0  0  0  0
   32.3390   34.7950   40.2880 C   0  0  2  0  0  3  0  0  0  0  0  0
   33.8380   34.9050   40.1190 C   0  0  1  0  0  3  0  0  0  0  0  0
   35.8480   34.1830   41.2240 O   0  0  0  0  0  0  0  0  0  0  0  0
   36.2410   34.4640   42.1110 H   0  0  0  0  0  0  0  0  0  0  0  0
   32.0600   35.2400   41.5970 O   0  0  0  0  0  0  0  0  0  0  0  0
   31.1070   35.0090   41.8210 H   0  0  0  0  0  0  0  0  0  0  0  0
   34.2710   36.2270   40.0590 O   0  0  0  0  0  0  0  0  0  0  0  0
   34.6990   36.3780   39.1710 H   0  0  0  0  0  0  0  0  0  0  0  0
   40.1350   33.2930   45.9730 C   0  0  0  0  0  0  0  0  0  0  0  0
   40.0730   34.2750   45.0440 F   0  0  0  0  0  0  0  0  0  0  0  0
   41.3020   32.5760   45.7080 F   0  0  0  0  0  0  0  0  0  0  0  0
   40.2380   33.8970   47.2310 F   0  0  0  0  0  0  0  0  0  0  0  0
  1 12  1  0  0  0  0
  2  1  1  0  0  0  0
  3  4  1  0  0  0  0
  3  2  2  0  0  0  0
  4  6  1  0  0  0  0
  5  4  2  0  0  0  0
  6 40  1  0  0  0  0
  6  7  1  0  0  0  0
  7  1  1  0  0  0  0
  7  8  2  0  0  0  0
  9  2  1  0  0  0  0
 10 15  1  0  0  0  0
 10 16  1  0  0  0  0
 11 10  2  0  0  0  0
 12 13  2  0  0  0  0
 12 11  1  0  0  0  0
 13 14  1  0  0  0  0
 14 18  1  0  0  0  0
 14 15  2  0  0  0  0
 17 11  1  0  0  0  0
 19  3  1  0  0  0  0
 20 25  1  0  0  0  0
 20 19  2  0  0  0  0
 21 20  1  0  0  0  0
 22 21  2  0  0  0  0
 22 23  1  0  0  0  0
 23 24  2  0  0  0  0
 24 19  1  0  0  0  0
 26 21  1  0  0  0  0
 27 22  1  0  0  0  0
 28 34  1  6  0  0  0
 28 29  1  0  0  0  0
 29 23  1  6  0  0  0
 30 29  1  0  0  0  0
 31 32  1  0  0  0  0
 31 30  1  0  0  0  0
 32 36  1  1  0  0  0
 33 38  1  1  0  0  0
 33 32  1  0  0  0  0
 33 28  1  0  0  0  0
 34 35  1  0  0  0  0
 36 37  1  0  0  0  0
 39 38  1  0  0  0  0
 40 43  1  0  0  0  0
 41 40  1  0  0  0  0
 42 40  1  0  0  0  0
M  END
>  <minimizedAffinity>
-6.80771685

>  <minimizedRMSD>
0.472567171

$$$$
