
 OpenBabel03272500083D

 42 45  0  0  1  0  0  0  0  0999 V2000
   31.0310   27.3690   48.3700 C   0  0  0  0  0  0  0  0  0  0  0  0
   30.7440   27.8190   49.6380 C   0  0  0  0  0  0  0  0  0  0  0  0
   29.4810   28.2660   49.9670 C   0  0  0  0  0  0  0  0  0  0  0  0
   28.4870   28.2560   48.9800 C   0  0  0  0  0  0  0  0  0  0  0  0
   28.7860   27.7990   47.7000 C   0  0  0  0  0  0  0  0  0  0  0  0
   30.0450   27.3650   47.4170 C   0  0  0  0  0  0  0  0  0  0  0  0
   31.4770   27.8470   50.4320 H   0  0  0  0  0  0  0  0  0  0  0  0
   29.2640   28.6210   50.9740 H   0  0  0  0  0  0  0  0  0  0  0  0
   27.5230   28.6220   49.3120 H   0  0  0  0  0  0  0  0  0  0  0  0
   27.9790   27.8180   46.9920 H   0  0  0  0  0  0  0  0  0  0  0  0
   29.9330   25.4230   45.9310 C   0  0  1  0  0  3  0  0  0  0  0  0
   30.3340   26.8740   46.0680 C   0  0  1  0  0  3  0  0  0  0  0  0
   29.6810   27.6870   45.1490 O   0  0  0  0  0  0  0  0  0  0  0  0
   29.4090   27.0390   43.9490 C   0  0  0  0  0  2  0  0  0  0  0  0
   28.2570   26.0990   44.1940 C   0  0  1  0  0  3  0  0  0  0  0  0
   28.5690   25.2030   45.3690 C   0  0  1  0  0  3  0  0  0  0  0  0
   30.8740   24.6860   45.2310 O   0  0  0  0  0  0  0  0  0  0  0  0
   31.7820   25.0470   45.4200 H   0  0  0  0  0  0  0  0  0  0  0  0
   27.0870   26.7930   44.5040 O   0  0  0  0  0  0  0  0  0  0  0  0
   26.4060   26.0730   44.6910 H   0  0  0  0  0  0  0  0  0  0  0  0
   28.5240   23.8800   44.9020 O   0  0  0  0  0  0  0  0  0  0  0  0
   29.3640   23.3860   45.0670 H   0  0  0  0  0  0  0  0  0  0  0  0
   32.3440   26.9520   48.1880 O   0  0  0  0  0  0  0  0  0  0  0  0
   35.3040   28.7450   49.1730 C   0  0  0  0  0  0  0  0  0  0  0  0
   35.2360   29.9250   48.3910 C   0  0  0  0  0  0  0  0  0  0  0  0
   34.1520   30.0680   47.5350 C   0  0  0  0  0  0  0  0  0  0  0  0
   33.2240   29.0720   47.4960 N   0  0  0  0  0  0  0  0  0  0  0  0
   33.3120   27.9710   48.2420 C   0  0  0  0  0  0  0  0  0  0  0  0
   34.3620   27.7880   49.0990 N   0  0  0  0  0  0  0  0  0  0  0  0
   36.1540   28.6260   49.8480 H   0  0  0  0  0  0  0  0  0  0  0  0
   34.0910   30.9650   46.9360 H   0  0  0  0  0  0  0  0  0  0  0  0
   36.2760   30.8770   48.5330 N   0  0  0  0  0  0  0  0  0  0  0  0
   36.4920   31.5350   49.6680 C   0  0  0  0  0  0  0  0  0  0  0  0
   37.5330   32.4520   49.7290 C   0  0  0  0  0  0  0  0  0  0  0  0
   38.2620   32.6030   48.5930 C   0  0  0  0  0  0  0  0  0  0  0  0
   39.2190   33.4400   48.6330 O   0  0  0  0  0  0  0  0  0  0  0  0
   38.0790   31.9700   47.4510 N   0  0  0  0  0  0  0  0  0  0  0  0
   37.0510   31.0740   47.4120 C   0  0  0  0  0  0  0  0  0  0  0  0
   36.8550   30.4520   46.3210 O   0  0  0  0  0  0  0  0  0  0  0  0
   35.8410   31.3280   50.5110 H   0  0  0  0  0  0  0  0  0  0  0  0
   37.6920   32.9770   50.6620 H   0  0  0  0  0  0  0  0  0  0  0  0
   38.6810   32.1400   46.6200 H   0  0  0  0  0  0  0  0  0  0  0  0
  1  2  1  0  0  0  0
  2  3  2  0  0  0  0
  2  7  1  0  0  0  0
  3  8  1  0  0  0  0
  4  9  1  0  0  0  0
  4  3  1  0  0  0  0
  5  4  2  0  0  0  0
  6  5  1  0  0  0  0
  6  1  2  0  0  0  0
 10  5  1  0  0  0  0
 11 17  1  6  0  0  0
 11 12  1  0  0  0  0
 12  6  1  1  0  0  0
 13 12  1  0  0  0  0
 14 15  1  0  0  0  0
 14 13  1  0  0  0  0
 15 19  1  1  0  0  0
 15 16  1  0  0  0  0
 16 21  1  6  0  0  0
 16 11  1  0  0  0  0
 17 18  1  0  0  0  0
 19 20  1  0  0  0  0
 21 22  1  0  0  0  0
 23 28  1  0  0  0  0
 23  1  1  0  0  0  0
 24 30  1  0  0  0  0
 25 32  1  0  0  0  0
 25 24  2  0  0  0  0
 26 25  1  0  0  0  0
 27 26  2  0  0  0  0
 27 28  1  0  0  0  0
 28 29  2  0  0  0  0
 29 24  1  0  0  0  0
 31 26  1  0  0  0  0
 32 33  1  0  0  0  0
 33 34  2  0  0  0  0
 33 40  1  0  0  0  0
 34 41  1  0  0  0  0
 35 36  2  0  0  0  0
 35 34  1  0  0  0  0
 37 35  1  0  0  0  0
 38 37  1  0  0  0  0
 38 32  1  0  0  0  0
 39 38  2  0  0  0  0
 42 37  1  0  0  0  0
M  END
>  <minimizedAffinity>
-6.21575451

>  <minimizedRMSD>
1.3105756

$$$$
