
 OpenBabel03272509053D

 36 38  0  0  1  0  0  0  0  0999 V2000
   37.7540   30.5210   51.0400 C   0  0  0  0  0  0  0  0  0  0  0  0
   38.1270   31.2600   49.8770 C   0  0  0  0  0  0  0  0  0  0  0  0
   37.4300   31.0150   48.6750 C   0  0  0  0  0  0  0  0  0  0  0  0
   36.4350   30.0840   48.6920 N   0  0  0  0  0  0  0  0  0  0  0  0
   36.1270   29.4150   49.8210 C   0  0  0  0  0  0  0  0  0  0  0  0
   36.7670   29.6200   50.9850 N   0  0  0  0  0  0  0  0  0  0  0  0
   38.3360   30.7660   51.9160 H   0  0  0  0  0  0  0  0  0  0  0  0
   38.9220   32.0000   49.8770 H   0  0  0  0  0  0  0  0  0  0  0  0
   37.5730   30.8490   46.2750 C   0  0  2  0  0  3  0  0  0  0  0  0
   37.7840   31.7630   47.4400 C   0  0  2  0  0  3  0  0  0  0  0  0
   39.1040   32.1630   47.5900 O   0  0  0  0  0  0  0  0  0  0  0  0
   39.7110   32.6350   46.4630 C   0  0  0  0  0  2  0  0  0  0  0  0
   38.8560   32.6480   45.2290 C   0  0  2  0  0  3  0  0  0  0  0  0
   38.3600   31.2250   45.0410 C   0  0  2  0  0  3  0  0  0  0  0  0
   36.2190   30.8670   45.9360 O   0  0  0  0  0  0  0  0  0  0  0  0
   35.8580   29.9600   46.0080 H   0  0  0  0  0  0  0  0  0  0  0  0
   39.6900   32.9740   44.1540 O   0  0  0  0  0  0  0  0  0  0  0  0
   40.4590   32.3610   44.1330 H   0  0  0  0  0  0  0  0  0  0  0  0
   37.6470   31.1000   43.8690 O   0  0  0  0  0  0  0  0  0  0  0  0
   36.8260   31.6390   43.8840 H   0  0  0  0  0  0  0  0  0  0  0  0
   35.0530   28.4400   49.7030 C   0  0  0  0  0  3  0  0  0  0  0  0
   34.4460   28.3280   48.5680 C   0  0  0  0  0  3  0  0  0  0  0  0
   33.3510   27.4160   48.1970 C   0  0  0  0  0  0  0  0  0  0  0  0
   33.1300   26.7770   49.0990 H   0  0  0  0  0  0  0  0  0  0  0  0
   32.4050   27.9390   47.9700 H   0  0  0  0  0  0  0  0  0  0  0  0
   33.7160   26.4460   47.1190 C   0  0  0  0  0  0  0  0  0  0  0  0
   33.9440   25.0990   47.2870 C   0  0  0  0  0  0  0  0  0  0  0  0
   34.2740   24.3220   46.1880 C   0  0  0  0  0  0  0  0  0  0  0  0
   34.3850   24.8610   44.9130 C   0  0  0  0  0  0  0  0  0  0  0  0
   34.1600   26.2050   44.7400 C   0  0  0  0  0  0  0  0  0  0  0  0
   33.8280   26.9930   45.8380 C   0  0  0  0  0  0  0  0  0  0  0  0
   33.8460   24.7230   48.2970 H   0  0  0  0  0  0  0  0  0  0  0  0
   34.4270   23.2830   46.4480 H   0  0  0  0  0  0  0  0  0  0  0  0
   34.6490   24.1500   44.1420 H   0  0  0  0  0  0  0  0  0  0  0  0
   34.2540   26.5940   43.7360 H   0  0  0  0  0  0  0  0  0  0  0  0
   33.6670   28.0400   45.6100 H   0  0  0  0  0  0  0  0  0  0  0  0
  1  7  1  0  0  0  0
  2  1  2  0  0  0  0
  3  4  2  0  0  0  0
  3  2  1  0  0  0  0
  4  5  1  0  0  0  0
  5  6  2  0  0  0  0
  6  1  1  0  0  0  0
  8  2  1  0  0  0  0
  9 15  1  6  0  0  0
  9 10  1  0  0  0  0
 10 11  1  0  0  0  0
 10  3  1  1  0  0  0
 12 11  1  0  0  0  0
 13 17  1  6  0  0  0
 13 12  1  0  0  0  0
 14 19  1  6  0  0  0
 14 13  1  0  0  0  0
 14  9  1  0  0  0  0
 15 16  1  0  0  0  0
 18 17  1  0  0  0  0
 19 20  1  0  0  0  0
 21  5  1  0  0  0  0
 22 21  2  0  0  0  0
 23 22  1  0  0  0  0
 23 24  1  0  0  0  0
 25 23  1  0  0  0  0
 26 27  1  0  0  0  0
 26 23  1  0  0  0  0
 27 32  1  0  0  0  0
 28 33  1  0  0  0  0
 28 27  2  0  0  0  0
 29 28  1  0  0  0  0
 30 29  2  0  0  0  0
 30 31  1  0  0  0  0
 31 26  2  0  0  0  0
 34 29  1  0  0  0  0
 35 30  1  0  0  0  0
 36 31  1  0  0  0  0
M  END
>  <minimizedAffinity>
-6.44252348

>  <minimizedRMSD>
1.06298959

$$$$
