
 OpenBabel03272509053D

 36 38  0  0  1  0  0  0  0  0999 V2000
   37.8260   30.5290   50.9700 C   0  0  0  0  0  0  0  0  0  0  0  0
   38.1840   31.2700   49.8040 C   0  0  0  0  0  0  0  0  0  0  0  0
   37.4690   31.0290   48.6110 C   0  0  0  0  0  0  0  0  0  0  0  0
   36.4740   30.0980   48.6400 N   0  0  0  0  0  0  0  0  0  0  0  0
   36.1810   29.4280   49.7720 C   0  0  0  0  0  0  0  0  0  0  0  0
   36.8380   29.6290   50.9270 N   0  0  0  0  0  0  0  0  0  0  0  0
   38.4210   30.7720   51.8380 H   0  0  0  0  0  0  0  0  0  0  0  0
   38.9790   32.0100   49.7940 H   0  0  0  0  0  0  0  0  0  0  0  0
   37.5930   30.8620   46.2110 C   0  0  2  0  0  3  0  0  0  0  0  0
   37.8060   31.7790   47.3730 C   0  0  2  0  0  3  0  0  0  0  0  0
   39.1250   32.1900   47.5120 O   0  0  0  0  0  0  0  0  0  0  0  0
   39.7180   32.6650   46.3790 C   0  0  0  0  0  2  0  0  0  0  0  0
   38.8530   32.6700   45.1530 C   0  0  2  0  0  3  0  0  0  0  0  0
   38.3660   31.2430   44.9690 C   0  0  2  0  0  3  0  0  0  0  0  0
   36.2370   30.8680   45.8820 O   0  0  0  0  0  0  0  0  0  0  0  0
   35.8840   29.9580   45.9580 H   0  0  0  0  0  0  0  0  0  0  0  0
   39.6750   33.0040   44.0710 O   0  0  0  0  0  0  0  0  0  0  0  0
   40.4480   32.3970   44.0420 H   0  0  0  0  0  0  0  0  0  0  0  0
   37.6440   31.1130   43.8030 O   0  0  0  0  0  0  0  0  0  0  0  0
   36.8200   31.6450   43.8260 H   0  0  0  0  0  0  0  0  0  0  0  0
   35.1050   28.4530   49.6670 C   0  0  0  0  0  3  0  0  0  0  0  0
   34.4830   28.3430   48.5400 C   0  0  0  0  0  3  0  0  0  0  0  0
   33.3830   27.4320   48.1830 C   0  0  0  0  0  0  0  0  0  0  0  0
   33.1680   26.7970   49.0890 H   0  0  0  0  0  0  0  0  0  0  0  0
   32.4360   27.9560   47.9620 H   0  0  0  0  0  0  0  0  0  0  0  0
   33.7360   26.4570   47.1050 C   0  0  0  0  0  0  0  0  0  0  0  0
   33.9620   25.1100   47.2770 C   0  0  0  0  0  0  0  0  0  0  0  0
   34.2800   24.3270   46.1780 C   0  0  0  0  0  0  0  0  0  0  0  0
   34.3810   24.8610   44.9000 C   0  0  0  0  0  0  0  0  0  0  0  0
   34.1570   26.2050   44.7230 C   0  0  0  0  0  0  0  0  0  0  0  0
   33.8370   26.9980   45.8210 C   0  0  0  0  0  0  0  0  0  0  0  0
   33.8730   24.7390   48.2890 H   0  0  0  0  0  0  0  0  0  0  0  0
   34.4340   23.2890   46.4410 H   0  0  0  0  0  0  0  0  0  0  0  0
   34.6360   24.1460   44.1290 H   0  0  0  0  0  0  0  0  0  0  0  0
   34.2430   26.5890   43.7170 H   0  0  0  0  0  0  0  0  0  0  0  0
   33.6770   28.0440   45.5900 H   0  0  0  0  0  0  0  0  0  0  0  0
  1  7  1  0  0  0  0
  2  1  2  0  0  0  0
  3  4  2  0  0  0  0
  3  2  1  0  0  0  0
  4  5  1  0  0  0  0
  5  6  2  0  0  0  0
  6  1  1  0  0  0  0
  8  2  1  0  0  0  0
  9 15  1  6  0  0  0
  9 10  1  0  0  0  0
 10 11  1  0  0  0  0
 10  3  1  1  0  0  0
 12 11  1  0  0  0  0
 13 17  1  6  0  0  0
 13 12  1  0  0  0  0
 14 19  1  6  0  0  0
 14 13  1  0  0  0  0
 14  9  1  0  0  0  0
 15 16  1  0  0  0  0
 18 17  1  0  0  0  0
 19 20  1  0  0  0  0
 21  5  1  0  0  0  0
 22 21  2  0  0  0  0
 23 22  1  0  0  0  0
 23 24  1  0  0  0  0
 25 23  1  0  0  0  0
 26 27  1  0  0  0  0
 26 23  1  0  0  0  0
 27 32  1  0  0  0  0
 28 33  1  0  0  0  0
 28 27  2  0  0  0  0
 29 28  1  0  0  0  0
 30 29  2  0  0  0  0
 30 31  1  0  0  0  0
 31 26  2  0  0  0  0
 34 29  1  0  0  0  0
 35 30  1  0  0  0  0
 36 31  1  0  0  0  0
M  END
>  <minimizedAffinity>
-6.43668699

>  <minimizedRMSD>
1.07850945

$$$$
