
 OpenBabel03272506153D

 27 28  0  0  1  0  0  0  0  0999 V2000
   37.0420   25.9470   33.0860 C   0  0  0  0  0  0  0  0  0  0  0  0
   37.8290   25.5960   34.1820 C   0  0  0  0  0  0  0  0  0  0  0  0
   38.2050   24.2610   34.3140 C   0  0  0  0  0  0  0  0  0  0  0  0
   37.7880   23.3660   33.3730 N   0  0  0  0  0  0  0  0  0  0  0  0
   37.0240   23.7440   32.3220 C   0  0  0  0  0  0  0  0  0  0  0  0
   36.6500   25.0280   32.1740 N   0  0  0  0  0  0  0  0  0  0  0  0
   38.0880   26.3990   34.8490 H   0  0  0  0  0  0  0  0  0  0  0  0
   36.7140   22.9920   31.5950 H   0  0  0  0  0  0  0  0  0  0  0  0
   38.2290   23.2130   36.5670 C   0  0  2  0  0  3  0  0  0  0  0  0
   39.0400   23.9060   35.4820 C   0  0  1  0  0  3  0  0  0  0  0  0
   40.0320   22.9690   35.1480 O   0  0  0  0  0  0  0  0  0  0  0  0
   40.9800   23.0340   36.1470 C   0  0  0  0  0  2  0  0  0  0  0  0
   40.4720   22.8190   37.5220 C   0  0  1  0  0  3  0  0  0  0  0  0
   39.0900   23.2810   37.8120 C   0  0  2  0  0  3  0  0  0  0  0  0
   38.1100   21.8550   36.2330 O   0  0  0  0  0  0  0  0  0  0  0  0
   37.1660   21.5590   36.2480 H   0  0  0  0  0  0  0  0  0  0  0  0
   40.6390   21.4810   37.9480 O   0  0  0  0  0  0  0  0  0  0  0  0
   40.3180   21.4940   38.9020 H   0  0  0  0  0  0  0  0  0  0  0  0
   38.5590   22.5240   38.8510 O   0  0  0  0  0  0  0  0  0  0  0  0
   38.7850   22.9820   39.6850 H   0  0  0  0  0  0  0  0  0  0  0  0
   36.5730   27.2220   32.7880 O   0  0  0  0  0  0  0  0  0  0  0  0
   35.9360   29.2210   31.1210 O   0  0  0  0  0  0  0  0  0  0  0  0
   36.7080   27.9120   31.2300 P   0  0  0  0  0  0  0  0  0  0  0  0
   38.3610   28.1350   30.9440 O   0  0  0  0  0  0  0  0  0  0  0  0
   38.7390   27.3010   30.5730 H   0  0  0  0  0  0  0  0  0  0  0  0
   36.0330   26.8560   30.0890 O   0  0  0  0  0  0  0  0  0  0  0  0
   35.1830   26.4940   30.4270 H   0  0  0  0  0  0  0  0  0  0  0  0
  1  2  1  0  0  0  0
  2  3  2  0  0  0  0
  2  7  1  0  0  0  0
  4  3  1  0  0  0  0
  5  4  2  0  0  0  0
  6  5  1  0  0  0  0
  6  1  2  0  0  0  0
  8  5  1  0  0  0  0
  9 15  1  6  0  0  0
  9 14  1  0  0  0  0
 10  3  1  6  0  0  0
 10  9  1  0  0  0  0
 11 10  1  0  0  0  0
 11 12  1  0  0  0  0
 12 13  1  0  0  0  0
 13 14  1  0  0  0  0
 13 17  1  6  0  0  0
 14 19  1  1  0  0  0
 15 16  1  0  0  0  0
 17 18  1  0  0  0  0
 19 20  1  0  0  0  0
 21  1  1  0  0  0  0
 22 23  2  0  0  0  0
 23 21  1  0  0  0  0
 24 23  1  0  0  0  0
 25 24  1  0  0  0  0
 26 27  1  0  0  0  0
 26 23  1  0  0  0  0
M  END
>  <minimizedAffinity>
-6.07536554

$$$$

 OpenBabel03272506153D

 27 28  0  0  1  0  0  0  0  0999 V2000
   37.2510   23.4360   32.2990 C   0  0  0  0  0  0  0  0  0  0  0  0
   38.0330   23.1340   33.4130 C   0  0  0  0  0  0  0  0  0  0  0  0
   38.2990   24.1590   34.3190 C   0  0  0  0  0  0  0  0  0  0  0  0
   37.7880   25.3990   34.0760 N   0  0  0  0  0  0  0  0  0  0  0  0
   37.0320   25.6550   32.9830 C   0  0  0  0  0  0  0  0  0  0  0  0
   36.7610   24.6800   32.0950 N   0  0  0  0  0  0  0  0  0  0  0  0
   38.3730   22.1160   33.4850 H   0  0  0  0  0  0  0  0  0  0  0  0
   36.6450   26.6630   32.8300 H   0  0  0  0  0  0  0  0  0  0  0  0
   38.3100   23.1780   36.6020 C   0  0  2  0  0  3  0  0  0  0  0  0
   39.1300   23.8220   35.4960 C   0  0  1  0  0  3  0  0  0  0  0  0
   40.1020   22.8550   35.1870 O   0  0  0  0  0  0  0  0  0  0  0  0
   41.0540   22.9300   36.1800 C   0  0  0  0  0  2  0  0  0  0  0  0
   40.5460   22.7660   37.5630 C   0  0  1  0  0  3  0  0  0  0  0  0
   39.1750   23.2660   37.8420 C   0  0  2  0  0  3  0  0  0  0  0  0
   38.1610   21.8140   36.3100 O   0  0  0  0  0  0  0  0  0  0  0  0
   37.2110   21.5390   36.3360 H   0  0  0  0  0  0  0  0  0  0  0  0
   40.6870   21.4380   38.0280 O   0  0  0  0  0  0  0  0  0  0  0  0
   40.3690   21.4860   38.9820 H   0  0  0  0  0  0  0  0  0  0  0  0
   38.6320   22.5510   38.9050 O   0  0  0  0  0  0  0  0  0  0  0  0
   38.8710   23.0290   39.7240 H   0  0  0  0  0  0  0  0  0  0  0  0
   36.8800   22.5500   31.2930 O   0  0  0  0  0  0  0  0  0  0  0  0
   35.9460   20.2110   30.3790 O   0  0  0  0  0  0  0  0  0  0  0  0
   36.5540   20.9000   31.5940 P   0  0  0  0  0  0  0  0  0  0  0  0
   38.0240   20.1930   32.0420 O   0  0  0  0  0  0  0  0  0  0  0  0
   38.1560   20.3110   33.0140 H   0  0  0  0  0  0  0  0  0  0  0  0
   35.4150   20.7720   32.8430 O   0  0  0  0  0  0  0  0  0  0  0  0
   34.6960   21.4300   32.7110 H   0  0  0  0  0  0  0  0  0  0  0  0
  1  2  1  0  0  0  0
  2  7  1  0  0  0  0
  2  3  2  0  0  0  0
  4  3  1  0  0  0  0
  5  4  2  0  0  0  0
  6  1  2  0  0  0  0
  6  5  1  0  0  0  0
  8  5  1  0  0  0  0
  9 15  1  6  0  0  0
  9 14  1  0  0  0  0
 10  3  1  6  0  0  0
 10  9  1  0  0  0  0
 11 10  1  0  0  0  0
 11 12  1  0  0  0  0
 12 13  1  0  0  0  0
 13 14  1  0  0  0  0
 13 17  1  6  0  0  0
 14 19  1  1  0  0  0
 15 16  1  0  0  0  0
 17 18  1  0  0  0  0
 19 20  1  0  0  0  0
 21 23  1  0  0  0  0
 21  1  1  0  0  0  0
 22 23  2  0  0  0  0
 23 24  1  0  0  0  0
 23 26  1  0  0  0  0
 24 25  1  0  0  0  0
 27 26  1  0  0  0  0
M  END
>  <minimizedAffinity>
-5.64842796

$$$$

 OpenBabel03272506153D

 27 28  0  0  1  0  0  0  0  0999 V2000
   38.5280   24.0340   35.5840 C   0  0  0  0  0  0  0  0  0  0  0  0
   38.0570   24.9400   34.6360 C   0  0  0  0  0  0  0  0  0  0  0  0
   38.9890   25.5520   33.7990 C   0  0  0  0  0  0  0  0  0  0  0  0
   40.3070   25.2380   33.9460 N   0  0  0  0  0  0  0  0  0  0  0  0
   40.7280   24.3520   34.8780 C   0  0  0  0  0  0  0  0  0  0  0  0
   39.8450   23.7490   35.6970 N   0  0  0  0  0  0  0  0  0  0  0  0
   36.9930   25.0980   34.6260 H   0  0  0  0  0  0  0  0  0  0  0  0
   41.7930   24.1320   34.9590 H   0  0  0  0  0  0  0  0  0  0  0  0
   38.7920   26.0740   31.3780 C   0  0  2  0  0  3  0  0  0  0  0  0
   38.4720   26.5110   32.7990 C   0  0  1  0  0  3  0  0  0  0  0  0
   37.0690   26.5860   32.8250 O   0  0  0  0  0  0  0  0  0  0  0  0
   36.7310   27.7640   32.1960 C   0  0  0  0  0  2  0  0  0  0  0  0
   37.2580   27.9270   30.8200 C   0  0  1  0  0  3  0  0  0  0  0  0
   38.5750   27.3060   30.5240 C   0  0  2  0  0  3  0  0  0  0  0  0
   37.8330   25.1310   30.9760 O   0  0  0  0  0  0  0  0  0  0  0  0
   38.2570   24.3070   30.6320 H   0  0  0  0  0  0  0  0  0  0  0  0
   36.3100   27.5530   29.8400 O   0  0  0  0  0  0  0  0  0  0  0  0
   36.7690   27.7720   28.9710 H   0  0  0  0  0  0  0  0  0  0  0  0
   38.6530   27.0160   29.1650 O   0  0  0  0  0  0  0  0  0  0  0  0
   39.0300   27.8030   28.7250 H   0  0  0  0  0  0  0  0  0  0  0  0
   37.7540   23.3280   36.5000 O   0  0  0  0  0  0  0  0  0  0  0  0
   38.0730   24.6940   38.7830 O   0  0  0  0  0  0  0  0  0  0  0  0
   38.1040   23.2980   38.1720 P   0  0  0  0  0  0  0  0  0  0  0  0
   36.9570   22.2790   38.8850 O   0  0  0  0  0  0  0  0  0  0  0  0
   37.2790   21.3460   38.8330 H   0  0  0  0  0  0  0  0  0  0  0  0
   39.6730   22.7020   38.4060 O   0  0  0  0  0  0  0  0  0  0  0  0
   40.2870   23.1060   37.7520 H   0  0  0  0  0  0  0  0  0  0  0  0
  1  6  1  0  0  0  0
  1 21  1  0  0  0  0
  2  1  2  0  0  0  0
  3  4  2  0  0  0  0
  3  2  1  0  0  0  0
  4  5  1  0  0  0  0
  5  8  1  0  0  0  0
  5  6  2  0  0  0  0
  7  2  1  0  0  0  0
  9 15  1  6  0  0  0
  9 10  1  0  0  0  0
 10 11  1  0  0  0  0
 10  3  1  1  0  0  0
 12 11  1  0  0  0  0
 13 17  1  6  0  0  0
 13 12  1  0  0  0  0
 14 19  1  6  0  0  0
 14 13  1  0  0  0  0
 14  9  1  0  0  0  0
 16 15  1  0  0  0  0
 18 17  1  0  0  0  0
 20 19  1  0  0  0  0
 21 23  1  0  0  0  0
 23 26  1  0  0  0  0
 23 22  2  0  0  0  0
 23 24  1  0  0  0  0
 25 24  1  0  0  0  0
 27 26  1  0  0  0  0
M  END
>  <minimizedAffinity>
-5.47164965

$$$$

 OpenBabel03272506153D

 27 28  0  0  1  0  0  0  0  0999 V2000
   38.6280   23.6520   34.8230 C   0  0  0  0  0  0  0  0  0  0  0  0
   38.4590   24.8260   34.0910 C   0  0  0  0  0  0  0  0  0  0  0  0
   37.8470   24.7330   32.8420 C   0  0  0  0  0  0  0  0  0  0  0  0
   37.4470   23.5090   32.3970 N   0  0  0  0  0  0  0  0  0  0  0  0
   37.6280   22.3890   33.1360 C   0  0  0  0  0  0  0  0  0  0  0  0
   38.2160   22.4560   34.3460 N   0  0  0  0  0  0  0  0  0  0  0  0
   38.8200   25.7250   34.5580 H   0  0  0  0  0  0  0  0  0  0  0  0
   37.2920   21.4310   32.7390 H   0  0  0  0  0  0  0  0  0  0  0  0
   38.6360   26.0710   30.9020 C   0  0  2  0  0  3  0  0  0  0  0  0
   37.6760   25.9890   32.0790 C   0  0  1  0  0  3  0  0  0  0  0  0
   36.4040   26.0690   31.4870 O   0  0  0  0  0  0  0  0  0  0  0  0
   36.2000   27.3970   31.1830 C   0  0  0  0  0  2  0  0  0  0  0  0
   37.2360   28.0230   30.3280 C   0  0  1  0  0  3  0  0  0  0  0  0
   38.6280   27.5260   30.4830 C   0  0  2  0  0  3  0  0  0  0  0  0
   38.0920   25.3410   29.8330 O   0  0  0  0  0  0  0  0  0  0  0  0
   38.7400   24.6830   29.4770 H   0  0  0  0  0  0  0  0  0  0  0  0
   36.8680   28.0280   28.9630 O   0  0  0  0  0  0  0  0  0  0  0  0
   37.6180   28.5300   28.5170 H   0  0  0  0  0  0  0  0  0  0  0  0
   39.3240   27.7280   29.2950 O   0  0  0  0  0  0  0  0  0  0  0  0
   39.7340   28.6130   29.3490 H   0  0  0  0  0  0  0  0  0  0  0  0
   39.2120   23.5470   36.0810 O   0  0  0  0  0  0  0  0  0  0  0  0
   37.9170   24.6750   38.1380 O   0  0  0  0  0  0  0  0  0  0  0  0
   38.2940   23.3410   37.5080 P   0  0  0  0  0  0  0  0  0  0  0  0
   36.9260   22.4450   37.0740 O   0  0  0  0  0  0  0  0  0  0  0  0
   37.1440   21.4830   37.1130 H   0  0  0  0  0  0  0  0  0  0  0  0
   39.2230   22.5080   38.6560 O   0  0  0  0  0  0  0  0  0  0  0  0
   40.1390   22.8680   38.6720 H   0  0  0  0  0  0  0  0  0  0  0  0
  1 21  1  0  0  0  0
  2  7  1  0  0  0  0
  2  1  2  0  0  0  0
  3  2  1  0  0  0  0
  4  3  2  0  0  0  0
  4  5  1  0  0  0  0
  5  6  2  0  0  0  0
  6  1  1  0  0  0  0
  8  5  1  0  0  0  0
  9 15  1  6  0  0  0
  9 10  1  0  0  0  0
 10  3  1  6  0  0  0
 11 10  1  0  0  0  0
 12 11  1  0  0  0  0
 13 17  1  6  0  0  0
 13 14  1  0  0  0  0
 13 12  1  0  0  0  0
 14 19  1  6  0  0  0
 14  9  1  0  0  0  0
 16 15  1  0  0  0  0
 18 17  1  0  0  0  0
 19 20  1  0  0  0  0
 21 23  1  0  0  0  0
 23 22  2  0  0  0  0
 23 26  1  0  0  0  0
 24 25  1  0  0  0  0
 24 23  1  0  0  0  0
 26 27  1  0  0  0  0
M  END
>  <minimizedAffinity>
-5.31595087

$$$$

 OpenBabel03272506153D

 27 28  0  0  1  0  0  0  0  0999 V2000
   35.3870   30.3580   34.2510 C   0  0  0  0  0  0  0  0  0  0  0  0
   35.7850   29.0600   33.9350 C   0  0  0  0  0  0  0  0  0  0  0  0
   36.3150   28.8300   32.6670 C   0  0  0  0  0  0  0  0  0  0  0  0
   36.4180   29.8780   31.8000 N   0  0  0  0  0  0  0  0  0  0  0  0
   36.0210   31.1250   32.1420 C   0  0  0  0  0  0  0  0  0  0  0  0
   35.5070   31.3700   33.3620 N   0  0  0  0  0  0  0  0  0  0  0  0
   35.6490   28.3270   34.7110 H   0  0  0  0  0  0  0  0  0  0  0  0
   36.1220   31.9320   31.4150 H   0  0  0  0  0  0  0  0  0  0  0  0
   35.7820   26.7830   31.3650 C   0  0  2  0  0  3  0  0  0  0  0  0
   36.7320   27.4470   32.3490 C   0  0  1  0  0  3  0  0  0  0  0  0
   37.9760   27.4160   31.6960 O   0  0  0  0  0  0  0  0  0  0  0  0
   38.4520   26.1300   31.8310 C   0  0  0  0  0  2  0  0  0  0  0  0
   37.5520   25.0610   31.3350 C   0  0  1  0  0  3  0  0  0  0  0  0
   36.0910   25.3020   31.4520 C   0  0  2  0  0  3  0  0  0  0  0  0
   36.1290   27.1910   30.0670 O   0  0  0  0  0  0  0  0  0  0  0  0
   35.3470   27.5490   29.5780 H   0  0  0  0  0  0  0  0  0  0  0  0
   37.8780   24.6580   30.0200 O   0  0  0  0  0  0  0  0  0  0  0  0
   37.2420   23.8990   29.8400 H   0  0  0  0  0  0  0  0  0  0  0  0
   35.4240   24.5750   30.4710 O   0  0  0  0  0  0  0  0  0  0  0  0
   35.2150   23.7000   30.8540 H   0  0  0  0  0  0  0  0  0  0  0  0
   34.8400   30.7770   35.4590 O   0  0  0  0  0  0  0  0  0  0  0  0
   34.0170   33.3270   35.4710 O   0  0  0  0  0  0  0  0  0  0  0  0
   35.0410   32.3640   36.0600 P   0  0  0  0  0  0  0  0  0  0  0  0
   34.9060   32.2620   37.7430 O   0  0  0  0  0  0  0  0  0  0  0  0
   35.7900   32.0410   38.1250 H   0  0  0  0  0  0  0  0  0  0  0  0
   36.5680   32.9450   35.6090 O   0  0  0  0  0  0  0  0  0  0  0  0
   36.7510   32.7170   34.6700 H   0  0  0  0  0  0  0  0  0  0  0  0
  1 21  1  0  0  0  0
  2  1  1  0  0  0  0
  2  7  1  0  0  0  0
  3  2  2  0  0  0  0
  4  5  2  0  0  0  0
  4  3  1  0  0  0  0
  5  6  1  0  0  0  0
  6  1  2  0  0  0  0
  8  5  1  0  0  0  0
  9 15  1  6  0  0  0
  9 14  1  0  0  0  0
  9 10  1  0  0  0  0
 10  3  1  6  0  0  0
 11 12  1  0  0  0  0
 11 10  1  0  0  0  0
 13 17  1  6  0  0  0
 13 14  1  0  0  0  0
 13 12  1  0  0  0  0
 14 19  1  6  0  0  0
 16 15  1  0  0  0  0
 18 17  1  0  0  0  0
 19 20  1  0  0  0  0
 21 23  1  0  0  0  0
 22 23  2  0  0  0  0
 23 24  1  0  0  0  0
 24 25  1  0  0  0  0
 26 23  1  0  0  0  0
 27 26  1  0  0  0  0
M  END
>  <minimizedAffinity>
-5.25217199

$$$$

 OpenBabel03272506153D

 27 28  0  0  1  0  0  0  0  0999 V2000
   38.2910   25.9780   32.5870 C   0  0  0  0  0  0  0  0  0  0  0  0
   38.9690   25.5780   33.7370 C   0  0  0  0  0  0  0  0  0  0  0  0
   38.7280   24.2940   34.2230 C   0  0  0  0  0  0  0  0  0  0  0  0
   37.8470   23.4960   33.5570 N   0  0  0  0  0  0  0  0  0  0  0  0
   37.2070   23.9190   32.4420 C   0  0  0  0  0  0  0  0  0  0  0  0
   37.4250   25.1550   31.9550 N   0  0  0  0  0  0  0  0  0  0  0  0
   39.6360   26.3060   34.1650 H   0  0  0  0  0  0  0  0  0  0  0  0
   36.5100   23.2450   31.9430 H   0  0  0  0  0  0  0  0  0  0  0  0
   38.5330   23.2340   36.4620 C   0  0  2  0  0  3  0  0  0  0  0  0
   39.4560   23.8860   35.4440 C   0  0  1  0  0  3  0  0  0  0  0  0
   40.4160   22.8960   35.1720 O   0  0  0  0  0  0  0  0  0  0  0  0
   41.2920   22.9010   36.2360 C   0  0  0  0  0  2  0  0  0  0  0  0
   40.6760   22.7070   37.5700 C   0  0  1  0  0  3  0  0  0  0  0  0
   39.3050   23.2460   37.7650 C   0  0  2  0  0  3  0  0  0  0  0  0
   38.3610   21.8870   36.1080 O   0  0  0  0  0  0  0  0  0  0  0  0
   37.4030   21.6460   36.0530 H   0  0  0  0  0  0  0  0  0  0  0  0
   40.7360   21.3600   37.9940 O   0  0  0  0  0  0  0  0  0  0  0  0
   40.3490   21.3860   38.9230 H   0  0  0  0  0  0  0  0  0  0  0  0
   38.6590   22.5150   38.7570 O   0  0  0  0  0  0  0  0  0  0  0  0
   38.8510   22.9550   39.6090 H   0  0  0  0  0  0  0  0  0  0  0  0
   38.4020   27.2140   31.9580 O   0  0  0  0  0  0  0  0  0  0  0  0
   38.8120   28.7240   29.7830 O   0  0  0  0  0  0  0  0  0  0  0  0
   39.2000   27.4160   30.4600 P   0  0  0  0  0  0  0  0  0  0  0  0
   40.8590   27.3480   30.7870 O   0  0  0  0  0  0  0  0  0  0  0  0
   41.1510   26.4050   30.7790 H   0  0  0  0  0  0  0  0  0  0  0  0
   38.7390   26.1700   29.4070 O   0  0  0  0  0  0  0  0  0  0  0  0
   37.7680   26.0230   29.4650 H   0  0  0  0  0  0  0  0  0  0  0  0
  1  2  1  0  0  0  0
  2  7  1  0  0  0  0
  2  3  2  0  0  0  0
  4  3  1  0  0  0  0
  5  4  2  0  0  0  0
  6  5  1  0  0  0  0
  6  1  2  0  0  0  0
  8  5  1  0  0  0  0
  9 15  1  6  0  0  0
  9 14  1  0  0  0  0
 10  3  1  6  0  0  0
 10  9  1  0  0  0  0
 11 10  1  0  0  0  0
 11 12  1  0  0  0  0
 12 13  1  0  0  0  0
 13 14  1  0  0  0  0
 13 17  1  6  0  0  0
 14 19  1  1  0  0  0
 16 15  1  0  0  0  0
 17 18  1  0  0  0  0
 19 20  1  0  0  0  0
 21  1  1  0  0  0  0
 22 23  2  0  0  0  0
 23 24  1  0  0  0  0
 23 21  1  0  0  0  0
 25 24  1  0  0  0  0
 26 27  1  0  0  0  0
 26 23  1  0  0  0  0
M  END
>  <minimizedAffinity>
-5.24029016

$$$$

 OpenBabel03272506153D

 27 28  0  0  1  0  0  0  0  0999 V2000
   38.5590   23.3140   34.8410 C   0  0  0  0  0  0  0  0  0  0  0  0
   38.2940   22.0510   34.3130 C   0  0  0  0  0  0  0  0  0  0  0  0
   37.6470   21.9820   33.0810 C   0  0  0  0  0  0  0  0  0  0  0  0
   37.3050   23.1440   32.4540 N   0  0  0  0  0  0  0  0  0  0  0  0
   37.5790   24.3530   32.9970 C   0  0  0  0  0  0  0  0  0  0  0  0
   38.2040   24.4420   34.1870 N   0  0  0  0  0  0  0  0  0  0  0  0
   38.6160   21.2160   34.9100 H   0  0  0  0  0  0  0  0  0  0  0  0
   37.2860   25.2550   32.4590 H   0  0  0  0  0  0  0  0  0  0  0  0
   35.8830   20.3890   32.3560 C   0  0  2  0  0  3  0  0  0  0  0  0
   37.3730   20.6350   32.5350 C   0  0  1  0  0  3  0  0  0  0  0  0
   37.9020   20.4790   31.2430 O   0  0  0  0  0  0  0  0  0  0  0  0
   37.9720   19.1220   31.0130 C   0  0  0  0  0  2  0  0  0  0  0  0
   36.6970   18.3820   31.1700 C   0  0  1  0  0  3  0  0  0  0  0  0
   35.7440   18.8900   32.1900 C   0  0  2  0  0  3  0  0  0  0  0  0
   35.4800   20.9680   31.1420 O   0  0  0  0  0  0  0  0  0  0  0  0
   34.7040   21.5690   31.2670 H   0  0  0  0  0  0  0  0  0  0  0  0
   36.0360   18.1920   29.9350 O   0  0  0  0  0  0  0  0  0  0  0  0
   35.2360   17.6310   30.1780 H   0  0  0  0  0  0  0  0  0  0  0  0
   34.4500   18.5260   31.8330 O   0  0  0  0  0  0  0  0  0  0  0  0
   34.2740   17.6540   32.2390 H   0  0  0  0  0  0  0  0  0  0  0  0
   39.1930   23.5800   36.0500 O   0  0  0  0  0  0  0  0  0  0  0  0
   37.0220   22.8240   37.4260 O   0  0  0  0  0  0  0  0  0  0  0  0
   38.3860   23.4900   37.5530 P   0  0  0  0  0  0  0  0  0  0  0  0
   39.4050   22.6320   38.5960 O   0  0  0  0  0  0  0  0  0  0  0  0
   40.0440   23.2610   39.0130 H   0  0  0  0  0  0  0  0  0  0  0  0
   38.1070   25.0580   38.1340 O   0  0  0  0  0  0  0  0  0  0  0  0
   37.7870   25.6350   37.4040 H   0  0  0  0  0  0  0  0  0  0  0  0
  1 21  1  0  0  0  0
  2  1  1  0  0  0  0
  2  7  1  0  0  0  0
  3  2  2  0  0  0  0
  4  5  2  0  0  0  0
  4  3  1  0  0  0  0
  5  6  1  0  0  0  0
  6  1  2  0  0  0  0
  8  5  1  0  0  0  0
  9 15  1  6  0  0  0
  9 10  1  0  0  0  0
 10  3  1  6  0  0  0
 11 10  1  0  0  0  0
 12 13  1  0  0  0  0
 12 11  1  0  0  0  0
 13 17  1  6  0  0  0
 13 14  1  0  0  0  0
 14 19  1  6  0  0  0
 14  9  1  0  0  0  0
 15 16  1  0  0  0  0
 17 18  1  0  0  0  0
 19 20  1  0  0  0  0
 21 23  1  0  0  0  0
 22 23  2  0  0  0  0
 23 26  1  0  0  0  0
 23 24  1  0  0  0  0
 24 25  1  0  0  0  0
 27 26  1  0  0  0  0
M  END
>  <minimizedAffinity>
-5.2115097

$$$$

 OpenBabel03272506153D

 27 28  0  0  1  0  0  0  0  0999 V2000
   38.5720   24.3830   34.7260 C   0  0  0  0  0  0  0  0  0  0  0  0
   38.3440   25.6210   34.1260 C   0  0  0  0  0  0  0  0  0  0  0  0
   37.8490   25.6330   32.8230 C   0  0  0  0  0  0  0  0  0  0  0  0
   37.6130   24.4440   32.2010 N   0  0  0  0  0  0  0  0  0  0  0  0
   37.8450   23.2600   32.8150 C   0  0  0  0  0  0  0  0  0  0  0  0
   38.3230   23.2250   34.0730 N   0  0  0  0  0  0  0  0  0  0  0  0
   38.5740   26.4820   34.7280 H   0  0  0  0  0  0  0  0  0  0  0  0
   37.6420   22.3340   32.2770 H   0  0  0  0  0  0  0  0  0  0  0  0
   37.2930   26.8340   30.7210 C   0  0  2  0  0  3  0  0  0  0  0  0
   37.6130   26.9550   32.2020 C   0  0  1  0  0  3  0  0  0  0  0  0
   36.4840   27.5910   32.7450 O   0  0  0  0  0  0  0  0  0  0  0  0
   36.6020   28.9270   32.4280 C   0  0  0  0  0  2  0  0  0  0  0  0
   36.7540   29.2300   30.9850 C   0  0  1  0  0  3  0  0  0  0  0  0
   37.4770   28.2280   30.1590 C   0  0  2  0  0  3  0  0  0  0  0  0
   35.9310   26.5220   30.5850 O   0  0  0  0  0  0  0  0  0  0  0  0
   35.7970   25.7260   30.0130 H   0  0  0  0  0  0  0  0  0  0  0  0
   35.5220   29.5660   30.3790 O   0  0  0  0  0  0  0  0  0  0  0  0
   35.7800   29.8060   29.4350 H   0  0  0  0  0  0  0  0  0  0  0  0
   37.0420   28.3180   28.8400 O   0  0  0  0  0  0  0  0  0  0  0  0
   37.6190   28.9670   28.3910 H   0  0  0  0  0  0  0  0  0  0  0  0
   39.0590   24.1720   36.0110 O   0  0  0  0  0  0  0  0  0  0  0  0
   40.3790   21.8410   36.0800 O   0  0  0  0  0  0  0  0  0  0  0  0
   39.2170   22.6130   36.6920 P   0  0  0  0  0  0  0  0  0  0  0  0
   39.4210   22.8340   38.3570 O   0  0  0  0  0  0  0  0  0  0  0  0
   38.5330   22.8960   38.7860 H   0  0  0  0  0  0  0  0  0  0  0  0
   37.8160   21.7150   36.3680 O   0  0  0  0  0  0  0  0  0  0  0  0
   37.5390   21.8500   35.4340 H   0  0  0  0  0  0  0  0  0  0  0  0
  1 21  1  0  0  0  0
  2  1  1  0  0  0  0
  2  7  1  0  0  0  0
  3  2  2  0  0  0  0
  4  5  2  0  0  0  0
  4  3  1  0  0  0  0
  5  6  1  0  0  0  0
  6  1  2  0  0  0  0
  8  5  1  0  0  0  0
  9 15  1  1  0  0  0
  9 10  1  0  0  0  0
 10 11  1  0  0  0  0
 10  3  1  1  0  0  0
 12 11  1  0  0  0  0
 13 17  1  6  0  0  0
 13 12  1  0  0  0  0
 14 19  1  6  0  0  0
 14  9  1  0  0  0  0
 14 13  1  0  0  0  0
 16 15  1  0  0  0  0
 18 17  1  0  0  0  0
 20 19  1  0  0  0  0
 21 23  1  0  0  0  0
 22 23  2  0  0  0  0
 23 24  1  0  0  0  0
 24 25  1  0  0  0  0
 26 23  1  0  0  0  0
 27 26  1  0  0  0  0
M  END
>  <minimizedAffinity>
-5.17123795

$$$$

 OpenBabel03272506153D

 27 28  0  0  1  0  0  0  0  0999 V2000
   37.0070   27.7690   33.5420 C   0  0  0  0  0  0  0  0  0  0  0  0
   36.1890   28.6240   34.2800 C   0  0  0  0  0  0  0  0  0  0  0  0
   35.6350   29.7220   33.6250 C   0  0  0  0  0  0  0  0  0  0  0  0
   35.9170   29.9090   32.3040 N   0  0  0  0  0  0  0  0  0  0  0  0
   36.7160   29.0570   31.6200 C   0  0  0  0  0  0  0  0  0  0  0  0
   37.2610   27.9890   32.2330 N   0  0  0  0  0  0  0  0  0  0  0  0
   36.0480   28.3620   35.3130 H   0  0  0  0  0  0  0  0  0  0  0  0
   36.9140   29.2470   30.5650 H   0  0  0  0  0  0  0  0  0  0  0  0
   35.4860   31.1470   35.6550 C   0  0  2  0  0  3  0  0  0  0  0  0
   34.7690   30.6190   34.4220 C   0  0  1  0  0  3  0  0  0  0  0  0
   34.4220   31.7780   33.7070 O   0  0  0  0  0  0  0  0  0  0  0  0
   33.3180   32.3080   34.3400 C   0  0  0  0  0  2  0  0  0  0  0  0
   33.4870   32.5920   35.7850 C   0  0  1  0  0  3  0  0  0  0  0  0
   34.3910   31.6920   36.5480 C   0  0  2  0  0  3  0  0  0  0  0  0
   36.2780   32.2420   35.2740 O   0  0  0  0  0  0  0  0  0  0  0  0
   37.2140   32.1340   35.5760 H   0  0  0  0  0  0  0  0  0  0  0  0
   33.8250   33.9430   36.0260 O   0  0  0  0  0  0  0  0  0  0  0  0
   33.8440   34.0070   37.0310 H   0  0  0  0  0  0  0  0  0  0  0  0
   34.9080   32.3790   37.6420 O   0  0  0  0  0  0  0  0  0  0  0  0
   34.2920   32.2370   38.3880 H   0  0  0  0  0  0  0  0  0  0  0  0
   37.6430   26.6280   34.0210 O   0  0  0  0  0  0  0  0  0  0  0  0
   40.2500   27.2470   34.0570 O   0  0  0  0  0  0  0  0  0  0  0  0
   39.1080   26.6900   34.8980 P   0  0  0  0  0  0  0  0  0  0  0  0
   38.8120   27.6460   36.2620 O   0  0  0  0  0  0  0  0  0  0  0  0
   38.4430   27.0780   36.9810 H   0  0  0  0  0  0  0  0  0  0  0  0
   39.5590   25.1190   35.3470 O   0  0  0  0  0  0  0  0  0  0  0  0
   39.4300   24.5030   34.5900 H   0  0  0  0  0  0  0  0  0  0  0  0
  1 21  1  0  0  0  0
  1  2  1  0  0  0  0
  2  7  1  0  0  0  0
  3  2  2  0  0  0  0
  4  3  1  0  0  0  0
  5  6  1  0  0  0  0
  5  4  2  0  0  0  0
  6  1  2  0  0  0  0
  8  5  1  0  0  0  0
  9 15  1  6  0  0  0
  9 14  1  0  0  0  0
 10  3  1  6  0  0  0
 10  9  1  0  0  0  0
 11 12  1  0  0  0  0
 11 10  1  0  0  0  0
 12 13  1  0  0  0  0
 13 17  1  6  0  0  0
 13 14  1  0  0  0  0
 14 19  1  1  0  0  0
 15 16  1  0  0  0  0
 17 18  1  0  0  0  0
 19 20  1  0  0  0  0
 21 23  1  0  0  0  0
 22 23  2  0  0  0  0
 23 26  1  0  0  0  0
 23 24  1  0  0  0  0
 24 25  1  0  0  0  0
 27 26  1  0  0  0  0
M  END
>  <minimizedAffinity>
-5.14784813

$$$$
