
 OpenBabel03272500083D

 42 45  0  0  1  0  0  0  0  0999 V2000
   31.1340   27.3470   48.1460 C   0  0  0  0  0  0  0  0  0  0  0  0
   30.9220   27.7170   49.4540 C   0  0  0  0  0  0  0  0  0  0  0  0
   29.6700   28.0930   49.8940 C   0  0  0  0  0  0  0  0  0  0  0  0
   28.6080   28.0920   48.9800 C   0  0  0  0  0  0  0  0  0  0  0  0
   28.8330   27.7160   47.6590 C   0  0  0  0  0  0  0  0  0  0  0  0
   30.0840   27.3520   47.2650 C   0  0  0  0  0  0  0  0  0  0  0  0
   31.7080   27.7340   50.1950 H   0  0  0  0  0  0  0  0  0  0  0  0
   29.5120   28.3850   50.9320 H   0  0  0  0  0  0  0  0  0  0  0  0
   27.6580   28.3990   49.3980 H   0  0  0  0  0  0  0  0  0  0  0  0
   27.9760   27.7380   47.0100 H   0  0  0  0  0  0  0  0  0  0  0  0
   29.4130   27.7440   44.9430 C   0  0  1  0  0  3  0  0  0  0  0  0
   30.2940   26.9440   45.8750 C   0  0  1  0  0  3  0  0  0  0  0  0
   31.6440   27.0820   45.5700 O   0  0  0  0  0  0  0  0  0  0  0  0
   31.8750   27.2730   44.2120 C   0  0  0  0  0  2  0  0  0  0  0  0
   31.4770   28.6880   43.8790 C   0  0  1  0  0  3  0  0  0  0  0  0
   30.0650   28.9460   44.3480 C   0  0  1  0  0  3  0  0  0  0  0  0
   28.8490   26.9550   43.9550 O   0  0  0  0  0  0  0  0  0  0  0  0
   28.6740   26.0450   44.3190 H   0  0  0  0  0  0  0  0  0  0  0  0
   32.3000   29.6140   44.5210 O   0  0  0  0  0  0  0  0  0  0  0  0
   31.9190   30.5140   44.2670 H   0  0  0  0  0  0  0  0  0  0  0  0
   29.3150   29.3040   43.2160 O   0  0  0  0  0  0  0  0  0  0  0  0
   28.5260   28.7230   43.0810 H   0  0  0  0  0  0  0  0  0  0  0  0
   32.4460   26.9960   47.8500 O   0  0  0  0  0  0  0  0  0  0  0  0
   35.3620   28.7560   49.0100 C   0  0  0  0  0  0  0  0  0  0  0  0
   35.2750   29.9970   48.3310 C   0  0  0  0  0  0  0  0  0  0  0  0
   34.1950   30.1920   47.4810 C   0  0  0  0  0  0  0  0  0  0  0  0
   33.2870   29.1850   47.3500 N   0  0  0  0  0  0  0  0  0  0  0  0
   33.3920   28.0260   47.9990 C   0  0  0  0  0  0  0  0  0  0  0  0
   34.4400   27.7910   48.8460 N   0  0  0  0  0  0  0  0  0  0  0  0
   36.2100   28.5970   49.6800 H   0  0  0  0  0  0  0  0  0  0  0  0
   34.1190   31.1350   46.9600 H   0  0  0  0  0  0  0  0  0  0  0  0
   36.2950   30.9550   48.5630 N   0  0  0  0  0  0  0  0  0  0  0  0
   36.4160   31.6040   49.7160 C   0  0  0  0  0  0  0  0  0  0  0  0
   37.4430   32.5270   49.8670 C   0  0  0  0  0  0  0  0  0  0  0  0
   38.2580   32.6920   48.7930 C   0  0  0  0  0  0  0  0  0  0  0  0
   39.2040   33.5330   48.9160 O   0  0  0  0  0  0  0  0  0  0  0  0
   38.1710   32.0670   47.6350 N   0  0  0  0  0  0  0  0  0  0  0  0
   37.1550   31.1650   47.5080 C   0  0  0  0  0  0  0  0  0  0  0  0
   37.0500   30.5510   46.3990 O   0  0  0  0  0  0  0  0  0  0  0  0
   35.7010   31.3860   50.5030 H   0  0  0  0  0  0  0  0  0  0  0  0
   37.5240   33.0450   50.8140 H   0  0  0  0  0  0  0  0  0  0  0  0
   38.8360   32.2480   46.8560 H   0  0  0  0  0  0  0  0  0  0  0  0
  1  2  1  0  0  0  0
  2  3  2  0  0  0  0
  2  7  1  0  0  0  0
  3  8  1  0  0  0  0
  4  9  1  0  0  0  0
  4  3  1  0  0  0  0
  5  4  2  0  0  0  0
  6  5  1  0  0  0  0
  6  1  2  0  0  0  0
 10  5  1  0  0  0  0
 11 17  1  6  0  0  0
 11 12  1  0  0  0  0
 12  6  1  1  0  0  0
 13 12  1  0  0  0  0
 14 13  1  0  0  0  0
 15 14  1  0  0  0  0
 15 16  1  0  0  0  0
 15 19  1  1  0  0  0
 16 21  1  6  0  0  0
 16 11  1  0  0  0  0
 17 18  1  0  0  0  0
 20 19  1  0  0  0  0
 22 21  1  0  0  0  0
 23 28  1  0  0  0  0
 23  1  1  0  0  0  0
 24 30  1  0  0  0  0
 25 32  1  0  0  0  0
 25 24  2  0  0  0  0
 26 25  1  0  0  0  0
 27 26  2  0  0  0  0
 27 28  1  0  0  0  0
 28 29  2  0  0  0  0
 29 24  1  0  0  0  0
 31 26  1  0  0  0  0
 32 33  1  0  0  0  0
 33 34  2  0  0  0  0
 33 40  1  0  0  0  0
 34 41  1  0  0  0  0
 35 36  2  0  0  0  0
 35 34  1  0  0  0  0
 37 35  1  0  0  0  0
 38 37  1  0  0  0  0
 38 32  1  0  0  0  0
 39 38  2  0  0  0  0
 42 37  1  0  0  0  0
M  END
>  <minimizedAffinity>
-5.87174559

>  <minimizedRMSD>
0.626251876

$$$$
