
 OpenBabel03272507343D

 39 42  0  0  1  0  0  0  0  0999 V2000
   33.0820   27.5290   48.2350 C   0  0  0  0  0  0  0  0  0  0  0  0
   31.8590   27.4520   48.5910 O   0  0  0  0  0  0  0  0  0  0  0  0
   35.8510   29.1530   49.8110 C   0  0  0  0  0  0  0  0  0  0  0  0
   34.8380   29.6530   50.6020 C   0  0  0  0  0  0  0  0  0  0  0  0
   33.6310   29.1160   50.1250 C   0  0  0  0  0  0  0  0  0  0  0  0
   33.9940   28.3160   49.0650 C   0  0  0  0  0  0  0  0  0  0  0  0
   35.3010   28.3680   48.9180 O   0  0  0  0  0  0  0  0  0  0  0  0
   34.9110   30.3370   51.4470 H   0  0  0  0  0  0  0  0  0  0  0  0
   32.6410   29.2700   50.4760 H   0  0  0  0  0  0  0  0  0  0  0  0
   37.2450   29.5050   50.0270 C   0  0  0  0  0  0  0  0  0  0  0  0
   37.8950   28.9020   50.8930 O   0  0  0  0  0  0  0  0  0  0  0  0
   37.7880   30.5500   49.2040 C   0  0  0  0  0  0  0  0  0  0  0  0
   38.1300   31.7360   49.8370 C   0  0  0  0  0  0  0  0  0  0  0  0
   38.6600   32.7760   49.0630 C   0  0  0  0  0  0  0  0  0  0  0  0
   38.8110   32.5610   47.7150 N   0  0  0  0  0  0  0  0  0  0  0  0
   38.4710   31.4080   47.1410 C   0  0  0  0  0  0  0  0  0  0  0  0
   37.9620   30.4020   47.8730 N   0  0  0  0  0  0  0  0  0  0  0  0
   38.0060   31.8880   50.8850 H   0  0  0  0  0  0  0  0  0  0  0  0
   38.9420   33.7250   49.5160 H   0  0  0  0  0  0  0  0  0  0  0  0
   38.6020   31.2680   46.0820 H   0  0  0  0  0  0  0  0  0  0  0  0
   33.5800   26.8290   47.0070 C   0  0  1  0  0  0  0  0  0  0  0  0
   33.8140   25.3000   47.3200 C   0  0  0  0  0  0  0  0  0  0  0  0
   32.7840   25.7800   46.3640 C   0  0  2  0  0  0  0  0  0  0  0  0
   34.5640   27.2320   46.6230 H   0  0  0  0  0  0  0  0  0  0  0  0
   33.5760   24.9470   48.3160 H   0  0  0  0  0  0  0  0  0  0  0  0
   34.6840   24.8260   46.8570 H   0  0  0  0  0  0  0  0  0  0  0  0
   31.7310   25.7080   46.7400 H   0  0  0  0  0  0  0  0  0  0  0  0
   31.6940   25.4740   44.2090 C   0  0  1  0  0  3  0  0  0  0  0  0
   32.9950   25.4960   44.8810 C   0  0  1  0  0  3  0  0  0  0  0  0
   33.9600   26.3270   44.4280 O   0  0  0  0  0  0  0  0  0  0  0  0
   33.9220   26.8020   43.1680 C   0  0  0  0  0  2  0  0  0  0  0  0
   33.0050   26.1080   42.2080 C   0  0  2  0  0  3  0  0  0  0  0  0
   31.6330   26.1320   42.8610 C   0  0  2  0  0  3  0  0  0  0  0  0
   31.2260   24.1640   44.0460 O   0  0  0  0  0  0  0  0  0  0  0  0
   30.2840   24.2260   43.7210 H   0  0  0  0  0  0  0  0  0  0  0  0
   33.4280   24.8050   41.9660 O   0  0  0  0  0  0  0  0  0  0  0  0
   33.4910   24.7160   40.9870 H   0  0  0  0  0  0  0  0  0  0  0  0
   31.2940   27.4890   43.0170 O   0  0  0  0  0  0  0  0  0  0  0  0
   31.3910   27.9520   42.1420 H   0  0  0  0  0  0  0  0  0  0  0  0
  1  2  2  0  0  0  0
  1  6  1  0  0  0  0
  3 10  1  0  0  0  0
  3  4  2  0  0  0  0
  4  8  1  0  0  0  0
  5  9  1  0  0  0  0
  5  4  1  0  0  0  0
  6  5  2  0  0  0  0
  7  6  1  0  0  0  0
  7  3  1  0  0  0  0
 10 11  2  0  0  0  0
 12 13  1  0  0  0  0
 12 10  1  0  0  0  0
 13 18  1  0  0  0  0
 14 19  1  0  0  0  0
 14 13  2  0  0  0  0
 15 14  1  0  0  0  0
 16 15  2  0  0  0  0
 16 17  1  0  0  0  0
 17 12  2  0  0  0  0
 20 16  1  0  0  0  0
 21 24  1  6  0  0  0
 21 22  1  0  0  0  0
 21  1  1  0  0  0  0
 22 25  1  0  0  0  0
 23 27  1  1  0  0  0
 23 21  1  0  0  0  0
 23 22  1  0  0  0  0
 26 22  1  0  0  0  0
 28 34  1  6  0  0  0
 28 29  1  0  0  0  0
 29 30  1  6  0  0  0
 29 23  1  0  0  0  0
 31 30  1  0  0  0  0
 32 36  1  1  0  0  0
 32 33  1  0  0  0  0
 32 31  1  0  0  0  0
 33 38  1  1  0  0  0
 33 28  1  0  0  0  0
 35 34  1  0  0  0  0
 37 36  1  0  0  0  0
 39 38  1  0  0  0  0
M  END
>  <minimizedAffinity>
-4.91942549

>  <minimizedRMSD>
0.0821743682

$$$$
