
 OpenBabel03272503373D

 22 23  0  0  1  0  0  0  0  0999 V2000
   37.5600   31.5540   46.4690 C   0  0  1  0  0  3  0  0  0  0  0  0
   38.3710   31.4420   47.7340 C   0  0  1  0  0  3  0  0  0  0  0  0
   38.7840   32.7180   48.0720 O   0  0  0  0  0  0  0  0  0  0  0  0
   39.6670   33.2870   47.1890 C   0  0  0  0  0  2  0  0  0  0  0  0
   39.6970   32.7100   45.8200 C   0  0  2  0  0  3  0  0  0  0  0  0
   38.4090   32.0930   45.3750 C   0  0  2  0  0  3  0  0  0  0  0  0
   37.3030   29.9370   51.0320 C   0  0  0  0  0  0  0  0  0  0  0  0
   38.1490   30.4280   50.0370 C   0  0  0  0  0  0  0  0  0  0  0  0
   37.5770   30.8960   48.8640 C   0  0  0  0  0  0  0  0  0  0  0  0
   36.2280   30.8570   48.7340 N   0  0  0  0  0  0  0  0  0  0  0  0
   35.4150   30.3710   49.7240 C   0  0  0  0  0  0  0  0  0  0  0  0
   35.9670   29.9240   50.8450 N   0  0  0  0  0  0  0  0  0  0  0  0
   39.2240   30.4920   50.0620 H   0  0  0  0  0  0  0  0  0  0  0  0
   34.3500   30.3360   49.6320 H   0  0  0  0  0  0  0  0  0  0  0  0
   38.0130   29.5020   52.1520 O   0  0  0  0  0  0  0  0  0  0  0  0
   37.4270   29.0160   52.8490 H   0  0  0  0  0  0  0  0  0  0  0  0
   37.0850   30.2570   46.1980 O   0  0  0  0  0  0  0  0  0  0  0  0
   37.5710   29.8680   45.4080 H   0  0  0  0  0  0  0  0  0  0  0  0
   40.7030   31.7420   45.7590 O   0  0  0  0  0  0  0  0  0  0  0  0
   40.5530   31.2440   44.8930 H   0  0  0  0  0  0  0  0  0  0  0  0
   37.6420   32.9910   44.5970 O   0  0  0  0  0  0  0  0  0  0  0  0
   38.0940   33.0500   43.6980 H   0  0  0  0  0  0  0  0  0  0  0  0
  1 17  1  6  0  0  0
  1  2  1  0  0  0  0
  2  3  1  0  0  0  0
  2  9  1  1  0  0  0
  4  3  1  0  0  0  0
  5 19  1  1  0  0  0
  5  4  1  0  0  0  0
  6 21  1  1  0  0  0
  6  5  1  0  0  0  0
  6  1  1  0  0  0  0
  7 15  1  0  0  0  0
  8 13  1  0  0  0  0
  8  7  2  0  0  0  0
  9  8  1  0  0  0  0
 10  9  2  0  0  0  0
 10 11  1  0  0  0  0
 11 12  2  0  0  0  0
 12  7  1  0  0  0  0
 14 11  1  0  0  0  0
 15 16  1  0  0  0  0
 18 17  1  0  0  0  0
 20 19  1  0  0  0  0
 22 21  1  0  0  0  0
M  END
>  <minimizedAffinity>
-5.43324566

>  <minimizedRMSD>
1.26942015

$$$$
