
 OpenBabel03272505593D

 47 50  0  0  1  0  0  0  0  0999 V2000
   35.2150   30.3770   49.8760 C   0  0  2  0  0  0  0  0  0  0  0  0
   36.1270   31.1970   49.0410 C   0  0  0  0  0  0  0  0  0  0  0  0
   37.5830   30.7090   49.1080 C   0  0  2  0  0  0  0  0  0  0  0  0
   38.1280   30.6310   50.4620 C   0  0  0  0  0  0  0  0  0  0  0  0
   37.1350   30.0970   51.4850 C   0  0  0  0  0  0  0  0  0  0  0  0
   35.9420   29.4630   50.8330 C   0  0  0  0  0  0  0  0  0  0  0  0
   34.5470   31.0040   50.5400 H   0  0  0  0  0  0  0  0  0  0  0  0
   35.9760   31.3040   47.9900 H   0  0  0  0  0  0  0  0  0  0  0  0
   36.1450   32.2620   49.4500 H   0  0  0  0  0  0  0  0  0  0  0  0
   37.6200   29.7630   48.5590 H   0  0  0  0  0  0  0  0  0  0  0  0
   39.0590   30.0230   50.4430 H   0  0  0  0  0  0  0  0  0  0  0  0
   38.4400   31.6180   50.8560 H   0  0  0  0  0  0  0  0  0  0  0  0
   37.6580   29.2910   52.0390 H   0  0  0  0  0  0  0  0  0  0  0  0
   36.8360   30.8360   52.2370 H   0  0  0  0  0  0  0  0  0  0  0  0
   36.2010   28.5440   50.2860 H   0  0  0  0  0  0  0  0  0  0  0  0
   35.2380   29.1650   51.6290 H   0  0  0  0  0  0  0  0  0  0  0  0
   37.6530   30.2070   46.2030 Cl  0  0  0  0  0  0  0  0  0  0  0  0
   38.4640   31.5780   46.9440 C   0  0  0  0  0  0  0  0  0  0  0  0
   38.3300   31.7300   48.3130 C   0  0  0  0  0  0  0  0  0  0  0  0
   38.9790   32.8460   48.7940 C   0  0  0  0  0  0  0  0  0  0  0  0
   39.6880   33.7120   47.9870 C   0  0  0  0  0  0  0  0  0  0  0  0
   39.7730   33.4850   46.6190 C   0  0  0  0  0  0  0  0  0  0  0  0
   39.1360   32.3760   46.0840 C   0  0  0  0  0  0  0  0  0  0  0  0
   38.9150   33.0330   49.8580 H   0  0  0  0  0  0  0  0  0  0  0  0
   40.1590   34.5600   48.4850 H   0  0  0  0  0  0  0  0  0  0  0  0
   40.3350   34.1850   46.0310 H   0  0  0  0  0  0  0  0  0  0  0  0
   40.0860   30.9340   44.3010 C   0  0  1  0  0  3  0  0  0  0  0  0
   39.2270   32.1340   44.6280 C   0  0  2  0  0  3  0  0  0  0  0  0
   39.6860   33.2650   43.9520 O   0  0  0  0  0  0  0  0  0  0  0  0
   39.3470   33.1920   42.6120 C   0  0  0  0  0  2  0  0  0  0  0  0
   39.6960   31.8500   42.0100 C   0  0  1  0  0  3  0  0  0  0  0  0
   40.6730   31.1450   42.9270 C   0  0  2  0  0  3  0  0  0  0  0  0
   41.1620   30.8090   45.1740 O   0  0  0  0  0  0  0  0  0  0  0  0
   42.0190   31.1310   44.7720 H   0  0  0  0  0  0  0  0  0  0  0  0
   38.5930   31.0340   41.8350 O   0  0  0  0  0  0  0  0  0  0  0  0
   37.7790   31.5680   41.6040 H   0  0  0  0  0  0  0  0  0  0  0  0
   41.0290   29.9280   42.3840 O   0  0  0  0  0  0  0  0  0  0  0  0
   41.8500   30.0480   41.8170 H   0  0  0  0  0  0  0  0  0  0  0  0
   34.3040   29.5410   49.0770 C   0  0  0  0  0  0  0  0  0  0  0  0
   34.3010   29.8100   47.7070 C   0  0  0  0  0  0  0  0  0  0  0  0
   33.4630   29.0300   46.8960 C   0  0  0  0  0  0  0  0  0  0  0  0
   32.6850   28.0410   47.4890 N   0  0  0  0  0  0  0  0  0  0  0  0
   32.7210   27.8220   48.8180 C   0  0  0  0  0  0  0  0  0  0  0  0
   33.5270   28.5750   49.5690 N   0  0  0  0  0  0  0  0  0  0  0  0
   34.7530   30.4690   46.9880 H   0  0  0  0  0  0  0  0  0  0  0  0
   33.2670   29.0160   45.8510 H   0  0  0  0  0  0  0  0  0  0  0  0
   32.1220   27.0570   49.2880 H   0  0  0  0  0  0  0  0  0  0  0  0
  1  7  1  1  0  0  0
  1  6  1  0  0  0  0
  2  3  1  0  0  0  0
  2  9  1  0  0  0  0
  2  1  1  0  0  0  0
  3 10  1  6  0  0  0
  3  4  1  0  0  0  0
  4 12  1  0  0  0  0
  4  5  1  0  0  0  0
  5 13  1  0  0  0  0
  5 14  1  0  0  0  0
  6  5  1  0  0  0  0
  6 16  1  0  0  0  0
  8  2  1  0  0  0  0
 11  4  1  0  0  0  0
 15  6  1  0  0  0  0
 17 18  1  0  0  0  0
 18 19  1  0  0  0  0
 19 20  2  0  0  0  0
 19  3  1  0  0  0  0
 20 24  1  0  0  0  0
 21 25  1  0  0  0  0
 21 20  1  0  0  0  0
 22 21  2  0  0  0  0
 23 22  1  0  0  0  0
 23 18  2  0  0  0  0
 26 22  1  0  0  0  0
 27 28  1  0  0  0  0
 27 33  1  1  0  0  0
 28 23  1  1  0  0  0
 29 28  1  0  0  0  0
 30 29  1  0  0  0  0
 31 35  1  1  0  0  0
 31 30  1  0  0  0  0
 31 32  1  0  0  0  0
 32 37  1  6  0  0  0
 32 27  1  0  0  0  0
 34 33  1  0  0  0  0
 36 35  1  0  0  0  0
 38 37  1  0  0  0  0
 39 44  1  0  0  0  0
 39  1  1  0  0  0  0
 40 39  2  0  0  0  0
 41 42  2  0  0  0  0
 41 40  1  0  0  0  0
 42 43  1  0  0  0  0
 43 47  1  0  0  0  0
 43 44  2  0  0  0  0
 45 40  1  0  0  0  0
 46 41  1  0  0  0  0
M  END
>  <minimizedAffinity>
-8.20111465

>  <minimizedRMSD>
1.12916994

$$$$
