
 OpenBabel03272500003D

 32 34  0  0  1  0  0  0  0  0999 V2000
   35.1810   25.0550   31.0580 C   0  0  0  0  0  0  0  0  0  0  0  0
   36.1820   24.2360   31.6260 C   0  0  0  0  0  0  0  0  0  0  0  0
   37.1490   24.8770   32.3710 C   0  0  0  0  0  0  0  0  0  0  0  0
   37.1030   26.2300   32.5240 N   0  0  0  0  0  0  0  0  0  0  0  0
   36.1360   26.9780   31.9690 C   0  0  0  0  0  0  0  0  0  0  0  0
   35.1650   26.3760   31.2270 N   0  0  0  0  0  0  0  0  0  0  0  0
   34.3840   24.6350   30.4580 H   0  0  0  0  0  0  0  0  0  0  0  0
   37.9250   24.3130   32.8210 H   0  0  0  0  0  0  0  0  0  0  0  0
   37.3760   28.5740   29.5910 Br  0  0  0  0  0  0  0  0  0  0  0  0
   36.5770   29.2670   31.1600 C   0  0  0  0  0  0  0  0  0  0  0  0
   36.0720   28.4250   32.1240 C   0  0  0  0  0  0  0  0  0  0  0  0
   35.5010   29.0070   33.2460 C   0  0  0  0  0  0  0  0  0  0  0  0
   35.4120   30.3670   33.4470 C   0  0  0  0  0  0  0  0  0  0  0  0
   35.9290   31.1750   32.4570 C   0  0  0  0  0  0  0  0  0  0  0  0
   36.5110   30.6140   31.3150 C   0  0  0  0  0  0  0  0  0  0  0  0
   35.0830   28.3990   34.0470 H   0  0  0  0  0  0  0  0  0  0  0  0
   34.9670   30.8050   34.3220 H   0  0  0  0  0  0  0  0  0  0  0  0
   35.9120   32.2570   32.5160 H   0  0  0  0  0  0  0  0  0  0  0  0
   36.9130   31.2890   30.5480 H   0  0  0  0  0  0  0  0  0  0  0  0
   36.1330   22.8900   31.4090 O   0  0  0  0  0  0  0  0  0  0  0  0
   35.2720   20.9110   32.5530 C   0  0  1  0  0  3  0  0  0  0  0  0
   36.4130   21.8780   32.3140 C   0  0  1  0  0  3  0  0  0  0  0  0
   37.5500   21.2040   31.8140 O   0  0  0  0  0  0  0  0  0  0  0  0
   37.2420   20.5530   30.6210 C   0  0  0  0  0  2  0  0  0  0  0  0
   36.4130   19.3370   31.0510 C   0  0  1  0  0  3  0  0  0  0  0  0
   35.0800   19.8990   31.4800 C   0  0  1  0  0  3  0  0  0  0  0  0
   35.5340   20.2080   33.7470 O   0  0  0  0  0  0  0  0  0  0  0  0
   34.7580   19.6640   34.0190 H   0  0  0  0  0  0  0  0  0  0  0  0
   36.3050   18.3970   30.0590 O   0  0  0  0  0  0  0  0  0  0  0  0
   37.1720   17.8870   30.0240 H   0  0  0  0  0  0  0  0  0  0  0  0
   34.2900   18.8650   32.0150 O   0  0  0  0  0  0  0  0  0  0  0  0
   34.1330   18.1350   31.3790 H   0  0  0  0  0  0  0  0  0  0  0  0
  1  6  2  0  0  0  0
  1  2  1  0  0  0  0
  2  3  2  0  0  0  0
  3  4  1  0  0  0  0
  3  8  1  0  0  0  0
  5 11  1  0  0  0  0
  5  4  2  0  0  0  0
  6  5  1  0  0  0  0
  7  1  1  0  0  0  0
  9 10  1  0  0  0  0
 10 15  2  0  0  0  0
 10 11  1  0  0  0  0
 11 12  2  0  0  0  0
 12 13  1  0  0  0  0
 12 16  1  0  0  0  0
 13 17  1  0  0  0  0
 14 18  1  0  0  0  0
 14 13  2  0  0  0  0
 15 14  1  0  0  0  0
 19 15  1  0  0  0  0
 20  2  1  0  0  0  0
 21 27  1  1  0  0  0
 22 20  1  6  0  0  0
 22 21  1  0  0  0  0
 23 22  1  0  0  0  0
 24 25  1  0  0  0  0
 24 23  1  0  0  0  0
 25 29  1  6  0  0  0
 25 26  1  0  0  0  0
 26 31  1  1  0  0  0
 26 21  1  0  0  0  0
 27 28  1  0  0  0  0
 30 29  1  0  0  0  0
 32 31  1  0  0  0  0
M  END
>  <minimizedAffinity>
-5.90319443

$$$$

 OpenBabel03272500003D

 32 34  0  0  1  0  0  0  0  0999 V2000
   39.5730   26.6950   33.6210 C   0  0  0  0  0  0  0  0  0  0  0  0
   38.7070   25.6350   33.9720 C   0  0  0  0  0  0  0  0  0  0  0  0
   37.6750   25.3720   33.0960 C   0  0  0  0  0  0  0  0  0  0  0  0
   37.5340   26.1210   31.9670 N   0  0  0  0  0  0  0  0  0  0  0  0
   38.3750   27.1220   31.6660 C   0  0  0  0  0  0  0  0  0  0  0  0
   39.4060   27.4080   32.5080 N   0  0  0  0  0  0  0  0  0  0  0  0
   40.4100   26.9700   34.2510 H   0  0  0  0  0  0  0  0  0  0  0  0
   36.9940   24.5880   33.3080 H   0  0  0  0  0  0  0  0  0  0  0  0
   36.2970   29.4380   31.9110 Br  0  0  0  0  0  0  0  0  0  0  0  0
   37.3620   28.9910   30.4130 C   0  0  0  0  0  0  0  0  0  0  0  0
   38.2390   27.9320   30.4630 C   0  0  0  0  0  0  0  0  0  0  0  0
   38.9860   27.6660   29.3250 C   0  0  0  0  0  0  0  0  0  0  0  0
   38.8990   28.3960   28.1590 C   0  0  0  0  0  0  0  0  0  0  0  0
   38.0100   29.4480   28.1520 C   0  0  0  0  0  0  0  0  0  0  0  0
   37.2430   29.7390   29.2860 C   0  0  0  0  0  0  0  0  0  0  0  0
   39.6980   26.8430   29.2960 H   0  0  0  0  0  0  0  0  0  0  0  0
   39.4850   28.1780   27.2840 H   0  0  0  0  0  0  0  0  0  0  0  0
   37.8640   30.0850   27.2870 H   0  0  0  0  0  0  0  0  0  0  0  0
   36.5450   30.5840   29.2430 H   0  0  0  0  0  0  0  0  0  0  0  0
   38.9400   24.9500   35.1280 O   0  0  0  0  0  0  0  0  0  0  0  0
   39.1920   22.7180   36.0900 C   0  0  1  0  0  3  0  0  0  0  0  0
   38.2810   23.8190   35.5860 C   0  0  1  0  0  3  0  0  0  0  0  0
   37.4080   24.2570   36.6070 O   0  0  0  0  0  0  0  0  0  0  0  0
   38.1340   24.7260   37.6990 C   0  0  0  0  0  2  0  0  0  0  0  0
   38.6720   23.4590   38.3740 C   0  0  1  0  0  3  0  0  0  0  0  0
   39.7490   22.9460   37.4500 C   0  0  1  0  0  3  0  0  0  0  0  0
   38.4490   21.5200   36.1390 O   0  0  0  0  0  0  0  0  0  0  0  0
   39.0290   20.7470   36.3300 H   0  0  0  0  0  0  0  0  0  0  0  0
   39.1240   23.6920   39.6470 O   0  0  0  0  0  0  0  0  0  0  0  0
   38.3210   23.7610   40.2490 H   0  0  0  0  0  0  0  0  0  0  0  0
   40.2180   21.7070   37.9240 O   0  0  0  0  0  0  0  0  0  0  0  0
   40.5820   21.7590   38.8340 H   0  0  0  0  0  0  0  0  0  0  0  0
  1  2  1  0  0  0  0
  1  7  1  0  0  0  0
  2 20  1  0  0  0  0
  3  8  1  0  0  0  0
  3  2  2  0  0  0  0
  4  3  1  0  0  0  0
  5  4  2  0  0  0  0
  5  6  1  0  0  0  0
  6  1  2  0  0  0  0
 10 11  1  0  0  0  0
 10  9  1  0  0  0  0
 11  5  1  0  0  0  0
 12 11  2  0  0  0  0
 13 12  1  0  0  0  0
 14 13  2  0  0  0  0
 14 15  1  0  0  0  0
 15 10  2  0  0  0  0
 16 12  1  0  0  0  0
 17 13  1  0  0  0  0
 18 14  1  0  0  0  0
 19 15  1  0  0  0  0
 21 27  1  1  0  0  0
 21 26  1  0  0  0  0
 22 20  1  1  0  0  0
 22 21  1  0  0  0  0
 22 23  1  0  0  0  0
 23 24  1  0  0  0  0
 24 25  1  0  0  0  0
 25 29  1  1  0  0  0
 26 31  1  1  0  0  0
 26 25  1  0  0  0  0
 27 28  1  0  0  0  0
 29 30  1  0  0  0  0
 31 32  1  0  0  0  0
M  END
>  <minimizedAffinity>
-5.81758165

$$$$

 OpenBabel03272500003D

 32 34  0  0  1  0  0  0  0  0999 V2000
   37.2450   25.7130   33.4680 C   0  0  0  0  0  0  0  0  0  0  0  0
   37.9760   25.9390   34.6560 C   0  0  0  0  0  0  0  0  0  0  0  0
   37.9510   27.2240   35.1550 C   0  0  0  0  0  0  0  0  0  0  0  0
   37.2480   28.1930   34.5050 N   0  0  0  0  0  0  0  0  0  0  0  0
   36.5650   27.9420   33.3770 C   0  0  0  0  0  0  0  0  0  0  0  0
   36.5680   26.6840   32.8570 N   0  0  0  0  0  0  0  0  0  0  0  0
   37.2110   24.7350   33.0070 H   0  0  0  0  0  0  0  0  0  0  0  0
   38.4810   27.4520   36.0450 H   0  0  0  0  0  0  0  0  0  0  0  0
   37.7930   28.7730   30.6300 Br  0  0  0  0  0  0  0  0  0  0  0  0
   36.2200   29.4380   31.4460 C   0  0  0  0  0  0  0  0  0  0  0  0
   35.8080   28.9660   32.6700 C   0  0  0  0  0  0  0  0  0  0  0  0
   34.6440   29.5020   33.2040 C   0  0  0  0  0  0  0  0  0  0  0  0
   33.8880   30.4710   32.5820 C   0  0  0  0  0  0  0  0  0  0  0  0
   34.3360   30.9160   31.3570 C   0  0  0  0  0  0  0  0  0  0  0  0
   35.5060   30.3930   30.7950 C   0  0  0  0  0  0  0  0  0  0  0  0
   34.2620   29.1730   34.1680 H   0  0  0  0  0  0  0  0  0  0  0  0
   32.9880   30.8770   33.0070 H   0  0  0  0  0  0  0  0  0  0  0  0
   33.8160   31.6750   30.7840 H   0  0  0  0  0  0  0  0  0  0  0  0
   35.8320   30.7720   29.8190 H   0  0  0  0  0  0  0  0  0  0  0  0
   38.6460   24.8970   35.2250 O   0  0  0  0  0  0  0  0  0  0  0  0
   39.1370   22.6910   36.1530 C   0  0  1  0  0  3  0  0  0  0  0  0
   38.1110   23.7150   35.7150 C   0  0  1  0  0  3  0  0  0  0  0  0
   37.2700   24.0790   36.7910 O   0  0  0  0  0  0  0  0  0  0  0  0
   38.0230   24.6020   37.8400 C   0  0  0  0  0  2  0  0  0  0  0  0
   38.7020   23.3810   38.4710 C   0  0  1  0  0  3  0  0  0  0  0  0
   39.7570   22.9600   37.4780 C   0  0  1  0  0  3  0  0  0  0  0  0
   38.4970   21.4360   36.2400 O   0  0  0  0  0  0  0  0  0  0  0  0
   39.1490   20.7120   36.3890 H   0  0  0  0  0  0  0  0  0  0  0  0
   39.2110   23.6480   39.7150 O   0  0  0  0  0  0  0  0  0  0  0  0
   38.4440   23.6500   40.3660 H   0  0  0  0  0  0  0  0  0  0  0  0
   40.3530   21.7610   37.9130 O   0  0  0  0  0  0  0  0  0  0  0  0
   40.7670   21.8410   38.7990 H   0  0  0  0  0  0  0  0  0  0  0  0
  1  2  1  0  0  0  0
  2  3  2  0  0  0  0
  2 20  1  0  0  0  0
  3  8  1  0  0  0  0
  4  3  1  0  0  0  0
  5  4  2  0  0  0  0
  6  5  1  0  0  0  0
  6  1  2  0  0  0  0
  7  1  1  0  0  0  0
  9 10  1  0  0  0  0
 10 11  1  0  0  0  0
 11 12  2  0  0  0  0
 11  5  1  0  0  0  0
 12 16  1  0  0  0  0
 13 17  1  0  0  0  0
 13 12  1  0  0  0  0
 14 13  2  0  0  0  0
 15 14  1  0  0  0  0
 15 10  2  0  0  0  0
 18 14  1  0  0  0  0
 19 15  1  0  0  0  0
 21 27  1  1  0  0  0
 21 26  1  0  0  0  0
 22 20  1  1  0  0  0
 22 21  1  0  0  0  0
 22 23  1  0  0  0  0
 23 24  1  0  0  0  0
 24 25  1  0  0  0  0
 25 29  1  1  0  0  0
 26 31  1  1  0  0  0
 26 25  1  0  0  0  0
 27 28  1  0  0  0  0
 29 30  1  0  0  0  0
 31 32  1  0  0  0  0
M  END
>  <minimizedAffinity>
-5.80635738

$$$$

 OpenBabel03272500003D

 32 34  0  0  1  0  0  0  0  0999 V2000
   38.8080   26.6480   33.2660 C   0  0  0  0  0  0  0  0  0  0  0  0
   37.9120   25.5600   33.3570 C   0  0  0  0  0  0  0  0  0  0  0  0
   37.0410   25.3930   32.3010 C   0  0  0  0  0  0  0  0  0  0  0  0
   37.0770   26.2560   31.2480 N   0  0  0  0  0  0  0  0  0  0  0  0
   37.9420   27.2810   31.1950 C   0  0  0  0  0  0  0  0  0  0  0  0
   38.8160   27.4740   32.2210 N   0  0  0  0  0  0  0  0  0  0  0  0
   39.5250   26.8540   34.0500 H   0  0  0  0  0  0  0  0  0  0  0  0
   36.3460   24.5920   32.3160 H   0  0  0  0  0  0  0  0  0  0  0  0
   36.0450   29.7420   31.4900 Br  0  0  0  0  0  0  0  0  0  0  0  0
   37.2150   29.3460   30.0580 C   0  0  0  0  0  0  0  0  0  0  0  0
   37.9930   28.2120   30.0760 C   0  0  0  0  0  0  0  0  0  0  0  0
   38.8270   27.9900   28.9890 C   0  0  0  0  0  0  0  0  0  0  0  0
   38.9180   28.8340   27.9040 C   0  0  0  0  0  0  0  0  0  0  0  0
   38.1220   29.9590   27.9250 C   0  0  0  0  0  0  0  0  0  0  0  0
   37.2720   30.2070   29.0090 C   0  0  0  0  0  0  0  0  0  0  0  0
   39.4690   27.1120   28.9400 H   0  0  0  0  0  0  0  0  0  0  0  0
   39.5690   28.6490   27.0680 H   0  0  0  0  0  0  0  0  0  0  0  0
   38.1160   30.6870   27.1230 H   0  0  0  0  0  0  0  0  0  0  0  0
   36.6530   31.1130   28.9910 H   0  0  0  0  0  0  0  0  0  0  0  0
   37.9610   24.7570   34.4590 O   0  0  0  0  0  0  0  0  0  0  0  0
   37.7450   24.3890   36.8640 C   0  0  1  0  0  3  0  0  0  0  0  0
   38.4530   25.0770   35.7150 C   0  0  1  0  0  3  0  0  0  0  0  0
   39.8260   24.7460   35.6980 O   0  0  0  0  0  0  0  0  0  0  0  0
   39.9920   23.3680   35.5800 C   0  0  0  0  0  2  0  0  0  0  0  0
   39.6320   22.8190   36.9660 C   0  0  1  0  0  3  0  0  0  0  0  0
   38.1350   22.9680   37.0730 C   0  0  1  0  0  3  0  0  0  0  0  0
   38.0540   25.0840   38.0520 O   0  0  0  0  0  0  0  0  0  0  0  0
   37.5120   24.7600   38.8080 H   0  0  0  0  0  0  0  0  0  0  0  0
   40.0570   21.5280   37.1460 O   0  0  0  0  0  0  0  0  0  0  0  0
   41.0450   21.5540   37.3320 H   0  0  0  0  0  0  0  0  0  0  0  0
   37.7220   22.6060   38.3690 O   0  0  0  0  0  0  0  0  0  0  0  0
   37.9640   21.6850   38.6030 H   0  0  0  0  0  0  0  0  0  0  0  0
  1  2  1  0  0  0  0
  1  7  1  0  0  0  0
  2 20  1  0  0  0  0
  3  8  1  0  0  0  0
  3  2  2  0  0  0  0
  4  3  1  0  0  0  0
  5  4  2  0  0  0  0
  5  6  1  0  0  0  0
  6  1  2  0  0  0  0
 10 11  1  0  0  0  0
 10  9  1  0  0  0  0
 11  5  1  0  0  0  0
 12 11  2  0  0  0  0
 13 14  2  0  0  0  0
 13 12  1  0  0  0  0
 14 15  1  0  0  0  0
 15 10  2  0  0  0  0
 16 12  1  0  0  0  0
 17 13  1  0  0  0  0
 18 14  1  0  0  0  0
 19 15  1  0  0  0  0
 21 26  1  0  0  0  0
 21 27  1  1  0  0  0
 22 20  1  6  0  0  0
 22 21  1  0  0  0  0
 23 22  1  0  0  0  0
 24 23  1  0  0  0  0
 24 25  1  0  0  0  0
 25 26  1  0  0  0  0
 25 29  1  6  0  0  0
 26 31  1  1  0  0  0
 27 28  1  0  0  0  0
 29 30  1  0  0  0  0
 31 32  1  0  0  0  0
M  END
>  <minimizedAffinity>
-5.55506277

$$$$

 OpenBabel03272500003D

 32 34  0  0  1  0  0  0  0  0999 V2000
   37.5310   24.8160   30.8820 C   0  0  0  0  0  0  0  0  0  0  0  0
   36.2920   24.1390   30.9420 C   0  0  0  0  0  0  0  0  0  0  0  0
   35.1620   24.9300   30.9500 C   0  0  0  0  0  0  0  0  0  0  0  0
   35.2810   26.2860   30.9020 N   0  0  0  0  0  0  0  0  0  0  0  0
   36.4750   26.8950   30.8460 C   0  0  0  0  0  0  0  0  0  0  0  0
   37.6110   26.1450   30.8370 N   0  0  0  0  0  0  0  0  0  0  0  0
   38.4680   24.2740   30.8720 H   0  0  0  0  0  0  0  0  0  0  0  0
   34.2050   24.4760   30.9940 H   0  0  0  0  0  0  0  0  0  0  0  0
   35.9620   28.3310   33.5700 Br  0  0  0  0  0  0  0  0  0  0  0  0
   36.4250   29.1190   31.9140 C   0  0  0  0  0  0  0  0  0  0  0  0
   36.6190   28.3440   30.7940 C   0  0  0  0  0  0  0  0  0  0  0  0
   36.9570   28.9950   29.6160 C   0  0  0  0  0  0  0  0  0  0  0  0
   37.1070   30.3600   29.5070 C   0  0  0  0  0  0  0  0  0  0  0  0
   36.9040   31.1000   30.6520 C   0  0  0  0  0  0  0  0  0  0  0  0
   36.5620   30.4690   31.8540 C   0  0  0  0  0  0  0  0  0  0  0  0
   37.1240   28.4420   28.6940 H   0  0  0  0  0  0  0  0  0  0  0  0
   37.3690   30.8510   28.5870 H   0  0  0  0  0  0  0  0  0  0  0  0
   36.9960   32.1790   30.6760 H   0  0  0  0  0  0  0  0  0  0  0  0
   36.4080   31.0900   32.7450 H   0  0  0  0  0  0  0  0  0  0  0  0
   36.2880   22.7760   30.9870 O   0  0  0  0  0  0  0  0  0  0  0  0
   36.5360   21.6700   33.1510 C   0  0  1  0  0  3  0  0  0  0  0  0
   37.0870   21.9550   31.7690 C   0  0  1  0  0  3  0  0  0  0  0  0
   37.2580   20.7580   31.0370 O   0  0  0  0  0  0  0  0  0  0  0  0
   36.0450   20.0840   30.9190 C   0  0  0  0  0  2  0  0  0  0  0  0
   35.8040   19.4810   32.3080 C   0  0  1  0  0  3  0  0  0  0  0  0
   35.4510   20.6530   33.1900 C   0  0  1  0  0  3  0  0  0  0  0  0
   37.5910   21.1850   33.9530 O   0  0  0  0  0  0  0  0  0  0  0  0
   37.3180   21.1120   34.8970 H   0  0  0  0  0  0  0  0  0  0  0  0
   34.8390   18.5070   32.2980 O   0  0  0  0  0  0  0  0  0  0  0  0
   35.2530   17.6700   31.9250 H   0  0  0  0  0  0  0  0  0  0  0  0
   35.3360   20.2140   34.5220 O   0  0  0  0  0  0  0  0  0  0  0  0
   34.6550   19.5180   34.6370 H   0  0  0  0  0  0  0  0  0  0  0  0
  1  2  1  0  0  0  0
  2  3  2  0  0  0  0
  2 20  1  0  0  0  0
  3  8  1  0  0  0  0
  4  3  1  0  0  0  0
  5  4  2  0  0  0  0
  6  5  1  0  0  0  0
  6  1  2  0  0  0  0
  7  1  1  0  0  0  0
 10  9  1  0  0  0  0
 11  5  1  0  0  0  0
 11 10  2  0  0  0  0
 12 11  1  0  0  0  0
 13 12  2  0  0  0  0
 13 14  1  0  0  0  0
 14 18  1  0  0  0  0
 14 15  2  0  0  0  0
 15 10  1  0  0  0  0
 15 19  1  0  0  0  0
 16 12  1  0  0  0  0
 17 13  1  0  0  0  0
 21 26  1  0  0  0  0
 21 27  1  1  0  0  0
 22 20  1  6  0  0  0
 22 21  1  0  0  0  0
 23 22  1  0  0  0  0
 24 23  1  0  0  0  0
 24 25  1  0  0  0  0
 25 29  1  6  0  0  0
 25 26  1  0  0  0  0
 26 31  1  1  0  0  0
 27 28  1  0  0  0  0
 30 29  1  0  0  0  0
 31 32  1  0  0  0  0
M  END
>  <minimizedAffinity>
-5.45929623

$$$$

 OpenBabel03272500003D

 32 34  0  0  1  0  0  0  0  0999 V2000
   37.3820   27.5460   34.8040 C   0  0  0  0  0  0  0  0  0  0  0  0
   36.8240   27.2230   33.5470 C   0  0  0  0  0  0  0  0  0  0  0  0
   37.0230   25.9330   33.1020 C   0  0  0  0  0  0  0  0  0  0  0  0
   37.7260   25.0520   33.8650 N   0  0  0  0  0  0  0  0  0  0  0  0
   38.2430   25.3940   35.0560 C   0  0  0  0  0  0  0  0  0  0  0  0
   38.0660   26.6590   35.5250 N   0  0  0  0  0  0  0  0  0  0  0  0
   37.2750   28.5360   35.2290 H   0  0  0  0  0  0  0  0  0  0  0  0
   36.6260   25.6350   32.1650 H   0  0  0  0  0  0  0  0  0  0  0  0
   41.0790   24.7030   33.9480 Br  0  0  0  0  0  0  0  0  0  0  0  0
   40.2650   24.0610   35.5300 C   0  0  0  0  0  0  0  0  0  0  0  0
   38.9980   24.4630   35.8840 C   0  0  0  0  0  0  0  0  0  0  0  0
   38.4680   23.9490   37.0590 C   0  0  0  0  0  0  0  0  0  0  0  0
   39.1340   23.0670   37.8820 C   0  0  0  0  0  0  0  0  0  0  0  0
   40.4000   22.6890   37.4910 C   0  0  0  0  0  0  0  0  0  0  0  0
   40.9590   23.1930   36.3110 C   0  0  0  0  0  0  0  0  0  0  0  0
   37.4710   24.2250   37.3970 H   0  0  0  0  0  0  0  0  0  0  0  0
   38.7100   22.6760   38.7900 H   0  0  0  0  0  0  0  0  0  0  0  0
   41.0090   22.0010   38.0650 H   0  0  0  0  0  0  0  0  0  0  0  0
   41.9690   22.8700   36.0320 H   0  0  0  0  0  0  0  0  0  0  0  0
   36.1370   28.1840   32.8650 O   0  0  0  0  0  0  0  0  0  0  0  0
   35.9700   30.4770   32.0380 C   0  0  1  0  0  3  0  0  0  0  0  0
   35.9830   29.5180   33.2110 C   0  0  1  0  0  3  0  0  0  0  0  0
   34.7780   29.6000   33.9430 O   0  0  0  0  0  0  0  0  0  0  0  0
   33.6910   29.3060   33.1230 C   0  0  0  0  0  2  0  0  0  0  0  0
   33.5230   30.5550   32.2490 C   0  0  1  0  0  3  0  0  0  0  0  0
   34.6860   30.5220   31.2880 C   0  0  1  0  0  3  0  0  0  0  0  0
   36.2110   31.7770   32.5300 O   0  0  0  0  0  0  0  0  0  0  0  0
   36.3470   32.4180   31.7930 H   0  0  0  0  0  0  0  0  0  0  0  0
   32.3060   30.5950   31.6180 O   0  0  0  0  0  0  0  0  0  0  0  0
   31.6210   30.8850   32.2940 H   0  0  0  0  0  0  0  0  0  0  0  0
   34.6890   31.7030   30.5220 O   0  0  0  0  0  0  0  0  0  0  0  0
   33.8620   31.8290   30.0110 H   0  0  0  0  0  0  0  0  0  0  0  0
  1  7  1  0  0  0  0
  1  6  1  0  0  0  0
  2  1  2  0  0  0  0
  3  2  1  0  0  0  0
  3  4  2  0  0  0  0
  4  5  1  0  0  0  0
  5  6  2  0  0  0  0
  5 11  1  0  0  0  0
  8  3  1  0  0  0  0
  9 10  1  0  0  0  0
 10 11  2  0  0  0  0
 10 15  1  0  0  0  0
 11 12  1  0  0  0  0
 12 16  1  0  0  0  0
 12 13  2  0  0  0  0
 13 17  1  0  0  0  0
 14 13  1  0  0  0  0
 14 18  1  0  0  0  0
 15 14  2  0  0  0  0
 19 15  1  0  0  0  0
 20  2  1  0  0  0  0
 21 27  1  1  0  0  0
 21 22  1  0  0  0  0
 22 20  1  6  0  0  0
 22 23  1  0  0  0  0
 24 23  1  0  0  0  0
 25 29  1  6  0  0  0
 25 24  1  0  0  0  0
 26 31  1  1  0  0  0
 26 21  1  0  0  0  0
 26 25  1  0  0  0  0
 28 27  1  0  0  0  0
 29 30  1  0  0  0  0
 32 31  1  0  0  0  0
M  END
>  <minimizedAffinity>
-5.44508553

$$$$

 OpenBabel03272500003D

 32 34  0  0  1  0  0  0  0  0999 V2000
   39.0420   27.0470   34.5390 C   0  0  0  0  0  0  0  0  0  0  0  0
   38.0110   26.7730   33.6120 C   0  0  0  0  0  0  0  0  0  0  0  0
   37.6770   25.4460   33.4410 C   0  0  0  0  0  0  0  0  0  0  0  0
   38.3330   24.4840   34.1480 N   0  0  0  0  0  0  0  0  0  0  0  0
   39.3090   24.7800   35.0200 C   0  0  0  0  0  0  0  0  0  0  0  0
   39.6630   26.0810   35.2140 N   0  0  0  0  0  0  0  0  0  0  0  0
   39.3670   28.0600   34.7350 H   0  0  0  0  0  0  0  0  0  0  0  0
   36.9110   25.1820   32.7580 H   0  0  0  0  0  0  0  0  0  0  0  0
   37.9400   24.0190   37.7200 Br  0  0  0  0  0  0  0  0  0  0  0  0
   39.5420   23.3210   36.9960 C   0  0  0  0  0  0  0  0  0  0  0  0
   40.0190   23.7640   35.7840 C   0  0  0  0  0  0  0  0  0  0  0  0
   41.2000   23.2040   35.3180 C   0  0  0  0  0  0  0  0  0  0  0  0
   41.9150   22.2400   35.9950 C   0  0  0  0  0  0  0  0  0  0  0  0
   41.4030   21.8250   37.2050 C   0  0  0  0  0  0  0  0  0  0  0  0
   40.2130   22.3720   37.6990 C   0  0  0  0  0  0  0  0  0  0  0  0
   41.6330   23.5090   34.3670 H   0  0  0  0  0  0  0  0  0  0  0  0
   42.8300   21.8160   35.6220 H   0  0  0  0  0  0  0  0  0  0  0  0
   41.8860   21.0730   37.8180 H   0  0  0  0  0  0  0  0  0  0  0  0
   39.8360   22.0170   38.6660 H   0  0  0  0  0  0  0  0  0  0  0  0
   37.4210   27.8140   32.9570 O   0  0  0  0  0  0  0  0  0  0  0  0
   35.6060   29.4180   33.2750 C   0  0  1  0  0  3  0  0  0  0  0  0
   36.0640   28.0530   32.8030 C   0  0  1  0  0  3  0  0  0  0  0  0
   35.7850   27.8750   31.4290 O   0  0  0  0  0  0  0  0  0  0  0  0
   36.4190   28.8600   30.6740 C   0  0  0  0  0  2  0  0  0  0  0  0
   35.5910   30.1260   30.9230 C   0  0  1  0  0  3  0  0  0  0  0  0
   35.9100   30.5340   32.3400 C   0  0  1  0  0  3  0  0  0  0  0  0
   34.2050   29.3800   33.4370 O   0  0  0  0  0  0  0  0  0  0  0  0
   33.8730   30.1990   33.8720 H   0  0  0  0  0  0  0  0  0  0  0  0
   35.8530   31.1130   30.0080 O   0  0  0  0  0  0  0  0  0  0  0  0
   35.3730   30.8770   29.1570 H   0  0  0  0  0  0  0  0  0  0  0  0
   35.0950   31.6210   32.7050 O   0  0  0  0  0  0  0  0  0  0  0  0
   35.2120   32.4000   32.1200 H   0  0  0  0  0  0  0  0  0  0  0  0
  1  7  1  0  0  0  0
  1  6  1  0  0  0  0
  2  1  2  0  0  0  0
  3  2  1  0  0  0  0
  3  4  2  0  0  0  0
  4  5  1  0  0  0  0
  5  6  2  0  0  0  0
  5 11  1  0  0  0  0
  8  3  1  0  0  0  0
 10 15  1  0  0  0  0
 10  9  1  0  0  0  0
 11 10  2  0  0  0  0
 12 11  1  0  0  0  0
 12 13  2  0  0  0  0
 13 14  1  0  0  0  0
 14 15  2  0  0  0  0
 14 18  1  0  0  0  0
 15 19  1  0  0  0  0
 16 12  1  0  0  0  0
 17 13  1  0  0  0  0
 20  2  1  0  0  0  0
 21 27  1  6  0  0  0
 22 20  1  6  0  0  0
 22 21  1  0  0  0  0
 23 22  1  0  0  0  0
 24 25  1  0  0  0  0
 24 23  1  0  0  0  0
 25 29  1  6  0  0  0
 25 26  1  0  0  0  0
 26 31  1  1  0  0  0
 26 21  1  0  0  0  0
 27 28  1  0  0  0  0
 30 29  1  0  0  0  0
 32 31  1  0  0  0  0
M  END
>  <minimizedAffinity>
-5.43721581

$$$$

 OpenBabel03272500003D

 32 34  0  0  1  0  0  0  0  0999 V2000
   35.6170   24.4600   31.1460 C   0  0  0  0  0  0  0  0  0  0  0  0
   36.5250   23.8450   32.0370 C   0  0  0  0  0  0  0  0  0  0  0  0
   37.3200   24.6900   32.7820 C   0  0  0  0  0  0  0  0  0  0  0  0
   37.2040   26.0390   32.6340 N   0  0  0  0  0  0  0  0  0  0  0  0
   36.3300   26.5890   31.7760 C   0  0  0  0  0  0  0  0  0  0  0  0
   35.5300   25.7840   31.0250 N   0  0  0  0  0  0  0  0  0  0  0  0
   34.9560   23.8720   30.5220 H   0  0  0  0  0  0  0  0  0  0  0  0
   38.0190   24.2840   33.4680 H   0  0  0  0  0  0  0  0  0  0  0  0
   38.4170   27.8500   29.8260 Br  0  0  0  0  0  0  0  0  0  0  0  0
   37.0400   28.7310   30.7780 C   0  0  0  0  0  0  0  0  0  0  0  0
   36.1940   28.0290   31.6050 C   0  0  0  0  0  0  0  0  0  0  0  0
   35.2080   28.7450   32.2690 C   0  0  0  0  0  0  0  0  0  0  0  0
   35.0310   30.1060   32.1470 C   0  0  0  0  0  0  0  0  0  0  0  0
   35.8990   30.7720   31.3080 C   0  0  0  0  0  0  0  0  0  0  0  0
   36.9030   30.0740   30.6260 C   0  0  0  0  0  0  0  0  0  0  0  0
   34.5060   28.2520   32.9390 H   0  0  0  0  0  0  0  0  0  0  0  0
   34.2630   30.6480   32.6680 H   0  0  0  0  0  0  0  0  0  0  0  0
   35.8480   31.8410   31.1420 H   0  0  0  0  0  0  0  0  0  0  0  0
   37.5750   30.6370   29.9680 H   0  0  0  0  0  0  0  0  0  0  0  0
   36.5580   22.4830   32.1060 O   0  0  0  0  0  0  0  0  0  0  0  0
   37.2470   20.3650   31.1020 C   0  0  1  0  0  3  0  0  0  0  0  0
   36.3420   21.5790   31.0770 C   0  0  1  0  0  3  0  0  0  0  0  0
   34.9840   21.1990   31.1650 O   0  0  0  0  0  0  0  0  0  0  0  0
   34.7560   20.4810   32.3360 C   0  0  0  0  0  2  0  0  0  0  0  0
   35.3720   19.1030   32.0670 C   0  0  1  0  0  3  0  0  0  0  0  0
   36.8640   19.3260   32.0960 C   0  0  1  0  0  3  0  0  0  0  0  0
   37.2050   19.7590   29.8290 O   0  0  0  0  0  0  0  0  0  0  0  0
   37.8790   19.0450   29.7510 H   0  0  0  0  0  0  0  0  0  0  0  0
   34.9530   18.1550   32.9650 O   0  0  0  0  0  0  0  0  0  0  0  0
   34.0240   17.8730   32.7020 H   0  0  0  0  0  0  0  0  0  0  0  0
   37.5190   18.1350   31.7300 O   0  0  0  0  0  0  0  0  0  0  0  0
   37.3020   17.3830   32.3210 H   0  0  0  0  0  0  0  0  0  0  0  0
  1  2  1  0  0  0  0
  2 20  1  0  0  0  0
  2  3  2  0  0  0  0
  3  8  1  0  0  0  0
  4  3  1  0  0  0  0
  5  4  2  0  0  0  0
  6  1  2  0  0  0  0
  6  5  1  0  0  0  0
  7  1  1  0  0  0  0
  9 10  1  0  0  0  0
 10 11  1  0  0  0  0
 11  5  1  0  0  0  0
 11 12  2  0  0  0  0
 12 16  1  0  0  0  0
 13 12  1  0  0  0  0
 13 17  1  0  0  0  0
 14 13  2  0  0  0  0
 15 10  2  0  0  0  0
 15 14  1  0  0  0  0
 18 14  1  0  0  0  0
 19 15  1  0  0  0  0
 21 27  1  6  0  0  0
 21 26  1  0  0  0  0
 22 21  1  0  0  0  0
 22 23  1  0  0  0  0
 22 20  1  1  0  0  0
 23 24  1  0  0  0  0
 25 26  1  0  0  0  0
 25 24  1  0  0  0  0
 25 29  1  1  0  0  0
 26 31  1  6  0  0  0
 28 27  1  0  0  0  0
 30 29  1  0  0  0  0
 31 32  1  0  0  0  0
M  END
>  <minimizedAffinity>
-5.28031921

$$$$

 OpenBabel03272500003D

 32 34  0  0  1  0  0  0  0  0999 V2000
   39.8750   26.9830   33.6750 C   0  0  0  0  0  0  0  0  0  0  0  0
   39.0300   26.6910   32.5810 C   0  0  0  0  0  0  0  0  0  0  0  0
   38.1350   25.6560   32.7580 C   0  0  0  0  0  0  0  0  0  0  0  0
   38.1050   24.9790   33.9390 N   0  0  0  0  0  0  0  0  0  0  0  0
   38.9240   25.2830   34.9570 C   0  0  0  0  0  0  0  0  0  0  0  0
   39.8190   26.3000   34.8170 N   0  0  0  0  0  0  0  0  0  0  0  0
   40.6070   27.7790   33.6220 H   0  0  0  0  0  0  0  0  0  0  0  0
   37.4760   25.3930   31.9710 H   0  0  0  0  0  0  0  0  0  0  0  0
   40.9500   22.9140   35.1250 Br  0  0  0  0  0  0  0  0  0  0  0  0
   39.7390   23.5000   36.4550 C   0  0  0  0  0  0  0  0  0  0  0  0
   38.9040   24.5690   36.2260 C   0  0  0  0  0  0  0  0  0  0  0  0
   38.0440   24.9390   37.2500 C   0  0  0  0  0  0  0  0  0  0  0  0
   37.9810   24.3020   38.4700 C   0  0  0  0  0  0  0  0  0  0  0  0
   38.8340   23.2360   38.6580 C   0  0  0  0  0  0  0  0  0  0  0  0
   39.7120   22.8410   37.6420 C   0  0  0  0  0  0  0  0  0  0  0  0
   37.3570   25.7760   37.1360 H   0  0  0  0  0  0  0  0  0  0  0  0
   37.3080   24.6000   39.2550 H   0  0  0  0  0  0  0  0  0  0  0  0
   38.8640   22.6660   39.5790 H   0  0  0  0  0  0  0  0  0  0  0  0
   40.3760   21.9880   37.8280 H   0  0  0  0  0  0  0  0  0  0  0  0
   39.1450   27.4330   31.4430 O   0  0  0  0  0  0  0  0  0  0  0  0
   37.8830   28.5060   29.6470 C   0  0  1  0  0  3  0  0  0  0  0  0
   38.4780   27.2460   30.2410 C   0  0  1  0  0  3  0  0  0  0  0  0
   39.4130   26.6640   29.3570 O   0  0  0  0  0  0  0  0  0  0  0  0
   40.4370   27.5640   29.0710 C   0  0  0  0  0  2  0  0  0  0  0  0
   39.7990   28.5760   28.1110 C   0  0  1  0  0  3  0  0  0  0  0  0
   38.8620   29.3940   28.9650 C   0  0  1  0  0  3  0  0  0  0  0  0
   36.9240   28.1270   28.6840 O   0  0  0  0  0  0  0  0  0  0  0  0
   36.4110   28.9060   28.3650 H   0  0  0  0  0  0  0  0  0  0  0  0
   40.7320   29.3390   27.4560 O   0  0  0  0  0  0  0  0  0  0  0  0
   41.1250   28.7770   26.7210 H   0  0  0  0  0  0  0  0  0  0  0  0
   38.1310   30.2720   28.1440 O   0  0  0  0  0  0  0  0  0  0  0  0
   38.7040   30.8830   27.6330 H   0  0  0  0  0  0  0  0  0  0  0  0
  1  6  1  0  0  0  0
  2  3  1  0  0  0  0
  2  1  2  0  0  0  0
  3  4  2  0  0  0  0
  4  5  1  0  0  0  0
  5 11  1  0  0  0  0
  6  5  2  0  0  0  0
  7  1  1  0  0  0  0
  8  3  1  0  0  0  0
  9 10  1  0  0  0  0
 10 15  1  0  0  0  0
 11 10  2  0  0  0  0
 11 12  1  0  0  0  0
 12 13  2  0  0  0  0
 13 14  1  0  0  0  0
 13 17  1  0  0  0  0
 14 18  1  0  0  0  0
 15 19  1  0  0  0  0
 15 14  2  0  0  0  0
 16 12  1  0  0  0  0
 20  2  1  0  0  0  0
 21 27  1  6  0  0  0
 21 22  1  0  0  0  0
 22 20  1  1  0  0  0
 23 22  1  0  0  0  0
 24 23  1  0  0  0  0
 25 29  1  1  0  0  0
 25 26  1  0  0  0  0
 25 24  1  0  0  0  0
 26 31  1  6  0  0  0
 26 21  1  0  0  0  0
 28 27  1  0  0  0  0
 30 29  1  0  0  0  0
 32 31  1  0  0  0  0
M  END
>  <minimizedAffinity>
-5.25843906

$$$$
