
 OpenBabel03262520233D

 35 37  0  0  1  0  0  0  0  0999 V2000
   34.5410   29.9770   47.7380 C   0  0  0  0  0  0  0  0  0  0  0  0
   33.8990   28.9880   48.4840 C   0  0  0  0  0  0  0  0  0  0  0  0
   34.1410   28.6650   49.7740 C   0  0  0  0  0  0  0  0  0  0  0  0
   35.0870   29.3320   50.4580 C   0  0  0  0  0  0  0  0  0  0  0  0
   35.7260   30.2920   49.7660 C   0  0  0  0  0  0  0  0  0  0  0  0
   35.4330   30.5470   48.5100 N   0  0  0  0  0  0  0  0  0  0  0  0
   33.0810   28.3620   48.0060 H   0  0  0  0  0  0  0  0  0  0  0  0
   33.5600   27.8430   50.2870 H   0  0  0  0  0  0  0  0  0  0  0  0
   35.3540   29.1450   51.4830 H   0  0  0  0  0  0  0  0  0  0  0  0
   32.7210   30.3710   46.2760 C   0  0  0  0  0  0  0  0  0  0  0  0
   34.1420   30.2300   46.3630 C   0  0  0  0  0  0  0  0  0  0  0  0
   34.8480   30.3750   45.2000 C   0  0  0  0  0  0  0  0  0  0  0  0
   34.1390   30.6430   44.0540 N   0  0  0  0  0  0  0  0  0  0  0  0
   32.8130   30.7710   43.9940 C   0  0  0  0  0  0  0  0  0  0  0  0
   32.1160   30.6290   45.1300 N   0  0  0  0  0  0  0  0  0  0  0  0
   32.2670   31.0640   42.7360 N   0  0  0  0  0  0  0  0  0  0  0  0
   32.0400   30.2820   47.1110 H   0  0  0  0  0  0  0  0  0  0  0  0
   31.7380   31.9750   42.5950 H   0  0  0  0  0  0  0  0  0  0  0  0
   32.2720   30.5400   41.8540 H   0  0  0  0  0  0  0  0  0  0  0  0
   36.3060   30.2410   45.2230 C   0  0  0  0  0  0  0  0  0  0  0  0
   36.6430   29.4660   46.2520 F   0  0  0  0  0  0  0  0  0  0  0  0
   36.8420   29.7070   44.0620 F   0  0  0  0  0  0  0  0  0  0  0  0
   36.9290   31.5080   45.3930 F   0  0  0  0  0  0  0  0  0  0  0  0
   38.1550   30.9330   49.6600 C   0  0  2  0  0  0  0  0  0  0  0  0
   36.8220   31.2270   50.2480 C   0  0  1  0  0  0  0  0  0  0  0  0
   36.3640   32.5110   50.0790 O   0  0  0  0  0  0  0  0  0  0  0  0
   37.3850   33.3920   49.8200 C   0  0  0  0  0  0  0  0  0  0  0  0
   37.9880   33.0580   48.4780 C   0  0  2  0  0  0  0  0  0  0  0  0
   38.2170   31.5760   48.2870 C   0  0  1  0  0  0  0  0  0  0  0  0
   38.5640   29.6270   49.6970 O   0  0  0  0  0  0  0  0  0  0  0  0
   39.1180   29.3460   48.9320 H   0  0  0  0  0  0  0  0  0  0  0  0
   39.1520   33.7830   48.3430 O   0  0  0  0  0  0  0  0  0  0  0  0
   39.9760   33.2740   48.6110 H   0  0  0  0  0  0  0  0  0  0  0  0
   39.5440   31.4290   47.8250 O   0  0  0  0  0  0  0  0  0  0  0  0
   39.5500   31.4700   46.8340 H   0  0  0  0  0  0  0  0  0  0  0  0
  1  2  2  0  0  0  0
  1  6  1  0  0  0  0
  2  3  1  0  0  0  0
  3  8  1  0  0  0  0
  3  4  2  0  0  0  0
  4  9  1  0  0  0  0
  5  4  1  0  0  0  0
  6  5  2  0  0  0  0
  7  2  1  0  0  0  0
 10 11  1  0  0  0  0
 10 17  1  0  0  0  0
 11  1  1  0  0  0  0
 12 20  1  0  0  0  0
 12 11  2  0  0  0  0
 13 12  1  0  0  0  0
 14 13  2  0  0  0  0
 14 15  1  0  0  0  0
 15 10  2  0  0  0  0
 16 14  1  0  0  0  0
 18 16  1  0  0  0  0
 19 16  1  0  0  0  0
 20 23  1  0  0  0  0
 20 21  1  0  0  0  0
 22 20  1  0  0  0  0
 24 30  1  6  0  0  0
 24 25  1  0  0  0  0
 25  5  1  6  0  0  0
 26 25  1  0  0  0  0
 27 26  1  0  0  0  0
 28 32  1  1  0  0  0
 28 27  1  0  0  0  0
 29 34  1  1  0  0  0
 29 28  1  0  0  0  0
 29 24  1  0  0  0  0
 31 30  1  0  0  0  0
 32 33  1  0  0  0  0
 35 34  1  0  0  0  0
M  END
>  <minimizedAffinity>
-5.52601528

>  <minimizedRMSD>
2.33992791

$$$$
