
 OpenBabel03272500003D

 32 34  0  0  1  0  0  0  0  0999 V2000
   38.1400   32.3440   47.3650 C   0  0  0  0  0  0  0  0  0  0  0  0
   37.9550   32.0140   46.0040 C   0  0  0  0  0  0  0  0  0  0  0  0
   37.0130   31.0450   45.7310 C   0  0  0  0  0  0  0  0  0  0  0  0
   36.3220   30.4630   46.7500 N   0  0  0  0  0  0  0  0  0  0  0  0
   36.5250   30.8000   48.0330 C   0  0  0  0  0  0  0  0  0  0  0  0
   37.4480   31.7540   48.3380 N   0  0  0  0  0  0  0  0  0  0  0  0
   38.8600   33.0930   47.6700 H   0  0  0  0  0  0  0  0  0  0  0  0
   36.8320   30.7580   44.7270 H   0  0  0  0  0  0  0  0  0  0  0  0
   38.1880   30.4900   50.6570 Br  0  0  0  0  0  0  0  0  0  0  0  0
   36.3900   29.9830   50.3570 C   0  0  0  0  0  0  0  0  0  0  0  0
   35.7940   30.1880   49.1350 C   0  0  0  0  0  0  0  0  0  0  0  0
   34.4730   29.7890   48.9920 C   0  0  0  0  0  0  0  0  0  0  0  0
   33.7330   29.2060   49.9970 C   0  0  0  0  0  0  0  0  0  0  0  0
   34.3670   29.0180   51.2060 C   0  0  0  0  0  0  0  0  0  0  0  0
   35.6990   29.4110   51.3770 C   0  0  0  0  0  0  0  0  0  0  0  0
   33.9420   29.9220   48.0510 H   0  0  0  0  0  0  0  0  0  0  0  0
   32.7090   28.9010   49.8720 H   0  0  0  0  0  0  0  0  0  0  0  0
   33.8770   28.5680   52.0600 H   0  0  0  0  0  0  0  0  0  0  0  0
   36.1710   29.2450   52.3530 H   0  0  0  0  0  0  0  0  0  0  0  0
   38.7020   32.6600   45.0630 O   0  0  0  0  0  0  0  0  0  0  0  0
   40.2180   30.8500   44.4380 C   0  0  1  0  0  3  0  0  0  0  0  0
   39.9770   32.3330   44.6260 C   0  0  1  0  0  3  0  0  0  0  0  0
   40.1720   33.0340   43.4150 O   0  0  0  0  0  0  0  0  0  0  0  0
   39.3130   32.5500   42.4300 C   0  0  0  0  0  2  0  0  0  0  0  0
   39.9170   31.2000   42.0250 C   0  0  1  0  0  3  0  0  0  0  0  0
   39.6440   30.2800   43.1890 C   0  0  1  0  0  3  0  0  0  0  0  0
   41.6120   30.6340   44.3920 O   0  0  0  0  0  0  0  0  0  0  0  0
   41.8240   29.6720   44.4070 H   0  0  0  0  0  0  0  0  0  0  0  0
   39.4090   30.7310   40.8410 O   0  0  0  0  0  0  0  0  0  0  0  0
   39.8540   31.2400   40.0950 H   0  0  0  0  0  0  0  0  0  0  0  0
   40.2780   29.0440   42.9620 O   0  0  0  0  0  0  0  0  0  0  0  0
   39.9750   28.6060   42.1380 H   0  0  0  0  0  0  0  0  0  0  0  0
  1  7  1  0  0  0  0
  1  6  1  0  0  0  0
  2  1  2  0  0  0  0
  3  2  1  0  0  0  0
  3  4  2  0  0  0  0
  4  5  1  0  0  0  0
  5  6  2  0  0  0  0
  5 11  1  0  0  0  0
  8  3  1  0  0  0  0
 10  9  1  0  0  0  0
 10 15  1  0  0  0  0
 11 10  2  0  0  0  0
 12 11  1  0  0  0  0
 12 13  2  0  0  0  0
 13 14  1  0  0  0  0
 14 15  2  0  0  0  0
 14 18  1  0  0  0  0
 15 19  1  0  0  0  0
 16 12  1  0  0  0  0
 17 13  1  0  0  0  0
 20  2  1  0  0  0  0
 21 27  1  6  0  0  0
 21 22  1  0  0  0  0
 22 20  1  6  0  0  0
 23 22  1  0  0  0  0
 24 23  1  0  0  0  0
 25 29  1  6  0  0  0
 25 24  1  0  0  0  0
 25 26  1  0  0  0  0
 26 31  1  6  0  0  0
 26 21  1  0  0  0  0
 27 28  1  0  0  0  0
 30 29  1  0  0  0  0
 32 31  1  0  0  0  0
M  END
>  <minimizedAffinity>
-5.50675201

>  <minimizedRMSD>
3.07861686

$$$$
