
 OpenBabel03272506023D

 49 52  0  0  1  0  0  0  0  0999 V2000
   35.2610   30.2990   49.7570 C   0  0  2  0  0  0  0  0  0  0  0  0
   36.1840   31.3400   49.3310 C   0  0  0  0  0  0  0  0  0  0  0  0
   37.6760   30.8880   49.4110 C   0  0  2  0  0  0  0  0  0  0  0  0
   38.0870   30.4760   50.7320 C   0  0  0  0  0  0  0  0  0  0  0  0
   37.0110   29.6960   51.4950 C   0  0  0  0  0  0  0  0  0  0  0  0
   35.9560   29.1870   50.5570 C   0  0  0  0  0  0  0  0  0  0  0  0
   34.5090   30.6920   50.5050 H   0  0  0  0  0  0  0  0  0  0  0  0
   36.1740   32.1630   50.1270 H   0  0  0  0  0  0  0  0  0  0  0  0
   36.1140   31.8590   48.4040 H   0  0  0  0  0  0  0  0  0  0  0  0
   37.8210   30.1130   48.6420 H   0  0  0  0  0  0  0  0  0  0  0  0
   38.3280   31.3380   51.3820 H   0  0  0  0  0  0  0  0  0  0  0  0
   39.0280   29.8950   50.6600 H   0  0  0  0  0  0  0  0  0  0  0  0
   36.5960   30.2530   52.3380 H   0  0  0  0  0  0  0  0  0  0  0  0
   37.5100   28.7960   51.9060 H   0  0  0  0  0  0  0  0  0  0  0  0
   36.4050   28.4990   49.8290 H   0  0  0  0  0  0  0  0  0  0  0  0
   35.2010   28.6480   51.1360 H   0  0  0  0  0  0  0  0  0  0  0  0
   38.4550   30.9390   46.5660 Cl  0  0  0  0  0  0  0  0  0  0  0  0
   38.8740   32.2200   47.6730 C   0  0  0  0  0  0  0  0  0  0  0  0
   38.4180   32.1070   48.9630 C   0  0  0  0  0  0  0  0  0  0  0  0
   38.7630   33.1830   49.7660 C   0  0  0  0  0  0  0  0  0  0  0  0
   39.4950   34.2650   49.3170 C   0  0  0  0  0  0  0  0  0  0  0  0
   39.9220   34.3000   47.9880 C   0  0  0  0  0  0  0  0  0  0  0  0
   39.5970   33.2400   47.1420 C   0  0  0  0  0  0  0  0  0  0  0  0
   38.4350   33.1660   50.7980 H   0  0  0  0  0  0  0  0  0  0  0  0
   39.7090   35.0470   50.0250 H   0  0  0  0  0  0  0  0  0  0  0  0
   40.4920   35.1370   47.6300 H   0  0  0  0  0  0  0  0  0  0  0  0
   40.0320   33.2800   45.7940 N   0  0  0  0  0  0  0  0  0  0  0  0
   39.3520   33.9280   45.3840 H   0  0  0  0  0  0  0  0  0  0  0  0
   40.8160   32.8080   45.2920 H   0  0  0  0  0  0  0  0  0  0  0  0
   34.4940   29.6360   48.7070 C   0  0  0  0  0  0  0  0  0  0  0  0
   35.0410   29.7540   47.4380 C   0  0  0  0  0  0  0  0  0  0  0  0
   34.4040   29.1350   46.3690 C   0  0  0  0  0  0  0  0  0  0  0  0
   33.2330   28.4170   46.6290 N   0  0  0  0  0  0  0  0  0  0  0  0
   32.7300   28.3240   47.8720 C   0  0  0  0  0  0  0  0  0  0  0  0
   33.3820   28.9410   48.8700 N   0  0  0  0  0  0  0  0  0  0  0  0
   35.8930   30.2270   46.9690 H   0  0  0  0  0  0  0  0  0  0  0  0
   34.6180   29.0770   45.3270 H   0  0  0  0  0  0  0  0  0  0  0  0
   30.3590   28.1620   47.3770 C   0  0  2  0  0  0  0  0  0  0  0  0
   31.4910   27.5660   48.1460 C   0  0  2  0  0  0  0  0  0  0  0  0
   31.2320   27.4770   49.5110 O   0  0  0  0  0  0  0  0  0  0  0  0
   29.9550   27.8840   49.8430 C   0  0  0  0  0  0  0  0  0  0  0  0
   28.8670   27.1790   49.0650 C   0  0  2  0  0  0  0  0  0  0  0  0
   29.0460   27.4940   47.6110 C   0  0  2  0  0  0  0  0  0  0  0  0
   30.6600   28.0170   46.0150 O   0  0  0  0  0  0  0  0  0  0  0  0
   30.6500   28.8950   45.5380 H   0  0  0  0  0  0  0  0  0  0  0  0
   27.6580   27.6900   49.4990 O   0  0  0  0  0  0  0  0  0  0  0  0
   27.0770   27.8380   48.7150 H   0  0  0  0  0  0  0  0  0  0  0  0
   28.9270   26.3330   46.8420 O   0  0  0  0  0  0  0  0  0  0  0  0
   29.6800   26.2830   46.2010 H   0  0  0  0  0  0  0  0  0  0  0  0
  1  7  1  1  0  0  0
  1  6  1  0  0  0  0
  2  3  1  0  0  0  0
  2  1  1  0  0  0  0
  2  8  1  0  0  0  0
  3 10  1  6  0  0  0
  3  4  1  0  0  0  0
  4 11  1  0  0  0  0
  4  5  1  0  0  0  0
  5 14  1  0  0  0  0
  5 13  1  0  0  0  0
  6 16  1  0  0  0  0
  6  5  1  0  0  0  0
  9  2  1  0  0  0  0
 12  4  1  0  0  0  0
 15  6  1  0  0  0  0
 17 18  1  0  0  0  0
 18 19  1  0  0  0  0
 19  3  1  0  0  0  0
 19 20  2  0  0  0  0
 20 24  1  0  0  0  0
 21 20  1  0  0  0  0
 21 25  1  0  0  0  0
 22 21  2  0  0  0  0
 23 18  2  0  0  0  0
 23 22  1  0  0  0  0
 26 22  1  0  0  0  0
 27 23  1  0  0  0  0
 28 27  1  0  0  0  0
 29 27  1  0  0  0  0
 30 35  1  0  0  0  0
 30  1  1  0  0  0  0
 31 30  2  0  0  0  0
 32 33  2  0  0  0  0
 32 31  1  0  0  0  0
 33 34  1  0  0  0  0
 34 35  2  0  0  0  0
 36 31  1  0  0  0  0
 37 32  1  0  0  0  0
 38 44  1  6  0  0  0
 38 43  1  0  0  0  0
 38 39  1  0  0  0  0
 39 34  1  1  0  0  0
 39 40  1  0  0  0  0
 40 41  1  0  0  0  0
 42 46  1  1  0  0  0
 42 41  1  0  0  0  0
 43 48  1  6  0  0  0
 43 42  1  0  0  0  0
 45 44  1  0  0  0  0
 47 46  1  0  0  0  0
 49 48  1  0  0  0  0
M  END
>  <minimizedAffinity>
-8.48372173

>  <minimizedRMSD>
1.17338622

$$$$
