
 OpenBabel03272509053D

 36 38  0  0  1  0  0  0  0  0999 V2000
   37.3230   30.8570   50.8020 C   0  0  0  0  0  0  0  0  0  0  0  0
   38.2910   31.1390   49.7910 C   0  0  0  0  0  0  0  0  0  0  0  0
   37.9510   30.8750   48.4470 C   0  0  0  0  0  0  0  0  0  0  0  0
   36.7130   30.3640   48.1890 N   0  0  0  0  0  0  0  0  0  0  0  0
   35.8410   30.1180   49.1860 C   0  0  0  0  0  0  0  0  0  0  0  0
   36.1260   30.3560   50.4780 N   0  0  0  0  0  0  0  0  0  0  0  0
   37.6610   31.0860   51.8020 H   0  0  0  0  0  0  0  0  0  0  0  0
   39.2740   31.5450   50.0100 H   0  0  0  0  0  0  0  0  0  0  0  0
   38.6870   32.5480   46.8770 C   0  0  2  0  0  3  0  0  0  0  0  0
   38.9270   31.1540   47.3610 C   0  0  2  0  0  3  0  0  0  0  0  0
   38.7110   30.1900   46.3850 O   0  0  0  0  0  0  0  0  0  0  0  0
   39.3190   30.4190   45.1850 C   0  0  0  0  0  2  0  0  0  0  0  0
   40.1280   31.6810   45.1030 C   0  0  2  0  0  3  0  0  0  0  0  0
   39.1880   32.8140   45.4770 C   0  0  2  0  0  3  0  0  0  0  0  0
   39.3400   33.4360   47.7350 O   0  0  0  0  0  0  0  0  0  0  0  0
   38.6830   34.0460   48.1260 H   0  0  0  0  0  0  0  0  0  0  0  0
   40.5080   31.8400   43.7660 O   0  0  0  0  0  0  0  0  0  0  0  0
   39.7130   31.8070   43.1900 H   0  0  0  0  0  0  0  0  0  0  0  0
   39.8050   34.0370   45.3290 O   0  0  0  0  0  0  0  0  0  0  0  0
   40.5590   34.1400   45.9490 H   0  0  0  0  0  0  0  0  0  0  0  0
   34.5580   29.5640   48.7790 C   0  0  0  0  0  3  0  0  0  0  0  0
   34.5240   28.7870   47.7470 C   0  0  0  0  0  3  0  0  0  0  0  0
   33.3660   28.0990   47.1530 C   0  0  0  0  0  0  0  0  0  0  0  0
   32.6260   27.9150   47.9820 H   0  0  0  0  0  0  0  0  0  0  0  0
   32.8260   28.7130   46.4100 H   0  0  0  0  0  0  0  0  0  0  0  0
   33.6860   26.7410   46.6140 C   0  0  0  0  0  0  0  0  0  0  0  0
   33.7390   25.5740   47.3440 C   0  0  0  0  0  0  0  0  0  0  0  0
   34.0480   24.3840   46.7050 C   0  0  0  0  0  0  0  0  0  0  0  0
   34.3090   24.3280   45.3420 C   0  0  0  0  0  0  0  0  0  0  0  0
   34.2590   25.4890   44.6090 C   0  0  0  0  0  0  0  0  0  0  0  0
   33.9490   26.6890   45.2430 C   0  0  0  0  0  0  0  0  0  0  0  0
   33.5280   25.6660   48.4010 H   0  0  0  0  0  0  0  0  0  0  0  0
   34.0570   23.5410   47.3830 H   0  0  0  0  0  0  0  0  0  0  0  0
   34.5380   23.3410   44.9640 H   0  0  0  0  0  0  0  0  0  0  0  0
   34.4680   25.4130   43.5520 H   0  0  0  0  0  0  0  0  0  0  0  0
   33.9310   27.5530   44.5900 H   0  0  0  0  0  0  0  0  0  0  0  0
  1  7  1  0  0  0  0
  2  8  1  0  0  0  0
  2  1  2  0  0  0  0
  3  2  1  0  0  0  0
  4  3  2  0  0  0  0
  4  5  1  0  0  0  0
  5  6  2  0  0  0  0
  6  1  1  0  0  0  0
  9 10  1  0  0  0  0
  9 15  1  1  0  0  0
 10  3  1  1  0  0  0
 11 10  1  0  0  0  0
 12 11  1  0  0  0  0
 13 17  1  6  0  0  0
 13 12  1  0  0  0  0
 13 14  1  0  0  0  0
 14 19  1  1  0  0  0
 14  9  1  0  0  0  0
 15 16  1  0  0  0  0
 18 17  1  0  0  0  0
 19 20  1  0  0  0  0
 21  5  1  0  0  0  0
 22 21  2  0  0  0  0
 23 22  1  0  0  0  0
 23 24  1  0  0  0  0
 25 23  1  0  0  0  0
 26 23  1  0  0  0  0
 26 27  1  0  0  0  0
 27 32  1  0  0  0  0
 28 27  2  0  0  0  0
 28 33  1  0  0  0  0
 29 28  1  0  0  0  0
 30 31  1  0  0  0  0
 30 29  2  0  0  0  0
 31 26  2  0  0  0  0
 34 29  1  0  0  0  0
 35 30  1  0  0  0  0
 36 31  1  0  0  0  0
M  END
>  <minimizedAffinity>
-6.24670458

>  <minimizedRMSD>
1.10599351

$$$$
