
 OpenBabel03272502073D

 42 45  0  0  1  0  0  0  0  0999 V2000
   34.1700   30.1310   48.2320 F   0  0  0  0  0  0  0  0  0  0  0  0
   34.5120   29.8150   46.9410 C   0  0  0  0  0  0  0  0  0  0  0  0
   33.6300   29.1730   46.0930 C   0  0  0  0  0  0  0  0  0  0  0  0
   34.0300   28.8970   44.8080 C   0  0  0  0  0  0  0  0  0  0  0  0
   35.3050   29.2600   44.3680 C   0  0  0  0  0  0  0  0  0  0  0  0
   36.1440   29.9000   45.2630 C   0  0  0  0  0  0  0  0  0  0  0  0
   35.7890   30.1870   46.5290 C   0  0  0  0  0  0  0  0  0  0  0  0
   33.3120   28.3950   44.1760 H   0  0  0  0  0  0  0  0  0  0  0  0
   35.5730   29.0240   43.3520 H   0  0  0  0  0  0  0  0  0  0  0  0
   37.1100   30.1460   44.8400 H   0  0  0  0  0  0  0  0  0  0  0  0
   37.8790   32.1580   45.2840 Br  0  0  0  0  0  0  0  0  0  0  0  0
   37.6830   31.7700   47.1360 C   0  0  0  0  0  0  0  0  0  0  0  0
   36.7100   30.8520   47.4330 C   0  0  0  0  0  0  0  0  0  0  0  0
   36.5330   30.4940   48.7800 C   0  0  0  0  0  0  0  0  0  0  0  0
   37.3040   31.0420   49.7530 C   0  0  0  0  0  0  0  0  0  0  0  0
   38.2720   31.9690   49.3850 C   0  0  0  0  0  0  0  0  0  0  0  0
   38.4690   32.3450   48.0480 C   0  0  0  0  0  0  0  0  0  0  0  0
   35.7920   29.7790   49.1030 H   0  0  0  0  0  0  0  0  0  0  0  0
   37.1920   30.7870   50.7890 H   0  0  0  0  0  0  0  0  0  0  0  0
   38.9040   32.4270   50.1380 H   0  0  0  0  0  0  0  0  0  0  0  0
   39.3960   33.2460   47.6230 O   0  0  0  0  0  0  0  0  0  0  0  0
   40.3800   32.9940   47.6790 H   0  0  0  0  0  0  0  0  0  0  0  0
   32.3210   27.8440   47.6300 C   0  0  0  0  0  0  0  0  0  0  0  0
   32.3550   28.8540   46.6630 C   0  0  0  0  0  0  0  0  0  0  0  0
   31.1570   29.4650   46.3370 C   0  0  0  0  0  0  0  0  0  0  0  0
   30.0140   29.0810   46.9470 N   0  0  0  0  0  0  0  0  0  0  0  0
   30.0130   28.1090   47.8700 C   0  0  0  0  0  0  0  0  0  0  0  0
   31.1440   27.5060   48.2020 N   0  0  0  0  0  0  0  0  0  0  0  0
   33.2260   27.3290   47.9240 H   0  0  0  0  0  0  0  0  0  0  0  0
   31.1680   30.2370   45.6000 H   0  0  0  0  0  0  0  0  0  0  0  0
   27.7890   27.2670   47.4680 C   0  0  1  0  0  0  0  0  0  0  0  0
   28.7600   27.6800   48.5470 C   0  0  2  0  0  0  0  0  0  0  0  0
   28.2540   28.5660   49.4480 O   0  0  0  0  0  0  0  0  0  0  0  0
   27.5320   29.6200   48.9770 C   0  0  0  0  0  0  0  0  0  0  0  0
   26.5640   29.3270   47.8830 C   0  0  1  0  0  0  0  0  0  0  0  0
   27.1320   28.4460   46.7980 C   0  0  2  0  0  0  0  0  0  0  0  0
   28.5230   26.5860   46.4960 O   0  0  0  0  0  0  0  0  0  0  0  0
   29.2190   27.2160   46.1760 H   0  0  0  0  0  0  0  0  0  0  0  0
   25.3620   28.7920   48.3390 O   0  0  0  0  0  0  0  0  0  0  0  0
   24.9560   28.3140   47.5700 H   0  0  0  0  0  0  0  0  0  0  0  0
   26.0700   27.9640   46.0340 O   0  0  0  0  0  0  0  0  0  0  0  0
   25.9970   28.4210   45.1580 H   0  0  0  0  0  0  0  0  0  0  0  0
  2  1  1  0  0  0  0
  3 24  1  0  0  0  0
  3  2  2  0  0  0  0
  4  3  1  0  0  0  0
  5  4  2  0  0  0  0
  5  6  1  0  0  0  0
  6  7  2  0  0  0  0
  7  2  1  0  0  0  0
  7 13  1  0  0  0  0
  8  4  1  0  0  0  0
  9  5  1  0  0  0  0
 10  6  1  0  0  0  0
 11 12  1  0  0  0  0
 12 13  2  0  0  0  0
 12 17  1  0  0  0  0
 13 14  1  0  0  0  0
 14 18  1  0  0  0  0
 14 15  2  0  0  0  0
 15 19  1  0  0  0  0
 16 15  1  0  0  0  0
 16 20  1  0  0  0  0
 17 16  2  0  0  0  0
 21 22  1  0  0  0  0
 21 17  1  0  0  0  0
 23 29  1  0  0  0  0
 23 28  1  0  0  0  0
 24 23  2  0  0  0  0
 25 24  1  0  0  0  0
 25 26  2  0  0  0  0
 26 27  1  0  0  0  0
 27 28  2  0  0  0  0
 30 25  1  0  0  0  0
 31 37  1  6  0  0  0
 31 32  1  0  0  0  0
 32 27  1  6  0  0  0
 32 33  1  0  0  0  0
 34 33  1  0  0  0  0
 35 39  1  1  0  0  0
 35 34  1  0  0  0  0
 36 41  1  6  0  0  0
 36 31  1  0  0  0  0
 36 35  1  0  0  0  0
 38 37  1  0  0  0  0
 40 39  1  0  0  0  0
 42 41  1  0  0  0  0
M  END
>  <minimizedAffinity>
-7.79664326

>  <minimizedRMSD>
1.25566876

$$$$
