
 OpenBabel03272505313D

 43 46  0  0  1  0  0  0  0  0999 V2000
   37.3710   31.2220   47.0510 N   0  0  0  0  0  0  0  0  0  0  0  0
   36.6670   31.0140   45.9070 C   0  0  0  0  0  0  0  0  0  0  0  0
   37.0630   31.5340   44.6890 C   0  0  0  0  0  0  0  0  0  0  0  0
   38.2430   32.3030   44.6610 C   0  0  0  0  0  0  0  0  0  0  0  0
   38.6480   32.7980   43.5830 O   0  0  0  0  0  0  0  0  0  0  0  0
   38.9500   32.5080   45.8250 N   0  0  0  0  0  0  0  0  0  0  0  0
   38.4670   31.9570   46.9270 C   0  0  0  0  0  0  0  0  0  0  0  0
   39.1380   32.1660   47.9640 O   0  0  0  0  0  0  0  0  0  0  0  0
   35.7480   30.4170   45.9230 H   0  0  0  0  0  0  0  0  0  0  0  0
   37.4310   29.5690   50.3790 C   0  0  0  0  0  0  0  0  0  0  0  0
   37.8650   30.1080   49.1520 C   0  0  0  0  0  0  0  0  0  0  0  0
   36.9490   30.6850   48.2710 C   0  0  0  0  0  0  0  0  0  0  0  0
   35.6480   30.7070   48.6330 N   0  0  0  0  0  0  0  0  0  0  0  0
   35.2150   30.1890   49.8170 C   0  0  0  0  0  0  0  0  0  0  0  0
   36.1110   29.6280   50.6740 N   0  0  0  0  0  0  0  0  0  0  0  0
   38.1590   29.1360   51.0300 H   0  0  0  0  0  0  0  0  0  0  0  0
   38.8880   30.1090   48.8290 H   0  0  0  0  0  0  0  0  0  0  0  0
   34.1970   30.1960   50.1230 H   0  0  0  0  0  0  0  0  0  0  0  0
   36.3500   31.3440   43.4390 C   0  0  0  0  0  0  0  0  0  0  0  0
   36.4110   30.1890   42.7090 C   0  0  0  0  0  0  0  0  0  0  0  0
   35.7560   29.9610   41.5240 C   0  0  0  0  0  0  0  0  0  0  0  0
   34.9540   30.9950   41.0070 C   0  0  0  0  0  0  0  0  0  0  0  0
   34.9170   32.1560   41.7770 C   0  0  0  0  0  0  0  0  0  0  0  0
   35.5840   32.3040   42.9250 N   0  0  0  0  0  0  0  0  0  0  0  0
   37.0200   29.3620   43.0730 H   0  0  0  0  0  0  0  0  0  0  0  0
   35.8050   29.0490   40.9510 H   0  0  0  0  0  0  0  0  0  0  0  0
   34.3900   30.9480   40.0920 H   0  0  0  0  0  0  0  0  0  0  0  0
   32.7980   33.3590   42.1240 C   0  0  2  0  0  3  0  0  0  0  0  0
   34.1110   33.3500   41.3690 C   0  0  1  0  0  3  0  0  0  0  0  0
   34.8590   34.5060   41.5750 O   0  0  0  0  0  0  0  0  0  0  0  0
   34.2120   35.6110   41.0870 C   0  0  0  0  0  2  0  0  0  0  0  0
   32.7480   35.7010   41.4830 C   0  0  2  0  0  3  0  0  0  0  0  0
   32.5540   34.7620   42.6520 C   0  0  1  0  0  3  0  0  0  0  0  0
   32.7930   32.4240   43.1650 O   0  0  0  0  0  0  0  0  0  0  0  0
   32.2630   31.6280   42.8390 H   0  0  0  0  0  0  0  0  0  0  0  0
   32.0130   35.1510   40.4120 O   0  0  0  0  0  0  0  0  0  0  0  0
   32.2620   35.6310   39.5650 H   0  0  0  0  0  0  0  0  0  0  0  0
   31.2560   34.8050   43.1570 O   0  0  0  0  0  0  0  0  0  0  0  0
   31.2970   35.1140   44.1040 H   0  0  0  0  0  0  0  0  0  0  0  0
   40.1580   33.2950   45.7910 C   0  0  0  0  0  0  0  0  0  0  0  0
   40.1070   34.2260   44.8110 F   0  0  0  0  0  0  0  0  0  0  0  0
   41.3060   32.5390   45.5530 F   0  0  0  0  0  0  0  0  0  0  0  0
   40.2890   33.9640   47.0130 F   0  0  0  0  0  0  0  0  0  0  0  0
  1 12  1  0  0  0  0
  2  9  1  0  0  0  0
  2  1  1  0  0  0  0
  3  2  2  0  0  0  0
  4  3  1  0  0  0  0
  4  6  1  0  0  0  0
  5  4  2  0  0  0  0
  6  7  1  0  0  0  0
  7  1  1  0  0  0  0
  7  8  2  0  0  0  0
 10 15  1  0  0  0  0
 10 16  1  0  0  0  0
 11 10  2  0  0  0  0
 12 13  2  0  0  0  0
 12 11  1  0  0  0  0
 13 14  1  0  0  0  0
 14 18  1  0  0  0  0
 14 15  2  0  0  0  0
 17 11  1  0  0  0  0
 19  3  1  0  0  0  0
 20 25  1  0  0  0  0
 20 19  2  0  0  0  0
 21 20  1  0  0  0  0
 22 21  2  0  0  0  0
 22 23  1  0  0  0  0
 23 24  2  0  0  0  0
 24 19  1  0  0  0  0
 26 21  1  0  0  0  0
 27 22  1  0  0  0  0
 28 33  1  0  0  0  0
 28 34  1  1  0  0  0
 29 30  1  0  0  0  0
 29 23  1  1  0  0  0
 29 28  1  0  0  0  0
 31 32  1  0  0  0  0
 31 30  1  0  0  0  0
 32 36  1  6  0  0  0
 32 33  1  0  0  0  0
 33 38  1  6  0  0  0
 35 34  1  0  0  0  0
 37 36  1  0  0  0  0
 38 39  1  0  0  0  0
 40  6  1  0  0  0  0
 40 43  1  0  0  0  0
 41 40  1  0  0  0  0
 42 40  1  0  0  0  0
M  END
>  <minimizedAffinity>
-7.14663744

>  <minimizedRMSD>
1.39733529

$$$$
