
 OpenBabel03272506343D

 22 23  0  0  1  0  0  0  0  0999 V2000
   33.3590   29.5820   46.7370 C   0  0  1  0  0  3  0  0  0  0  0  0
   34.0430   29.3550   48.0620 C   0  0  1  0  0  3  0  0  0  0  0  0
   34.0470   28.0120   48.4320 O   0  0  0  0  0  0  0  0  0  0  0  0
   32.7930   27.4700   48.0730 C   0  0  0  0  0  2  0  0  0  0  0  0
   32.9550   27.0990   46.6050 C   0  0  2  0  0  3  0  0  0  0  0  0
   33.3550   28.3430   45.8750 C   0  0  2  0  0  3  0  0  0  0  0  0
   37.5380   30.1110   49.0060 C   0  0  0  0  0  0  0  0  0  0  0  0
   38.0540   30.7140   47.8400 C   0  0  0  0  0  0  0  0  0  0  0  0
   37.1950   30.8500   46.7510 C   0  0  0  0  0  0  0  0  0  0  0  0
   35.9170   30.4000   46.8660 N   0  0  0  0  0  0  0  0  0  0  0  0
   35.4550   29.8240   48.0090 C   0  0  0  0  0  0  0  0  0  0  0  0
   36.2690   29.6890   49.0600 N   0  0  0  0  0  0  0  0  0  0  0  0
   39.0480   31.0820   47.7010 H   0  0  0  0  0  0  0  0  0  0  0  0
   37.5090   31.3010   45.8170 H   0  0  0  0  0  0  0  0  0  0  0  0
   38.4860   30.0360   50.0100 O   0  0  0  0  0  0  0  0  0  0  0  0
   39.2700   29.4040   49.8100 H   0  0  0  0  0  0  0  0  0  0  0  0
   32.0730   30.0510   46.8310 O   0  0  0  0  0  0  0  0  0  0  0  0
   32.0050   30.9630   47.2130 H   0  0  0  0  0  0  0  0  0  0  0  0
   31.8760   26.4310   46.0850 O   0  0  0  0  0  0  0  0  0  0  0  0
   31.3750   26.9370   45.3990 H   0  0  0  0  0  0  0  0  0  0  0  0
   34.6690   28.2100   45.3780 O   0  0  0  0  0  0  0  0  0  0  0  0
   34.7560   28.5390   44.4630 H   0  0  0  0  0  0  0  0  0  0  0  0
  1 17  1  1  0  0  0
  1  2  1  0  0  0  0
  2 11  1  6  0  0  0
  2  3  1  0  0  0  0
  4  3  1  0  0  0  0
  5 19  1  6  0  0  0
  5  4  1  0  0  0  0
  6 21  1  1  0  0  0
  6  5  1  0  0  0  0
  6  1  1  0  0  0  0
  7 12  1  0  0  0  0
  7 15  1  0  0  0  0
  8  7  2  0  0  0  0
  9 10  2  0  0  0  0
  9  8  1  0  0  0  0
 10 11  1  0  0  0  0
 11 12  2  0  0  0  0
 13  8  1  0  0  0  0
 14  9  1  0  0  0  0
 16 15  1  0  0  0  0
 17 18  1  0  0  0  0
 20 19  1  0  0  0  0
 22 21  1  0  0  0  0
M  END
>  <minimizedAffinity>
-4.43869162

>  <minimizedRMSD>
2.8067522

$$$$
