
 OpenBabel03272500083D

 42 45  0  0  1  0  0  0  0  0999 V2000
   31.1540   27.1490   48.3400 C   0  0  0  0  0  0  0  0  0  0  0  0
   30.9580   27.8260   49.5220 C   0  0  0  0  0  0  0  0  0  0  0  0
   29.6980   28.2320   49.9090 C   0  0  0  0  0  0  0  0  0  0  0  0
   28.6110   27.9420   49.0730 C   0  0  0  0  0  0  0  0  0  0  0  0
   28.8200   27.2580   47.8790 C   0  0  0  0  0  0  0  0  0  0  0  0
   30.0800   26.8740   47.5340 C   0  0  0  0  0  0  0  0  0  0  0  0
   31.7630   28.0720   50.1990 H   0  0  0  0  0  0  0  0  0  0  0  0
   29.5520   28.7670   50.8470 H   0  0  0  0  0  0  0  0  0  0  0  0
   27.6560   28.2930   49.4420 H   0  0  0  0  0  0  0  0  0  0  0  0
   27.9460   27.0680   47.2850 H   0  0  0  0  0  0  0  0  0  0  0  0
   30.2410   27.0800   45.1010 C   0  0  1  0  0  3  0  0  0  0  0  0
   30.2740   26.1410   46.2820 C   0  0  1  0  0  3  0  0  0  0  0  0
   31.4720   25.4370   46.3600 O   0  0  0  0  0  0  0  0  0  0  0  0
   32.0310   25.1790   45.1130 C   0  0  0  0  0  2  0  0  0  0  0  0
   32.6230   26.4700   44.6080 C   0  0  1  0  0  3  0  0  0  0  0  0
   31.5790   27.5610   44.6480 C   0  0  1  0  0  3  0  0  0  0  0  0
   29.5260   26.5550   44.0370 O   0  0  0  0  0  0  0  0  0  0  0  0
   28.7800   25.9960   44.3850 H   0  0  0  0  0  0  0  0  0  0  0  0
   33.6880   26.8910   45.4040 O   0  0  0  0  0  0  0  0  0  0  0  0
   33.9720   27.7730   45.0060 H   0  0  0  0  0  0  0  0  0  0  0  0
   31.4250   28.0320   43.3340 O   0  0  0  0  0  0  0  0  0  0  0  0
   30.4920   27.9760   43.0130 H   0  0  0  0  0  0  0  0  0  0  0  0
   32.4770   26.8060   48.0830 O   0  0  0  0  0  0  0  0  0  0  0  0
   35.3540   28.6760   49.1640 C   0  0  0  0  0  0  0  0  0  0  0  0
   35.2440   29.8830   48.4290 C   0  0  0  0  0  0  0  0  0  0  0  0
   34.1620   30.0170   47.5710 C   0  0  0  0  0  0  0  0  0  0  0  0
   33.2750   28.9870   47.4840 N   0  0  0  0  0  0  0  0  0  0  0  0
   33.4020   27.8600   48.1860 C   0  0  0  0  0  0  0  0  0  0  0  0
   34.4520   27.6860   49.0440 N   0  0  0  0  0  0  0  0  0  0  0  0
   36.2040   28.5650   49.8420 H   0  0  0  0  0  0  0  0  0  0  0  0
   34.0680   30.9330   47.0070 H   0  0  0  0  0  0  0  0  0  0  0  0
   36.2440   30.8700   48.6180 N   0  0  0  0  0  0  0  0  0  0  0  0
   36.3800   31.5400   49.7580 C   0  0  0  0  0  0  0  0  0  0  0  0
   37.3860   32.4920   49.8660 C   0  0  0  0  0  0  0  0  0  0  0  0
   38.1660   32.6610   48.7670 C   0  0  0  0  0  0  0  0  0  0  0  0
   39.0930   33.5290   48.8510 O   0  0  0  0  0  0  0  0  0  0  0  0
   38.0640   32.0160   47.6220 N   0  0  0  0  0  0  0  0  0  0  0  0
   37.0690   31.0860   47.5370 C   0  0  0  0  0  0  0  0  0  0  0  0
   36.9500   30.4520   46.4410 O   0  0  0  0  0  0  0  0  0  0  0  0
   35.6930   31.3160   50.5680 H   0  0  0  0  0  0  0  0  0  0  0  0
   37.4790   33.0270   50.8020 H   0  0  0  0  0  0  0  0  0  0  0  0
   38.7020   32.2010   46.8220 H   0  0  0  0  0  0  0  0  0  0  0  0
  1  2  1  0  0  0  0
  2  3  2  0  0  0  0
  2  7  1  0  0  0  0
  3  8  1  0  0  0  0
  4  9  1  0  0  0  0
  4  3  1  0  0  0  0
  5  4  2  0  0  0  0
  6  5  1  0  0  0  0
  6  1  2  0  0  0  0
 10  5  1  0  0  0  0
 11 17  1  6  0  0  0
 11 12  1  0  0  0  0
 12 13  1  0  0  0  0
 12  6  1  1  0  0  0
 14 13  1  0  0  0  0
 15 16  1  0  0  0  0
 15 14  1  0  0  0  0
 15 19  1  1  0  0  0
 16 21  1  6  0  0  0
 16 11  1  0  0  0  0
 17 18  1  0  0  0  0
 20 19  1  0  0  0  0
 22 21  1  0  0  0  0
 23 28  1  0  0  0  0
 23  1  1  0  0  0  0
 24 30  1  0  0  0  0
 25 32  1  0  0  0  0
 25 24  2  0  0  0  0
 26 25  1  0  0  0  0
 27 26  2  0  0  0  0
 27 28  1  0  0  0  0
 28 29  2  0  0  0  0
 29 24  1  0  0  0  0
 31 26  1  0  0  0  0
 32 33  1  0  0  0  0
 33 34  2  0  0  0  0
 33 40  1  0  0  0  0
 34 41  1  0  0  0  0
 35 36  2  0  0  0  0
 35 34  1  0  0  0  0
 37 35  1  0  0  0  0
 38 37  1  0  0  0  0
 38 32  1  0  0  0  0
 39 38  2  0  0  0  0
 42 37  1  0  0  0  0
M  END
>  <minimizedAffinity>
-5.85578537

>  <minimizedRMSD>
1.18392575

$$$$
