
 OpenBabel03272509083D

 43 46  0  0  1  0  0  0  0  0999 V2000
   33.4930   26.9300   47.0480 C   0  0  0  0  0  0  0  0  0  0  0  0
   33.9360   25.6510   47.3720 C   0  0  0  0  0  0  0  0  0  0  0  0
   34.3090   24.7540   46.3940 C   0  0  0  0  0  0  0  0  0  0  0  0
   34.2570   25.0880   45.0560 C   0  0  0  0  0  0  0  0  0  0  0  0
   33.8260   26.3310   44.7340 C   0  0  0  0  0  0  0  0  0  0  0  0
   33.4450   27.2560   45.6900 C   0  0  0  0  0  0  0  0  0  0  0  0
   33.9490   25.4670   48.4370 H   0  0  0  0  0  0  0  0  0  0  0  0
   34.6340   23.7980   46.7760 H   0  0  0  0  0  0  0  0  0  0  0  0
   34.5560   24.3590   44.3220 H   0  0  0  0  0  0  0  0  0  0  0  0
   33.7960   26.5660   43.6690 H   0  0  0  0  0  0  0  0  0  0  0  0
   34.1020   29.4550   44.6990 C   0  0  1  0  0  3  0  0  0  0  0  0
   32.9920   28.5810   45.1930 C   0  0  2  0  0  3  0  0  0  0  0  0
   32.3740   29.2730   46.2470 O   0  0  0  0  0  0  0  0  0  0  0  0
   31.6960   30.3860   45.7570 C   0  0  0  0  0  2  0  0  0  0  0  0
   32.6650   31.3630   45.1560 C   0  0  1  0  0  3  0  0  0  0  0  0
   33.4330   30.6670   44.0600 C   0  0  2  0  0  3  0  0  0  0  0  0
   34.8930   29.9100   45.7510 O   0  0  0  0  0  0  0  0  0  0  0  0
   34.4210   30.0540   46.5900 H   0  0  0  0  0  0  0  0  0  0  0  0
   32.0050   32.4970   44.7310 O   0  0  0  0  0  0  0  0  0  0  0  0
   32.3770   32.9360   43.9370 H   0  0  0  0  0  0  0  0  0  0  0  0
   32.5920   30.1930   43.0610 O   0  0  0  0  0  0  0  0  0  0  0  0
   32.4670   30.8400   42.3200 H   0  0  0  0  0  0  0  0  0  0  0  0
   33.0780   27.9400   48.0470 C   0  0  0  0  0  0  0  0  0  0  0  0
   32.2820   28.6170   47.7010 H   0  0  0  0  0  0  0  0  0  0  0  0
   32.5970   27.3460   48.8780 H   0  0  0  0  0  0  0  0  0  0  0  0
   35.0220   28.2950   49.5660 C   0  0  0  0  0  3  0  0  0  0  0  0
   34.2070   28.6940   48.6210 C   0  0  0  0  0  3  0  0  0  0  0  0
   37.4070   30.1690   51.6050 C   0  0  0  0  0  0  0  0  0  0  0  0
   38.0800   30.9260   50.6230 C   0  0  0  0  0  0  0  0  0  0  0  0
   37.6980   30.7730   49.2830 C   0  0  0  0  0  0  0  0  0  0  0  0
   36.6820   29.8910   48.9900 N   0  0  0  0  0  0  0  0  0  0  0  0
   36.0790   29.1940   49.9940 C   0  0  0  0  0  0  0  0  0  0  0  0
   36.4330   29.3320   51.2640 N   0  0  0  0  0  0  0  0  0  0  0  0
   37.6930   30.2790   52.6290 H   0  0  0  0  0  0  0  0  0  0  0  0
   38.8750   31.6160   50.8540 H   0  0  0  0  0  0  0  0  0  0  0  0
   38.3280   31.5070   48.1850 C   0  0  0  0  0  0  0  0  0  0  0  0
   38.4970   30.9690   46.9320 C   0  0  0  0  0  0  0  0  0  0  0  0
   39.1230   31.9300   46.1430 C   0  0  0  0  0  0  0  0  0  0  0  0
   39.3090   33.0100   46.9450 N   0  0  0  0  0  0  0  0  0  0  0  0
   38.8330   32.7490   48.1570 N   0  0  0  0  0  0  0  0  0  0  0  0
   38.2140   29.9980   46.5870 H   0  0  0  0  0  0  0  0  0  0  0  0
   39.4190   31.8750   45.1030 H   0  0  0  0  0  0  0  0  0  0  0  0
   39.7520   33.9440   46.7170 H   0  0  0  0  0  0  0  0  0  0  0  0
  1  2  1  0  0  0  0
  1 23  1  0  0  0  0
  2  7  1  0  0  0  0
  3  8  1  0  0  0  0
  3  2  2  0  0  0  0
  4  3  1  0  0  0  0
  5  4  2  0  0  0  0
  5  6  1  0  0  0  0
  6  1  2  0  0  0  0
  9  4  1  0  0  0  0
 10  5  1  0  0  0  0
 11 12  1  0  0  0  0
 11 17  1  1  0  0  0
 12  6  1  1  0  0  0
 12 13  1  0  0  0  0
 14 13  1  0  0  0  0
 15 19  1  6  0  0  0
 15 14  1  0  0  0  0
 16 21  1  6  0  0  0
 16 11  1  0  0  0  0
 16 15  1  0  0  0  0
 17 18  1  0  0  0  0
 20 19  1  0  0  0  0
 22 21  1  0  0  0  0
 23 27  1  0  0  0  0
 23 25  1  0  0  0  0
 24 23  1  0  0  0  0
 26 32  1  0  0  0  0
 27 26  2  0  0  0  0
 28 34  1  0  0  0  0
 29 35  1  0  0  0  0
 29 28  2  0  0  0  0
 30 29  1  0  0  0  0
 31 30  2  0  0  0  0
 31 32  1  0  0  0  0
 32 33  2  0  0  0  0
 33 28  1  0  0  0  0
 36 30  1  0  0  0  0
 37 36  1  0  0  0  0
 38 37  2  0  0  0  0
 38 39  1  0  0  0  0
 39 40  1  0  0  0  0
 40 36  2  0  0  0  0
 41 37  1  0  0  0  0
 42 38  1  0  0  0  0
 43 39  1  0  0  0  0
M  END
>  <minimizedAffinity>
-6.65568542

>  <minimizedRMSD>
0.673839092

$$$$
