
 OpenBabel03272507333D

 39 42  0  0  1  0  0  0  0  0999 V2000
   33.2070   27.5510   48.2320 C   0  0  0  0  0  0  0  0  0  0  0  0
   31.9740   27.4840   48.5540 O   0  0  0  0  0  0  0  0  0  0  0  0
   35.9370   29.2100   49.8390 C   0  0  0  0  0  0  0  0  0  0  0  0
   34.9170   29.6430   50.6610 C   0  0  0  0  0  0  0  0  0  0  0  0
   33.7240   29.0810   50.1770 C   0  0  0  0  0  0  0  0  0  0  0  0
   34.1010   28.3370   49.0820 C   0  0  0  0  0  0  0  0  0  0  0  0
   35.4030   28.4420   48.9220 O   0  0  0  0  0  0  0  0  0  0  0  0
   34.9770   30.2950   51.5320 H   0  0  0  0  0  0  0  0  0  0  0  0
   32.7330   29.1850   50.5460 H   0  0  0  0  0  0  0  0  0  0  0  0
   37.3200   29.6040   50.0520 C   0  0  0  0  0  0  0  0  0  0  0  0
   37.9760   29.0510   50.9470 O   0  0  0  0  0  0  0  0  0  0  0  0
   37.8460   30.6280   49.1940 C   0  0  0  0  0  0  0  0  0  0  0  0
   38.1870   31.8340   49.7890 C   0  0  0  0  0  0  0  0  0  0  0  0
   38.7010   32.8550   48.9790 C   0  0  0  0  0  0  0  0  0  0  0  0
   38.8370   32.6030   47.6360 N   0  0  0  0  0  0  0  0  0  0  0  0
   38.4980   31.4310   47.0990 C   0  0  0  0  0  0  0  0  0  0  0  0
   38.0050   30.4430   47.8650 N   0  0  0  0  0  0  0  0  0  0  0  0
   38.0750   32.0150   50.8340 H   0  0  0  0  0  0  0  0  0  0  0  0
   38.9820   33.8180   49.4010 H   0  0  0  0  0  0  0  0  0  0  0  0
   38.6170   31.2630   46.0420 H   0  0  0  0  0  0  0  0  0  0  0  0
   33.7340   26.8400   47.0220 C   0  0  1  0  0  0  0  0  0  0  0  0
   33.7940   25.2870   47.2970 C   0  0  0  0  0  0  0  0  0  0  0  0
   32.8960   25.8930   46.2820 C   0  0  2  0  0  0  0  0  0  0  0  0
   34.7800   27.1540   46.7310 H   0  0  0  0  0  0  0  0  0  0  0  0
   33.4430   24.9310   48.2580 H   0  0  0  0  0  0  0  0  0  0  0  0
   34.6490   24.7430   46.8870 H   0  0  0  0  0  0  0  0  0  0  0  0
   31.8140   25.9150   46.5710 H   0  0  0  0  0  0  0  0  0  0  0  0
   33.1150   26.8960   44.0750 C   0  0  1  0  0  3  0  0  0  0  0  0
   33.1990   25.6320   44.8110 C   0  0  1  0  0  3  0  0  0  0  0  0
   34.3300   24.8970   44.7370 O   0  0  0  0  0  0  0  0  0  0  0  0
   35.1900   25.0580   43.7120 C   0  0  0  0  0  2  0  0  0  0  0  0
   34.6800   25.7910   42.5080 C   0  0  2  0  0  3  0  0  0  0  0  0
   34.1670   27.1230   43.0260 C   0  0  2  0  0  3  0  0  0  0  0  0
   31.8710   27.0380   43.4450 O   0  0  0  0  0  0  0  0  0  0  0  0
   31.8270   27.9690   43.0890 H   0  0  0  0  0  0  0  0  0  0  0  0
   33.6760   25.0700   41.8740 O   0  0  0  0  0  0  0  0  0  0  0  0
   33.9450   24.9970   40.9300 H   0  0  0  0  0  0  0  0  0  0  0  0
   35.2700   27.7750   43.6050 O   0  0  0  0  0  0  0  0  0  0  0  0
   36.0160   27.7990   42.9470 H   0  0  0  0  0  0  0  0  0  0  0  0
  1  2  2  0  0  0  0
  1  6  1  0  0  0  0
  3 10  1  0  0  0  0
  3  4  2  0  0  0  0
  4  8  1  0  0  0  0
  5  9  1  0  0  0  0
  5  4  1  0  0  0  0
  6  5  2  0  0  0  0
  7  6  1  0  0  0  0
  7  3  1  0  0  0  0
 10 11  2  0  0  0  0
 12 13  1  0  0  0  0
 12 10  1  0  0  0  0
 13 18  1  0  0  0  0
 14 19  1  0  0  0  0
 14 13  2  0  0  0  0
 15 14  1  0  0  0  0
 16 15  2  0  0  0  0
 16 17  1  0  0  0  0
 17 12  2  0  0  0  0
 20 16  1  0  0  0  0
 21 24  1  6  0  0  0
 21 22  1  0  0  0  0
 21  1  1  0  0  0  0
 22 25  1  0  0  0  0
 23 27  1  1  0  0  0
 23 21  1  0  0  0  0
 23 22  1  0  0  0  0
 26 22  1  0  0  0  0
 28 34  1  6  0  0  0
 28 29  1  0  0  0  0
 29 30  1  1  0  0  0
 29 23  1  0  0  0  0
 31 30  1  0  0  0  0
 32 36  1  1  0  0  0
 32 33  1  0  0  0  0
 32 31  1  0  0  0  0
 33 38  1  1  0  0  0
 33 28  1  0  0  0  0
 35 34  1  0  0  0  0
 37 36  1  0  0  0  0
 39 38  1  0  0  0  0
M  END
>  <minimizedAffinity>
-5.03927994

>  <minimizedRMSD>
0.418417335

$$$$
