
 OpenBabel03272506353D

 22 23  0  0  1  0  0  0  0  0999 V2000
   38.2980   22.7360   35.8080 C   0  0  1  0  0  3  0  0  0  0  0  0
   37.8740   24.0140   36.4880 C   0  0  1  0  0  3  0  0  0  0  0  0
   38.7070   24.3460   37.5530 O   0  0  0  0  0  0  0  0  0  0  0  0
   39.0320   23.1470   38.2270 C   0  0  0  0  0  2  0  0  0  0  0  0
   40.2090   22.5870   37.4410 C   0  0  2  0  0  3  0  0  0  0  0  0
   39.7610   22.4290   36.0230 C   0  0  2  0  0  3  0  0  0  0  0  0
   37.8570   25.9550   33.3400 C   0  0  0  0  0  0  0  0  0  0  0  0
   37.9000   27.2900   33.7960 C   0  0  0  0  0  0  0  0  0  0  0  0
   37.9340   27.5000   35.1730 C   0  0  0  0  0  0  0  0  0  0  0  0
   37.9240   26.4210   36.0000 N   0  0  0  0  0  0  0  0  0  0  0  0
   37.8830   25.1470   35.5230 C   0  0  0  0  0  0  0  0  0  0  0  0
   37.8510   24.9330   34.2050 N   0  0  0  0  0  0  0  0  0  0  0  0
   37.9090   28.1690   33.1880 H   0  0  0  0  0  0  0  0  0  0  0  0
   37.9670   28.4920   35.6080 H   0  0  0  0  0  0  0  0  0  0  0  0
   37.8280   25.8830   31.9600 O   0  0  0  0  0  0  0  0  0  0  0  0
   36.9690   26.2490   31.5320 H   0  0  0  0  0  0  0  0  0  0  0  0
   37.5650   21.6310   36.1620 O   0  0  0  0  0  0  0  0  0  0  0  0
   36.6180   21.6660   35.8740 H   0  0  0  0  0  0  0  0  0  0  0  0
   40.7680   21.4710   38.0100 O   0  0  0  0  0  0  0  0  0  0  0  0
   40.6480   20.6420   37.4850 H   0  0  0  0  0  0  0  0  0  0  0  0
   40.4710   23.3210   35.1900 O   0  0  0  0  0  0  0  0  0  0  0  0
   40.7640   22.8990   34.3600 H   0  0  0  0  0  0  0  0  0  0  0  0
  1  6  1  0  0  0  0
  1 17  1  1  0  0  0
  1  2  1  0  0  0  0
  2 11  1  6  0  0  0
  2  3  1  0  0  0  0
  3  4  1  0  0  0  0
  5 19  1  1  0  0  0
  5  4  1  0  0  0  0
  6 21  1  6  0  0  0
  6  5  1  0  0  0  0
  7  8  2  0  0  0  0
  7 12  1  0  0  0  0
  8  9  1  0  0  0  0
  9 14  1  0  0  0  0
  9 10  2  0  0  0  0
 11 10  1  0  0  0  0
 12 11  2  0  0  0  0
 13  8  1  0  0  0  0
 15  7  1  0  0  0  0
 16 15  1  0  0  0  0
 18 17  1  0  0  0  0
 20 19  1  0  0  0  0
 22 21  1  0  0  0  0
M  END
>  <minimizedAffinity>
-5.04251099

$$$$

 OpenBabel03272506353D

 22 23  0  0  1  0  0  0  0  0999 V2000
   36.8530   25.5460   31.5360 C   0  0  1  0  0  3  0  0  0  0  0  0
   38.2730   25.5890   32.0440 C   0  0  1  0  0  3  0  0  0  0  0  0
   38.9550   26.7230   31.6120 O   0  0  0  0  0  0  0  0  0  0  0  0
   38.5740   26.9600   30.2720 C   0  0  0  0  0  2  0  0  0  0  0  0
   37.2760   27.7470   30.3880 C   0  0  2  0  0  3  0  0  0  0  0  0
   36.3260   26.9180   31.1910 C   0  0  2  0  0  3  0  0  0  0  0  0
   38.4860   26.6820   35.5710 C   0  0  0  0  0  0  0  0  0  0  0  0
   38.3240   25.4740   36.2830 C   0  0  0  0  0  0  0  0  0  0  0  0
   38.1450   24.3080   35.5420 C   0  0  0  0  0  0  0  0  0  0  0  0
   38.1340   24.3910   34.1840 N   0  0  0  0  0  0  0  0  0  0  0  0
   38.2950   25.5750   33.5320 C   0  0  0  0  0  0  0  0  0  0  0  0
   38.4680   26.6990   34.2320 N   0  0  0  0  0  0  0  0  0  0  0  0
   38.3240   25.3590   37.3450 H   0  0  0  0  0  0  0  0  0  0  0  0
   38.0130   23.3390   36.0080 H   0  0  0  0  0  0  0  0  0  0  0  0
   38.6550   27.7610   36.4180 O   0  0  0  0  0  0  0  0  0  0  0  0
   37.8290   27.9930   36.9840 H   0  0  0  0  0  0  0  0  0  0  0  0
   36.6590   24.7220   30.4550 O   0  0  0  0  0  0  0  0  0  0  0  0
   36.7940   23.7600   30.6530 H   0  0  0  0  0  0  0  0  0  0  0  0
   36.7960   28.1950   29.1840 O   0  0  0  0  0  0  0  0  0  0  0  0
   35.9470   27.7730   28.9010 H   0  0  0  0  0  0  0  0  0  0  0  0
   36.0560   27.5510   32.4250 O   0  0  0  0  0  0  0  0  0  0  0  0
   35.1090   27.5210   32.6570 H   0  0  0  0  0  0  0  0  0  0  0  0
  1 17  1  6  0  0  0
  1  2  1  0  0  0  0
  2 11  1  1  0  0  0
  3  2  1  0  0  0  0
  4  5  1  0  0  0  0
  4  3  1  0  0  0  0
  5 19  1  6  0  0  0
  5  6  1  0  0  0  0
  6  1  1  0  0  0  0
  6 21  1  1  0  0  0
  7  8  1  0  0  0  0
  7 15  1  0  0  0  0
  8 13  1  0  0  0  0
  9 14  1  0  0  0  0
  9  8  2  0  0  0  0
 10  9  1  0  0  0  0
 11 10  2  0  0  0  0
 11 12  1  0  0  0  0
 12  7  2  0  0  0  0
 15 16  1  0  0  0  0
 17 18  1  0  0  0  0
 20 19  1  0  0  0  0
 21 22  1  0  0  0  0
M  END
>  <minimizedAffinity>
-4.87996149

$$$$

 OpenBabel03272506353D

 22 23  0  0  1  0  0  0  0  0999 V2000
   37.9740   24.1850   35.9000 C   0  0  1  0  0  3  0  0  0  0  0  0
   38.7600   24.1380   34.6140 C   0  0  1  0  0  3  0  0  0  0  0  0
   39.8350   23.2560   34.6840 O   0  0  0  0  0  0  0  0  0  0  0  0
   40.4060   23.3860   35.9710 C   0  0  0  0  0  2  0  0  0  0  0  0
   39.5600   22.4730   36.8460 C   0  0  2  0  0  3  0  0  0  0  0  0
   38.1410   22.9290   36.7200 C   0  0  2  0  0  3  0  0  0  0  0  0
   36.5860   24.2260   31.6230 C   0  0  0  0  0  0  0  0  0  0  0  0
   36.2860   22.8630   31.4150 C   0  0  0  0  0  0  0  0  0  0  0  0
   36.8340   21.9400   32.3020 C   0  0  0  0  0  0  0  0  0  0  0  0
   37.6220   22.3920   33.3140 N   0  0  0  0  0  0  0  0  0  0  0  0
   37.8890   23.7160   33.4830 C   0  0  0  0  0  0  0  0  0  0  0  0
   37.3690   24.6110   32.6390 N   0  0  0  0  0  0  0  0  0  0  0  0
   35.6740   22.4590   30.6370 H   0  0  0  0  0  0  0  0  0  0  0  0
   36.6550   20.8750   32.2150 H   0  0  0  0  0  0  0  0  0  0  0  0
   35.9840   25.0370   30.6800 O   0  0  0  0  0  0  0  0  0  0  0  0
   36.3410   24.9170   29.7230 H   0  0  0  0  0  0  0  0  0  0  0  0
   38.2500   25.2660   36.6980 O   0  0  0  0  0  0  0  0  0  0  0  0
   37.9800   26.1350   36.3070 H   0  0  0  0  0  0  0  0  0  0  0  0
   40.0290   22.3530   38.1290 O   0  0  0  0  0  0  0  0  0  0  0  0
   39.4410   22.7520   38.8170 H   0  0  0  0  0  0  0  0  0  0  0  0
   37.3700   21.9370   36.0740 O   0  0  0  0  0  0  0  0  0  0  0  0
   36.5050   21.8010   36.5040 H   0  0  0  0  0  0  0  0  0  0  0  0
  1 17  1  1  0  0  0
  1  6  1  0  0  0  0
  2 11  1  6  0  0  0
  2  3  1  0  0  0  0
  2  1  1  0  0  0  0
  3  4  1  0  0  0  0
  4  5  1  0  0  0  0
  5 19  1  1  0  0  0
  6 21  1  6  0  0  0
  6  5  1  0  0  0  0
  7 12  1  0  0  0  0
  8  7  2  0  0  0  0
  8  9  1  0  0  0  0
  9 10  2  0  0  0  0
 10 11  1  0  0  0  0
 12 11  2  0  0  0  0
 13  8  1  0  0  0  0
 14  9  1  0  0  0  0
 15  7  1  0  0  0  0
 16 15  1  0  0  0  0
 18 17  1  0  0  0  0
 19 20  1  0  0  0  0
 21 22  1  0  0  0  0
M  END
>  <minimizedAffinity>
-4.87062311

$$$$

 OpenBabel03272506353D

 22 23  0  0  1  0  0  0  0  0999 V2000
   38.2100   23.9320   35.5370 C   0  0  1  0  0  3  0  0  0  0  0  0
   38.6880   23.1230   34.3570 C   0  0  1  0  0  3  0  0  0  0  0  0
   39.5590   22.1040   34.7330 O   0  0  0  0  0  0  0  0  0  0  0  0
   40.3980   22.6170   35.7480 C   0  0  0  0  0  2  0  0  0  0  0  0
   39.5890   22.4380   37.0240 C   0  0  2  0  0  3  0  0  0  0  0  0
   38.2930   23.1600   36.8320 C   0  0  2  0  0  3  0  0  0  0  0  0
   35.9560   20.8130   33.4210 C   0  0  0  0  0  0  0  0  0  0  0  0
   35.4050   21.4280   32.2770 C   0  0  0  0  0  0  0  0  0  0  0  0
   35.9780   22.6230   31.8480 C   0  0  0  0  0  0  0  0  0  0  0  0
   37.0300   23.1310   32.5450 N   0  0  0  0  0  0  0  0  0  0  0  0
   37.5360   22.5080   33.6440 C   0  0  0  0  0  0  0  0  0  0  0  0
   36.9940   21.3620   34.0650 N   0  0  0  0  0  0  0  0  0  0  0  0
   34.5810   21.0690   31.6980 H   0  0  0  0  0  0  0  0  0  0  0  0
   35.6170   23.1610   30.9800 H   0  0  0  0  0  0  0  0  0  0  0  0
   35.3010   19.6390   33.7420 O   0  0  0  0  0  0  0  0  0  0  0  0
   34.3300   19.7640   34.0530 H   0  0  0  0  0  0  0  0  0  0  0  0
   38.8550   25.1320   35.7050 O   0  0  0  0  0  0  0  0  0  0  0  0
   38.6860   25.7840   34.9780 H   0  0  0  0  0  0  0  0  0  0  0  0
   40.2800   22.7610   38.1630 O   0  0  0  0  0  0  0  0  0  0  0  0
   39.9390   23.5600   38.6350 H   0  0  0  0  0  0  0  0  0  0  0  0
   37.2250   22.2360   36.8020 O   0  0  0  0  0  0  0  0  0  0  0  0
   36.4580   22.5390   37.3240 H   0  0  0  0  0  0  0  0  0  0  0  0
  1 17  1  1  0  0  0
  1  6  1  0  0  0  0
  2 11  1  1  0  0  0
  2  3  1  0  0  0  0
  2  1  1  0  0  0  0
  3  4  1  0  0  0  0
  4  5  1  0  0  0  0
  5 19  1  1  0  0  0
  6 21  1  6  0  0  0
  6  5  1  0  0  0  0
  7 15  1  0  0  0  0
  7 12  1  0  0  0  0
  8  7  2  0  0  0  0
  9  8  1  0  0  0  0
  9 10  2  0  0  0  0
 10 11  1  0  0  0  0
 11 12  2  0  0  0  0
 13  8  1  0  0  0  0
 14  9  1  0  0  0  0
 15 16  1  0  0  0  0
 18 17  1  0  0  0  0
 19 20  1  0  0  0  0
 21 22  1  0  0  0  0
M  END
>  <minimizedAffinity>
-4.84439802

$$$$

 OpenBabel03272506353D

 22 23  0  0  1  0  0  0  0  0999 V2000
   38.6800   22.9800   35.5140 C   0  0  1  0  0  3  0  0  0  0  0  0
   38.2420   24.4170   35.3860 C   0  0  1  0  0  3  0  0  0  0  0  0
   38.2090   25.0710   36.6160 O   0  0  0  0  0  0  0  0  0  0  0  0
   37.6990   24.1570   37.5660 C   0  0  0  0  0  2  0  0  0  0  0  0
   38.9160   23.3480   37.9940 C   0  0  2  0  0  3  0  0  0  0  0  0
   39.4980   22.7370   36.7590 C   0  0  2  0  0  3  0  0  0  0  0  0
   41.0790   26.4480   34.1590 C   0  0  0  0  0  0  0  0  0  0  0  0
   40.8270   26.5330   32.7740 C   0  0  0  0  0  0  0  0  0  0  0  0
   39.6900   25.8920   32.2850 C   0  0  0  0  0  0  0  0  0  0  0  0
   38.8890   25.2250   33.1580 N   0  0  0  0  0  0  0  0  0  0  0  0
   39.1640   25.1660   34.4900 C   0  0  0  0  0  0  0  0  0  0  0  0
   40.2510   25.7770   34.9700 N   0  0  0  0  0  0  0  0  0  0  0  0
   41.4240   27.0430   32.0490 H   0  0  0  0  0  0  0  0  0  0  0  0
   39.4220   25.9070   31.2360 H   0  0  0  0  0  0  0  0  0  0  0  0
   42.2310   27.1230   34.5160 O   0  0  0  0  0  0  0  0  0  0  0  0
   43.0980   26.7120   34.1480 H   0  0  0  0  0  0  0  0  0  0  0  0
   37.6550   22.0670   35.4820 O   0  0  0  0  0  0  0  0  0  0  0  0
   37.1840   22.0210   34.6120 H   0  0  0  0  0  0  0  0  0  0  0  0
   38.6620   22.4750   39.0200 O   0  0  0  0  0  0  0  0  0  0  0  0
   38.7210   21.5210   38.7680 H   0  0  0  0  0  0  0  0  0  0  0  0
   40.7710   23.2910   36.5000 O   0  0  0  0  0  0  0  0  0  0  0  0
   41.4250   22.6130   36.2440 H   0  0  0  0  0  0  0  0  0  0  0  0
  1 17  1  1  0  0  0
  1  6  1  0  0  0  0
  2 11  1  6  0  0  0
  2  1  1  0  0  0  0
  2  3  1  0  0  0  0
  3  4  1  0  0  0  0
  4  5  1  0  0  0  0
  5 19  1  1  0  0  0
  6 21  1  6  0  0  0
  6  5  1  0  0  0  0
  7 15  1  0  0  0  0
  7 12  1  0  0  0  0
  8  7  2  0  0  0  0
  9  8  1  0  0  0  0
  9 10  2  0  0  0  0
 10 11  1  0  0  0  0
 11 12  2  0  0  0  0
 13  8  1  0  0  0  0
 14  9  1  0  0  0  0
 16 15  1  0  0  0  0
 18 17  1  0  0  0  0
 20 19  1  0  0  0  0
 22 21  1  0  0  0  0
M  END
>  <minimizedAffinity>
-4.76494122

$$$$

 OpenBabel03272506353D

 22 23  0  0  1  0  0  0  0  0999 V2000
   39.8690   25.6990   33.5840 C   0  0  1  0  0  3  0  0  0  0  0  0
   40.6760   24.5370   34.1100 C   0  0  1  0  0  3  0  0  0  0  0  0
   42.0030   24.8820   34.3510 O   0  0  0  0  0  0  0  0  0  0  0  0
   42.4150   25.7370   33.3030 C   0  0  0  0  0  2  0  0  0  0  0  0
   41.9450   27.1160   33.7440 C   0  0  2  0  0  3  0  0  0  0  0  0
   40.4680   27.0320   33.9640 C   0  0  2  0  0  3  0  0  0  0  0  0
   40.1600   22.6050   37.2210 C   0  0  0  0  0  0  0  0  0  0  0  0
   38.9550   23.1390   37.7240 C   0  0  0  0  0  0  0  0  0  0  0  0
   38.3420   24.1510   36.9900 C   0  0  0  0  0  0  0  0  0  0  0  0
   38.9280   24.5700   35.8360 N   0  0  0  0  0  0  0  0  0  0  0  0
   40.0910   24.0290   35.3810 C   0  0  0  0  0  0  0  0  0  0  0  0
   40.6890   23.0580   36.0770 N   0  0  0  0  0  0  0  0  0  0  0  0
   38.4560   22.8450   38.6230 H   0  0  0  0  0  0  0  0  0  0  0  0
   37.4150   24.6170   37.3040 H   0  0  0  0  0  0  0  0  0  0  0  0
   40.6650   21.6120   38.0390 O   0  0  0  0  0  0  0  0  0  0  0  0
   40.9820   21.9380   38.9600 H   0  0  0  0  0  0  0  0  0  0  0  0
   39.6680   25.6840   32.2260 O   0  0  0  0  0  0  0  0  0  0  0  0
   39.1030   24.9340   31.9110 H   0  0  0  0  0  0  0  0  0  0  0  0
   42.3600   28.1280   32.9160 O   0  0  0  0  0  0  0  0  0  0  0  0
   41.6300   28.5720   32.4170 H   0  0  0  0  0  0  0  0  0  0  0  0
   40.1720   27.2130   35.3340 O   0  0  0  0  0  0  0  0  0  0  0  0
   39.4070   27.8010   35.4730 H   0  0  0  0  0  0  0  0  0  0  0  0
  1 17  1  6  0  0  0
  1  6  1  0  0  0  0
  1  2  1  0  0  0  0
  2  3  1  0  0  0  0
  2 11  1  1  0  0  0
  4  5  1  0  0  0  0
  4  3  1  0  0  0  0
  5 19  1  6  0  0  0
  5  6  1  0  0  0  0
  6 21  1  1  0  0  0
  7  8  1  0  0  0  0
  7 15  1  0  0  0  0
  8 13  1  0  0  0  0
  9 14  1  0  0  0  0
  9  8  2  0  0  0  0
 10  9  1  0  0  0  0
 11 10  2  0  0  0  0
 11 12  1  0  0  0  0
 12  7  2  0  0  0  0
 15 16  1  0  0  0  0
 18 17  1  0  0  0  0
 20 19  1  0  0  0  0
 21 22  1  0  0  0  0
M  END
>  <minimizedAffinity>
-4.65390682

$$$$

 OpenBabel03272506353D

 22 23  0  0  1  0  0  0  0  0999 V2000
   38.1540   26.2240   35.0220 C   0  0  1  0  0  3  0  0  0  0  0  0
   38.1730   24.7460   34.7210 C   0  0  1  0  0  3  0  0  0  0  0  0
   38.7300   24.4680   33.4750 O   0  0  0  0  0  0  0  0  0  0  0  0
   38.2800   25.4650   32.5790 C   0  0  0  0  0  2  0  0  0  0  0  0
   39.2500   26.6190   32.7900 C   0  0  2  0  0  3  0  0  0  0  0  0
   39.1980   26.9830   34.2400 C   0  0  2  0  0  3  0  0  0  0  0  0
   39.1300   23.0300   37.8540 C   0  0  0  0  0  0  0  0  0  0  0  0
   40.4690   22.6570   37.6110 C   0  0  0  0  0  0  0  0  0  0  0  0
   41.0190   23.0000   36.3770 C   0  0  0  0  0  0  0  0  0  0  0  0
   40.2470   23.6700   35.4800 N   0  0  0  0  0  0  0  0  0  0  0  0
   38.9580   24.0130   35.7520 C   0  0  0  0  0  0  0  0  0  0  0  0
   38.4200   23.6900   36.9310 N   0  0  0  0  0  0  0  0  0  0  0  0
   41.1140   22.1320   38.2810 H   0  0  0  0  0  0  0  0  0  0  0  0
   42.0390   22.7530   36.1080 H   0  0  0  0  0  0  0  0  0  0  0  0
   38.7040   22.6340   39.1080 O   0  0  0  0  0  0  0  0  0  0  0  0
   38.6350   21.6160   39.2340 H   0  0  0  0  0  0  0  0  0  0  0  0
   36.9370   26.8290   34.8260 O   0  0  0  0  0  0  0  0  0  0  0  0
   36.2300   26.5230   35.4490 H   0  0  0  0  0  0  0  0  0  0  0  0
   39.0660   27.6580   31.9140 O   0  0  0  0  0  0  0  0  0  0  0  0
   38.7410   28.4930   32.3340 H   0  0  0  0  0  0  0  0  0  0  0  0
   40.4340   26.6900   34.8570 O   0  0  0  0  0  0  0  0  0  0  0  0
   40.7270   27.4030   35.4560 H   0  0  0  0  0  0  0  0  0  0  0  0
  1 17  1  6  0  0  0
  2  1  1  0  0  0  0
  2 11  1  1  0  0  0
  3  2  1  0  0  0  0
  4  5  1  0  0  0  0
  4  3  1  0  0  0  0
  5 19  1  6  0  0  0
  5  6  1  0  0  0  0
  6 21  1  1  0  0  0
  6  1  1  0  0  0  0
  7 15  1  0  0  0  0
  8  7  1  0  0  0  0
  8 13  1  0  0  0  0
  9  8  2  0  0  0  0
 10 11  2  0  0  0  0
 10  9  1  0  0  0  0
 11 12  1  0  0  0  0
 12  7  2  0  0  0  0
 14  9  1  0  0  0  0
 15 16  1  0  0  0  0
 17 18  1  0  0  0  0
 19 20  1  0  0  0  0
 21 22  1  0  0  0  0
M  END
>  <minimizedAffinity>
-4.64557314

$$$$

 OpenBabel03272506353D

 22 23  0  0  1  0  0  0  0  0999 V2000
   39.2610   24.0580   33.4090 C   0  0  1  0  0  3  0  0  0  0  0  0
   38.8330   25.0610   34.4510 C   0  0  1  0  0  3  0  0  0  0  0  0
   37.5500   25.5490   34.2200 O   0  0  0  0  0  0  0  0  0  0  0  0
   37.4120   25.7320   32.8250 C   0  0  0  0  0  2  0  0  0  0  0  0
   37.0160   24.3560   32.3080 C   0  0  2  0  0  3  0  0  0  0  0  0
   38.0850   23.3990   32.7310 C   0  0  2  0  0  3  0  0  0  0  0  0
   39.6410   22.8360   37.2930 C   0  0  0  0  0  0  0  0  0  0  0  0
   38.8530   23.3650   38.3380 C   0  0  0  0  0  0  0  0  0  0  0  0
   38.0600   24.4740   38.0490 C   0  0  0  0  0  0  0  0  0  0  0  0
   38.0840   24.9860   36.7900 N   0  0  0  0  0  0  0  0  0  0  0  0
   38.8570   24.4480   35.8070 C   0  0  0  0  0  0  0  0  0  0  0  0
   39.6220   23.3840   36.0720 N   0  0  0  0  0  0  0  0  0  0  0  0
   38.8000   23.0000   39.3410 H   0  0  0  0  0  0  0  0  0  0  0  0
   37.4250   24.9420   38.7920 H   0  0  0  0  0  0  0  0  0  0  0  0
   40.3770   21.7420   37.7060 O   0  0  0  0  0  0  0  0  0  0  0  0
   41.1090   21.9560   38.3950 H   0  0  0  0  0  0  0  0  0  0  0  0
   40.0950   24.5620   32.4420 O   0  0  0  0  0  0  0  0  0  0  0  0
   40.9830   24.8390   32.7800 H   0  0  0  0  0  0  0  0  0  0  0  0
   36.7050   24.3400   30.9720 O   0  0  0  0  0  0  0  0  0  0  0  0
   37.3420   23.8320   30.4110 H   0  0  0  0  0  0  0  0  0  0  0  0
   37.5650   22.4760   33.6650 O   0  0  0  0  0  0  0  0  0  0  0  0
   37.8580   21.5630   33.4860 H   0  0  0  0  0  0  0  0  0  0  0  0
  1 17  1  6  0  0  0
  1  2  1  0  0  0  0
  2 11  1  1  0  0  0
  3  2  1  0  0  0  0
  4  3  1  0  0  0  0
  5 19  1  6  0  0  0
  5  6  1  0  0  0  0
  5  4  1  0  0  0  0
  6  1  1  0  0  0  0
  6 21  1  1  0  0  0
  7 15  1  0  0  0  0
  7  8  1  0  0  0  0
  8 13  1  0  0  0  0
  9  8  2  0  0  0  0
  9 14  1  0  0  0  0
 10  9  1  0  0  0  0
 11 12  1  0  0  0  0
 11 10  2  0  0  0  0
 12  7  2  0  0  0  0
 15 16  1  0  0  0  0
 17 18  1  0  0  0  0
 20 19  1  0  0  0  0
 22 21  1  0  0  0  0
M  END
>  <minimizedAffinity>
-4.64315796

$$$$

 OpenBabel03272506353D

 22 23  0  0  1  0  0  0  0  0999 V2000
   38.7560   26.2720   33.2080 C   0  0  1  0  0  3  0  0  0  0  0  0
   38.5150   24.8160   33.5190 C   0  0  1  0  0  3  0  0  0  0  0  0
   38.1670   24.6110   34.8520 O   0  0  0  0  0  0  0  0  0  0  0  0
   38.9610   25.4800   35.6350 C   0  0  0  0  0  2  0  0  0  0  0  0
   38.2040   26.8000   35.6080 C   0  0  2  0  0  3  0  0  0  0  0  0
   38.0450   27.1900   34.1730 C   0  0  2  0  0  3  0  0  0  0  0  0
   35.7050   24.5830   31.1260 C   0  0  0  0  0  0  0  0  0  0  0  0
   35.4180   23.2020   31.1150 C   0  0  0  0  0  0  0  0  0  0  0  0
   36.1920   22.3760   31.9260 C   0  0  0  0  0  0  0  0  0  0  0  0
   37.1760   22.9350   32.6810 N   0  0  0  0  0  0  0  0  0  0  0  0
   37.4230   24.2740   32.6670 C   0  0  0  0  0  0  0  0  0  0  0  0
   36.6870   25.0760   31.8930 N   0  0  0  0  0  0  0  0  0  0  0  0
   34.6590   22.7150   30.5410 H   0  0  0  0  0  0  0  0  0  0  0  0
   36.0400   21.3050   31.9780 H   0  0  0  0  0  0  0  0  0  0  0  0
   34.8690   25.2910   30.2830 O   0  0  0  0  0  0  0  0  0  0  0  0
   34.9990   25.0870   29.2840 H   0  0  0  0  0  0  0  0  0  0  0  0
   40.0800   26.6330   33.1600 O   0  0  0  0  0  0  0  0  0  0  0  0
   40.5830   26.2190   32.4140 H   0  0  0  0  0  0  0  0  0  0  0  0
   38.7470   27.7610   36.4230 O   0  0  0  0  0  0  0  0  0  0  0  0
   39.1370   28.5310   35.9420 H   0  0  0  0  0  0  0  0  0  0  0  0
   36.6810   27.1520   33.8100 O   0  0  0  0  0  0  0  0  0  0  0  0
   36.4180   27.9240   33.2750 H   0  0  0  0  0  0  0  0  0  0  0  0
  1 17  1  1  0  0  0
  1  2  1  0  0  0  0
  1  6  1  0  0  0  0
  2 11  1  6  0  0  0
  2  3  1  0  0  0  0
  3  4  1  0  0  0  0
  5  4  1  0  0  0  0
  5 19  1  1  0  0  0
  6 21  1  6  0  0  0
  6  5  1  0  0  0  0
  7 12  1  0  0  0  0
  8  7  2  0  0  0  0
  8  9  1  0  0  0  0
  9 14  1  0  0  0  0
  9 10  2  0  0  0  0
 11 10  1  0  0  0  0
 12 11  2  0  0  0  0
 13  8  1  0  0  0  0
 15  7  1  0  0  0  0
 16 15  1  0  0  0  0
 18 17  1  0  0  0  0
 20 19  1  0  0  0  0
 22 21  1  0  0  0  0
M  END
>  <minimizedAffinity>
-4.57686806

$$$$
