
 OpenBabel03272509083D

 43 46  0  0  1  0  0  0  0  0999 V2000
   33.3960   27.2350   46.8410 C   0  0  0  0  0  0  0  0  0  0  0  0
   33.9620   25.9880   47.0940 C   0  0  0  0  0  0  0  0  0  0  0  0
   34.2960   25.1330   46.0670 C   0  0  0  0  0  0  0  0  0  0  0  0
   34.0820   25.4760   44.7470 C   0  0  0  0  0  0  0  0  0  0  0  0
   33.5320   26.6870   44.4940 C   0  0  0  0  0  0  0  0  0  0  0  0
   33.1850   27.5710   45.5010 C   0  0  0  0  0  0  0  0  0  0  0  0
   34.0970   25.7950   48.1490 H   0  0  0  0  0  0  0  0  0  0  0  0
   34.7270   24.1990   46.3970 H   0  0  0  0  0  0  0  0  0  0  0  0
   34.3570   24.7790   43.9740 H   0  0  0  0  0  0  0  0  0  0  0  0
   33.3750   26.9310   43.4420 H   0  0  0  0  0  0  0  0  0  0  0  0
   33.5920   29.8690   44.6060 C   0  0  1  0  0  3  0  0  0  0  0  0
   32.5890   28.8640   45.0770 C   0  0  2  0  0  3  0  0  0  0  0  0
   31.9270   29.4400   46.1730 O   0  0  0  0  0  0  0  0  0  0  0  0
   31.1300   30.4990   45.7500 C   0  0  0  0  0  2  0  0  0  0  0  0
   31.9800   31.5970   45.1800 C   0  0  1  0  0  3  0  0  0  0  0  0
   32.7900   31.0350   44.0370 C   0  0  2  0  0  3  0  0  0  0  0  0
   34.3560   30.3540   45.6640 O   0  0  0  0  0  0  0  0  0  0  0  0
   33.8910   30.4100   46.5170 H   0  0  0  0  0  0  0  0  0  0  0  0
   31.1990   32.6750   44.8220 O   0  0  0  0  0  0  0  0  0  0  0  0
   31.5060   33.1870   44.0420 H   0  0  0  0  0  0  0  0  0  0  0  0
   31.9790   30.5230   43.0320 O   0  0  0  0  0  0  0  0  0  0  0  0
   31.7720   31.1860   42.3240 H   0  0  0  0  0  0  0  0  0  0  0  0
   33.0150   28.2010   47.8950 C   0  0  0  0  0  0  0  0  0  0  0  0
   32.2400   28.9200   47.5890 H   0  0  0  0  0  0  0  0  0  0  0  0
   32.5160   27.5770   48.6930 H   0  0  0  0  0  0  0  0  0  0  0  0
   34.9100   28.4520   49.4920 C   0  0  0  0  0  3  0  0  0  0  0  0
   34.1670   28.8870   48.5050 C   0  0  0  0  0  3  0  0  0  0  0  0
   37.3810   30.1350   51.5960 C   0  0  0  0  0  0  0  0  0  0  0  0
   38.0860   30.8980   50.6420 C   0  0  0  0  0  0  0  0  0  0  0  0
   37.6960   30.8150   49.2980 C   0  0  0  0  0  0  0  0  0  0  0  0
   36.6410   29.9920   48.9740 N   0  0  0  0  0  0  0  0  0  0  0  0
   36.0070   29.2850   49.9520 C   0  0  0  0  0  0  0  0  0  0  0  0
   36.3690   29.3570   51.2250 N   0  0  0  0  0  0  0  0  0  0  0  0
   37.6720   30.1920   52.6230 H   0  0  0  0  0  0  0  0  0  0  0  0
   38.9120   31.5410   50.8970 H   0  0  0  0  0  0  0  0  0  0  0  0
   38.3580   31.5610   48.2270 C   0  0  0  0  0  0  0  0  0  0  0  0
   38.5830   31.0300   46.9810 C   0  0  0  0  0  0  0  0  0  0  0  0
   39.2260   32.0030   46.2190 C   0  0  0  0  0  0  0  0  0  0  0  0
   39.3650   33.0820   47.0310 N   0  0  0  0  0  0  0  0  0  0  0  0
   38.8470   32.8100   48.2230 N   0  0  0  0  0  0  0  0  0  0  0  0
   38.3280   30.0560   46.6220 H   0  0  0  0  0  0  0  0  0  0  0  0
   39.5630   31.9550   45.1920 H   0  0  0  0  0  0  0  0  0  0  0  0
   39.8040   34.0230   46.8230 H   0  0  0  0  0  0  0  0  0  0  0  0
  1  2  1  0  0  0  0
  1 23  1  0  0  0  0
  2  7  1  0  0  0  0
  3  8  1  0  0  0  0
  3  2  2  0  0  0  0
  4  3  1  0  0  0  0
  5  4  2  0  0  0  0
  5  6  1  0  0  0  0
  6  1  2  0  0  0  0
  9  4  1  0  0  0  0
 10  5  1  0  0  0  0
 11 12  1  0  0  0  0
 11 17  1  1  0  0  0
 12  6  1  1  0  0  0
 12 13  1  0  0  0  0
 14 13  1  0  0  0  0
 15 19  1  6  0  0  0
 15 14  1  0  0  0  0
 16 21  1  6  0  0  0
 16 11  1  0  0  0  0
 16 15  1  0  0  0  0
 17 18  1  0  0  0  0
 20 19  1  0  0  0  0
 22 21  1  0  0  0  0
 23 27  1  0  0  0  0
 23 25  1  0  0  0  0
 24 23  1  0  0  0  0
 26 32  1  0  0  0  0
 27 26  2  0  0  0  0
 28 34  1  0  0  0  0
 29 35  1  0  0  0  0
 29 28  2  0  0  0  0
 30 29  1  0  0  0  0
 31 30  2  0  0  0  0
 31 32  1  0  0  0  0
 32 33  2  0  0  0  0
 33 28  1  0  0  0  0
 36 30  1  0  0  0  0
 37 36  1  0  0  0  0
 38 37  2  0  0  0  0
 38 39  1  0  0  0  0
 39 40  1  0  0  0  0
 40 36  2  0  0  0  0
 41 37  1  0  0  0  0
 42 38  1  0  0  0  0
 43 39  1  0  0  0  0
M  END
>  <minimizedAffinity>
-6.76837921

>  <minimizedRMSD>
0.963913441

$$$$
