
 OpenBabel03272506353D

 22 23  0  0  1  0  0  0  0  0999 V2000
   34.2110   30.5150   47.1720 C   0  0  1  0  0  3  0  0  0  0  0  0
   34.4410   29.5760   48.3290 C   0  0  1  0  0  3  0  0  0  0  0  0
   34.5500   28.2500   47.9200 O   0  0  0  0  0  0  0  0  0  0  0  0
   33.5990   28.0430   46.8970 C   0  0  0  0  0  2  0  0  0  0  0  0
   34.3020   28.5210   45.6340 C   0  0  2  0  0  3  0  0  0  0  0  0
   34.7050   29.9440   45.8640 C   0  0  2  0  0  3  0  0  0  0  0  0
   37.3790   29.4260   50.5710 C   0  0  0  0  0  0  0  0  0  0  0  0
   37.9930   30.6800   50.3660 C   0  0  0  0  0  0  0  0  0  0  0  0
   37.3910   31.5530   49.4630 C   0  0  0  0  0  0  0  0  0  0  0  0
   36.2520   31.1580   48.8310 N   0  0  0  0  0  0  0  0  0  0  0  0
   35.6880   29.9400   49.0570 C   0  0  0  0  0  0  0  0  0  0  0  0
   36.2560   29.0950   49.9200 N   0  0  0  0  0  0  0  0  0  0  0  0
   38.8850   31.0350   50.8360 H   0  0  0  0  0  0  0  0  0  0  0  0
   37.7960   32.5340   49.2460 H   0  0  0  0  0  0  0  0  0  0  0  0
   38.0710   28.6570   51.4870 O   0  0  0  0  0  0  0  0  0  0  0  0
   39.0010   28.3530   51.1730 H   0  0  0  0  0  0  0  0  0  0  0  0
   32.9060   30.9100   47.0080 O   0  0  0  0  0  0  0  0  0  0  0  0
   32.5610   31.4710   47.7490 H   0  0  0  0  0  0  0  0  0  0  0  0
   33.5890   28.2890   44.4850 O   0  0  0  0  0  0  0  0  0  0  0  0
   33.2670   29.1070   44.0330 H   0  0  0  0  0  0  0  0  0  0  0  0
   36.1120   30.0480   45.9020 O   0  0  0  0  0  0  0  0  0  0  0  0
   36.4410   30.8170   45.3990 H   0  0  0  0  0  0  0  0  0  0  0  0
  1 17  1  6  0  0  0
  1  2  1  0  0  0  0
  2 11  1  6  0  0  0
  3  2  1  0  0  0  0
  4  3  1  0  0  0  0
  5 19  1  6  0  0  0
  5  6  1  0  0  0  0
  5  4  1  0  0  0  0
  6 21  1  1  0  0  0
  6  1  1  0  0  0  0
  7 15  1  0  0  0  0
  8  7  1  0  0  0  0
  8 13  1  0  0  0  0
  9  8  2  0  0  0  0
 10 11  2  0  0  0  0
 10  9  1  0  0  0  0
 11 12  1  0  0  0  0
 12  7  2  0  0  0  0
 14  9  1  0  0  0  0
 16 15  1  0  0  0  0
 17 18  1  0  0  0  0
 20 19  1  0  0  0  0
 22 21  1  0  0  0  0
M  END
>  <minimizedAffinity>
-4.71477413

>  <minimizedRMSD>
2.47490168

$$$$
