
 OpenBabel03272505313D

 43 46  0  0  1  0  0  0  0  0999 V2000
   37.3400   31.1600   47.1090 N   0  0  0  0  0  0  0  0  0  0  0  0
   36.6900   30.9480   45.9340 C   0  0  0  0  0  0  0  0  0  0  0  0
   37.1300   31.4800   44.7370 C   0  0  0  0  0  0  0  0  0  0  0  0
   38.2990   32.2670   44.7650 C   0  0  0  0  0  0  0  0  0  0  0  0
   38.7420   32.7730   43.7070 O   0  0  0  0  0  0  0  0  0  0  0  0
   38.9510   32.4750   45.9590 N   0  0  0  0  0  0  0  0  0  0  0  0
   38.4290   31.9120   47.0360 C   0  0  0  0  0  0  0  0  0  0  0  0
   39.0520   32.1240   48.1020 O   0  0  0  0  0  0  0  0  0  0  0  0
   35.7800   30.3370   45.9070 H   0  0  0  0  0  0  0  0  0  0  0  0
   37.2670   29.4080   50.3860 C   0  0  0  0  0  0  0  0  0  0  0  0
   37.7460   29.9590   49.1810 C   0  0  0  0  0  0  0  0  0  0  0  0
   36.8740   30.6100   48.3060 C   0  0  0  0  0  0  0  0  0  0  0  0
   35.5710   30.6900   48.6530 N   0  0  0  0  0  0  0  0  0  0  0  0
   35.0940   30.1600   49.8150 C   0  0  0  0  0  0  0  0  0  0  0  0
   35.9480   29.5280   50.6660 N   0  0  0  0  0  0  0  0  0  0  0  0
   37.9620   28.9170   51.0330 H   0  0  0  0  0  0  0  0  0  0  0  0
   38.7720   29.9160   48.8710 H   0  0  0  0  0  0  0  0  0  0  0  0
   34.0750   30.2110   50.1090 H   0  0  0  0  0  0  0  0  0  0  0  0
   36.4750   31.2870   43.4570 C   0  0  0  0  0  0  0  0  0  0  0  0
   36.5950   30.1420   42.7180 C   0  0  0  0  0  0  0  0  0  0  0  0
   35.9960   29.9110   41.5050 C   0  0  0  0  0  0  0  0  0  0  0  0
   35.1910   30.9310   40.9650 C   0  0  0  0  0  0  0  0  0  0  0  0
   35.0930   32.0810   41.7450 C   0  0  0  0  0  0  0  0  0  0  0  0
   35.7080   32.2330   42.9210 N   0  0  0  0  0  0  0  0  0  0  0  0
   37.2090   29.3260   43.0990 H   0  0  0  0  0  0  0  0  0  0  0  0
   36.0920   29.0070   40.9250 H   0  0  0  0  0  0  0  0  0  0  0  0
   34.6670   30.8800   40.0260 H   0  0  0  0  0  0  0  0  0  0  0  0
   32.9320   33.2290   42.0160 C   0  0  2  0  0  3  0  0  0  0  0  0
   34.2750   33.2600   41.3150 C   0  0  1  0  0  3  0  0  0  0  0  0
   34.9840   34.4320   41.5630 O   0  0  0  0  0  0  0  0  0  0  0  0
   34.3310   35.5260   41.0600 C   0  0  0  0  0  2  0  0  0  0  0  0
   32.8500   35.5750   41.3960 C   0  0  2  0  0  3  0  0  0  0  0  0
   32.6320   34.6200   42.5470 C   0  0  1  0  0  3  0  0  0  0  0  0
   32.9090   32.2840   43.0470 O   0  0  0  0  0  0  0  0  0  0  0  0
   32.4130   31.4780   42.6930 H   0  0  0  0  0  0  0  0  0  0  0  0
   32.1720   35.0180   40.2910 O   0  0  0  0  0  0  0  0  0  0  0  0
   32.4440   35.5150   39.4590 H   0  0  0  0  0  0  0  0  0  0  0  0
   31.3140   34.6250   43.0000 O   0  0  0  0  0  0  0  0  0  0  0  0
   31.3090   34.9250   43.9510 H   0  0  0  0  0  0  0  0  0  0  0  0
   40.1480   33.2810   45.9810 C   0  0  0  0  0  0  0  0  0  0  0  0
   40.0970   34.2560   45.0460 F   0  0  0  0  0  0  0  0  0  0  0  0
   41.3110   32.5530   45.7260 F   0  0  0  0  0  0  0  0  0  0  0  0
   40.2510   33.8920   47.2350 F   0  0  0  0  0  0  0  0  0  0  0  0
  1 12  1  0  0  0  0
  2  1  1  0  0  0  0
  3  4  1  0  0  0  0
  3  2  2  0  0  0  0
  4  6  1  0  0  0  0
  5  4  2  0  0  0  0
  6 40  1  0  0  0  0
  6  7  1  0  0  0  0
  7  1  1  0  0  0  0
  7  8  2  0  0  0  0
  9  2  1  0  0  0  0
 10 15  1  0  0  0  0
 10 16  1  0  0  0  0
 11 10  2  0  0  0  0
 12 13  2  0  0  0  0
 12 11  1  0  0  0  0
 13 14  1  0  0  0  0
 14 18  1  0  0  0  0
 14 15  2  0  0  0  0
 17 11  1  0  0  0  0
 19  3  1  0  0  0  0
 20 25  1  0  0  0  0
 20 19  2  0  0  0  0
 21 20  1  0  0  0  0
 22 21  2  0  0  0  0
 22 23  1  0  0  0  0
 23 24  2  0  0  0  0
 24 19  1  0  0  0  0
 26 21  1  0  0  0  0
 27 22  1  0  0  0  0
 28 33  1  0  0  0  0
 28 34  1  1  0  0  0
 29 30  1  0  0  0  0
 29 23  1  1  0  0  0
 29 28  1  0  0  0  0
 31 32  1  0  0  0  0
 31 30  1  0  0  0  0
 32 36  1  6  0  0  0
 32 33  1  0  0  0  0
 33 38  1  6  0  0  0
 35 34  1  0  0  0  0
 37 36  1  0  0  0  0
 38 39  1  0  0  0  0
 40 43  1  0  0  0  0
 41 40  1  0  0  0  0
 42 40  1  0  0  0  0
M  END
>  <minimizedAffinity>
-7.09320021

>  <minimizedRMSD>
0.723026395

$$$$
