
 OpenBabel03272500033D

 31 33  0  0  1  0  0  0  0  0999 V2000
   37.5670   26.9320   33.8700 C   0  0  0  0  0  0  0  0  0  0  0  0
   37.8890   26.3060   32.6410 C   0  0  0  0  0  0  0  0  0  0  0  0
   38.1940   24.9480   32.6610 C   0  0  0  0  0  0  0  0  0  0  0  0
   38.1670   24.2970   33.8550 N   0  0  0  0  0  0  0  0  0  0  0  0
   37.8600   24.9110   35.0000 C   0  0  0  0  0  0  0  0  0  0  0  0
   37.5580   26.2220   35.0230 N   0  0  0  0  0  0  0  0  0  0  0  0
   37.3260   27.9830   33.8850 H   0  0  0  0  0  0  0  0  0  0  0  0
   38.4390   24.4790   31.7110 H   0  0  0  0  0  0  0  0  0  0  0  0
   37.8790   27.1130   31.4600 N   0  0  0  0  0  0  0  0  0  0  0  0
   38.9960   27.7290   31.0130 C   0  0  0  0  0  0  0  0  0  0  0  0
   38.9510   28.5080   29.8590 C   0  0  0  0  0  0  0  0  0  0  0  0
   37.6960   28.5580   29.2790 C   0  0  0  0  0  0  0  0  0  0  0  0
   37.6370   29.2690   28.2170 O   0  0  0  0  0  0  0  0  0  0  0  0
   36.5760   27.9630   29.6940 N   0  0  0  0  0  0  0  0  0  0  0  0
   36.6850   27.2220   30.8200 C   0  0  0  0  0  0  0  0  0  0  0  0
   35.6450   26.6500   31.2340 O   0  0  0  0  0  0  0  0  0  0  0  0
   39.9410   27.6220   31.5500 H   0  0  0  0  0  0  0  0  0  0  0  0
   39.7940   29.0100   29.4650 H   0  0  0  0  0  0  0  0  0  0  0  0
   35.6810   28.0500   29.2080 H   0  0  0  0  0  0  0  0  0  0  0  0
   38.8940   23.0410   36.2350 C   0  0  1  0  0  3  0  0  0  0  0  0
   37.8430   24.1470   36.2950 C   0  0  1  0  0  3  0  0  0  0  0  0
   38.1300   25.0490   37.2870 O   0  0  0  0  0  0  0  0  0  0  0  0
   38.2200   24.5360   38.5560 C   0  0  0  0  0  2  0  0  0  0  0  0
   38.2870   23.0310   38.5950 C   0  0  2  0  0  3  0  0  0  0  0  0
   39.3340   22.5930   37.5940 C   0  0  2  0  0  3  0  0  0  0  0  0
   38.4770   22.0000   35.4270 O   0  0  0  0  0  0  0  0  0  0  0  0
   37.5040   22.0450   35.3280 H   0  0  0  0  0  0  0  0  0  0  0  0
   37.0860   22.4060   38.3090 O   0  0  0  0  0  0  0  0  0  0  0  0
   37.0170   21.6220   38.9060 H   0  0  0  0  0  0  0  0  0  0  0  0
   40.5080   23.2550   37.9220 O   0  0  0  0  0  0  0  0  0  0  0  0
   41.2040   22.6450   38.2770 H   0  0  0  0  0  0  0  0  0  0  0  0
  1  7  1  0  0  0  0
  1  6  1  0  0  0  0
  2  3  1  0  0  0  0
  2  1  2  0  0  0  0
  3  4  2  0  0  0  0
  4  5  1  0  0  0  0
  5  6  2  0  0  0  0
  8  3  1  0  0  0  0
  9  2  1  0  0  0  0
 10  9  1  0  0  0  0
 10 17  1  0  0  0  0
 11 10  2  0  0  0  0
 12 14  1  0  0  0  0
 12 11  1  0  0  0  0
 13 12  2  0  0  0  0
 14 15  1  0  0  0  0
 15 16  2  0  0  0  0
 15  9  1  0  0  0  0
 18 11  1  0  0  0  0
 19 14  1  0  0  0  0
 20 26  1  1  0  0  0
 20 21  1  0  0  0  0
 20 25  1  0  0  0  0
 21  5  1  6  0  0  0
 21 22  1  0  0  0  0
 22 23  1  0  0  0  0
 23 24  1  0  0  0  0
 24 28  1  6  0  0  0
 25 30  1  1  0  0  0
 25 24  1  0  0  0  0
 27 26  1  0  0  0  0
 28 29  1  0  0  0  0
 30 31  1  0  0  0  0
M  END
>  <minimizedAffinity>
-5.79757452

$$$$

 OpenBabel03272500033D

 31 33  0  0  1  0  0  0  0  0999 V2000
   39.2220   24.5500   33.6970 C   0  0  0  0  0  0  0  0  0  0  0  0
   39.5960   24.8240   35.0350 C   0  0  0  0  0  0  0  0  0  0  0  0
   39.2810   26.0750   35.5580 C   0  0  0  0  0  0  0  0  0  0  0  0
   38.6340   26.9650   34.7580 N   0  0  0  0  0  0  0  0  0  0  0  0
   38.2930   26.6830   33.4990 C   0  0  0  0  0  0  0  0  0  0  0  0
   38.5790   25.4840   32.9570 N   0  0  0  0  0  0  0  0  0  0  0  0
   39.4530   23.5900   33.2660 H   0  0  0  0  0  0  0  0  0  0  0  0
   39.5720   26.2730   36.5870 H   0  0  0  0  0  0  0  0  0  0  0  0
   40.2720   23.7940   35.7620 N   0  0  0  0  0  0  0  0  0  0  0  0
   41.6100   23.6230   35.6680 C   0  0  0  0  0  0  0  0  0  0  0  0
   42.2360   22.6090   36.3900 C   0  0  0  0  0  0  0  0  0  0  0  0
   41.3630   21.8600   37.1560 C   0  0  0  0  0  0  0  0  0  0  0  0
   41.9230   20.9240   37.8260 O   0  0  0  0  0  0  0  0  0  0  0  0
   40.0410   22.0020   37.2700 N   0  0  0  0  0  0  0  0  0  0  0  0
   39.4920   23.0030   36.5440 C   0  0  0  0  0  0  0  0  0  0  0  0
   38.2480   23.1610   36.6320 O   0  0  0  0  0  0  0  0  0  0  0  0
   42.2090   24.2750   35.0300 H   0  0  0  0  0  0  0  0  0  0  0  0
   43.2780   22.4320   36.3540 H   0  0  0  0  0  0  0  0  0  0  0  0
   39.4600   21.4040   37.8610 H   0  0  0  0  0  0  0  0  0  0  0  0
   37.8790   27.4270   31.1830 C   0  0  1  0  0  3  0  0  0  0  0  0
   37.5780   27.7010   32.6540 C   0  0  1  0  0  3  0  0  0  0  0  0
   36.2400   27.5640   32.9210 O   0  0  0  0  0  0  0  0  0  0  0  0
   35.3990   28.3740   32.2010 C   0  0  0  0  0  2  0  0  0  0  0  0
   36.0690   29.0530   31.0330 C   0  0  2  0  0  3  0  0  0  0  0  0
   36.8390   27.9970   30.2690 C   0  0  2  0  0  3  0  0  0  0  0  0
   39.1640   27.8170   30.8550 O   0  0  0  0  0  0  0  0  0  0  0  0
   39.4830   28.4540   31.5270 H   0  0  0  0  0  0  0  0  0  0  0  0
   36.9260   30.0780   31.3940 O   0  0  0  0  0  0  0  0  0  0  0  0
   36.8200   30.7950   30.7240 H   0  0  0  0  0  0  0  0  0  0  0  0
   35.9350   26.9970   29.9440 O   0  0  0  0  0  0  0  0  0  0  0  0
   35.7450   26.9540   28.9720 H   0  0  0  0  0  0  0  0  0  0  0  0
  1  2  1  0  0  0  0
  2  3  2  0  0  0  0
  2  9  1  0  0  0  0
  3  8  1  0  0  0  0
  4  3  1  0  0  0  0
  5  4  2  0  0  0  0
  6  5  1  0  0  0  0
  6  1  2  0  0  0  0
  7  1  1  0  0  0  0
  9 15  1  0  0  0  0
 10  9  1  0  0  0  0
 10 11  2  0  0  0  0
 11 12  1  0  0  0  0
 12 14  1  0  0  0  0
 12 13  2  0  0  0  0
 14 19  1  0  0  0  0
 15 16  2  0  0  0  0
 15 14  1  0  0  0  0
 17 10  1  0  0  0  0
 18 11  1  0  0  0  0
 20 26  1  6  0  0  0
 20 21  1  0  0  0  0
 21 22  1  0  0  0  0
 21  5  1  1  0  0  0
 23 22  1  0  0  0  0
 24 28  1  1  0  0  0
 24 23  1  0  0  0  0
 25 30  1  1  0  0  0
 25 24  1  0  0  0  0
 25 20  1  0  0  0  0
 26 27  1  0  0  0  0
 29 28  1  0  0  0  0
 31 30  1  0  0  0  0
M  END
>  <minimizedAffinity>
-5.71079683

$$$$

 OpenBabel03272500033D

 31 33  0  0  1  0  0  0  0  0999 V2000
   38.4560   26.8200   35.9270 C   0  0  0  0  0  0  0  0  0  0  0  0
   38.4210   25.5590   35.2840 C   0  0  0  0  0  0  0  0  0  0  0  0
   37.6730   25.4430   34.1160 C   0  0  0  0  0  0  0  0  0  0  0  0
   37.0180   26.5430   33.6560 N   0  0  0  0  0  0  0  0  0  0  0  0
   37.0670   27.7210   34.2820 C   0  0  0  0  0  0  0  0  0  0  0  0
   37.7800   27.8740   35.4140 N   0  0  0  0  0  0  0  0  0  0  0  0
   39.0280   26.9400   36.8340 H   0  0  0  0  0  0  0  0  0  0  0  0
   37.6540   24.4700   33.6310 H   0  0  0  0  0  0  0  0  0  0  0  0
   39.1590   24.4870   35.8790 N   0  0  0  0  0  0  0  0  0  0  0  0
   40.4230   24.2010   35.4970 C   0  0  0  0  0  0  0  0  0  0  0  0
   41.1130   23.1490   36.0970 C   0  0  0  0  0  0  0  0  0  0  0  0
   40.3760   22.4900   37.0640 C   0  0  0  0  0  0  0  0  0  0  0  0
   40.9950   21.5210   37.6260 O   0  0  0  0  0  0  0  0  0  0  0  0
   39.1290   22.7470   37.4630 N   0  0  0  0  0  0  0  0  0  0  0  0
   38.5130   23.7790   36.8430 C   0  0  0  0  0  0  0  0  0  0  0  0
   37.3370   24.0450   37.1990 O   0  0  0  0  0  0  0  0  0  0  0  0
   40.9140   24.7880   34.7190 H   0  0  0  0  0  0  0  0  0  0  0  0
   42.1030   22.8830   35.8380 H   0  0  0  0  0  0  0  0  0  0  0  0
   38.6490   22.2110   38.1890 H   0  0  0  0  0  0  0  0  0  0  0  0
   35.4750   28.4610   32.5480 C   0  0  1  0  0  3  0  0  0  0  0  0
   36.3250   28.9080   33.7350 C   0  0  1  0  0  3  0  0  0  0  0  0
   35.5400   29.3860   34.7540 O   0  0  0  0  0  0  0  0  0  0  0  0
   34.7300   30.4480   34.4390 C   0  0  0  0  0  2  0  0  0  0  0  0
   34.6230   30.7070   32.9580 C   0  0  2  0  0  3  0  0  0  0  0  0
   34.3280   29.3860   32.2820 C   0  0  2  0  0  3  0  0  0  0  0  0
   36.2590   28.2310   31.4320 O   0  0  0  0  0  0  0  0  0  0  0  0
   37.1140   28.6940   31.5440 H   0  0  0  0  0  0  0  0  0  0  0  0
   35.7590   31.2670   32.4010 O   0  0  0  0  0  0  0  0  0  0  0  0
   35.4590   31.9260   31.7290 H   0  0  0  0  0  0  0  0  0  0  0  0
   33.1910   28.8690   32.8850 O   0  0  0  0  0  0  0  0  0  0  0  0
   32.4050   28.8690   32.2810 H   0  0  0  0  0  0  0  0  0  0  0  0
  1  7  1  0  0  0  0
  2  9  1  0  0  0  0
  2  1  2  0  0  0  0
  3  2  1  0  0  0  0
  4  3  2  0  0  0  0
  4  5  1  0  0  0  0
  5  6  2  0  0  0  0
  6  1  1  0  0  0  0
  8  3  1  0  0  0  0
  9 15  1  0  0  0  0
 10  9  1  0  0  0  0
 10 11  2  0  0  0  0
 11 12  1  0  0  0  0
 12 14  1  0  0  0  0
 12 13  2  0  0  0  0
 14 19  1  0  0  0  0
 15 16  2  0  0  0  0
 15 14  1  0  0  0  0
 17 10  1  0  0  0  0
 18 11  1  0  0  0  0
 20 26  1  6  0  0  0
 20 21  1  0  0  0  0
 21  5  1  1  0  0  0
 21 22  1  0  0  0  0
 23 22  1  0  0  0  0
 24 28  1  6  0  0  0
 24 23  1  0  0  0  0
 25 20  1  0  0  0  0
 25 30  1  1  0  0  0
 25 24  1  0  0  0  0
 26 27  1  0  0  0  0
 29 28  1  0  0  0  0
 31 30  1  0  0  0  0
M  END
>  <minimizedAffinity>
-5.63401461

$$$$

 OpenBabel03272500033D

 31 33  0  0  1  0  0  0  0  0999 V2000
   35.7460   29.0010   33.9770 C   0  0  0  0  0  0  0  0  0  0  0  0
   35.2500   28.8320   32.6620 C   0  0  0  0  0  0  0  0  0  0  0  0
   35.7020   27.7380   31.9290 C   0  0  0  0  0  0  0  0  0  0  0  0
   36.5940   26.8940   32.5130 N   0  0  0  0  0  0  0  0  0  0  0  0
   37.0470   27.0760   33.7560 C   0  0  0  0  0  0  0  0  0  0  0  0
   36.6340   28.1210   34.4970 N   0  0  0  0  0  0  0  0  0  0  0  0
   35.4130   29.8390   34.5680 H   0  0  0  0  0  0  0  0  0  0  0  0
   35.3140   27.6190   30.9210 H   0  0  0  0  0  0  0  0  0  0  0  0
   34.3140   29.7980   32.1740 N   0  0  0  0  0  0  0  0  0  0  0  0
   33.0390   29.8370   32.6200 C   0  0  0  0  0  0  0  0  0  0  0  0
   32.1540   30.7920   32.1220 C   0  0  0  0  0  0  0  0  0  0  0  0
   32.7220   31.6290   31.1790 C   0  0  0  0  0  0  0  0  0  0  0  0
   31.9220   32.5120   30.7130 O   0  0  0  0  0  0  0  0  0  0  0  0
   33.9740   31.6170   30.7190 N   0  0  0  0  0  0  0  0  0  0  0  0
   34.7840   30.6670   31.2400 C   0  0  0  0  0  0  0  0  0  0  0  0
   35.9700   30.6310   30.8230 O   0  0  0  0  0  0  0  0  0  0  0  0
   32.6920   29.1250   33.3720 H   0  0  0  0  0  0  0  0  0  0  0  0
   31.1470   30.8670   32.4370 H   0  0  0  0  0  0  0  0  0  0  0  0
   34.3210   32.2720   30.0150 H   0  0  0  0  0  0  0  0  0  0  0  0
   37.9720   26.2230   35.8790 C   0  0  1  0  0  3  0  0  0  0  0  0
   38.0330   26.1140   34.3580 C   0  0  1  0  0  3  0  0  0  0  0  0
   37.6690   24.8610   33.9350 O   0  0  0  0  0  0  0  0  0  0  0  0
   38.4180   23.8210   34.4250 C   0  0  0  0  0  2  0  0  0  0  0  0
   39.3140   24.2120   35.5730 C   0  0  2  0  0  3  0  0  0  0  0  0
   38.4760   24.9910   36.5640 C   0  0  2  0  0  3  0  0  0  0  0  0
   38.5830   27.3810   36.3220 O   0  0  0  0  0  0  0  0  0  0  0  0
   39.1830   27.7100   35.6210 H   0  0  0  0  0  0  0  0  0  0  0  0
   40.4090   24.9700   35.1990 O   0  0  0  0  0  0  0  0  0  0  0  0
   41.1720   24.6690   35.7500 H   0  0  0  0  0  0  0  0  0  0  0  0
   37.3930   24.1890   36.8930 O   0  0  0  0  0  0  0  0  0  0  0  0
   37.4300   23.8620   37.8280 H   0  0  0  0  0  0  0  0  0  0  0  0
  1  6  1  0  0  0  0
  1  7  1  0  0  0  0
  2  1  2  0  0  0  0
  3  4  2  0  0  0  0
  3  2  1  0  0  0  0
  4  5  1  0  0  0  0
  5  6  2  0  0  0  0
  8  3  1  0  0  0  0
  9 10  1  0  0  0  0
  9  2  1  0  0  0  0
 10 17  1  0  0  0  0
 11 18  1  0  0  0  0
 11 10  2  0  0  0  0
 12 11  1  0  0  0  0
 13 12  2  0  0  0  0
 14 12  1  0  0  0  0
 14 15  1  0  0  0  0
 15  9  1  0  0  0  0
 16 15  2  0  0  0  0
 19 14  1  0  0  0  0
 20 26  1  1  0  0  0
 20 25  1  0  0  0  0
 21  5  1  6  0  0  0
 21 20  1  0  0  0  0
 22 21  1  0  0  0  0
 22 23  1  0  0  0  0
 23 24  1  0  0  0  0
 24 28  1  6  0  0  0
 24 25  1  0  0  0  0
 25 30  1  6  0  0  0
 27 26  1  0  0  0  0
 28 29  1  0  0  0  0
 30 31  1  0  0  0  0
M  END
>  <minimizedAffinity>
-5.60505056

$$$$

 OpenBabel03272500033D

 31 33  0  0  1  0  0  0  0  0999 V2000
   35.6310   28.2140   31.9740 C   0  0  0  0  0  0  0  0  0  0  0  0
   35.0940   29.2350   32.7960 C   0  0  0  0  0  0  0  0  0  0  0  0
   35.5380   29.3150   34.1130 C   0  0  0  0  0  0  0  0  0  0  0  0
   36.4610   28.4110   34.5390 N   0  0  0  0  0  0  0  0  0  0  0  0
   36.9510   27.4570   33.7440 C   0  0  0  0  0  0  0  0  0  0  0  0
   36.5470   27.3470   32.4640 N   0  0  0  0  0  0  0  0  0  0  0  0
   35.3050   28.1290   30.9500 H   0  0  0  0  0  0  0  0  0  0  0  0
   35.1190   30.1030   34.7330 H   0  0  0  0  0  0  0  0  0  0  0  0
   34.1290   30.1180   32.2150 N   0  0  0  0  0  0  0  0  0  0  0  0
   34.5010   31.1640   31.4430 C   0  0  0  0  0  0  0  0  0  0  0  0
   33.5340   32.0050   30.8940 C   0  0  0  0  0  0  0  0  0  0  0  0
   32.2410   31.6450   31.2260 C   0  0  0  0  0  0  0  0  0  0  0  0
   31.3410   32.4070   30.7290 O   0  0  0  0  0  0  0  0  0  0  0  0
   31.8420   30.6220   31.9840 N   0  0  0  0  0  0  0  0  0  0  0  0
   32.8260   29.8440   32.4880 C   0  0  0  0  0  0  0  0  0  0  0  0
   32.4790   28.8720   33.2060 O   0  0  0  0  0  0  0  0  0  0  0  0
   35.5560   31.3580   31.2430 H   0  0  0  0  0  0  0  0  0  0  0  0
   33.7690   32.8350   30.2830 H   0  0  0  0  0  0  0  0  0  0  0  0
   30.8600   30.4210   32.1850 H   0  0  0  0  0  0  0  0  0  0  0  0
   37.9900   26.5430   35.7880 C   0  0  1  0  0  3  0  0  0  0  0  0
   37.9700   26.4810   34.2620 C   0  0  1  0  0  3  0  0  0  0  0  0
   37.5850   25.2400   33.8220 O   0  0  0  0  0  0  0  0  0  0  0  0
   38.3610   24.1880   34.2390 C   0  0  0  0  0  2  0  0  0  0  0  0
   39.3170   24.5470   35.3490 C   0  0  2  0  0  3  0  0  0  0  0  0
   38.5320   25.2920   36.4060 C   0  0  2  0  0  3  0  0  0  0  0  0
   38.6220   27.6890   36.2320 O   0  0  0  0  0  0  0  0  0  0  0  0
   39.1830   28.0420   35.5110 H   0  0  0  0  0  0  0  0  0  0  0  0
   40.3900   25.3190   34.9400 O   0  0  0  0  0  0  0  0  0  0  0  0
   41.1810   25.0050   35.4400 H   0  0  0  0  0  0  0  0  0  0  0  0
   37.4690   24.4780   36.7680 O   0  0  0  0  0  0  0  0  0  0  0  0
   37.5570   24.1220   37.6900 H   0  0  0  0  0  0  0  0  0  0  0  0
  1  6  2  0  0  0  0
  1  2  1  0  0  0  0
  2  3  2  0  0  0  0
  3  4  1  0  0  0  0
  3  8  1  0  0  0  0
  5  4  2  0  0  0  0
  6  5  1  0  0  0  0
  7  1  1  0  0  0  0
  9 15  1  0  0  0  0
  9  2  1  0  0  0  0
 10  9  1  0  0  0  0
 11 12  1  0  0  0  0
 11 10  2  0  0  0  0
 12 14  1  0  0  0  0
 13 12  2  0  0  0  0
 14 19  1  0  0  0  0
 14 15  1  0  0  0  0
 15 16  2  0  0  0  0
 17 10  1  0  0  0  0
 18 11  1  0  0  0  0
 20 26  1  6  0  0  0
 20 25  1  0  0  0  0
 21  5  1  1  0  0  0
 21 20  1  0  0  0  0
 22 23  1  0  0  0  0
 22 21  1  0  0  0  0
 23 24  1  0  0  0  0
 24 28  1  6  0  0  0
 24 25  1  0  0  0  0
 25 30  1  6  0  0  0
 27 26  1  0  0  0  0
 28 29  1  0  0  0  0
 30 31  1  0  0  0  0
M  END
>  <minimizedAffinity>
-5.58372688

$$$$

 OpenBabel03272500033D

 31 33  0  0  1  0  0  0  0  0999 V2000
   39.4830   25.5640   33.2630 C   0  0  0  0  0  0  0  0  0  0  0  0
   38.2280   25.4670   33.9120 C   0  0  0  0  0  0  0  0  0  0  0  0
   37.1260   26.0480   33.2920 C   0  0  0  0  0  0  0  0  0  0  0  0
   37.3120   26.6770   32.1000 N   0  0  0  0  0  0  0  0  0  0  0  0
   38.5070   26.7550   31.5090 C   0  0  0  0  0  0  0  0  0  0  0  0
   39.5970   26.2050   32.0760 N   0  0  0  0  0  0  0  0  0  0  0  0
   40.3540   25.1220   33.7200 H   0  0  0  0  0  0  0  0  0  0  0  0
   36.1680   25.9670   33.8000 H   0  0  0  0  0  0  0  0  0  0  0  0
   38.1770   24.7750   35.1640 N   0  0  0  0  0  0  0  0  0  0  0  0
   38.1250   23.4260   35.2250 C   0  0  0  0  0  0  0  0  0  0  0  0
   38.0750   22.7850   36.4620 C   0  0  0  0  0  0  0  0  0  0  0  0
   38.0870   23.6580   37.5340 C   0  0  0  0  0  0  0  0  0  0  0  0
   38.0430   23.0850   38.6770 O   0  0  0  0  0  0  0  0  0  0  0  0
   38.1390   24.9910   37.5070 N   0  0  0  0  0  0  0  0  0  0  0  0
   38.1840   25.5530   36.2780 C   0  0  0  0  0  0  0  0  0  0  0  0
   38.2330   26.8090   36.2220 O   0  0  0  0  0  0  0  0  0  0  0  0
   38.1200   22.8280   34.3110 H   0  0  0  0  0  0  0  0  0  0  0  0
   38.0340   21.7330   36.5670 H   0  0  0  0  0  0  0  0  0  0  0  0
   38.1430   25.5710   38.3490 H   0  0  0  0  0  0  0  0  0  0  0  0
   37.4330   28.3340   29.9450 C   0  0  1  0  0  3  0  0  0  0  0  0
   38.6620   27.4620   30.1910 C   0  0  1  0  0  3  0  0  0  0  0  0
   39.7990   28.2230   30.2850 O   0  0  0  0  0  0  0  0  0  0  0  0
   40.0910   29.0000   29.1930 C   0  0  0  0  0  2  0  0  0  0  0  0
   38.9550   29.1090   28.2080 C   0  0  2  0  0  3  0  0  0  0  0  0
   37.7040   29.4510   28.9870 C   0  0  2  0  0  3  0  0  0  0  0  0
   36.3390   27.5660   29.5910 O   0  0  0  0  0  0  0  0  0  0  0  0
   36.6530   26.6950   29.2720 H   0  0  0  0  0  0  0  0  0  0  0  0
   38.7380   27.9590   27.4690 O   0  0  0  0  0  0  0  0  0  0  0  0
   38.5050   28.2420   26.5520 H   0  0  0  0  0  0  0  0  0  0  0  0
   37.9830   30.6010   29.7120 O   0  0  0  0  0  0  0  0  0  0  0  0
   37.4820   31.3910   29.3830 H   0  0  0  0  0  0  0  0  0  0  0  0
  1  7  1  0  0  0  0
  1  2  1  0  0  0  0
  2  9  1  0  0  0  0
  3  8  1  0  0  0  0
  3  2  2  0  0  0  0
  4  3  1  0  0  0  0
  5  6  1  0  0  0  0
  5  4  2  0  0  0  0
  6  1  2  0  0  0  0
  9 10  1  0  0  0  0
  9 15  1  0  0  0  0
 10 11  2  0  0  0  0
 11 18  1  0  0  0  0
 11 12  1  0  0  0  0
 12 13  2  0  0  0  0
 14 12  1  0  0  0  0
 14 19  1  0  0  0  0
 15 14  1  0  0  0  0
 16 15  2  0  0  0  0
 17 10  1  0  0  0  0
 20 26  1  6  0  0  0
 20 21  1  0  0  0  0
 21 22  1  0  0  0  0
 21  5  1  1  0  0  0
 23 22  1  0  0  0  0
 24 28  1  1  0  0  0
 24 25  1  0  0  0  0
 24 23  1  0  0  0  0
 25 30  1  1  0  0  0
 25 20  1  0  0  0  0
 27 26  1  0  0  0  0
 29 28  1  0  0  0  0
 31 30  1  0  0  0  0
M  END
>  <minimizedAffinity>
-5.49742126

$$$$

 OpenBabel03272500033D

 31 33  0  0  1  0  0  0  0  0999 V2000
   36.3090   28.4350   34.4200 C   0  0  0  0  0  0  0  0  0  0  0  0
   35.7240   29.6560   34.0040 C   0  0  0  0  0  0  0  0  0  0  0  0
   35.8730   30.0310   32.6720 C   0  0  0  0  0  0  0  0  0  0  0  0
   36.5700   29.2070   31.8430 N   0  0  0  0  0  0  0  0  0  0  0  0
   37.1120   28.0610   32.2610 C   0  0  0  0  0  0  0  0  0  0  0  0
   36.9910   27.6640   33.5410 N   0  0  0  0  0  0  0  0  0  0  0  0
   36.2100   28.1200   35.4470 H   0  0  0  0  0  0  0  0  0  0  0  0
   35.4190   30.9690   32.3640 H   0  0  0  0  0  0  0  0  0  0  0  0
   35.0180   30.4240   34.9840 N   0  0  0  0  0  0  0  0  0  0  0  0
   35.6550   31.2990   35.7920 C   0  0  0  0  0  0  0  0  0  0  0  0
   34.9360   32.0310   36.7350 C   0  0  0  0  0  0  0  0  0  0  0  0
   33.5810   31.7550   36.7270 C   0  0  0  0  0  0  0  0  0  0  0  0
   32.9060   32.4190   37.5870 O   0  0  0  0  0  0  0  0  0  0  0  0
   32.9220   30.8990   35.9440 N   0  0  0  0  0  0  0  0  0  0  0  0
   33.6760   30.2180   35.0500 C   0  0  0  0  0  0  0  0  0  0  0  0
   33.0810   29.4040   34.2990 O   0  0  0  0  0  0  0  0  0  0  0  0
   36.7350   31.4410   35.7140 H   0  0  0  0  0  0  0  0  0  0  0  0
   35.3840   32.7290   37.3910 H   0  0  0  0  0  0  0  0  0  0  0  0
   31.9120   30.7480   35.9990 H   0  0  0  0  0  0  0  0  0  0  0  0
   37.9990   27.9000   29.9630 C   0  0  1  0  0  3  0  0  0  0  0  0
   37.8750   27.1850   31.3060 C   0  0  1  0  0  3  0  0  0  0  0  0
   39.1070   26.9690   31.8680 O   0  0  0  0  0  0  0  0  0  0  0  0
   39.9870   26.2300   31.1190 C   0  0  0  0  0  2  0  0  0  0  0  0
   39.5510   26.0420   29.6880 C   0  0  2  0  0  3  0  0  0  0  0  0
   39.1510   27.3990   29.1500 C   0  0  2  0  0  3  0  0  0  0  0  0
   36.7990   27.8840   29.2770 O   0  0  0  0  0  0  0  0  0  0  0  0
   36.2360   27.1690   29.6380 H   0  0  0  0  0  0  0  0  0  0  0  0
   38.5010   25.1550   29.5310 O   0  0  0  0  0  0  0  0  0  0  0  0
   38.6770   24.6390   28.7070 H   0  0  0  0  0  0  0  0  0  0  0  0
   40.2330   28.2440   29.3420 O   0  0  0  0  0  0  0  0  0  0  0  0
   40.6690   28.5070   28.4910 H   0  0  0  0  0  0  0  0  0  0  0  0
  1  7  1  0  0  0  0
  2  1  1  0  0  0  0
  2  9  1  0  0  0  0
  3  2  2  0  0  0  0
  4  5  2  0  0  0  0
  4  3  1  0  0  0  0
  5  6  1  0  0  0  0
  6  1  2  0  0  0  0
  8  3  1  0  0  0  0
  9 15  1  0  0  0  0
  9 10  1  0  0  0  0
 10 11  2  0  0  0  0
 11 18  1  0  0  0  0
 12 11  1  0  0  0  0
 12 13  2  0  0  0  0
 14 19  1  0  0  0  0
 14 12  1  0  0  0  0
 15 14  1  0  0  0  0
 16 15  2  0  0  0  0
 17 10  1  0  0  0  0
 20 26  1  6  0  0  0
 20 21  1  0  0  0  0
 21 22  1  0  0  0  0
 21  5  1  1  0  0  0
 23 22  1  0  0  0  0
 24 28  1  1  0  0  0
 24 23  1  0  0  0  0
 25 30  1  1  0  0  0
 25 24  1  0  0  0  0
 25 20  1  0  0  0  0
 26 27  1  0  0  0  0
 29 28  1  0  0  0  0
 31 30  1  0  0  0  0
M  END
>  <minimizedAffinity>
-5.46539593

$$$$

 OpenBabel03272500033D

 31 33  0  0  1  0  0  0  0  0999 V2000
   36.3210   28.3310   34.6790 C   0  0  0  0  0  0  0  0  0  0  0  0
   35.5120   29.3560   34.1330 C   0  0  0  0  0  0  0  0  0  0  0  0
   35.1960   29.2890   32.7790 C   0  0  0  0  0  0  0  0  0  0  0  0
   35.6820   28.2450   32.0540 N   0  0  0  0  0  0  0  0  0  0  0  0
   36.4450   27.2910   32.5920 C   0  0  0  0  0  0  0  0  0  0  0  0
   36.7710   27.3200   33.8980 N   0  0  0  0  0  0  0  0  0  0  0  0
   36.5810   28.3570   35.7250 H   0  0  0  0  0  0  0  0  0  0  0  0
   34.5740   30.0820   32.3720 H   0  0  0  0  0  0  0  0  0  0  0  0
   35.0700   30.3940   35.0130 N   0  0  0  0  0  0  0  0  0  0  0  0
   35.9160   31.3450   35.4680 C   0  0  0  0  0  0  0  0  0  0  0  0
   35.4510   32.3420   36.3240 C   0  0  0  0  0  0  0  0  0  0  0  0
   34.1050   32.2290   36.6200 C   0  0  0  0  0  0  0  0  0  0  0  0
   33.6630   33.1370   37.4040 O   0  0  0  0  0  0  0  0  0  0  0  0
   33.2450   31.3050   36.1880 N   0  0  0  0  0  0  0  0  0  0  0  0
   33.7560   30.3650   35.3610 C   0  0  0  0  0  0  0  0  0  0  0  0
   32.9680   29.4810   34.9380 O   0  0  0  0  0  0  0  0  0  0  0  0
   36.9670   31.3410   35.1710 H   0  0  0  0  0  0  0  0  0  0  0  0
   36.0700   33.1090   36.7090 H   0  0  0  0  0  0  0  0  0  0  0  0
   32.2580   31.2880   36.4530 H   0  0  0  0  0  0  0  0  0  0  0  0
   38.1560   25.5180   32.4470 C   0  0  1  0  0  3  0  0  0  0  0  0
   36.9580   26.1570   31.7490 C   0  0  1  0  0  3  0  0  0  0  0  0
   35.9260   25.2640   31.6190 O   0  0  0  0  0  0  0  0  0  0  0  0
   36.2090   24.1170   30.9230 C   0  0  0  0  0  2  0  0  0  0  0  0
   37.6820   23.9050   30.6840 C   0  0  2  0  0  3  0  0  0  0  0  0
   38.3950   24.1090   32.0030 C   0  0  2  0  0  3  0  0  0  0  0  0
   39.2780   26.3190   32.3450 O   0  0  0  0  0  0  0  0  0  0  0  0
   39.1550   26.9450   31.6020 H   0  0  0  0  0  0  0  0  0  0  0  0
   38.2250   24.7480   29.7310 O   0  0  0  0  0  0  0  0  0  0  0  0
   38.8790   24.2190   29.2130 H   0  0  0  0  0  0  0  0  0  0  0  0
   37.8050   23.2490   32.9170 O   0  0  0  0  0  0  0  0  0  0  0  0
   38.4070   22.5110   33.1920 H   0  0  0  0  0  0  0  0  0  0  0  0
  1  7  1  0  0  0  0
  2  1  1  0  0  0  0
  2  9  1  0  0  0  0
  3  2  2  0  0  0  0
  4  5  2  0  0  0  0
  4  3  1  0  0  0  0
  5  6  1  0  0  0  0
  6  1  2  0  0  0  0
  8  3  1  0  0  0  0
  9 15  1  0  0  0  0
  9 10  1  0  0  0  0
 10 11  2  0  0  0  0
 11 12  1  0  0  0  0
 11 18  1  0  0  0  0
 12 13  2  0  0  0  0
 14 19  1  0  0  0  0
 14 12  1  0  0  0  0
 15 14  1  0  0  0  0
 16 15  2  0  0  0  0
 17 10  1  0  0  0  0
 20 26  1  6  0  0  0
 21 20  1  0  0  0  0
 21  5  1  1  0  0  0
 22 21  1  0  0  0  0
 23 22  1  0  0  0  0
 24 28  1  6  0  0  0
 24 23  1  0  0  0  0
 24 25  1  0  0  0  0
 25 20  1  0  0  0  0
 25 30  1  1  0  0  0
 27 26  1  0  0  0  0
 29 28  1  0  0  0  0
 30 31  1  0  0  0  0
M  END
>  <minimizedAffinity>
-5.343606

$$$$

 OpenBabel03272500033D

 31 33  0  0  1  0  0  0  0  0999 V2000
   39.8880   25.1660   34.5530 C   0  0  0  0  0  0  0  0  0  0  0  0
   39.7930   23.7640   34.3850 C   0  0  0  0  0  0  0  0  0  0  0  0
   38.9990   23.2830   33.3470 C   0  0  0  0  0  0  0  0  0  0  0  0
   38.3600   24.1830   32.5530 N   0  0  0  0  0  0  0  0  0  0  0  0
   38.4660   25.5020   32.7330 C   0  0  0  0  0  0  0  0  0  0  0  0
   39.2240   26.0060   33.7250 N   0  0  0  0  0  0  0  0  0  0  0  0
   40.4960   25.5670   35.3490 H   0  0  0  0  0  0  0  0  0  0  0  0
   38.9340   22.2040   33.2280 H   0  0  0  0  0  0  0  0  0  0  0  0
   40.5200   22.9330   35.2950 N   0  0  0  0  0  0  0  0  0  0  0  0
   41.8350   22.6730   35.1200 C   0  0  0  0  0  0  0  0  0  0  0  0
   42.5130   21.8590   36.0250 C   0  0  0  0  0  0  0  0  0  0  0  0
   41.7110   21.3900   37.0490 C   0  0  0  0  0  0  0  0  0  0  0  0
   42.3190   20.6410   37.8900 O   0  0  0  0  0  0  0  0  0  0  0  0
   40.4140   21.6270   37.2500 N   0  0  0  0  0  0  0  0  0  0  0  0
   39.8120   22.4230   36.3370 C   0  0  0  0  0  0  0  0  0  0  0  0
   38.5890   22.6640   36.5010 O   0  0  0  0  0  0  0  0  0  0  0  0
   42.3760   23.0970   34.2710 H   0  0  0  0  0  0  0  0  0  0  0  0
   43.5400   21.6240   35.9360 H   0  0  0  0  0  0  0  0  0  0  0  0
   39.8860   21.2400   38.0360 H   0  0  0  0  0  0  0  0  0  0  0  0
   36.2470   26.4080   32.1470 C   0  0  1  0  0  3  0  0  0  0  0  0
   37.7390   26.4570   31.8280 C   0  0  1  0  0  3  0  0  0  0  0  0
   38.2570   27.7030   32.0730 O   0  0  0  0  0  0  0  0  0  0  0  0
   37.6820   28.7380   31.3810 C   0  0  0  0  0  2  0  0  0  0  0  0
   36.3880   28.3660   30.7030 C   0  0  2  0  0  3  0  0  0  0  0  0
   35.5270   27.6500   31.7210 C   0  0  2  0  0  3  0  0  0  0  0  0
   35.6700   25.2500   31.6590 O   0  0  0  0  0  0  0  0  0  0  0  0
   36.2490   24.8770   30.9620 H   0  0  0  0  0  0  0  0  0  0  0  0
   36.5480   27.5630   29.5870 O   0  0  0  0  0  0  0  0  0  0  0  0
   35.8860   27.8620   28.9170 H   0  0  0  0  0  0  0  0  0  0  0  0
   35.4110   28.4940   32.8150 O   0  0  0  0  0  0  0  0  0  0  0  0
   34.4940   28.8550   32.9240 H   0  0  0  0  0  0  0  0  0  0  0  0
  1  7  1  0  0  0  0
  2  1  1  0  0  0  0
  2  9  1  0  0  0  0
  3  2  2  0  0  0  0
  4  5  2  0  0  0  0
  4  3  1  0  0  0  0
  5  6  1  0  0  0  0
  6  1  2  0  0  0  0
  8  3  1  0  0  0  0
  9 15  1  0  0  0  0
 10  9  1  0  0  0  0
 10 11  2  0  0  0  0
 11 12  1  0  0  0  0
 12 14  1  0  0  0  0
 12 13  2  0  0  0  0
 14 19  1  0  0  0  0
 15 16  2  0  0  0  0
 15 14  1  0  0  0  0
 17 10  1  0  0  0  0
 18 11  1  0  0  0  0
 20 26  1  6  0  0  0
 21 22  1  0  0  0  0
 21 20  1  0  0  0  0
 21  5  1  1  0  0  0
 23 22  1  0  0  0  0
 24 28  1  6  0  0  0
 24 23  1  0  0  0  0
 24 25  1  0  0  0  0
 25 20  1  0  0  0  0
 25 30  1  1  0  0  0
 27 26  1  0  0  0  0
 29 28  1  0  0  0  0
 30 31  1  0  0  0  0
M  END
>  <minimizedAffinity>
-5.30848503

$$$$
