
 OpenBabel03272505323D

 43 46  0  0  1  0  0  0  0  0999 V2000
   37.3410   31.1610   47.0970 N   0  0  0  0  0  0  0  0  0  0  0  0
   36.6920   30.9480   45.9220 C   0  0  0  0  0  0  0  0  0  0  0  0
   37.1310   31.4830   44.7260 C   0  0  0  0  0  0  0  0  0  0  0  0
   38.2970   32.2750   44.7550 C   0  0  0  0  0  0  0  0  0  0  0  0
   38.7390   32.7840   43.6980 O   0  0  0  0  0  0  0  0  0  0  0  0
   38.9470   32.4850   45.9500 N   0  0  0  0  0  0  0  0  0  0  0  0
   38.4270   31.9180   47.0260 C   0  0  0  0  0  0  0  0  0  0  0  0
   39.0470   32.1330   48.0930 O   0  0  0  0  0  0  0  0  0  0  0  0
   35.7860   30.3330   45.8940 H   0  0  0  0  0  0  0  0  0  0  0  0
   37.2710   29.4010   50.3690 C   0  0  0  0  0  0  0  0  0  0  0  0
   37.7490   29.9550   49.1660 C   0  0  0  0  0  0  0  0  0  0  0  0
   36.8760   30.6080   48.2940 C   0  0  0  0  0  0  0  0  0  0  0  0
   35.5740   30.6880   48.6420 N   0  0  0  0  0  0  0  0  0  0  0  0
   35.0990   30.1560   49.8040 C   0  0  0  0  0  0  0  0  0  0  0  0
   35.9530   29.5200   50.6520 N   0  0  0  0  0  0  0  0  0  0  0  0
   37.9670   28.9080   51.0140 H   0  0  0  0  0  0  0  0  0  0  0  0
   38.7750   29.9120   48.8540 H   0  0  0  0  0  0  0  0  0  0  0  0
   34.0790   30.2070   50.0990 H   0  0  0  0  0  0  0  0  0  0  0  0
   36.4790   31.2880   43.4450 C   0  0  0  0  0  0  0  0  0  0  0  0
   36.8070   30.2790   42.5810 C   0  0  0  0  0  0  0  0  0  0  0  0
   36.2190   30.0530   41.3610 C   0  0  0  0  0  0  0  0  0  0  0  0
   35.1940   30.9260   40.9540 C   0  0  0  0  0  0  0  0  0  0  0  0
   34.8880   31.9410   41.8580 C   0  0  0  0  0  0  0  0  0  0  0  0
   35.5060   32.0980   43.0320 N   0  0  0  0  0  0  0  0  0  0  0  0
   37.5950   29.5800   42.8580 H   0  0  0  0  0  0  0  0  0  0  0  0
   36.4800   29.2560   40.6830 H   0  0  0  0  0  0  0  0  0  0  0  0
   34.6530   30.8620   40.0250 H   0  0  0  0  0  0  0  0  0  0  0  0
   34.4560   34.3150   41.3720 C   0  0  2  0  0  3  0  0  0  0  0  0
   33.8210   32.9540   41.5770 C   0  0  1  0  0  3  0  0  0  0  0  0
   33.0660   32.5430   40.4840 O   0  0  0  0  0  0  0  0  0  0  0  0
   31.9950   33.3720   40.2780 C   0  0  0  0  0  2  0  0  0  0  0  0
   32.3360   34.8510   40.3150 C   0  0  2  0  0  3  0  0  0  0  0  0
   33.8360   34.9570   40.1440 C   0  0  1  0  0  3  0  0  0  0  0  0
   35.8450   34.2240   41.2410 O   0  0  0  0  0  0  0  0  0  0  0  0
   36.2400   34.4990   42.1290 H   0  0  0  0  0  0  0  0  0  0  0  0
   32.0600   35.2910   41.6260 O   0  0  0  0  0  0  0  0  0  0  0  0
   31.1080   35.0600   41.8510 H   0  0  0  0  0  0  0  0  0  0  0  0
   34.2710   36.2800   40.0900 O   0  0  0  0  0  0  0  0  0  0  0  0
   34.6990   36.4350   39.2030 H   0  0  0  0  0  0  0  0  0  0  0  0
   40.1400   33.2960   45.9740 C   0  0  0  0  0  0  0  0  0  0  0  0
   40.0820   34.2780   45.0460 F   0  0  0  0  0  0  0  0  0  0  0  0
   41.3060   32.5750   45.7090 F   0  0  0  0  0  0  0  0  0  0  0  0
   40.2450   33.8980   47.2320 F   0  0  0  0  0  0  0  0  0  0  0  0
  1 12  1  0  0  0  0
  2  1  1  0  0  0  0
  3  4  1  0  0  0  0
  3  2  2  0  0  0  0
  4  6  1  0  0  0  0
  5  4  2  0  0  0  0
  6 40  1  0  0  0  0
  6  7  1  0  0  0  0
  7  1  1  0  0  0  0
  7  8  2  0  0  0  0
  9  2  1  0  0  0  0
 10 15  1  0  0  0  0
 10 16  1  0  0  0  0
 11 10  2  0  0  0  0
 12 13  2  0  0  0  0
 12 11  1  0  0  0  0
 13 14  1  0  0  0  0
 14 18  1  0  0  0  0
 14 15  2  0  0  0  0
 17 11  1  0  0  0  0
 19  3  1  0  0  0  0
 20 25  1  0  0  0  0
 20 19  2  0  0  0  0
 21 20  1  0  0  0  0
 22 21  2  0  0  0  0
 22 23  1  0  0  0  0
 23 24  2  0  0  0  0
 24 19  1  0  0  0  0
 26 21  1  0  0  0  0
 27 22  1  0  0  0  0
 28 34  1  6  0  0  0
 28 29  1  0  0  0  0
 29 23  1  6  0  0  0
 30 29  1  0  0  0  0
 31 32  1  0  0  0  0
 31 30  1  0  0  0  0
 32 36  1  1  0  0  0
 33 38  1  1  0  0  0
 33 32  1  0  0  0  0
 33 28  1  0  0  0  0
 34 35  1  0  0  0  0
 36 37  1  0  0  0  0
 39 38  1  0  0  0  0
 40 43  1  0  0  0  0
 41 40  1  0  0  0  0
 42 40  1  0  0  0  0
M  END
>  <minimizedAffinity>
-6.81674242

>  <minimizedRMSD>
0.6970523

$$$$
