
 OpenBabel03272507333D

 39 42  0  0  1  0  0  0  0  0999 V2000
   33.1750   27.4990   48.2180 C   0  0  0  0  0  0  0  0  0  0  0  0
   31.9460   27.4110   48.5470 O   0  0  0  0  0  0  0  0  0  0  0  0
   35.8890   29.1800   49.8300 C   0  0  0  0  0  0  0  0  0  0  0  0
   34.8570   29.6480   50.6160 C   0  0  0  0  0  0  0  0  0  0  0  0
   33.6680   29.0840   50.1250 C   0  0  0  0  0  0  0  0  0  0  0  0
   34.0600   28.3020   49.0620 C   0  0  0  0  0  0  0  0  0  0  0  0
   35.3670   28.3880   48.9260 O   0  0  0  0  0  0  0  0  0  0  0  0
   34.9050   30.3270   51.4670 H   0  0  0  0  0  0  0  0  0  0  0  0
   32.6710   29.2100   50.4680 H   0  0  0  0  0  0  0  0  0  0  0  0
   37.2710   29.5650   50.0610 C   0  0  0  0  0  0  0  0  0  0  0  0
   37.9150   29.0040   50.9600 O   0  0  0  0  0  0  0  0  0  0  0  0
   37.8120   30.5920   49.2150 C   0  0  0  0  0  0  0  0  0  0  0  0
   38.1630   31.7890   49.8220 C   0  0  0  0  0  0  0  0  0  0  0  0
   38.6910   32.8120   49.0240 C   0  0  0  0  0  0  0  0  0  0  0  0
   38.8300   32.5710   47.6790 N   0  0  0  0  0  0  0  0  0  0  0  0
   38.4810   31.4090   47.1300 C   0  0  0  0  0  0  0  0  0  0  0  0
   37.9740   30.4190   47.8850 N   0  0  0  0  0  0  0  0  0  0  0  0
   38.0490   31.9600   50.8680 H   0  0  0  0  0  0  0  0  0  0  0  0
   38.9810   33.7680   49.4570 H   0  0  0  0  0  0  0  0  0  0  0  0
   38.6020   31.2490   46.0720 H   0  0  0  0  0  0  0  0  0  0  0  0
   33.7090   26.7960   47.0060 C   0  0  1  0  0  0  0  0  0  0  0  0
   33.8170   25.2470   47.2900 C   0  0  0  0  0  0  0  0  0  0  0  0
   32.8890   25.8210   46.2810 C   0  0  2  0  0  0  0  0  0  0  0  0
   34.7420   27.1380   46.7010 H   0  0  0  0  0  0  0  0  0  0  0  0
   33.4870   24.8870   48.2560 H   0  0  0  0  0  0  0  0  0  0  0  0
   34.6820   24.7250   46.8720 H   0  0  0  0  0  0  0  0  0  0  0  0
   31.8100   25.8130   46.5840 H   0  0  0  0  0  0  0  0  0  0  0  0
   33.1120   26.8260   44.0750 C   0  0  1  0  0  3  0  0  0  0  0  0
   33.1820   25.5590   44.8080 C   0  0  1  0  0  3  0  0  0  0  0  0
   34.3040   24.8100   44.7290 O   0  0  0  0  0  0  0  0  0  0  0  0
   35.1620   24.9620   43.7010 C   0  0  0  0  0  2  0  0  0  0  0  0
   34.6580   25.7040   42.5000 C   0  0  2  0  0  3  0  0  0  0  0  0
   34.1630   27.0420   43.0240 C   0  0  2  0  0  3  0  0  0  0  0  0
   31.8690   26.9860   43.4520 O   0  0  0  0  0  0  0  0  0  0  0  0
   31.8350   27.9190   43.0980 H   0  0  0  0  0  0  0  0  0  0  0  0
   33.6400   24.9990   41.8680 O   0  0  0  0  0  0  0  0  0  0  0  0
   33.9060   24.9230   40.9240 H   0  0  0  0  0  0  0  0  0  0  0  0
   35.2760   27.6780   43.6000 O   0  0  0  0  0  0  0  0  0  0  0  0
   36.0210   27.6930   42.9390 H   0  0  0  0  0  0  0  0  0  0  0  0
  1  2  2  0  0  0  0
  1  6  1  0  0  0  0
  3 10  1  0  0  0  0
  3  4  2  0  0  0  0
  4  8  1  0  0  0  0
  5  9  1  0  0  0  0
  5  4  1  0  0  0  0
  6  5  2  0  0  0  0
  7  6  1  0  0  0  0
  7  3  1  0  0  0  0
 10 11  2  0  0  0  0
 12 13  1  0  0  0  0
 12 10  1  0  0  0  0
 13 18  1  0  0  0  0
 14 19  1  0  0  0  0
 14 13  2  0  0  0  0
 15 14  1  0  0  0  0
 16 15  2  0  0  0  0
 16 17  1  0  0  0  0
 17 12  2  0  0  0  0
 20 16  1  0  0  0  0
 21 24  1  6  0  0  0
 21 22  1  0  0  0  0
 21  1  1  0  0  0  0
 22 25  1  0  0  0  0
 23 27  1  1  0  0  0
 23 21  1  0  0  0  0
 23 22  1  0  0  0  0
 26 22  1  0  0  0  0
 28 34  1  6  0  0  0
 28 29  1  0  0  0  0
 29 30  1  1  0  0  0
 29 23  1  0  0  0  0
 31 30  1  0  0  0  0
 32 36  1  1  0  0  0
 32 33  1  0  0  0  0
 32 31  1  0  0  0  0
 33 38  1  1  0  0  0
 33 28  1  0  0  0  0
 35 34  1  0  0  0  0
 37 36  1  0  0  0  0
 39 38  1  0  0  0  0
M  END
>  <minimizedAffinity>
-5.03617811

>  <minimizedRMSD>
0.726212919

$$$$
