
 OpenBabel03272505033D

 28 30  0  0  0  0  0  0  0  0999 V2000
   38.5960   27.3430   35.2120 Cl  0  0  0  0  0  0  0  0  0  0  0  0
   37.9790   26.1320   34.1000 C   0  0  0  0  0  0  0  0  0  0  0  0
   37.1190   26.5230   33.1100 C   0  0  0  0  0  0  0  0  0  0  0  0
   36.6800   25.5180   32.2770 C   0  0  0  0  0  0  0  0  0  0  0  0
   37.1090   24.2090   32.4660 C   0  0  0  0  0  0  0  0  0  0  0  0
   37.9720   23.8720   33.4740 C   0  0  0  0  0  0  0  0  0  0  0  0
   38.4260   24.8710   34.3240 C   0  0  0  0  0  0  0  0  0  0  0  0
   35.9970   25.6960   31.4560 H   0  0  0  0  0  0  0  0  0  0  0  0
   36.7550   23.4220   31.8000 H   0  0  0  0  0  0  0  0  0  0  0  0
   38.2690   22.8310   33.5680 H   0  0  0  0  0  0  0  0  0  0  0  0
   37.0190   28.6110   31.7530 C   0  0  0  0  0  0  0  0  0  0  0  0
   36.6700   27.9020   32.9150 C   0  0  0  0  0  0  0  0  0  0  0  0
   35.8930   28.5470   33.8570 C   0  0  0  0  0  0  0  0  0  0  0  0
   35.5110   29.8230   33.6140 N   0  0  0  0  0  0  0  0  0  0  0  0
   35.8540   30.4890   32.4950 C   0  0  0  0  0  0  0  0  0  0  0  0
   36.6060   29.8820   31.5710 N   0  0  0  0  0  0  0  0  0  0  0  0
   37.6330   28.1250   30.9900 H   0  0  0  0  0  0  0  0  0  0  0  0
   35.6010   28.0480   34.7590 H   0  0  0  0  0  0  0  0  0  0  0  0
   35.5640   31.5030   32.2780 H   0  0  0  0  0  0  0  0  0  0  0  0
   39.2920   24.4820   35.3230 O   0  0  0  0  0  0  0  0  0  0  0  0
   38.9630   24.0150   36.5620 C   0  0  0  0  0  0  0  0  0  0  0  0
   38.0290   24.2470   37.5430 C   0  0  0  0  0  0  0  0  0  0  0  0
   37.2930   25.0170   37.3650 H   0  0  0  0  0  0  0  0  0  0  0  0
   38.2320   23.4070   38.6140 C   0  0  0  0  0  0  0  0  0  0  0  0
   37.6320   23.3930   39.5100 H   0  0  0  0  0  0  0  0  0  0  0  0
   39.2890   22.6840   38.2490 N   0  0  0  0  0  0  0  0  0  0  0  0
   39.7060   21.9270   38.8710 H   0  0  0  0  0  0  0  0  0  0  0  0
   39.7460   23.0100   37.0510 N   0  0  0  0  0  0  0  0  0  0  0  0
  2  7  1  0  0  0  0
  2  1  1  0  0  0  0
  3  2  2  0  0  0  0
  4  5  2  0  0  0  0
  4  3  1  0  0  0  0
  5  6  1  0  0  0  0
  6 10  1  0  0  0  0
  6  7  2  0  0  0  0
  7 20  1  0  0  0  0
  8  4  1  0  0  0  0
  9  5  1  0  0  0  0
 11 12  1  0  0  0  0
 12  3  1  0  0  0  0
 12 13  2  0  0  0  0
 13 18  1  0  0  0  0
 14 13  1  0  0  0  0
 15 14  2  0  0  0  0
 16 11  2  0  0  0  0
 16 15  1  0  0  0  0
 17 11  1  0  0  0  0
 19 15  1  0  0  0  0
 20 21  1  0  0  0  0
 21 28  2  0  0  0  0
 21 22  1  0  0  0  0
 22 24  2  0  0  0  0
 23 22  1  0  0  0  0
 24 25  1  0  0  0  0
 26 24  1  0  0  0  0
 26 27  1  0  0  0  0
 28 26  1  0  0  0  0
M  END
>  <minimizedAffinity>
-5.20098352

$$$$

 OpenBabel03272505033D

 28 30  0  0  0  0  0  0  0  0999 V2000
   37.7440   24.1530   32.9330 Cl  0  0  0  0  0  0  0  0  0  0  0  0
   37.9600   25.3360   34.2120 C   0  0  0  0  0  0  0  0  0  0  0  0
   37.8890   26.6660   33.9000 C   0  0  0  0  0  0  0  0  0  0  0  0
   38.0660   27.5320   34.9560 C   0  0  0  0  0  0  0  0  0  0  0  0
   38.2980   27.0440   36.2360 C   0  0  0  0  0  0  0  0  0  0  0  0
   38.3590   25.7010   36.4940 C   0  0  0  0  0  0  0  0  0  0  0  0
   38.1840   24.8110   35.4430 C   0  0  0  0  0  0  0  0  0  0  0  0
   38.0330   28.6090   34.8410 H   0  0  0  0  0  0  0  0  0  0  0  0
   38.4360   27.7390   37.0650 H   0  0  0  0  0  0  0  0  0  0  0  0
   38.5440   25.3830   37.5180 H   0  0  0  0  0  0  0  0  0  0  0  0
   38.7140   27.4180   31.6710 C   0  0  0  0  0  0  0  0  0  0  0  0
   37.6440   27.1770   32.5500 C   0  0  0  0  0  0  0  0  0  0  0  0
   36.3650   27.4350   32.0990 C   0  0  0  0  0  0  0  0  0  0  0  0
   36.2090   27.9060   30.8390 N   0  0  0  0  0  0  0  0  0  0  0  0
   37.2440   28.1330   30.0090 C   0  0  0  0  0  0  0  0  0  0  0  0
   38.4900   27.8890   30.4270 N   0  0  0  0  0  0  0  0  0  0  0  0
   39.7370   27.2220   32.0020 H   0  0  0  0  0  0  0  0  0  0  0  0
   35.5180   27.2670   32.7310 H   0  0  0  0  0  0  0  0  0  0  0  0
   37.1470   28.5060   29.0030 H   0  0  0  0  0  0  0  0  0  0  0  0
   38.2550   23.4710   35.7540 O   0  0  0  0  0  0  0  0  0  0  0  0
   39.3310   22.7970   36.2550 C   0  0  0  0  0  0  0  0  0  0  0  0
   40.4900   22.2140   35.8030 C   0  0  0  0  0  0  0  0  0  0  0  0
   40.6930   22.2530   34.7430 H   0  0  0  0  0  0  0  0  0  0  0  0
   41.1990   21.6700   36.8490 C   0  0  0  0  0  0  0  0  0  0  0  0
   42.1420   21.1560   36.7550 H   0  0  0  0  0  0  0  0  0  0  0  0
   40.4440   21.9400   37.9130 N   0  0  0  0  0  0  0  0  0  0  0  0
   40.7190   21.6460   38.8970 H   0  0  0  0  0  0  0  0  0  0  0  0
   39.3400   22.6010   37.6050 N   0  0  0  0  0  0  0  0  0  0  0  0
  1  2  1  0  0  0  0
  2  7  1  0  0  0  0
  3  2  2  0  0  0  0
  3  4  1  0  0  0  0
  4  5  2  0  0  0  0
  5  6  1  0  0  0  0
  5  9  1  0  0  0  0
  6 10  1  0  0  0  0
  7 20  1  0  0  0  0
  7  6  2  0  0  0  0
  8  4  1  0  0  0  0
 11 17  1  0  0  0  0
 11 12  1  0  0  0  0
 12  3  1  0  0  0  0
 13 12  2  0  0  0  0
 13 18  1  0  0  0  0
 14 13  1  0  0  0  0
 15 16  1  0  0  0  0
 15 14  2  0  0  0  0
 16 11  2  0  0  0  0
 19 15  1  0  0  0  0
 20 21  1  0  0  0  0
 21 28  2  0  0  0  0
 22 21  1  0  0  0  0
 22 24  2  0  0  0  0
 23 22  1  0  0  0  0
 24 26  1  0  0  0  0
 25 24  1  0  0  0  0
 26 27  1  0  0  0  0
 28 26  1  0  0  0  0
M  END
>  <minimizedAffinity>
-5.19513845

$$$$

 OpenBabel03272505033D

 28 30  0  0  0  0  0  0  0  0999 V2000
   37.5590   24.6510   33.4750 Cl  0  0  0  0  0  0  0  0  0  0  0  0
   39.0700   25.4970   33.7640 C   0  0  0  0  0  0  0  0  0  0  0  0
   39.2970   26.6810   33.1160 C   0  0  0  0  0  0  0  0  0  0  0  0
   40.5030   27.2860   33.3950 C   0  0  0  0  0  0  0  0  0  0  0  0
   41.3970   26.6990   34.2830 C   0  0  0  0  0  0  0  0  0  0  0  0
   41.1180   25.5120   34.9060 C   0  0  0  0  0  0  0  0  0  0  0  0
   39.9090   24.8860   34.6370 C   0  0  0  0  0  0  0  0  0  0  0  0
   40.8030   28.2250   32.9470 H   0  0  0  0  0  0  0  0  0  0  0  0
   42.3470   27.1870   34.4970 H   0  0  0  0  0  0  0  0  0  0  0  0
   41.8590   25.1050   35.5900 H   0  0  0  0  0  0  0  0  0  0  0  0
   37.1890   27.9260   32.6520 C   0  0  0  0  0  0  0  0  0  0  0  0
   38.3530   27.2960   32.1820 C   0  0  0  0  0  0  0  0  0  0  0  0
   38.5750   27.2780   30.8190 C   0  0  0  0  0  0  0  0  0  0  0  0
   37.6620   27.8660   30.0100 N   0  0  0  0  0  0  0  0  0  0  0  0
   36.5500   28.4660   30.4760 C   0  0  0  0  0  0  0  0  0  0  0  0
   36.3180   28.4930   31.7920 N   0  0  0  0  0  0  0  0  0  0  0  0
   36.9890   27.9550   33.7260 H   0  0  0  0  0  0  0  0  0  0  0  0
   39.4480   26.8110   30.4130 H   0  0  0  0  0  0  0  0  0  0  0  0
   35.8090   28.9400   29.8550 H   0  0  0  0  0  0  0  0  0  0  0  0
   39.6760   23.6940   35.2880 O   0  0  0  0  0  0  0  0  0  0  0  0
   39.2020   23.5270   36.5570 C   0  0  0  0  0  0  0  0  0  0  0  0
   38.1490   23.9490   37.3340 C   0  0  0  0  0  0  0  0  0  0  0  0
   37.4300   24.6180   36.8860 H   0  0  0  0  0  0  0  0  0  0  0  0
   38.2280   23.4030   38.5940 C   0  0  0  0  0  0  0  0  0  0  0  0
   37.5220   23.5800   39.3890 H   0  0  0  0  0  0  0  0  0  0  0  0
   39.3340   22.6610   38.5460 N   0  0  0  0  0  0  0  0  0  0  0  0
   39.6800   22.0980   39.3790 H   0  0  0  0  0  0  0  0  0  0  0  0
   39.9320   22.7070   37.3670 N   0  0  0  0  0  0  0  0  0  0  0  0
  1  2  1  0  0  0  0
  2  7  1  0  0  0  0
  3  4  1  0  0  0  0
  3  2  2  0  0  0  0
  4  5  2  0  0  0  0
  5  9  1  0  0  0  0
  5  6  1  0  0  0  0
  6 10  1  0  0  0  0
  7  6  2  0  0  0  0
  7 20  1  0  0  0  0
  8  4  1  0  0  0  0
 11 17  1  0  0  0  0
 12 11  1  0  0  0  0
 12  3  1  0  0  0  0
 13 12  2  0  0  0  0
 14 15  2  0  0  0  0
 14 13  1  0  0  0  0
 15 16  1  0  0  0  0
 16 11  2  0  0  0  0
 18 13  1  0  0  0  0
 19 15  1  0  0  0  0
 20 21  1  0  0  0  0
 21 22  1  0  0  0  0
 21 28  2  0  0  0  0
 22 24  2  0  0  0  0
 23 22  1  0  0  0  0
 24 25  1  0  0  0  0
 26 24  1  0  0  0  0
 26 27  1  0  0  0  0
 28 26  1  0  0  0  0
M  END
>  <minimizedAffinity>
-5.06705999

$$$$

 OpenBabel03272505033D

 28 30  0  0  0  0  0  0  0  0999 V2000
   38.1060   27.1400   33.5630 Cl  0  0  0  0  0  0  0  0  0  0  0  0
   37.1620   25.9880   32.6340 C   0  0  0  0  0  0  0  0  0  0  0  0
   36.2390   26.4600   31.7410 C   0  0  0  0  0  0  0  0  0  0  0  0
   35.5400   25.4960   31.0480 C   0  0  0  0  0  0  0  0  0  0  0  0
   35.7880   24.1470   31.2740 C   0  0  0  0  0  0  0  0  0  0  0  0
   36.7250   23.7290   32.1800 C   0  0  0  0  0  0  0  0  0  0  0  0
   37.4400   24.6850   32.8880 C   0  0  0  0  0  0  0  0  0  0  0  0
   34.7820   25.7390   30.3140 H   0  0  0  0  0  0  0  0  0  0  0  0
   35.2300   23.3930   30.7190 H   0  0  0  0  0  0  0  0  0  0  0  0
   36.8720   22.6600   32.3100 H   0  0  0  0  0  0  0  0  0  0  0  0
   35.0910   28.5920   32.3300 C   0  0  0  0  0  0  0  0  0  0  0  0
   35.9800   27.8810   31.5060 C   0  0  0  0  0  0  0  0  0  0  0  0
   36.5960   28.5650   30.4770 C   0  0  0  0  0  0  0  0  0  0  0  0
   36.3120   29.8790   30.3160 N   0  0  0  0  0  0  0  0  0  0  0  0
   35.4570   30.5470   31.1140 C   0  0  0  0  0  0  0  0  0  0  0  0
   34.8510   29.9020   32.1150 N   0  0  0  0  0  0  0  0  0  0  0  0
   34.5900   28.0760   33.1530 H   0  0  0  0  0  0  0  0  0  0  0  0
   37.2810   28.0670   29.8220 H   0  0  0  0  0  0  0  0  0  0  0  0
   35.2150   31.5900   31.0070 H   0  0  0  0  0  0  0  0  0  0  0  0
   38.3700   24.2150   33.7890 O   0  0  0  0  0  0  0  0  0  0  0  0
   38.1560   23.8760   35.0940 C   0  0  0  0  0  0  0  0  0  0  0  0
   37.9650   24.4940   36.3070 C   0  0  0  0  0  0  0  0  0  0  0  0
   37.9710   25.5740   36.3280 H   0  0  0  0  0  0  0  0  0  0  0  0
   37.7930   23.5620   37.3040 C   0  0  0  0  0  0  0  0  0  0  0  0
   37.6270   23.7940   38.3430 H   0  0  0  0  0  0  0  0  0  0  0  0
   37.8860   22.3980   36.6640 N   0  0  0  0  0  0  0  0  0  0  0  0
   37.7950   21.4630   37.1630 H   0  0  0  0  0  0  0  0  0  0  0  0
   38.0970   22.5400   35.3660 N   0  0  0  0  0  0  0  0  0  0  0  0
  2  7  1  0  0  0  0
  2  1  1  0  0  0  0
  3  2  2  0  0  0  0
  4  5  2  0  0  0  0
  4  3  1  0  0  0  0
  5  6  1  0  0  0  0
  6 10  1  0  0  0  0
  6  7  2  0  0  0  0
  7 20  1  0  0  0  0
  8  4  1  0  0  0  0
  9  5  1  0  0  0  0
 11 17  1  0  0  0  0
 12  3  1  0  0  0  0
 12 11  2  0  0  0  0
 13 12  1  0  0  0  0
 14 13  2  0  0  0  0
 14 15  1  0  0  0  0
 15 16  2  0  0  0  0
 16 11  1  0  0  0  0
 18 13  1  0  0  0  0
 19 15  1  0  0  0  0
 20 21  1  0  0  0  0
 21 28  2  0  0  0  0
 21 22  1  0  0  0  0
 22 23  1  0  0  0  0
 22 24  2  0  0  0  0
 24 25  1  0  0  0  0
 26 27  1  0  0  0  0
 26 24  1  0  0  0  0
 28 26  1  0  0  0  0
M  END
>  <minimizedAffinity>
-4.99966431

$$$$

 OpenBabel03272505033D

 28 30  0  0  0  0  0  0  0  0999 V2000
   38.3040   22.7560   33.2370 Cl  0  0  0  0  0  0  0  0  0  0  0  0
   37.0920   23.7020   32.3900 C   0  0  0  0  0  0  0  0  0  0  0  0
   36.0780   23.0490   31.7450 C   0  0  0  0  0  0  0  0  0  0  0  0
   35.1660   23.8590   31.1050 C   0  0  0  0  0  0  0  0  0  0  0  0
   35.3050   25.2420   31.1400 C   0  0  0  0  0  0  0  0  0  0  0  0
   36.3410   25.8440   31.8020 C   0  0  0  0  0  0  0  0  0  0  0  0
   37.2710   25.0460   32.4520 C   0  0  0  0  0  0  0  0  0  0  0  0
   34.3180   23.4660   30.5590 H   0  0  0  0  0  0  0  0  0  0  0  0
   34.5770   25.8720   30.6300 H   0  0  0  0  0  0  0  0  0  0  0  0
   36.3930   26.9300   31.7910 H   0  0  0  0  0  0  0  0  0  0  0  0
   35.1590   20.9270   32.6750 C   0  0  0  0  0  0  0  0  0  0  0  0
   35.9350   21.5930   31.7100 C   0  0  0  0  0  0  0  0  0  0  0  0
   36.5510   20.8320   30.7370 C   0  0  0  0  0  0  0  0  0  0  0  0
   36.3770   19.4890   30.7630 N   0  0  0  0  0  0  0  0  0  0  0  0
   35.6300   18.8660   31.6930 C   0  0  0  0  0  0  0  0  0  0  0  0
   35.0260   19.5850   32.6440 N   0  0  0  0  0  0  0  0  0  0  0  0
   34.6600   21.5050   33.4560 H   0  0  0  0  0  0  0  0  0  0  0  0
   37.1520   21.2940   29.9810 H   0  0  0  0  0  0  0  0  0  0  0  0
   35.4760   17.8010   31.7360 H   0  0  0  0  0  0  0  0  0  0  0  0
   38.2940   25.6990   33.1030 O   0  0  0  0  0  0  0  0  0  0  0  0
   38.3150   26.1060   34.4060 C   0  0  0  0  0  0  0  0  0  0  0  0
   37.8200   25.7060   35.6240 C   0  0  0  0  0  0  0  0  0  0  0  0
   37.2210   24.8080   35.6540 H   0  0  0  0  0  0  0  0  0  0  0  0
   38.2080   26.5780   36.6150 C   0  0  0  0  0  0  0  0  0  0  0  0
   37.9480   26.4850   37.6570 H   0  0  0  0  0  0  0  0  0  0  0  0
   38.9330   27.4880   35.9650 N   0  0  0  0  0  0  0  0  0  0  0  0
   39.3860   28.3150   36.4570 H   0  0  0  0  0  0  0  0  0  0  0  0
   39.0190   27.2450   34.6680 N   0  0  0  0  0  0  0  0  0  0  0  0
  2  7  1  0  0  0  0
  2  1  1  0  0  0  0
  3  2  2  0  0  0  0
  4  5  2  0  0  0  0
  4  3  1  0  0  0  0
  5  6  1  0  0  0  0
  6  7  2  0  0  0  0
  7 20  1  0  0  0  0
  8  4  1  0  0  0  0
  9  5  1  0  0  0  0
 10  6  1  0  0  0  0
 11 17  1  0  0  0  0
 12  3  1  0  0  0  0
 12 11  2  0  0  0  0
 13 14  2  0  0  0  0
 13 12  1  0  0  0  0
 14 15  1  0  0  0  0
 15 19  1  0  0  0  0
 15 16  2  0  0  0  0
 16 11  1  0  0  0  0
 18 13  1  0  0  0  0
 20 21  1  0  0  0  0
 21 28  2  0  0  0  0
 21 22  1  0  0  0  0
 22 23  1  0  0  0  0
 22 24  2  0  0  0  0
 24 25  1  0  0  0  0
 26 27  1  0  0  0  0
 26 24  1  0  0  0  0
 28 26  1  0  0  0  0
M  END
>  <minimizedAffinity>
-4.93141556

$$$$

 OpenBabel03272505033D

 28 30  0  0  0  0  0  0  0  0999 V2000
   37.9540   24.1000   33.1170 Cl  0  0  0  0  0  0  0  0  0  0  0  0
   37.9010   25.5380   34.1220 C   0  0  0  0  0  0  0  0  0  0  0  0
   38.5670   25.5330   35.3170 C   0  0  0  0  0  0  0  0  0  0  0  0
   38.4810   26.6970   36.0480 C   0  0  0  0  0  0  0  0  0  0  0  0
   37.7560   27.7800   35.5640 C   0  0  0  0  0  0  0  0  0  0  0  0
   37.1080   27.7330   34.3590 C   0  0  0  0  0  0  0  0  0  0  0  0
   37.1830   26.5680   33.6080 C   0  0  0  0  0  0  0  0  0  0  0  0
   38.9620   26.8200   37.0100 H   0  0  0  0  0  0  0  0  0  0  0  0
   37.6950   28.6970   36.1500 H   0  0  0  0  0  0  0  0  0  0  0  0
   36.5590   28.6140   34.0370 H   0  0  0  0  0  0  0  0  0  0  0  0
   40.6140   24.1110   35.3280 C   0  0  0  0  0  0  0  0  0  0  0  0
   39.3290   24.3900   35.8230 C   0  0  0  0  0  0  0  0  0  0  0  0
   38.8150   23.5560   36.7960 C   0  0  0  0  0  0  0  0  0  0  0  0
   39.5730   22.5180   37.2200 N   0  0  0  0  0  0  0  0  0  0  0  0
   40.8030   22.2630   36.7370 C   0  0  0  0  0  0  0  0  0  0  0  0
   41.3170   23.0590   35.7940 N   0  0  0  0  0  0  0  0  0  0  0  0
   41.0460   24.7550   34.5580 H   0  0  0  0  0  0  0  0  0  0  0  0
   37.8400   23.7280   37.2050 H   0  0  0  0  0  0  0  0  0  0  0  0
   41.4250   21.4440   37.0570 H   0  0  0  0  0  0  0  0  0  0  0  0
   36.5140   26.5690   32.4030 O   0  0  0  0  0  0  0  0  0  0  0  0
   36.8250   27.2940   31.2890 C   0  0  0  0  0  0  0  0  0  0  0  0
   36.4100   28.4350   30.6470 C   0  0  0  0  0  0  0  0  0  0  0  0
   35.5950   28.9920   31.0860 H   0  0  0  0  0  0  0  0  0  0  0  0
   37.1560   28.6510   29.5110 C   0  0  0  0  0  0  0  0  0  0  0  0
   37.0250   29.4800   28.8350 H   0  0  0  0  0  0  0  0  0  0  0  0
   38.0090   27.6280   29.4970 N   0  0  0  0  0  0  0  0  0  0  0  0
   38.7360   27.5010   28.7320 H   0  0  0  0  0  0  0  0  0  0  0  0
   37.8460   26.8100   30.5240 N   0  0  0  0  0  0  0  0  0  0  0  0
  1  2  1  0  0  0  0
  2  3  1  0  0  0  0
  3 12  1  0  0  0  0
  3  4  2  0  0  0  0
  4  8  1  0  0  0  0
  5  4  1  0  0  0  0
  5  9  1  0  0  0  0
  6  5  2  0  0  0  0
  7  2  2  0  0  0  0
  7  6  1  0  0  0  0
 10  6  1  0  0  0  0
 11 16  2  0  0  0  0
 11 12  1  0  0  0  0
 12 13  2  0  0  0  0
 13 18  1  0  0  0  0
 13 14  1  0  0  0  0
 15 19  1  0  0  0  0
 15 14  2  0  0  0  0
 16 15  1  0  0  0  0
 17 11  1  0  0  0  0
 20  7  1  0  0  0  0
 21 20  1  0  0  0  0
 22 23  1  0  0  0  0
 22 21  1  0  0  0  0
 24 22  2  0  0  0  0
 25 24  1  0  0  0  0
 26 24  1  0  0  0  0
 26 28  1  0  0  0  0
 27 26  1  0  0  0  0
 28 21  2  0  0  0  0
M  END
>  <minimizedAffinity>
-4.89683771

$$$$

 OpenBabel03272505033D

 28 30  0  0  0  0  0  0  0  0999 V2000
   38.7700   21.6390   34.0820 Cl  0  0  0  0  0  0  0  0  0  0  0  0
   38.0150   23.1000   33.4670 C   0  0  0  0  0  0  0  0  0  0  0  0
   37.2120   23.0130   32.3630 C   0  0  0  0  0  0  0  0  0  0  0  0
   36.6550   24.2000   31.9420 C   0  0  0  0  0  0  0  0  0  0  0  0
   36.9170   25.3830   32.6250 C   0  0  0  0  0  0  0  0  0  0  0  0
   37.7300   25.4130   33.7260 C   0  0  0  0  0  0  0  0  0  0  0  0
   38.3010   24.2270   34.1660 C   0  0  0  0  0  0  0  0  0  0  0  0
   36.0010   24.2660   31.0810 H   0  0  0  0  0  0  0  0  0  0  0  0
   36.4710   26.3160   32.2830 H   0  0  0  0  0  0  0  0  0  0  0  0
   37.8950   26.3700   34.2150 H   0  0  0  0  0  0  0  0  0  0  0  0
   35.8070   20.9940   31.9630 C   0  0  0  0  0  0  0  0  0  0  0  0
   36.9370   21.7660   31.6470 C   0  0  0  0  0  0  0  0  0  0  0  0
   37.7730   21.3120   30.6460 C   0  0  0  0  0  0  0  0  0  0  0  0
   37.4610   20.1510   30.0240 N   0  0  0  0  0  0  0  0  0  0  0  0
   36.3740   19.4210   30.3370 C   0  0  0  0  0  0  0  0  0  0  0  0
   35.5530   19.8450   31.3040 N   0  0  0  0  0  0  0  0  0  0  0  0
   35.1280   21.3300   32.7510 H   0  0  0  0  0  0  0  0  0  0  0  0
   38.6470   21.8660   30.3700 H   0  0  0  0  0  0  0  0  0  0  0  0
   36.1030   18.4960   29.8580 H   0  0  0  0  0  0  0  0  0  0  0  0
   39.1110   24.3100   35.2770 O   0  0  0  0  0  0  0  0  0  0  0  0
   38.8000   23.9360   36.5530 C   0  0  0  0  0  0  0  0  0  0  0  0
   37.8260   24.1710   37.4930 C   0  0  0  0  0  0  0  0  0  0  0  0
   37.0240   24.8450   37.2290 H   0  0  0  0  0  0  0  0  0  0  0  0
   38.0820   23.4640   38.6440 C   0  0  0  0  0  0  0  0  0  0  0  0
   37.4660   23.4790   39.5290 H   0  0  0  0  0  0  0  0  0  0  0  0
   39.2120   22.8140   38.3680 N   0  0  0  0  0  0  0  0  0  0  0  0
   39.6840   22.1660   39.0670 H   0  0  0  0  0  0  0  0  0  0  0  0
   39.6640   23.0640   37.1500 N   0  0  0  0  0  0  0  0  0  0  0  0
  2  1  1  0  0  0  0
  2  7  1  0  0  0  0
  3  2  2  0  0  0  0
  4  3  1  0  0  0  0
  4  5  2  0  0  0  0
  5  6  1  0  0  0  0
  6  7  2  0  0  0  0
  6 10  1  0  0  0  0
  7 20  1  0  0  0  0
  8  4  1  0  0  0  0
  9  5  1  0  0  0  0
 11 17  1  0  0  0  0
 12 11  1  0  0  0  0
 12  3  1  0  0  0  0
 13 12  2  0  0  0  0
 14 15  2  0  0  0  0
 14 13  1  0  0  0  0
 15 16  1  0  0  0  0
 16 11  2  0  0  0  0
 18 13  1  0  0  0  0
 19 15  1  0  0  0  0
 20 21  1  0  0  0  0
 21 28  2  0  0  0  0
 21 22  1  0  0  0  0
 22 24  2  0  0  0  0
 23 22  1  0  0  0  0
 24 25  1  0  0  0  0
 26 24  1  0  0  0  0
 26 27  1  0  0  0  0
 28 26  1  0  0  0  0
M  END
>  <minimizedAffinity>
-4.87790442

$$$$

 OpenBabel03272505033D

 28 30  0  0  0  0  0  0  0  0999 V2000
   38.0100   27.6200   35.1810 Cl  0  0  0  0  0  0  0  0  0  0  0  0
   37.4030   26.6940   33.8180 C   0  0  0  0  0  0  0  0  0  0  0  0
   36.5800   27.3110   32.9160 C   0  0  0  0  0  0  0  0  0  0  0  0
   36.1470   26.5210   31.8740 C   0  0  0  0  0  0  0  0  0  0  0  0
   36.5460   25.1930   31.7840 C   0  0  0  0  0  0  0  0  0  0  0  0
   37.3730   24.6250   32.7160 C   0  0  0  0  0  0  0  0  0  0  0  0
   37.8200   25.4040   33.7740 C   0  0  0  0  0  0  0  0  0  0  0  0
   35.4910   26.8890   31.0950 H   0  0  0  0  0  0  0  0  0  0  0  0
   36.1970   24.5770   30.9550 H   0  0  0  0  0  0  0  0  0  0  0  0
   37.6480   23.5810   32.5880 H   0  0  0  0  0  0  0  0  0  0  0  0
   36.4280   29.6120   31.9700 C   0  0  0  0  0  0  0  0  0  0  0  0
   36.1620   28.7100   33.0140 C   0  0  0  0  0  0  0  0  0  0  0  0
   35.4960   29.1860   34.1260 C   0  0  0  0  0  0  0  0  0  0  0  0
   35.1370   30.4920   34.1520 N   0  0  0  0  0  0  0  0  0  0  0  0
   35.4000   31.3440   33.1440 C   0  0  0  0  0  0  0  0  0  0  0  0
   36.0430   30.9010   32.0590 N   0  0  0  0  0  0  0  0  0  0  0  0
   36.9530   29.2610   31.0770 H   0  0  0  0  0  0  0  0  0  0  0  0
   35.2700   28.5380   34.9470 H   0  0  0  0  0  0  0  0  0  0  0  0
   35.1260   32.3850   33.1400 H   0  0  0  0  0  0  0  0  0  0  0  0
   38.6490   24.7870   34.6840 O   0  0  0  0  0  0  0  0  0  0  0  0
   38.2860   24.1880   35.8560 C   0  0  0  0  0  0  0  0  0  0  0  0
   38.0240   24.5350   37.1590 C   0  0  0  0  0  0  0  0  0  0  0  0
   38.1080   25.5780   37.4290 H   0  0  0  0  0  0  0  0  0  0  0  0
   37.6900   23.4250   37.8990 C   0  0  0  0  0  0  0  0  0  0  0  0
   37.4420   23.4340   38.9480 H   0  0  0  0  0  0  0  0  0  0  0  0
   37.7580   22.4290   37.0170 N   0  0  0  0  0  0  0  0  0  0  0  0
   37.5520   21.4190   37.2800 H   0  0  0  0  0  0  0  0  0  0  0  0
   38.1040   22.8360   35.8070 N   0  0  0  0  0  0  0  0  0  0  0  0
  2  1  1  0  0  0  0
  3 12  1  0  0  0  0
  3  2  2  0  0  0  0
  4  3  1  0  0  0  0
  5  4  2  0  0  0  0
  5  6  1  0  0  0  0
  6  7  2  0  0  0  0
  7  2  1  0  0  0  0
  7 20  1  0  0  0  0
  8  4  1  0  0  0  0
  9  5  1  0  0  0  0
 10  6  1  0  0  0  0
 11 16  2  0  0  0  0
 11 12  1  0  0  0  0
 12 13  2  0  0  0  0
 13 14  1  0  0  0  0
 13 18  1  0  0  0  0
 15 14  2  0  0  0  0
 16 15  1  0  0  0  0
 17 11  1  0  0  0  0
 19 15  1  0  0  0  0
 20 21  1  0  0  0  0
 21 22  1  0  0  0  0
 22 23  1  0  0  0  0
 22 24  2  0  0  0  0
 24 25  1  0  0  0  0
 26 27  1  0  0  0  0
 26 24  1  0  0  0  0
 28 21  2  0  0  0  0
 28 26  1  0  0  0  0
M  END
>  <minimizedAffinity>
-4.82932281

$$$$

 OpenBabel03272505033D

 28 30  0  0  0  0  0  0  0  0999 V2000
   36.6050   25.6010   32.3680 Cl  0  0  0  0  0  0  0  0  0  0  0  0
   37.2600   26.3410   33.8190 C   0  0  0  0  0  0  0  0  0  0  0  0
   37.0260   27.6700   34.0450 C   0  0  0  0  0  0  0  0  0  0  0  0
   37.5700   28.1780   35.2040 C   0  0  0  0  0  0  0  0  0  0  0  0
   38.3000   27.3580   36.0570 C   0  0  0  0  0  0  0  0  0  0  0  0
   38.5040   26.0330   35.7830 C   0  0  0  0  0  0  0  0  0  0  0  0
   37.9650   25.5020   34.6190 C   0  0  0  0  0  0  0  0  0  0  0  0
   37.4560   29.2130   35.4980 H   0  0  0  0  0  0  0  0  0  0  0  0
   38.7250   27.7710   36.9720 H   0  0  0  0  0  0  0  0  0  0  0  0
   39.0840   25.4460   36.4910 H   0  0  0  0  0  0  0  0  0  0  0  0
   35.0070   29.0390   33.5350 C   0  0  0  0  0  0  0  0  0  0  0  0
   36.2560   28.5290   33.1440 C   0  0  0  0  0  0  0  0  0  0  0  0
   36.7300   28.8650   31.8910 C   0  0  0  0  0  0  0  0  0  0  0  0
   35.9680   29.6650   31.1080 N   0  0  0  0  0  0  0  0  0  0  0  0
   34.7720   30.1460   31.4960 C   0  0  0  0  0  0  0  0  0  0  0  0
   34.2970   29.8310   32.7050 N   0  0  0  0  0  0  0  0  0  0  0  0
   34.6080   28.7890   34.5210 H   0  0  0  0  0  0  0  0  0  0  0  0
   37.6770   28.5020   31.5490 H   0  0  0  0  0  0  0  0  0  0  0  0
   34.1480   30.7820   30.8930 H   0  0  0  0  0  0  0  0  0  0  0  0
   38.1990   24.1650   34.3880 O   0  0  0  0  0  0  0  0  0  0  0  0
   38.9650   23.3200   35.1380 C   0  0  0  0  0  0  0  0  0  0  0  0
   40.2780   22.9250   35.2360 C   0  0  0  0  0  0  0  0  0  0  0  0
   40.9890   23.3640   34.5520 H   0  0  0  0  0  0  0  0  0  0  0  0
   40.4310   21.9990   36.2420 C   0  0  0  0  0  0  0  0  0  0  0  0
   41.3650   21.5360   36.5180 H   0  0  0  0  0  0  0  0  0  0  0  0
   39.1990   21.8590   36.7290 N   0  0  0  0  0  0  0  0  0  0  0  0
   38.9750   21.2000   37.5330 H   0  0  0  0  0  0  0  0  0  0  0  0
   38.3110   22.6170   36.1070 N   0  0  0  0  0  0  0  0  0  0  0  0
  1  2  1  0  0  0  0
  2  3  2  0  0  0  0
  2  7  1  0  0  0  0
  3  4  1  0  0  0  0
  4  8  1  0  0  0  0
  4  5  2  0  0  0  0
  5  9  1  0  0  0  0
  6  5  1  0  0  0  0
  6 10  1  0  0  0  0
  7  6  2  0  0  0  0
 11 17  1  0  0  0  0
 12 11  1  0  0  0  0
 12  3  1  0  0  0  0
 13 12  2  0  0  0  0
 14 15  2  0  0  0  0
 14 13  1  0  0  0  0
 15 16  1  0  0  0  0
 16 11  2  0  0  0  0
 18 13  1  0  0  0  0
 19 15  1  0  0  0  0
 20  7  1  0  0  0  0
 20 21  1  0  0  0  0
 21 22  1  0  0  0  0
 21 28  2  0  0  0  0
 22 24  2  0  0  0  0
 23 22  1  0  0  0  0
 24 25  1  0  0  0  0
 24 26  1  0  0  0  0
 26 27  1  0  0  0  0
 28 26  1  0  0  0  0
M  END
>  <minimizedAffinity>
-4.82553482

$$$$
