
 OpenBabel03272505033D

 28 30  0  0  0  0  0  0  0  0999 V2000
   38.2060   30.4230   46.9720 Cl  0  0  0  0  0  0  0  0  0  0  0  0
   38.6610   31.9060   47.7930 C   0  0  0  0  0  0  0  0  0  0  0  0
   38.2100   32.1200   49.0670 C   0  0  0  0  0  0  0  0  0  0  0  0
   38.6090   33.3050   49.6460 C   0  0  0  0  0  0  0  0  0  0  0  0
   39.4170   34.1930   48.9450 C   0  0  0  0  0  0  0  0  0  0  0  0
   39.8410   33.9290   47.6700 C   0  0  0  0  0  0  0  0  0  0  0  0
   39.4490   32.7410   47.0700 C   0  0  0  0  0  0  0  0  0  0  0  0
   38.3200   33.5920   50.6480 H   0  0  0  0  0  0  0  0  0  0  0  0
   39.7280   35.1270   49.4130 H   0  0  0  0  0  0  0  0  0  0  0  0
   40.4720   34.6650   47.1770 H   0  0  0  0  0  0  0  0  0  0  0  0
   37.8630   30.4720   50.9040 C   0  0  0  0  0  0  0  0  0  0  0  0
   37.3590   31.1820   49.8020 C   0  0  0  0  0  0  0  0  0  0  0  0
   36.0440   30.9680   49.4390 C   0  0  0  0  0  0  0  0  0  0  0  0
   35.3120   30.0870   50.1620 N   0  0  0  0  0  0  0  0  0  0  0  0
   35.8090   29.4130   51.2160 C   0  0  0  0  0  0  0  0  0  0  0  0
   37.0800   29.6070   51.5820 N   0  0  0  0  0  0  0  0  0  0  0  0
   38.9000   30.6220   51.2130 H   0  0  0  0  0  0  0  0  0  0  0  0
   35.6150   31.4860   48.6070 H   0  0  0  0  0  0  0  0  0  0  0  0
   35.2490   28.7080   51.8060 H   0  0  0  0  0  0  0  0  0  0  0  0
   39.9000   32.5220   45.7870 O   0  0  0  0  0  0  0  0  0  0  0  0
   39.1870   32.6460   44.6300 C   0  0  0  0  0  0  0  0  0  0  0  0
   37.8960   32.4880   44.1860 C   0  0  0  0  0  0  0  0  0  0  0  0
   37.1530   32.1710   44.9040 H   0  0  0  0  0  0  0  0  0  0  0  0
   37.8060   32.7800   42.8460 C   0  0  0  0  0  0  0  0  0  0  0  0
   36.8990   32.7330   42.2620 H   0  0  0  0  0  0  0  0  0  0  0  0
   39.0520   33.1100   42.5110 N   0  0  0  0  0  0  0  0  0  0  0  0
   39.3210   33.3940   41.5220 H   0  0  0  0  0  0  0  0  0  0  0  0
   39.8930   33.0430   43.5310 N   0  0  0  0  0  0  0  0  0  0  0  0
  1  2  1  0  0  0  0
  2  3  1  0  0  0  0
  3  4  2  0  0  0  0
  3 12  1  0  0  0  0
  4  8  1  0  0  0  0
  5  9  1  0  0  0  0
  5  4  1  0  0  0  0
  6  5  2  0  0  0  0
  7  6  1  0  0  0  0
  7  2  2  0  0  0  0
 10  6  1  0  0  0  0
 11 17  1  0  0  0  0
 11 16  1  0  0  0  0
 12 11  2  0  0  0  0
 13 12  1  0  0  0  0
 13 14  2  0  0  0  0
 14 15  1  0  0  0  0
 15 16  2  0  0  0  0
 15 19  1  0  0  0  0
 18 13  1  0  0  0  0
 20  7  1  0  0  0  0
 21 20  1  0  0  0  0
 22 21  1  0  0  0  0
 22 23  1  0  0  0  0
 24 22  2  0  0  0  0
 25 24  1  0  0  0  0
 26 24  1  0  0  0  0
 26 28  1  0  0  0  0
 27 26  1  0  0  0  0
 28 21  2  0  0  0  0
M  END
>  <minimizedAffinity>
-6.07053757

>  <minimizedRMSD>
0.379966319

$$$$
