
 OpenBabel03272510113D

 34 37  0  0  0  0  0  0  0  0999 V2000
   33.3990   28.3790   48.8730 C   0  0  0  0  0  0  0  0  0  0  0  0
   33.5020   28.9500   50.0920 C   0  0  0  0  0  0  0  0  0  0  0  0
   34.6360   29.5650   50.5810 C   0  0  0  0  0  0  0  0  0  0  0  0
   35.7590   29.6220   49.8030 C   0  0  0  0  0  0  0  0  0  0  0  0
   35.6500   29.0290   48.5390 C   0  0  0  0  0  0  0  0  0  0  0  0
   34.5250   28.4430   48.1060 N   0  0  0  0  0  0  0  0  0  0  0  0
   32.6670   28.9550   50.7800 H   0  0  0  0  0  0  0  0  0  0  0  0
   34.7120   30.0180   51.5540 H   0  0  0  0  0  0  0  0  0  0  0  0
   36.5160   29.0490   47.8810 H   0  0  0  0  0  0  0  0  0  0  0  0
   30.9970   27.6440   49.0920 C   0  0  0  0  0  0  0  0  0  0  0  0
   32.2080   27.7420   48.3790 C   0  0  0  0  0  0  0  0  0  0  0  0
   32.2130   27.1710   47.1130 C   0  0  0  0  0  0  0  0  0  0  0  0
   31.0940   26.5600   46.6250 N   0  0  0  0  0  0  0  0  0  0  0  0
   29.9700   26.5030   47.3610 C   0  0  0  0  0  0  0  0  0  0  0  0
   29.9060   27.0400   48.5960 N   0  0  0  0  0  0  0  0  0  0  0  0
   30.9700   28.0820   50.0800 H   0  0  0  0  0  0  0  0  0  0  0  0
   33.1360   27.2330   46.5440 H   0  0  0  0  0  0  0  0  0  0  0  0
   29.2040   25.9810   46.7970 H   0  0  0  0  0  0  0  0  0  0  0  0
   36.9840   30.1980   50.1300 O   0  0  0  0  0  0  0  0  0  0  0  0
   37.7390   30.8930   49.1850 C   0  0  0  0  0  0  0  0  0  0  0  0
   38.0000   32.2160   49.5600 C   0  0  0  0  0  0  0  0  0  0  0  0
   38.7550   32.8070   48.5490 C   0  0  0  0  0  0  0  0  0  0  0  0
   38.9170   31.8470   47.6270 N   0  0  0  0  0  0  0  0  0  0  0  0
   38.3260   30.7380   47.9990 N   0  0  0  0  0  0  0  0  0  0  0  0
   37.7570   32.8560   50.4230 H   0  0  0  0  0  0  0  0  0  0  0  0
   39.1890   33.7800   48.3770 H   0  0  0  0  0  0  0  0  0  0  0  0
   39.6020   31.8740   46.3780 C   0  0  0  0  0  0  0  0  0  0  0  0
   40.1060   30.9880   45.4490 C   0  0  0  0  0  0  0  0  0  0  0  0
   39.9710   29.9400   45.6830 H   0  0  0  0  0  0  0  0  0  0  0  0
   40.6610   31.7630   44.4450 C   0  0  0  0  0  0  0  0  0  0  0  0
   41.1170   31.2480   43.6090 H   0  0  0  0  0  0  0  0  0  0  0  0
   40.4910   33.0650   44.7710 N   0  0  0  0  0  0  0  0  0  0  0  0
   40.8450   33.8320   44.1340 H   0  0  0  0  0  0  0  0  0  0  0  0
   39.8580   33.1330   45.9240 N   0  0  0  0  0  0  0  0  0  0  0  0
  1  2  1  0  0  0  0
  2  3  2  0  0  0  0
  2  7  1  0  0  0  0
  3  8  1  0  0  0  0
  4 19  1  0  0  0  0
  4  3  1  0  0  0  0
  5  4  2  0  0  0  0
  6  5  1  0  0  0  0
  6  1  2  0  0  0  0
  9  5  1  0  0  0  0
 10 16  1  0  0  0  0
 11  1  1  0  0  0  0
 11 10  2  0  0  0  0
 12 11  1  0  0  0  0
 13 12  2  0  0  0  0
 13 14  1  0  0  0  0
 14 15  2  0  0  0  0
 15 10  1  0  0  0  0
 17 12  1  0  0  0  0
 18 14  1  0  0  0  0
 20 21  1  0  0  0  0
 20 19  1  0  0  0  0
 21 25  1  0  0  0  0
 22 21  2  0  0  0  0
 23 24  1  0  0  0  0
 23 22  1  0  0  0  0
 24 20  2  0  0  0  0
 26 22  1  0  0  0  0
 27 23  1  0  0  0  0
 28 29  1  0  0  0  0
 28 27  1  0  0  0  0
 30 32  1  0  0  0  0
 30 28  2  0  0  0  0
 31 30  1  0  0  0  0
 32 34  1  0  0  0  0
 33 32  1  0  0  0  0
 34 27  2  0  0  0  0
M  END
>  <minimizedAffinity>
-6.21008921

>  <minimizedRMSD>
1.70814145

$$$$
