
 OpenBabel03272502583D

 33 35  0  0  1  0  0  0  0  0999 V2000
   35.9510   29.7140   48.8130 N   0  0  0  0  0  0  0  0  0  0  0  0
   36.7150   28.8870   49.6990 C   0  0  0  0  0  0  0  0  0  0  0  0
   37.1890   29.4610   50.9620 C   0  0  0  0  0  0  0  0  0  0  0  0
   37.3910   30.9240   51.0240 C   0  0  0  0  0  0  0  0  0  0  0  0
   36.6360   31.7100   49.9810 C   0  0  0  0  0  0  0  0  0  0  0  0
   36.6700   30.9520   48.6620 C   0  0  1  0  0  0  0  0  0  0  0  0
   36.0850   27.9690   49.8840 H   0  0  0  0  0  0  0  0  0  0  0  0
   37.5870   28.5070   49.1060 H   0  0  0  0  0  0  0  0  0  0  0  0
   38.1520   28.9670   51.2440 H   0  0  0  0  0  0  0  0  0  0  0  0
   36.4670   29.1480   51.7680 H   0  0  0  0  0  0  0  0  0  0  0  0
   37.0570   31.3130   52.0200 H   0  0  0  0  0  0  0  0  0  0  0  0
   38.4720   31.2110   50.9450 H   0  0  0  0  0  0  0  0  0  0  0  0
   35.5840   31.8990   50.2200 H   0  0  0  0  0  0  0  0  0  0  0  0
   37.1750   32.6800   49.8120 H   0  0  0  0  0  0  0  0  0  0  0  0
   36.2690   31.6110   47.8660 H   0  0  0  0  0  0  0  0  0  0  0  0
   34.7080   29.3770   48.1950 C   0  0  0  0  0  0  0  0  0  0  0  0
   34.1820   30.0190   47.0750 C   0  0  0  0  0  0  0  0  0  0  0  0
   32.9620   29.5830   46.5830 C   0  0  0  0  0  0  0  0  0  0  0  0
   32.3460   28.5460   47.2290 N   0  0  0  0  0  0  0  0  0  0  0  0
   32.8850   27.9580   48.3010 C   0  0  0  0  0  0  0  0  0  0  0  0
   34.0720   28.3680   48.7960 N   0  0  0  0  0  0  0  0  0  0  0  0
   34.7470   30.8120   46.6550 H   0  0  0  0  0  0  0  0  0  0  0  0
   32.5770   30.0950   45.7150 H   0  0  0  0  0  0  0  0  0  0  0  0
   32.3400   27.1430   48.7600 H   0  0  0  0  0  0  0  0  0  0  0  0
   38.0300   30.7560   48.4010 O   0  0  0  0  0  0  0  0  0  0  0  0
   38.7570   31.5270   47.5020 C   0  0  0  0  0  0  0  0  0  0  0  0
   39.3720   31.1930   46.2910 C   0  0  0  0  0  0  0  0  0  0  0  0
   39.3450   30.1950   45.8780 H   0  0  0  0  0  0  0  0  0  0  0  0
   39.9810   32.3120   45.7590 C   0  0  0  0  0  0  0  0  0  0  0  0
   40.5050   32.2650   44.8320 H   0  0  0  0  0  0  0  0  0  0  0  0
   39.7220   33.3020   46.6600 N   0  0  0  0  0  0  0  0  0  0  0  0
   40.0970   34.2590   46.4560 H   0  0  0  0  0  0  0  0  0  0  0  0
   39.0090   32.8360   47.6740 N   0  0  0  0  0  0  0  0  0  0  0  0
  1  2  1  0  0  0  0
  2  7  1  0  0  0  0
  2  3  1  0  0  0  0
  3  4  1  0  0  0  0
  3  9  1  0  0  0  0
  3 10  1  0  0  0  0
  4 11  1  0  0  0  0
  5 13  1  0  0  0  0
  5  4  1  0  0  0  0
  6 15  1  6  0  0  0
  6  1  1  0  0  0  0
  6  5  1  0  0  0  0
  8  2  1  0  0  0  0
 12  4  1  0  0  0  0
 14  5  1  0  0  0  0
 16 21  1  0  0  0  0
 16  1  1  0  0  0  0
 17 16  2  0  0  0  0
 18 17  1  0  0  0  0
 18 19  2  0  0  0  0
 19 20  1  0  0  0  0
 20 24  1  0  0  0  0
 20 21  2  0  0  0  0
 22 17  1  0  0  0  0
 23 18  1  0  0  0  0
 25  6  1  0  0  0  0
 26 33  2  0  0  0  0
 26 25  1  0  0  0  0
 27 26  1  0  0  0  0
 28 27  1  0  0  0  0
 29 27  2  0  0  0  0
 29 31  1  0  0  0  0
 30 29  1  0  0  0  0
 31 33  1  0  0  0  0
 32 31  1  0  0  0  0
M  END
>  <minimizedAffinity>
-5.6921258

>  <minimizedRMSD>
0.738847613

$$$$
