
 OpenBabel03272508023D

 27 29  0  0  0  0  0  0  0  0999 V2000
   38.9980   30.9380   45.7280 C   0  0  0  0  0  0  0  0  0  0  0  0
   40.1470   31.6210   46.0110 C   0  0  0  0  0  0  0  0  0  0  0  0
   41.0320   31.5550   44.9370 C   0  0  0  0  0  0  0  0  0  0  0  0
   40.3580   30.8120   44.0250 N   0  0  0  0  0  0  0  0  0  0  0  0
   39.1650   30.4460   44.4790 N   0  0  0  0  0  0  0  0  0  0  0  0
   40.4050   32.1590   46.9140 H   0  0  0  0  0  0  0  0  0  0  0  0
   42.0010   31.9320   44.7410 H   0  0  0  0  0  0  0  0  0  0  0  0
   40.6750   30.3620   42.7090 C   0  0  0  0  0  0  0  0  0  0  0  0
   41.3020   29.2460   42.1730 C   0  0  0  0  0  0  0  0  0  0  0  0
   41.6630   28.4960   42.8490 H   0  0  0  0  0  0  0  0  0  0  0  0
   41.2740   29.4460   40.8090 C   0  0  0  0  0  0  0  0  0  0  0  0
   41.7190   28.6850   40.1500 H   0  0  0  0  0  0  0  0  0  0  0  0
   40.6690   30.6120   40.5140 N   0  0  0  0  0  0  0  0  0  0  0  0
   40.5290   30.9790   39.5440 H   0  0  0  0  0  0  0  0  0  0  0  0
   40.3050   31.1660   41.6770 N   0  0  0  0  0  0  0  0  0  0  0  0
   37.8280   30.7690   46.5910 C   0  0  0  0  0  0  0  0  0  0  0  0
   37.9910   31.0090   47.9790 C   0  0  0  0  0  0  0  0  0  0  0  0
   36.8890   30.8520   48.8100 C   0  0  0  0  0  0  0  0  0  0  0  0
   35.7090   30.4710   48.2260 N   0  0  0  0  0  0  0  0  0  0  0  0
   35.5810   30.2490   46.9070 C   0  0  0  0  0  0  0  0  0  0  0  0
   36.6550   30.4030   46.0980 N   0  0  0  0  0  0  0  0  0  0  0  0
   38.9680   31.3100   48.3670 H   0  0  0  0  0  0  0  0  0  0  0  0
   34.6580   29.9520   46.4520 H   0  0  0  0  0  0  0  0  0  0  0  0
   37.0340   31.0980   50.2650 C   0  0  0  0  0  0  0  0  0  0  0  0
   36.5240   32.3490   50.4900 F   0  0  0  0  0  0  0  0  0  0  0  0
   36.3230   30.1740   51.0300 F   0  0  0  0  0  0  0  0  0  0  0  0
   38.3720   31.0880   50.6580 F   0  0  0  0  0  0  0  0  0  0  0  0
  1  2  1  0  0  0  0
  1 16  1  0  0  0  0
  2  6  1  0  0  0  0
  3  2  2  0  0  0  0
  4  5  1  0  0  0  0
  4  3  1  0  0  0  0
  5  1  2  0  0  0  0
  7  3  1  0  0  0  0
  8  4  1  0  0  0  0
  9  8  1  0  0  0  0
  9 10  1  0  0  0  0
 11  9  2  0  0  0  0
 12 11  1  0  0  0  0
 13 11  1  0  0  0  0
 13 15  1  0  0  0  0
 14 13  1  0  0  0  0
 15  8  2  0  0  0  0
 16 17  1  0  0  0  0
 17 22  1  0  0  0  0
 17 18  2  0  0  0  0
 18 24  1  0  0  0  0
 19 18  1  0  0  0  0
 20 19  2  0  0  0  0
 21 16  2  0  0  0  0
 21 20  1  0  0  0  0
 23 20  1  0  0  0  0
 24 25  1  0  0  0  0
 24 27  1  0  0  0  0
 24 26  1  0  0  0  0
M  END
>  <minimizedAffinity>
-6.29320097

>  <minimizedRMSD>
0.848241985

$$$$
