
 OpenBabel03272508023D

 27 29  0  0  0  0  0  0  0  0999 V2000
   39.0330   30.9340   45.6870 C   0  0  0  0  0  0  0  0  0  0  0  0
   40.1970   31.5830   45.9890 C   0  0  0  0  0  0  0  0  0  0  0  0
   41.0860   31.5170   44.9180 C   0  0  0  0  0  0  0  0  0  0  0  0
   40.4000   30.8090   43.9880 N   0  0  0  0  0  0  0  0  0  0  0  0
   39.1960   30.4620   44.4290 N   0  0  0  0  0  0  0  0  0  0  0  0
   40.4630   32.0970   46.9030 H   0  0  0  0  0  0  0  0  0  0  0  0
   42.0650   31.8740   44.7350 H   0  0  0  0  0  0  0  0  0  0  0  0
   40.7130   30.3770   42.6650 C   0  0  0  0  0  0  0  0  0  0  0  0
   40.3300   30.7600   41.3880 C   0  0  0  0  0  0  0  0  0  0  0  0
   39.6330   31.5670   41.2880 H   0  0  0  0  0  0  0  0  0  0  0  0
   41.0200   29.9110   40.5440 C   0  0  0  0  0  0  0  0  0  0  0  0
   40.8840   30.0160   39.4570 H   0  0  0  0  0  0  0  0  0  0  0  0
   41.7830   29.0570   41.2530 N   0  0  0  0  0  0  0  0  0  0  0  0
   42.3950   28.3220   40.8320 H   0  0  0  0  0  0  0  0  0  0  0  0
   41.5910   29.3460   42.5450 N   0  0  0  0  0  0  0  0  0  0  0  0
   37.8550   30.7760   46.5400 C   0  0  0  0  0  0  0  0  0  0  0  0
   38.0080   31.0150   47.9290 C   0  0  0  0  0  0  0  0  0  0  0  0
   36.8990   30.8700   48.7510 C   0  0  0  0  0  0  0  0  0  0  0  0
   35.7200   30.5000   48.1570 N   0  0  0  0  0  0  0  0  0  0  0  0
   35.6000   30.2790   46.8380 C   0  0  0  0  0  0  0  0  0  0  0  0
   36.6820   30.4220   46.0370 N   0  0  0  0  0  0  0  0  0  0  0  0
   38.9850   31.3070   48.3250 H   0  0  0  0  0  0  0  0  0  0  0  0
   34.6790   29.9910   46.3740 H   0  0  0  0  0  0  0  0  0  0  0  0
   37.0340   31.1140   50.2070 C   0  0  0  0  0  0  0  0  0  0  0  0
   36.5340   32.3700   50.4270 F   0  0  0  0  0  0  0  0  0  0  0  0
   36.3070   30.1970   50.9670 F   0  0  0  0  0  0  0  0  0  0  0  0
   38.3680   31.0910   50.6110 F   0  0  0  0  0  0  0  0  0  0  0  0
  1  2  1  0  0  0  0
  1 16  1  0  0  0  0
  2  6  1  0  0  0  0
  3  2  2  0  0  0  0
  4  5  1  0  0  0  0
  4  3  1  0  0  0  0
  5  1  2  0  0  0  0
  7  3  1  0  0  0  0
  8  4  1  0  0  0  0
  9  8  1  0  0  0  0
 10  9  1  0  0  0  0
 11 13  1  0  0  0  0
 11  9  2  0  0  0  0
 12 11  1  0  0  0  0
 13 15  1  0  0  0  0
 14 13  1  0  0  0  0
 15  8  2  0  0  0  0
 16 17  1  0  0  0  0
 17 22  1  0  0  0  0
 17 18  2  0  0  0  0
 18 24  1  0  0  0  0
 19 18  1  0  0  0  0
 20 19  2  0  0  0  0
 21 16  2  0  0  0  0
 21 20  1  0  0  0  0
 23 20  1  0  0  0  0
 24 25  1  0  0  0  0
 24 27  1  0  0  0  0
 24 26  1  0  0  0  0
M  END
>  <minimizedAffinity>
-6.32468128

>  <minimizedRMSD>
0.8899827

$$$$
