
 OpenBabel03272500453D

 24 26  0  0  0  0  0  0  0  0999 V2000
   37.0710   30.6600   47.7000 C   0  0  0  0  0  0  0  0  0  0  0  0
   36.1510   30.2660   46.7440 C   0  0  0  0  0  0  0  0  0  0  0  0
   36.5420   30.7700   45.5140 C   0  0  0  0  0  0  0  0  0  0  0  0
   37.6830   31.4590   45.7350 N   0  0  0  0  0  0  0  0  0  0  0  0
   37.9740   31.3780   47.0270 N   0  0  0  0  0  0  0  0  0  0  0  0
   35.2440   29.6630   46.8350 H   0  0  0  0  0  0  0  0  0  0  0  0
   36.0960   30.6840   44.5390 H   0  0  0  0  0  0  0  0  0  0  0  0
   38.5410   32.1900   44.8640 C   0  0  0  0  0  0  0  0  0  0  0  0
   39.5250   33.0970   45.2730 C   0  0  0  0  0  0  0  0  0  0  0  0
   39.7130   33.3200   46.3340 H   0  0  0  0  0  0  0  0  0  0  0  0
   40.1390   33.5960   44.1390 C   0  0  0  0  0  0  0  0  0  0  0  0
   40.9420   34.3230   44.2170 H   0  0  0  0  0  0  0  0  0  0  0  0
   39.5350   32.9990   43.1010 N   0  0  0  0  0  0  0  0  0  0  0  0
   39.8070   33.1970   42.1110 H   0  0  0  0  0  0  0  0  0  0  0  0
   38.5960   32.1730   43.5360 N   0  0  0  0  0  0  0  0  0  0  0  0
   37.9470   30.6700   50.0410 C   0  0  0  0  0  0  0  0  0  0  0  0
   36.9910   30.3220   49.0890 C   0  0  0  0  0  0  0  0  0  0  0  0
   35.8780   29.5890   49.5440 C   0  0  0  0  0  0  0  0  0  0  0  0
   35.8160   29.2740   50.8720 N   0  0  0  0  0  0  0  0  0  0  0  0
   36.7800   29.6410   51.7510 C   0  0  0  0  0  0  0  0  0  0  0  0
   37.8510   30.3420   51.3370 N   0  0  0  0  0  0  0  0  0  0  0  0
   38.7750   31.2380   49.5950 H   0  0  0  0  0  0  0  0  0  0  0  0
   35.0880   29.2770   48.8750 H   0  0  0  0  0  0  0  0  0  0  0  0
   36.6630   29.3560   52.7920 H   0  0  0  0  0  0  0  0  0  0  0  0
  1 17  1  0  0  0  0
  2  6  1  0  0  0  0
  2  1  1  0  0  0  0
  3  4  1  0  0  0  0
  3  2  2  0  0  0  0
  4  5  1  0  0  0  0
  5  1  2  0  0  0  0
  7  3  1  0  0  0  0
  8  9  1  0  0  0  0
  8  4  1  0  0  0  0
  9 10  1  0  0  0  0
 11 12  1  0  0  0  0
 11  9  2  0  0  0  0
 13 15  1  0  0  0  0
 13 11  1  0  0  0  0
 14 13  1  0  0  0  0
 15  8  2  0  0  0  0
 16 21  1  0  0  0  0
 17 18  1  0  0  0  0
 17 16  2  0  0  0  0
 18 19  2  0  0  0  0
 19 20  1  0  0  0  0
 20 24  1  0  0  0  0
 21 20  2  0  0  0  0
 22 16  1  0  0  0  0
 23 18  1  0  0  0  0
M  END
>  <minimizedAffinity>
-4.84795952

>  <minimizedRMSD>
3.75498104

$$$$
