
 OpenBabel03272505023D

 28 30  0  0  0  0  0  0  0  0999 V2000
   38.4310   30.4190   46.9730 Cl  0  0  0  0  0  0  0  0  0  0  0  0
   38.7810   31.9210   47.8130 C   0  0  0  0  0  0  0  0  0  0  0  0
   38.2000   32.1460   49.0310 C   0  0  0  0  0  0  0  0  0  0  0  0
   38.5240   33.3440   49.6280 C   0  0  0  0  0  0  0  0  0  0  0  0
   39.3880   34.2340   48.9990 C   0  0  0  0  0  0  0  0  0  0  0  0
   39.9420   33.9580   47.7780 C   0  0  0  0  0  0  0  0  0  0  0  0
   39.6280   32.7560   47.1600 C   0  0  0  0  0  0  0  0  0  0  0  0
   38.1310   33.6420   50.5920 H   0  0  0  0  0  0  0  0  0  0  0  0
   39.6380   35.1790   49.4820 H   0  0  0  0  0  0  0  0  0  0  0  0
   40.6100   34.6950   47.3400 H   0  0  0  0  0  0  0  0  0  0  0  0
   37.7110   30.4730   50.8120 C   0  0  0  0  0  0  0  0  0  0  0  0
   37.2910   31.2070   49.6900 C   0  0  0  0  0  0  0  0  0  0  0  0
   36.0020   31.0130   49.2340 C   0  0  0  0  0  0  0  0  0  0  0  0
   35.2140   30.1290   49.8900 N   0  0  0  0  0  0  0  0  0  0  0  0
   35.6300   29.4340   50.9650 C   0  0  0  0  0  0  0  0  0  0  0  0
   36.8740   29.6070   51.4200 N   0  0  0  0  0  0  0  0  0  0  0  0
   38.7260   30.6070   51.1940 H   0  0  0  0  0  0  0  0  0  0  0  0
   35.6370   31.5490   48.3830 H   0  0  0  0  0  0  0  0  0  0  0  0
   35.0230   28.7260   51.5030 H   0  0  0  0  0  0  0  0  0  0  0  0
   40.2100   32.5250   45.9330 O   0  0  0  0  0  0  0  0  0  0  0  0
   39.5810   32.4490   44.7240 C   0  0  0  0  0  0  0  0  0  0  0  0
   38.3650   32.7620   44.1670 C   0  0  0  0  0  0  0  0  0  0  0  0
   37.6170   33.2070   44.8080 H   0  0  0  0  0  0  0  0  0  0  0  0
   38.3430   32.4290   42.8330 C   0  0  0  0  0  0  0  0  0  0  0  0
   37.5010   32.5740   42.1740 H   0  0  0  0  0  0  0  0  0  0  0  0
   39.5550   31.9190   42.6160 N   0  0  0  0  0  0  0  0  0  0  0  0
   39.8610   31.5600   41.6630 H   0  0  0  0  0  0  0  0  0  0  0  0
   40.3120   31.9140   43.7020 N   0  0  0  0  0  0  0  0  0  0  0  0
  1  2  1  0  0  0  0
  2  3  1  0  0  0  0
  3  4  2  0  0  0  0
  3 12  1  0  0  0  0
  4  8  1  0  0  0  0
  5  9  1  0  0  0  0
  5  4  1  0  0  0  0
  6  5  2  0  0  0  0
  7  6  1  0  0  0  0
  7  2  2  0  0  0  0
 10  6  1  0  0  0  0
 11 17  1  0  0  0  0
 11 16  1  0  0  0  0
 12 11  2  0  0  0  0
 13 12  1  0  0  0  0
 13 14  2  0  0  0  0
 14 15  1  0  0  0  0
 15 16  2  0  0  0  0
 15 19  1  0  0  0  0
 18 13  1  0  0  0  0
 20  7  1  0  0  0  0
 21 20  1  0  0  0  0
 22 21  1  0  0  0  0
 22 23  1  0  0  0  0
 24 22  2  0  0  0  0
 25 24  1  0  0  0  0
 26 24  1  0  0  0  0
 26 28  1  0  0  0  0
 27 26  1  0  0  0  0
 28 21  2  0  0  0  0
M  END
>  <minimizedAffinity>
-6.00469255

>  <minimizedRMSD>
0.24371025

$$$$
