
 OpenBabel03272508023D

 27 29  0  0  0  0  0  0  0  0999 V2000
   38.8710   31.2250   45.6790 C   0  0  0  0  0  0  0  0  0  0  0  0
   39.8360   32.1830   45.8040 C   0  0  0  0  0  0  0  0  0  0  0  0
   40.7070   32.1450   44.7170 C   0  0  0  0  0  0  0  0  0  0  0  0
   40.2150   31.1330   43.9610 N   0  0  0  0  0  0  0  0  0  0  0  0
   39.1390   30.5870   44.5170 N   0  0  0  0  0  0  0  0  0  0  0  0
   39.9700   32.9050   46.5990 H   0  0  0  0  0  0  0  0  0  0  0  0
   41.5640   32.6920   44.4240 H   0  0  0  0  0  0  0  0  0  0  0  0
   40.6180   30.5590   42.7190 C   0  0  0  0  0  0  0  0  0  0  0  0
   41.2700   29.3940   42.3380 C   0  0  0  0  0  0  0  0  0  0  0  0
   41.5750   28.7100   43.1050 H   0  0  0  0  0  0  0  0  0  0  0  0
   41.3400   29.4640   40.9610 C   0  0  0  0  0  0  0  0  0  0  0  0
   41.8220   28.6410   40.4110 H   0  0  0  0  0  0  0  0  0  0  0  0
   40.7690   30.5980   40.5150 N   0  0  0  0  0  0  0  0  0  0  0  0
   40.7020   30.8710   39.5080 H   0  0  0  0  0  0  0  0  0  0  0  0
   40.3310   31.2610   41.5920 N   0  0  0  0  0  0  0  0  0  0  0  0
   37.7750   30.9400   46.6060 C   0  0  0  0  0  0  0  0  0  0  0  0
   38.0010   31.1670   47.9870 C   0  0  0  0  0  0  0  0  0  0  0  0
   36.9700   30.9020   48.8780 C   0  0  0  0  0  0  0  0  0  0  0  0
   35.7930   30.4320   48.3570 N   0  0  0  0  0  0  0  0  0  0  0  0
   35.6040   30.2240   47.0430 C   0  0  0  0  0  0  0  0  0  0  0  0
   36.6090   30.4840   46.1760 N   0  0  0  0  0  0  0  0  0  0  0  0
   38.9720   31.5450   48.3230 H   0  0  0  0  0  0  0  0  0  0  0  0
   34.6830   29.8580   46.6370 H   0  0  0  0  0  0  0  0  0  0  0  0
   37.1830   31.1320   50.3280 C   0  0  0  0  0  0  0  0  0  0  0  0
   36.6720   32.3750   50.5920 F   0  0  0  0  0  0  0  0  0  0  0  0
   36.5190   30.1920   51.1150 F   0  0  0  0  0  0  0  0  0  0  0  0
   38.5380   31.1300   50.6560 F   0  0  0  0  0  0  0  0  0  0  0  0
  1  2  1  0  0  0  0
  1 16  1  0  0  0  0
  2  6  1  0  0  0  0
  3  2  2  0  0  0  0
  4  5  1  0  0  0  0
  4  3  1  0  0  0  0
  5  1  2  0  0  0  0
  7  3  1  0  0  0  0
  8  4  1  0  0  0  0
  9  8  1  0  0  0  0
  9 10  1  0  0  0  0
 11  9  2  0  0  0  0
 12 11  1  0  0  0  0
 13 11  1  0  0  0  0
 13 15  1  0  0  0  0
 14 13  1  0  0  0  0
 15  8  2  0  0  0  0
 16 17  1  0  0  0  0
 17 22  1  0  0  0  0
 17 18  2  0  0  0  0
 18 24  1  0  0  0  0
 19 18  1  0  0  0  0
 20 19  2  0  0  0  0
 21 16  2  0  0  0  0
 21 20  1  0  0  0  0
 23 20  1  0  0  0  0
 24 25  1  0  0  0  0
 24 27  1  0  0  0  0
 24 26  1  0  0  0  0
M  END
>  <minimizedAffinity>
-6.26078749

>  <minimizedRMSD>
0.818307161

$$$$
