
 OpenBabel03272502583D

 33 35  0  0  1  0  0  0  0  0999 V2000
   35.9260   29.6570   48.8420 N   0  0  0  0  0  0  0  0  0  0  0  0
   36.7020   28.8620   49.7470 C   0  0  0  0  0  0  0  0  0  0  0  0
   37.1870   29.4800   50.9860 C   0  0  0  0  0  0  0  0  0  0  0  0
   37.3840   30.9460   50.9960 C   0  0  0  0  0  0  0  0  0  0  0  0
   36.6150   31.6930   49.9350 C   0  0  0  0  0  0  0  0  0  0  0  0
   36.6380   30.8910   48.6420 C   0  0  1  0  0  0  0  0  0  0  0  0
   36.0770   27.9490   49.9700 H   0  0  0  0  0  0  0  0  0  0  0  0
   37.5690   28.4660   49.1580 H   0  0  0  0  0  0  0  0  0  0  0  0
   38.1540   29.0000   51.2740 H   0  0  0  0  0  0  0  0  0  0  0  0
   36.4740   29.1930   51.8090 H   0  0  0  0  0  0  0  0  0  0  0  0
   37.0580   31.3670   51.9820 H   0  0  0  0  0  0  0  0  0  0  0  0
   38.4630   31.2330   50.8970 H   0  0  0  0  0  0  0  0  0  0  0  0
   35.5650   31.8860   50.1780 H   0  0  0  0  0  0  0  0  0  0  0  0
   37.1480   32.6590   49.7280 H   0  0  0  0  0  0  0  0  0  0  0  0
   36.2270   31.5220   47.8280 H   0  0  0  0  0  0  0  0  0  0  0  0
   34.6780   29.2950   48.2480 C   0  0  0  0  0  0  0  0  0  0  0  0
   34.1630   29.8600   47.0820 C   0  0  0  0  0  0  0  0  0  0  0  0
   32.9370   29.4080   46.6220 C   0  0  0  0  0  0  0  0  0  0  0  0
   32.3040   28.4320   47.3420 N   0  0  0  0  0  0  0  0  0  0  0  0
   32.8320   27.9170   48.4560 C   0  0  0  0  0  0  0  0  0  0  0  0
   34.0260   28.3430   48.9210 N   0  0  0  0  0  0  0  0  0  0  0  0
   34.7410   30.6110   46.6060 H   0  0  0  0  0  0  0  0  0  0  0  0
   32.5600   29.8600   45.7180 H   0  0  0  0  0  0  0  0  0  0  0  0
   32.2740   27.1470   48.9730 H   0  0  0  0  0  0  0  0  0  0  0  0
   37.9960   30.6910   48.3740 O   0  0  0  0  0  0  0  0  0  0  0  0
   38.7260   31.4730   47.4870 C   0  0  0  0  0  0  0  0  0  0  0  0
   39.3530   31.1530   46.2790 C   0  0  0  0  0  0  0  0  0  0  0  0
   39.3370   30.1580   45.8580 H   0  0  0  0  0  0  0  0  0  0  0  0
   39.9600   32.2800   45.7590 C   0  0  0  0  0  0  0  0  0  0  0  0
   40.4920   32.2430   44.8370 H   0  0  0  0  0  0  0  0  0  0  0  0
   39.6850   33.2610   46.6650 N   0  0  0  0  0  0  0  0  0  0  0  0
   40.0550   34.2220   46.4720 H   0  0  0  0  0  0  0  0  0  0  0  0
   38.9670   32.7840   47.6710 N   0  0  0  0  0  0  0  0  0  0  0  0
  1  2  1  0  0  0  0
  2  7  1  0  0  0  0
  2  3  1  0  0  0  0
  3  4  1  0  0  0  0
  3  9  1  0  0  0  0
  3 10  1  0  0  0  0
  4 11  1  0  0  0  0
  5 13  1  0  0  0  0
  5  4  1  0  0  0  0
  6 15  1  6  0  0  0
  6  1  1  0  0  0  0
  6  5  1  0  0  0  0
  8  2  1  0  0  0  0
 12  4  1  0  0  0  0
 14  5  1  0  0  0  0
 16  1  1  0  0  0  0
 16 21  1  0  0  0  0
 17 16  2  0  0  0  0
 18 17  1  0  0  0  0
 18 19  2  0  0  0  0
 19 20  1  0  0  0  0
 20 21  2  0  0  0  0
 20 24  1  0  0  0  0
 22 17  1  0  0  0  0
 23 18  1  0  0  0  0
 25  6  1  0  0  0  0
 26 33  2  0  0  0  0
 26 25  1  0  0  0  0
 27 26  1  0  0  0  0
 28 27  1  0  0  0  0
 29 27  2  0  0  0  0
 29 31  1  0  0  0  0
 30 29  1  0  0  0  0
 31 33  1  0  0  0  0
 32 31  1  0  0  0  0
M  END
>  <minimizedAffinity>
-5.7149539

>  <minimizedRMSD>
0.855291486

$$$$
