
 OpenBabel03272505033D

 28 30  0  0  0  0  0  0  0  0999 V2000
   38.6340   30.4250   46.8350 Cl  0  0  0  0  0  0  0  0  0  0  0  0
   38.9360   31.9540   47.6440 C   0  0  0  0  0  0  0  0  0  0  0  0
   38.3300   32.1950   48.8470 C   0  0  0  0  0  0  0  0  0  0  0  0
   38.6170   33.4140   49.4200 C   0  0  0  0  0  0  0  0  0  0  0  0
   39.4710   34.3080   48.7840 C   0  0  0  0  0  0  0  0  0  0  0  0
   40.0530   34.0150   47.5800 C   0  0  0  0  0  0  0  0  0  0  0  0
   39.7760   32.7920   46.9860 C   0  0  0  0  0  0  0  0  0  0  0  0
   38.2010   33.7250   50.3700 H   0  0  0  0  0  0  0  0  0  0  0  0
   39.6920   35.2690   49.2480 H   0  0  0  0  0  0  0  0  0  0  0  0
   40.7120   34.7570   47.1350 H   0  0  0  0  0  0  0  0  0  0  0  0
   37.8670   30.5100   50.6240 C   0  0  0  0  0  0  0  0  0  0  0  0
   37.4310   31.2510   49.5130 C   0  0  0  0  0  0  0  0  0  0  0  0
   36.1350   31.0610   49.0750 C   0  0  0  0  0  0  0  0  0  0  0  0
   35.3560   30.1730   49.7370 N   0  0  0  0  0  0  0  0  0  0  0  0
   35.7880   29.4700   50.8010 C   0  0  0  0  0  0  0  0  0  0  0  0
   37.0390   29.6410   51.2390 N   0  0  0  0  0  0  0  0  0  0  0  0
   38.8870   30.6420   50.9920 H   0  0  0  0  0  0  0  0  0  0  0  0
   35.7570   31.6030   48.2330 H   0  0  0  0  0  0  0  0  0  0  0  0
   35.1890   28.7590   51.3440 H   0  0  0  0  0  0  0  0  0  0  0  0
   40.3840   32.5450   45.7750 O   0  0  0  0  0  0  0  0  0  0  0  0
   39.7740   32.3890   44.5630 C   0  0  0  0  0  0  0  0  0  0  0  0
   40.0250   31.8030   43.3460 C   0  0  0  0  0  0  0  0  0  0  0  0
   40.9640   31.2840   43.2200 H   0  0  0  0  0  0  0  0  0  0  0  0
   38.9700   32.0040   42.4860 C   0  0  0  0  0  0  0  0  0  0  0  0
   38.9240   31.6420   41.4710 H   0  0  0  0  0  0  0  0  0  0  0  0
   38.1050   32.7100   43.2110 N   0  0  0  0  0  0  0  0  0  0  0  0
   37.1670   33.0330   42.8260 H   0  0  0  0  0  0  0  0  0  0  0  0
   38.5400   32.9580   44.4340 N   0  0  0  0  0  0  0  0  0  0  0  0
  1  2  1  0  0  0  0
  2  3  1  0  0  0  0
  3  4  2  0  0  0  0
  3 12  1  0  0  0  0
  4  8  1  0  0  0  0
  5  9  1  0  0  0  0
  5  4  1  0  0  0  0
  6  5  2  0  0  0  0
  7  6  1  0  0  0  0
  7  2  2  0  0  0  0
 10  6  1  0  0  0  0
 11 17  1  0  0  0  0
 11 16  1  0  0  0  0
 12 11  2  0  0  0  0
 13 12  1  0  0  0  0
 13 14  2  0  0  0  0
 14 15  1  0  0  0  0
 15 16  2  0  0  0  0
 15 19  1  0  0  0  0
 18 13  1  0  0  0  0
 20  7  1  0  0  0  0
 21 20  1  0  0  0  0
 22 21  1  0  0  0  0
 23 22  1  0  0  0  0
 24 26  1  0  0  0  0
 24 22  2  0  0  0  0
 25 24  1  0  0  0  0
 26 28  1  0  0  0  0
 27 26  1  0  0  0  0
 28 21  2  0  0  0  0
M  END
>  <minimizedAffinity>
-5.91101456

>  <minimizedRMSD>
0.383284062

$$$$
