
 OpenBabel03272502583D

 33 35  0  0  1  0  0  0  0  0999 V2000
   35.8490   29.6340   48.7510 N   0  0  0  0  0  0  0  0  0  0  0  0
   36.7110   28.8900   49.6210 C   0  0  0  0  0  0  0  0  0  0  0  0
   37.2630   29.5600   50.8030 C   0  0  0  0  0  0  0  0  0  0  0  0
   37.4160   31.0300   50.7570 C   0  0  0  0  0  0  0  0  0  0  0  0
   36.5520   31.7220   49.7310 C   0  0  0  0  0  0  0  0  0  0  0  0
   36.5080   30.8810   48.4640 C   0  0  1  0  0  0  0  0  0  0  0  0
   36.1310   27.9670   49.9140 H   0  0  0  0  0  0  0  0  0  0  0  0
   37.5460   28.5000   48.9830 H   0  0  0  0  0  0  0  0  0  0  0  0
   38.2620   29.1160   51.0350 H   0  0  0  0  0  0  0  0  0  0  0  0
   36.6190   29.2780   51.6830 H   0  0  0  0  0  0  0  0  0  0  0  0
   37.1480   31.4720   51.7500 H   0  0  0  0  0  0  0  0  0  0  0  0
   38.4760   31.3440   50.5720 H   0  0  0  0  0  0  0  0  0  0  0  0
   35.5160   31.8930   50.0430 H   0  0  0  0  0  0  0  0  0  0  0  0
   37.0400   32.6950   49.4590 H   0  0  0  0  0  0  0  0  0  0  0  0
   36.0210   31.4740   47.6640 H   0  0  0  0  0  0  0  0  0  0  0  0
   34.5740   29.2190   48.2580 C   0  0  0  0  0  0  0  0  0  0  0  0
   34.0050   29.6600   47.0650 C   0  0  0  0  0  0  0  0  0  0  0  0
   32.7570   29.1700   46.7140 C   0  0  0  0  0  0  0  0  0  0  0  0
   32.1580   28.2800   47.5620 N   0  0  0  0  0  0  0  0  0  0  0  0
   32.7380   27.8830   48.6990 C   0  0  0  0  0  0  0  0  0  0  0  0
   33.9540   28.3480   49.0580 N   0  0  0  0  0  0  0  0  0  0  0  0
   34.5600   30.3530   46.4850 H   0  0  0  0  0  0  0  0  0  0  0  0
   32.3390   29.5260   45.7850 H   0  0  0  0  0  0  0  0  0  0  0  0
   32.2050   27.1750   49.3200 H   0  0  0  0  0  0  0  0  0  0  0  0
   37.8490   30.7110   48.1050 O   0  0  0  0  0  0  0  0  0  0  0  0
   38.4170   31.2750   46.9700 C   0  0  0  0  0  0  0  0  0  0  0  0
   37.8470   32.0000   45.9190 C   0  0  0  0  0  0  0  0  0  0  0  0
   36.7920   32.2220   45.8680 H   0  0  0  0  0  0  0  0  0  0  0  0
   38.8300   32.3530   45.0140 C   0  0  0  0  0  0  0  0  0  0  0  0
   38.5960   32.9110   44.1380 H   0  0  0  0  0  0  0  0  0  0  0  0
   39.9760   31.8340   45.5380 N   0  0  0  0  0  0  0  0  0  0  0  0
   40.8670   31.9830   45.0080 H   0  0  0  0  0  0  0  0  0  0  0  0
   39.7290   31.2070   46.6780 N   0  0  0  0  0  0  0  0  0  0  0  0
  1  2  1  0  0  0  0
  2  7  1  0  0  0  0
  2  3  1  0  0  0  0
  3  9  1  0  0  0  0
  3 10  1  0  0  0  0
  4  3  1  0  0  0  0
  4 11  1  0  0  0  0
  5 13  1  0  0  0  0
  5  4  1  0  0  0  0
  6 15  1  6  0  0  0
  6  1  1  0  0  0  0
  6  5  1  0  0  0  0
  8  2  1  0  0  0  0
 12  4  1  0  0  0  0
 14  5  1  0  0  0  0
 16  1  1  0  0  0  0
 16 21  1  0  0  0  0
 17 16  2  0  0  0  0
 18 17  1  0  0  0  0
 18 19  2  0  0  0  0
 19 20  1  0  0  0  0
 20 21  2  0  0  0  0
 20 24  1  0  0  0  0
 22 17  1  0  0  0  0
 23 18  1  0  0  0  0
 25  6  1  0  0  0  0
 26 25  1  0  0  0  0
 27 26  1  0  0  0  0
 28 27  1  0  0  0  0
 29 31  1  0  0  0  0
 29 27  2  0  0  0  0
 30 29  1  0  0  0  0
 31 33  1  0  0  0  0
 32 31  1  0  0  0  0
 33 26  2  0  0  0  0
M  END
>  <minimizedAffinity>
-5.07928419

>  <minimizedRMSD>
0.737349808

$$$$
