
 OpenBabel03272508223D

 41 44  0  0  0  0  0  0  0  0999 V2000
   36.3740   27.8250   32.8340 C   0  0  0  0  0  0  0  0  0  0  0  0
   35.4670   27.1900   32.6870 H   0  0  0  0  0  0  0  0  0  0  0  0
   37.0000   27.5810   31.9230 H   0  0  0  0  0  0  0  0  0  0  0  0
   36.8670   25.1040   33.0550 F   0  0  0  0  0  0  0  0  0  0  0  0
   37.3020   25.9810   34.0060 C   0  0  0  0  0  0  0  0  0  0  0  0
   37.0860   27.3640   33.9780 C   0  0  0  0  0  0  0  0  0  0  0  0
   37.5770   28.0580   35.0330 C   0  0  0  0  0  0  0  0  0  0  0  0
   38.2480   27.4900   36.0680 C   0  0  0  0  0  0  0  0  0  0  0  0
   38.4570   26.1230   36.0830 C   0  0  0  0  0  0  0  0  0  0  0  0
   37.9680   25.3600   35.0280 C   0  0  0  0  0  0  0  0  0  0  0  0
   37.4380   29.0810   35.2130 H   0  0  0  0  0  0  0  0  0  0  0  0
   38.6710   28.0030   36.9460 H   0  0  0  0  0  0  0  0  0  0  0  0
   39.0000   25.6240   36.9060 H   0  0  0  0  0  0  0  0  0  0  0  0
   38.2030   23.9850   35.1190 O   0  0  0  0  0  0  0  0  0  0  0  0
   39.0220   23.4500   36.1060 C   0  0  0  0  0  0  0  0  0  0  0  0
   40.3680   23.1470   36.3110 C   0  0  0  0  0  0  0  0  0  0  0  0
   41.0090   23.3820   35.4740 H   0  0  0  0  0  0  0  0  0  0  0  0
   40.4440   22.6170   37.5820 C   0  0  0  0  0  0  0  0  0  0  0  0
   41.4180   22.3160   37.9300 H   0  0  0  0  0  0  0  0  0  0  0  0
   39.2170   22.6010   38.1120 N   0  0  0  0  0  0  0  0  0  0  0  0
   39.0390   22.2330   39.0910 H   0  0  0  0  0  0  0  0  0  0  0  0
   38.3570   23.0970   37.2400 N   0  0  0  0  0  0  0  0  0  0  0  0
   36.0740   29.2700   32.7500 C   0  0  0  0  0  0  0  0  0  0  0  0
   36.8230   29.7910   33.4270 H   0  0  0  0  0  0  0  0  0  0  0  0
   36.3280   29.6750   31.7500 H   0  0  0  0  0  0  0  0  0  0  0  0
   34.5730   30.7550   34.0010 C   0  0  0  0  0  0  0  0  0  0  0  0
   34.7730   29.7010   33.1530 C   0  0  0  0  0  0  0  0  0  0  0  0
   33.6230   29.0810   32.7950 C   0  0  0  0  0  0  0  0  0  0  0  0
   32.4120   29.4500   33.2200 N   0  0  0  0  0  0  0  0  0  0  0  0
   32.2230   30.4640   34.0410 C   0  0  0  0  0  0  0  0  0  0  0  0
   33.3020   31.1340   34.4450 N   0  0  0  0  0  0  0  0  0  0  0  0
   33.6190   28.2150   32.1140 H   0  0  0  0  0  0  0  0  0  0  0  0
   31.3220   30.8810   34.4710 H   0  0  0  0  0  0  0  0  0  0  0  0
   35.7260   31.6830   34.3890 C   0  0  0  0  0  0  0  0  0  0  0  0
   35.6190   32.6600   35.3660 C   0  0  0  0  0  0  0  0  0  0  0  0
   36.0930   31.3110   35.8910 C   0  0  0  0  0  0  0  0  0  0  0  0
   36.6050   31.6590   33.8000 H   0  0  0  0  0  0  0  0  0  0  0  0
   34.5840   32.9710   35.7080 H   0  0  0  0  0  0  0  0  0  0  0  0
   36.3200   33.4820   35.5030 H   0  0  0  0  0  0  0  0  0  0  0  0
   35.3710   30.7550   36.4700 H   0  0  0  0  0  0  0  0  0  0  0  0
   37.1780   31.1780   36.0560 H   0  0  0  0  0  0  0  0  0  0  0  0
  1  6  1  0  0  0  0
  2  1  1  0  0  0  0
  3  1  1  0  0  0  0
  4  5  1  0  0  0  0
  5 10  1  0  0  0  0
  6  5  2  0  0  0  0
  6  7  1  0  0  0  0
  7 11  1  0  0  0  0
  7  8  2  0  0  0  0
  8  9  1  0  0  0  0
  8 12  1  0  0  0  0
  9 13  1  0  0  0  0
 10 14  1  0  0  0  0
 10  9  2  0  0  0  0
 14 15  1  0  0  0  0
 15 16  1  0  0  0  0
 15 22  2  0  0  0  0
 16 18  2  0  0  0  0
 17 16  1  0  0  0  0
 18 19  1  0  0  0  0
 18 20  1  0  0  0  0
 20 21  1  0  0  0  0
 22 20  1  0  0  0  0
 23  1  1  0  0  0  0
 23 27  1  0  0  0  0
 23 24  1  0  0  0  0
 25 23  1  0  0  0  0
 26 34  1  0  0  0  0
 26 31  1  0  0  0  0
 27 26  2  0  0  0  0
 28 27  1  0  0  0  0
 28 29  2  0  0  0  0
 29 30  1  0  0  0  0
 30 31  2  0  0  0  0
 30 33  1  0  0  0  0
 32 28  1  0  0  0  0
 34 35  1  0  0  0  0
 34 36  1  0  0  0  0
 35 39  1  0  0  0  0
 35 38  1  0  0  0  0
 35 36  1  0  0  0  0
 36 41  1  0  0  0  0
 36 40  1  0  0  0  0
 37 34  1  0  0  0  0
M  END
>  <minimizedAffinity>
-5.82758808

$$$$

 OpenBabel03272508223D

 41 44  0  0  0  0  0  0  0  0999 V2000
   36.7420   28.5650   34.7140 C   0  0  0  0  0  0  0  0  0  0  0  0
   37.6280   29.2400   34.6390 H   0  0  0  0  0  0  0  0  0  0  0  0
   36.5910   28.4730   35.8320 H   0  0  0  0  0  0  0  0  0  0  0  0
   38.4580   27.0120   36.2420 F   0  0  0  0  0  0  0  0  0  0  0  0
   37.9540   26.5540   35.0600 C   0  0  0  0  0  0  0  0  0  0  0  0
   37.0940   27.2760   34.2230 C   0  0  0  0  0  0  0  0  0  0  0  0
   36.7260   26.6530   33.0780 C   0  0  0  0  0  0  0  0  0  0  0  0
   37.1350   25.4060   32.7270 C   0  0  0  0  0  0  0  0  0  0  0  0
   37.9840   24.7020   33.5630 C   0  0  0  0  0  0  0  0  0  0  0  0
   38.3990   25.2980   34.7490 C   0  0  0  0  0  0  0  0  0  0  0  0
   36.1560   27.0740   32.3050 H   0  0  0  0  0  0  0  0  0  0  0  0
   36.8670   24.8520   31.8160 H   0  0  0  0  0  0  0  0  0  0  0  0
   38.3370   23.6860   33.3140 H   0  0  0  0  0  0  0  0  0  0  0  0
   39.2670   24.5330   35.5350 O   0  0  0  0  0  0  0  0  0  0  0  0
   38.8550   23.9670   36.7340 C   0  0  0  0  0  0  0  0  0  0  0  0
   37.7690   24.0170   37.6080 C   0  0  0  0  0  0  0  0  0  0  0  0
   36.9810   24.6880   37.2990 H   0  0  0  0  0  0  0  0  0  0  0  0
   38.0720   23.1470   38.6350 C   0  0  0  0  0  0  0  0  0  0  0  0
   37.3440   23.0450   39.4220 H   0  0  0  0  0  0  0  0  0  0  0  0
   39.2710   22.6050   38.3950 N   0  0  0  0  0  0  0  0  0  0  0  0
   39.7060   21.9010   39.0600 H   0  0  0  0  0  0  0  0  0  0  0  0
   39.7500   23.0870   37.2620 N   0  0  0  0  0  0  0  0  0  0  0  0
   35.5090   29.1870   34.1850 C   0  0  0  0  0  0  0  0  0  0  0  0
   35.1700   28.5350   33.3180 H   0  0  0  0  0  0  0  0  0  0  0  0
   34.6700   29.0900   34.9040 H   0  0  0  0  0  0  0  0  0  0  0  0
   35.4490   31.6200   34.4980 C   0  0  0  0  0  0  0  0  0  0  0  0
   35.6000   30.5250   33.6940 C   0  0  0  0  0  0  0  0  0  0  0  0
   35.7760   30.8440   32.3880 C   0  0  0  0  0  0  0  0  0  0  0  0
   35.8020   32.0960   31.9230 N   0  0  0  0  0  0  0  0  0  0  0  0
   35.6530   33.1490   32.7010 C   0  0  0  0  0  0  0  0  0  0  0  0
   35.4740   32.9270   34.0030 N   0  0  0  0  0  0  0  0  0  0  0  0
   35.9140   30.0710   31.6150 H   0  0  0  0  0  0  0  0  0  0  0  0
   35.6480   34.2080   32.4820 H   0  0  0  0  0  0  0  0  0  0  0  0
   35.4030   31.4770   36.0210 C   0  0  0  0  0  0  0  0  0  0  0  0
   34.9760   32.4880   36.8660 C   0  0  0  0  0  0  0  0  0  0  0  0
   33.8640   31.5500   36.4150 C   0  0  0  0  0  0  0  0  0  0  0  0
   35.8310   30.6110   36.4530 H   0  0  0  0  0  0  0  0  0  0  0  0
   34.9090   33.5430   36.4560 H   0  0  0  0  0  0  0  0  0  0  0  0
   35.1490   32.5160   37.9410 H   0  0  0  0  0  0  0  0  0  0  0  0
   33.1710   31.9590   35.6940 H   0  0  0  0  0  0  0  0  0  0  0  0
   33.5520   30.7520   37.1130 H   0  0  0  0  0  0  0  0  0  0  0  0
  1  3  1  0  0  0  0
  2  1  1  0  0  0  0
  5  4  1  0  0  0  0
  6  1  1  0  0  0  0
  6  5  2  0  0  0  0
  7  6  1  0  0  0  0
  8  7  2  0  0  0  0
  8  9  1  0  0  0  0
  9 10  2  0  0  0  0
 10  5  1  0  0  0  0
 10 14  1  0  0  0  0
 11  7  1  0  0  0  0
 12  8  1  0  0  0  0
 13  9  1  0  0  0  0
 14 15  1  0  0  0  0
 15 22  2  0  0  0  0
 15 16  1  0  0  0  0
 16 18  2  0  0  0  0
 17 16  1  0  0  0  0
 18 19  1  0  0  0  0
 20 18  1  0  0  0  0
 20 21  1  0  0  0  0
 22 20  1  0  0  0  0
 23  1  1  0  0  0  0
 23 25  1  0  0  0  0
 24 23  1  0  0  0  0
 26 34  1  0  0  0  0
 27 23  1  0  0  0  0
 27 26  2  0  0  0  0
 28 27  1  0  0  0  0
 29 28  2  0  0  0  0
 29 30  1  0  0  0  0
 30 31  2  0  0  0  0
 31 26  1  0  0  0  0
 32 28  1  0  0  0  0
 33 30  1  0  0  0  0
 34 36  1  0  0  0  0
 34 37  1  0  0  0  0
 34 35  1  0  0  0  0
 35 39  1  0  0  0  0
 36 35  1  0  0  0  0
 36 41  1  0  0  0  0
 38 35  1  0  0  0  0
 40 36  1  0  0  0  0
M  END
>  <minimizedAffinity>
-5.74473858

$$$$

 OpenBabel03272508223D

 41 44  0  0  0  0  0  0  0  0999 V2000
   36.4680   28.3580   34.2220 C   0  0  0  0  0  0  0  0  0  0  0  0
   37.2120   28.8900   34.8630 H   0  0  0  0  0  0  0  0  0  0  0  0
   35.5950   28.2060   34.9260 H   0  0  0  0  0  0  0  0  0  0  0  0
   38.2360   27.1540   35.9880 F   0  0  0  0  0  0  0  0  0  0  0  0
   37.8530   26.5310   34.8360 C   0  0  0  0  0  0  0  0  0  0  0  0
   36.9770   27.0710   33.8860 C   0  0  0  0  0  0  0  0  0  0  0  0
   36.7440   26.3030   32.7960 C   0  0  0  0  0  0  0  0  0  0  0  0
   37.2970   25.0780   32.5990 C   0  0  0  0  0  0  0  0  0  0  0  0
   38.1590   24.5540   33.5440 C   0  0  0  0  0  0  0  0  0  0  0  0
   38.4400   25.3040   34.6810 C   0  0  0  0  0  0  0  0  0  0  0  0
   36.1820   26.5820   31.9550 H   0  0  0  0  0  0  0  0  0  0  0  0
   37.1410   24.4100   31.7370 H   0  0  0  0  0  0  0  0  0  0  0  0
   38.6270   23.5610   33.4220 H   0  0  0  0  0  0  0  0  0  0  0  0
   39.3310   24.7180   35.5860 O   0  0  0  0  0  0  0  0  0  0  0  0
   38.8870   24.1020   36.7490 C   0  0  0  0  0  0  0  0  0  0  0  0
   37.8240   24.1840   37.6490 C   0  0  0  0  0  0  0  0  0  0  0  0
   37.0970   24.9460   37.4080 H   0  0  0  0  0  0  0  0  0  0  0  0
   38.0620   23.2150   38.6010 C   0  0  0  0  0  0  0  0  0  0  0  0
   37.3400   23.1200   39.3950 H   0  0  0  0  0  0  0  0  0  0  0  0
   39.2010   22.5860   38.2950 N   0  0  0  0  0  0  0  0  0  0  0  0
   39.5800   21.7970   38.8950 H   0  0  0  0  0  0  0  0  0  0  0  0
   39.7050   23.1060   37.1890 N   0  0  0  0  0  0  0  0  0  0  0  0
   35.9620   29.2040   33.1190 C   0  0  0  0  0  0  0  0  0  0  0  0
   36.7180   30.0420   32.9880 H   0  0  0  0  0  0  0  0  0  0  0  0
   36.0180   28.6720   32.1470 H   0  0  0  0  0  0  0  0  0  0  0  0
   34.5040   30.9820   33.9760 C   0  0  0  0  0  0  0  0  0  0  0  0
   34.6820   29.8150   33.2860 C   0  0  0  0  0  0  0  0  0  0  0  0
   33.5200   29.2770   32.8420 C   0  0  0  0  0  0  0  0  0  0  0  0
   32.3180   29.8210   33.0510 N   0  0  0  0  0  0  0  0  0  0  0  0
   32.1500   30.9440   33.7190 C   0  0  0  0  0  0  0  0  0  0  0  0
   33.2420   31.5440   34.1920 N   0  0  0  0  0  0  0  0  0  0  0  0
   33.4980   28.3370   32.2670 H   0  0  0  0  0  0  0  0  0  0  0  0
   31.2590   31.5030   33.9710 H   0  0  0  0  0  0  0  0  0  0  0  0
   35.7020   31.8270   34.4140 C   0  0  0  0  0  0  0  0  0  0  0  0
   35.6020   32.8790   35.3110 C   0  0  0  0  0  0  0  0  0  0  0  0
   35.8910   31.5340   35.9660 C   0  0  0  0  0  0  0  0  0  0  0  0
   36.6250   31.6790   33.9180 H   0  0  0  0  0  0  0  0  0  0  0  0
   34.5750   33.3070   35.5280 H   0  0  0  0  0  0  0  0  0  0  0  0
   36.3640   33.6410   35.4640 H   0  0  0  0  0  0  0  0  0  0  0  0
   35.0670   31.0910   36.5060 H   0  0  0  0  0  0  0  0  0  0  0  0
   36.9370   31.3150   36.2470 H   0  0  0  0  0  0  0  0  0  0  0  0
  1  2  1  0  0  0  0
  1  3  1  0  0  0  0
  5  4  1  0  0  0  0
  6  1  1  0  0  0  0
  6  5  2  0  0  0  0
  7  6  1  0  0  0  0
  8  7  2  0  0  0  0
  8  9  1  0  0  0  0
  9 10  2  0  0  0  0
 10  5  1  0  0  0  0
 10 14  1  0  0  0  0
 11  7  1  0  0  0  0
 12  8  1  0  0  0  0
 13  9  1  0  0  0  0
 14 15  1  0  0  0  0
 15 22  2  0  0  0  0
 15 16  1  0  0  0  0
 16 18  2  0  0  0  0
 17 16  1  0  0  0  0
 18 19  1  0  0  0  0
 20 18  1  0  0  0  0
 20 21  1  0  0  0  0
 22 20  1  0  0  0  0
 23 27  1  0  0  0  0
 23  1  1  0  0  0  0
 24 23  1  0  0  0  0
 25 23  1  0  0  0  0
 26 31  1  0  0  0  0
 26 34  1  0  0  0  0
 27 26  2  0  0  0  0
 28 29  2  0  0  0  0
 28 27  1  0  0  0  0
 29 30  1  0  0  0  0
 30 33  1  0  0  0  0
 30 31  2  0  0  0  0
 32 28  1  0  0  0  0
 34 35  1  0  0  0  0
 34 36  1  0  0  0  0
 35 39  1  0  0  0  0
 35 38  1  0  0  0  0
 35 36  1  0  0  0  0
 36 41  1  0  0  0  0
 36 40  1  0  0  0  0
 37 34  1  0  0  0  0
M  END
>  <minimizedAffinity>
-5.71653605

$$$$

 OpenBabel03272508223D

 41 44  0  0  0  0  0  0  0  0999 V2000
   38.0510   27.5040   35.4740 C   0  0  0  0  0  0  0  0  0  0  0  0
   38.3530   28.5730   35.5970 H   0  0  0  0  0  0  0  0  0  0  0  0
   37.7840   27.1960   36.5290 H   0  0  0  0  0  0  0  0  0  0  0  0
   37.8940   24.7420   35.6680 F   0  0  0  0  0  0  0  0  0  0  0  0
   39.0190   25.3550   35.1980 C   0  0  0  0  0  0  0  0  0  0  0  0
   39.1860   26.7400   35.0790 C   0  0  0  0  0  0  0  0  0  0  0  0
   40.3890   27.1520   34.6130 C   0  0  0  0  0  0  0  0  0  0  0  0
   41.3960   26.3090   34.2650 C   0  0  0  0  0  0  0  0  0  0  0  0
   41.2190   24.9420   34.3850 C   0  0  0  0  0  0  0  0  0  0  0  0
   40.0040   24.4650   34.8650 C   0  0  0  0  0  0  0  0  0  0  0  0
   40.7120   28.1470   34.5370 H   0  0  0  0  0  0  0  0  0  0  0  0
   42.3890   26.5850   33.8790 H   0  0  0  0  0  0  0  0  0  0  0  0
   42.0120   24.2240   34.1100 H   0  0  0  0  0  0  0  0  0  0  0  0
   39.9040   23.0740   34.9730 O   0  0  0  0  0  0  0  0  0  0  0  0
   40.6520   22.3610   35.9000 C   0  0  0  0  0  0  0  0  0  0  0  0
   41.8770   21.6980   35.9830 C   0  0  0  0  0  0  0  0  0  0  0  0
   42.4570   21.7210   35.0720 H   0  0  0  0  0  0  0  0  0  0  0  0
   41.9510   21.2050   37.2690 C   0  0  0  0  0  0  0  0  0  0  0  0
   42.8380   20.6540   37.5330 H   0  0  0  0  0  0  0  0  0  0  0  0
   40.8370   21.5490   37.9230 N   0  0  0  0  0  0  0  0  0  0  0  0
   40.6780   21.2730   38.9350 H   0  0  0  0  0  0  0  0  0  0  0  0
   40.0520   22.2400   37.1150 N   0  0  0  0  0  0  0  0  0  0  0  0
   36.8130   27.3540   34.6780 C   0  0  0  0  0  0  0  0  0  0  0  0
   36.7460   26.2560   34.3960 H   0  0  0  0  0  0  0  0  0  0  0  0
   35.9110   27.4990   35.3070 H   0  0  0  0  0  0  0  0  0  0  0  0
   35.9850   29.2620   33.3750 C   0  0  0  0  0  0  0  0  0  0  0  0
   36.7080   28.1050   33.4680 C   0  0  0  0  0  0  0  0  0  0  0  0
   37.2510   27.7220   32.2860 C   0  0  0  0  0  0  0  0  0  0  0  0
   37.1020   28.3950   31.1420 N   0  0  0  0  0  0  0  0  0  0  0  0
   36.4010   29.5080   31.0570 C   0  0  0  0  0  0  0  0  0  0  0  0
   35.8310   29.9600   32.1730 N   0  0  0  0  0  0  0  0  0  0  0  0
   37.8640   26.8100   32.1990 H   0  0  0  0  0  0  0  0  0  0  0  0
   36.1880   30.1590   30.2200 H   0  0  0  0  0  0  0  0  0  0  0  0
   35.4320   29.9460   34.6270 C   0  0  0  0  0  0  0  0  0  0  0  0
   34.5250   30.9930   34.5820 C   0  0  0  0  0  0  0  0  0  0  0  0
   33.8760   29.6160   34.6470 C   0  0  0  0  0  0  0  0  0  0  0  0
   35.8530   29.6890   35.5630 H   0  0  0  0  0  0  0  0  0  0  0  0
   34.3850   31.5440   33.6020 H   0  0  0  0  0  0  0  0  0  0  0  0
   34.2950   31.6520   35.4170 H   0  0  0  0  0  0  0  0  0  0  0  0
   33.4150   29.2750   33.7310 H   0  0  0  0  0  0  0  0  0  0  0  0
   33.5150   29.2660   35.6300 H   0  0  0  0  0  0  0  0  0  0  0  0
  1  2  1  0  0  0  0
  1  3  1  0  0  0  0
  5  4  1  0  0  0  0
  6  5  1  0  0  0  0
  6  1  1  0  0  0  0
  7  6  2  0  0  0  0
  8  9  2  0  0  0  0
  8  7  1  0  0  0  0
  9 10  1  0  0  0  0
 10 14  1  0  0  0  0
 10  5  2  0  0  0  0
 11  7  1  0  0  0  0
 12  8  1  0  0  0  0
 13  9  1  0  0  0  0
 14 15  1  0  0  0  0
 15 16  1  0  0  0  0
 15 22  2  0  0  0  0
 16 18  2  0  0  0  0
 17 16  1  0  0  0  0
 18 19  1  0  0  0  0
 18 20  1  0  0  0  0
 20 21  1  0  0  0  0
 22 20  1  0  0  0  0
 23 25  1  0  0  0  0
 23  1  1  0  0  0  0
 24 23  1  0  0  0  0
 26 27  1  0  0  0  0
 26 34  1  0  0  0  0
 27 23  1  0  0  0  0
 28 27  2  0  0  0  0
 29 28  1  0  0  0  0
 30 29  2  0  0  0  0
 30 31  1  0  0  0  0
 31 26  2  0  0  0  0
 32 28  1  0  0  0  0
 33 30  1  0  0  0  0
 34 36  1  0  0  0  0
 34 37  1  0  0  0  0
 35 34  1  0  0  0  0
 35 36  1  0  0  0  0
 35 39  1  0  0  0  0
 36 41  1  0  0  0  0
 38 35  1  0  0  0  0
 40 36  1  0  0  0  0
M  END
>  <minimizedAffinity>
-5.68593407

$$$$

 OpenBabel03272508223D

 41 44  0  0  0  0  0  0  0  0999 V2000
   37.4890   26.3970   31.3200 C   0  0  0  0  0  0  0  0  0  0  0  0
   37.3220   25.3860   30.8760 H   0  0  0  0  0  0  0  0  0  0  0  0
   38.2120   26.8740   30.5920 H   0  0  0  0  0  0  0  0  0  0  0  0
   37.0500   24.0830   32.7850 F   0  0  0  0  0  0  0  0  0  0  0  0
   37.8960   25.0550   33.2340 C   0  0  0  0  0  0  0  0  0  0  0  0
   38.1650   26.2560   32.5650 C   0  0  0  0  0  0  0  0  0  0  0  0
   39.0160   27.1020   33.1910 C   0  0  0  0  0  0  0  0  0  0  0  0
   39.6020   26.8400   34.3890 C   0  0  0  0  0  0  0  0  0  0  0  0
   39.3310   25.6500   35.0390 C   0  0  0  0  0  0  0  0  0  0  0  0
   38.4570   24.7470   34.4440 C   0  0  0  0  0  0  0  0  0  0  0  0
   39.2640   28.0700   32.8750 H   0  0  0  0  0  0  0  0  0  0  0  0
   40.3020   27.4860   34.9400 H   0  0  0  0  0  0  0  0  0  0  0  0
   39.7890   25.3990   36.0130 H   0  0  0  0  0  0  0  0  0  0  0  0
   38.2200   23.5730   35.1670 O   0  0  0  0  0  0  0  0  0  0  0  0
   38.3900   23.5190   36.5440 C   0  0  0  0  0  0  0  0  0  0  0  0
   37.8210   24.0540   37.7000 C   0  0  0  0  0  0  0  0  0  0  0  0
   36.9890   24.7190   37.5200 H   0  0  0  0  0  0  0  0  0  0  0  0
   38.5450   23.5310   38.7520 C   0  0  0  0  0  0  0  0  0  0  0  0
   38.2530   23.8290   39.7450 H   0  0  0  0  0  0  0  0  0  0  0  0
   39.4940   22.7280   38.2590 N   0  0  0  0  0  0  0  0  0  0  0  0
   40.1730   22.2150   38.8930 H   0  0  0  0  0  0  0  0  0  0  0  0
   39.4120   22.7130   36.9400 N   0  0  0  0  0  0  0  0  0  0  0  0
   36.2700   27.2350   31.2930 C   0  0  0  0  0  0  0  0  0  0  0  0
   35.6420   26.8560   30.4250 H   0  0  0  0  0  0  0  0  0  0  0  0
   35.6220   27.0280   32.1690 H   0  0  0  0  0  0  0  0  0  0  0  0
   36.1670   29.5520   32.0930 C   0  0  0  0  0  0  0  0  0  0  0  0
   36.4360   28.6410   31.1090 C   0  0  0  0  0  0  0  0  0  0  0  0
   36.8090   29.2160   29.9390 C   0  0  0  0  0  0  0  0  0  0  0  0
   36.9060   30.5350   29.7530 N   0  0  0  0  0  0  0  0  0  0  0  0
   36.6420   31.4100   30.7030 C   0  0  0  0  0  0  0  0  0  0  0  0
   36.2690   30.9320   31.8890 N   0  0  0  0  0  0  0  0  0  0  0  0
   37.0600   28.6130   29.0520 H   0  0  0  0  0  0  0  0  0  0  0  0
   36.6720   32.4910   30.7100 H   0  0  0  0  0  0  0  0  0  0  0  0
   35.8910   29.1020   33.5290 C   0  0  0  0  0  0  0  0  0  0  0  0
   35.5700   29.9800   34.5520 C   0  0  0  0  0  0  0  0  0  0  0  0
   34.3610   29.4390   33.8000 C   0  0  0  0  0  0  0  0  0  0  0  0
   36.0730   28.0900   33.7770 H   0  0  0  0  0  0  0  0  0  0  0  0
   35.7750   31.0840   34.4000 H   0  0  0  0  0  0  0  0  0  0  0  0
   35.6010   29.7370   35.6120 H   0  0  0  0  0  0  0  0  0  0  0  0
   33.8680   30.1400   33.1420 H   0  0  0  0  0  0  0  0  0  0  0  0
   33.8030   28.6030   34.2610 H   0  0  0  0  0  0  0  0  0  0  0  0
  1  6  1  0  0  0  0
  2  1  1  0  0  0  0
  3  1  1  0  0  0  0
  4  5  1  0  0  0  0
  5 10  1  0  0  0  0
  6  7  1  0  0  0  0
  6  5  2  0  0  0  0
  7  8  2  0  0  0  0
  8 12  1  0  0  0  0
  8  9  1  0  0  0  0
  9 13  1  0  0  0  0
 10  9  2  0  0  0  0
 10 14  1  0  0  0  0
 11  7  1  0  0  0  0
 14 15  1  0  0  0  0
 15 22  2  0  0  0  0
 15 16  1  0  0  0  0
 16 18  2  0  0  0  0
 17 16  1  0  0  0  0
 18 19  1  0  0  0  0
 20 18  1  0  0  0  0
 20 21  1  0  0  0  0
 22 20  1  0  0  0  0
 23  1  1  0  0  0  0
 23 25  1  0  0  0  0
 24 23  1  0  0  0  0
 26 34  1  0  0  0  0
 27 23  1  0  0  0  0
 27 26  2  0  0  0  0
 28 27  1  0  0  0  0
 29 28  2  0  0  0  0
 29 30  1  0  0  0  0
 30 33  1  0  0  0  0
 30 31  2  0  0  0  0
 31 26  1  0  0  0  0
 32 28  1  0  0  0  0
 34 37  1  0  0  0  0
 34 36  1  0  0  0  0
 34 35  1  0  0  0  0
 35 39  1  0  0  0  0
 36 41  1  0  0  0  0
 36 35  1  0  0  0  0
 38 35  1  0  0  0  0
 40 36  1  0  0  0  0
M  END
>  <minimizedAffinity>
-5.62463284

$$$$

 OpenBabel03272508223D

 41 44  0  0  0  0  0  0  0  0999 V2000
   39.8420   26.7700   32.6710 C   0  0  0  0  0  0  0  0  0  0  0  0
   40.3900   25.8690   32.3040 H   0  0  0  0  0  0  0  0  0  0  0  0
   40.6700   27.5310   32.8020 H   0  0  0  0  0  0  0  0  0  0  0  0
   39.5980   24.1180   33.4460 F   0  0  0  0  0  0  0  0  0  0  0  0
   39.2270   25.1340   34.2770 C   0  0  0  0  0  0  0  0  0  0  0  0
   39.3050   26.4960   33.9620 C   0  0  0  0  0  0  0  0  0  0  0  0
   38.8610   27.3480   34.9160 C   0  0  0  0  0  0  0  0  0  0  0  0
   38.3720   26.9520   36.1190 C   0  0  0  0  0  0  0  0  0  0  0  0
   38.3010   25.6040   36.4200 C   0  0  0  0  0  0  0  0  0  0  0  0
   38.7360   24.6830   35.4730 C   0  0  0  0  0  0  0  0  0  0  0  0
   38.7730   28.3890   34.8180 H   0  0  0  0  0  0  0  0  0  0  0  0
   38.0020   27.5970   36.9310 H   0  0  0  0  0  0  0  0  0  0  0  0
   37.9110   25.2410   37.3880 H   0  0  0  0  0  0  0  0  0  0  0  0
   38.6210   23.3390   35.8410 O   0  0  0  0  0  0  0  0  0  0  0  0
   39.7120   22.6150   36.3030 C   0  0  0  0  0  0  0  0  0  0  0  0
   40.8650   22.0080   35.8040 C   0  0  0  0  0  0  0  0  0  0  0  0
   40.9910   22.1050   34.7360 H   0  0  0  0  0  0  0  0  0  0  0  0
   41.5000   21.4530   36.8960 C   0  0  0  0  0  0  0  0  0  0  0  0
   42.4250   20.9310   36.7120 H   0  0  0  0  0  0  0  0  0  0  0  0
   40.7730   21.7090   37.9880 N   0  0  0  0  0  0  0  0  0  0  0  0
   41.0760   21.3740   38.9480 H   0  0  0  0  0  0  0  0  0  0  0  0
   39.7020   22.4030   37.6480 N   0  0  0  0  0  0  0  0  0  0  0  0
   38.9270   27.3310   31.6530 C   0  0  0  0  0  0  0  0  0  0  0  0
   38.6250   28.3600   32.0290 H   0  0  0  0  0  0  0  0  0  0  0  0
   39.4680   27.5650   30.7140 H   0  0  0  0  0  0  0  0  0  0  0  0
   36.4810   27.1530   31.5660 C   0  0  0  0  0  0  0  0  0  0  0  0
   37.7240   26.6140   31.3770 C   0  0  0  0  0  0  0  0  0  0  0  0
   37.6860   25.3220   30.9670 C   0  0  0  0  0  0  0  0  0  0  0  0
   36.5580   24.6360   30.7660 N   0  0  0  0  0  0  0  0  0  0  0  0
   35.3630   25.1580   30.9530 C   0  0  0  0  0  0  0  0  0  0  0  0
   35.3050   26.4270   31.3560 N   0  0  0  0  0  0  0  0  0  0  0  0
   38.6060   24.7500   30.7690 H   0  0  0  0  0  0  0  0  0  0  0  0
   34.3710   24.7410   30.8370 H   0  0  0  0  0  0  0  0  0  0  0  0
   36.3080   28.6430   31.8680 C   0  0  0  0  0  0  0  0  0  0  0  0
   35.1050   29.2020   32.2700 C   0  0  0  0  0  0  0  0  0  0  0  0
   35.9850   28.7330   33.4230 C   0  0  0  0  0  0  0  0  0  0  0  0
   37.1110   29.2940   31.6420 H   0  0  0  0  0  0  0  0  0  0  0  0
   34.1550   28.6040   32.1180 H   0  0  0  0  0  0  0  0  0  0  0  0
   34.8810   30.2670   32.2630 H   0  0  0  0  0  0  0  0  0  0  0  0
   35.6540   27.8380   33.9280 H   0  0  0  0  0  0  0  0  0  0  0  0
   36.5850   29.4960   33.9510 H   0  0  0  0  0  0  0  0  0  0  0  0
  1  3  1  0  0  0  0
  1  6  1  0  0  0  0
  2  1  1  0  0  0  0
  4  5  1  0  0  0  0
  5 10  1  0  0  0  0
  6  5  2  0  0  0  0
  6  7  1  0  0  0  0
  7  8  2  0  0  0  0
  8  9  1  0  0  0  0
  8 12  1  0  0  0  0
  9 13  1  0  0  0  0
 10 14  1  0  0  0  0
 10  9  2  0  0  0  0
 11  7  1  0  0  0  0
 14 15  1  0  0  0  0
 15 22  2  0  0  0  0
 16 15  1  0  0  0  0
 16 18  2  0  0  0  0
 17 16  1  0  0  0  0
 18 20  1  0  0  0  0
 19 18  1  0  0  0  0
 20 21  1  0  0  0  0
 22 20  1  0  0  0  0
 23 24  1  0  0  0  0
 23  1  1  0  0  0  0
 25 23  1  0  0  0  0
 26 34  1  0  0  0  0
 27 26  1  0  0  0  0
 27 23  1  0  0  0  0
 28 27  2  0  0  0  0
 29 30  2  0  0  0  0
 29 28  1  0  0  0  0
 30 31  1  0  0  0  0
 31 26  2  0  0  0  0
 32 28  1  0  0  0  0
 33 30  1  0  0  0  0
 34 35  1  0  0  0  0
 34 36  1  0  0  0  0
 35 36  1  0  0  0  0
 36 40  1  0  0  0  0
 36 41  1  0  0  0  0
 37 34  1  0  0  0  0
 38 35  1  0  0  0  0
 39 35  1  0  0  0  0
M  END
>  <minimizedAffinity>
-5.61170769

$$$$

 OpenBabel03272508223D

 41 44  0  0  0  0  0  0  0  0999 V2000
   40.8890   25.8090   34.8170 C   0  0  0  0  0  0  0  0  0  0  0  0
   41.6620   26.4680   35.2810 H   0  0  0  0  0  0  0  0  0  0  0  0
   41.2520   25.7110   33.7500 H   0  0  0  0  0  0  0  0  0  0  0  0
   39.4880   25.8570   32.4240 F   0  0  0  0  0  0  0  0  0  0  0  0
   38.9980   26.4660   33.5430 C   0  0  0  0  0  0  0  0  0  0  0  0
   39.6440   26.5000   34.7840 C   0  0  0  0  0  0  0  0  0  0  0  0
   39.0020   27.1790   35.7640 C   0  0  0  0  0  0  0  0  0  0  0  0
   37.8040   27.7960   35.6000 C   0  0  0  0  0  0  0  0  0  0  0  0
   37.1740   27.7540   34.3690 C   0  0  0  0  0  0  0  0  0  0  0  0
   37.7920   27.0760   33.3250 C   0  0  0  0  0  0  0  0  0  0  0  0
   39.3760   27.3710   36.7250 H   0  0  0  0  0  0  0  0  0  0  0  0
   37.2360   28.3560   36.3580 H   0  0  0  0  0  0  0  0  0  0  0  0
   36.1980   28.2410   34.1960 H   0  0  0  0  0  0  0  0  0  0  0  0
   37.1040   27.0890   32.1070 O   0  0  0  0  0  0  0  0  0  0  0  0
   36.3880   25.9850   31.6640 C   0  0  0  0  0  0  0  0  0  0  0  0
   36.3550   24.6030   31.8500 C   0  0  0  0  0  0  0  0  0  0  0  0
   37.0950   24.2300   32.5440 H   0  0  0  0  0  0  0  0  0  0  0  0
   35.3340   24.1390   31.0460 C   0  0  0  0  0  0  0  0  0  0  0  0
   35.1490   23.0780   31.0520 H   0  0  0  0  0  0  0  0  0  0  0  0
   34.7840   25.1800   30.4120 N   0  0  0  0  0  0  0  0  0  0  0  0
   33.9750   25.0550   29.7370 H   0  0  0  0  0  0  0  0  0  0  0  0
   35.4050   26.2890   30.7730 N   0  0  0  0  0  0  0  0  0  0  0  0
   40.8990   24.4410   35.3800 C   0  0  0  0  0  0  0  0  0  0  0  0
   41.8680   23.9600   35.0320 H   0  0  0  0  0  0  0  0  0  0  0  0
   41.0210   24.4620   36.4820 H   0  0  0  0  0  0  0  0  0  0  0  0
   38.8070   23.2480   35.8500 C   0  0  0  0  0  0  0  0  0  0  0  0
   39.8370   23.5630   35.0070 C   0  0  0  0  0  0  0  0  0  0  0  0
   39.7720   22.9080   33.8220 C   0  0  0  0  0  0  0  0  0  0  0  0
   38.8090   22.0420   33.4980 N   0  0  0  0  0  0  0  0  0  0  0  0
   37.8200   21.7390   34.3150 C   0  0  0  0  0  0  0  0  0  0  0  0
   37.8030   22.3380   35.5050 N   0  0  0  0  0  0  0  0  0  0  0  0
   40.5300   23.0570   33.0360 H   0  0  0  0  0  0  0  0  0  0  0  0
   36.9780   21.0680   34.2040 H   0  0  0  0  0  0  0  0  0  0  0  0
   38.6090   24.0020   37.1660 C   0  0  0  0  0  0  0  0  0  0  0  0
   37.8110   23.5340   38.1980 C   0  0  0  0  0  0  0  0  0  0  0  0
   39.2640   23.0870   38.2900 C   0  0  0  0  0  0  0  0  0  0  0  0
   39.0020   24.9810   37.2440 H   0  0  0  0  0  0  0  0  0  0  0  0
   37.0680   22.7070   37.9730 H   0  0  0  0  0  0  0  0  0  0  0  0
   37.4580   24.1350   39.0340 H   0  0  0  0  0  0  0  0  0  0  0  0
   39.4490   22.0480   38.0590 H   0  0  0  0  0  0  0  0  0  0  0  0
   39.9280   23.6430   38.9760 H   0  0  0  0  0  0  0  0  0  0  0  0
  1  2  1  0  0  0  0
  1 23  1  0  0  0  0
  3  1  1  0  0  0  0
  4  5  1  0  0  0  0
  5  6  1  0  0  0  0
  6  1  1  0  0  0  0
  6  7  2  0  0  0  0
  7 11  1  0  0  0  0
  8  7  1  0  0  0  0
  8 12  1  0  0  0  0
  9  8  2  0  0  0  0
 10  5  2  0  0  0  0
 10  9  1  0  0  0  0
 13  9  1  0  0  0  0
 14 10  1  0  0  0  0
 15 16  1  0  0  0  0
 15 14  1  0  0  0  0
 16 17  1  0  0  0  0
 18 19  1  0  0  0  0
 18 16  2  0  0  0  0
 20 22  1  0  0  0  0
 20 18  1  0  0  0  0
 21 20  1  0  0  0  0
 22 15  2  0  0  0  0
 23 25  1  0  0  0  0
 24 23  1  0  0  0  0
 26 34  1  0  0  0  0
 27 23  1  0  0  0  0
 27 26  2  0  0  0  0
 28 27  1  0  0  0  0
 29 28  2  0  0  0  0
 29 30  1  0  0  0  0
 30 31  2  0  0  0  0
 31 26  1  0  0  0  0
 32 28  1  0  0  0  0
 33 30  1  0  0  0  0
 34 37  1  0  0  0  0
 34 35  1  0  0  0  0
 34 36  1  0  0  0  0
 35 36  1  0  0  0  0
 35 39  1  0  0  0  0
 36 41  1  0  0  0  0
 38 35  1  0  0  0  0
 40 36  1  0  0  0  0
M  END
>  <minimizedAffinity>
-5.59077454

$$$$

 OpenBabel03272508223D

 41 44  0  0  0  0  0  0  0  0999 V2000
   36.8220   28.5980   34.4060 C   0  0  0  0  0  0  0  0  0  0  0  0
   37.6370   29.2850   34.0710 H   0  0  0  0  0  0  0  0  0  0  0  0
   36.9040   28.6430   35.5340 H   0  0  0  0  0  0  0  0  0  0  0  0
   38.5790   27.1460   35.9880 F   0  0  0  0  0  0  0  0  0  0  0  0
   38.0230   26.6030   34.8660 C   0  0  0  0  0  0  0  0  0  0  0  0
   37.1390   27.2680   34.0070 C   0  0  0  0  0  0  0  0  0  0  0  0
   36.7200   26.5610   32.9310 C   0  0  0  0  0  0  0  0  0  0  0  0
   37.1000   25.2840   32.6670 C   0  0  0  0  0  0  0  0  0  0  0  0
   37.9720   24.6370   33.5230 C   0  0  0  0  0  0  0  0  0  0  0  0
   38.4400   25.3190   34.6410 C   0  0  0  0  0  0  0  0  0  0  0  0
   36.1240   26.9270   32.1490 H   0  0  0  0  0  0  0  0  0  0  0  0
   36.7890   24.6620   31.8140 H   0  0  0  0  0  0  0  0  0  0  0  0
   38.3030   23.5980   33.3450 H   0  0  0  0  0  0  0  0  0  0  0  0
   39.3290   24.6070   35.4530 O   0  0  0  0  0  0  0  0  0  0  0  0
   38.9290   24.0590   36.6650 C   0  0  0  0  0  0  0  0  0  0  0  0
   37.9200   24.2180   37.6140 C   0  0  0  0  0  0  0  0  0  0  0  0
   37.2060   24.9930   37.3770 H   0  0  0  0  0  0  0  0  0  0  0  0
   38.1770   23.2840   38.5960 C   0  0  0  0  0  0  0  0  0  0  0  0
   37.4960   23.2500   39.4300 H   0  0  0  0  0  0  0  0  0  0  0  0
   39.2770   22.6030   38.2600 N   0  0  0  0  0  0  0  0  0  0  0  0
   39.6610   21.8290   38.8750 H   0  0  0  0  0  0  0  0  0  0  0  0
   39.7360   23.0560   37.1070 N   0  0  0  0  0  0  0  0  0  0  0  0
   35.4750   29.1100   34.0720 C   0  0  0  0  0  0  0  0  0  0  0  0
   35.5410   29.5120   33.0120 H   0  0  0  0  0  0  0  0  0  0  0  0
   34.7440   28.2820   33.9730 H   0  0  0  0  0  0  0  0  0  0  0  0
   33.6030   30.3970   34.9990 C   0  0  0  0  0  0  0  0  0  0  0  0
   34.9440   30.1570   34.8860 C   0  0  0  0  0  0  0  0  0  0  0  0
   35.7040   31.0490   35.5670 C   0  0  0  0  0  0  0  0  0  0  0  0
   35.2060   32.0630   36.2800 N   0  0  0  0  0  0  0  0  0  0  0  0
   33.9120   32.2930   36.3840 C   0  0  0  0  0  0  0  0  0  0  0  0
   33.0890   31.4620   35.7460 N   0  0  0  0  0  0  0  0  0  0  0  0
   36.8040   30.9870   35.5750 H   0  0  0  0  0  0  0  0  0  0  0  0
   33.3600   33.0590   36.9130 H   0  0  0  0  0  0  0  0  0  0  0  0
   32.5770   29.4080   34.4420 C   0  0  0  0  0  0  0  0  0  0  0  0
   31.2330   29.7120   34.2920 C   0  0  0  0  0  0  0  0  0  0  0  0
   32.0790   30.0340   33.0670 C   0  0  0  0  0  0  0  0  0  0  0  0
   32.8850   28.4100   34.2770 H   0  0  0  0  0  0  0  0  0  0  0  0
   30.8190   30.6140   34.8390 H   0  0  0  0  0  0  0  0  0  0  0  0
   30.4440   28.9800   34.1300 H   0  0  0  0  0  0  0  0  0  0  0  0
   32.2610   31.0840   32.8880 H   0  0  0  0  0  0  0  0  0  0  0  0
   32.0700   29.3090   32.2330 H   0  0  0  0  0  0  0  0  0  0  0  0
  1  3  1  0  0  0  0
  2  1  1  0  0  0  0
  5  4  1  0  0  0  0
  6  1  1  0  0  0  0
  6  5  2  0  0  0  0
  7  6  1  0  0  0  0
  8  7  2  0  0  0  0
  8  9  1  0  0  0  0
  9 10  2  0  0  0  0
 10  5  1  0  0  0  0
 10 14  1  0  0  0  0
 11  7  1  0  0  0  0
 12  8  1  0  0  0  0
 13  9  1  0  0  0  0
 14 15  1  0  0  0  0
 15 22  2  0  0  0  0
 15 16  1  0  0  0  0
 16 18  2  0  0  0  0
 17 16  1  0  0  0  0
 18 19  1  0  0  0  0
 20 18  1  0  0  0  0
 20 21  1  0  0  0  0
 22 20  1  0  0  0  0
 23  1  1  0  0  0  0
 23 27  1  0  0  0  0
 24 23  1  0  0  0  0
 25 23  1  0  0  0  0
 26 31  1  0  0  0  0
 27 26  2  0  0  0  0
 27 28  1  0  0  0  0
 28 32  1  0  0  0  0
 28 29  2  0  0  0  0
 29 30  1  0  0  0  0
 30 33  1  0  0  0  0
 31 30  2  0  0  0  0
 34 26  1  0  0  0  0
 35 34  1  0  0  0  0
 35 38  1  0  0  0  0
 36 35  1  0  0  0  0
 36 34  1  0  0  0  0
 37 34  1  0  0  0  0
 39 35  1  0  0  0  0
 40 36  1  0  0  0  0
 41 36  1  0  0  0  0
M  END
>  <minimizedAffinity>
-5.55556059

$$$$

 OpenBabel03272508223D

 41 44  0  0  0  0  0  0  0  0999 V2000
   40.4340   25.5560   34.3980 C   0  0  0  0  0  0  0  0  0  0  0  0
   41.3610   26.1600   34.5520 H   0  0  0  0  0  0  0  0  0  0  0  0
   40.4800   25.3050   33.2950 H   0  0  0  0  0  0  0  0  0  0  0  0
   38.5920   25.7710   32.3350 F   0  0  0  0  0  0  0  0  0  0  0  0
   38.4120   26.4300   33.5160 C   0  0  0  0  0  0  0  0  0  0  0  0
   39.2960   26.3870   34.6010 C   0  0  0  0  0  0  0  0  0  0  0  0
   38.9480   27.1350   35.6750 C   0  0  0  0  0  0  0  0  0  0  0  0
   37.8200   27.8870   35.7420 C   0  0  0  0  0  0  0  0  0  0  0  0
   36.9530   27.9220   34.6640 C   0  0  0  0  0  0  0  0  0  0  0  0
   37.2650   27.1780   33.5320 C   0  0  0  0  0  0  0  0  0  0  0  0
   39.5280   27.2810   36.5360 H   0  0  0  0  0  0  0  0  0  0  0  0
   37.4850   28.5090   36.5860 H   0  0  0  0  0  0  0  0  0  0  0  0
   36.0240   28.5190   34.6800 H   0  0  0  0  0  0  0  0  0  0  0  0
   36.3510   27.2720   32.4770 O   0  0  0  0  0  0  0  0  0  0  0  0
   36.5690   28.1210   31.3990 C   0  0  0  0  0  0  0  0  0  0  0  0
   36.7010   29.4840   31.1370 C   0  0  0  0  0  0  0  0  0  0  0  0
   36.6140   30.1140   32.0110 H   0  0  0  0  0  0  0  0  0  0  0  0
   36.9080   29.5880   29.7780 C   0  0  0  0  0  0  0  0  0  0  0  0
   37.0360   30.5790   29.3750 H   0  0  0  0  0  0  0  0  0  0  0  0
   36.9020   28.3590   29.2500 N   0  0  0  0  0  0  0  0  0  0  0  0
   37.0450   28.2000   28.2110 H   0  0  0  0  0  0  0  0  0  0  0  0
   36.7000   27.4730   30.2090 N   0  0  0  0  0  0  0  0  0  0  0  0
   40.4750   24.2620   35.1140 C   0  0  0  0  0  0  0  0  0  0  0  0
   41.3950   23.7150   34.7320 H   0  0  0  0  0  0  0  0  0  0  0  0
   40.7070   24.4060   36.1890 H   0  0  0  0  0  0  0  0  0  0  0  0
   38.4800   23.1110   35.9590 C   0  0  0  0  0  0  0  0  0  0  0  0
   39.3640   23.3800   34.9520 C   0  0  0  0  0  0  0  0  0  0  0  0
   39.1120   22.6750   33.8210 C   0  0  0  0  0  0  0  0  0  0  0  0
   38.1070   21.8060   33.6920 N   0  0  0  0  0  0  0  0  0  0  0  0
   37.2580   21.5470   34.6660 C   0  0  0  0  0  0  0  0  0  0  0  0
   37.4310   22.1970   35.8170 N   0  0  0  0  0  0  0  0  0  0  0  0
   39.7370   22.7830   32.9200 H   0  0  0  0  0  0  0  0  0  0  0  0
   36.4080   20.8810   34.7190 H   0  0  0  0  0  0  0  0  0  0  0  0
   38.4940   23.9230   37.2560 C   0  0  0  0  0  0  0  0  0  0  0  0
   37.8800   23.5000   38.4240 C   0  0  0  0  0  0  0  0  0  0  0  0
   39.3330   23.0600   38.2960 C   0  0  0  0  0  0  0  0  0  0  0  0
   38.8860   24.9050   37.2240 H   0  0  0  0  0  0  0  0  0  0  0  0
   37.1180   22.6640   38.3610 H   0  0  0  0  0  0  0  0  0  0  0  0
   37.6640   24.1380   39.2790 H   0  0  0  0  0  0  0  0  0  0  0  0
   39.4860   22.0120   38.0830 H   0  0  0  0  0  0  0  0  0  0  0  0
   40.0960   23.6470   38.8380 H   0  0  0  0  0  0  0  0  0  0  0  0
  1  2  1  0  0  0  0
  1  6  1  0  0  0  0
  1 23  1  0  0  0  0
  3  1  1  0  0  0  0
  4  5  1  0  0  0  0
  5 10  2  0  0  0  0
  5  6  1  0  0  0  0
  6  7  2  0  0  0  0
  7  8  1  0  0  0  0
  7 11  1  0  0  0  0
  8 12  1  0  0  0  0
  9 13  1  0  0  0  0
  9  8  2  0  0  0  0
 10  9  1  0  0  0  0
 14 10  1  0  0  0  0
 15 14  1  0  0  0  0
 16 15  1  0  0  0  0
 16 17  1  0  0  0  0
 18 16  2  0  0  0  0
 19 18  1  0  0  0  0
 20 18  1  0  0  0  0
 20 22  1  0  0  0  0
 21 20  1  0  0  0  0
 22 15  2  0  0  0  0
 23 25  1  0  0  0  0
 24 23  1  0  0  0  0
 26 34  1  0  0  0  0
 27 23  1  0  0  0  0
 27 26  2  0  0  0  0
 28 27  1  0  0  0  0
 29 28  2  0  0  0  0
 29 30  1  0  0  0  0
 30 33  1  0  0  0  0
 30 31  2  0  0  0  0
 31 26  1  0  0  0  0
 32 28  1  0  0  0  0
 34 36  1  0  0  0  0
 34 35  1  0  0  0  0
 35 39  1  0  0  0  0
 36 35  1  0  0  0  0
 36 41  1  0  0  0  0
 37 34  1  0  0  0  0
 38 35  1  0  0  0  0
 40 36  1  0  0  0  0
M  END
>  <minimizedAffinity>
-5.53835773

$$$$
