
 OpenBabel03272508023D

 27 29  0  0  0  0  0  0  0  0999 V2000
   38.3840   31.9210   47.4020 C   0  0  0  0  0  0  0  0  0  0  0  0
   38.5370   32.8510   48.3910 C   0  0  0  0  0  0  0  0  0  0  0  0
   37.7140   32.5520   49.4750 C   0  0  0  0  0  0  0  0  0  0  0  0
   37.0810   31.4200   49.0810 N   0  0  0  0  0  0  0  0  0  0  0  0
   37.4670   31.0420   47.8670 N   0  0  0  0  0  0  0  0  0  0  0  0
   39.1820   33.7200   48.4050 H   0  0  0  0  0  0  0  0  0  0  0  0
   37.5270   32.9940   50.4180 H   0  0  0  0  0  0  0  0  0  0  0  0
   36.1090   30.5800   49.7010 C   0  0  0  0  0  0  0  0  0  0  0  0
   36.1330   29.6180   50.7010 C   0  0  0  0  0  0  0  0  0  0  0  0
   37.0700   29.3970   51.1700 H   0  0  0  0  0  0  0  0  0  0  0  0
   34.8250   29.1910   50.8090 C   0  0  0  0  0  0  0  0  0  0  0  0
   34.5780   28.4150   51.5490 H   0  0  0  0  0  0  0  0  0  0  0  0
   34.0390   29.8450   49.9320 N   0  0  0  0  0  0  0  0  0  0  0  0
   33.0100   29.6910   49.8290 H   0  0  0  0  0  0  0  0  0  0  0  0
   34.8290   30.6900   49.2590 N   0  0  0  0  0  0  0  0  0  0  0  0
   39.0660   31.8790   46.1080 C   0  0  0  0  0  0  0  0  0  0  0  0
   38.3470   32.3210   44.9680 C   0  0  0  0  0  0  0  0  0  0  0  0
   38.9810   32.2870   43.7330 C   0  0  0  0  0  0  0  0  0  0  0  0
   40.2700   31.8220   43.7000 N   0  0  0  0  0  0  0  0  0  0  0  0
   40.9290   31.4080   44.7950 C   0  0  0  0  0  0  0  0  0  0  0  0
   40.3110   31.4430   45.9980 N   0  0  0  0  0  0  0  0  0  0  0  0
   37.3190   32.6780   45.0790 H   0  0  0  0  0  0  0  0  0  0  0  0
   41.9370   31.0460   44.7680 H   0  0  0  0  0  0  0  0  0  0  0  0
   38.2500   32.7440   42.5260 C   0  0  0  0  0  0  0  0  0  0  0  0
   38.9620   33.8060   42.0340 F   0  0  0  0  0  0  0  0  0  0  0  0
   38.1760   31.7540   41.5470 F   0  0  0  0  0  0  0  0  0  0  0  0
   36.9630   33.1790   42.8380 F   0  0  0  0  0  0  0  0  0  0  0  0
  1  5  2  0  0  0  0
  1  2  1  0  0  0  0
  2  6  1  0  0  0  0
  2  3  2  0  0  0  0
  3  7  1  0  0  0  0
  4  3  1  0  0  0  0
  4  8  1  0  0  0  0
  5  4  1  0  0  0  0
  8  9  1  0  0  0  0
  9 11  2  0  0  0  0
  9 10  1  0  0  0  0
 11 12  1  0  0  0  0
 13 11  1  0  0  0  0
 14 13  1  0  0  0  0
 15  8  2  0  0  0  0
 15 13  1  0  0  0  0
 16  1  1  0  0  0  0
 17 22  1  0  0  0  0
 17 16  2  0  0  0  0
 18 17  1  0  0  0  0
 19 18  2  0  0  0  0
 19 20  1  0  0  0  0
 20 21  2  0  0  0  0
 21 16  1  0  0  0  0
 23 20  1  0  0  0  0
 24 27  1  0  0  0  0
 24 18  1  0  0  0  0
 25 24  1  0  0  0  0
 26 24  1  0  0  0  0
M  END
>  <minimizedAffinity>
-6.11587334

>  <minimizedRMSD>
7.30501175

$$$$
