
 OpenBabel03262523593D

 28 30  0  0  0  0  0  0  0  0999 V2000
   35.7100   30.6230   48.9050 C   0  0  0  0  0  0  0  0  0  0  0  0
   36.8400   30.7180   48.0690 C   0  0  0  0  0  0  0  0  0  0  0  0
   36.6640   30.4600   46.7220 C   0  0  0  0  0  0  0  0  0  0  0  0
   35.4150   30.1250   46.2570 N   0  0  0  0  0  0  0  0  0  0  0  0
   34.3560   30.0460   47.1040 C   0  0  0  0  0  0  0  0  0  0  0  0
   34.5000   30.2950   48.4320 N   0  0  0  0  0  0  0  0  0  0  0  0
   35.7780   30.8120   49.9610 H   0  0  0  0  0  0  0  0  0  0  0  0
   37.5200   30.5310   46.0850 H   0  0  0  0  0  0  0  0  0  0  0  0
   33.5440   27.0930   47.7170 Br  0  0  0  0  0  0  0  0  0  0  0  0
   32.5180   28.4190   46.8190 C   0  0  0  0  0  0  0  0  0  0  0  0
   33.0240   29.6920   46.6260 C   0  0  0  0  0  0  0  0  0  0  0  0
   32.2140   30.5900   45.9670 C   0  0  0  0  0  0  0  0  0  0  0  0
   30.9490   30.3110   45.4940 C   0  0  0  0  0  0  0  0  0  0  0  0
   30.4890   29.0130   45.7170 C   0  0  0  0  0  0  0  0  0  0  0  0
   31.2860   28.0740   46.3840 C   0  0  0  0  0  0  0  0  0  0  0  0
   32.6240   31.5960   45.8180 H   0  0  0  0  0  0  0  0  0  0  0  0
   30.3510   31.0530   44.9820 H   0  0  0  0  0  0  0  0  0  0  0  0
   29.4980   28.7370   45.3660 H   0  0  0  0  0  0  0  0  0  0  0  0
   30.8480   27.0960   46.5110 H   0  0  0  0  0  0  0  0  0  0  0  0
   38.0580   31.0560   48.5920 O   0  0  0  0  0  0  0  0  0  0  0  0
   38.6990   32.2450   48.3540 C   0  0  0  0  0  0  0  0  0  0  0  0
   38.7540   33.0860   49.4720 C   0  0  0  0  0  0  0  0  0  0  0  0
   38.4190   33.0480   50.5020 H   0  0  0  0  0  0  0  0  0  0  0  0
   39.4270   34.2560   49.1060 C   0  0  0  0  0  0  0  0  0  0  0  0
   39.6810   35.1500   49.6620 H   0  0  0  0  0  0  0  0  0  0  0  0
   39.7490   34.0870   47.7980 N   0  0  0  0  0  0  0  0  0  0  0  0
   40.2530   34.7130   47.1330 H   0  0  0  0  0  0  0  0  0  0  0  0
   39.3230   32.9120   47.3630 N   0  0  0  0  0  0  0  0  0  0  0  0
  1  7  1  0  0  0  0
  2 20  1  0  0  0  0
  2  1  2  0  0  0  0
  3  2  1  0  0  0  0
  4  3  2  0  0  0  0
  4  5  1  0  0  0  0
  5  6  2  0  0  0  0
  6  1  1  0  0  0  0
  8  3  1  0  0  0  0
 10  9  1  0  0  0  0
 11 10  1  0  0  0  0
 11  5  1  0  0  0  0
 12 11  2  0  0  0  0
 13 14  2  0  0  0  0
 13 12  1  0  0  0  0
 14 15  1  0  0  0  0
 15 19  1  0  0  0  0
 15 10  2  0  0  0  0
 16 12  1  0  0  0  0
 17 13  1  0  0  0  0
 18 14  1  0  0  0  0
 21 20  1  0  0  0  0
 21 22  1  0  0  0  0
 22 23  1  0  0  0  0
 24 22  2  0  0  0  0
 24 25  1  0  0  0  0
 26 24  1  0  0  0  0
 27 26  1  0  0  0  0
 28 26  1  0  0  0  0
 28 21  2  0  0  0  0
M  END
>  <minimizedAffinity>
-5.12775087

>  <minimizedRMSD>
3.83363461

$$$$
