
 OpenBabel03272505023D

 28 30  0  0  0  0  0  0  0  0999 V2000
   38.2990   30.3940   47.0140 Cl  0  0  0  0  0  0  0  0  0  0  0  0
   38.7080   31.8930   47.8320 C   0  0  0  0  0  0  0  0  0  0  0  0
   38.2070   32.1180   49.0850 C   0  0  0  0  0  0  0  0  0  0  0  0
   38.5720   33.3140   49.6620 C   0  0  0  0  0  0  0  0  0  0  0  0
   39.3980   34.2020   48.9810 C   0  0  0  0  0  0  0  0  0  0  0  0
   39.8720   33.9260   47.7270 C   0  0  0  0  0  0  0  0  0  0  0  0
   39.5140   32.7260   47.1280 C   0  0  0  0  0  0  0  0  0  0  0  0
   38.2430   33.6120   50.6500 H   0  0  0  0  0  0  0  0  0  0  0  0
   39.6810   35.1450   49.4470 H   0  0  0  0  0  0  0  0  0  0  0  0
   40.5130   34.6610   47.2480 H   0  0  0  0  0  0  0  0  0  0  0  0
   37.8180   30.4620   50.9070 C   0  0  0  0  0  0  0  0  0  0  0  0
   37.3380   31.1810   49.7990 C   0  0  0  0  0  0  0  0  0  0  0  0
   36.0280   30.9760   49.4120 C   0  0  0  0  0  0  0  0  0  0  0  0
   35.2790   30.0950   50.1170 N   0  0  0  0  0  0  0  0  0  0  0  0
   35.7540   29.4130   51.1760 C   0  0  0  0  0  0  0  0  0  0  0  0
   37.0190   29.5980   51.5660 N   0  0  0  0  0  0  0  0  0  0  0  0
   38.8510   30.6050   51.2350 H   0  0  0  0  0  0  0  0  0  0  0  0
   35.6170   31.5010   48.5750 H   0  0  0  0  0  0  0  0  0  0  0  0
   35.1790   28.7080   51.7530 H   0  0  0  0  0  0  0  0  0  0  0  0
   40.0160   32.4950   45.8660 O   0  0  0  0  0  0  0  0  0  0  0  0
   39.3280   32.5270   44.6870 C   0  0  0  0  0  0  0  0  0  0  0  0
   38.0300   32.6210   44.2460 C   0  0  0  0  0  0  0  0  0  0  0  0
   37.2500   32.6950   44.9900 H   0  0  0  0  0  0  0  0  0  0  0  0
   37.9830   32.6000   42.8720 C   0  0  0  0  0  0  0  0  0  0  0  0
   37.0800   32.6600   42.2850 H   0  0  0  0  0  0  0  0  0  0  0  0
   39.2620   32.4940   42.5150 N   0  0  0  0  0  0  0  0  0  0  0  0
   39.5690   32.4520   41.4970 H   0  0  0  0  0  0  0  0  0  0  0  0
   40.0820   32.4480   43.5510 N   0  0  0  0  0  0  0  0  0  0  0  0
  1  2  1  0  0  0  0
  2  3  1  0  0  0  0
  3  4  2  0  0  0  0
  3 12  1  0  0  0  0
  4  8  1  0  0  0  0
  5  9  1  0  0  0  0
  5  4  1  0  0  0  0
  6  5  2  0  0  0  0
  7  6  1  0  0  0  0
  7  2  2  0  0  0  0
 10  6  1  0  0  0  0
 11 17  1  0  0  0  0
 11 16  1  0  0  0  0
 12 11  2  0  0  0  0
 13 12  1  0  0  0  0
 13 14  2  0  0  0  0
 14 15  1  0  0  0  0
 15 16  2  0  0  0  0
 15 19  1  0  0  0  0
 18 13  1  0  0  0  0
 20  7  1  0  0  0  0
 21 20  1  0  0  0  0
 22 21  1  0  0  0  0
 22 23  1  0  0  0  0
 24 22  2  0  0  0  0
 25 24  1  0  0  0  0
 26 24  1  0  0  0  0
 26 28  1  0  0  0  0
 27 26  1  0  0  0  0
 28 21  2  0  0  0  0
M  END
>  <minimizedAffinity>
-6.01561546

>  <minimizedRMSD>
0.232002258

$$$$
