
 OpenBabel03272510103D

 27 29  0  0  0  0  0  0  0  0999 V2000
   33.8390   28.7880   48.2730 C   0  0  0  0  0  0  0  0  0  0  0  0
   34.4320   28.4220   49.4400 C   0  0  0  0  0  0  0  0  0  0  0  0
   35.7050   28.7930   49.8180 C   0  0  0  0  0  0  0  0  0  0  0  0
   36.4570   29.5800   48.9990 C   0  0  0  0  0  0  0  0  0  0  0  0
   35.8490   29.9570   47.8000 C   0  0  0  0  0  0  0  0  0  0  0  0
   34.6010   29.5710   47.4690 N   0  0  0  0  0  0  0  0  0  0  0  0
   33.8890   27.7940   50.1430 H   0  0  0  0  0  0  0  0  0  0  0  0
   36.1830   28.5040   50.7500 H   0  0  0  0  0  0  0  0  0  0  0  0
   36.3740   30.5890   47.0750 H   0  0  0  0  0  0  0  0  0  0  0  0
   31.6420   27.6480   48.7040 C   0  0  0  0  0  0  0  0  0  0  0  0
   32.5090   28.3980   47.8790 C   0  0  0  0  0  0  0  0  0  0  0  0
   32.0300   28.7610   46.6390 C   0  0  0  0  0  0  0  0  0  0  0  0
   30.7700   28.3930   46.2640 N   0  0  0  0  0  0  0  0  0  0  0  0
   29.9810   27.6730   47.0980 C   0  0  0  0  0  0  0  0  0  0  0  0
   30.4070   27.2970   48.3160 N   0  0  0  0  0  0  0  0  0  0  0  0
   32.0180   27.3620   49.6820 H   0  0  0  0  0  0  0  0  0  0  0  0
   32.6710   29.3420   45.9750 H   0  0  0  0  0  0  0  0  0  0  0  0
   28.9980   27.4350   46.6960 H   0  0  0  0  0  0  0  0  0  0  0  0
   37.7510   30.0530   49.2080 O   0  0  0  0  0  0  0  0  0  0  0  0
   38.1650   31.3010   48.7660 C   0  0  0  0  0  0  0  0  0  0  0  0
   37.8810   32.3290   49.6730 C   0  0  0  0  0  0  0  0  0  0  0  0
   37.4130   32.4080   50.6490 H   0  0  0  0  0  0  0  0  0  0  0  0
   38.3410   33.5180   49.1200 C   0  0  0  0  0  0  0  0  0  0  0  0
   38.3480   34.5470   49.4370 H   0  0  0  0  0  0  0  0  0  0  0  0
   38.8770   33.1830   47.9270 N   0  0  0  0  0  0  0  0  0  0  0  0
   39.3430   33.6860   47.1420 H   0  0  0  0  0  0  0  0  0  0  0  0
   38.7700   31.8840   47.7280 N   0  0  0  0  0  0  0  0  0  0  0  0
  1  2  1  0  0  0  0
  2  3  2  0  0  0  0
  2  7  1  0  0  0  0
  3  8  1  0  0  0  0
  4 19  1  0  0  0  0
  4  3  1  0  0  0  0
  5  4  2  0  0  0  0
  6  5  1  0  0  0  0
  6  1  2  0  0  0  0
  9  5  1  0  0  0  0
 10 16  1  0  0  0  0
 11  1  1  0  0  0  0
 11 10  2  0  0  0  0
 12 11  1  0  0  0  0
 13 12  2  0  0  0  0
 13 14  1  0  0  0  0
 14 15  2  0  0  0  0
 15 10  1  0  0  0  0
 17 12  1  0  0  0  0
 18 14  1  0  0  0  0
 20 19  1  0  0  0  0
 20 21  1  0  0  0  0
 21 22  1  0  0  0  0
 23 24  1  0  0  0  0
 23 21  2  0  0  0  0
 25 23  1  0  0  0  0
 26 25  1  0  0  0  0
 27 25  1  0  0  0  0
 27 20  2  0  0  0  0
M  END
>  <minimizedAffinity>
-5.28055859

>  <minimizedRMSD>
5.25230598

$$$$
