
 OpenBabel03272502583D

 33 35  0  0  1  0  0  0  0  0999 V2000
   35.8060   29.6050   48.7940 N   0  0  0  0  0  0  0  0  0  0  0  0
   36.6390   28.8500   49.6810 C   0  0  0  0  0  0  0  0  0  0  0  0
   37.1730   29.5130   50.8760 C   0  0  0  0  0  0  0  0  0  0  0  0
   37.3430   30.9810   50.8360 C   0  0  0  0  0  0  0  0  0  0  0  0
   36.5090   31.6840   49.7930 C   0  0  0  0  0  0  0  0  0  0  0  0
   36.4840   30.8450   48.5240 C   0  0  1  0  0  0  0  0  0  0  0  0
   36.0430   27.9340   49.9600 H   0  0  0  0  0  0  0  0  0  0  0  0
   37.4840   28.4520   49.0610 H   0  0  0  0  0  0  0  0  0  0  0  0
   38.1620   29.0570   51.1300 H   0  0  0  0  0  0  0  0  0  0  0  0
   36.5070   29.2370   51.7420 H   0  0  0  0  0  0  0  0  0  0  0  0
   37.0590   31.4250   51.8240 H   0  0  0  0  0  0  0  0  0  0  0  0
   38.4110   31.2830   50.6740 H   0  0  0  0  0  0  0  0  0  0  0  0
   35.4690   31.8660   50.0820 H   0  0  0  0  0  0  0  0  0  0  0  0
   37.0140   32.6520   49.5330 H   0  0  0  0  0  0  0  0  0  0  0  0
   36.0220   31.4450   47.7140 H   0  0  0  0  0  0  0  0  0  0  0  0
   34.5370   29.2050   48.2730 C   0  0  0  0  0  0  0  0  0  0  0  0
   33.9940   29.6610   47.0730 C   0  0  0  0  0  0  0  0  0  0  0  0
   32.7500   29.1850   46.6930 C   0  0  0  0  0  0  0  0  0  0  0  0
   32.1280   28.2920   47.5220 N   0  0  0  0  0  0  0  0  0  0  0  0
   32.6820   27.8800   48.6660 C   0  0  0  0  0  0  0  0  0  0  0  0
   33.8940   28.3320   49.0530 N   0  0  0  0  0  0  0  0  0  0  0  0
   34.5670   30.3540   46.5100 H   0  0  0  0  0  0  0  0  0  0  0  0
   32.3520   29.5530   45.7600 H   0  0  0  0  0  0  0  0  0  0  0  0
   32.1310   27.1710   49.2700 H   0  0  0  0  0  0  0  0  0  0  0  0
   37.8310   30.6600   48.1940 O   0  0  0  0  0  0  0  0  0  0  0  0
   38.3450   30.8730   46.9210 C   0  0  0  0  0  0  0  0  0  0  0  0
   39.6090   31.3000   46.4980 C   0  0  0  0  0  0  0  0  0  0  0  0
   40.4060   31.5370   47.1870 H   0  0  0  0  0  0  0  0  0  0  0  0
   39.6390   31.3570   45.1180 C   0  0  0  0  0  0  0  0  0  0  0  0
   40.5180   31.6630   44.5990 H   0  0  0  0  0  0  0  0  0  0  0  0
   38.3910   30.9630   44.7340 N   0  0  0  0  0  0  0  0  0  0  0  0
   38.1830   30.9300   43.7080 H   0  0  0  0  0  0  0  0  0  0  0  0
   37.6430   30.6820   45.7900 N   0  0  0  0  0  0  0  0  0  0  0  0
  1  2  1  0  0  0  0
  2  7  1  0  0  0  0
  2  3  1  0  0  0  0
  3  9  1  0  0  0  0
  3 10  1  0  0  0  0
  4  3  1  0  0  0  0
  4 11  1  0  0  0  0
  5 13  1  0  0  0  0
  5  4  1  0  0  0  0
  6 15  1  6  0  0  0
  6  1  1  0  0  0  0
  6  5  1  0  0  0  0
  8  2  1  0  0  0  0
 12  4  1  0  0  0  0
 14  5  1  0  0  0  0
 16  1  1  0  0  0  0
 16 21  1  0  0  0  0
 17 16  2  0  0  0  0
 18 17  1  0  0  0  0
 18 19  2  0  0  0  0
 19 20  1  0  0  0  0
 20 21  2  0  0  0  0
 20 24  1  0  0  0  0
 22 17  1  0  0  0  0
 23 18  1  0  0  0  0
 25  6  1  0  0  0  0
 26 25  1  0  0  0  0
 27 26  1  0  0  0  0
 27 28  1  0  0  0  0
 29 27  2  0  0  0  0
 30 29  1  0  0  0  0
 31 29  1  0  0  0  0
 31 33  1  0  0  0  0
 32 31  1  0  0  0  0
 33 26  2  0  0  0  0
M  END
>  <minimizedAffinity>
-5.11432314

>  <minimizedRMSD>
0.657353163

$$$$
