
 OpenBabel03272508023D

 27 29  0  0  0  0  0  0  0  0999 V2000
   38.7660   30.8680   45.4260 C   0  0  0  0  0  0  0  0  0  0  0  0
   39.7180   31.8420   45.3190 C   0  0  0  0  0  0  0  0  0  0  0  0
   40.5690   31.5790   44.2480 C   0  0  0  0  0  0  0  0  0  0  0  0
   40.0790   30.4210   43.7400 N   0  0  0  0  0  0  0  0  0  0  0  0
   39.0230   29.9970   44.4240 N   0  0  0  0  0  0  0  0  0  0  0  0
   39.8550   32.7210   45.9360 H   0  0  0  0  0  0  0  0  0  0  0  0
   41.4120   32.0600   43.8240 H   0  0  0  0  0  0  0  0  0  0  0  0
   40.4690   29.5960   42.6440 C   0  0  0  0  0  0  0  0  0  0  0  0
   41.2800   29.7560   41.5290 C   0  0  0  0  0  0  0  0  0  0  0  0
   41.7660   30.7000   41.3880 H   0  0  0  0  0  0  0  0  0  0  0  0
   41.2180   28.5450   40.8700 C   0  0  0  0  0  0  0  0  0  0  0  0
   41.7870   28.4160   39.9380 H   0  0  0  0  0  0  0  0  0  0  0  0
   40.4180   27.6870   41.5330 N   0  0  0  0  0  0  0  0  0  0  0  0
   40.2170   26.7080   41.2260 H   0  0  0  0  0  0  0  0  0  0  0  0
   39.9660   28.3340   42.6130 N   0  0  0  0  0  0  0  0  0  0  0  0
   37.6920   30.7790   46.4160 C   0  0  0  0  0  0  0  0  0  0  0  0
   37.9890   31.1590   47.7500 C   0  0  0  0  0  0  0  0  0  0  0  0
   36.9800   31.0800   48.7000 C   0  0  0  0  0  0  0  0  0  0  0  0
   35.7540   30.6330   48.2800 N   0  0  0  0  0  0  0  0  0  0  0  0
   35.4980   30.2780   47.0100 C   0  0  0  0  0  0  0  0  0  0  0  0
   36.4820   30.3570   46.0850 N   0  0  0  0  0  0  0  0  0  0  0  0
   38.9960   31.5050   48.0030 H   0  0  0  0  0  0  0  0  0  0  0  0
   34.5390   29.9300   46.6830 H   0  0  0  0  0  0  0  0  0  0  0  0
   37.2670   31.4720   50.1010 C   0  0  0  0  0  0  0  0  0  0  0  0
   36.6420   32.6760   50.2910 F   0  0  0  0  0  0  0  0  0  0  0  0
   36.7650   30.5510   51.0200 F   0  0  0  0  0  0  0  0  0  0  0  0
   38.6330   31.6410   50.3190 F   0  0  0  0  0  0  0  0  0  0  0  0
  1 16  1  0  0  0  0
  2  1  1  0  0  0  0
  2  6  1  0  0  0  0
  3  2  2  0  0  0  0
  4  3  1  0  0  0  0
  4  5  1  0  0  0  0
  5  1  2  0  0  0  0
  7  3  1  0  0  0  0
  8  4  1  0  0  0  0
  9  8  1  0  0  0  0
 10  9  1  0  0  0  0
 11  9  2  0  0  0  0
 11 13  1  0  0  0  0
 12 11  1  0  0  0  0
 13 15  1  0  0  0  0
 14 13  1  0  0  0  0
 15  8  2  0  0  0  0
 16 17  1  0  0  0  0
 17 22  1  0  0  0  0
 17 18  2  0  0  0  0
 18 24  1  0  0  0  0
 19 18  1  0  0  0  0
 20 19  2  0  0  0  0
 21 16  2  0  0  0  0
 21 20  1  0  0  0  0
 23 20  1  0  0  0  0
 24 25  1  0  0  0  0
 24 27  1  0  0  0  0
 24 26  1  0  0  0  0
M  END
>  <minimizedAffinity>
-6.1099205

>  <minimizedRMSD>
0.933532536

$$$$
