
 OpenBabel03272504003D

 30 32  0  0  0  0  0  0  0  0999 V2000
   34.6460   28.5370   49.7500 C   0  0  0  0  0  0  0  0  0  0  0  0
   34.7350   27.5930   50.3840 H   0  0  0  0  0  0  0  0  0  0  0  0
   33.7860   29.0460   50.2320 H   0  0  0  0  0  0  0  0  0  0  0  0
   35.7630   29.4610   50.0330 C   0  0  0  0  0  0  0  0  0  0  0  0
   36.3700   29.4570   51.2920 C   0  0  0  0  0  0  0  0  0  0  0  0
   37.3520   30.4080   51.2900 C   0  0  0  0  0  0  0  0  0  0  0  0
   37.3450   30.9670   50.0780 N   0  0  0  0  0  0  0  0  0  0  0  0
   36.4080   30.4000   49.3540 N   0  0  0  0  0  0  0  0  0  0  0  0
   36.2090   28.8720   52.2100 H   0  0  0  0  0  0  0  0  0  0  0  0
   38.0760   30.7810   51.9890 H   0  0  0  0  0  0  0  0  0  0  0  0
   38.0580   31.9900   49.3630 C   0  0  0  0  0  0  0  0  0  0  0  0
   38.9000   33.0390   49.6670 C   0  0  0  0  0  0  0  0  0  0  0  0
   39.1310   33.1930   50.7100 H   0  0  0  0  0  0  0  0  0  0  0  0
   39.2100   33.6100   48.4410 C   0  0  0  0  0  0  0  0  0  0  0  0
   39.8830   34.4810   48.4460 H   0  0  0  0  0  0  0  0  0  0  0  0
   38.5850   32.9360   47.4570 N   0  0  0  0  0  0  0  0  0  0  0  0
   38.6860   33.2070   46.4500 H   0  0  0  0  0  0  0  0  0  0  0  0
   37.8780   31.9440   48.0110 N   0  0  0  0  0  0  0  0  0  0  0  0
   34.5090   28.1580   48.3340 C   0  0  0  0  0  0  0  0  0  0  0  0
   34.3630   27.0370   48.2440 H   0  0  0  0  0  0  0  0  0  0  0  0
   35.5200   28.2970   47.8400 H   0  0  0  0  0  0  0  0  0  0  0  0
   33.4980   28.7780   47.5220 C   0  0  0  0  0  0  0  0  0  0  0  0
   32.2750   28.1840   47.3650 C   0  0  0  0  0  0  0  0  0  0  0  0
   31.2750   28.7870   46.5770 C   0  0  0  0  0  0  0  0  0  0  0  0
   31.6240   29.9880   45.9980 N   0  0  0  0  0  0  0  0  0  0  0  0
   32.8420   30.5490   46.1730 C   0  0  0  0  0  0  0  0  0  0  0  0
   33.7650   29.9320   46.9370 N   0  0  0  0  0  0  0  0  0  0  0  0
   31.8710   27.2630   47.7510 H   0  0  0  0  0  0  0  0  0  0  0  0
   30.2810   28.4220   46.3780 H   0  0  0  0  0  0  0  0  0  0  0  0
   33.0490   31.4940   45.6890 H   0  0  0  0  0  0  0  0  0  0  0  0
  1  4  1  0  0  0  0
  1  3  1  0  0  0  0
  1  2  1  0  0  0  0
  4  5  1  0  0  0  0
  5  9  1  0  0  0  0
  6  5  2  0  0  0  0
  6 10  1  0  0  0  0
  7  6  1  0  0  0  0
  8  4  2  0  0  0  0
  8  7  1  0  0  0  0
 11 12  1  0  0  0  0
 11  7  1  0  0  0  0
 12 13  1  0  0  0  0
 14 15  1  0  0  0  0
 14 12  2  0  0  0  0
 16 18  1  0  0  0  0
 16 14  1  0  0  0  0
 17 16  1  0  0  0  0
 18 11  2  0  0  0  0
 19  1  1  0  0  0  0
 20 19  1  0  0  0  0
 21 19  1  0  0  0  0
 22 19  1  0  0  0  0
 23 22  1  0  0  0  0
 23 28  1  0  0  0  0
 24 23  2  0  0  0  0
 25 26  2  0  0  0  0
 25 24  1  0  0  0  0
 26 27  1  0  0  0  0
 27 22  2  0  0  0  0
 29 24  1  0  0  0  0
 30 26  1  0  0  0  0
M  END
>  <minimizedAffinity>
-5.56987572

>  <minimizedRMSD>
5.78682566

$$$$
