
 OpenBabel03272508023D

 27 29  0  0  0  0  0  0  0  0999 V2000
   38.9200   31.1600   45.6090 C   0  0  0  0  0  0  0  0  0  0  0  0
   39.9520   32.0350   45.8040 C   0  0  0  0  0  0  0  0  0  0  0  0
   40.8340   32.0000   44.7260 C   0  0  0  0  0  0  0  0  0  0  0  0
   40.2800   31.0780   43.9020 N   0  0  0  0  0  0  0  0  0  0  0  0
   39.1580   30.5800   44.4110 N   0  0  0  0  0  0  0  0  0  0  0  0
   40.1270   32.6920   46.6460 H   0  0  0  0  0  0  0  0  0  0  0  0
   41.7330   32.5000   44.4780 H   0  0  0  0  0  0  0  0  0  0  0  0
   40.6580   30.5540   42.6300 C   0  0  0  0  0  0  0  0  0  0  0  0
   40.3920   30.8860   41.3100 C   0  0  0  0  0  0  0  0  0  0  0  0
   39.7560   31.7270   41.1170 H   0  0  0  0  0  0  0  0  0  0  0  0
   41.0860   29.9530   40.5650 C   0  0  0  0  0  0  0  0  0  0  0  0
   41.0340   30.0040   39.4670 H   0  0  0  0  0  0  0  0  0  0  0  0
   41.7410   29.0970   41.3700 N   0  0  0  0  0  0  0  0  0  0  0  0
   42.3340   28.3050   41.0350 H   0  0  0  0  0  0  0  0  0  0  0  0
   41.4760   29.4690   42.6290 N   0  0  0  0  0  0  0  0  0  0  0  0
   37.7930   30.9010   46.5040 C   0  0  0  0  0  0  0  0  0  0  0  0
   37.9780   31.1440   47.8890 C   0  0  0  0  0  0  0  0  0  0  0  0
   36.9170   30.9020   48.7500 C   0  0  0  0  0  0  0  0  0  0  0  0
   35.7510   30.4380   48.1980 N   0  0  0  0  0  0  0  0  0  0  0  0
   35.6010   30.2150   46.8820 C   0  0  0  0  0  0  0  0  0  0  0  0
   36.6350   30.4520   46.0430 N   0  0  0  0  0  0  0  0  0  0  0  0
   38.9420   31.5140   48.2500 H   0  0  0  0  0  0  0  0  0  0  0  0
   34.6890   29.8530   46.4510 H   0  0  0  0  0  0  0  0  0  0  0  0
   37.0870   31.1490   50.2020 C   0  0  0  0  0  0  0  0  0  0  0  0
   36.5670   32.3940   50.4370 F   0  0  0  0  0  0  0  0  0  0  0  0
   36.4000   30.2170   50.9810 F   0  0  0  0  0  0  0  0  0  0  0  0
   38.4310   31.1520   50.5700 F   0  0  0  0  0  0  0  0  0  0  0  0
  1  2  1  0  0  0  0
  1 16  1  0  0  0  0
  2  6  1  0  0  0  0
  3  2  2  0  0  0  0
  4  5  1  0  0  0  0
  4  3  1  0  0  0  0
  5  1  2  0  0  0  0
  7  3  1  0  0  0  0
  8  4  1  0  0  0  0
  9  8  1  0  0  0  0
 10  9  1  0  0  0  0
 11  9  2  0  0  0  0
 11 13  1  0  0  0  0
 12 11  1  0  0  0  0
 13 15  1  0  0  0  0
 14 13  1  0  0  0  0
 15  8  2  0  0  0  0
 16 17  1  0  0  0  0
 17 22  1  0  0  0  0
 17 18  2  0  0  0  0
 18 24  1  0  0  0  0
 19 18  1  0  0  0  0
 20 19  2  0  0  0  0
 21 16  2  0  0  0  0
 21 20  1  0  0  0  0
 23 20  1  0  0  0  0
 24 25  1  0  0  0  0
 24 27  1  0  0  0  0
 24 26  1  0  0  0  0
M  END
>  <minimizedAffinity>
-6.29064369

>  <minimizedRMSD>
0.879457116

$$$$
