
 OpenBabel03272505023D

 28 30  0  0  0  0  0  0  0  0999 V2000
   38.2940   30.3500   46.9960 Cl  0  0  0  0  0  0  0  0  0  0  0  0
   38.7080   31.8670   47.7760 C   0  0  0  0  0  0  0  0  0  0  0  0
   38.2280   32.1150   49.0330 C   0  0  0  0  0  0  0  0  0  0  0  0
   38.5970   33.3250   49.5790 C   0  0  0  0  0  0  0  0  0  0  0  0
   39.4060   34.2020   48.8650 C   0  0  0  0  0  0  0  0  0  0  0  0
   39.8600   33.9030   47.6090 C   0  0  0  0  0  0  0  0  0  0  0  0
   39.4980   32.6890   47.0410 C   0  0  0  0  0  0  0  0  0  0  0  0
   38.2830   33.6410   50.5650 H   0  0  0  0  0  0  0  0  0  0  0  0
   39.6920   35.1560   49.3070 H   0  0  0  0  0  0  0  0  0  0  0  0
   40.4890   34.6320   47.1040 H   0  0  0  0  0  0  0  0  0  0  0  0
   37.8800   30.4960   50.8950 C   0  0  0  0  0  0  0  0  0  0  0  0
   37.3770   31.1890   49.7810 C   0  0  0  0  0  0  0  0  0  0  0  0
   36.0620   30.9680   49.4200 C   0  0  0  0  0  0  0  0  0  0  0  0
   35.3300   30.0990   50.1560 N   0  0  0  0  0  0  0  0  0  0  0  0
   35.8260   29.4420   51.2210 C   0  0  0  0  0  0  0  0  0  0  0  0
   37.0960   29.6420   51.5850 N   0  0  0  0  0  0  0  0  0  0  0  0
   38.9170   30.6520   51.2030 H   0  0  0  0  0  0  0  0  0  0  0  0
   35.6340   31.4740   48.5790 H   0  0  0  0  0  0  0  0  0  0  0  0
   35.2650   28.7460   51.8220 H   0  0  0  0  0  0  0  0  0  0  0  0
   39.9790   32.4350   45.7760 O   0  0  0  0  0  0  0  0  0  0  0  0
   39.3280   32.6310   44.5910 C   0  0  0  0  0  0  0  0  0  0  0  0
   39.6300   32.8370   43.2660 C   0  0  0  0  0  0  0  0  0  0  0  0
   40.6720   32.8660   42.9850 H   0  0  0  0  0  0  0  0  0  0  0  0
   38.4790   32.9690   42.5240 C   0  0  0  0  0  0  0  0  0  0  0  0
   38.4480   33.1390   41.4600 H   0  0  0  0  0  0  0  0  0  0  0  0
   37.5070   32.8400   43.4250 N   0  0  0  0  0  0  0  0  0  0  0  0
   36.4770   32.8940   43.1660 H   0  0  0  0  0  0  0  0  0  0  0  0
   37.9640   32.6400   44.6500 N   0  0  0  0  0  0  0  0  0  0  0  0
  1  2  1  0  0  0  0
  2  3  1  0  0  0  0
  3  4  2  0  0  0  0
  3 12  1  0  0  0  0
  4  8  1  0  0  0  0
  5  9  1  0  0  0  0
  5  4  1  0  0  0  0
  6  5  2  0  0  0  0
  7  6  1  0  0  0  0
  7  2  2  0  0  0  0
 10  6  1  0  0  0  0
 11 17  1  0  0  0  0
 11 16  1  0  0  0  0
 12 11  2  0  0  0  0
 13 12  1  0  0  0  0
 13 14  2  0  0  0  0
 14 15  1  0  0  0  0
 15 16  2  0  0  0  0
 15 19  1  0  0  0  0
 18 13  1  0  0  0  0
 20  7  1  0  0  0  0
 21 28  2  0  0  0  0
 21 20  1  0  0  0  0
 22 21  1  0  0  0  0
 23 22  1  0  0  0  0
 24 22  2  0  0  0  0
 24 26  1  0  0  0  0
 25 24  1  0  0  0  0
 26 28  1  0  0  0  0
 27 26  1  0  0  0  0
M  END
>  <minimizedAffinity>
-6.19104338

>  <minimizedRMSD>
0.301455259

$$$$
