
 OpenBabel03272502593D

 33 35  0  0  1  0  0  0  0  0999 V2000
   35.8950   29.6590   48.7550 N   0  0  0  0  0  0  0  0  0  0  0  0
   36.7590   28.9160   49.6230 C   0  0  0  0  0  0  0  0  0  0  0  0
   37.3120   29.5860   50.8040 C   0  0  0  0  0  0  0  0  0  0  0  0
   37.4620   31.0560   50.7590 C   0  0  0  0  0  0  0  0  0  0  0  0
   36.5950   31.7480   49.7370 C   0  0  0  0  0  0  0  0  0  0  0  0
   36.5510   30.9080   48.4680 C   0  0  1  0  0  0  0  0  0  0  0  0
   36.1820   27.9920   49.9160 H   0  0  0  0  0  0  0  0  0  0  0  0
   37.5940   28.5290   48.9830 H   0  0  0  0  0  0  0  0  0  0  0  0
   38.3130   29.1430   51.0340 H   0  0  0  0  0  0  0  0  0  0  0  0
   36.6710   29.3020   51.6850 H   0  0  0  0  0  0  0  0  0  0  0  0
   37.1960   31.4970   51.7540 H   0  0  0  0  0  0  0  0  0  0  0  0
   38.5210   31.3730   50.5730 H   0  0  0  0  0  0  0  0  0  0  0  0
   35.5590   31.9160   50.0500 H   0  0  0  0  0  0  0  0  0  0  0  0
   37.0800   32.7230   49.4650 H   0  0  0  0  0  0  0  0  0  0  0  0
   36.0610   31.5010   47.6700 H   0  0  0  0  0  0  0  0  0  0  0  0
   34.6200   29.2420   48.2640 C   0  0  0  0  0  0  0  0  0  0  0  0
   34.0450   29.6890   47.0750 C   0  0  0  0  0  0  0  0  0  0  0  0
   32.7970   29.1960   46.7250 C   0  0  0  0  0  0  0  0  0  0  0  0
   32.2050   28.2980   47.5710 N   0  0  0  0  0  0  0  0  0  0  0  0
   32.7910   27.8960   48.7030 C   0  0  0  0  0  0  0  0  0  0  0  0
   34.0050   28.3650   49.0610 N   0  0  0  0  0  0  0  0  0  0  0  0
   34.5950   30.3870   46.4970 H   0  0  0  0  0  0  0  0  0  0  0  0
   32.3740   29.5560   45.8010 H   0  0  0  0  0  0  0  0  0  0  0  0
   32.2620   27.1830   49.3220 H   0  0  0  0  0  0  0  0  0  0  0  0
   37.8920   30.7410   48.1070 O   0  0  0  0  0  0  0  0  0  0  0  0
   38.4510   31.2920   46.9610 C   0  0  0  0  0  0  0  0  0  0  0  0
   37.8810   32.0410   45.9260 C   0  0  0  0  0  0  0  0  0  0  0  0
   36.8330   32.2990   45.9020 H   0  0  0  0  0  0  0  0  0  0  0  0
   38.8530   32.3640   45.0000 C   0  0  0  0  0  0  0  0  0  0  0  0
   38.6180   32.9350   44.1320 H   0  0  0  0  0  0  0  0  0  0  0  0
   39.9940   31.8030   45.4940 N   0  0  0  0  0  0  0  0  0  0  0  0
   40.8770   31.9240   44.9420 H   0  0  0  0  0  0  0  0  0  0  0  0
   39.7530   31.1800   46.6370 N   0  0  0  0  0  0  0  0  0  0  0  0
  1  2  1  0  0  0  0
  2  7  1  0  0  0  0
  2  3  1  0  0  0  0
  3  9  1  0  0  0  0
  3 10  1  0  0  0  0
  4  3  1  0  0  0  0
  4 11  1  0  0  0  0
  5 13  1  0  0  0  0
  5  4  1  0  0  0  0
  6 15  1  6  0  0  0
  6  1  1  0  0  0  0
  6  5  1  0  0  0  0
  8  2  1  0  0  0  0
 12  4  1  0  0  0  0
 14  5  1  0  0  0  0
 16  1  1  0  0  0  0
 16 21  1  0  0  0  0
 17 16  2  0  0  0  0
 18 17  1  0  0  0  0
 18 19  2  0  0  0  0
 19 20  1  0  0  0  0
 20 21  2  0  0  0  0
 20 24  1  0  0  0  0
 22 17  1  0  0  0  0
 23 18  1  0  0  0  0
 25  6  1  0  0  0  0
 26 25  1  0  0  0  0
 27 26  1  0  0  0  0
 28 27  1  0  0  0  0
 29 31  1  0  0  0  0
 29 27  2  0  0  0  0
 30 29  1  0  0  0  0
 31 33  1  0  0  0  0
 32 31  1  0  0  0  0
 33 26  2  0  0  0  0
M  END
>  <minimizedAffinity>
-5.07766628

>  <minimizedRMSD>
0.712605894

$$$$
