
 OpenBabel03272503543D

 43 46  0  0  1  0  0  0  0  0999 V2000
   38.6140   23.5600   34.3240 C   0  0  1  0  0  0  0  0  0  0  0  0
   38.5750   22.8600   32.9410 C   0  0  0  0  0  0  0  0  0  0  0  0
   37.1040   22.4220   32.8060 C   0  0  0  0  0  0  0  0  0  0  0  0
   36.8880   21.3080   33.7700 C   0  0  0  0  0  0  0  0  0  0  0  0
   37.1640   21.7630   35.1690 C   0  0  0  0  0  0  0  0  0  0  0  0
   38.5040   22.4400   35.3180 C   0  0  2  0  0  0  0  0  0  0  0  0
   37.7320   24.2050   34.2970 H   0  0  0  0  0  0  0  0  0  0  0  0
   38.7750   23.5770   32.1250 H   0  0  0  0  0  0  0  0  0  0  0  0
   39.2540   21.9890   32.9160 H   0  0  0  0  0  0  0  0  0  0  0  0
   36.5020   23.2970   33.1510 H   0  0  0  0  0  0  0  0  0  0  0  0
   36.8250   22.2050   31.7790 H   0  0  0  0  0  0  0  0  0  0  0  0
   35.8270   20.9810   33.7290 H   0  0  0  0  0  0  0  0  0  0  0  0
   37.5380   20.4500   33.5450 H   0  0  0  0  0  0  0  0  0  0  0  0
   36.3480   22.4370   35.5590 H   0  0  0  0  0  0  0  0  0  0  0  0
   37.1350   20.8660   35.8410 H   0  0  0  0  0  0  0  0  0  0  0  0
   39.2660   21.6740   35.2180 H   0  0  0  0  0  0  0  0  0  0  0  0
   39.8630   25.7360   34.4690 C   0  0  0  0  0  0  0  0  0  0  0  0
   41.0550   26.4170   34.6980 C   0  0  0  0  0  0  0  0  0  0  0  0
   42.2430   25.7040   34.9500 C   0  0  0  0  0  0  0  0  0  0  0  0
   42.1710   24.3310   34.9580 C   0  0  0  0  0  0  0  0  0  0  0  0
   41.0030   23.6460   34.7340 C   0  0  0  0  0  0  0  0  0  0  0  0
   39.8200   24.3720   34.4840 C   0  0  0  0  0  0  0  0  0  0  0  0
   41.1090   27.4970   34.6900 H   0  0  0  0  0  0  0  0  0  0  0  0
   43.1390   26.2820   35.1210 H   0  0  0  0  0  0  0  0  0  0  0  0
   43.1140   23.8220   35.1570 H   0  0  0  0  0  0  0  0  0  0  0  0
   41.0910   22.5870   34.7680 H   0  0  0  0  0  0  0  0  0  0  0  0
   36.8220   27.9470   34.8040 C   0  0  0  0  0  0  0  0  0  0  0  0
   37.9180   27.1390   35.1890 C   0  0  0  0  0  0  0  0  0  0  0  0
   38.7160   26.5720   34.1990 C   0  0  0  0  0  0  0  0  0  0  0  0
   38.3760   26.8420   32.9250 N   0  0  0  0  0  0  0  0  0  0  0  0
   37.3350   27.6110   32.5620 C   0  0  0  0  0  0  0  0  0  0  0  0
   36.5700   28.1540   33.4980 N   0  0  0  0  0  0  0  0  0  0  0  0
   36.2980   28.3180   35.6560 H   0  0  0  0  0  0  0  0  0  0  0  0
   38.1950   26.9190   36.2010 H   0  0  0  0  0  0  0  0  0  0  0  0
   37.0930   27.8050   31.5280 H   0  0  0  0  0  0  0  0  0  0  0  0
   38.4810   23.0750   36.6650 C   0  0  0  0  0  0  0  0  0  0  0  0
   37.6880   24.0380   37.2050 C   0  0  0  0  0  0  0  0  0  0  0  0
   36.8840   24.5170   36.6640 H   0  0  0  0  0  0  0  0  0  0  0  0
   38.0910   24.2670   38.5050 C   0  0  0  0  0  0  0  0  0  0  0  0
   37.6750   24.9620   39.2070 H   0  0  0  0  0  0  0  0  0  0  0  0
   39.1310   23.4240   38.7160 N   0  0  0  0  0  0  0  0  0  0  0  0
   39.6930   23.3260   39.6110 H   0  0  0  0  0  0  0  0  0  0  0  0
   39.3570   22.7240   37.6280 N   0  0  0  0  0  0  0  0  0  0  0  0
  1  7  1  1  0  0  0
  1 22  1  0  0  0  0
  1  6  1  0  0  0  0
  2  1  1  0  0  0  0
  3  2  1  0  0  0  0
  3 10  1  0  0  0  0
  3  4  1  0  0  0  0
  4  5  1  0  0  0  0
  5  6  1  0  0  0  0
  5 14  1  0  0  0  0
  5 15  1  0  0  0  0
  6 16  1  6  0  0  0
  6 36  1  0  0  0  0
  8  2  1  0  0  0  0
  9  2  1  0  0  0  0
 11  3  1  0  0  0  0
 12  4  1  0  0  0  0
 13  4  1  0  0  0  0
 17 22  2  0  0  0  0
 17 18  1  0  0  0  0
 18 19  2  0  0  0  0
 19 20  1  0  0  0  0
 19 24  1  0  0  0  0
 20 25  1  0  0  0  0
 21 26  1  0  0  0  0
 21 20  2  0  0  0  0
 22 21  1  0  0  0  0
 23 18  1  0  0  0  0
 27 28  1  0  0  0  0
 27 33  1  0  0  0  0
 28 34  1  0  0  0  0
 29 17  1  0  0  0  0
 29 28  2  0  0  0  0
 30 29  1  0  0  0  0
 31 30  2  0  0  0  0
 31 32  1  0  0  0  0
 32 27  2  0  0  0  0
 35 31  1  0  0  0  0
 36 37  1  0  0  0  0
 36 43  2  0  0  0  0
 37 39  2  0  0  0  0
 38 37  1  0  0  0  0
 39 41  1  0  0  0  0
 39 40  1  0  0  0  0
 41 42  1  0  0  0  0
 43 41  1  0  0  0  0
M  END
>  <minimizedAffinity>
-5.76514196

$$$$

 OpenBabel03272503543D

 43 46  0  0  1  0  0  0  0  0999 V2000
   40.2440   24.7350   34.7120 C   0  0  1  0  0  0  0  0  0  0  0  0
   41.6210   25.4170   34.5090 C   0  0  0  0  0  0  0  0  0  0  0  0
   42.5660   24.2330   34.2310 C   0  0  0  0  0  0  0  0  0  0  0  0
   42.7280   23.4910   35.5110 C   0  0  0  0  0  0  0  0  0  0  0  0
   41.4040   22.9900   35.9980 C   0  0  0  0  0  0  0  0  0  0  0  0
   40.3470   24.0650   36.0520 C   0  0  2  0  0  0  0  0  0  0  0  0
   40.1940   24.0310   33.8770 H   0  0  0  0  0  0  0  0  0  0  0  0
   41.6230   26.0510   33.6050 H   0  0  0  0  0  0  0  0  0  0  0  0
   41.9290   25.9700   35.4150 H   0  0  0  0  0  0  0  0  0  0  0  0
   42.0140   23.5750   33.5180 H   0  0  0  0  0  0  0  0  0  0  0  0
   43.4940   24.5410   33.7560 H   0  0  0  0  0  0  0  0  0  0  0  0
   43.3800   22.6060   35.3490 H   0  0  0  0  0  0  0  0  0  0  0  0
   43.1710   24.1260   36.2910 H   0  0  0  0  0  0  0  0  0  0  0  0
   41.0340   22.1190   35.3840 H   0  0  0  0  0  0  0  0  0  0  0  0
   41.5460   22.5690   37.0280 H   0  0  0  0  0  0  0  0  0  0  0  0
   40.6050   24.7310   36.8680 H   0  0  0  0  0  0  0  0  0  0  0  0
   38.0950   25.6150   33.7510 C   0  0  0  0  0  0  0  0  0  0  0  0
   37.0630   26.5490   33.7870 C   0  0  0  0  0  0  0  0  0  0  0  0
   37.0890   27.5990   34.7250 C   0  0  0  0  0  0  0  0  0  0  0  0
   38.1610   27.6590   35.5850 C   0  0  0  0  0  0  0  0  0  0  0  0
   39.1840   26.7450   35.5600 C   0  0  0  0  0  0  0  0  0  0  0  0
   39.1460   25.6970   34.6170 C   0  0  0  0  0  0  0  0  0  0  0  0
   36.2220   26.5000   33.1100 H   0  0  0  0  0  0  0  0  0  0  0  0
   36.2640   28.2960   34.7100 H   0  0  0  0  0  0  0  0  0  0  0  0
   38.1380   28.4870   36.2910 H   0  0  0  0  0  0  0  0  0  0  0  0
   39.9500   26.9100   36.2800 H   0  0  0  0  0  0  0  0  0  0  0  0
   38.2950   23.6570   30.5310 C   0  0  0  0  0  0  0  0  0  0  0  0
   38.4720   24.7250   31.4410 C   0  0  0  0  0  0  0  0  0  0  0  0
   37.9710   24.5970   32.7340 C   0  0  0  0  0  0  0  0  0  0  0  0
   37.3420   23.4420   33.0230 N   0  0  0  0  0  0  0  0  0  0  0  0
   37.1770   22.4290   32.1560 C   0  0  0  0  0  0  0  0  0  0  0  0
   37.6510   22.5420   30.9240 N   0  0  0  0  0  0  0  0  0  0  0  0
   38.7250   23.8840   29.5810 H   0  0  0  0  0  0  0  0  0  0  0  0
   38.9700   25.6470   31.2180 H   0  0  0  0  0  0  0  0  0  0  0  0
   36.6670   21.5150   32.4260 H   0  0  0  0  0  0  0  0  0  0  0  0
   39.0590   23.3470   36.2620 C   0  0  0  0  0  0  0  0  0  0  0  0
   37.9880   23.6090   37.0560 C   0  0  0  0  0  0  0  0  0  0  0  0
   37.9300   24.4690   37.7090 H   0  0  0  0  0  0  0  0  0  0  0  0
   37.0460   22.6180   36.8730 C   0  0  0  0  0  0  0  0  0  0  0  0
   36.0890   22.5280   37.3480 H   0  0  0  0  0  0  0  0  0  0  0  0
   37.5820   21.7720   35.9600 N   0  0  0  0  0  0  0  0  0  0  0  0
   37.1350   20.8900   35.5770 H   0  0  0  0  0  0  0  0  0  0  0  0
   38.7690   22.2060   35.6030 N   0  0  0  0  0  0  0  0  0  0  0  0
  1  7  1  6  0  0  0
  1  6  1  0  0  0  0
  2  1  1  0  0  0  0
  2  9  1  0  0  0  0
  3  2  1  0  0  0  0
  3  4  1  0  0  0  0
  4  5  1  0  0  0  0
  4 13  1  0  0  0  0
  5  6  1  0  0  0  0
  5 15  1  0  0  0  0
  6 36  1  0  0  0  0
  6 16  1  1  0  0  0
  8  2  1  0  0  0  0
 10  3  1  0  0  0  0
 11  3  1  0  0  0  0
 12  4  1  0  0  0  0
 14  5  1  0  0  0  0
 17 18  2  0  0  0  0
 17 22  1  0  0  0  0
 18 19  1  0  0  0  0
 19 20  2  0  0  0  0
 20 25  1  0  0  0  0
 21 20  1  0  0  0  0
 21 26  1  0  0  0  0
 22  1  1  0  0  0  0
 22 21  2  0  0  0  0
 23 18  1  0  0  0  0
 24 19  1  0  0  0  0
 27 32  2  0  0  0  0
 27 28  1  0  0  0  0
 28 29  2  0  0  0  0
 29 30  1  0  0  0  0
 29 17  1  0  0  0  0
 31 35  1  0  0  0  0
 31 30  2  0  0  0  0
 32 31  1  0  0  0  0
 33 27  1  0  0  0  0
 34 28  1  0  0  0  0
 36 37  1  0  0  0  0
 37 38  1  0  0  0  0
 39 37  2  0  0  0  0
 39 40  1  0  0  0  0
 41 39  1  0  0  0  0
 42 41  1  0  0  0  0
 43 41  1  0  0  0  0
 43 36  2  0  0  0  0
M  END
>  <minimizedAffinity>
-5.41362

$$$$

 OpenBabel03272503543D

 43 46  0  0  1  0  0  0  0  0999 V2000
   38.1200   26.3880   33.1590 C   0  0  1  0  0  0  0  0  0  0  0  0
   38.1030   26.0120   34.6630 C   0  0  0  0  0  0  0  0  0  0  0  0
   38.9690   27.1080   35.3120 C   0  0  0  0  0  0  0  0  0  0  0  0
   40.3770   26.8540   34.9030 C   0  0  0  0  0  0  0  0  0  0  0  0
   40.5090   26.9080   33.4130 C   0  0  0  0  0  0  0  0  0  0  0  0
   39.5060   26.0380   32.6970 C   0  0  2  0  0  0  0  0  0  0  0  0
   37.9240   27.4630   33.1730 H   0  0  0  0  0  0  0  0  0  0  0  0
   37.0880   26.1090   35.0870 H   0  0  0  0  0  0  0  0  0  0  0  0
   38.5370   25.0100   34.8280 H   0  0  0  0  0  0  0  0  0  0  0  0
   38.6400   28.0640   34.8380 H   0  0  0  0  0  0  0  0  0  0  0  0
   38.8060   27.1890   36.3830 H   0  0  0  0  0  0  0  0  0  0  0  0
   41.0360   27.6430   35.3250 H   0  0  0  0  0  0  0  0  0  0  0  0
   40.7260   25.8710   35.2500 H   0  0  0  0  0  0  0  0  0  0  0  0
   40.4460   27.9650   33.0250 H   0  0  0  0  0  0  0  0  0  0  0  0
   41.5420   26.5680   33.1400 H   0  0  0  0  0  0  0  0  0  0  0  0
   39.7900   25.0060   32.8710 H   0  0  0  0  0  0  0  0  0  0  0  0
   36.1320   26.3020   31.6230 C   0  0  0  0  0  0  0  0  0  0  0  0
   35.2070   25.5490   30.9060 C   0  0  0  0  0  0  0  0  0  0  0  0
   35.2160   24.1430   30.9930 C   0  0  0  0  0  0  0  0  0  0  0  0
   36.1630   23.5620   31.8020 C   0  0  0  0  0  0  0  0  0  0  0  0
   37.0810   24.2920   32.5150 C   0  0  0  0  0  0  0  0  0  0  0  0
   37.0620   25.6990   32.4190 C   0  0  0  0  0  0  0  0  0  0  0  0
   34.4630   26.0090   30.2700 H   0  0  0  0  0  0  0  0  0  0  0  0
   34.4770   23.6080   30.4160 H   0  0  0  0  0  0  0  0  0  0  0  0
   36.1320   22.4740   31.8390 H   0  0  0  0  0  0  0  0  0  0  0  0
   37.7550   23.7150   33.1020 H   0  0  0  0  0  0  0  0  0  0  0  0
   35.2870   29.9470   32.1220 C   0  0  0  0  0  0  0  0  0  0  0  0
   35.3330   28.5540   32.3700 C   0  0  0  0  0  0  0  0  0  0  0  0
   36.0110   27.7340   31.4730 C   0  0  0  0  0  0  0  0  0  0  0  0
   36.5820   28.3410   30.4160 N   0  0  0  0  0  0  0  0  0  0  0  0
   36.5370   29.6640   30.1840 C   0  0  0  0  0  0  0  0  0  0  0  0
   35.8940   30.4530   31.0320 N   0  0  0  0  0  0  0  0  0  0  0  0
   34.7390   30.4560   32.8830 H   0  0  0  0  0  0  0  0  0  0  0  0
   34.8810   28.0640   33.2090 H   0  0  0  0  0  0  0  0  0  0  0  0
   37.0090   30.1160   29.3230 H   0  0  0  0  0  0  0  0  0  0  0  0
   39.5830   26.4370   31.2640 C   0  0  0  0  0  0  0  0  0  0  0  0
   39.5450   25.7150   30.1140 C   0  0  0  0  0  0  0  0  0  0  0  0
   39.4410   24.6390   30.0920 H   0  0  0  0  0  0  0  0  0  0  0  0
   39.6570   26.5780   29.0440 C   0  0  0  0  0  0  0  0  0  0  0  0
   39.6610   26.3320   28.0010 H   0  0  0  0  0  0  0  0  0  0  0  0
   39.7620   27.8160   29.5860 N   0  0  0  0  0  0  0  0  0  0  0  0
   39.8650   28.7310   29.0570 H   0  0  0  0  0  0  0  0  0  0  0  0
   39.7180   27.7270   30.8950 N   0  0  0  0  0  0  0  0  0  0  0  0
  1  7  1  6  0  0  0
  1  2  1  0  0  0  0
  2  9  1  0  0  0  0
  2  8  1  0  0  0  0
  2  3  1  0  0  0  0
  3 11  1  0  0  0  0
  4 13  1  0  0  0  0
  4  3  1  0  0  0  0
  4 12  1  0  0  0  0
  5  4  1  0  0  0  0
  6 16  1  1  0  0  0
  6  1  1  0  0  0  0
  6  5  1  0  0  0  0
 10  3  1  0  0  0  0
 14  5  1  0  0  0  0
 15  5  1  0  0  0  0
 17 22  1  0  0  0  0
 18 19  1  0  0  0  0
 18 17  2  0  0  0  0
 19 20  2  0  0  0  0
 20 25  1  0  0  0  0
 20 21  1  0  0  0  0
 21 26  1  0  0  0  0
 22 21  2  0  0  0  0
 22  1  1  0  0  0  0
 23 18  1  0  0  0  0
 24 19  1  0  0  0  0
 27 28  1  0  0  0  0
 27 33  1  0  0  0  0
 28 34  1  0  0  0  0
 29 17  1  0  0  0  0
 29 28  2  0  0  0  0
 30 29  1  0  0  0  0
 31 30  2  0  0  0  0
 31 32  1  0  0  0  0
 32 27  2  0  0  0  0
 35 31  1  0  0  0  0
 36  6  1  0  0  0  0
 37 36  1  0  0  0  0
 38 37  1  0  0  0  0
 39 41  1  0  0  0  0
 39 37  2  0  0  0  0
 40 39  1  0  0  0  0
 41 43  1  0  0  0  0
 42 41  1  0  0  0  0
 43 36  2  0  0  0  0
M  END
>  <minimizedAffinity>
-5.3662262

$$$$

 OpenBabel03272503543D

 43 46  0  0  1  0  0  0  0  0999 V2000
   40.6590   24.9180   33.8610 C   0  0  1  0  0  0  0  0  0  0  0  0
   41.9680   24.4890   33.1500 C   0  0  0  0  0  0  0  0  0  0  0  0
   43.0680   25.1530   34.0000 C   0  0  0  0  0  0  0  0  0  0  0  0
   42.9940   26.6180   33.7450 C   0  0  0  0  0  0  0  0  0  0  0  0
   41.6500   27.1510   34.1320 C   0  0  0  0  0  0  0  0  0  0  0  0
   40.5070   26.3750   33.5270 C   0  0  2  0  0  0  0  0  0  0  0  0
   40.8810   24.7340   34.9150 H   0  0  0  0  0  0  0  0  0  0  0  0
   42.1210   23.3970   33.2200 H   0  0  0  0  0  0  0  0  0  0  0  0
   41.9940   24.8540   32.1080 H   0  0  0  0  0  0  0  0  0  0  0  0
   42.7710   24.9730   35.0610 H   0  0  0  0  0  0  0  0  0  0  0  0
   44.0450   24.7060   33.8430 H   0  0  0  0  0  0  0  0  0  0  0  0
   43.7520   27.1430   34.3650 H   0  0  0  0  0  0  0  0  0  0  0  0
   43.1720   26.8510   32.6860 H   0  0  0  0  0  0  0  0  0  0  0  0
   41.5280   27.2050   35.2520 H   0  0  0  0  0  0  0  0  0  0  0  0
   41.5850   28.2170   33.7900 H   0  0  0  0  0  0  0  0  0  0  0  0
   40.4950   26.5930   32.4640 H   0  0  0  0  0  0  0  0  0  0  0  0
   38.6590   23.4540   34.2800 C   0  0  0  0  0  0  0  0  0  0  0  0
   37.5670   22.7510   33.7800 C   0  0  0  0  0  0  0  0  0  0  0  0
   37.3360   22.6920   32.3920 C   0  0  0  0  0  0  0  0  0  0  0  0
   38.2220   23.3480   31.5700 C   0  0  0  0  0  0  0  0  0  0  0  0
   39.3030   24.0440   32.0490 C   0  0  0  0  0  0  0  0  0  0  0  0
   39.5230   24.0970   33.4410 C   0  0  0  0  0  0  0  0  0  0  0  0
   36.8720   22.2360   34.4280 H   0  0  0  0  0  0  0  0  0  0  0  0
   36.4740   22.1330   32.0580 H   0  0  0  0  0  0  0  0  0  0  0  0
   38.0040   23.2740   30.5060 H   0  0  0  0  0  0  0  0  0  0  0  0
   39.9070   24.5030   31.3030 H   0  0  0  0  0  0  0  0  0  0  0  0
   39.8390   22.7490   37.7950 C   0  0  0  0  0  0  0  0  0  0  0  0
   39.7880   22.6950   36.3820 C   0  0  0  0  0  0  0  0  0  0  0  0
   38.8070   23.4250   35.7160 C   0  0  0  0  0  0  0  0  0  0  0  0
   37.9650   24.1420   36.4840 N   0  0  0  0  0  0  0  0  0  0  0  0
   38.0170   24.1920   37.8270 C   0  0  0  0  0  0  0  0  0  0  0  0
   38.9460   23.5000   38.4690 N   0  0  0  0  0  0  0  0  0  0  0  0
   40.6340   22.1480   38.1760 H   0  0  0  0  0  0  0  0  0  0  0  0
   40.4540   22.1270   35.7640 H   0  0  0  0  0  0  0  0  0  0  0  0
   37.3230   24.7790   38.4100 H   0  0  0  0  0  0  0  0  0  0  0  0
   39.2860   26.8430   34.2400 C   0  0  0  0  0  0  0  0  0  0  0  0
   38.0260   27.1140   33.8080 C   0  0  0  0  0  0  0  0  0  0  0  0
   37.7180   27.0120   32.7770 H   0  0  0  0  0  0  0  0  0  0  0  0
   37.2660   27.5200   34.8850 C   0  0  0  0  0  0  0  0  0  0  0  0
   36.2330   27.8070   34.8860 H   0  0  0  0  0  0  0  0  0  0  0  0
   38.1000   27.4830   35.9530 N   0  0  0  0  0  0  0  0  0  0  0  0
   37.8550   27.7330   36.9550 H   0  0  0  0  0  0  0  0  0  0  0  0
   39.2900   27.0830   35.5670 N   0  0  0  0  0  0  0  0  0  0  0  0
  1  7  1  1  0  0  0
  2  8  1  0  0  0  0
  2  1  1  0  0  0  0
  2  3  1  0  0  0  0
  3 10  1  0  0  0  0
  4  3  1  0  0  0  0
  4  5  1  0  0  0  0
  4 12  1  0  0  0  0
  5 14  1  0  0  0  0
  6 16  1  6  0  0  0
  6  1  1  0  0  0  0
  6  5  1  0  0  0  0
  6 36  1  0  0  0  0
  9  2  1  0  0  0  0
 11  3  1  0  0  0  0
 13  4  1  0  0  0  0
 15  5  1  0  0  0  0
 17 29  1  0  0  0  0
 18 17  1  0  0  0  0
 18 23  1  0  0  0  0
 19 18  2  0  0  0  0
 20 21  2  0  0  0  0
 20 19  1  0  0  0  0
 21 22  1  0  0  0  0
 22  1  1  0  0  0  0
 22 17  2  0  0  0  0
 24 19  1  0  0  0  0
 25 20  1  0  0  0  0
 26 21  1  0  0  0  0
 27 33  1  0  0  0  0
 27 32  1  0  0  0  0
 28 27  2  0  0  0  0
 29 28  1  0  0  0  0
 29 30  2  0  0  0  0
 30 31  1  0  0  0  0
 31 35  1  0  0  0  0
 31 32  2  0  0  0  0
 34 28  1  0  0  0  0
 36 43  2  0  0  0  0
 37 36  1  0  0  0  0
 37 39  2  0  0  0  0
 38 37  1  0  0  0  0
 39 40  1  0  0  0  0
 39 41  1  0  0  0  0
 41 42  1  0  0  0  0
 43 41  1  0  0  0  0
M  END
>  <minimizedAffinity>
-5.26050758

$$$$

 OpenBabel03272503543D

 43 46  0  0  1  0  0  0  0  0999 V2000
   32.7290   29.8550   35.3220 C   0  0  1  0  0  0  0  0  0  0  0  0
   32.1470   29.1590   36.5790 C   0  0  0  0  0  0  0  0  0  0  0  0
   31.4200   27.9310   36.0000 C   0  0  0  0  0  0  0  0  0  0  0  0
   30.2150   28.4310   35.2850 C   0  0  0  0  0  0  0  0  0  0  0  0
   30.6070   29.3640   34.1830 C   0  0  0  0  0  0  0  0  0  0  0  0
   31.5380   30.4610   34.6380 C   0  0  2  0  0  0  0  0  0  0  0  0
   33.1740   29.0250   34.7670 H   0  0  0  0  0  0  0  0  0  0  0  0
   32.9510   28.7800   37.2340 H   0  0  0  0  0  0  0  0  0  0  0  0
   31.4440   29.8240   37.1120 H   0  0  0  0  0  0  0  0  0  0  0  0
   32.1190   27.5050   35.2400 H   0  0  0  0  0  0  0  0  0  0  0  0
   31.2300   27.1670   36.7480 H   0  0  0  0  0  0  0  0  0  0  0  0
   29.6740   27.5780   34.8220 H   0  0  0  0  0  0  0  0  0  0  0  0
   29.5330   28.9600   35.9660 H   0  0  0  0  0  0  0  0  0  0  0  0
   31.0610   28.8140   33.3090 H   0  0  0  0  0  0  0  0  0  0  0  0
   29.6740   29.8300   33.7690 H   0  0  0  0  0  0  0  0  0  0  0  0
   30.9600   31.1390   35.2580 H   0  0  0  0  0  0  0  0  0  0  0  0
   35.0150   30.8840   35.1320 C   0  0  0  0  0  0  0  0  0  0  0  0
   35.9040   31.8940   35.4890 C   0  0  0  0  0  0  0  0  0  0  0  0
   35.5240   32.8790   36.4200 C   0  0  0  0  0  0  0  0  0  0  0  0
   34.2580   32.7990   36.9510 C   0  0  0  0  0  0  0  0  0  0  0  0
   33.3710   31.8080   36.6090 C   0  0  0  0  0  0  0  0  0  0  0  0
   33.7640   30.8280   35.6740 C   0  0  0  0  0  0  0  0  0  0  0  0
   36.8990   31.9560   35.0690 H   0  0  0  0  0  0  0  0  0  0  0  0
   36.2520   33.6400   36.6600 H   0  0  0  0  0  0  0  0  0  0  0  0
   34.0080   33.5810   37.6670 H   0  0  0  0  0  0  0  0  0  0  0  0
   32.4270   31.8650   37.0960 H   0  0  0  0  0  0  0  0  0  0  0  0
   36.4970   27.8060   33.5280 C   0  0  0  0  0  0  0  0  0  0  0  0
   36.0310   28.6730   34.5450 C   0  0  0  0  0  0  0  0  0  0  0  0
   35.5240   29.9190   34.1860 C   0  0  0  0  0  0  0  0  0  0  0  0
   35.5150   30.2090   32.8720 N   0  0  0  0  0  0  0  0  0  0  0  0
   35.9570   29.3830   31.9080 C   0  0  0  0  0  0  0  0  0  0  0  0
   36.4420   28.1960   32.2400 N   0  0  0  0  0  0  0  0  0  0  0  0
   36.8580   26.8890   33.9370 H   0  0  0  0  0  0  0  0  0  0  0  0
   36.0360   28.4500   35.5930 H   0  0  0  0  0  0  0  0  0  0  0  0
   35.9330   29.6510   30.8620 H   0  0  0  0  0  0  0  0  0  0  0  0
   32.0480   31.0940   33.3900 C   0  0  0  0  0  0  0  0  0  0  0  0
   32.3140   32.3880   33.0670 C   0  0  0  0  0  0  0  0  0  0  0  0
   32.1740   33.2110   33.7530 H   0  0  0  0  0  0  0  0  0  0  0  0
   32.7730   32.4350   31.7670 C   0  0  0  0  0  0  0  0  0  0  0  0
   33.0710   33.3000   31.2090 H   0  0  0  0  0  0  0  0  0  0  0  0
   32.7700   31.1500   31.3340 N   0  0  0  0  0  0  0  0  0  0  0  0
   33.0630   30.8060   30.3740 H   0  0  0  0  0  0  0  0  0  0  0  0
   32.3420   30.3640   32.2950 N   0  0  0  0  0  0  0  0  0  0  0  0
  1  7  1  6  0  0  0
  1 22  1  0  0  0  0
  1  2  1  0  0  0  0
  2  9  1  0  0  0  0
  2  8  1  0  0  0  0
  3  2  1  0  0  0  0
  3 11  1  0  0  0  0
  4 13  1  0  0  0  0
  4  3  1  0  0  0  0
  5  6  1  0  0  0  0
  5  4  1  0  0  0  0
  6 16  1  1  0  0  0
  6  1  1  0  0  0  0
 10  3  1  0  0  0  0
 12  4  1  0  0  0  0
 14  5  1  0  0  0  0
 15  5  1  0  0  0  0
 17 18  2  0  0  0  0
 17 22  1  0  0  0  0
 18 19  1  0  0  0  0
 19 24  1  0  0  0  0
 19 20  2  0  0  0  0
 20 25  1  0  0  0  0
 21 20  1  0  0  0  0
 21 26  1  0  0  0  0
 22 21  2  0  0  0  0
 23 18  1  0  0  0  0
 27 33  1  0  0  0  0
 27 28  1  0  0  0  0
 28 34  1  0  0  0  0
 29 28  2  0  0  0  0
 29 17  1  0  0  0  0
 30 29  1  0  0  0  0
 31 32  1  0  0  0  0
 31 30  2  0  0  0  0
 32 27  2  0  0  0  0
 35 31  1  0  0  0  0
 36  6  1  0  0  0  0
 37 36  1  0  0  0  0
 37 38  1  0  0  0  0
 39 37  2  0  0  0  0
 40 39  1  0  0  0  0
 41 39  1  0  0  0  0
 41 43  1  0  0  0  0
 42 41  1  0  0  0  0
 43 36  2  0  0  0  0
M  END
>  <minimizedAffinity>
-5.22771358

$$$$

 OpenBabel03272503543D

 43 46  0  0  1  0  0  0  0  0999 V2000
   39.2760   25.4940   32.5760 C   0  0  1  0  0  0  0  0  0  0  0  0
   39.7530   26.4120   31.4220 C   0  0  0  0  0  0  0  0  0  0  0  0
   41.2330   26.6700   31.7610 C   0  0  0  0  0  0  0  0  0  0  0  0
   41.2610   27.5620   32.9530 C   0  0  0  0  0  0  0  0  0  0  0  0
   40.5720   26.9110   34.1110 C   0  0  0  0  0  0  0  0  0  0  0  0
   39.1940   26.4000   33.7710 C   0  0  2  0  0  0  0  0  0  0  0  0
   40.0770   24.7540   32.6460 H   0  0  0  0  0  0  0  0  0  0  0  0
   39.7310   25.8810   30.4540 H   0  0  0  0  0  0  0  0  0  0  0  0
   39.1780   27.3560   31.4000 H   0  0  0  0  0  0  0  0  0  0  0  0
   41.6440   25.6780   32.0640 H   0  0  0  0  0  0  0  0  0  0  0  0
   41.8020   27.0240   30.9070 H   0  0  0  0  0  0  0  0  0  0  0  0
   42.3130   27.7500   33.2540 H   0  0  0  0  0  0  0  0  0  0  0  0
   40.7690   28.5230   32.7480 H   0  0  0  0  0  0  0  0  0  0  0  0
   41.1910   26.0790   34.5530 H   0  0  0  0  0  0  0  0  0  0  0  0
   40.4840   27.6660   34.9360 H   0  0  0  0  0  0  0  0  0  0  0  0
   38.5520   27.2650   33.6360 H   0  0  0  0  0  0  0  0  0  0  0  0
   36.8620   25.4620   31.8780 C   0  0  0  0  0  0  0  0  0  0  0  0
   35.7290   24.7330   31.5250 C   0  0  0  0  0  0  0  0  0  0  0  0
   35.7550   23.3260   31.5480 C   0  0  0  0  0  0  0  0  0  0  0  0
   36.9270   22.7160   31.9290 C   0  0  0  0  0  0  0  0  0  0  0  0
   38.0510   23.4220   32.2800 C   0  0  0  0  0  0  0  0  0  0  0  0
   38.0130   24.8310   32.2520 C   0  0  0  0  0  0  0  0  0  0  0  0
   34.8090   25.2150   31.2250 H   0  0  0  0  0  0  0  0  0  0  0  0
   34.8490   22.8100   31.2640 H   0  0  0  0  0  0  0  0  0  0  0  0
   36.9000   21.6270   31.9330 H   0  0  0  0  0  0  0  0  0  0  0  0
   38.8870   22.8250   32.5550 H   0  0  0  0  0  0  0  0  0  0  0  0
   36.7210   29.0690   30.7750 C   0  0  0  0  0  0  0  0  0  0  0  0
   36.9050   27.6680   30.6950 C   0  0  0  0  0  0  0  0  0  0  0  0
   36.7100   26.8980   31.8380 C   0  0  0  0  0  0  0  0  0  0  0  0
   36.3540   27.5590   32.9560 N   0  0  0  0  0  0  0  0  0  0  0  0
   36.1790   28.8890   33.0290 C   0  0  0  0  0  0  0  0  0  0  0  0
   36.3620   29.6300   31.9460 N   0  0  0  0  0  0  0  0  0  0  0  0
   36.9000   29.5370   29.8330 H   0  0  0  0  0  0  0  0  0  0  0  0
   37.1880   27.1350   29.8100 H   0  0  0  0  0  0  0  0  0  0  0  0
   35.8920   29.3850   33.9450 H   0  0  0  0  0  0  0  0  0  0  0  0
   38.7920   25.5420   34.9210 C   0  0  0  0  0  0  0  0  0  0  0  0
   37.6810   25.5300   35.7040 C   0  0  0  0  0  0  0  0  0  0  0  0
   36.8580   26.2190   35.5770 H   0  0  0  0  0  0  0  0  0  0  0  0
   37.8080   24.5230   36.6380 C   0  0  0  0  0  0  0  0  0  0  0  0
   37.1100   24.2460   37.4030 H   0  0  0  0  0  0  0  0  0  0  0  0
   39.0090   23.9460   36.3880 N   0  0  0  0  0  0  0  0  0  0  0  0
   39.4410   23.1310   36.9150 H   0  0  0  0  0  0  0  0  0  0  0  0
   39.5850   24.5510   35.3750 N   0  0  0  0  0  0  0  0  0  0  0  0
  1  7  1  1  0  0  0
  1  6  1  0  0  0  0
  2  3  1  0  0  0  0
  2  1  1  0  0  0  0
  3 10  1  0  0  0  0
  3  4  1  0  0  0  0
  4 12  1  0  0  0  0
  4  5  1  0  0  0  0
  5 14  1  0  0  0  0
  5 15  1  0  0  0  0
  6 16  1  6  0  0  0
  6  5  1  0  0  0  0
  6 36  1  0  0  0  0
  8  2  1  0  0  0  0
  9  2  1  0  0  0  0
 11  3  1  0  0  0  0
 13  4  1  0  0  0  0
 17 22  1  0  0  0  0
 18 19  1  0  0  0  0
 18 17  2  0  0  0  0
 19 20  2  0  0  0  0
 20 25  1  0  0  0  0
 20 21  1  0  0  0  0
 21 26  1  0  0  0  0
 22 21  2  0  0  0  0
 22  1  1  0  0  0  0
 23 18  1  0  0  0  0
 24 19  1  0  0  0  0
 27 32  1  0  0  0  0
 28 27  2  0  0  0  0
 28 29  1  0  0  0  0
 29 17  1  0  0  0  0
 29 30  2  0  0  0  0
 30 31  1  0  0  0  0
 31 35  1  0  0  0  0
 32 31  2  0  0  0  0
 33 27  1  0  0  0  0
 34 28  1  0  0  0  0
 36 43  2  0  0  0  0
 36 37  1  0  0  0  0
 37 39  2  0  0  0  0
 38 37  1  0  0  0  0
 39 40  1  0  0  0  0
 41 39  1  0  0  0  0
 41 42  1  0  0  0  0
 43 41  1  0  0  0  0
M  END
>  <minimizedAffinity>
-5.20421791

$$$$

 OpenBabel03272503543D

 43 46  0  0  1  0  0  0  0  0999 V2000
   38.4680   26.5850   34.1140 C   0  0  1  0  0  0  0  0  0  0  0  0
   38.1200   27.8360   34.9600 C   0  0  0  0  0  0  0  0  0  0  0  0
   36.5870   27.9300   34.8400 C   0  0  0  0  0  0  0  0  0  0  0  0
   36.2810   28.3530   33.4460 C   0  0  0  0  0  0  0  0  0  0  0  0
   36.8150   27.3570   32.4660 C   0  0  0  0  0  0  0  0  0  0  0  0
   38.2690   27.0230   32.6910 C   0  0  2  0  0  0  0  0  0  0  0  0
   37.7330   25.8500   34.4490 H   0  0  0  0  0  0  0  0  0  0  0  0
   38.3510   27.6730   36.0280 H   0  0  0  0  0  0  0  0  0  0  0  0
   38.6080   28.7410   34.5550 H   0  0  0  0  0  0  0  0  0  0  0  0
   36.2150   26.8860   34.9720 H   0  0  0  0  0  0  0  0  0  0  0  0
   36.1440   28.5460   35.6170 H   0  0  0  0  0  0  0  0  0  0  0  0
   35.1810   28.4040   33.3050 H   0  0  0  0  0  0  0  0  0  0  0  0
   36.7180   29.3370   33.2200 H   0  0  0  0  0  0  0  0  0  0  0  0
   36.2020   26.4100   32.4550 H   0  0  0  0  0  0  0  0  0  0  0  0
   36.6970   27.7810   31.4350 H   0  0  0  0  0  0  0  0  0  0  0  0
   38.8490   27.8950   32.4040 H   0  0  0  0  0  0  0  0  0  0  0  0
   40.1370   24.8450   34.8230 C   0  0  0  0  0  0  0  0  0  0  0  0
   41.4650   24.4630   34.9990 C   0  0  0  0  0  0  0  0  0  0  0  0
   42.5060   25.3740   34.7390 C   0  0  0  0  0  0  0  0  0  0  0  0
   42.1580   26.6340   34.3110 C   0  0  0  0  0  0  0  0  0  0  0  0
   40.8540   27.0240   34.1330 C   0  0  0  0  0  0  0  0  0  0  0  0
   39.8200   26.1020   34.3970 C   0  0  0  0  0  0  0  0  0  0  0  0
   41.7350   23.4720   35.3360 H   0  0  0  0  0  0  0  0  0  0  0  0
   43.5170   25.0260   34.8910 H   0  0  0  0  0  0  0  0  0  0  0  0
   42.9960   27.3040   34.1220 H   0  0  0  0  0  0  0  0  0  0  0  0
   40.7280   28.0260   33.8000 H   0  0  0  0  0  0  0  0  0  0  0  0
   37.5580   22.7120   36.5680 C   0  0  0  0  0  0  0  0  0  0  0  0
   38.5070   23.7430   36.3720 C   0  0  0  0  0  0  0  0  0  0  0  0
   39.1560   23.8340   35.1430 C   0  0  0  0  0  0  0  0  0  0  0  0
   38.8240   22.9150   34.2170 N   0  0  0  0  0  0  0  0  0  0  0  0
   37.9210   21.9370   34.4070 C   0  0  0  0  0  0  0  0  0  0  0  0
   37.2990   21.8430   35.5720 N   0  0  0  0  0  0  0  0  0  0  0  0
   37.1370   22.7560   37.5470 H   0  0  0  0  0  0  0  0  0  0  0  0
   38.7780   24.4770   37.1030 H   0  0  0  0  0  0  0  0  0  0  0  0
   37.6800   21.2170   33.6380 H   0  0  0  0  0  0  0  0  0  0  0  0
   38.5400   25.8300   31.8420 C   0  0  0  0  0  0  0  0  0  0  0  0
   39.5680   25.5180   31.0100 C   0  0  0  0  0  0  0  0  0  0  0  0
   40.4130   26.1710   30.8390 H   0  0  0  0  0  0  0  0  0  0  0  0
   39.3310   24.2760   30.4590 C   0  0  0  0  0  0  0  0  0  0  0  0
   39.9460   23.7390   29.7630 H   0  0  0  0  0  0  0  0  0  0  0  0
   38.1500   23.8660   30.9820 N   0  0  0  0  0  0  0  0  0  0  0  0
   37.6540   22.9490   30.7810 H   0  0  0  0  0  0  0  0  0  0  0  0
   37.6880   24.7860   31.7970 N   0  0  0  0  0  0  0  0  0  0  0  0
  1 22  1  0  0  0  0
  1  7  1  1  0  0  0
  1  2  1  0  0  0  0
  2  8  1  0  0  0  0
  3  2  1  0  0  0  0
  3 10  1  0  0  0  0
  3 11  1  0  0  0  0
  4  3  1  0  0  0  0
  5  6  1  0  0  0  0
  5  4  1  0  0  0  0
  6 16  1  6  0  0  0
  6  1  1  0  0  0  0
  9  2  1  0  0  0  0
 12  4  1  0  0  0  0
 13  4  1  0  0  0  0
 14  5  1  0  0  0  0
 15  5  1  0  0  0  0
 17 18  1  0  0  0  0
 17 29  1  0  0  0  0
 18 23  1  0  0  0  0
 19 24  1  0  0  0  0
 19 18  2  0  0  0  0
 20 19  1  0  0  0  0
 21 20  2  0  0  0  0
 21 22  1  0  0  0  0
 22 17  2  0  0  0  0
 25 20  1  0  0  0  0
 26 21  1  0  0  0  0
 27 33  1  0  0  0  0
 28 27  1  0  0  0  0
 28 34  1  0  0  0  0
 29 28  2  0  0  0  0
 30 31  2  0  0  0  0
 30 29  1  0  0  0  0
 31 32  1  0  0  0  0
 32 27  2  0  0  0  0
 35 31  1  0  0  0  0
 36  6  1  0  0  0  0
 37 36  1  0  0  0  0
 38 37  1  0  0  0  0
 39 41  1  0  0  0  0
 39 37  2  0  0  0  0
 40 39  1  0  0  0  0
 41 43  1  0  0  0  0
 42 41  1  0  0  0  0
 43 36  2  0  0  0  0
M  END
>  <minimizedAffinity>
-5.036901

$$$$

 OpenBabel03272503543D

 43 46  0  0  1  0  0  0  0  0999 V2000
   37.7200   24.9170   32.0620 C   0  0  1  0  0  0  0  0  0  0  0  0
   37.6650   23.4040   32.3970 C   0  0  0  0  0  0  0  0  0  0  0  0
   37.0200   22.7860   31.1420 C   0  0  0  0  0  0  0  0  0  0  0  0
   35.5890   23.1960   31.1380 C   0  0  0  0  0  0  0  0  0  0  0  0
   35.4710   24.6870   31.0970 C   0  0  0  0  0  0  0  0  0  0  0  0
   36.2930   25.3770   32.1570 C   0  0  2  0  0  0  0  0  0  0  0  0
   38.1140   24.9280   31.0430 H   0  0  0  0  0  0  0  0  0  0  0  0
   38.6800   22.9770   32.4820 H   0  0  0  0  0  0  0  0  0  0  0  0
   37.0500   23.2170   33.2960 H   0  0  0  0  0  0  0  0  0  0  0  0
   37.5230   23.2810   30.2770 H   0  0  0  0  0  0  0  0  0  0  0  0
   37.1940   21.7160   31.0670 H   0  0  0  0  0  0  0  0  0  0  0  0
   35.0900   22.7970   30.2290 H   0  0  0  0  0  0  0  0  0  0  0  0
   35.0620   22.8270   32.0290 H   0  0  0  0  0  0  0  0  0  0  0  0
   35.7310   25.1010   30.0800 H   0  0  0  0  0  0  0  0  0  0  0  0
   34.3920   24.9570   31.2430 H   0  0  0  0  0  0  0  0  0  0  0  0
   35.8200   25.1790   33.1130 H   0  0  0  0  0  0  0  0  0  0  0  0
   39.6260   26.4780   32.5580 C   0  0  0  0  0  0  0  0  0  0  0  0
   40.3960   27.1670   33.4920 C   0  0  0  0  0  0  0  0  0  0  0  0
   40.1560   27.0010   34.8690 C   0  0  0  0  0  0  0  0  0  0  0  0
   39.1470   26.1450   35.2420 C   0  0  0  0  0  0  0  0  0  0  0  0
   38.3810   25.4600   34.3320 C   0  0  0  0  0  0  0  0  0  0  0  0
   38.6300   25.6340   32.9550 C   0  0  0  0  0  0  0  0  0  0  0  0
   41.1880   27.8400   33.1960 H   0  0  0  0  0  0  0  0  0  0  0  0
   40.7820   27.5600   35.5500 H   0  0  0  0  0  0  0  0  0  0  0  0
   38.9980   26.0480   36.3160 H   0  0  0  0  0  0  0  0  0  0  0  0
   37.6360   24.8300   34.7580 H   0  0  0  0  0  0  0  0  0  0  0  0
   40.9870   26.1470   29.0530 C   0  0  0  0  0  0  0  0  0  0  0  0
   40.7070   25.8140   30.3990 C   0  0  0  0  0  0  0  0  0  0  0  0
   39.9780   26.7100   31.1760 C   0  0  0  0  0  0  0  0  0  0  0  0
   39.5880   27.8490   30.5740 N   0  0  0  0  0  0  0  0  0  0  0  0
   39.8540   28.1620   29.2940 C   0  0  0  0  0  0  0  0  0  0  0  0
   40.5470   27.3150   28.5470 N   0  0  0  0  0  0  0  0  0  0  0  0
   41.5490   25.3770   28.5740 H   0  0  0  0  0  0  0  0  0  0  0  0
   41.0150   24.9100   30.8860 H   0  0  0  0  0  0  0  0  0  0  0  0
   39.5230   29.0860   28.8440 H   0  0  0  0  0  0  0  0  0  0  0  0
   36.2920   26.8200   31.7860 C   0  0  0  0  0  0  0  0  0  0  0  0
   36.2420   27.9530   32.5340 C   0  0  0  0  0  0  0  0  0  0  0  0
   36.1900   27.9490   33.6140 H   0  0  0  0  0  0  0  0  0  0  0  0
   36.2690   29.0430   31.6900 C   0  0  0  0  0  0  0  0  0  0  0  0
   36.2430   30.0810   31.9590 H   0  0  0  0  0  0  0  0  0  0  0  0
   36.3360   28.5310   30.4370 N   0  0  0  0  0  0  0  0  0  0  0  0
   36.3730   29.0810   29.5300 H   0  0  0  0  0  0  0  0  0  0  0  0
   36.3500   27.2190   30.4990 N   0  0  0  0  0  0  0  0  0  0  0  0
  1  7  1  6  0  0  0
  1  6  1  0  0  0  0
  1  2  1  0  0  0  0
  1 22  1  0  0  0  0
  2  8  1  0  0  0  0
  2  9  1  0  0  0  0
  3  2  1  0  0  0  0
  4  3  1  0  0  0  0
  4 13  1  0  0  0  0
  5  4  1  0  0  0  0
  5 15  1  0  0  0  0
  5  6  1  0  0  0  0
  6 16  1  1  0  0  0
 10  3  1  0  0  0  0
 11  3  1  0  0  0  0
 12  4  1  0  0  0  0
 14  5  1  0  0  0  0
 17 22  2  0  0  0  0
 17 18  1  0  0  0  0
 18 19  2  0  0  0  0
 19 20  1  0  0  0  0
 19 24  1  0  0  0  0
 20 25  1  0  0  0  0
 21 26  1  0  0  0  0
 21 20  2  0  0  0  0
 22 21  1  0  0  0  0
 23 18  1  0  0  0  0
 27 28  1  0  0  0  0
 28 34  1  0  0  0  0
 28 29  2  0  0  0  0
 29 17  1  0  0  0  0
 30 29  1  0  0  0  0
 31 30  2  0  0  0  0
 32 27  2  0  0  0  0
 32 31  1  0  0  0  0
 33 27  1  0  0  0  0
 35 31  1  0  0  0  0
 36  6  1  0  0  0  0
 36 37  1  0  0  0  0
 37 38  1  0  0  0  0
 39 40  1  0  0  0  0
 39 37  2  0  0  0  0
 41 43  1  0  0  0  0
 41 39  1  0  0  0  0
 42 41  1  0  0  0  0
 43 36  2  0  0  0  0
M  END
>  <minimizedAffinity>
-5.00004101

$$$$

 OpenBabel03272503543D

 43 46  0  0  1  0  0  0  0  0999 V2000
   39.0420   26.3600   33.1620 C   0  0  1  0  0  0  0  0  0  0  0  0
   39.9320   27.0850   34.2030 C   0  0  0  0  0  0  0  0  0  0  0  0
   39.2110   26.8120   35.5370 C   0  0  0  0  0  0  0  0  0  0  0  0
   37.9570   27.6130   35.5300 C   0  0  0  0  0  0  0  0  0  0  0  0
   37.0850   27.2120   34.3820 C   0  0  0  0  0  0  0  0  0  0  0  0
   37.8090   27.2120   33.0580 C   0  0  2  0  0  0  0  0  0  0  0  0
   38.8610   25.3880   33.6290 H   0  0  0  0  0  0  0  0  0  0  0  0
   40.9290   26.6150   34.2730 H   0  0  0  0  0  0  0  0  0  0  0  0
   39.9880   28.1680   33.9940 H   0  0  0  0  0  0  0  0  0  0  0  0
   38.9300   25.7320   35.5060 H   0  0  0  0  0  0  0  0  0  0  0  0
   39.8540   26.9690   36.3990 H   0  0  0  0  0  0  0  0  0  0  0  0
   37.3860   27.4220   36.4640 H   0  0  0  0  0  0  0  0  0  0  0  0
   38.1670   28.6890   35.4510 H   0  0  0  0  0  0  0  0  0  0  0  0
   36.6010   26.2080   34.5540 H   0  0  0  0  0  0  0  0  0  0  0  0
   36.2270   27.9320   34.3240 H   0  0  0  0  0  0  0  0  0  0  0  0
   38.0000   28.2470   32.7940 H   0  0  0  0  0  0  0  0  0  0  0  0
   40.0340   24.9760   31.3130 C   0  0  0  0  0  0  0  0  0  0  0  0
   40.6430   24.9110   30.0630 C   0  0  0  0  0  0  0  0  0  0  0  0
   40.9680   26.0930   29.3700 C   0  0  0  0  0  0  0  0  0  0  0  0
   40.6610   27.2900   29.9740 C   0  0  0  0  0  0  0  0  0  0  0  0
   40.0610   27.3680   31.2050 C   0  0  0  0  0  0  0  0  0  0  0  0
   39.7400   26.1770   31.8890 C   0  0  0  0  0  0  0  0  0  0  0  0
   40.8830   23.9690   29.5910 H   0  0  0  0  0  0  0  0  0  0  0  0
   41.4390   25.9860   28.4040 H   0  0  0  0  0  0  0  0  0  0  0  0
   40.9310   28.1770   29.4010 H   0  0  0  0  0  0  0  0  0  0  0  0
   39.8820   28.3570   31.5550 H   0  0  0  0  0  0  0  0  0  0  0  0
   40.1120   21.9540   33.5730 C   0  0  0  0  0  0  0  0  0  0  0  0
   40.4640   23.2170   33.0430 C   0  0  0  0  0  0  0  0  0  0  0  0
   39.7690   23.7000   31.9380 C   0  0  0  0  0  0  0  0  0  0  0  0
   38.7950   22.9110   31.4480 N   0  0  0  0  0  0  0  0  0  0  0  0
   38.4620   21.7110   31.9540 C   0  0  0  0  0  0  0  0  0  0  0  0
   39.1180   21.2440   33.0060 N   0  0  0  0  0  0  0  0  0  0  0  0
   40.7190   21.7050   34.4150 H   0  0  0  0  0  0  0  0  0  0  0  0
   41.2390   23.8510   33.4270 H   0  0  0  0  0  0  0  0  0  0  0  0
   37.6720   21.1060   31.5340 H   0  0  0  0  0  0  0  0  0  0  0  0
   36.8990   26.5180   32.1050 C   0  0  0  0  0  0  0  0  0  0  0  0
   36.3510   25.2740   32.1100 C   0  0  0  0  0  0  0  0  0  0  0  0
   36.5270   24.5510   32.8930 H   0  0  0  0  0  0  0  0  0  0  0  0
   35.5710   25.1290   30.9810 C   0  0  0  0  0  0  0  0  0  0  0  0
   35.0020   24.2710   30.6830 H   0  0  0  0  0  0  0  0  0  0  0  0
   35.6710   26.3060   30.3170 N   0  0  0  0  0  0  0  0  0  0  0  0
   35.2010   26.5560   29.3990 H   0  0  0  0  0  0  0  0  0  0  0  0
   36.4550   27.1220   30.9840 N   0  0  0  0  0  0  0  0  0  0  0  0
  1  7  1  1  0  0  0
  1  2  1  0  0  0  0
  2  8  1  0  0  0  0
  2  3  1  0  0  0  0
  3 11  1  0  0  0  0
  4  3  1  0  0  0  0
  4 12  1  0  0  0  0
  5 14  1  0  0  0  0
  5  4  1  0  0  0  0
  6 16  1  6  0  0  0
  6  1  1  0  0  0  0
  6  5  1  0  0  0  0
  9  2  1  0  0  0  0
 10  3  1  0  0  0  0
 13  4  1  0  0  0  0
 15  5  1  0  0  0  0
 17 22  1  0  0  0  0
 17 29  1  0  0  0  0
 18 17  2  0  0  0  0
 19 20  2  0  0  0  0
 19 18  1  0  0  0  0
 20 21  1  0  0  0  0
 21 26  1  0  0  0  0
 21 22  2  0  0  0  0
 22  1  1  0  0  0  0
 23 18  1  0  0  0  0
 24 19  1  0  0  0  0
 25 20  1  0  0  0  0
 27 33  1  0  0  0  0
 28 34  1  0  0  0  0
 28 27  1  0  0  0  0
 29 28  2  0  0  0  0
 30 29  1  0  0  0  0
 30 31  2  0  0  0  0
 31 32  1  0  0  0  0
 32 27  2  0  0  0  0
 35 31  1  0  0  0  0
 36 37  1  0  0  0  0
 36  6  1  0  0  0  0
 37 38  1  0  0  0  0
 39 37  2  0  0  0  0
 40 39  1  0  0  0  0
 41 39  1  0  0  0  0
 41 43  1  0  0  0  0
 42 41  1  0  0  0  0
 43 36  2  0  0  0  0
M  END
>  <minimizedAffinity>
-4.99604034

$$$$
