
 OpenBabel03272503003D

 33 35  0  0  1  0  0  0  0  0999 V2000
   38.2120   24.9080   34.0890 N   0  0  0  0  0  0  0  0  0  0  0  0
   37.8810   26.0120   34.9410 C   0  0  0  0  0  0  0  0  0  0  0  0
   38.8650   27.0860   35.1120 C   0  0  0  0  0  0  0  0  0  0  0  0
   40.2930   26.7540   34.9200 C   0  0  0  0  0  0  0  0  0  0  0  0
   40.5470   25.5100   34.1040 C   0  0  0  0  0  0  0  0  0  0  0  0
   39.5210   24.4500   34.4750 C   0  0  1  0  0  0  0  0  0  0  0  0
   36.9020   26.4190   34.5530 H   0  0  0  0  0  0  0  0  0  0  0  0
   37.6220   25.5750   35.9400 H   0  0  0  0  0  0  0  0  0  0  0  0
   38.7460   27.5250   36.1330 H   0  0  0  0  0  0  0  0  0  0  0  0
   38.5780   27.9220   34.4120 H   0  0  0  0  0  0  0  0  0  0  0  0
   40.8120   27.5940   34.3920 H   0  0  0  0  0  0  0  0  0  0  0  0
   40.8390   26.6370   35.8920 H   0  0  0  0  0  0  0  0  0  0  0  0
   40.4900   25.6520   33.0200 H   0  0  0  0  0  0  0  0  0  0  0  0
   41.5530   25.1020   34.3880 H   0  0  0  0  0  0  0  0  0  0  0  0
   39.8190   23.4910   34.0050 H   0  0  0  0  0  0  0  0  0  0  0  0
   37.3980   24.3630   33.0500 C   0  0  0  0  0  0  0  0  0  0  0  0
   36.6590   25.1210   32.1430 C   0  0  0  0  0  0  0  0  0  0  0  0
   35.9130   24.4530   31.1850 C   0  0  0  0  0  0  0  0  0  0  0  0
   35.9470   23.0860   31.1880 N   0  0  0  0  0  0  0  0  0  0  0  0
   36.6680   22.3960   32.0760 C   0  0  0  0  0  0  0  0  0  0  0  0
   37.4020   23.0280   33.0170 N   0  0  0  0  0  0  0  0  0  0  0  0
   36.7070   26.1770   32.2340 H   0  0  0  0  0  0  0  0  0  0  0  0
   35.3510   25.0630   30.4940 H   0  0  0  0  0  0  0  0  0  0  0  0
   36.6470   21.3150   32.0170 H   0  0  0  0  0  0  0  0  0  0  0  0
   39.6510   24.2990   35.8590 O   0  0  0  0  0  0  0  0  0  0  0  0
   40.2920   23.2210   36.4560 C   0  0  0  0  0  0  0  0  0  0  0  0
   41.4370   22.5090   36.0850 C   0  0  0  0  0  0  0  0  0  0  0  0
   42.0100   22.7470   35.2000 H   0  0  0  0  0  0  0  0  0  0  0  0
   41.6810   21.5110   37.0070 C   0  0  0  0  0  0  0  0  0  0  0  0
   42.5140   20.8550   36.9010 H   0  0  0  0  0  0  0  0  0  0  0  0
   40.6750   21.6380   37.9200 N   0  0  0  0  0  0  0  0  0  0  0  0
   40.6600   20.9690   38.7260 H   0  0  0  0  0  0  0  0  0  0  0  0
   39.8690   22.6360   37.5920 N   0  0  0  0  0  0  0  0  0  0  0  0
  1  6  1  0  0  0  0
  1  2  1  0  0  0  0
  2  3  1  0  0  0  0
  2  8  1  0  0  0  0
  3  9  1  0  0  0  0
  4  3  1  0  0  0  0
  4 12  1  0  0  0  0
  5 14  1  0  0  0  0
  5  6  1  0  0  0  0
  5  4  1  0  0  0  0
  6 15  1  6  0  0  0
  6 25  1  0  0  0  0
  7  2  1  0  0  0  0
 10  3  1  0  0  0  0
 11  4  1  0  0  0  0
 13  5  1  0  0  0  0
 16  1  1  0  0  0  0
 17 22  1  0  0  0  0
 17 16  2  0  0  0  0
 18 19  2  0  0  0  0
 18 17  1  0  0  0  0
 19 20  1  0  0  0  0
 20 21  2  0  0  0  0
 21 16  1  0  0  0  0
 23 18  1  0  0  0  0
 24 20  1  0  0  0  0
 25 26  1  0  0  0  0
 26 33  2  0  0  0  0
 27 26  1  0  0  0  0
 27 29  2  0  0  0  0
 28 27  1  0  0  0  0
 29 31  1  0  0  0  0
 30 29  1  0  0  0  0
 31 32  1  0  0  0  0
 33 31  1  0  0  0  0
M  END
>  <minimizedAffinity>
-4.97500467

$$$$

 OpenBabel03272503003D

 33 35  0  0  1  0  0  0  0  0999 V2000
   38.1840   25.6280   33.4640 N   0  0  0  0  0  0  0  0  0  0  0  0
   37.0420   26.4260   33.7960 C   0  0  0  0  0  0  0  0  0  0  0  0
   37.2220   27.5690   34.6980 C   0  0  0  0  0  0  0  0  0  0  0  0
   38.3460   27.5230   35.6560 C   0  0  0  0  0  0  0  0  0  0  0  0
   39.4550   26.5710   35.2830 C   0  0  0  0  0  0  0  0  0  0  0  0
   38.8500   25.3030   34.6980 C   0  0  1  0  0  0  0  0  0  0  0  0
   36.5970   26.7540   32.8120 H   0  0  0  0  0  0  0  0  0  0  0  0
   36.2780   25.7250   34.2240 H   0  0  0  0  0  0  0  0  0  0  0  0
   36.2790   27.7240   35.2780 H   0  0  0  0  0  0  0  0  0  0  0  0
   37.3120   28.4930   34.0590 H   0  0  0  0  0  0  0  0  0  0  0  0
   38.8140   28.5370   35.7450 H   0  0  0  0  0  0  0  0  0  0  0  0
   38.0130   27.2630   36.6950 H   0  0  0  0  0  0  0  0  0  0  0  0
   40.1680   26.9590   34.5480 H   0  0  0  0  0  0  0  0  0  0  0  0
   39.9920   26.2700   36.2220 H   0  0  0  0  0  0  0  0  0  0  0  0
   39.6520   24.5460   34.5900 H   0  0  0  0  0  0  0  0  0  0  0  0
   38.5890   25.2280   32.1540 C   0  0  0  0  0  0  0  0  0  0  0  0
   39.7730   25.6270   31.5350 C   0  0  0  0  0  0  0  0  0  0  0  0
   40.0350   25.1580   30.2580 C   0  0  0  0  0  0  0  0  0  0  0  0
   39.1140   24.3300   29.6800 N   0  0  0  0  0  0  0  0  0  0  0  0
   37.9890   23.9720   30.3070 C   0  0  0  0  0  0  0  0  0  0  0  0
   37.7150   24.4170   31.5520 N   0  0  0  0  0  0  0  0  0  0  0  0
   40.4150   26.2730   32.0790 H   0  0  0  0  0  0  0  0  0  0  0  0
   40.9590   25.4810   29.8020 H   0  0  0  0  0  0  0  0  0  0  0  0
   37.3060   23.3120   29.7870 H   0  0  0  0  0  0  0  0  0  0  0  0
   37.9670   24.8450   35.6810 O   0  0  0  0  0  0  0  0  0  0  0  0
   38.3750   24.1560   36.8160 C   0  0  0  0  0  0  0  0  0  0  0  0
   37.9940   24.2800   38.1560 C   0  0  0  0  0  0  0  0  0  0  0  0
   37.2620   25.0020   38.4900 H   0  0  0  0  0  0  0  0  0  0  0  0
   38.6860   23.3630   38.9210 C   0  0  0  0  0  0  0  0  0  0  0  0
   38.5340   23.2990   39.9740 H   0  0  0  0  0  0  0  0  0  0  0  0
   39.4740   22.6990   38.0270 N   0  0  0  0  0  0  0  0  0  0  0  0
   40.0980   21.9420   38.3940 H   0  0  0  0  0  0  0  0  0  0  0  0
   39.2880   23.1680   36.8020 N   0  0  0  0  0  0  0  0  0  0  0  0
  1  2  1  0  0  0  0
  1  6  1  0  0  0  0
  2  8  1  0  0  0  0
  2  3  1  0  0  0  0
  3  9  1  0  0  0  0
  3  4  1  0  0  0  0
  4 11  1  0  0  0  0
  4 12  1  0  0  0  0
  5  4  1  0  0  0  0
  5 14  1  0  0  0  0
  6 15  1  6  0  0  0
  6  5  1  0  0  0  0
  6 25  1  0  0  0  0
  7  2  1  0  0  0  0
 10  3  1  0  0  0  0
 13  5  1  0  0  0  0
 16  1  1  0  0  0  0
 17 22  1  0  0  0  0
 17 16  2  0  0  0  0
 18 17  1  0  0  0  0
 19 18  2  0  0  0  0
 19 20  1  0  0  0  0
 20 21  2  0  0  0  0
 21 16  1  0  0  0  0
 23 18  1  0  0  0  0
 24 20  1  0  0  0  0
 25 26  1  0  0  0  0
 26 27  1  0  0  0  0
 27 28  1  0  0  0  0
 27 29  2  0  0  0  0
 29 30  1  0  0  0  0
 31 32  1  0  0  0  0
 31 29  1  0  0  0  0
 33 26  2  0  0  0  0
 33 31  1  0  0  0  0
M  END
>  <minimizedAffinity>
-4.9722209

$$$$

 OpenBabel03272503003D

 33 35  0  0  1  0  0  0  0  0999 V2000
   39.4560   26.3540   34.4510 N   0  0  0  0  0  0  0  0  0  0  0  0
   38.4550   25.9740   33.4990 C   0  0  0  0  0  0  0  0  0  0  0  0
   37.2470   26.7980   33.3840 C   0  0  0  0  0  0  0  0  0  0  0  0
   36.8260   27.5780   34.5670 C   0  0  0  0  0  0  0  0  0  0  0  0
   37.9200   27.8350   35.5740 C   0  0  0  0  0  0  0  0  0  0  0  0
   38.7850   26.5900   35.7020 C   0  0  1  0  0  0  0  0  0  0  0  0
   38.9860   25.8960   32.5060 H   0  0  0  0  0  0  0  0  0  0  0  0
   38.1700   24.9170   33.7430 H   0  0  0  0  0  0  0  0  0  0  0  0
   36.3920   26.1440   33.0790 H   0  0  0  0  0  0  0  0  0  0  0  0
   37.3940   27.4930   32.5100 H   0  0  0  0  0  0  0  0  0  0  0  0
   36.4460   28.5820   34.2460 H   0  0  0  0  0  0  0  0  0  0  0  0
   35.9710   27.1010   35.1120 H   0  0  0  0  0  0  0  0  0  0  0  0
   38.5860   28.6690   35.3270 H   0  0  0  0  0  0  0  0  0  0  0  0
   37.4430   28.0050   36.5760 H   0  0  0  0  0  0  0  0  0  0  0  0
   39.4710   26.7250   36.5620 H   0  0  0  0  0  0  0  0  0  0  0  0
   40.8580   26.4770   34.2070 C   0  0  0  0  0  0  0  0  0  0  0  0
   41.4290   27.3830   33.3150 C   0  0  0  0  0  0  0  0  0  0  0  0
   42.8090   27.3890   33.1820 C   0  0  0  0  0  0  0  0  0  0  0  0
   43.5280   26.5030   33.9350 N   0  0  0  0  0  0  0  0  0  0  0  0
   42.9400   25.6480   34.7790 C   0  0  0  0  0  0  0  0  0  0  0  0
   41.5980   25.6270   34.9230 N   0  0  0  0  0  0  0  0  0  0  0  0
   40.7740   28.0250   32.7830 H   0  0  0  0  0  0  0  0  0  0  0  0
   43.2270   28.1010   32.4860 H   0  0  0  0  0  0  0  0  0  0  0  0
   43.5740   24.9760   35.3430 H   0  0  0  0  0  0  0  0  0  0  0  0
   37.8890   25.5690   36.0340 O   0  0  0  0  0  0  0  0  0  0  0  0
   38.1950   24.5340   36.9090 C   0  0  0  0  0  0  0  0  0  0  0  0
   37.9830   24.3970   38.2840 C   0  0  0  0  0  0  0  0  0  0  0  0
   37.5060   25.1630   38.8800 H   0  0  0  0  0  0  0  0  0  0  0  0
   38.4680   23.1760   38.7080 C   0  0  0  0  0  0  0  0  0  0  0  0
   38.3990   22.8820   39.7300 H   0  0  0  0  0  0  0  0  0  0  0  0
   38.9640   22.5960   37.5780 N   0  0  0  0  0  0  0  0  0  0  0  0
   39.3910   21.6430   37.6650 H   0  0  0  0  0  0  0  0  0  0  0  0
   38.8030   23.3940   36.5330 N   0  0  0  0  0  0  0  0  0  0  0  0
  1  6  1  0  0  0  0
  2  8  1  0  0  0  0
  2  1  1  0  0  0  0
  3  2  1  0  0  0  0
  3  4  1  0  0  0  0
  4 12  1  0  0  0  0
  4  5  1  0  0  0  0
  5  6  1  0  0  0  0
  5 14  1  0  0  0  0
  6 25  1  0  0  0  0
  6 15  1  1  0  0  0
  7  2  1  0  0  0  0
  9  3  1  0  0  0  0
 10  3  1  0  0  0  0
 11  4  1  0  0  0  0
 13  5  1  0  0  0  0
 16  1  1  0  0  0  0
 16 21  1  0  0  0  0
 17 16  2  0  0  0  0
 18 17  1  0  0  0  0
 18 19  2  0  0  0  0
 19 20  1  0  0  0  0
 20 21  2  0  0  0  0
 20 24  1  0  0  0  0
 22 17  1  0  0  0  0
 23 18  1  0  0  0  0
 25 26  1  0  0  0  0
 26 27  1  0  0  0  0
 27 29  2  0  0  0  0
 27 28  1  0  0  0  0
 29 30  1  0  0  0  0
 31 32  1  0  0  0  0
 31 29  1  0  0  0  0
 33 26  2  0  0  0  0
 33 31  1  0  0  0  0
M  END
>  <minimizedAffinity>
-4.91503

$$$$

 OpenBabel03272503003D

 33 35  0  0  1  0  0  0  0  0999 V2000
   38.1700   22.7870   36.0340 N   0  0  0  0  0  0  0  0  0  0  0  0
   39.5750   22.6850   36.2930 C   0  0  0  0  0  0  0  0  0  0  0  0
   40.0320   22.6540   37.6860 C   0  0  0  0  0  0  0  0  0  0  0  0
   39.1770   23.2930   38.7090 C   0  0  0  0  0  0  0  0  0  0  0  0
   37.7320   23.4630   38.3070 C   0  0  0  0  0  0  0  0  0  0  0  0
   37.6650   23.8660   36.8420 C   0  0  1  0  0  0  0  0  0  0  0  0
   39.9270   21.7710   35.7320 H   0  0  0  0  0  0  0  0  0  0  0  0
   40.0590   23.5410   35.7560 H   0  0  0  0  0  0  0  0  0  0  0  0
   41.0470   23.1190   37.7440 H   0  0  0  0  0  0  0  0  0  0  0  0
   40.2020   21.5750   37.9620 H   0  0  0  0  0  0  0  0  0  0  0  0
   39.1770   22.6770   39.6450 H   0  0  0  0  0  0  0  0  0  0  0  0
   39.5610   24.2990   39.0210 H   0  0  0  0  0  0  0  0  0  0  0  0
   37.1130   22.5670   38.4260 H   0  0  0  0  0  0  0  0  0  0  0  0
   37.3000   24.3130   38.8990 H   0  0  0  0  0  0  0  0  0  0  0  0
   36.6220   24.1580   36.6040 H   0  0  0  0  0  0  0  0  0  0  0  0
   37.4080   21.9710   35.1430 C   0  0  0  0  0  0  0  0  0  0  0  0
   36.2780   21.2410   35.5090 C   0  0  0  0  0  0  0  0  0  0  0  0
   35.6380   20.4920   34.5340 C   0  0  0  0  0  0  0  0  0  0  0  0
   36.1560   20.5140   33.2680 N   0  0  0  0  0  0  0  0  0  0  0  0
   37.2440   21.2270   32.9590 C   0  0  0  0  0  0  0  0  0  0  0  0
   37.8810   21.9640   33.8940 N   0  0  0  0  0  0  0  0  0  0  0  0
   35.9650   21.2980   36.5200 H   0  0  0  0  0  0  0  0  0  0  0  0
   34.7660   19.9370   34.8420 H   0  0  0  0  0  0  0  0  0  0  0  0
   37.5960   21.1970   31.9360 H   0  0  0  0  0  0  0  0  0  0  0  0
   38.4550   25.0180   36.7550 O   0  0  0  0  0  0  0  0  0  0  0  0
   38.4480   25.8710   35.6580 C   0  0  0  0  0  0  0  0  0  0  0  0
   37.4060   26.2930   34.8260 C   0  0  0  0  0  0  0  0  0  0  0  0
   36.3840   25.9670   34.9590 H   0  0  0  0  0  0  0  0  0  0  0  0
   37.9020   27.1500   33.8630 C   0  0  0  0  0  0  0  0  0  0  0  0
   37.2610   27.5820   33.1290 H   0  0  0  0  0  0  0  0  0  0  0  0
   39.2360   27.2300   34.1330 N   0  0  0  0  0  0  0  0  0  0  0  0
   39.8240   27.8390   33.5150 H   0  0  0  0  0  0  0  0  0  0  0  0
   39.5480   26.4810   35.1800 N   0  0  0  0  0  0  0  0  0  0  0  0
  1  2  1  0  0  0  0
  1  6  1  0  0  0  0
  2  3  1  0  0  0  0
  3  9  1  0  0  0  0
  3 10  1  0  0  0  0
  3  4  1  0  0  0  0
  4 12  1  0  0  0  0
  4 11  1  0  0  0  0
  5 13  1  0  0  0  0
  5  4  1  0  0  0  0
  5 14  1  0  0  0  0
  6 15  1  6  0  0  0
  6  5  1  0  0  0  0
  7  2  1  0  0  0  0
  8  2  1  0  0  0  0
 16 17  1  0  0  0  0
 16  1  1  0  0  0  0
 17 22  1  0  0  0  0
 18 23  1  0  0  0  0
 18 17  2  0  0  0  0
 19 18  1  0  0  0  0
 20 19  2  0  0  0  0
 20 21  1  0  0  0  0
 21 16  2  0  0  0  0
 24 20  1  0  0  0  0
 25  6  1  0  0  0  0
 26 25  1  0  0  0  0
 27 28  1  0  0  0  0
 27 26  1  0  0  0  0
 29 31  1  0  0  0  0
 29 27  2  0  0  0  0
 30 29  1  0  0  0  0
 31 33  1  0  0  0  0
 32 31  1  0  0  0  0
 33 26  2  0  0  0  0
M  END
>  <minimizedAffinity>
-4.85416555

$$$$

 OpenBabel03272503003D

 33 35  0  0  1  0  0  0  0  0999 V2000
   38.4090   24.4620   35.9180 N   0  0  0  0  0  0  0  0  0  0  0  0
   37.5730   24.7380   37.0480 C   0  0  0  0  0  0  0  0  0  0  0  0
   38.0440   24.3480   38.3820 C   0  0  0  0  0  0  0  0  0  0  0  0
   39.0010   23.2250   38.4770 C   0  0  0  0  0  0  0  0  0  0  0  0
   39.7580   22.9320   37.2050 C   0  0  0  0  0  0  0  0  0  0  0  0
   38.8190   23.0860   36.0170 C   0  0  1  0  0  0  0  0  0  0  0  0
   37.3500   25.8430   37.0060 H   0  0  0  0  0  0  0  0  0  0  0  0
   36.5860   24.2490   36.8390 H   0  0  0  0  0  0  0  0  0  0  0  0
   37.1590   24.1030   39.0190 H   0  0  0  0  0  0  0  0  0  0  0  0
   38.4920   25.2630   38.8630 H   0  0  0  0  0  0  0  0  0  0  0  0
   39.7690   23.4450   39.2620 H   0  0  0  0  0  0  0  0  0  0  0  0
   38.5110   22.2720   38.8050 H   0  0  0  0  0  0  0  0  0  0  0  0
   40.6200   23.5820   37.0230 H   0  0  0  0  0  0  0  0  0  0  0  0
   40.0810   21.8580   37.2270 H   0  0  0  0  0  0  0  0  0  0  0  0
   39.3300   22.7020   35.1120 H   0  0  0  0  0  0  0  0  0  0  0  0
   38.7710   25.3800   34.8850 C   0  0  0  0  0  0  0  0  0  0  0  0
   38.0060   25.6330   33.7480 C   0  0  0  0  0  0  0  0  0  0  0  0
   38.4840   26.5520   32.8270 C   0  0  0  0  0  0  0  0  0  0  0  0
   39.6820   27.1570   33.0920 N   0  0  0  0  0  0  0  0  0  0  0  0
   40.3860   26.8850   34.1950 C   0  0  0  0  0  0  0  0  0  0  0  0
   39.9370   25.9930   35.1040 N   0  0  0  0  0  0  0  0  0  0  0  0
   37.0920   25.1060   33.6460 H   0  0  0  0  0  0  0  0  0  0  0  0
   37.8730   26.7310   31.9560 H   0  0  0  0  0  0  0  0  0  0  0  0
   41.3260   27.4030   34.3380 H   0  0  0  0  0  0  0  0  0  0  0  0
   37.7520   22.2260   36.2950 O   0  0  0  0  0  0  0  0  0  0  0  0
   36.9940   21.6010   35.3120 C   0  0  0  0  0  0  0  0  0  0  0  0
   37.1150   21.5980   33.9190 C   0  0  0  0  0  0  0  0  0  0  0  0
   37.8950   22.1380   33.4000 H   0  0  0  0  0  0  0  0  0  0  0  0
   36.1140   20.8230   33.3690 C   0  0  0  0  0  0  0  0  0  0  0  0
   36.0340   20.6940   32.3140 H   0  0  0  0  0  0  0  0  0  0  0  0
   35.4050   20.3710   34.4430 N   0  0  0  0  0  0  0  0  0  0  0  0
   34.5810   19.7510   34.2590 H   0  0  0  0  0  0  0  0  0  0  0  0
   35.9230   20.8300   35.5720 N   0  0  0  0  0  0  0  0  0  0  0  0
  1  6  1  0  0  0  0
  1  2  1  0  0  0  0
  2  3  1  0  0  0  0
  3  4  1  0  0  0  0
  3 10  1  0  0  0  0
  3  9  1  0  0  0  0
  4 12  1  0  0  0  0
  4 11  1  0  0  0  0
  5 14  1  0  0  0  0
  5  4  1  0  0  0  0
  6 15  1  6  0  0  0
  6 25  1  0  0  0  0
  6  5  1  0  0  0  0
  7  2  1  0  0  0  0
  8  2  1  0  0  0  0
 13  5  1  0  0  0  0
 16 21  1  0  0  0  0
 16  1  1  0  0  0  0
 17 16  2  0  0  0  0
 18 19  2  0  0  0  0
 18 17  1  0  0  0  0
 19 20  1  0  0  0  0
 20 24  1  0  0  0  0
 20 21  2  0  0  0  0
 22 17  1  0  0  0  0
 23 18  1  0  0  0  0
 26 33  2  0  0  0  0
 26 25  1  0  0  0  0
 27 26  1  0  0  0  0
 28 27  1  0  0  0  0
 29 27  2  0  0  0  0
 29 31  1  0  0  0  0
 30 29  1  0  0  0  0
 31 33  1  0  0  0  0
 32 31  1  0  0  0  0
M  END
>  <minimizedAffinity>
-4.84929037

$$$$

 OpenBabel03272503003D

 33 35  0  0  1  0  0  0  0  0999 V2000
   39.2430   24.8700   34.6540 N   0  0  0  0  0  0  0  0  0  0  0  0
   40.4230   24.7360   33.8530 C   0  0  0  0  0  0  0  0  0  0  0  0
   40.9900   25.9380   33.2310 C   0  0  0  0  0  0  0  0  0  0  0  0
   40.0790   27.0680   32.9510 C   0  0  0  0  0  0  0  0  0  0  0  0
   38.8060   27.0680   33.7620 C   0  0  0  0  0  0  0  0  0  0  0  0
   38.2960   25.6400   33.8920 C   0  0  1  0  0  0  0  0  0  0  0  0
   41.1840   24.2220   34.5080 H   0  0  0  0  0  0  0  0  0  0  0  0
   40.1840   23.9790   33.0610 H   0  0  0  0  0  0  0  0  0  0  0  0
   41.4870   25.6480   32.2730 H   0  0  0  0  0  0  0  0  0  0  0  0
   41.8340   26.2920   33.8890 H   0  0  0  0  0  0  0  0  0  0  0  0
   40.5950   28.0370   33.1690 H   0  0  0  0  0  0  0  0  0  0  0  0
   39.7900   27.1260   31.8690 H   0  0  0  0  0  0  0  0  0  0  0  0
   38.9070   27.4700   34.7750 H   0  0  0  0  0  0  0  0  0  0  0  0
   38.0270   27.6410   33.1930 H   0  0  0  0  0  0  0  0  0  0  0  0
   37.2790   25.6680   34.3330 H   0  0  0  0  0  0  0  0  0  0  0  0
   39.0410   24.3410   35.9660 C   0  0  0  0  0  0  0  0  0  0  0  0
   38.0210   24.7350   36.8300 C   0  0  0  0  0  0  0  0  0  0  0  0
   37.9490   24.1330   38.0760 C   0  0  0  0  0  0  0  0  0  0  0  0
   38.8860   23.1850   38.3830 N   0  0  0  0  0  0  0  0  0  0  0  0
   39.8500   22.8370   37.5250 C   0  0  0  0  0  0  0  0  0  0  0  0
   39.9370   23.4120   36.3070 N   0  0  0  0  0  0  0  0  0  0  0  0
   37.3490   25.4800   36.4860 H   0  0  0  0  0  0  0  0  0  0  0  0
   37.1490   24.4550   38.7250 H   0  0  0  0  0  0  0  0  0  0  0  0
   40.5560   22.0780   37.8370 H   0  0  0  0  0  0  0  0  0  0  0  0
   38.1710   25.1870   32.5740 O   0  0  0  0  0  0  0  0  0  0  0  0
   37.0190   25.3500   31.8130 C   0  0  0  0  0  0  0  0  0  0  0  0
   35.8730   24.5580   31.6970 C   0  0  0  0  0  0  0  0  0  0  0  0
   35.7420   23.6360   32.2450 H   0  0  0  0  0  0  0  0  0  0  0  0
   34.9950   25.1440   30.8060 C   0  0  0  0  0  0  0  0  0  0  0  0
   34.0570   24.6910   30.5800 H   0  0  0  0  0  0  0  0  0  0  0  0
   35.6300   26.2800   30.4000 N   0  0  0  0  0  0  0  0  0  0  0  0
   35.1380   26.8940   29.7080 H   0  0  0  0  0  0  0  0  0  0  0  0
   36.8100   26.3940   30.9900 N   0  0  0  0  0  0  0  0  0  0  0  0
  1 16  1  0  0  0  0
  2  7  1  0  0  0  0
  2  1  1  0  0  0  0
  3  2  1  0  0  0  0
  3 10  1  0  0  0  0
  4 11  1  0  0  0  0
  4  3  1  0  0  0  0
  4  5  1  0  0  0  0
  5  6  1  0  0  0  0
  5 13  1  0  0  0  0
  6 15  1  1  0  0  0
  6  1  1  0  0  0  0
  8  2  1  0  0  0  0
  9  3  1  0  0  0  0
 12  4  1  0  0  0  0
 14  5  1  0  0  0  0
 16 21  2  0  0  0  0
 16 17  1  0  0  0  0
 17 18  2  0  0  0  0
 18 19  1  0  0  0  0
 18 23  1  0  0  0  0
 20 24  1  0  0  0  0
 20 19  2  0  0  0  0
 21 20  1  0  0  0  0
 22 17  1  0  0  0  0
 25  6  1  0  0  0  0
 26 25  1  0  0  0  0
 27 26  1  0  0  0  0
 27 28  1  0  0  0  0
 29 27  2  0  0  0  0
 30 29  1  0  0  0  0
 31 29  1  0  0  0  0
 31 33  1  0  0  0  0
 32 31  1  0  0  0  0
 33 26  2  0  0  0  0
M  END
>  <minimizedAffinity>
-4.83887196

$$$$

 OpenBabel03272503003D

 33 35  0  0  1  0  0  0  0  0999 V2000
   39.3640   24.8080   34.5530 N   0  0  0  0  0  0  0  0  0  0  0  0
   40.5260   24.7620   33.7160 C   0  0  0  0  0  0  0  0  0  0  0  0
   41.0280   26.0160   33.1420 C   0  0  0  0  0  0  0  0  0  0  0  0
   40.0640   27.1190   32.9430 C   0  0  0  0  0  0  0  0  0  0  0  0
   38.8150   27.0260   33.7840 C   0  0  0  0  0  0  0  0  0  0  0  0
   38.3660   25.5740   33.8540 C   0  0  1  0  0  0  0  0  0  0  0  0
   41.3260   24.2490   34.3250 H   0  0  0  0  0  0  0  0  0  0  0  0
   40.2970   24.0360   32.8940 H   0  0  0  0  0  0  0  0  0  0  0  0
   41.5090   25.7940   32.1580 H   0  0  0  0  0  0  0  0  0  0  0  0
   41.8740   26.3710   33.7950 H   0  0  0  0  0  0  0  0  0  0  0  0
   40.5470   28.0970   33.1960 H   0  0  0  0  0  0  0  0  0  0  0  0
   39.7440   27.2190   31.8730 H   0  0  0  0  0  0  0  0  0  0  0  0
   38.9270   27.3820   34.8140 H   0  0  0  0  0  0  0  0  0  0  0  0
   37.9980   27.5940   33.2650 H   0  0  0  0  0  0  0  0  0  0  0  0
   37.3620   25.5380   34.3220 H   0  0  0  0  0  0  0  0  0  0  0  0
   39.2200   24.2060   35.8410 C   0  0  0  0  0  0  0  0  0  0  0  0
   40.1100   23.2820   36.3870 C   0  0  0  0  0  0  0  0  0  0  0  0
   39.8410   22.7820   37.6510 C   0  0  0  0  0  0  0  0  0  0  0  0
   38.7160   23.2270   38.2880 N   0  0  0  0  0  0  0  0  0  0  0  0
   37.8870   24.1140   37.7290 C   0  0  0  0  0  0  0  0  0  0  0  0
   38.1320   24.6140   36.4980 N   0  0  0  0  0  0  0  0  0  0  0  0
   40.9510   23.0080   35.8020 H   0  0  0  0  0  0  0  0  0  0  0  0
   40.5450   22.0690   38.0510 H   0  0  0  0  0  0  0  0  0  0  0  0
   37.0160   24.4210   38.2930 H   0  0  0  0  0  0  0  0  0  0  0  0
   38.2240   25.1820   32.5190 O   0  0  0  0  0  0  0  0  0  0  0  0
   37.0540   25.3540   31.7900 C   0  0  0  0  0  0  0  0  0  0  0  0
   35.8950   24.5750   31.7110 C   0  0  0  0  0  0  0  0  0  0  0  0
   35.7700   23.6570   32.2680 H   0  0  0  0  0  0  0  0  0  0  0  0
   34.9990   25.1660   30.8420 C   0  0  0  0  0  0  0  0  0  0  0  0
   34.0500   24.7230   30.6450 H   0  0  0  0  0  0  0  0  0  0  0  0
   35.6350   26.2930   30.4120 N   0  0  0  0  0  0  0  0  0  0  0  0
   35.1310   26.9090   29.7300 H   0  0  0  0  0  0  0  0  0  0  0  0
   36.8330   26.3960   30.9680 N   0  0  0  0  0  0  0  0  0  0  0  0
  1 16  1  0  0  0  0
  2  7  1  0  0  0  0
  2  1  1  0  0  0  0
  3  2  1  0  0  0  0
  3 10  1  0  0  0  0
  4  3  1  0  0  0  0
  4 11  1  0  0  0  0
  4  5  1  0  0  0  0
  5  6  1  0  0  0  0
  5 13  1  0  0  0  0
  6 15  1  1  0  0  0
  6  1  1  0  0  0  0
  8  2  1  0  0  0  0
  9  3  1  0  0  0  0
 12  4  1  0  0  0  0
 14  5  1  0  0  0  0
 16 17  2  0  0  0  0
 16 21  1  0  0  0  0
 17 18  1  0  0  0  0
 18 23  1  0  0  0  0
 18 19  2  0  0  0  0
 20 19  1  0  0  0  0
 20 24  1  0  0  0  0
 21 20  2  0  0  0  0
 22 17  1  0  0  0  0
 25  6  1  0  0  0  0
 26 25  1  0  0  0  0
 27 26  1  0  0  0  0
 27 28  1  0  0  0  0
 29 27  2  0  0  0  0
 30 29  1  0  0  0  0
 31 29  1  0  0  0  0
 31 33  1  0  0  0  0
 32 31  1  0  0  0  0
 33 26  2  0  0  0  0
M  END
>  <minimizedAffinity>
-4.7414937

$$$$

 OpenBabel03272503003D

 33 35  0  0  1  0  0  0  0  0999 V2000
   38.3210   24.2100   33.0080 N   0  0  0  0  0  0  0  0  0  0  0  0
   39.7060   24.2720   32.6490 C   0  0  0  0  0  0  0  0  0  0  0  0
   40.4770   23.0240   32.6060 C   0  0  0  0  0  0  0  0  0  0  0  0
   40.0240   21.9010   33.4530 C   0  0  0  0  0  0  0  0  0  0  0  0
   38.5780   21.9760   33.8790 C   0  0  0  0  0  0  0  0  0  0  0  0
   38.2270   23.4190   34.2070 C   0  0  1  0  0  0  0  0  0  0  0  0
   39.7450   24.8050   31.6560 H   0  0  0  0  0  0  0  0  0  0  0  0
   40.1880   24.9880   33.3650 H   0  0  0  0  0  0  0  0  0  0  0  0
   41.5400   23.2480   32.8670 H   0  0  0  0  0  0  0  0  0  0  0  0
   40.5170   22.6900   31.5310 H   0  0  0  0  0  0  0  0  0  0  0  0
   40.1440   20.9340   32.9010 H   0  0  0  0  0  0  0  0  0  0  0  0
   40.6430   21.7880   34.3800 H   0  0  0  0  0  0  0  0  0  0  0  0
   37.8590   21.6290   33.1290 H   0  0  0  0  0  0  0  0  0  0  0  0
   38.4600   21.3880   34.8280 H   0  0  0  0  0  0  0  0  0  0  0  0
   37.2260   23.4390   34.6830 H   0  0  0  0  0  0  0  0  0  0  0  0
   37.2330   24.8170   32.3090 C   0  0  0  0  0  0  0  0  0  0  0  0
   37.0700   26.1910   32.1390 C   0  0  0  0  0  0  0  0  0  0  0  0
   35.9630   26.6370   31.4350 C   0  0  0  0  0  0  0  0  0  0  0  0
   35.0950   25.6990   30.9480 N   0  0  0  0  0  0  0  0  0  0  0  0
   35.2870   24.3890   31.1340 C   0  0  0  0  0  0  0  0  0  0  0  0
   36.3600   23.9350   31.8170 N   0  0  0  0  0  0  0  0  0  0  0  0
   37.8070   26.8270   32.5600 H   0  0  0  0  0  0  0  0  0  0  0  0
   35.8600   27.7040   31.3170 H   0  0  0  0  0  0  0  0  0  0  0  0
   34.5580   23.7060   30.7200 H   0  0  0  0  0  0  0  0  0  0  0  0
   39.1610   23.7990   35.1770 O   0  0  0  0  0  0  0  0  0  0  0  0
   38.9580   23.6370   36.5420 C   0  0  0  0  0  0  0  0  0  0  0  0
   38.0690   24.2610   37.4220 C   0  0  0  0  0  0  0  0  0  0  0  0
   37.3670   25.0190   37.1020 H   0  0  0  0  0  0  0  0  0  0  0  0
   38.2480   23.7580   38.6950 C   0  0  0  0  0  0  0  0  0  0  0  0
   37.6600   24.1080   39.5120 H   0  0  0  0  0  0  0  0  0  0  0  0
   39.2440   22.8360   38.5600 N   0  0  0  0  0  0  0  0  0  0  0  0
   39.5500   22.3190   39.4180 H   0  0  0  0  0  0  0  0  0  0  0  0
   39.6540   22.7720   37.3020 N   0  0  0  0  0  0  0  0  0  0  0  0
  1  6  1  0  0  0  0
  2  1  1  0  0  0  0
  2  8  1  0  0  0  0
  3  2  1  0  0  0  0
  3  9  1  0  0  0  0
  3  4  1  0  0  0  0
  4  5  1  0  0  0  0
  4 12  1  0  0  0  0
  5  6  1  0  0  0  0
  5 14  1  0  0  0  0
  6 15  1  1  0  0  0
  6 25  1  0  0  0  0
  7  2  1  0  0  0  0
 10  3  1  0  0  0  0
 11  4  1  0  0  0  0
 13  5  1  0  0  0  0
 16  1  1  0  0  0  0
 17 16  1  0  0  0  0
 17 22  1  0  0  0  0
 18 17  2  0  0  0  0
 19 20  2  0  0  0  0
 19 18  1  0  0  0  0
 20 21  1  0  0  0  0
 21 16  2  0  0  0  0
 23 18  1  0  0  0  0
 24 20  1  0  0  0  0
 25 26  1  0  0  0  0
 26 33  2  0  0  0  0
 26 27  1  0  0  0  0
 27 29  2  0  0  0  0
 28 27  1  0  0  0  0
 29 30  1  0  0  0  0
 31 29  1  0  0  0  0
 31 32  1  0  0  0  0
 33 31  1  0  0  0  0
M  END
>  <minimizedAffinity>
-4.70214462

$$$$

 OpenBabel03272503003D

 33 35  0  0  1  0  0  0  0  0999 V2000
   39.4800   26.0370   34.3940 N   0  0  0  0  0  0  0  0  0  0  0  0
   40.7950   26.4670   34.7670 C   0  0  0  0  0  0  0  0  0  0  0  0
   41.9490   25.8610   34.0960 C   0  0  0  0  0  0  0  0  0  0  0  0
   41.7900   24.5000   33.5400 C   0  0  0  0  0  0  0  0  0  0  0  0
   40.3620   24.0870   33.2820 C   0  0  0  0  0  0  0  0  0  0  0  0
   39.4820   24.5980   34.4130 C   0  0  1  0  0  0  0  0  0  0  0  0
   40.7990   27.5890   34.6440 H   0  0  0  0  0  0  0  0  0  0  0  0
   40.8770   26.3110   35.8740 H   0  0  0  0  0  0  0  0  0  0  0  0
   42.8120   25.8460   34.8060 H   0  0  0  0  0  0  0  0  0  0  0  0
   42.2720   26.5640   33.2780 H   0  0  0  0  0  0  0  0  0  0  0  0
   42.3260   24.4240   32.5590 H   0  0  0  0  0  0  0  0  0  0  0  0
   42.2570   23.7150   34.1900 H   0  0  0  0  0  0  0  0  0  0  0  0
   39.9370   24.4620   32.3460 H   0  0  0  0  0  0  0  0  0  0  0  0
   40.3090   22.9660   33.3100 H   0  0  0  0  0  0  0  0  0  0  0  0
   38.4750   24.1450   34.3090 H   0  0  0  0  0  0  0  0  0  0  0  0
   38.3730   26.8770   34.0620 C   0  0  0  0  0  0  0  0  0  0  0  0
   37.4980   27.4360   34.9910 C   0  0  0  0  0  0  0  0  0  0  0  0
   36.4660   28.2330   34.5220 C   0  0  0  0  0  0  0  0  0  0  0  0
   36.3690   28.4230   33.1710 N   0  0  0  0  0  0  0  0  0  0  0  0
   37.2290   27.8670   32.3130 C   0  0  0  0  0  0  0  0  0  0  0  0
   38.2410   27.0880   32.7500 N   0  0  0  0  0  0  0  0  0  0  0  0
   37.6690   27.2210   36.0160 H   0  0  0  0  0  0  0  0  0  0  0  0
   35.8030   28.6550   35.2620 H   0  0  0  0  0  0  0  0  0  0  0  0
   37.0900   28.0630   31.2580 H   0  0  0  0  0  0  0  0  0  0  0  0
   40.0600   24.0760   35.5760 O   0  0  0  0  0  0  0  0  0  0  0  0
   39.3280   23.7200   36.7020 C   0  0  0  0  0  0  0  0  0  0  0  0
   38.0570   24.1080   37.1360 C   0  0  0  0  0  0  0  0  0  0  0  0
   37.4380   24.8000   36.5830 H   0  0  0  0  0  0  0  0  0  0  0  0
   37.7620   23.4770   38.3280 C   0  0  0  0  0  0  0  0  0  0  0  0
   36.8330   23.6420   38.8230 H   0  0  0  0  0  0  0  0  0  0  0  0
   38.8640   22.7180   38.5920 N   0  0  0  0  0  0  0  0  0  0  0  0
   38.8610   22.1410   39.4670 H   0  0  0  0  0  0  0  0  0  0  0  0
   39.7730   22.8650   37.6410 N   0  0  0  0  0  0  0  0  0  0  0  0
  1  6  1  0  0  0  0
  1  2  1  0  0  0  0
  2  8  1  0  0  0  0
  3  2  1  0  0  0  0
  3  9  1  0  0  0  0
  4  3  1  0  0  0  0
  4 12  1  0  0  0  0
  5 14  1  0  0  0  0
  5  4  1  0  0  0  0
  5  6  1  0  0  0  0
  6 15  1  6  0  0  0
  6 25  1  0  0  0  0
  7  2  1  0  0  0  0
 10  3  1  0  0  0  0
 11  4  1  0  0  0  0
 13  5  1  0  0  0  0
 16  1  1  0  0  0  0
 16 17  1  0  0  0  0
 17 22  1  0  0  0  0
 18 17  2  0  0  0  0
 18 23  1  0  0  0  0
 19 18  1  0  0  0  0
 20 21  1  0  0  0  0
 20 19  2  0  0  0  0
 21 16  2  0  0  0  0
 24 20  1  0  0  0  0
 25 26  1  0  0  0  0
 26 27  1  0  0  0  0
 26 33  2  0  0  0  0
 27 29  2  0  0  0  0
 28 27  1  0  0  0  0
 29 31  1  0  0  0  0
 29 30  1  0  0  0  0
 31 32  1  0  0  0  0
 33 31  1  0  0  0  0
M  END
>  <minimizedAffinity>
-4.68405581

$$$$
