
 OpenBabel03272503143D

 45 49  0  0  0  0  0  0  0  0999 V2000
   37.8170   26.4750   35.0830 C   0  0  0  0  0  0  0  0  0  0  0  0
   38.4720   26.9190   36.0850 O   0  0  0  0  0  0  0  0  0  0  0  0
   37.6980   25.0720   35.0090 N   0  0  0  0  0  0  0  0  0  0  0  0
   37.1670   24.6810   34.2100 H   0  0  0  0  0  0  0  0  0  0  0  0
   36.3390   28.3210   34.6230 C   0  0  0  0  0  0  0  0  0  0  0  0
   37.2700   27.4320   34.1310 C   0  0  0  0  0  0  0  0  0  0  0  0
   37.6840   27.4200   32.8250 C   0  0  0  0  0  0  0  0  0  0  0  0
   37.1480   28.3470   31.9430 C   0  0  0  0  0  0  0  0  0  0  0  0
   37.3510   28.5770   30.6460 N   0  0  0  0  0  0  0  0  0  0  0  0
   36.5760   29.5930   30.2900 C   0  0  0  0  0  0  0  0  0  0  0  0
   35.8700   30.0160   31.3650 N   0  0  0  0  0  0  0  0  0  0  0  0
   36.2110   29.2430   32.4330 C   0  0  0  0  0  0  0  0  0  0  0  0
   35.7870   29.2630   33.7430 C   0  0  0  0  0  0  0  0  0  0  0  0
   36.0490   28.2820   35.6640 H   0  0  0  0  0  0  0  0  0  0  0  0
   38.4220   26.6920   32.5020 H   0  0  0  0  0  0  0  0  0  0  0  0
   38.0120   28.0300   30.0560 H   0  0  0  0  0  0  0  0  0  0  0  0
   36.5220   30.0160   29.2800 H   0  0  0  0  0  0  0  0  0  0  0  0
   34.8570   30.1530   34.2150 O   0  0  0  0  0  0  0  0  0  0  0  0
   34.9090   30.8870   35.3590 C   0  0  0  0  0  0  0  0  0  0  0  0
   33.6330   31.0630   35.9120 C   0  0  0  0  0  0  0  0  0  0  0  0
   32.5920   30.7760   35.6830 H   0  0  0  0  0  0  0  0  0  0  0  0
   33.7550   31.8140   37.0680 C   0  0  0  0  0  0  0  0  0  0  0  0
   33.0600   32.1890   37.8080 H   0  0  0  0  0  0  0  0  0  0  0  0
   35.0880   32.0470   37.1490 N   0  0  0  0  0  0  0  0  0  0  0  0
   35.5810   32.5960   37.9090 H   0  0  0  0  0  0  0  0  0  0  0  0
   35.7820   31.5160   36.1650 N   0  0  0  0  0  0  0  0  0  0  0  0
   40.1690   23.9980   34.6610 F   0  0  0  0  0  0  0  0  0  0  0  0
   39.5980   23.8330   35.8850 C   0  0  0  0  0  0  0  0  0  0  0  0
   40.2630   23.1570   36.8640 C   0  0  0  0  0  0  0  0  0  0  0  0
   39.6270   23.0310   38.0710 C   0  0  0  0  0  0  0  0  0  0  0  0
   38.3740   23.5500   38.3200 C   0  0  0  0  0  0  0  0  0  0  0  0
   37.7180   24.2350   37.3080 C   0  0  0  0  0  0  0  0  0  0  0  0
   38.3420   24.3750   36.0770 C   0  0  0  0  0  0  0  0  0  0  0  0
   40.1610   22.4880   38.8560 H   0  0  0  0  0  0  0  0  0  0  0  0
   37.9580   23.3960   39.3070 H   0  0  0  0  0  0  0  0  0  0  0  0
   36.7390   24.6410   37.5010 H   0  0  0  0  0  0  0  0  0  0  0  0
   43.9720   22.8780   36.1780 C   0  0  0  0  0  0  0  0  0  0  0  0
   42.7040   23.4340   36.4790 C   0  0  0  0  0  0  0  0  0  0  0  0
   41.5880   22.6240   36.5550 C   0  0  0  0  0  0  0  0  0  0  0  0
   41.7620   21.2750   36.3290 N   0  0  0  0  0  0  0  0  0  0  0  0
   42.9660   20.7630   36.0450 C   0  0  0  0  0  0  0  0  0  0  0  0
   44.0480   21.5390   35.9700 N   0  0  0  0  0  0  0  0  0  0  0  0
   44.7390   23.6260   36.1540 H   0  0  0  0  0  0  0  0  0  0  0  0
   42.5250   24.4800   36.6630 H   0  0  0  0  0  0  0  0  0  0  0  0
   43.1100   19.7030   35.8650 H   0  0  0  0  0  0  0  0  0  0  0  0
  1  2  2  0  0  0  0
  3  1  1  0  0  0  0
  3 33  1  0  0  0  0
  4  3  1  0  0  0  0
  5 14  1  0  0  0  0
  6  5  1  0  0  0  0
  6  1  1  0  0  0  0
  7  6  2  0  0  0  0
  8 12  2  0  0  0  0
  8  7  1  0  0  0  0
  9  8  1  0  0  0  0
 10  9  1  0  0  0  0
 10 11  2  0  0  0  0
 11 12  1  0  0  0  0
 12 13  1  0  0  0  0
 13 18  1  0  0  0  0
 13  5  2  0  0  0  0
 15  7  1  0  0  0  0
 16  9  1  0  0  0  0
 17 10  1  0  0  0  0
 18 19  1  0  0  0  0
 19 20  1  0  0  0  0
 19 26  2  0  0  0  0
 20 22  2  0  0  0  0
 21 20  1  0  0  0  0
 22 24  1  0  0  0  0
 22 23  1  0  0  0  0
 24 25  1  0  0  0  0
 26 24  1  0  0  0  0
 27 28  1  0  0  0  0
 28 33  2  0  0  0  0
 28 29  1  0  0  0  0
 29 30  2  0  0  0  0
 30 31  1  0  0  0  0
 30 34  1  0  0  0  0
 31 35  1  0  0  0  0
 32 36  1  0  0  0  0
 32 31  2  0  0  0  0
 33 32  1  0  0  0  0
 37 38  1  0  0  0  0
 38 39  2  0  0  0  0
 38 44  1  0  0  0  0
 39 29  1  0  0  0  0
 40 39  1  0  0  0  0
 41 40  2  0  0  0  0
 42 41  1  0  0  0  0
 42 37  2  0  0  0  0
 43 37  1  0  0  0  0
 45 41  1  0  0  0  0
M  END
>  <minimizedAffinity>
-7.34705734

$$$$

 OpenBabel03272503143D

 45 49  0  0  0  0  0  0  0  0999 V2000
   36.5940   25.6200   32.2070 C   0  0  0  0  0  0  0  0  0  0  0  0
   35.5460   26.0290   31.6050 O   0  0  0  0  0  0  0  0  0  0  0  0
   37.4030   26.6270   32.7720 N   0  0  0  0  0  0  0  0  0  0  0  0
   38.2590   26.3260   33.2720 H   0  0  0  0  0  0  0  0  0  0  0  0
   37.7610   23.7600   33.1990 C   0  0  0  0  0  0  0  0  0  0  0  0
   36.8540   24.1870   32.2540 C   0  0  0  0  0  0  0  0  0  0  0  0
   36.2090   23.3410   31.3910 C   0  0  0  0  0  0  0  0  0  0  0  0
   36.4740   21.9810   31.4630 C   0  0  0  0  0  0  0  0  0  0  0  0
   36.0120   20.9370   30.7750 N   0  0  0  0  0  0  0  0  0  0  0  0
   36.5980   19.8470   31.2540 C   0  0  0  0  0  0  0  0  0  0  0  0
   37.4420   20.1950   32.2540 N   0  0  0  0  0  0  0  0  0  0  0  0
   37.3860   21.5460   32.4110 C   0  0  0  0  0  0  0  0  0  0  0  0
   38.0400   22.3890   33.2830 C   0  0  0  0  0  0  0  0  0  0  0  0
   38.2400   24.4750   33.8540 H   0  0  0  0  0  0  0  0  0  0  0  0
   35.5050   23.7430   30.6690 H   0  0  0  0  0  0  0  0  0  0  0  0
   35.3150   21.0110   30.0060 H   0  0  0  0  0  0  0  0  0  0  0  0
   36.4200   18.8280   30.8890 H   0  0  0  0  0  0  0  0  0  0  0  0
   38.9420   21.9470   34.2160 O   0  0  0  0  0  0  0  0  0  0  0  0
   38.9990   22.2600   35.5380 C   0  0  0  0  0  0  0  0  0  0  0  0
   40.3080   22.1690   36.0300 C   0  0  0  0  0  0  0  0  0  0  0  0
   41.3130   21.9140   35.6500 H   0  0  0  0  0  0  0  0  0  0  0  0
   40.2950   22.4990   37.3730 C   0  0  0  0  0  0  0  0  0  0  0  0
   41.0500   22.5660   38.1470 H   0  0  0  0  0  0  0  0  0  0  0  0
   38.9900   22.7690   37.6170 N   0  0  0  0  0  0  0  0  0  0  0  0
   38.5750   23.0620   38.5460 H   0  0  0  0  0  0  0  0  0  0  0  0
   38.2130   22.6370   36.5610 N   0  0  0  0  0  0  0  0  0  0  0  0
   36.1230   27.9480   34.7720 F   0  0  0  0  0  0  0  0  0  0  0  0
   36.2610   28.6110   33.5930 C   0  0  0  0  0  0  0  0  0  0  0  0
   35.7700   29.8760   33.4570 C   0  0  0  0  0  0  0  0  0  0  0  0
   35.9460   30.4830   32.2420 C   0  0  0  0  0  0  0  0  0  0  0  0
   36.5860   29.8740   31.1830 C   0  0  0  0  0  0  0  0  0  0  0  0
   37.0780   28.5880   31.3450 C   0  0  0  0  0  0  0  0  0  0  0  0
   36.9110   27.9530   32.5660 C   0  0  0  0  0  0  0  0  0  0  0  0
   35.5520   31.4960   32.1350 H   0  0  0  0  0  0  0  0  0  0  0  0
   36.6740   30.4390   30.2630 H   0  0  0  0  0  0  0  0  0  0  0  0
   37.5770   28.1110   30.5170 H   0  0  0  0  0  0  0  0  0  0  0  0
   35.0840   31.8540   36.6070 C   0  0  0  0  0  0  0  0  0  0  0  0
   35.7710   31.2860   35.5060 C   0  0  0  0  0  0  0  0  0  0  0  0
   35.0990   30.4810   34.6070 C   0  0  0  0  0  0  0  0  0  0  0  0
   33.7560   30.2610   34.8250 N   0  0  0  0  0  0  0  0  0  0  0  0
   33.1200   30.8040   35.8700 C   0  0  0  0  0  0  0  0  0  0  0  0
   33.7610   31.5830   36.7440 N   0  0  0  0  0  0  0  0  0  0  0  0
   35.7330   32.4520   37.2160 H   0  0  0  0  0  0  0  0  0  0  0  0
   36.8170   31.4320   35.2980 H   0  0  0  0  0  0  0  0  0  0  0  0
   32.0640   30.6360   36.0490 H   0  0  0  0  0  0  0  0  0  0  0  0
  1  6  1  0  0  0  0
  1  3  1  0  0  0  0
  2  1  2  0  0  0  0
  3  4  1  0  0  0  0
  5 13  1  0  0  0  0
  5 14  1  0  0  0  0
  6  5  2  0  0  0  0
  7  8  2  0  0  0  0
  7  6  1  0  0  0  0
  8 12  1  0  0  0  0
  9 10  1  0  0  0  0
  9  8  1  0  0  0  0
 10 11  2  0  0  0  0
 11 12  1  0  0  0  0
 12 13  2  0  0  0  0
 13 18  1  0  0  0  0
 15  7  1  0  0  0  0
 16  9  1  0  0  0  0
 17 10  1  0  0  0  0
 18 19  1  0  0  0  0
 19 20  1  0  0  0  0
 19 26  2  0  0  0  0
 20 22  2  0  0  0  0
 21 20  1  0  0  0  0
 22 24  1  0  0  0  0
 22 23  1  0  0  0  0
 24 25  1  0  0  0  0
 26 24  1  0  0  0  0
 28 27  1  0  0  0  0
 29 28  1  0  0  0  0
 29 39  1  0  0  0  0
 30 29  2  0  0  0  0
 31 32  2  0  0  0  0
 31 30  1  0  0  0  0
 32 33  1  0  0  0  0
 33  3  1  0  0  0  0
 33 28  2  0  0  0  0
 34 30  1  0  0  0  0
 35 31  1  0  0  0  0
 36 32  1  0  0  0  0
 37 42  1  0  0  0  0
 37 43  1  0  0  0  0
 38 37  2  0  0  0  0
 39 40  2  0  0  0  0
 39 38  1  0  0  0  0
 40 41  1  0  0  0  0
 41 45  1  0  0  0  0
 41 42  2  0  0  0  0
 44 38  1  0  0  0  0
M  END
>  <minimizedAffinity>
-6.96680975

$$$$

 OpenBabel03272503143D

 45 49  0  0  0  0  0  0  0  0999 V2000
   37.8770   26.3430   35.0820 C   0  0  0  0  0  0  0  0  0  0  0  0
   38.5290   26.8260   36.0680 O   0  0  0  0  0  0  0  0  0  0  0  0
   37.7450   24.9400   35.0710 N   0  0  0  0  0  0  0  0  0  0  0  0
   37.2170   24.5180   34.2860 H   0  0  0  0  0  0  0  0  0  0  0  0
   36.2870   28.0510   34.4830 C   0  0  0  0  0  0  0  0  0  0  0  0
   37.3440   27.2610   34.0850 C   0  0  0  0  0  0  0  0  0  0  0  0
   37.8910   27.3100   32.8300 C   0  0  0  0  0  0  0  0  0  0  0  0
   37.3650   28.1980   31.9030 C   0  0  0  0  0  0  0  0  0  0  0  0
   37.6800   28.4670   30.6360 N   0  0  0  0  0  0  0  0  0  0  0  0
   36.8530   29.4130   30.2080 C   0  0  0  0  0  0  0  0  0  0  0  0
   36.0030   29.7510   31.2050 N   0  0  0  0  0  0  0  0  0  0  0  0
   36.3020   28.9950   32.2980 C   0  0  0  0  0  0  0  0  0  0  0  0
   35.7440   28.9530   33.5560 C   0  0  0  0  0  0  0  0  0  0  0  0
   35.8960   27.9680   35.4870 H   0  0  0  0  0  0  0  0  0  0  0  0
   38.7240   26.6590   32.5810 H   0  0  0  0  0  0  0  0  0  0  0  0
   38.4460   27.9950   30.1150 H   0  0  0  0  0  0  0  0  0  0  0  0
   36.8660   29.8470   29.2000 H   0  0  0  0  0  0  0  0  0  0  0  0
   34.6910   29.7450   33.9340 O   0  0  0  0  0  0  0  0  0  0  0  0
   33.3750   29.5870   33.6290 C   0  0  0  0  0  0  0  0  0  0  0  0
   32.6030   29.3790   34.7810 C   0  0  0  0  0  0  0  0  0  0  0  0
   32.7590   29.3060   35.8710 H   0  0  0  0  0  0  0  0  0  0  0  0
   31.2820   29.2280   34.4020 C   0  0  0  0  0  0  0  0  0  0  0  0
   30.3540   29.0520   34.9330 H   0  0  0  0  0  0  0  0  0  0  0  0
   31.3270   29.3520   33.0530 N   0  0  0  0  0  0  0  0  0  0  0  0
   30.5010   29.2940   32.3920 H   0  0  0  0  0  0  0  0  0  0  0  0
   32.5360   29.5630   32.5780 N   0  0  0  0  0  0  0  0  0  0  0  0
   40.2100   23.8310   34.7880 F   0  0  0  0  0  0  0  0  0  0  0  0
   39.6290   23.7260   36.0140 C   0  0  0  0  0  0  0  0  0  0  0  0
   40.2820   23.0890   37.0270 C   0  0  0  0  0  0  0  0  0  0  0  0
   39.6370   23.0210   38.2340 C   0  0  0  0  0  0  0  0  0  0  0  0
   38.3870   23.5610   38.4500 C   0  0  0  0  0  0  0  0  0  0  0  0
   37.7430   24.2050   37.4040 C   0  0  0  0  0  0  0  0  0  0  0  0
   38.3770   24.2850   36.1730 C   0  0  0  0  0  0  0  0  0  0  0  0
   40.1610   22.5090   39.0450 H   0  0  0  0  0  0  0  0  0  0  0  0
   37.9630   23.4540   39.4410 H   0  0  0  0  0  0  0  0  0  0  0  0
   36.7660   24.6270   37.5720 H   0  0  0  0  0  0  0  0  0  0  0  0
   43.1520   20.6730   36.5400 C   0  0  0  0  0  0  0  0  0  0  0  0
   41.8560   21.1740   36.8160 C   0  0  0  0  0  0  0  0  0  0  0  0
   41.6050   22.5310   36.7510 C   0  0  0  0  0  0  0  0  0  0  0  0
   42.6540   23.3590   36.4120 N   0  0  0  0  0  0  0  0  0  0  0  0
   43.8740   22.8720   36.1550 C   0  0  0  0  0  0  0  0  0  0  0  0
   44.1240   21.5630   36.2150 N   0  0  0  0  0  0  0  0  0  0  0  0
   43.1940   19.6060   36.6290 H   0  0  0  0  0  0  0  0  0  0  0  0
   41.0100   20.5640   37.0830 H   0  0  0  0  0  0  0  0  0  0  0  0
   44.7040   23.5170   35.8880 H   0  0  0  0  0  0  0  0  0  0  0  0
  1  2  2  0  0  0  0
  3  1  1  0  0  0  0
  3 33  1  0  0  0  0
  4  3  1  0  0  0  0
  5 14  1  0  0  0  0
  6  5  1  0  0  0  0
  6  1  1  0  0  0  0
  7  6  2  0  0  0  0
  8 12  2  0  0  0  0
  8  7  1  0  0  0  0
  9  8  1  0  0  0  0
 10  9  1  0  0  0  0
 10 11  2  0  0  0  0
 11 12  1  0  0  0  0
 12 13  1  0  0  0  0
 13 18  1  0  0  0  0
 13  5  2  0  0  0  0
 15  7  1  0  0  0  0
 16  9  1  0  0  0  0
 17 10  1  0  0  0  0
 19 18  1  0  0  0  0
 19 20  1  0  0  0  0
 20 21  1  0  0  0  0
 22 20  2  0  0  0  0
 22 23  1  0  0  0  0
 24 22  1  0  0  0  0
 25 24  1  0  0  0  0
 26 24  1  0  0  0  0
 26 19  2  0  0  0  0
 27 28  1  0  0  0  0
 28 33  2  0  0  0  0
 28 29  1  0  0  0  0
 29 30  2  0  0  0  0
 30 31  1  0  0  0  0
 30 34  1  0  0  0  0
 31 35  1  0  0  0  0
 32 36  1  0  0  0  0
 32 31  2  0  0  0  0
 33 32  1  0  0  0  0
 37 43  1  0  0  0  0
 37 38  1  0  0  0  0
 38 44  1  0  0  0  0
 39 38  2  0  0  0  0
 39 29  1  0  0  0  0
 40 39  1  0  0  0  0
 41 42  1  0  0  0  0
 41 40  2  0  0  0  0
 42 37  2  0  0  0  0
 45 41  1  0  0  0  0
M  END
>  <minimizedAffinity>
-6.90194893

$$$$

 OpenBabel03272503143D

 45 49  0  0  0  0  0  0  0  0999 V2000
   36.0550   28.5850   33.6020 C   0  0  0  0  0  0  0  0  0  0  0  0
   36.7010   28.9950   34.6240 O   0  0  0  0  0  0  0  0  0  0  0  0
   36.6330   27.4990   32.9140 N   0  0  0  0  0  0  0  0  0  0  0  0
   36.1300   27.1400   32.0820 H   0  0  0  0  0  0  0  0  0  0  0  0
   33.7630   29.1100   34.1280 C   0  0  0  0  0  0  0  0  0  0  0  0
   34.8140   29.2590   33.2480 C   0  0  0  0  0  0  0  0  0  0  0  0
   34.7320   29.9950   32.0950 C   0  0  0  0  0  0  0  0  0  0  0  0
   33.5370   30.6290   31.7870 C   0  0  0  0  0  0  0  0  0  0  0  0
   33.1640   31.3970   30.7640 N   0  0  0  0  0  0  0  0  0  0  0  0
   31.9000   31.7480   30.9630 C   0  0  0  0  0  0  0  0  0  0  0  0
   31.4600   31.2020   32.1200 N   0  0  0  0  0  0  0  0  0  0  0  0
   32.4790   30.4830   32.6690 C   0  0  0  0  0  0  0  0  0  0  0  0
   32.5490   29.7440   33.8300 C   0  0  0  0  0  0  0  0  0  0  0  0
   33.8860   28.5160   35.0230 H   0  0  0  0  0  0  0  0  0  0  0  0
   35.5980   30.0720   31.4440 H   0  0  0  0  0  0  0  0  0  0  0  0
   33.7880   31.6500   29.9700 H   0  0  0  0  0  0  0  0  0  0  0  0
   31.3130   32.3830   30.2890 H   0  0  0  0  0  0  0  0  0  0  0  0
   31.4930   29.6050   34.6930 O   0  0  0  0  0  0  0  0  0  0  0  0
   31.5230   29.1980   35.9900 C   0  0  0  0  0  0  0  0  0  0  0  0
   30.9000   27.9530   36.1510 C   0  0  0  0  0  0  0  0  0  0  0  0
   30.3890   27.2030   35.5220 H   0  0  0  0  0  0  0  0  0  0  0  0
   30.9650   27.5990   37.4870 C   0  0  0  0  0  0  0  0  0  0  0  0
   30.6270   26.7480   38.0650 H   0  0  0  0  0  0  0  0  0  0  0  0
   31.6190   28.6410   38.0550 N   0  0  0  0  0  0  0  0  0  0  0  0
   31.8630   28.7420   39.0810 H   0  0  0  0  0  0  0  0  0  0  0  0
   31.9550   29.5870   37.2030 N   0  0  0  0  0  0  0  0  0  0  0  0
   36.6270   25.8410   35.0670 F   0  0  0  0  0  0  0  0  0  0  0  0
   37.8440   26.1970   34.5730 C   0  0  0  0  0  0  0  0  0  0  0  0
   38.9830   25.7260   35.1560 C   0  0  0  0  0  0  0  0  0  0  0  0
   40.1710   26.1260   34.6060 C   0  0  0  0  0  0  0  0  0  0  0  0
   40.2510   26.9640   33.5140 C   0  0  0  0  0  0  0  0  0  0  0  0
   39.0790   27.4300   32.9380 C   0  0  0  0  0  0  0  0  0  0  0  0
   37.8630   27.0390   33.4780 C   0  0  0  0  0  0  0  0  0  0  0  0
   41.0840   25.7470   35.0740 H   0  0  0  0  0  0  0  0  0  0  0  0
   41.2400   27.2210   33.1540 H   0  0  0  0  0  0  0  0  0  0  0  0
   39.1400   28.0860   32.0850 H   0  0  0  0  0  0  0  0  0  0  0  0
   39.3270   22.7840   37.5080 C   0  0  0  0  0  0  0  0  0  0  0  0
   39.4800   23.6130   36.3690 C   0  0  0  0  0  0  0  0  0  0  0  0
   38.8490   24.8400   36.3120 C   0  0  0  0  0  0  0  0  0  0  0  0
   38.0800   25.2150   37.3920 N   0  0  0  0  0  0  0  0  0  0  0  0
   37.9430   24.4210   38.4620 C   0  0  0  0  0  0  0  0  0  0  0  0
   38.5490   23.2340   38.5250 N   0  0  0  0  0  0  0  0  0  0  0  0
   39.8720   21.8660   37.4090 H   0  0  0  0  0  0  0  0  0  0  0  0
   40.0710   23.3600   35.5060 H   0  0  0  0  0  0  0  0  0  0  0  0
   37.3390   24.7080   39.3150 H   0  0  0  0  0  0  0  0  0  0  0  0
  1  2  2  0  0  0  0
  3 33  1  0  0  0  0
  3  1  1  0  0  0  0
  4  3  1  0  0  0  0
  5 14  1  0  0  0  0
  6  1  1  0  0  0  0
  6  5  2  0  0  0  0
  7  6  1  0  0  0  0
  8  7  2  0  0  0  0
  8 12  1  0  0  0  0
  9 10  1  0  0  0  0
  9  8  1  0  0  0  0
 10 11  2  0  0  0  0
 11 12  1  0  0  0  0
 12 13  2  0  0  0  0
 13  5  1  0  0  0  0
 13 18  1  0  0  0  0
 15  7  1  0  0  0  0
 16  9  1  0  0  0  0
 17 10  1  0  0  0  0
 18 19  1  0  0  0  0
 19 20  1  0  0  0  0
 19 26  2  0  0  0  0
 20 22  2  0  0  0  0
 21 20  1  0  0  0  0
 22 24  1  0  0  0  0
 22 23  1  0  0  0  0
 24 25  1  0  0  0  0
 26 24  1  0  0  0  0
 28 27  1  0  0  0  0
 28 29  1  0  0  0  0
 29 39  1  0  0  0  0
 30 34  1  0  0  0  0
 30 29  2  0  0  0  0
 31 30  1  0  0  0  0
 32 33  1  0  0  0  0
 32 31  2  0  0  0  0
 33 28  2  0  0  0  0
 35 31  1  0  0  0  0
 36 32  1  0  0  0  0
 37 42  1  0  0  0  0
 38 37  2  0  0  0  0
 39 38  1  0  0  0  0
 39 40  2  0  0  0  0
 40 41  1  0  0  0  0
 41 42  2  0  0  0  0
 41 45  1  0  0  0  0
 43 37  1  0  0  0  0
 44 38  1  0  0  0  0
M  END
>  <minimizedAffinity>
-6.26554012

$$$$

 OpenBabel03272503143D

 45 49  0  0  0  0  0  0  0  0999 V2000
   37.1000   26.3680   31.3590 C   0  0  0  0  0  0  0  0  0  0  0  0
   37.9620   27.1310   31.9110 O   0  0  0  0  0  0  0  0  0  0  0  0
   36.2950   26.9740   30.3740 N   0  0  0  0  0  0  0  0  0  0  0  0
   35.5880   26.3790   29.9040 H   0  0  0  0  0  0  0  0  0  0  0  0
   37.8200   24.6250   32.8590 C   0  0  0  0  0  0  0  0  0  0  0  0
   37.0280   24.9780   31.7880 C   0  0  0  0  0  0  0  0  0  0  0  0
   36.2030   24.0970   31.1390 C   0  0  0  0  0  0  0  0  0  0  0  0
   36.1520   22.7810   31.5730 C   0  0  0  0  0  0  0  0  0  0  0  0
   35.4610   21.7210   31.1530 N   0  0  0  0  0  0  0  0  0  0  0  0
   35.7870   20.6950   31.9280 C   0  0  0  0  0  0  0  0  0  0  0  0
   36.6930   21.0980   32.8490 N   0  0  0  0  0  0  0  0  0  0  0  0
   36.9470   22.4210   32.6500 C   0  0  0  0  0  0  0  0  0  0  0  0
   37.7800   23.2980   33.3090 C   0  0  0  0  0  0  0  0  0  0  0  0
   38.4520   25.3630   33.3320 H   0  0  0  0  0  0  0  0  0  0  0  0
   35.6040   24.4410   30.3000 H   0  0  0  0  0  0  0  0  0  0  0  0
   34.7950   21.7420   30.3540 H   0  0  0  0  0  0  0  0  0  0  0  0
   35.3800   19.6810   31.8290 H   0  0  0  0  0  0  0  0  0  0  0  0
   38.5630   22.9290   34.3720 O   0  0  0  0  0  0  0  0  0  0  0  0
   38.2180   22.8770   35.6860 C   0  0  0  0  0  0  0  0  0  0  0  0
   39.2380   23.3820   36.5040 C   0  0  0  0  0  0  0  0  0  0  0  0
   40.2480   23.8110   36.3870 H   0  0  0  0  0  0  0  0  0  0  0  0
   38.8240   23.3000   37.8220 C   0  0  0  0  0  0  0  0  0  0  0  0
   39.2660   23.5630   38.7750 H   0  0  0  0  0  0  0  0  0  0  0  0
   37.5870   22.7550   37.7280 N   0  0  0  0  0  0  0  0  0  0  0  0
   36.9390   22.5330   38.5360 H   0  0  0  0  0  0  0  0  0  0  0  0
   37.2100   22.5000   36.4920 N   0  0  0  0  0  0  0  0  0  0  0  0
   35.0790   28.8780   31.8840 F   0  0  0  0  0  0  0  0  0  0  0  0
   35.9500   29.3150   30.9350 C   0  0  0  0  0  0  0  0  0  0  0  0
   36.1780   30.6500   30.7780 C   0  0  0  0  0  0  0  0  0  0  0  0
   37.0680   31.0170   29.8040 C   0  0  0  0  0  0  0  0  0  0  0  0
   37.7220   30.1060   29.0010 C   0  0  0  0  0  0  0  0  0  0  0  0
   37.4750   28.7540   29.1800 C   0  0  0  0  0  0  0  0  0  0  0  0
   36.5770   28.3580   30.1600 C   0  0  0  0  0  0  0  0  0  0  0  0
   37.2490   32.0870   29.6790 H   0  0  0  0  0  0  0  0  0  0  0  0
   38.4070   30.4980   28.2590 H   0  0  0  0  0  0  0  0  0  0  0  0
   37.9850   28.0410   28.5520 H   0  0  0  0  0  0  0  0  0  0  0  0
   33.6070   33.0610   32.1500 C   0  0  0  0  0  0  0  0  0  0  0  0
   34.2710   32.1670   31.2750 C   0  0  0  0  0  0  0  0  0  0  0  0
   35.4620   31.5780   31.6520 C   0  0  0  0  0  0  0  0  0  0  0  0
   35.9650   31.8930   32.8960 N   0  0  0  0  0  0  0  0  0  0  0  0
   35.3270   32.7400   33.7140 C   0  0  0  0  0  0  0  0  0  0  0  0
   34.1760   33.3130   33.3570 N   0  0  0  0  0  0  0  0  0  0  0  0
   32.6990   33.4370   31.7230 H   0  0  0  0  0  0  0  0  0  0  0  0
   33.9140   31.8930   30.2960 H   0  0  0  0  0  0  0  0  0  0  0  0
   35.7160   32.9930   34.6940 H   0  0  0  0  0  0  0  0  0  0  0  0
  1  6  1  0  0  0  0
  1  2  2  0  0  0  0
  3  1  1  0  0  0  0
  4  3  1  0  0  0  0
  5 13  1  0  0  0  0
  5 14  1  0  0  0  0
  6  5  2  0  0  0  0
  7  8  2  0  0  0  0
  7  6  1  0  0  0  0
  8 12  1  0  0  0  0
  9  8  1  0  0  0  0
  9 10  1  0  0  0  0
 10 11  2  0  0  0  0
 12 11  1  0  0  0  0
 12 13  2  0  0  0  0
 13 18  1  0  0  0  0
 15  7  1  0  0  0  0
 16  9  1  0  0  0  0
 17 10  1  0  0  0  0
 18 19  1  0  0  0  0
 19 26  2  0  0  0  0
 19 20  1  0  0  0  0
 20 22  2  0  0  0  0
 21 20  1  0  0  0  0
 22 23  1  0  0  0  0
 24 22  1  0  0  0  0
 24 25  1  0  0  0  0
 26 24  1  0  0  0  0
 28 27  1  0  0  0  0
 29 28  1  0  0  0  0
 29 39  1  0  0  0  0
 30 29  2  0  0  0  0
 31 32  2  0  0  0  0
 31 30  1  0  0  0  0
 32 33  1  0  0  0  0
 33  3  1  0  0  0  0
 33 28  2  0  0  0  0
 34 30  1  0  0  0  0
 35 31  1  0  0  0  0
 36 32  1  0  0  0  0
 37 42  1  0  0  0  0
 38 39  1  0  0  0  0
 38 37  2  0  0  0  0
 39 40  2  0  0  0  0
 40 41  1  0  0  0  0
 41 45  1  0  0  0  0
 42 41  2  0  0  0  0
 43 37  1  0  0  0  0
 44 38  1  0  0  0  0
M  END
>  <minimizedAffinity>
-6.2548933

$$$$

 OpenBabel03272503143D

 45 49  0  0  0  0  0  0  0  0999 V2000
   38.1200   26.4430   32.5380 C   0  0  0  0  0  0  0  0  0  0  0  0
   38.8380   27.4910   32.6530 O   0  0  0  0  0  0  0  0  0  0  0  0
   36.7540   26.6680   32.2710 N   0  0  0  0  0  0  0  0  0  0  0  0
   36.1450   25.8360   32.1670 H   0  0  0  0  0  0  0  0  0  0  0  0
   38.3870   24.4040   33.7950 C   0  0  0  0  0  0  0  0  0  0  0  0
   38.7580   25.1420   32.6910 C   0  0  0  0  0  0  0  0  0  0  0  0
   39.6730   24.7090   31.7670 C   0  0  0  0  0  0  0  0  0  0  0  0
   40.2610   23.4640   31.9380 C   0  0  0  0  0  0  0  0  0  0  0  0
   41.1600   22.7890   31.2230 N   0  0  0  0  0  0  0  0  0  0  0  0
   41.3770   21.6320   31.8370 C   0  0  0  0  0  0  0  0  0  0  0  0
   40.6120   21.5670   32.9520 N   0  0  0  0  0  0  0  0  0  0  0  0
   39.8910   22.7180   33.0450 C   0  0  0  0  0  0  0  0  0  0  0  0
   38.9740   23.1440   33.9810 C   0  0  0  0  0  0  0  0  0  0  0  0
   37.6600   24.7980   34.4910 H   0  0  0  0  0  0  0  0  0  0  0  0
   39.9210   25.3420   30.9200 H   0  0  0  0  0  0  0  0  0  0  0  0
   41.5900   23.1450   30.3450 H   0  0  0  0  0  0  0  0  0  0  0  0
   42.0690   20.8570   31.4860 H   0  0  0  0  0  0  0  0  0  0  0  0
   38.6180   22.3970   35.0740 O   0  0  0  0  0  0  0  0  0  0  0  0
   39.0540   22.5310   36.3550 C   0  0  0  0  0  0  0  0  0  0  0  0
   38.1090   23.1920   37.1520 C   0  0  0  0  0  0  0  0  0  0  0  0
   37.1060   23.6380   37.0360 H   0  0  0  0  0  0  0  0  0  0  0  0
   38.6120   23.2940   38.4360 C   0  0  0  0  0  0  0  0  0  0  0  0
   38.2470   23.7140   39.3650 H   0  0  0  0  0  0  0  0  0  0  0  0
   39.8240   22.6930   38.3460 N   0  0  0  0  0  0  0  0  0  0  0  0
   40.5210   22.5710   39.1340 H   0  0  0  0  0  0  0  0  0  0  0  0
   40.1050   22.2390   37.1420 N   0  0  0  0  0  0  0  0  0  0  0  0
   35.8140   27.9970   34.4470 F   0  0  0  0  0  0  0  0  0  0  0  0
   35.9200   28.7110   33.2930 C   0  0  0  0  0  0  0  0  0  0  0  0
   35.5640   30.0260   33.2680 C   0  0  0  0  0  0  0  0  0  0  0  0
   35.6980   30.6820   32.0730 C   0  0  0  0  0  0  0  0  0  0  0  0
   36.1690   30.0720   30.9280 C   0  0  0  0  0  0  0  0  0  0  0  0
   36.5250   28.7330   30.9800 C   0  0  0  0  0  0  0  0  0  0  0  0
   36.3980   28.0490   32.1790 C   0  0  0  0  0  0  0  0  0  0  0  0
   35.4120   31.7370   32.0530 H   0  0  0  0  0  0  0  0  0  0  0  0
   36.2370   30.6780   30.0340 H   0  0  0  0  0  0  0  0  0  0  0  0
   36.8930   28.2560   30.0860 H   0  0  0  0  0  0  0  0  0  0  0  0
   33.3290   31.0610   36.1380 C   0  0  0  0  0  0  0  0  0  0  0  0
   33.7680   30.4600   34.9330 C   0  0  0  0  0  0  0  0  0  0  0  0
   35.0700   30.6300   34.5040 C   0  0  0  0  0  0  0  0  0  0  0  0
   35.9060   31.3960   35.2890 N   0  0  0  0  0  0  0  0  0  0  0  0
   35.4770   31.9590   36.4250 C   0  0  0  0  0  0  0  0  0  0  0  0
   34.2220   31.8000   36.8460 N   0  0  0  0  0  0  0  0  0  0  0  0
   32.2990   30.8420   36.3400 H   0  0  0  0  0  0  0  0  0  0  0  0
   33.1500   29.8550   34.2920 H   0  0  0  0  0  0  0  0  0  0  0  0
   36.1290   32.5630   37.0470 H   0  0  0  0  0  0  0  0  0  0  0  0
  1  2  2  0  0  0  0
  1  6  1  0  0  0  0
  3  1  1  0  0  0  0
  4  3  1  0  0  0  0
  5 13  1  0  0  0  0
  5 14  1  0  0  0  0
  6  5  2  0  0  0  0
  7  8  2  0  0  0  0
  7  6  1  0  0  0  0
  8 12  1  0  0  0  0
  9 10  1  0  0  0  0
  9  8  1  0  0  0  0
 10 11  2  0  0  0  0
 11 12  1  0  0  0  0
 12 13  2  0  0  0  0
 13 18  1  0  0  0  0
 15  7  1  0  0  0  0
 16  9  1  0  0  0  0
 17 10  1  0  0  0  0
 18 19  1  0  0  0  0
 19 26  2  0  0  0  0
 19 20  1  0  0  0  0
 20 22  2  0  0  0  0
 21 20  1  0  0  0  0
 22 23  1  0  0  0  0
 24 22  1  0  0  0  0
 24 25  1  0  0  0  0
 26 24  1  0  0  0  0
 28 27  1  0  0  0  0
 29 28  1  0  0  0  0
 29 39  1  0  0  0  0
 30 29  2  0  0  0  0
 31 32  2  0  0  0  0
 31 30  1  0  0  0  0
 32 33  1  0  0  0  0
 33  3  1  0  0  0  0
 33 28  2  0  0  0  0
 34 30  1  0  0  0  0
 35 31  1  0  0  0  0
 36 32  1  0  0  0  0
 37 43  1  0  0  0  0
 37 42  1  0  0  0  0
 38 37  2  0  0  0  0
 39 38  1  0  0  0  0
 39 40  2  0  0  0  0
 40 41  1  0  0  0  0
 41 42  2  0  0  0  0
 41 45  1  0  0  0  0
 44 38  1  0  0  0  0
M  END
>  <minimizedAffinity>
-6.19345999

$$$$

 OpenBabel03272503143D

 45 49  0  0  0  0  0  0  0  0999 V2000
   36.3300   26.2780   31.7980 C   0  0  0  0  0  0  0  0  0  0  0  0
   35.5870   26.5140   30.7880 O   0  0  0  0  0  0  0  0  0  0  0  0
   36.7640   27.4140   32.5110 N   0  0  0  0  0  0  0  0  0  0  0  0
   37.3650   27.2540   33.3410 H   0  0  0  0  0  0  0  0  0  0  0  0
   37.5440   24.6940   33.1480 C   0  0  0  0  0  0  0  0  0  0  0  0
   36.6550   24.8930   32.1140 C   0  0  0  0  0  0  0  0  0  0  0  0
   36.0870   23.8710   31.4000 C   0  0  0  0  0  0  0  0  0  0  0  0
   36.4130   22.5630   31.7270 C   0  0  0  0  0  0  0  0  0  0  0  0
   36.0290   21.3890   31.2270 N   0  0  0  0  0  0  0  0  0  0  0  0
   36.6460   20.4360   31.9140 C   0  0  0  0  0  0  0  0  0  0  0  0
   37.4320   21.0040   32.8600 N   0  0  0  0  0  0  0  0  0  0  0  0
   37.3060   22.3570   32.7660 C   0  0  0  0  0  0  0  0  0  0  0  0
   37.8840   23.3770   33.4890 C   0  0  0  0  0  0  0  0  0  0  0  0
   37.9610   25.5400   33.6760 H   0  0  0  0  0  0  0  0  0  0  0  0
   35.3930   24.0980   30.5950 H   0  0  0  0  0  0  0  0  0  0  0  0
   35.3610   21.2850   30.4360 H   0  0  0  0  0  0  0  0  0  0  0  0
   36.5320   19.3600   31.7360 H   0  0  0  0  0  0  0  0  0  0  0  0
   38.7680   23.1590   34.5140 O   0  0  0  0  0  0  0  0  0  0  0  0
   38.4970   23.0520   35.8430 C   0  0  0  0  0  0  0  0  0  0  0  0
   39.6590   23.1880   36.6150 C   0  0  0  0  0  0  0  0  0  0  0  0
   40.7380   23.3570   36.4520 H   0  0  0  0  0  0  0  0  0  0  0  0
   39.3150   23.0690   37.9490 C   0  0  0  0  0  0  0  0  0  0  0  0
   39.8640   23.1050   38.8820 H   0  0  0  0  0  0  0  0  0  0  0  0
   37.9750   22.8710   37.9110 N   0  0  0  0  0  0  0  0  0  0  0  0
   37.3390   22.7330   38.7470 H   0  0  0  0  0  0  0  0  0  0  0  0
   37.4740   22.8570   36.6930 N   0  0  0  0  0  0  0  0  0  0  0  0
   38.1630   28.6780   30.5550 F   0  0  0  0  0  0  0  0  0  0  0  0
   37.0220   29.2850   30.9800 C   0  0  0  0  0  0  0  0  0  0  0  0
   36.6300   30.4680   30.4280 C   0  0  0  0  0  0  0  0  0  0  0  0
   35.4710   31.0210   30.9040 C   0  0  0  0  0  0  0  0  0  0  0  0
   34.7100   30.4360   31.8940 C   0  0  0  0  0  0  0  0  0  0  0  0
   35.1280   29.2310   32.4390 C   0  0  0  0  0  0  0  0  0  0  0  0
   36.2990   28.6530   31.9730 C   0  0  0  0  0  0  0  0  0  0  0  0
   35.1580   31.9700   30.4610 H   0  0  0  0  0  0  0  0  0  0  0  0
   33.8090   30.9530   32.2010 H   0  0  0  0  0  0  0  0  0  0  0  0
   34.5340   28.7740   33.2130 H   0  0  0  0  0  0  0  0  0  0  0  0
   39.0500   32.7020   28.5680 C   0  0  0  0  0  0  0  0  0  0  0  0
   38.2500   32.1670   29.6070 C   0  0  0  0  0  0  0  0  0  0  0  0
   37.4690   31.0510   29.3820 C   0  0  0  0  0  0  0  0  0  0  0  0
   37.5040   30.4910   28.1220 N   0  0  0  0  0  0  0  0  0  0  0  0
   38.2640   31.0060   27.1490 C   0  0  0  0  0  0  0  0  0  0  0  0
   39.0210   32.0850   27.3590 N   0  0  0  0  0  0  0  0  0  0  0  0
   39.5990   33.5650   28.8900 H   0  0  0  0  0  0  0  0  0  0  0  0
   38.1940   32.5730   30.6040 H   0  0  0  0  0  0  0  0  0  0  0  0
   38.2970   30.5720   26.1560 H   0  0  0  0  0  0  0  0  0  0  0  0
  1  6  1  0  0  0  0
  1  3  1  0  0  0  0
  2  1  2  0  0  0  0
  3  4  1  0  0  0  0
  5 13  1  0  0  0  0
  5 14  1  0  0  0  0
  6  5  2  0  0  0  0
  7  8  2  0  0  0  0
  7  6  1  0  0  0  0
  8 12  1  0  0  0  0
  9  8  1  0  0  0  0
  9 10  1  0  0  0  0
 10 11  2  0  0  0  0
 12 11  1  0  0  0  0
 12 13  2  0  0  0  0
 13 18  1  0  0  0  0
 15  7  1  0  0  0  0
 16  9  1  0  0  0  0
 17 10  1  0  0  0  0
 18 19  1  0  0  0  0
 19 20  1  0  0  0  0
 19 26  2  0  0  0  0
 20 22  2  0  0  0  0
 21 20  1  0  0  0  0
 22 23  1  0  0  0  0
 24 22  1  0  0  0  0
 24 25  1  0  0  0  0
 26 24  1  0  0  0  0
 27 28  1  0  0  0  0
 28 33  1  0  0  0  0
 29 30  1  0  0  0  0
 29 28  2  0  0  0  0
 30 31  2  0  0  0  0
 31 35  1  0  0  0  0
 31 32  1  0  0  0  0
 32 36  1  0  0  0  0
 33 32  2  0  0  0  0
 33  3  1  0  0  0  0
 34 30  1  0  0  0  0
 37 43  1  0  0  0  0
 37 38  1  0  0  0  0
 38 44  1  0  0  0  0
 39 38  2  0  0  0  0
 39 29  1  0  0  0  0
 40 39  1  0  0  0  0
 41 42  1  0  0  0  0
 41 40  2  0  0  0  0
 42 37  2  0  0  0  0
 45 41  1  0  0  0  0
M  END
>  <minimizedAffinity>
-6.15564919

$$$$

 OpenBabel03272503143D

 45 49  0  0  0  0  0  0  0  0999 V2000
   37.0120   26.5430   31.4490 C   0  0  0  0  0  0  0  0  0  0  0  0
   37.8010   27.3110   32.0950 O   0  0  0  0  0  0  0  0  0  0  0  0
   36.2460   27.1670   30.4440 N   0  0  0  0  0  0  0  0  0  0  0  0
   35.5990   26.5680   29.8980 H   0  0  0  0  0  0  0  0  0  0  0  0
   37.7800   24.7390   32.8490 C   0  0  0  0  0  0  0  0  0  0  0  0
   36.9740   25.1300   31.8010 C   0  0  0  0  0  0  0  0  0  0  0  0
   36.1670   24.2670   31.1080 C   0  0  0  0  0  0  0  0  0  0  0  0
   36.1500   22.9280   31.4690 C   0  0  0  0  0  0  0  0  0  0  0  0
   35.4820   21.8770   30.9950 N   0  0  0  0  0  0  0  0  0  0  0  0
   35.8360   20.8170   31.7110 C   0  0  0  0  0  0  0  0  0  0  0  0
   36.7370   21.1920   32.6500 N   0  0  0  0  0  0  0  0  0  0  0  0
   36.9580   22.5290   32.5220 C   0  0  0  0  0  0  0  0  0  0  0  0
   37.7740   23.3880   33.2250 C   0  0  0  0  0  0  0  0  0  0  0  0
   38.3970   25.4650   33.3590 H   0  0  0  0  0  0  0  0  0  0  0  0
   35.5560   24.6420   30.2910 H   0  0  0  0  0  0  0  0  0  0  0  0
   34.8120   21.9250   30.2010 H   0  0  0  0  0  0  0  0  0  0  0  0
   35.4520   19.8010   31.5580 H   0  0  0  0  0  0  0  0  0  0  0  0
   38.5710   22.9810   34.2630 O   0  0  0  0  0  0  0  0  0  0  0  0
   38.2510   22.9060   35.5830 C   0  0  0  0  0  0  0  0  0  0  0  0
   39.2970   23.3750   36.3910 C   0  0  0  0  0  0  0  0  0  0  0  0
   40.3120   23.7890   36.2610 H   0  0  0  0  0  0  0  0  0  0  0  0
   38.9090   23.2730   37.7140 C   0  0  0  0  0  0  0  0  0  0  0  0
   39.3740   23.5070   38.6630 H   0  0  0  0  0  0  0  0  0  0  0  0
   37.6600   22.7520   37.6340 N   0  0  0  0  0  0  0  0  0  0  0  0
   37.0240   22.5240   38.4510 H   0  0  0  0  0  0  0  0  0  0  0  0
   37.2540   22.5300   36.4020 N   0  0  0  0  0  0  0  0  0  0  0  0
   38.0070   28.1150   28.6040 F   0  0  0  0  0  0  0  0  0  0  0  0
   37.3780   29.0380   29.3800 C   0  0  0  0  0  0  0  0  0  0  0  0
   37.6420   30.3650   29.2150 C   0  0  0  0  0  0  0  0  0  0  0  0
   36.9720   31.2370   30.0310 C   0  0  0  0  0  0  0  0  0  0  0  0
   36.0650   30.8280   30.9860 C   0  0  0  0  0  0  0  0  0  0  0  0
   35.8120   29.4730   31.1350 C   0  0  0  0  0  0  0  0  0  0  0  0
   36.4790   28.5710   30.3200 C   0  0  0  0  0  0  0  0  0  0  0  0
   37.1850   32.3010   29.8980 H   0  0  0  0  0  0  0  0  0  0  0  0
   35.5880   31.5970   31.5810 H   0  0  0  0  0  0  0  0  0  0  0  0
   35.1030   29.1520   31.8810 H   0  0  0  0  0  0  0  0  0  0  0  0
   40.8730   31.2050   27.4360 C   0  0  0  0  0  0  0  0  0  0  0  0
   39.9650   30.8270   28.4560 C   0  0  0  0  0  0  0  0  0  0  0  0
   38.6120   30.7520   28.1910 C   0  0  0  0  0  0  0  0  0  0  0  0
   38.1920   31.0550   26.9130 N   0  0  0  0  0  0  0  0  0  0  0  0
   39.0610   31.4110   25.9590 C   0  0  0  0  0  0  0  0  0  0  0  0
   40.3700   31.4860   26.2060 N   0  0  0  0  0  0  0  0  0  0  0  0
   41.8850   31.2190   27.7880 H   0  0  0  0  0  0  0  0  0  0  0  0
   40.2490   30.5820   29.4650 H   0  0  0  0  0  0  0  0  0  0  0  0
   38.7390   31.6510   24.9520 H   0  0  0  0  0  0  0  0  0  0  0  0
  1  6  1  0  0  0  0
  1  2  2  0  0  0  0
  3  1  1  0  0  0  0
  4  3  1  0  0  0  0
  5 13  1  0  0  0  0
  5 14  1  0  0  0  0
  6  5  2  0  0  0  0
  7  8  2  0  0  0  0
  7  6  1  0  0  0  0
  8 12  1  0  0  0  0
  9  8  1  0  0  0  0
  9 10  1  0  0  0  0
 10 11  2  0  0  0  0
 12 11  1  0  0  0  0
 12 13  2  0  0  0  0
 13 18  1  0  0  0  0
 15  7  1  0  0  0  0
 16  9  1  0  0  0  0
 17 10  1  0  0  0  0
 18 19  1  0  0  0  0
 19 20  1  0  0  0  0
 19 26  2  0  0  0  0
 20 22  2  0  0  0  0
 21 20  1  0  0  0  0
 22 23  1  0  0  0  0
 24 22  1  0  0  0  0
 24 25  1  0  0  0  0
 26 24  1  0  0  0  0
 27 28  1  0  0  0  0
 28 33  1  0  0  0  0
 29 28  2  0  0  0  0
 29 30  1  0  0  0  0
 30 31  2  0  0  0  0
 31 32  1  0  0  0  0
 31 35  1  0  0  0  0
 32 36  1  0  0  0  0
 33  3  1  0  0  0  0
 33 32  2  0  0  0  0
 34 30  1  0  0  0  0
 37 43  1  0  0  0  0
 37 38  1  0  0  0  0
 38 44  1  0  0  0  0
 39 38  2  0  0  0  0
 39 29  1  0  0  0  0
 40 39  1  0  0  0  0
 41 42  1  0  0  0  0
 41 40  2  0  0  0  0
 42 37  2  0  0  0  0
 45 41  1  0  0  0  0
M  END
>  <minimizedAffinity>
-6.15428257

$$$$

 OpenBabel03272503143D

 45 49  0  0  0  0  0  0  0  0999 V2000
   37.2080   27.2180   32.3470 C   0  0  0  0  0  0  0  0  0  0  0  0
   36.5690   26.1280   32.5250 O   0  0  0  0  0  0  0  0  0  0  0  0
   38.6090   27.0940   32.2560 N   0  0  0  0  0  0  0  0  0  0  0  0
   39.1550   27.9620   32.1070 H   0  0  0  0  0  0  0  0  0  0  0  0
   35.6480   28.7670   33.3360 C   0  0  0  0  0  0  0  0  0  0  0  0
   36.4510   28.4600   32.2580 C   0  0  0  0  0  0  0  0  0  0  0  0
   36.5590   29.2560   31.1480 C   0  0  0  0  0  0  0  0  0  0  0  0
   35.8300   30.4350   31.0940 C   0  0  0  0  0  0  0  0  0  0  0  0
   35.7320   31.3910   30.1710 N   0  0  0  0  0  0  0  0  0  0  0  0
   34.8880   32.3070   30.6270 C   0  0  0  0  0  0  0  0  0  0  0  0
   34.4410   31.9360   31.8490 N   0  0  0  0  0  0  0  0  0  0  0  0
   35.0210   30.7480   32.1750 C   0  0  0  0  0  0  0  0  0  0  0  0
   34.9040   29.9550   33.2950 C   0  0  0  0  0  0  0  0  0  0  0  0
   35.6030   28.1000   34.1850 H   0  0  0  0  0  0  0  0  0  0  0  0
   37.2110   28.9550   30.3320 H   0  0  0  0  0  0  0  0  0  0  0  0
   36.2460   31.3790   29.2660 H   0  0  0  0  0  0  0  0  0  0  0  0
   34.6040   33.2200   30.0890 H   0  0  0  0  0  0  0  0  0  0  0  0
   34.0990   30.2740   34.3570 O   0  0  0  0  0  0  0  0  0  0  0  0
   34.4250   30.9860   35.4690 C   0  0  0  0  0  0  0  0  0  0  0  0
   33.2870   31.3190   36.2170 C   0  0  0  0  0  0  0  0  0  0  0  0
   32.1950   31.1680   36.1600 H   0  0  0  0  0  0  0  0  0  0  0  0
   33.6870   32.0380   37.3280 C   0  0  0  0  0  0  0  0  0  0  0  0
   33.1720   32.4930   38.1650 H   0  0  0  0  0  0  0  0  0  0  0  0
   35.0340   32.0990   37.1930 N   0  0  0  0  0  0  0  0  0  0  0  0
   35.7080   32.5760   37.8560 H   0  0  0  0  0  0  0  0  0  0  0  0
   35.4890   31.4930   36.1160 N   0  0  0  0  0  0  0  0  0  0  0  0
   39.1040   26.0410   34.7120 F   0  0  0  0  0  0  0  0  0  0  0  0
   39.3330   25.2320   33.6420 C   0  0  0  0  0  0  0  0  0  0  0  0
   39.7890   23.9610   33.8310 C   0  0  0  0  0  0  0  0  0  0  0  0
   39.9970   23.2040   32.7090 C   0  0  0  0  0  0  0  0  0  0  0  0
   39.7660   23.6710   31.4320 C   0  0  0  0  0  0  0  0  0  0  0  0
   39.3020   24.9670   31.2660 C   0  0  0  0  0  0  0  0  0  0  0  0
   39.0850   25.7530   32.3870 C   0  0  0  0  0  0  0  0  0  0  0  0
   40.3620   22.1850   32.8620 H   0  0  0  0  0  0  0  0  0  0  0  0
   39.9620   22.9940   30.6110 H   0  0  0  0  0  0  0  0  0  0  0  0
   39.1230   25.3340   30.2680 H   0  0  0  0  0  0  0  0  0  0  0  0
   39.2530   22.9310   37.4310 C   0  0  0  0  0  0  0  0  0  0  0  0
   38.9890   23.3740   36.1120 C   0  0  0  0  0  0  0  0  0  0  0  0
   40.0190   23.5090   35.2020 C   0  0  0  0  0  0  0  0  0  0  0  0
   41.2930   23.1980   35.6290 N   0  0  0  0  0  0  0  0  0  0  0  0
   41.5280   22.7810   36.8800 C   0  0  0  0  0  0  0  0  0  0  0  0
   40.5380   22.6480   37.7640 N   0  0  0  0  0  0  0  0  0  0  0  0
   38.3590   22.8760   38.0200 H   0  0  0  0  0  0  0  0  0  0  0  0
   38.0110   23.6260   35.7370 H   0  0  0  0  0  0  0  0  0  0  0  0
   42.5270   22.5350   37.2230 H   0  0  0  0  0  0  0  0  0  0  0  0
  1  2  2  0  0  0  0
  3  1  1  0  0  0  0
  3 33  1  0  0  0  0
  4  3  1  0  0  0  0
  5 14  1  0  0  0  0
  6  1  1  0  0  0  0
  6  5  2  0  0  0  0
  7  6  1  0  0  0  0
  8  7  2  0  0  0  0
  8 12  1  0  0  0  0
  9 10  1  0  0  0  0
  9  8  1  0  0  0  0
 10 11  2  0  0  0  0
 11 12  1  0  0  0  0
 12 13  2  0  0  0  0
 13  5  1  0  0  0  0
 13 18  1  0  0  0  0
 15  7  1  0  0  0  0
 16  9  1  0  0  0  0
 17 10  1  0  0  0  0
 18 19  1  0  0  0  0
 19 26  2  0  0  0  0
 19 20  1  0  0  0  0
 20 22  2  0  0  0  0
 21 20  1  0  0  0  0
 22 23  1  0  0  0  0
 24 22  1  0  0  0  0
 24 25  1  0  0  0  0
 26 24  1  0  0  0  0
 28 29  1  0  0  0  0
 28 27  1  0  0  0  0
 29 39  1  0  0  0  0
 30 34  1  0  0  0  0
 30 29  2  0  0  0  0
 31 30  1  0  0  0  0
 32 31  2  0  0  0  0
 32 33  1  0  0  0  0
 33 28  2  0  0  0  0
 35 31  1  0  0  0  0
 36 32  1  0  0  0  0
 37 42  1  0  0  0  0
 37 43  1  0  0  0  0
 38 37  2  0  0  0  0
 39 40  2  0  0  0  0
 39 38  1  0  0  0  0
 40 41  1  0  0  0  0
 41 45  1  0  0  0  0
 41 42  2  0  0  0  0
 44 38  1  0  0  0  0
M  END
>  <minimizedAffinity>
-6.12401867

$$$$
