
 OpenBabel03262522583D

 24 26  0  0  0  0  0  0  0  0999 V2000
   38.8500   25.6430   34.9300 C   0  0  0  0  0  0  0  0  0  0  0  0
   39.8380   26.5090   34.5460 C   0  0  0  0  0  0  0  0  0  0  0  0
   39.4720   27.1100   33.3790 C   0  0  0  0  0  0  0  0  0  0  0  0
   38.2580   26.6110   33.0490 N   0  0  0  0  0  0  0  0  0  0  0  0
   37.8960   25.7260   33.9970 N   0  0  0  0  0  0  0  0  0  0  0  0
   40.7530   26.6680   35.1030 H   0  0  0  0  0  0  0  0  0  0  0  0
   40.0570   27.8520   32.8230 H   0  0  0  0  0  0  0  0  0  0  0  0
   37.4930   26.9580   31.8990 C   0  0  0  0  0  0  0  0  0  0  0  0
   37.7210   28.1660   31.2730 C   0  0  0  0  0  0  0  0  0  0  0  0
   38.4210   28.9590   31.5030 H   0  0  0  0  0  0  0  0  0  0  0  0
   36.8150   28.1790   30.2070 C   0  0  0  0  0  0  0  0  0  0  0  0
   36.7270   28.9930   29.5020 H   0  0  0  0  0  0  0  0  0  0  0  0
   36.0960   27.0200   30.2230 N   0  0  0  0  0  0  0  0  0  0  0  0
   35.3730   26.8370   29.5150 H   0  0  0  0  0  0  0  0  0  0  0  0
   36.5140   26.2780   31.2610 N   0  0  0  0  0  0  0  0  0  0  0  0
   37.9660   24.2450   38.2130 C   0  0  0  0  0  0  0  0  0  0  0  0
   38.8360   23.1350   38.3000 C   0  0  0  0  0  0  0  0  0  0  0  0
   39.7160   22.8830   37.2270 C   0  0  0  0  0  0  0  0  0  0  0  0
   39.6810   23.7240   36.1570 N   0  0  0  0  0  0  0  0  0  0  0  0
   38.8190   24.7890   36.1200 C   0  0  0  0  0  0  0  0  0  0  0  0
   37.9930   25.0240   37.1310 N   0  0  0  0  0  0  0  0  0  0  0  0
   37.3010   24.4190   39.0470 H   0  0  0  0  0  0  0  0  0  0  0  0
   38.8800   22.4610   39.1300 H   0  0  0  0  0  0  0  0  0  0  0  0
   40.4080   22.0530   37.2240 H   0  0  0  0  0  0  0  0  0  0  0  0
  1 20  1  0  0  0  0
  2  1  1  0  0  0  0
  2  6  1  0  0  0  0
  3  2  2  0  0  0  0
  4  3  1  0  0  0  0
  4  5  1  0  0  0  0
  5  1  2  0  0  0  0
  7  3  1  0  0  0  0
  8  4  1  0  0  0  0
  9 10  1  0  0  0  0
  9  8  1  0  0  0  0
 11 13  1  0  0  0  0
 11  9  2  0  0  0  0
 12 11  1  0  0  0  0
 13 15  1  0  0  0  0
 14 13  1  0  0  0  0
 15  8  2  0  0  0  0
 16 17  1  0  0  0  0
 16 22  1  0  0  0  0
 17 23  1  0  0  0  0
 18 17  2  0  0  0  0
 19 18  1  0  0  0  0
 20 19  2  0  0  0  0
 20 21  1  0  0  0  0
 21 16  2  0  0  0  0
 24 18  1  0  0  0  0
M  END
>  <minimizedAffinity>
-4.85384607

$$$$

 OpenBabel03262522583D

 24 26  0  0  0  0  0  0  0  0999 V2000
   38.9010   25.6040   34.9130 C   0  0  0  0  0  0  0  0  0  0  0  0
   39.8630   26.5040   34.5420 C   0  0  0  0  0  0  0  0  0  0  0  0
   39.4780   27.1140   33.3860 C   0  0  0  0  0  0  0  0  0  0  0  0
   38.2780   26.5850   33.0490 N   0  0  0  0  0  0  0  0  0  0  0  0
   37.9440   25.6750   33.9830 N   0  0  0  0  0  0  0  0  0  0  0  0
   40.7750   26.6790   35.1000 H   0  0  0  0  0  0  0  0  0  0  0  0
   40.0410   27.8810   32.8420 H   0  0  0  0  0  0  0  0  0  0  0  0
   37.5010   26.9300   31.9070 C   0  0  0  0  0  0  0  0  0  0  0  0
   37.6930   28.1550   31.3010 C   0  0  0  0  0  0  0  0  0  0  0  0
   38.3710   28.9640   31.5430 H   0  0  0  0  0  0  0  0  0  0  0  0
   36.7850   28.1610   30.2370 C   0  0  0  0  0  0  0  0  0  0  0  0
   36.6730   28.9830   29.5460 H   0  0  0  0  0  0  0  0  0  0  0  0
   36.0990   26.9820   30.2350 N   0  0  0  0  0  0  0  0  0  0  0  0
   35.3800   26.7900   29.5250 H   0  0  0  0  0  0  0  0  0  0  0  0
   36.5410   26.2340   31.2590 N   0  0  0  0  0  0  0  0  0  0  0  0
   39.6990   22.8850   37.2550 C   0  0  0  0  0  0  0  0  0  0  0  0
   38.8160   23.1540   38.3250 C   0  0  0  0  0  0  0  0  0  0  0  0
   37.9580   24.2690   38.2260 C   0  0  0  0  0  0  0  0  0  0  0  0
   38.0240   25.0320   37.1010 N   0  0  0  0  0  0  0  0  0  0  0  0
   38.8970   24.7290   36.0880 C   0  0  0  0  0  0  0  0  0  0  0  0
   39.7030   23.6800   36.1840 N   0  0  0  0  0  0  0  0  0  0  0  0
   40.3470   22.0250   37.3520 H   0  0  0  0  0  0  0  0  0  0  0  0
   38.7480   22.5680   39.2180 H   0  0  0  0  0  0  0  0  0  0  0  0
   37.2580   24.5360   39.0040 H   0  0  0  0  0  0  0  0  0  0  0  0
  1 20  1  0  0  0  0
  2  1  1  0  0  0  0
  2  6  1  0  0  0  0
  3  2  2  0  0  0  0
  4  3  1  0  0  0  0
  4  5  1  0  0  0  0
  5  1  2  0  0  0  0
  7  3  1  0  0  0  0
  8  4  1  0  0  0  0
  9 10  1  0  0  0  0
  9  8  1  0  0  0  0
 11  9  2  0  0  0  0
 12 11  1  0  0  0  0
 13 11  1  0  0  0  0
 13 15  1  0  0  0  0
 14 13  1  0  0  0  0
 15  8  2  0  0  0  0
 16 22  1  0  0  0  0
 16 17  1  0  0  0  0
 17 23  1  0  0  0  0
 18 17  2  0  0  0  0
 18 24  1  0  0  0  0
 19 18  1  0  0  0  0
 20 21  1  0  0  0  0
 20 19  2  0  0  0  0
 21 16  2  0  0  0  0
M  END
>  <minimizedAffinity>
-4.8510251

$$$$

 OpenBabel03262522583D

 24 26  0  0  0  0  0  0  0  0999 V2000
   38.2580   24.6930   33.2790 C   0  0  0  0  0  0  0  0  0  0  0  0
   39.5720   25.0010   33.0550 C   0  0  0  0  0  0  0  0  0  0  0  0
   40.3230   24.5160   34.0840 C   0  0  0  0  0  0  0  0  0  0  0  0
   39.4650   23.9090   34.9380 N   0  0  0  0  0  0  0  0  0  0  0  0
   38.2210   24.0250   34.4360 N   0  0  0  0  0  0  0  0  0  0  0  0
   39.9280   25.5450   32.1890 H   0  0  0  0  0  0  0  0  0  0  0  0
   41.4100   24.6060   34.1900 H   0  0  0  0  0  0  0  0  0  0  0  0
   39.8130   23.2600   36.1580 C   0  0  0  0  0  0  0  0  0  0  0  0
   41.1020   22.7990   36.3350 C   0  0  0  0  0  0  0  0  0  0  0  0
   41.9620   22.8390   35.6800 H   0  0  0  0  0  0  0  0  0  0  0  0
   41.0910   22.2300   37.6130 C   0  0  0  0  0  0  0  0  0  0  0  0
   41.9520   21.7700   38.0730 H   0  0  0  0  0  0  0  0  0  0  0  0
   39.8420   22.3610   38.1450 N   0  0  0  0  0  0  0  0  0  0  0  0
   39.6280   22.0030   39.0860 H   0  0  0  0  0  0  0  0  0  0  0  0
   39.0650   22.9910   37.2500 N   0  0  0  0  0  0  0  0  0  0  0  0
   35.7200   26.5620   31.3870 C   0  0  0  0  0  0  0  0  0  0  0  0
   34.9350   25.5200   30.8450 C   0  0  0  0  0  0  0  0  0  0  0  0
   35.2900   24.1870   31.1370 C   0  0  0  0  0  0  0  0  0  0  0  0
   36.3760   23.9710   31.9300 N   0  0  0  0  0  0  0  0  0  0  0  0
   37.1050   25.0160   32.4340 C   0  0  0  0  0  0  0  0  0  0  0  0
   36.7680   26.2690   32.1570 N   0  0  0  0  0  0  0  0  0  0  0  0
   35.4290   27.5760   31.1500 H   0  0  0  0  0  0  0  0  0  0  0  0
   34.0790   25.6670   30.2190 H   0  0  0  0  0  0  0  0  0  0  0  0
   34.7380   23.3400   30.7570 H   0  0  0  0  0  0  0  0  0  0  0  0
  1  5  2  0  0  0  0
  2  1  1  0  0  0  0
  2  3  2  0  0  0  0
  3  7  1  0  0  0  0
  3  4  1  0  0  0  0
  4  8  1  0  0  0  0
  5  4  1  0  0  0  0
  6  2  1  0  0  0  0
  8  9  1  0  0  0  0
  8 15  2  0  0  0  0
  9 11  2  0  0  0  0
 10  9  1  0  0  0  0
 11 12  1  0  0  0  0
 11 13  1  0  0  0  0
 13 14  1  0  0  0  0
 15 13  1  0  0  0  0
 16 21  1  0  0  0  0
 17 18  1  0  0  0  0
 17 16  2  0  0  0  0
 18 19  2  0  0  0  0
 19 20  1  0  0  0  0
 20  1  1  0  0  0  0
 21 20  2  0  0  0  0
 22 16  1  0  0  0  0
 23 17  1  0  0  0  0
 24 18  1  0  0  0  0
M  END
>  <minimizedAffinity>
-4.76585197

$$$$

 OpenBabel03262522583D

 24 26  0  0  0  0  0  0  0  0999 V2000
   38.0730   26.5090   34.3690 C   0  0  0  0  0  0  0  0  0  0  0  0
   39.3870   26.4690   33.9930 C   0  0  0  0  0  0  0  0  0  0  0  0
   40.0350   25.5320   34.7410 C   0  0  0  0  0  0  0  0  0  0  0  0
   39.1130   24.9980   35.5760 N   0  0  0  0  0  0  0  0  0  0  0  0
   37.9320   25.6000   35.3390 N   0  0  0  0  0  0  0  0  0  0  0  0
   39.8150   27.0960   33.2200 H   0  0  0  0  0  0  0  0  0  0  0  0
   41.0970   25.2700   34.6710 H   0  0  0  0  0  0  0  0  0  0  0  0
   39.3470   23.9770   36.5410 C   0  0  0  0  0  0  0  0  0  0  0  0
   40.4260   23.1310   36.3840 C   0  0  0  0  0  0  0  0  0  0  0  0
   41.1840   23.0900   35.6130 H   0  0  0  0  0  0  0  0  0  0  0  0
   40.3540   22.2710   37.4850 C   0  0  0  0  0  0  0  0  0  0  0  0
   41.0590   21.4760   37.6740 H   0  0  0  0  0  0  0  0  0  0  0  0
   39.2740   22.6140   38.2440 N   0  0  0  0  0  0  0  0  0  0  0  0
   39.0470   22.0980   39.1050 H   0  0  0  0  0  0  0  0  0  0  0  0
   38.6620   23.6580   37.6620 N   0  0  0  0  0  0  0  0  0  0  0  0
   35.4600   29.0800   34.0790 C   0  0  0  0  0  0  0  0  0  0  0  0
   35.0420   28.9190   32.7390 C   0  0  0  0  0  0  0  0  0  0  0  0
   35.6640   27.9280   31.9530 C   0  0  0  0  0  0  0  0  0  0  0  0
   36.6420   27.1730   32.5270 N   0  0  0  0  0  0  0  0  0  0  0  0
   37.0120   27.3670   33.8320 C   0  0  0  0  0  0  0  0  0  0  0  0
   36.4240   28.3000   34.5690 N   0  0  0  0  0  0  0  0  0  0  0  0
   34.9690   29.8460   34.6630 H   0  0  0  0  0  0  0  0  0  0  0  0
   34.2760   29.5010   32.2680 H   0  0  0  0  0  0  0  0  0  0  0  0
   35.3970   27.7480   30.9220 H   0  0  0  0  0  0  0  0  0  0  0  0
  1  5  2  0  0  0  0
  2  1  1  0  0  0  0
  2  3  2  0  0  0  0
  3  4  1  0  0  0  0
  4  8  1  0  0  0  0
  5  4  1  0  0  0  0
  6  2  1  0  0  0  0
  7  3  1  0  0  0  0
  8 15  2  0  0  0  0
  9  8  1  0  0  0  0
  9 11  2  0  0  0  0
 10  9  1  0  0  0  0
 11 12  1  0  0  0  0
 11 13  1  0  0  0  0
 13 14  1  0  0  0  0
 15 13  1  0  0  0  0
 16 21  1  0  0  0  0
 16 22  1  0  0  0  0
 17 16  2  0  0  0  0
 18 19  2  0  0  0  0
 18 17  1  0  0  0  0
 19 20  1  0  0  0  0
 20  1  1  0  0  0  0
 20 21  2  0  0  0  0
 23 17  1  0  0  0  0
 24 18  1  0  0  0  0
M  END
>  <minimizedAffinity>
-4.75745058

$$$$

 OpenBabel03262522583D

 24 26  0  0  0  0  0  0  0  0999 V2000
   38.2610   25.8490   35.4430 C   0  0  0  0  0  0  0  0  0  0  0  0
   38.1000   27.1420   35.8610 C   0  0  0  0  0  0  0  0  0  0  0  0
   37.5870   27.8790   34.8350 C   0  0  0  0  0  0  0  0  0  0  0  0
   37.4340   27.0340   33.7890 N   0  0  0  0  0  0  0  0  0  0  0  0
   37.8460   25.8110   34.1730 N   0  0  0  0  0  0  0  0  0  0  0  0
   38.3500   27.4930   36.8540 H   0  0  0  0  0  0  0  0  0  0  0  0
   37.3490   28.9490   34.8640 H   0  0  0  0  0  0  0  0  0  0  0  0
   36.9270   27.3750   32.5020 C   0  0  0  0  0  0  0  0  0  0  0  0
   36.1230   28.4880   32.3640 C   0  0  0  0  0  0  0  0  0  0  0  0
   35.7790   29.2060   33.0980 H   0  0  0  0  0  0  0  0  0  0  0  0
   35.8120   28.5230   31.0010 C   0  0  0  0  0  0  0  0  0  0  0  0
   35.1910   29.2790   30.5450 H   0  0  0  0  0  0  0  0  0  0  0  0
   36.4160   27.4670   30.3830 N   0  0  0  0  0  0  0  0  0  0  0  0
   36.3090   27.3160   29.3710 H   0  0  0  0  0  0  0  0  0  0  0  0
   37.0960   26.7690   31.3060 N   0  0  0  0  0  0  0  0  0  0  0  0
   40.2750   22.9570   36.4910 C   0  0  0  0  0  0  0  0  0  0  0  0
   39.6780   22.6200   37.7270 C   0  0  0  0  0  0  0  0  0  0  0  0
   38.5900   23.3930   38.1830 C   0  0  0  0  0  0  0  0  0  0  0  0
   38.1690   24.4290   37.4070 N   0  0  0  0  0  0  0  0  0  0  0  0
   38.7800   24.7160   36.2140 C   0  0  0  0  0  0  0  0  0  0  0  0
   39.8030   23.9870   35.7880 N   0  0  0  0  0  0  0  0  0  0  0  0
   41.1060   22.3510   36.1610 H   0  0  0  0  0  0  0  0  0  0  0  0
   39.9930   21.8110   38.3520 H   0  0  0  0  0  0  0  0  0  0  0  0
   38.0850   23.1940   39.1170 H   0  0  0  0  0  0  0  0  0  0  0  0
  1  2  1  0  0  0  0
  1 20  1  0  0  0  0
  2  6  1  0  0  0  0
  3  7  1  0  0  0  0
  3  2  2  0  0  0  0
  4  5  1  0  0  0  0
  4  3  1  0  0  0  0
  5  1  2  0  0  0  0
  8  4  1  0  0  0  0
  9  8  1  0  0  0  0
  9 10  1  0  0  0  0
 11  9  2  0  0  0  0
 12 11  1  0  0  0  0
 13 11  1  0  0  0  0
 13 15  1  0  0  0  0
 14 13  1  0  0  0  0
 15  8  2  0  0  0  0
 16 17  1  0  0  0  0
 17 18  2  0  0  0  0
 17 23  1  0  0  0  0
 18 24  1  0  0  0  0
 19 18  1  0  0  0  0
 20 19  2  0  0  0  0
 21 20  1  0  0  0  0
 21 16  2  0  0  0  0
 22 16  1  0  0  0  0
M  END
>  <minimizedAffinity>
-4.59056568

$$$$

 OpenBabel03262522583D

 24 26  0  0  0  0  0  0  0  0999 V2000
   37.9100   25.1910   34.9010 C   0  0  0  0  0  0  0  0  0  0  0  0
   37.8540   24.8030   33.5910 C   0  0  0  0  0  0  0  0  0  0  0  0
   37.3130   25.8120   32.8510 C   0  0  0  0  0  0  0  0  0  0  0  0
   37.0390   26.8200   33.7130 N   0  0  0  0  0  0  0  0  0  0  0  0
   37.4060   26.4280   34.9480 N   0  0  0  0  0  0  0  0  0  0  0  0
   38.1920   23.8390   33.2300 H   0  0  0  0  0  0  0  0  0  0  0  0
   37.1390   25.7990   31.7690 H   0  0  0  0  0  0  0  0  0  0  0  0
   36.4620   28.0780   33.3760 C   0  0  0  0  0  0  0  0  0  0  0  0
   36.5610   28.5440   32.0800 C   0  0  0  0  0  0  0  0  0  0  0  0
   37.0270   28.1050   31.2070 H   0  0  0  0  0  0  0  0  0  0  0  0
   35.9020   29.7760   32.1050 C   0  0  0  0  0  0  0  0  0  0  0  0
   35.7920   30.4170   31.2430 H   0  0  0  0  0  0  0  0  0  0  0  0
   35.4420   30.0070   33.3690 N   0  0  0  0  0  0  0  0  0  0  0  0
   34.9260   30.8680   33.5950 H   0  0  0  0  0  0  0  0  0  0  0  0
   35.7890   28.9650   34.1410 N   0  0  0  0  0  0  0  0  0  0  0  0
   39.9210   22.9160   36.9740 C   0  0  0  0  0  0  0  0  0  0  0  0
   39.2900   23.0350   38.2320 C   0  0  0  0  0  0  0  0  0  0  0  0
   38.1800   23.8960   38.3510 C   0  0  0  0  0  0  0  0  0  0  0  0
   37.7720   24.5730   37.2430 N   0  0  0  0  0  0  0  0  0  0  0  0
   38.4170   24.4240   36.0430 C   0  0  0  0  0  0  0  0  0  0  0  0
   39.4610   23.6130   35.9340 N   0  0  0  0  0  0  0  0  0  0  0  0
   40.7700   22.2500   36.9060 H   0  0  0  0  0  0  0  0  0  0  0  0
   39.5940   22.5120   39.1160 H   0  0  0  0  0  0  0  0  0  0  0  0
   37.6480   24.0360   39.2810 H   0  0  0  0  0  0  0  0  0  0  0  0
  1  5  2  0  0  0  0
  1 20  1  0  0  0  0
  2  1  1  0  0  0  0
  3  2  2  0  0  0  0
  3  4  1  0  0  0  0
  4  5  1  0  0  0  0
  6  2  1  0  0  0  0
  7  3  1  0  0  0  0
  8  4  1  0  0  0  0
  8 15  2  0  0  0  0
  9 11  2  0  0  0  0
  9  8  1  0  0  0  0
 10  9  1  0  0  0  0
 11 13  1  0  0  0  0
 12 11  1  0  0  0  0
 13 14  1  0  0  0  0
 13 15  1  0  0  0  0
 16 17  1  0  0  0  0
 17 18  2  0  0  0  0
 17 23  1  0  0  0  0
 18 24  1  0  0  0  0
 19 18  1  0  0  0  0
 20 19  2  0  0  0  0
 21 20  1  0  0  0  0
 21 16  2  0  0  0  0
 22 16  1  0  0  0  0
M  END
>  <minimizedAffinity>
-4.57139826

$$$$

 OpenBabel03262522583D

 24 26  0  0  0  0  0  0  0  0999 V2000
   38.1980   24.8570   35.5620 C   0  0  0  0  0  0  0  0  0  0  0  0
   37.7610   24.4050   36.7770 C   0  0  0  0  0  0  0  0  0  0  0  0
   38.6030   23.4270   37.2160 C   0  0  0  0  0  0  0  0  0  0  0  0
   39.5560   23.2810   36.2650 N   0  0  0  0  0  0  0  0  0  0  0  0
   39.2970   24.1530   35.2730 N   0  0  0  0  0  0  0  0  0  0  0  0
   36.8820   24.7850   37.2840 H   0  0  0  0  0  0  0  0  0  0  0  0
   38.5140   22.8720   38.1560 H   0  0  0  0  0  0  0  0  0  0  0  0
   40.6460   22.3650   36.3050 C   0  0  0  0  0  0  0  0  0  0  0  0
   41.0770   21.8760   37.5210 C   0  0  0  0  0  0  0  0  0  0  0  0
   40.7190   22.0670   38.5250 H   0  0  0  0  0  0  0  0  0  0  0  0
   42.1370   21.0240   37.1950 C   0  0  0  0  0  0  0  0  0  0  0  0
   42.7080   20.4680   37.9240 H   0  0  0  0  0  0  0  0  0  0  0  0
   42.3070   21.0270   35.8420 N   0  0  0  0  0  0  0  0  0  0  0  0
   43.0410   20.4590   35.4000 H   0  0  0  0  0  0  0  0  0  0  0  0
   41.3920   21.8490   35.3030 N   0  0  0  0  0  0  0  0  0  0  0  0
   36.7220   28.0380   34.4570 C   0  0  0  0  0  0  0  0  0  0  0  0
   36.4890   27.7900   33.0860 C   0  0  0  0  0  0  0  0  0  0  0  0
   36.8440   26.5310   32.5590 C   0  0  0  0  0  0  0  0  0  0  0  0
   37.3950   25.6150   33.4020 N   0  0  0  0  0  0  0  0  0  0  0  0
   37.6000   25.9030   34.7270 C   0  0  0  0  0  0  0  0  0  0  0  0
   37.2650   27.0880   35.2190 N   0  0  0  0  0  0  0  0  0  0  0  0
   36.4410   29.0100   34.8400 H   0  0  0  0  0  0  0  0  0  0  0  0
   36.0580   28.4950   32.4060 H   0  0  0  0  0  0  0  0  0  0  0  0
   36.6960   26.2710   31.5210 H   0  0  0  0  0  0  0  0  0  0  0  0
  1  2  1  0  0  0  0
  2  3  2  0  0  0  0
  2  6  1  0  0  0  0
  3  7  1  0  0  0  0
  4  8  1  0  0  0  0
  4  3  1  0  0  0  0
  5  1  2  0  0  0  0
  5  4  1  0  0  0  0
  8  9  1  0  0  0  0
  9 10  1  0  0  0  0
 11  9  2  0  0  0  0
 11 12  1  0  0  0  0
 13 11  1  0  0  0  0
 14 13  1  0  0  0  0
 15 13  1  0  0  0  0
 15  8  2  0  0  0  0
 16 22  1  0  0  0  0
 16 21  1  0  0  0  0
 17 16  2  0  0  0  0
 18 17  1  0  0  0  0
 18 19  2  0  0  0  0
 19 20  1  0  0  0  0
 20 21  2  0  0  0  0
 20  1  1  0  0  0  0
 23 17  1  0  0  0  0
 24 18  1  0  0  0  0
M  END
>  <minimizedAffinity>
-4.5151372

$$$$

 OpenBabel03262522583D

 24 26  0  0  0  0  0  0  0  0999 V2000
   39.5220   25.8490   34.4870 C   0  0  0  0  0  0  0  0  0  0  0  0
   40.8660   26.0080   34.2860 C   0  0  0  0  0  0  0  0  0  0  0  0
   41.5330   25.0230   34.9530 C   0  0  0  0  0  0  0  0  0  0  0  0
   40.5930   24.2620   35.5620 N   0  0  0  0  0  0  0  0  0  0  0  0
   39.3830   24.7760   35.2700 N   0  0  0  0  0  0  0  0  0  0  0  0
   41.3000   26.7990   33.6880 H   0  0  0  0  0  0  0  0  0  0  0  0
   42.6200   24.8860   34.9840 H   0  0  0  0  0  0  0  0  0  0  0  0
   40.8380   23.1170   36.3730 C   0  0  0  0  0  0  0  0  0  0  0  0
   42.0220   22.4240   36.2260 C   0  0  0  0  0  0  0  0  0  0  0  0
   42.8630   22.5950   35.5660 H   0  0  0  0  0  0  0  0  0  0  0  0
   41.9300   21.3830   37.1560 C   0  0  0  0  0  0  0  0  0  0  0  0
   42.7000   20.6410   37.3060 H   0  0  0  0  0  0  0  0  0  0  0  0
   40.7370   21.4780   37.8100 N   0  0  0  0  0  0  0  0  0  0  0  0
   40.4780   20.8000   38.5390 H   0  0  0  0  0  0  0  0  0  0  0  0
   40.0730   22.5400   37.3260 N   0  0  0  0  0  0  0  0  0  0  0  0
   37.2640   27.6060   32.1770 C   0  0  0  0  0  0  0  0  0  0  0  0
   36.3710   28.2400   33.0700 C   0  0  0  0  0  0  0  0  0  0  0  0
   36.5580   28.0550   34.4550 C   0  0  0  0  0  0  0  0  0  0  0  0
   37.5930   27.2700   34.8640 N   0  0  0  0  0  0  0  0  0  0  0  0
   38.4330   26.6770   33.9590 C   0  0  0  0  0  0  0  0  0  0  0  0
   38.2550   26.8540   32.6560 N   0  0  0  0  0  0  0  0  0  0  0  0
   37.1030   27.7630   31.1200 H   0  0  0  0  0  0  0  0  0  0  0  0
   35.5520   28.8600   32.7700 H   0  0  0  0  0  0  0  0  0  0  0  0
   35.9150   28.5080   35.1960 H   0  0  0  0  0  0  0  0  0  0  0  0
  1  5  2  0  0  0  0
  2  1  1  0  0  0  0
  2  3  2  0  0  0  0
  3  7  1  0  0  0  0
  3  4  1  0  0  0  0
  4  8  1  0  0  0  0
  5  4  1  0  0  0  0
  6  2  1  0  0  0  0
  8 15  2  0  0  0  0
  9  8  1  0  0  0  0
  9 11  2  0  0  0  0
 10  9  1  0  0  0  0
 11 12  1  0  0  0  0
 11 13  1  0  0  0  0
 13 14  1  0  0  0  0
 15 13  1  0  0  0  0
 16 21  2  0  0  0  0
 16 17  1  0  0  0  0
 17 18  2  0  0  0  0
 18 19  1  0  0  0  0
 18 24  1  0  0  0  0
 20  1  1  0  0  0  0
 20 19  2  0  0  0  0
 21 20  1  0  0  0  0
 22 16  1  0  0  0  0
 23 17  1  0  0  0  0
M  END
>  <minimizedAffinity>
-4.50084305

$$$$

 OpenBabel03262522583D

 24 26  0  0  0  0  0  0  0  0999 V2000
   37.3280   27.2010   34.5750 C   0  0  0  0  0  0  0  0  0  0  0  0
   38.0470   27.6000   35.6690 C   0  0  0  0  0  0  0  0  0  0  0  0
   38.5480   26.4980   36.2960 C   0  0  0  0  0  0  0  0  0  0  0  0
   38.1330   25.4240   35.5840 N   0  0  0  0  0  0  0  0  0  0  0  0
   37.3970   25.8670   34.5470 N   0  0  0  0  0  0  0  0  0  0  0  0
   38.1790   28.6340   35.9630 H   0  0  0  0  0  0  0  0  0  0  0  0
   39.1640   26.4950   37.2020 H   0  0  0  0  0  0  0  0  0  0  0  0
   38.4230   24.0610   35.8770 C   0  0  0  0  0  0  0  0  0  0  0  0
   39.5270   23.7530   36.6450 C   0  0  0  0  0  0  0  0  0  0  0  0
   40.2700   24.3940   37.1020 H   0  0  0  0  0  0  0  0  0  0  0  0
   39.5080   22.3570   36.7320 C   0  0  0  0  0  0  0  0  0  0  0  0
   40.2430   21.7780   37.2710 H   0  0  0  0  0  0  0  0  0  0  0  0
   38.4330   21.8850   36.0390 N   0  0  0  0  0  0  0  0  0  0  0  0
   38.2420   20.8760   35.9820 H   0  0  0  0  0  0  0  0  0  0  0  0
   37.7730   22.9310   35.5180 N   0  0  0  0  0  0  0  0  0  0  0  0
   36.1400   28.6870   31.4280 C   0  0  0  0  0  0  0  0  0  0  0  0
   35.2450   29.6760   31.8940 C   0  0  0  0  0  0  0  0  0  0  0  0
   35.0620   29.8180   33.2850 C   0  0  0  0  0  0  0  0  0  0  0  0
   35.7590   28.9920   34.1120 N   0  0  0  0  0  0  0  0  0  0  0  0
   36.6180   28.0480   33.6120 C   0  0  0  0  0  0  0  0  0  0  0  0
   36.7880   27.9160   32.3030 N   0  0  0  0  0  0  0  0  0  0  0  0
   36.2650   28.5960   30.3590 H   0  0  0  0  0  0  0  0  0  0  0  0
   34.6870   30.3350   31.2620 H   0  0  0  0  0  0  0  0  0  0  0  0
   34.3940   30.5520   33.7130 H   0  0  0  0  0  0  0  0  0  0  0  0
  1  2  1  0  0  0  0
  2  6  1  0  0  0  0
  2  3  2  0  0  0  0
  3  7  1  0  0  0  0
  4  8  1  0  0  0  0
  4  3  1  0  0  0  0
  5  1  2  0  0  0  0
  5  4  1  0  0  0  0
  8  9  1  0  0  0  0
  9 11  2  0  0  0  0
  9 10  1  0  0  0  0
 11 12  1  0  0  0  0
 13 11  1  0  0  0  0
 14 13  1  0  0  0  0
 15  8  2  0  0  0  0
 15 13  1  0  0  0  0
 16 17  2  0  0  0  0
 16 21  1  0  0  0  0
 17 18  1  0  0  0  0
 18 24  1  0  0  0  0
 18 19  2  0  0  0  0
 20 19  1  0  0  0  0
 20  1  1  0  0  0  0
 21 20  2  0  0  0  0
 22 16  1  0  0  0  0
 23 17  1  0  0  0  0
M  END
>  <minimizedAffinity>
-4.48487282

$$$$
