
 OpenBabel03272503123D

 45 49  0  0  0  0  0  0  0  0999 V2000
   39.2640   31.8870   44.9460 C   0  0  0  0  0  0  0  0  0  0  0  0
   38.1720   32.5380   45.0620 O   0  0  0  0  0  0  0  0  0  0  0  0
   39.9490   31.6300   46.1500 N   0  0  0  0  0  0  0  0  0  0  0  0
   40.8370   31.0990   46.0890 H   0  0  0  0  0  0  0  0  0  0  0  0
   39.1260   32.1590   42.5550 C   0  0  0  0  0  0  0  0  0  0  0  0
   39.6920   31.4810   43.6140 C   0  0  0  0  0  0  0  0  0  0  0  0
   40.6130   30.4780   43.4610 C   0  0  0  0  0  0  0  0  0  0  0  0
   41.0050   30.1170   42.1800 C   0  0  0  0  0  0  0  0  0  0  0  0
   41.8610   29.2030   41.7250 N   0  0  0  0  0  0  0  0  0  0  0  0
   41.8630   29.2750   40.4000 C   0  0  0  0  0  0  0  0  0  0  0  0
   41.0010   30.2400   40.0030 N   0  0  0  0  0  0  0  0  0  0  0  0
   40.4380   30.7950   41.1120 C   0  0  0  0  0  0  0  0  0  0  0  0
   39.5110   31.8040   41.2550 C   0  0  0  0  0  0  0  0  0  0  0  0
   38.4030   32.9420   42.7370 H   0  0  0  0  0  0  0  0  0  0  0  0
   41.0210   29.9850   44.3380 H   0  0  0  0  0  0  0  0  0  0  0  0
   42.4110   28.5670   42.3380 H   0  0  0  0  0  0  0  0  0  0  0  0
   42.4710   28.6460   39.7390 H   0  0  0  0  0  0  0  0  0  0  0  0
   38.9560   32.4660   40.1900 O   0  0  0  0  0  0  0  0  0  0  0  0
   37.6480   32.7800   39.9920 C   0  0  0  0  0  0  0  0  0  0  0  0
   37.4890   34.1380   39.6840 C   0  0  0  0  0  0  0  0  0  0  0  0
   38.1250   35.0320   39.5540 H   0  0  0  0  0  0  0  0  0  0  0  0
   36.1410   34.3890   39.4950 C   0  0  0  0  0  0  0  0  0  0  0  0
   35.5610   35.2690   39.2470 H   0  0  0  0  0  0  0  0  0  0  0  0
   35.5660   33.1810   39.6970 N   0  0  0  0  0  0  0  0  0  0  0  0
   34.5300   32.9630   39.6410 H   0  0  0  0  0  0  0  0  0  0  0  0
   36.4230   32.2250   39.9890 N   0  0  0  0  0  0  0  0  0  0  0  0
   38.1120   30.1440   47.4920 F   0  0  0  0  0  0  0  0  0  0  0  0
   38.3700   31.3860   47.9830 C   0  0  0  0  0  0  0  0  0  0  0  0
   37.7200   31.8310   49.0960 C   0  0  0  0  0  0  0  0  0  0  0  0
   38.0300   33.0910   49.5340 C   0  0  0  0  0  0  0  0  0  0  0  0
   38.9520   33.9010   48.9040 C   0  0  0  0  0  0  0  0  0  0  0  0
   39.6000   33.4270   47.7740 C   0  0  0  0  0  0  0  0  0  0  0  0
   39.3030   32.1530   47.3120 C   0  0  0  0  0  0  0  0  0  0  0  0
   37.5080   33.4460   50.4260 H   0  0  0  0  0  0  0  0  0  0  0  0
   39.1260   34.8810   49.3290 H   0  0  0  0  0  0  0  0  0  0  0  0
   40.3200   34.0590   47.2810 H   0  0  0  0  0  0  0  0  0  0  0  0
   36.0880   29.3650   51.4550 C   0  0  0  0  0  0  0  0  0  0  0  0
   37.0550   30.2190   50.8700 C   0  0  0  0  0  0  0  0  0  0  0  0
   36.7510   30.9380   49.7300 C   0  0  0  0  0  0  0  0  0  0  0  0
   35.4880   30.7890   49.1990 N   0  0  0  0  0  0  0  0  0  0  0  0
   34.5830   29.9780   49.7620 C   0  0  0  0  0  0  0  0  0  0  0  0
   34.8690   29.2810   50.8620 N   0  0  0  0  0  0  0  0  0  0  0  0
   36.4660   28.8750   52.3300 H   0  0  0  0  0  0  0  0  0  0  0  0
   38.0510   30.3640   51.2520 H   0  0  0  0  0  0  0  0  0  0  0  0
   33.5880   29.8560   49.3500 H   0  0  0  0  0  0  0  0  0  0  0  0
  1  2  2  0  0  0  0
  1  3  1  0  0  0  0
  3 33  1  0  0  0  0
  4  3  1  0  0  0  0
  5 14  1  0  0  0  0
  5  6  1  0  0  0  0
  6  1  1  0  0  0  0
  7  6  2  0  0  0  0
  7 15  1  0  0  0  0
  8  7  1  0  0  0  0
  9  8  1  0  0  0  0
  9 16  1  0  0  0  0
 10  9  1  0  0  0  0
 11 10  2  0  0  0  0
 11 12  1  0  0  0  0
 12 13  1  0  0  0  0
 12  8  2  0  0  0  0
 13  5  2  0  0  0  0
 17 10  1  0  0  0  0
 18 13  1  0  0  0  0
 19 18  1  0  0  0  0
 20 19  1  0  0  0  0
 21 20  1  0  0  0  0
 22 20  2  0  0  0  0
 22 24  1  0  0  0  0
 23 22  1  0  0  0  0
 24 26  1  0  0  0  0
 25 24  1  0  0  0  0
 26 19  2  0  0  0  0
 27 28  1  0  0  0  0
 28 29  1  0  0  0  0
 29 30  2  0  0  0  0
 29 39  1  0  0  0  0
 30 34  1  0  0  0  0
 31 35  1  0  0  0  0
 31 30  1  0  0  0  0
 32 31  2  0  0  0  0
 33 32  1  0  0  0  0
 33 28  2  0  0  0  0
 36 32  1  0  0  0  0
 37 43  1  0  0  0  0
 38 44  1  0  0  0  0
 38 37  1  0  0  0  0
 39 38  2  0  0  0  0
 40 39  1  0  0  0  0
 40 41  2  0  0  0  0
 41 42  1  0  0  0  0
 42 37  2  0  0  0  0
 45 41  1  0  0  0  0
M  END
>  <minimizedAffinity>
-7.26431084

>  <minimizedRMSD>
0.818794072

$$$$
