
 OpenBabel03272508163D

 30 32  0  0  0  0  0  0  0  0999 V2000
   34.4830   30.4750   48.3730 Cl  0  0  0  0  0  0  0  0  0  0  0  0
   35.0400   30.1980   46.7520 C   0  0  0  0  0  0  0  0  0  0  0  0
   34.0750   29.6890   45.9430 C   0  0  0  0  0  0  0  0  0  0  0  0
   34.4280   29.4260   44.5940 C   0  0  0  0  0  0  0  0  0  0  0  0
   35.6840   29.6720   44.1220 C   0  0  0  0  0  0  0  0  0  0  0  0
   36.6340   30.1900   44.9750 C   0  0  0  0  0  0  0  0  0  0  0  0
   38.2390   30.5170   44.4150 Cl  0  0  0  0  0  0  0  0  0  0  0  0
   36.2990   30.4430   46.2670 C   0  0  0  0  0  0  0  0  0  0  0  0
   33.7360   29.0220   43.8700 H   0  0  0  0  0  0  0  0  0  0  0  0
   35.9660   29.4760   43.0940 H   0  0  0  0  0  0  0  0  0  0  0  0
   32.4340   28.1400   46.9050 C   0  0  0  0  0  0  0  0  0  0  0  0
   32.6730   29.3450   46.2230 C   0  0  0  0  0  0  0  0  0  0  0  0
   31.5950   30.1350   45.8550 C   0  0  0  0  0  0  0  0  0  0  0  0
   30.3500   29.6970   46.1760 N   0  0  0  0  0  0  0  0  0  0  0  0
   30.1480   28.5310   46.8330 C   0  0  0  0  0  0  0  0  0  0  0  0
   31.1980   27.7400   47.2040 N   0  0  0  0  0  0  0  0  0  0  0  0
   33.2640   27.5100   47.2000 H   0  0  0  0  0  0  0  0  0  0  0  0
   31.7970   31.0610   45.3320 H   0  0  0  0  0  0  0  0  0  0  0  0
   29.1030   28.3430   47.0040 H   0  0  0  0  0  0  0  0  0  0  0  0
   37.2530   30.9970   47.2470 C   0  0  0  0  0  0  0  0  0  0  0  0
   37.5100   32.1650   47.5170 O   0  0  0  0  0  0  0  0  0  0  0  0
   38.0950   30.2600   48.1060 O   0  0  0  0  0  0  0  0  0  0  0  0
   37.8310   30.1320   49.4620 C   0  0  0  0  0  0  0  0  0  0  0  0
   36.9690   29.1750   49.9610 C   0  0  0  0  0  0  0  0  0  0  0  0
   36.4120   28.4370   49.4070 H   0  0  0  0  0  0  0  0  0  0  0  0
   36.9330   29.3210   51.3290 C   0  0  0  0  0  0  0  0  0  0  0  0
   36.4010   28.7940   52.0910 H   0  0  0  0  0  0  0  0  0  0  0  0
   37.7520   30.3370   51.6430 N   0  0  0  0  0  0  0  0  0  0  0  0
   37.9770   30.7350   52.5880 H   0  0  0  0  0  0  0  0  0  0  0  0
   38.2940   30.8270   50.5160 N   0  0  0  0  0  0  0  0  0  0  0  0
  2  1  1  0  0  0  0
  3 12  1  0  0  0  0
  3  2  2  0  0  0  0
  4  3  1  0  0  0  0
  5  4  2  0  0  0  0
  5  6  1  0  0  0  0
  6  8  2  0  0  0  0
  7  6  1  0  0  0  0
  8  2  1  0  0  0  0
  8 20  1  0  0  0  0
  9  4  1  0  0  0  0
 10  5  1  0  0  0  0
 11 17  1  0  0  0  0
 11 16  1  0  0  0  0
 12 11  2  0  0  0  0
 13 14  2  0  0  0  0
 13 12  1  0  0  0  0
 14 15  1  0  0  0  0
 15 19  1  0  0  0  0
 15 16  2  0  0  0  0
 18 13  1  0  0  0  0
 20 21  2  0  0  0  0
 20 22  1  0  0  0  0
 22 23  1  0  0  0  0
 23 24  1  0  0  0  0
 23 30  2  0  0  0  0
 24 26  2  0  0  0  0
 25 24  1  0  0  0  0
 26 28  1  0  0  0  0
 26 27  1  0  0  0  0
 28 29  1  0  0  0  0
 30 28  1  0  0  0  0
M  END
>  <minimizedAffinity>
-4.96092081

>  <minimizedRMSD>
4.61912012

$$$$
