
 OpenBabel03272508023D

 27 29  0  0  0  0  0  0  0  0999 V2000
   38.8220   30.8420   45.5350 C   0  0  0  0  0  0  0  0  0  0  0  0
   39.8170   31.7790   45.5190 C   0  0  0  0  0  0  0  0  0  0  0  0
   40.6980   31.5390   44.4670 C   0  0  0  0  0  0  0  0  0  0  0  0
   40.1820   30.4340   43.8760 N   0  0  0  0  0  0  0  0  0  0  0  0
   39.0820   30.0180   44.4950 N   0  0  0  0  0  0  0  0  0  0  0  0
   39.9660   32.6140   46.1910 H   0  0  0  0  0  0  0  0  0  0  0  0
   41.5750   32.0060   44.1030 H   0  0  0  0  0  0  0  0  0  0  0  0
   40.5790   29.6550   42.7490 C   0  0  0  0  0  0  0  0  0  0  0  0
   40.2700   28.3910   42.2660 C   0  0  0  0  0  0  0  0  0  0  0  0
   39.5700   27.7960   42.8170 H   0  0  0  0  0  0  0  0  0  0  0  0
   41.0200   28.2590   41.1160 C   0  0  0  0  0  0  0  0  0  0  0  0
   40.9490   27.3260   40.5370 H   0  0  0  0  0  0  0  0  0  0  0  0
   41.7500   29.3690   40.8970 N   0  0  0  0  0  0  0  0  0  0  0  0
   42.3960   29.5040   40.0870 H   0  0  0  0  0  0  0  0  0  0  0  0
   41.4760   30.2160   41.8970 N   0  0  0  0  0  0  0  0  0  0  0  0
   37.7080   30.7440   46.4780 C   0  0  0  0  0  0  0  0  0  0  0  0
   37.9620   31.0610   47.8370 C   0  0  0  0  0  0  0  0  0  0  0  0
   36.9140   30.9720   48.7430 C   0  0  0  0  0  0  0  0  0  0  0  0
   35.6940   30.5790   48.2580 N   0  0  0  0  0  0  0  0  0  0  0  0
   35.4790   30.2830   46.9650 C   0  0  0  0  0  0  0  0  0  0  0  0
   36.5010   30.3710   46.0830 N   0  0  0  0  0  0  0  0  0  0  0  0
   38.9660   31.3670   48.1440 H   0  0  0  0  0  0  0  0  0  0  0  0
   34.5250   29.9770   46.5870 H   0  0  0  0  0  0  0  0  0  0  0  0
   37.1540   31.2990   50.1700 C   0  0  0  0  0  0  0  0  0  0  0  0
   36.5930   32.5310   50.3750 F   0  0  0  0  0  0  0  0  0  0  0  0
   36.5570   30.3790   51.0310 F   0  0  0  0  0  0  0  0  0  0  0  0
   38.5160   31.3790   50.4560 F   0  0  0  0  0  0  0  0  0  0  0  0
  1 16  1  0  0  0  0
  2  1  1  0  0  0  0
  2  6  1  0  0  0  0
  3  2  2  0  0  0  0
  4  3  1  0  0  0  0
  4  5  1  0  0  0  0
  5  1  2  0  0  0  0
  7  3  1  0  0  0  0
  8  4  1  0  0  0  0
  9  8  1  0  0  0  0
  9 10  1  0  0  0  0
 11  9  2  0  0  0  0
 12 11  1  0  0  0  0
 13 11  1  0  0  0  0
 13 15  1  0  0  0  0
 14 13  1  0  0  0  0
 15  8  2  0  0  0  0
 16 17  1  0  0  0  0
 17 22  1  0  0  0  0
 17 18  2  0  0  0  0
 18 24  1  0  0  0  0
 19 18  1  0  0  0  0
 20 19  2  0  0  0  0
 21 16  2  0  0  0  0
 21 20  1  0  0  0  0
 23 20  1  0  0  0  0
 24 25  1  0  0  0  0
 24 27  1  0  0  0  0
 24 26  1  0  0  0  0
M  END
>  <minimizedAffinity>
-5.98312712

>  <minimizedRMSD>
0.793390989

$$$$
