
 OpenBabel03272507523D

 31 33  0  0  0  0  0  0  0  0999 V2000
   36.5120   31.3010   48.8070 N   0  0  0  0  0  0  0  0  0  0  0  0
   36.6000   32.1960   49.7840 C   0  0  0  0  0  0  0  0  0  0  0  0
   37.6410   33.1230   49.7880 C   0  0  0  0  0  0  0  0  0  0  0  0
   38.5040   33.0170   48.7410 C   0  0  0  0  0  0  0  0  0  0  0  0
   39.4540   33.8580   48.7360 O   0  0  0  0  0  0  0  0  0  0  0  0
   38.4530   32.1410   47.7440 N   0  0  0  0  0  0  0  0  0  0  0  0
   37.4230   31.2590   47.7850 C   0  0  0  0  0  0  0  0  0  0  0  0
   37.3520   30.4060   46.8390 O   0  0  0  0  0  0  0  0  0  0  0  0
   35.8620   32.2040   50.5810 H   0  0  0  0  0  0  0  0  0  0  0  0
   37.7130   33.8440   50.5760 H   0  0  0  0  0  0  0  0  0  0  0  0
   39.4130   32.1130   46.6890 C   0  0  0  0  0  0  0  0  0  0  0  0
   40.1400   33.0660   45.9720 C   0  0  0  0  0  0  0  0  0  0  0  0
   39.9880   34.1060   46.2290 H   0  0  0  0  0  0  0  0  0  0  0  0
   40.9010   32.3420   45.0750 C   0  0  0  0  0  0  0  0  0  0  0  0
   41.5630   32.8830   44.3950 H   0  0  0  0  0  0  0  0  0  0  0  0
   40.6600   31.0280   45.2250 N   0  0  0  0  0  0  0  0  0  0  0  0
   41.1200   30.2790   44.6560 H   0  0  0  0  0  0  0  0  0  0  0  0
   39.7700   30.9110   46.1930 N   0  0  0  0  0  0  0  0  0  0  0  0
   35.2740   29.5090   49.8820 C   0  0  0  0  0  0  0  0  0  0  0  0
   35.4680   30.3170   48.7450 C   0  0  0  0  0  0  0  0  0  0  0  0
   34.6530   30.1240   47.6220 C   0  0  0  0  0  0  0  0  0  0  0  0
   33.7050   29.1520   47.6930 N   0  0  0  0  0  0  0  0  0  0  0  0
   33.5230   28.3940   48.7620 C   0  0  0  0  0  0  0  0  0  0  0  0
   34.3000   28.5720   49.8450 N   0  0  0  0  0  0  0  0  0  0  0  0
   34.8310   30.7590   46.7720 H   0  0  0  0  0  0  0  0  0  0  0  0
   32.7610   27.6240   48.8000 H   0  0  0  0  0  0  0  0  0  0  0  0
   37.3500   29.1970   51.4210 C   0  0  0  0  0  0  0  0  0  0  0  0
   38.1060   28.6360   50.5960 O   0  0  0  0  0  0  0  0  0  0  0  0
   36.0290   29.6310   51.0680 N   0  0  0  0  0  0  0  0  0  0  0  0
   37.7680   29.3260   52.4050 H   0  0  0  0  0  0  0  0  0  0  0  0
   35.5830   30.1320   51.8910 H   0  0  0  0  0  0  0  0  0  0  0  0
  1  2  1  0  0  0  0
  2  3  2  0  0  0  0
  2  9  1  0  0  0  0
  3 10  1  0  0  0  0
  4  3  1  0  0  0  0
  5  4  2  0  0  0  0
  6  7  1  0  0  0  0
  6  4  1  0  0  0  0
  7  1  1  0  0  0  0
  8  7  2  0  0  0  0
 11  6  1  0  0  0  0
 12 13  1  0  0  0  0
 12 11  1  0  0  0  0
 14 16  1  0  0  0  0
 14 12  2  0  0  0  0
 15 14  1  0  0  0  0
 16 18  1  0  0  0  0
 17 16  1  0  0  0  0
 18 11  2  0  0  0  0
 19 29  1  0  0  0  0
 20  1  1  0  0  0  0
 20 19  2  0  0  0  0
 21 22  2  0  0  0  0
 21 20  1  0  0  0  0
 22 23  1  0  0  0  0
 23 26  1  0  0  0  0
 23 24  2  0  0  0  0
 24 19  1  0  0  0  0
 25 21  1  0  0  0  0
 27 30  1  0  0  0  0
 28 27  2  0  0  0  0
 29 27  1  0  0  0  0
 29 31  1  0  0  0  0
M  END
>  <minimizedAffinity>
-6.75247049

>  <minimizedRMSD>
0.861474454

$$$$
