
 OpenBabel03272506083D

 43 46  0  0  0  0  0  0  0  0999 V2000
   35.1900   28.7650   48.9530 C   0  0  0  0  0  0  0  0  0  0  0  0
   35.3100   27.9340   49.6800 H   0  0  0  0  0  0  0  0  0  0  0  0
   36.0770   28.7230   48.2870 H   0  0  0  0  0  0  0  0  0  0  0  0
   33.9360   28.5590   48.1410 C   0  0  0  0  0  0  0  0  0  0  0  0
   33.9640   28.8060   46.7150 C   0  0  0  0  0  0  0  0  0  0  0  0
   32.2990   28.4260   46.2740 S   0  0  0  0  0  0  0  0  0  0  0  0
   31.7650   27.9870   48.0180 C   0  0  0  0  0  0  0  0  0  0  0  0
   32.7890   28.1680   48.6030 N   0  0  0  0  0  0  0  0  0  0  0  0
   30.4880   27.5480   48.5580 N   0  0  0  0  0  0  0  0  0  0  0  0
   29.6620   26.7940   47.6640 C   0  0  0  0  0  0  0  0  0  0  0  0
   28.2270   26.7140   48.0780 C   0  0  0  0  0  0  0  0  0  0  0  0
   27.9050   27.5620   49.2290 N   0  0  0  0  0  0  0  0  0  0  0  0
   28.8600   27.1950   50.2610 C   0  0  0  0  0  0  0  0  0  0  0  0
   30.1500   27.8890   49.9100 C   0  0  0  0  0  0  0  0  0  0  0  0
   34.7980   29.1270   46.1570 H   0  0  0  0  0  0  0  0  0  0  0  0
   29.7080   27.2850   46.6690 H   0  0  0  0  0  0  0  0  0  0  0  0
   30.0770   25.7710   47.4870 H   0  0  0  0  0  0  0  0  0  0  0  0
   27.5130   26.8920   47.2600 H   0  0  0  0  0  0  0  0  0  0  0  0
   28.0310   25.6770   48.4390 H   0  0  0  0  0  0  0  0  0  0  0  0
   28.1170   28.5420   48.9260 H   0  0  0  0  0  0  0  0  0  0  0  0
   29.0680   26.1070   50.2960 H   0  0  0  0  0  0  0  0  0  0  0  0
   28.4780   27.6120   51.2180 H   0  0  0  0  0  0  0  0  0  0  0  0
   29.9590   28.9810   49.9350 H   0  0  0  0  0  0  0  0  0  0  0  0
   30.9100   27.6720   50.6610 H   0  0  0  0  0  0  0  0  0  0  0  0
   35.1600   30.0470   49.6790 C   0  0  0  0  0  0  0  0  0  0  0  0
   35.2970   29.9040   50.7830 H   0  0  0  0  0  0  0  0  0  0  0  0
   34.2020   30.5880   49.5270 H   0  0  0  0  0  0  0  0  0  0  0  0
   37.8260   32.6290   49.5630 C   0  0  0  0  0  0  0  0  0  0  0  0
   38.3380   32.5060   48.2740 C   0  0  0  0  0  0  0  0  0  0  0  0
   37.7580   31.5340   47.4600 C   0  0  0  0  0  0  0  0  0  0  0  0
   36.7480   30.7760   47.9550 N   0  0  0  0  0  0  0  0  0  0  0  0
   36.2950   30.9430   49.2150 C   0  0  0  0  0  0  0  0  0  0  0  0
   36.8260   31.8550   50.0070 N   0  0  0  0  0  0  0  0  0  0  0  0
   38.2630   33.3820   50.2220 H   0  0  0  0  0  0  0  0  0  0  0  0
   39.1440   33.1150   47.8900 H   0  0  0  0  0  0  0  0  0  0  0  0
   38.1940   31.2960   46.0890 C   0  0  0  0  0  0  0  0  0  0  0  0
   37.9350   32.1740   45.0430 C   0  0  0  0  0  0  0  0  0  0  0  0
   37.3900   33.1120   45.1290 H   0  0  0  0  0  0  0  0  0  0  0  0
   38.4820   31.6610   43.8660 C   0  0  0  0  0  0  0  0  0  0  0  0
   38.3990   32.1820   42.9170 H   0  0  0  0  0  0  0  0  0  0  0  0
   39.0570   30.4860   44.2360 N   0  0  0  0  0  0  0  0  0  0  0  0
   39.5340   29.9160   43.5210 H   0  0  0  0  0  0  0  0  0  0  0  0
   38.8770   30.3010   45.5150 N   0  0  0  0  0  0  0  0  0  0  0  0
  1 25  1  0  0  0  0
  1  2  1  0  0  0  0
  3  1  1  0  0  0  0
  4  8  1  0  0  0  0
  4  1  1  0  0  0  0
  5  4  2  0  0  0  0
  6  5  1  0  0  0  0
  6  7  1  0  0  0  0
  7  9  1  0  0  0  0
  7  8  2  0  0  0  0
  9 14  1  0  0  0  0
 10 11  1  0  0  0  0
 10  9  1  0  0  0  0
 11 19  1  0  0  0  0
 11 12  1  0  0  0  0
 12 13  1  0  0  0  0
 13 21  1  0  0  0  0
 13 22  1  0  0  0  0
 14 23  1  0  0  0  0
 14 13  1  0  0  0  0
 14 24  1  0  0  0  0
 15  5  1  0  0  0  0
 16 10  1  0  0  0  0
 17 10  1  0  0  0  0
 18 11  1  0  0  0  0
 20 12  1  0  0  0  0
 25 26  1  0  0  0  0
 27 25  1  0  0  0  0
 28 33  1  0  0  0  0
 28 34  1  0  0  0  0
 29 28  2  0  0  0  0
 30 31  2  0  0  0  0
 30 29  1  0  0  0  0
 31 32  1  0  0  0  0
 32 25  1  0  0  0  0
 32 33  2  0  0  0  0
 35 29  1  0  0  0  0
 36 30  1  0  0  0  0
 37 38  1  0  0  0  0
 37 36  1  0  0  0  0
 39 41  1  0  0  0  0
 39 37  2  0  0  0  0
 40 39  1  0  0  0  0
 41 43  1  0  0  0  0
 42 41  1  0  0  0  0
 43 36  2  0  0  0  0
M  END
>  <minimizedAffinity>
-6.12912893

>  <minimizedRMSD>
1.18563354

$$$$
