
 OpenBabel03272506083D

 43 46  0  0  0  0  0  0  0  0999 V2000
   34.2250   28.0820   48.9480 C   0  0  0  0  0  0  0  0  0  0  0  0
   34.4460   27.0450   49.2780 H   0  0  0  0  0  0  0  0  0  0  0  0
   35.0310   28.3590   48.2380 H   0  0  0  0  0  0  0  0  0  0  0  0
   32.8930   28.1220   48.2420 C   0  0  0  0  0  0  0  0  0  0  0  0
   32.8250   28.6020   46.8780 C   0  0  0  0  0  0  0  0  0  0  0  0
   31.0990   28.4430   46.5490 S   0  0  0  0  0  0  0  0  0  0  0  0
   30.6730   27.7640   48.2460 C   0  0  0  0  0  0  0  0  0  0  0  0
   31.7550   27.7570   48.7480 N   0  0  0  0  0  0  0  0  0  0  0  0
   29.4090   27.3490   48.8330 N   0  0  0  0  0  0  0  0  0  0  0  0
   28.4390   26.8280   47.9160 C   0  0  0  0  0  0  0  0  0  0  0  0
   27.0430   26.8010   48.4520 C   0  0  0  0  0  0  0  0  0  0  0  0
   26.9050   27.4670   49.7500 N   0  0  0  0  0  0  0  0  0  0  0  0
   27.9020   26.8530   50.6100 C   0  0  0  0  0  0  0  0  0  0  0  0
   29.2210   27.4850   50.2490 C   0  0  0  0  0  0  0  0  0  0  0  0
   33.6360   28.9410   46.2990 H   0  0  0  0  0  0  0  0  0  0  0  0
   28.4500   27.4740   47.0130 H   0  0  0  0  0  0  0  0  0  0  0  0
   28.7340   25.8180   47.5380 H   0  0  0  0  0  0  0  0  0  0  0  0
   26.2840   27.1730   47.7480 H   0  0  0  0  0  0  0  0  0  0  0  0
   26.7760   25.7380   48.6610 H   0  0  0  0  0  0  0  0  0  0  0  0
   27.1870   28.4630   49.5870 H   0  0  0  0  0  0  0  0  0  0  0  0
   28.0030   25.7610   50.4500 H   0  0  0  0  0  0  0  0  0  0  0  0
   27.6450   27.1330   51.6540 H   0  0  0  0  0  0  0  0  0  0  0  0
   29.1420   28.5690   50.4660 H   0  0  0  0  0  0  0  0  0  0  0  0
   30.0160   27.0820   50.8760 H   0  0  0  0  0  0  0  0  0  0  0  0
   34.2450   28.9800   50.1170 C   0  0  0  0  0  0  0  0  0  0  0  0
   34.0400   28.4260   51.0710 H   0  0  0  0  0  0  0  0  0  0  0  0
   33.4900   29.7900   50.0300 H   0  0  0  0  0  0  0  0  0  0  0  0
   37.4960   30.1200   51.5010 C   0  0  0  0  0  0  0  0  0  0  0  0
   38.0790   30.8000   50.4350 C   0  0  0  0  0  0  0  0  0  0  0  0
   37.3450   30.8570   49.2520 C   0  0  0  0  0  0  0  0  0  0  0  0
   36.1280   30.2610   49.2020 N   0  0  0  0  0  0  0  0  0  0  0  0
   35.6160   29.6160   50.2700 C   0  0  0  0  0  0  0  0  0  0  0  0
   36.2880   29.5460   51.4020 N   0  0  0  0  0  0  0  0  0  0  0  0
   38.0500   30.0600   52.4400 H   0  0  0  0  0  0  0  0  0  0  0  0
   39.0500   31.2710   50.4860 H   0  0  0  0  0  0  0  0  0  0  0  0
   37.8330   31.5360   48.0570 C   0  0  0  0  0  0  0  0  0  0  0  0
   37.4340   31.1970   46.7700 C   0  0  0  0  0  0  0  0  0  0  0  0
   36.7310   30.4060   46.5170 H   0  0  0  0  0  0  0  0  0  0  0  0
   38.0780   32.0300   45.8540 C   0  0  0  0  0  0  0  0  0  0  0  0
   37.9160   31.9440   44.7830 H   0  0  0  0  0  0  0  0  0  0  0  0
   38.8500   32.8510   46.6170 N   0  0  0  0  0  0  0  0  0  0  0  0
   39.4280   33.5660   46.1520 H   0  0  0  0  0  0  0  0  0  0  0  0
   38.6900   32.5460   47.8750 N   0  0  0  0  0  0  0  0  0  0  0  0
  1  2  1  0  0  0  0
  1 25  1  0  0  0  0
  3  1  1  0  0  0  0
  4  8  1  0  0  0  0
  4  1  1  0  0  0  0
  5  4  2  0  0  0  0
  6  5  1  0  0  0  0
  6  7  1  0  0  0  0
  7  8  2  0  0  0  0
  7  9  1  0  0  0  0
  9 14  1  0  0  0  0
 10 11  1  0  0  0  0
 10  9  1  0  0  0  0
 11 19  1  0  0  0  0
 11 12  1  0  0  0  0
 12 13  1  0  0  0  0
 13 22  1  0  0  0  0
 14 23  1  0  0  0  0
 14 13  1  0  0  0  0
 14 24  1  0  0  0  0
 15  5  1  0  0  0  0
 16 10  1  0  0  0  0
 17 10  1  0  0  0  0
 18 11  1  0  0  0  0
 20 12  1  0  0  0  0
 21 13  1  0  0  0  0
 25 32  1  0  0  0  0
 25 26  1  0  0  0  0
 27 25  1  0  0  0  0
 28 34  1  0  0  0  0
 29 35  1  0  0  0  0
 29 28  2  0  0  0  0
 30 29  1  0  0  0  0
 31 30  2  0  0  0  0
 31 32  1  0  0  0  0
 32 33  2  0  0  0  0
 33 28  1  0  0  0  0
 36 30  1  0  0  0  0
 37 36  1  0  0  0  0
 38 37  1  0  0  0  0
 39 41  1  0  0  0  0
 39 37  2  0  0  0  0
 40 39  1  0  0  0  0
 41 43  1  0  0  0  0
 42 41  1  0  0  0  0
 43 36  2  0  0  0  0
M  END
>  <minimizedAffinity>
-7.27630758

>  <minimizedRMSD>
1.86967421

$$$$
