
 OpenBabel03272506083D

 43 46  0  0  0  0  0  0  0  0999 V2000
   34.8010   28.4600   49.2350 C   0  0  0  0  0  0  0  0  0  0  0  0
   34.8640   27.6310   49.9720 H   0  0  0  0  0  0  0  0  0  0  0  0
   35.6960   28.3660   48.5870 H   0  0  0  0  0  0  0  0  0  0  0  0
   33.5530   28.3090   48.4010 C   0  0  0  0  0  0  0  0  0  0  0  0
   33.6160   28.5590   46.9760 C   0  0  0  0  0  0  0  0  0  0  0  0
   31.9450   28.2500   46.5050 S   0  0  0  0  0  0  0  0  0  0  0  0
   31.3630   27.8270   48.2380 C   0  0  0  0  0  0  0  0  0  0  0  0
   32.3830   27.9640   48.8410 N   0  0  0  0  0  0  0  0  0  0  0  0
   30.0600   27.4390   48.7540 N   0  0  0  0  0  0  0  0  0  0  0  0
   29.2180   26.7230   47.8430 C   0  0  0  0  0  0  0  0  0  0  0  0
   27.7750   26.7010   48.2320 C   0  0  0  0  0  0  0  0  0  0  0  0
   27.4690   27.5570   49.3800 N   0  0  0  0  0  0  0  0  0  0  0  0
   28.3890   27.1470   50.4270 C   0  0  0  0  0  0  0  0  0  0  0  0
   29.7130   27.7890   50.1020 C   0  0  0  0  0  0  0  0  0  0  0  0
   34.4720   28.8470   46.4340 H   0  0  0  0  0  0  0  0  0  0  0  0
   29.3030   27.2150   46.8510 H   0  0  0  0  0  0  0  0  0  0  0  0
   29.5940   25.6840   47.6690 H   0  0  0  0  0  0  0  0  0  0  0  0
   27.0830   26.9110   47.4030 H   0  0  0  0  0  0  0  0  0  0  0  0
   27.5300   25.6710   48.5850 H   0  0  0  0  0  0  0  0  0  0  0  0
   27.7260   28.5290   49.0850 H   0  0  0  0  0  0  0  0  0  0  0  0
   28.5510   26.0510   50.4610 H   0  0  0  0  0  0  0  0  0  0  0  0
   28.0080   27.5760   51.3790 H   0  0  0  0  0  0  0  0  0  0  0  0
   29.5670   28.8880   50.1280 H   0  0  0  0  0  0  0  0  0  0  0  0
   30.4500   27.5380   50.8640 H   0  0  0  0  0  0  0  0  0  0  0  0
   34.8210   29.7490   49.9480 C   0  0  0  0  0  0  0  0  0  0  0  0
   34.9990   29.6140   51.0480 H   0  0  0  0  0  0  0  0  0  0  0  0
   33.8670   30.3050   49.8290 H   0  0  0  0  0  0  0  0  0  0  0  0
   37.4640   32.3420   49.6680 C   0  0  0  0  0  0  0  0  0  0  0  0
   37.9880   32.1320   48.3960 C   0  0  0  0  0  0  0  0  0  0  0  0
   37.4240   31.0990   47.6480 C   0  0  0  0  0  0  0  0  0  0  0  0
   36.4170   30.3690   48.1890 N   0  0  0  0  0  0  0  0  0  0  0  0
   35.9520   30.6210   49.4300 C   0  0  0  0  0  0  0  0  0  0  0  0
   36.4670   31.5920   50.1590 N   0  0  0  0  0  0  0  0  0  0  0  0
   37.8880   33.1450   50.2750 H   0  0  0  0  0  0  0  0  0  0  0  0
   38.7910   32.7200   47.9740 H   0  0  0  0  0  0  0  0  0  0  0  0
   37.8740   30.7680   46.3020 C   0  0  0  0  0  0  0  0  0  0  0  0
   39.2150   30.6900   45.9430 C   0  0  0  0  0  0  0  0  0  0  0  0
   40.0560   30.8640   46.6100 H   0  0  0  0  0  0  0  0  0  0  0  0
   39.3090   30.3540   44.5910 C   0  0  0  0  0  0  0  0  0  0  0  0
   40.2680   30.2390   44.0910 H   0  0  0  0  0  0  0  0  0  0  0  0
   38.0200   30.2380   44.1730 N   0  0  0  0  0  0  0  0  0  0  0  0
   37.8360   29.9920   43.1890 H   0  0  0  0  0  0  0  0  0  0  0  0
   37.2190   30.4810   45.1720 N   0  0  0  0  0  0  0  0  0  0  0  0
  1 25  1  0  0  0  0
  1  2  1  0  0  0  0
  3  1  1  0  0  0  0
  4  8  1  0  0  0  0
  4  1  1  0  0  0  0
  5  4  2  0  0  0  0
  6  5  1  0  0  0  0
  6  7  1  0  0  0  0
  7  9  1  0  0  0  0
  7  8  2  0  0  0  0
  9 14  1  0  0  0  0
 10 11  1  0  0  0  0
 10  9  1  0  0  0  0
 11 19  1  0  0  0  0
 11 12  1  0  0  0  0
 12 13  1  0  0  0  0
 13 21  1  0  0  0  0
 13 22  1  0  0  0  0
 14 23  1  0  0  0  0
 14 13  1  0  0  0  0
 14 24  1  0  0  0  0
 15  5  1  0  0  0  0
 16 10  1  0  0  0  0
 17 10  1  0  0  0  0
 18 11  1  0  0  0  0
 20 12  1  0  0  0  0
 25 26  1  0  0  0  0
 27 25  1  0  0  0  0
 28 33  1  0  0  0  0
 28 34  1  0  0  0  0
 29 28  2  0  0  0  0
 30 31  2  0  0  0  0
 30 29  1  0  0  0  0
 31 32  1  0  0  0  0
 32 25  1  0  0  0  0
 32 33  2  0  0  0  0
 35 29  1  0  0  0  0
 36 30  1  0  0  0  0
 37 36  1  0  0  0  0
 37 38  1  0  0  0  0
 39 37  2  0  0  0  0
 40 39  1  0  0  0  0
 41 39  1  0  0  0  0
 41 43  1  0  0  0  0
 42 41  1  0  0  0  0
 43 36  2  0  0  0  0
M  END
>  <minimizedAffinity>
-6.25913763

>  <minimizedRMSD>
0.874223351

$$$$
