
 OpenBabel03272506103D

 43 46  0  0  0  0  0  0  0  0999 V2000
   36.7470   26.4700   32.5970 C   0  0  0  0  0  0  0  0  0  0  0  0
   36.8820   26.6030   31.5020 H   0  0  0  0  0  0  0  0  0  0  0  0
   35.6750   26.2260   32.7480 H   0  0  0  0  0  0  0  0  0  0  0  0
   37.6010   25.3260   33.0830 C   0  0  0  0  0  0  0  0  0  0  0  0
   38.1990   24.4250   32.1200 C   0  0  0  0  0  0  0  0  0  0  0  0
   39.0610   23.3150   33.1860 S   0  0  0  0  0  0  0  0  0  0  0  0
   38.5320   24.1690   34.7710 C   0  0  0  0  0  0  0  0  0  0  0  0
   37.8690   25.0530   34.3230 N   0  0  0  0  0  0  0  0  0  0  0  0
   38.8190   23.8810   36.1670 N   0  0  0  0  0  0  0  0  0  0  0  0
   40.0830   23.2580   36.4270 C   0  0  0  0  0  0  0  0  0  0  0  0
   40.1800   22.6080   37.7700 C   0  0  0  0  0  0  0  0  0  0  0  0
   38.9090   22.5860   38.4990 N   0  0  0  0  0  0  0  0  0  0  0  0
   38.4480   23.9630   38.5190 C   0  0  0  0  0  0  0  0  0  0  0  0
   37.8470   24.2290   37.1640 C   0  0  0  0  0  0  0  0  0  0  0  0
   38.0990   24.4820   31.0730 H   0  0  0  0  0  0  0  0  0  0  0  0
   40.2370   22.4770   35.6530 H   0  0  0  0  0  0  0  0  0  0  0  0
   40.9300   23.9710   36.2740 H   0  0  0  0  0  0  0  0  0  0  0  0
   40.6280   21.6030   37.7520 H   0  0  0  0  0  0  0  0  0  0  0  0
   40.8490   23.2330   38.4070 H   0  0  0  0  0  0  0  0  0  0  0  0
   38.2500   22.0330   37.9010 H   0  0  0  0  0  0  0  0  0  0  0  0
   39.2670   24.6950   38.6680 H   0  0  0  0  0  0  0  0  0  0  0  0
   37.6450   24.0240   39.2850 H   0  0  0  0  0  0  0  0  0  0  0  0
   36.9880   23.5390   37.0380 H   0  0  0  0  0  0  0  0  0  0  0  0
   37.4590   25.2460   37.1160 H   0  0  0  0  0  0  0  0  0  0  0  0
   37.0840   27.7280   33.2860 C   0  0  0  0  0  0  0  0  0  0  0  0
   37.9210   28.2720   32.7740 H   0  0  0  0  0  0  0  0  0  0  0  0
   37.3910   27.5550   34.3390 H   0  0  0  0  0  0  0  0  0  0  0  0
   34.0240   29.5780   32.2870 C   0  0  0  0  0  0  0  0  0  0  0  0
   33.7700   30.3970   33.3840 C   0  0  0  0  0  0  0  0  0  0  0  0
   34.6580   30.3030   34.4550 C   0  0  0  0  0  0  0  0  0  0  0  0
   35.6980   29.4370   34.3740 N   0  0  0  0  0  0  0  0  0  0  0  0
   35.8910   28.6680   33.2830 C   0  0  0  0  0  0  0  0  0  0  0  0
   35.0670   28.7360   32.2550 N   0  0  0  0  0  0  0  0  0  0  0  0
   33.3430   29.6320   31.4340 H   0  0  0  0  0  0  0  0  0  0  0  0
   32.9380   31.0840   33.4380 H   0  0  0  0  0  0  0  0  0  0  0  0
   34.5140   31.1010   35.6660 C   0  0  0  0  0  0  0  0  0  0  0  0
   33.2830   31.4160   36.2310 C   0  0  0  0  0  0  0  0  0  0  0  0
   32.3160   31.1090   35.8410 H   0  0  0  0  0  0  0  0  0  0  0  0
   33.4870   32.1880   37.3760 C   0  0  0  0  0  0  0  0  0  0  0  0
   32.6610   32.5500   37.9820 H   0  0  0  0  0  0  0  0  0  0  0  0
   34.8390   32.3170   37.4700 N   0  0  0  0  0  0  0  0  0  0  0  0
   35.2340   32.8570   38.2530 H   0  0  0  0  0  0  0  0  0  0  0  0
   35.4020   31.6850   36.4780 N   0  0  0  0  0  0  0  0  0  0  0  0
  1  3  1  0  0  0  0
  1  4  1  0  0  0  0
  1 25  1  0  0  0  0
  2  1  1  0  0  0  0
  4  8  1  0  0  0  0
  5  4  2  0  0  0  0
  5  6  1  0  0  0  0
  6  7  1  0  0  0  0
  7  9  1  0  0  0  0
  8  7  2  0  0  0  0
  9 10  1  0  0  0  0
  9 14  1  0  0  0  0
 10 11  1  0  0  0  0
 11 19  1  0  0  0  0
 11 12  1  0  0  0  0
 12 13  1  0  0  0  0
 13 21  1  0  0  0  0
 13 22  1  0  0  0  0
 14 13  1  0  0  0  0
 15  5  1  0  0  0  0
 16 10  1  0  0  0  0
 17 10  1  0  0  0  0
 18 11  1  0  0  0  0
 20 12  1  0  0  0  0
 23 14  1  0  0  0  0
 24 14  1  0  0  0  0
 25 27  1  0  0  0  0
 26 25  1  0  0  0  0
 28 29  1  0  0  0  0
 29 35  1  0  0  0  0
 29 30  2  0  0  0  0
 30 36  1  0  0  0  0
 31 30  1  0  0  0  0
 32 25  1  0  0  0  0
 32 31  2  0  0  0  0
 33 28  2  0  0  0  0
 33 32  1  0  0  0  0
 34 28  1  0  0  0  0
 36 37  1  0  0  0  0
 36 43  2  0  0  0  0
 37 39  2  0  0  0  0
 38 37  1  0  0  0  0
 39 41  1  0  0  0  0
 39 40  1  0  0  0  0
 41 42  1  0  0  0  0
 43 41  1  0  0  0  0
M  END
>  <minimizedAffinity>
-6.27293968

$$$$

 OpenBabel03272506103D

 43 46  0  0  0  0  0  0  0  0999 V2000
   35.8460   23.0330   32.0730 C   0  0  0  0  0  0  0  0  0  0  0  0
   35.1050   22.2660   31.7620 H   0  0  0  0  0  0  0  0  0  0  0  0
   35.3970   23.5630   32.9380 H   0  0  0  0  0  0  0  0  0  0  0  0
   37.1280   22.3630   32.4990 C   0  0  0  0  0  0  0  0  0  0  0  0
   37.7730   21.4250   31.6050 C   0  0  0  0  0  0  0  0  0  0  0  0
   39.1780   20.9570   32.5610 S   0  0  0  0  0  0  0  0  0  0  0  0
   38.7520   22.0520   34.0230 C   0  0  0  0  0  0  0  0  0  0  0  0
   37.7410   22.5470   33.6280 N   0  0  0  0  0  0  0  0  0  0  0  0
   39.4220   22.2730   35.2950 N   0  0  0  0  0  0  0  0  0  0  0  0
   40.8470   22.1290   35.2810 C   0  0  0  0  0  0  0  0  0  0  0  0
   41.4570   21.9500   36.6340 C   0  0  0  0  0  0  0  0  0  0  0  0
   40.4680   21.7890   37.7020 N   0  0  0  0  0  0  0  0  0  0  0  0
   39.5750   22.9280   37.5810 C   0  0  0  0  0  0  0  0  0  0  0  0
   38.6350   22.6110   36.4470 C   0  0  0  0  0  0  0  0  0  0  0  0
   37.4310   21.1450   30.6490 H   0  0  0  0  0  0  0  0  0  0  0  0
   41.0860   21.2320   34.6720 H   0  0  0  0  0  0  0  0  0  0  0  0
   41.3380   22.9720   34.7370 H   0  0  0  0  0  0  0  0  0  0  0  0
   42.2100   21.1490   36.6860 H   0  0  0  0  0  0  0  0  0  0  0  0
   41.9920   22.8940   36.8970 H   0  0  0  0  0  0  0  0  0  0  0  0
   39.9260   20.9260   37.4570 H   0  0  0  0  0  0  0  0  0  0  0  0
   40.1010   23.8690   37.3220 H   0  0  0  0  0  0  0  0  0  0  0  0
   38.9910   22.9840   38.5250 H   0  0  0  0  0  0  0  0  0  0  0  0
   38.0630   21.7050   36.7300 H   0  0  0  0  0  0  0  0  0  0  0  0
   37.9190   23.4220   36.3130 H   0  0  0  0  0  0  0  0  0  0  0  0
   36.0710   23.9730   30.9600 C   0  0  0  0  0  0  0  0  0  0  0  0
   35.2300   23.9470   30.2170 H   0  0  0  0  0  0  0  0  0  0  0  0
   37.0110   23.7490   30.4120 H   0  0  0  0  0  0  0  0  0  0  0  0
   35.5920   27.6310   31.3770 C   0  0  0  0  0  0  0  0  0  0  0  0
   36.3540   27.9290   32.5020 C   0  0  0  0  0  0  0  0  0  0  0  0
   37.0250   26.8660   33.1050 C   0  0  0  0  0  0  0  0  0  0  0  0
   36.9020   25.6240   32.5740 N   0  0  0  0  0  0  0  0  0  0  0  0
   36.1460   25.3980   31.4800 C   0  0  0  0  0  0  0  0  0  0  0  0
   35.5000   26.3840   30.8900 N   0  0  0  0  0  0  0  0  0  0  0  0
   35.0550   28.4450   30.8860 H   0  0  0  0  0  0  0  0  0  0  0  0
   36.4450   28.9230   32.9170 H   0  0  0  0  0  0  0  0  0  0  0  0
   37.8600   27.0340   34.2880 C   0  0  0  0  0  0  0  0  0  0  0  0
   39.1010   26.4270   34.4390 C   0  0  0  0  0  0  0  0  0  0  0  0
   39.5750   25.7760   33.7080 H   0  0  0  0  0  0  0  0  0  0  0  0
   39.6410   26.7850   35.6750 C   0  0  0  0  0  0  0  0  0  0  0  0
   40.6120   26.4250   36.0070 H   0  0  0  0  0  0  0  0  0  0  0  0
   38.7080   27.6010   36.2370 N   0  0  0  0  0  0  0  0  0  0  0  0
   38.8900   27.9970   37.1700 H   0  0  0  0  0  0  0  0  0  0  0  0
   37.6980   27.7260   35.4210 N   0  0  0  0  0  0  0  0  0  0  0  0
  1  4  1  0  0  0  0
  1  3  1  0  0  0  0
  2  1  1  0  0  0  0
  4  8  1  0  0  0  0
  5  4  2  0  0  0  0
  5  6  1  0  0  0  0
  6  7  1  0  0  0  0
  7  9  1  0  0  0  0
  8  7  2  0  0  0  0
  9 14  1  0  0  0  0
 10  9  1  0  0  0  0
 10 11  1  0  0  0  0
 11 18  1  0  0  0  0
 11 19  1  0  0  0  0
 11 12  1  0  0  0  0
 13 12  1  0  0  0  0
 13 22  1  0  0  0  0
 14 23  1  0  0  0  0
 14 13  1  0  0  0  0
 15  5  1  0  0  0  0
 16 10  1  0  0  0  0
 17 10  1  0  0  0  0
 20 12  1  0  0  0  0
 21 13  1  0  0  0  0
 24 14  1  0  0  0  0
 25 32  1  0  0  0  0
 25  1  1  0  0  0  0
 26 25  1  0  0  0  0
 27 25  1  0  0  0  0
 28 29  1  0  0  0  0
 29 35  1  0  0  0  0
 29 30  2  0  0  0  0
 30 36  1  0  0  0  0
 31 30  1  0  0  0  0
 32 31  2  0  0  0  0
 33 28  2  0  0  0  0
 33 32  1  0  0  0  0
 34 28  1  0  0  0  0
 36 37  1  0  0  0  0
 36 43  2  0  0  0  0
 37 39  2  0  0  0  0
 38 37  1  0  0  0  0
 39 40  1  0  0  0  0
 39 41  1  0  0  0  0
 41 42  1  0  0  0  0
 43 41  1  0  0  0  0
M  END
>  <minimizedAffinity>
-5.96501112

$$$$

 OpenBabel03272506103D

 43 46  0  0  0  0  0  0  0  0999 V2000
   36.1710   28.8340   34.5410 C   0  0  0  0  0  0  0  0  0  0  0  0
   35.4080   28.6430   35.3250 H   0  0  0  0  0  0  0  0  0  0  0  0
   36.9480   29.4690   35.0140 H   0  0  0  0  0  0  0  0  0  0  0  0
   36.7840   27.5310   34.0940 C   0  0  0  0  0  0  0  0  0  0  0  0
   36.8640   27.2300   32.6790 C   0  0  0  0  0  0  0  0  0  0  0  0
   37.6360   25.6450   32.7140 S   0  0  0  0  0  0  0  0  0  0  0  0
   37.7630   25.5670   34.5840 C   0  0  0  0  0  0  0  0  0  0  0  0
   37.2680   26.6130   34.8720 N   0  0  0  0  0  0  0  0  0  0  0  0
   38.3000   24.5520   35.4760 N   0  0  0  0  0  0  0  0  0  0  0  0
   39.3770   23.7670   34.9490 C   0  0  0  0  0  0  0  0  0  0  0  0
   39.6270   22.4950   35.6930 C   0  0  0  0  0  0  0  0  0  0  0  0
   38.6180   22.2100   36.7160 N   0  0  0  0  0  0  0  0  0  0  0  0
   38.5600   23.4010   37.5460 C   0  0  0  0  0  0  0  0  0  0  0  0
   37.7330   24.4060   36.7870 C   0  0  0  0  0  0  0  0  0  0  0  0
   36.5260   27.8460   31.8950 H   0  0  0  0  0  0  0  0  0  0  0  0
   39.1210   23.5100   33.9000 H   0  0  0  0  0  0  0  0  0  0  0  0
   40.3170   24.3650   34.8660 H   0  0  0  0  0  0  0  0  0  0  0  0
   39.7740   21.6170   35.0460 H   0  0  0  0  0  0  0  0  0  0  0  0
   40.5750   22.6150   36.2700 H   0  0  0  0  0  0  0  0  0  0  0  0
   37.7090   22.1290   36.2020 H   0  0  0  0  0  0  0  0  0  0  0  0
   39.5530   23.8570   37.7260 H   0  0  0  0  0  0  0  0  0  0  0  0
   38.0170   23.1220   38.4750 H   0  0  0  0  0  0  0  0  0  0  0  0
   36.7190   23.9780   36.6590 H   0  0  0  0  0  0  0  0  0  0  0  0
   37.6310   25.3240   37.3660 H   0  0  0  0  0  0  0  0  0  0  0  0
   35.5440   29.5510   33.4160 C   0  0  0  0  0  0  0  0  0  0  0  0
   35.7360   29.0380   32.4370 H   0  0  0  0  0  0  0  0  0  0  0  0
   35.9190   30.5930   33.3280 H   0  0  0  0  0  0  0  0  0  0  0  0
   31.9160   30.0960   32.8450 C   0  0  0  0  0  0  0  0  0  0  0  0
   31.3320   29.6330   34.0210 C   0  0  0  0  0  0  0  0  0  0  0  0
   32.1960   29.1390   34.9980 C   0  0  0  0  0  0  0  0  0  0  0  0
   33.5300   29.1350   34.7560 N   0  0  0  0  0  0  0  0  0  0  0  0
   34.0370   29.5970   33.5940 C   0  0  0  0  0  0  0  0  0  0  0  0
   33.2430   30.0700   32.6530 N   0  0  0  0  0  0  0  0  0  0  0  0
   31.2620   30.4880   32.0630 H   0  0  0  0  0  0  0  0  0  0  0  0
   30.2670   29.6420   34.2030 H   0  0  0  0  0  0  0  0  0  0  0  0
   31.7220   28.6240   36.2760 C   0  0  0  0  0  0  0  0  0  0  0  0
   30.9800   27.4550   36.4010 C   0  0  0  0  0  0  0  0  0  0  0  0
   30.6780   26.8120   35.5780 H   0  0  0  0  0  0  0  0  0  0  0  0
   30.6840   27.2400   37.7470 C   0  0  0  0  0  0  0  0  0  0  0  0
   30.1100   26.3800   38.0810 H   0  0  0  0  0  0  0  0  0  0  0  0
   31.2580   28.2870   38.3990 N   0  0  0  0  0  0  0  0  0  0  0  0
   31.1710   28.3440   39.4250 H   0  0  0  0  0  0  0  0  0  0  0  0
   31.8450   29.0650   37.5330 N   0  0  0  0  0  0  0  0  0  0  0  0
  1  3  1  0  0  0  0
  1  2  1  0  0  0  0
  4  1  1  0  0  0  0
  4  8  1  0  0  0  0
  5  6  1  0  0  0  0
  5  4  2  0  0  0  0
  6  7  1  0  0  0  0
  7  8  2  0  0  0  0
  7  9  1  0  0  0  0
  9 14  1  0  0  0  0
 10  9  1  0  0  0  0
 10 11  1  0  0  0  0
 11 19  1  0  0  0  0
 11 12  1  0  0  0  0
 12 13  1  0  0  0  0
 13 21  1  0  0  0  0
 13 22  1  0  0  0  0
 14 24  1  0  0  0  0
 14 13  1  0  0  0  0
 15  5  1  0  0  0  0
 16 10  1  0  0  0  0
 17 10  1  0  0  0  0
 18 11  1  0  0  0  0
 20 12  1  0  0  0  0
 23 14  1  0  0  0  0
 25 32  1  0  0  0  0
 25  1  1  0  0  0  0
 26 25  1  0  0  0  0
 27 25  1  0  0  0  0
 28 29  1  0  0  0  0
 29 35  1  0  0  0  0
 29 30  2  0  0  0  0
 30 36  1  0  0  0  0
 31 30  1  0  0  0  0
 32 31  2  0  0  0  0
 33 28  2  0  0  0  0
 33 32  1  0  0  0  0
 34 28  1  0  0  0  0
 36 37  1  0  0  0  0
 36 43  2  0  0  0  0
 37 39  2  0  0  0  0
 38 37  1  0  0  0  0
 39 40  1  0  0  0  0
 39 41  1  0  0  0  0
 41 42  1  0  0  0  0
 43 41  1  0  0  0  0
M  END
>  <minimizedAffinity>
-5.94158697

$$$$

 OpenBabel03272506103D

 43 46  0  0  0  0  0  0  0  0999 V2000
   37.5030   27.1510   33.8410 C   0  0  0  0  0  0  0  0  0  0  0  0
   38.4560   27.6840   34.0410 H   0  0  0  0  0  0  0  0  0  0  0  0
   37.2630   26.5900   34.7670 H   0  0  0  0  0  0  0  0  0  0  0  0
   36.4090   28.1490   33.5540 C   0  0  0  0  0  0  0  0  0  0  0  0
   35.7220   28.1050   32.2810 C   0  0  0  0  0  0  0  0  0  0  0  0
   34.5830   29.4390   32.4650 S   0  0  0  0  0  0  0  0  0  0  0  0
   35.1450   29.8940   34.1960 C   0  0  0  0  0  0  0  0  0  0  0  0
   36.0000   29.0790   34.3610 N   0  0  0  0  0  0  0  0  0  0  0  0
   34.7030   30.9300   35.1170 N   0  0  0  0  0  0  0  0  0  0  0  0
   33.3270   31.3120   35.0090 C   0  0  0  0  0  0  0  0  0  0  0  0
   33.0040   32.6240   35.6480 C   0  0  0  0  0  0  0  0  0  0  0  0
   34.1870   33.3490   36.1170 N   0  0  0  0  0  0  0  0  0  0  0  0
   34.9030   32.4160   36.9680 C   0  0  0  0  0  0  0  0  0  0  0  0
   35.6460   31.4850   36.0450 C   0  0  0  0  0  0  0  0  0  0  0  0
   35.9100   27.4260   31.4980 H   0  0  0  0  0  0  0  0  0  0  0  0
   33.0830   31.3840   33.9280 H   0  0  0  0  0  0  0  0  0  0  0  0
   32.6480   30.5110   35.3920 H   0  0  0  0  0  0  0  0  0  0  0  0
   32.3720   33.2810   35.0320 H   0  0  0  0  0  0  0  0  0  0  0  0
   32.4220   32.4190   36.5780 H   0  0  0  0  0  0  0  0  0  0  0  0
   34.7700   33.5220   35.2630 H   0  0  0  0  0  0  0  0  0  0  0  0
   34.2330   31.7950   37.5960 H   0  0  0  0  0  0  0  0  0  0  0  0
   35.6430   33.0090   37.5490 H   0  0  0  0  0  0  0  0  0  0  0  0
   36.3610   32.0960   35.4590 H   0  0  0  0  0  0  0  0  0  0  0  0
   36.2260   30.7650   36.6230 H   0  0  0  0  0  0  0  0  0  0  0  0
   37.6930   26.2190   32.7150 C   0  0  0  0  0  0  0  0  0  0  0  0
   38.6680   26.3950   32.1890 H   0  0  0  0  0  0  0  0  0  0  0  0
   36.8830   26.3100   31.9600 H   0  0  0  0  0  0  0  0  0  0  0  0
   37.4100   22.5230   32.9210 C   0  0  0  0  0  0  0  0  0  0  0  0
   37.8130   22.2410   34.2230 C   0  0  0  0  0  0  0  0  0  0  0  0
   38.1770   23.3280   35.0160 C   0  0  0  0  0  0  0  0  0  0  0  0
   38.1210   24.5760   34.4880 N   0  0  0  0  0  0  0  0  0  0  0  0
   37.7220   24.7860   33.2170 C   0  0  0  0  0  0  0  0  0  0  0  0
   37.3730   23.7760   32.4440 N   0  0  0  0  0  0  0  0  0  0  0  0
   37.1200   21.6880   32.2780 H   0  0  0  0  0  0  0  0  0  0  0  0
   37.8540   21.2420   34.6340 H   0  0  0  0  0  0  0  0  0  0  0  0
   38.6170   23.1800   36.3980 C   0  0  0  0  0  0  0  0  0  0  0  0
   37.9920   23.8070   37.4690 C   0  0  0  0  0  0  0  0  0  0  0  0
   37.1260   24.4610   37.3970 H   0  0  0  0  0  0  0  0  0  0  0  0
   38.6510   23.4640   38.6510 C   0  0  0  0  0  0  0  0  0  0  0  0
   38.3320   23.8410   39.6190 H   0  0  0  0  0  0  0  0  0  0  0  0
   39.6580   22.6380   38.2580 N   0  0  0  0  0  0  0  0  0  0  0  0
   40.2910   22.2500   38.9720 H   0  0  0  0  0  0  0  0  0  0  0  0
   39.6160   22.4930   36.9620 N   0  0  0  0  0  0  0  0  0  0  0  0
  1  2  1  0  0  0  0
  1  3  1  0  0  0  0
  4  1  1  0  0  0  0
  4  8  1  0  0  0  0
  5  6  1  0  0  0  0
  5  4  2  0  0  0  0
  6  7  1  0  0  0  0
  7  8  2  0  0  0  0
  7  9  1  0  0  0  0
  9 14  1  0  0  0  0
 10  9  1  0  0  0  0
 10 17  1  0  0  0  0
 10 11  1  0  0  0  0
 11 12  1  0  0  0  0
 11 19  1  0  0  0  0
 12 13  1  0  0  0  0
 13 22  1  0  0  0  0
 13 21  1  0  0  0  0
 14 24  1  0  0  0  0
 14 13  1  0  0  0  0
 15  5  1  0  0  0  0
 16 10  1  0  0  0  0
 18 11  1  0  0  0  0
 20 12  1  0  0  0  0
 23 14  1  0  0  0  0
 25 32  1  0  0  0  0
 25  1  1  0  0  0  0
 26 25  1  0  0  0  0
 27 25  1  0  0  0  0
 28 29  1  0  0  0  0
 29 35  1  0  0  0  0
 29 30  2  0  0  0  0
 30 36  1  0  0  0  0
 31 30  1  0  0  0  0
 32 31  2  0  0  0  0
 33 28  2  0  0  0  0
 33 32  1  0  0  0  0
 34 28  1  0  0  0  0
 36 43  2  0  0  0  0
 36 37  1  0  0  0  0
 37 39  2  0  0  0  0
 38 37  1  0  0  0  0
 39 40  1  0  0  0  0
 41 39  1  0  0  0  0
 41 42  1  0  0  0  0
 43 41  1  0  0  0  0
M  END
>  <minimizedAffinity>
-5.92463779

$$$$

 OpenBabel03272506103D

 43 46  0  0  0  0  0  0  0  0999 V2000
   36.2230   28.4180   33.3100 C   0  0  0  0  0  0  0  0  0  0  0  0
   35.7590   27.5800   32.7480 H   0  0  0  0  0  0  0  0  0  0  0  0
   37.0240   28.8210   32.6570 H   0  0  0  0  0  0  0  0  0  0  0  0
   35.1950   29.4910   33.5720 C   0  0  0  0  0  0  0  0  0  0  0  0
   35.4320   30.8350   33.0900 C   0  0  0  0  0  0  0  0  0  0  0  0
   33.9740   31.6560   33.6460 S   0  0  0  0  0  0  0  0  0  0  0  0
   33.2260   30.1320   34.4450 C   0  0  0  0  0  0  0  0  0  0  0  0
   34.0760   29.3310   34.2070 N   0  0  0  0  0  0  0  0  0  0  0  0
   31.9760   29.9300   35.1610 N   0  0  0  0  0  0  0  0  0  0  0  0
   30.8880   30.7720   34.7640 C   0  0  0  0  0  0  0  0  0  0  0  0
   29.7740   30.8420   35.7580 C   0  0  0  0  0  0  0  0  0  0  0  0
   30.0790   30.1690   37.0230 N   0  0  0  0  0  0  0  0  0  0  0  0
   30.4890   28.8240   36.6590 C   0  0  0  0  0  0  0  0  0  0  0  0
   31.9170   28.9290   36.1880 C   0  0  0  0  0  0  0  0  0  0  0  0
   36.2790   31.1620   32.5550 H   0  0  0  0  0  0  0  0  0  0  0  0
   31.2920   31.7970   34.6240 H   0  0  0  0  0  0  0  0  0  0  0  0
   30.4980   30.4890   33.7560 H   0  0  0  0  0  0  0  0  0  0  0  0
   29.4020   31.8600   35.9470 H   0  0  0  0  0  0  0  0  0  0  0  0
   28.9090   30.2700   35.3460 H   0  0  0  0  0  0  0  0  0  0  0  0
   30.9140   30.6680   37.4140 H   0  0  0  0  0  0  0  0  0  0  0  0
   29.8960   28.3980   35.8250 H   0  0  0  0  0  0  0  0  0  0  0  0
   30.4630   28.2150   37.5880 H   0  0  0  0  0  0  0  0  0  0  0  0
   32.5230   29.2980   37.0400 H   0  0  0  0  0  0  0  0  0  0  0  0
   32.2970   27.9450   35.9170 H   0  0  0  0  0  0  0  0  0  0  0  0
   36.7990   27.9040   34.5650 C   0  0  0  0  0  0  0  0  0  0  0  0
   36.0430   27.8850   35.3940 H   0  0  0  0  0  0  0  0  0  0  0  0
   37.6590   28.5170   34.9090 H   0  0  0  0  0  0  0  0  0  0  0  0
   37.7090   24.6300   33.0690 C   0  0  0  0  0  0  0  0  0  0  0  0
   38.1520   23.8880   34.1600 C   0  0  0  0  0  0  0  0  0  0  0  0
   38.1310   24.5260   35.4000 C   0  0  0  0  0  0  0  0  0  0  0  0
   37.6910   25.8060   35.4760 N   0  0  0  0  0  0  0  0  0  0  0  0
   37.2740   26.4730   34.3800 C   0  0  0  0  0  0  0  0  0  0  0  0
   37.2830   25.8950   33.1950 N   0  0  0  0  0  0  0  0  0  0  0  0
   37.7150   24.1550   32.0850 H   0  0  0  0  0  0  0  0  0  0  0  0
   38.5010   22.8680   34.0890 H   0  0  0  0  0  0  0  0  0  0  0  0
   38.5650   23.8690   36.6280 C   0  0  0  0  0  0  0  0  0  0  0  0
   38.0790   24.2060   37.8860 C   0  0  0  0  0  0  0  0  0  0  0  0
   37.3400   24.9770   38.0890 H   0  0  0  0  0  0  0  0  0  0  0  0
   38.6900   23.3980   38.8460 C   0  0  0  0  0  0  0  0  0  0  0  0
   38.4620   23.4860   39.9050 H   0  0  0  0  0  0  0  0  0  0  0  0
   39.5300   22.5950   38.1380 N   0  0  0  0  0  0  0  0  0  0  0  0
   40.0990   21.9000   38.6430 H   0  0  0  0  0  0  0  0  0  0  0  0
   39.4380   22.8860   36.8700 N   0  0  0  0  0  0  0  0  0  0  0  0
  1  4  1  0  0  0  0
  1 25  1  0  0  0  0
  2  1  1  0  0  0  0
  3  1  1  0  0  0  0
  4  8  1  0  0  0  0
  5  4  2  0  0  0  0
  5  6  1  0  0  0  0
  6  7  1  0  0  0  0
  7  9  1  0  0  0  0
  8  7  2  0  0  0  0
  9 14  1  0  0  0  0
 10  9  1  0  0  0  0
 10 11  1  0  0  0  0
 11 18  1  0  0  0  0
 11 12  1  0  0  0  0
 12 20  1  0  0  0  0
 13 12  1  0  0  0  0
 13 22  1  0  0  0  0
 14 13  1  0  0  0  0
 14 23  1  0  0  0  0
 15  5  1  0  0  0  0
 16 10  1  0  0  0  0
 17 10  1  0  0  0  0
 19 11  1  0  0  0  0
 21 13  1  0  0  0  0
 24 14  1  0  0  0  0
 25 27  1  0  0  0  0
 25 26  1  0  0  0  0
 28 33  2  0  0  0  0
 28 29  1  0  0  0  0
 29 30  2  0  0  0  0
 30 31  1  0  0  0  0
 30 36  1  0  0  0  0
 32 25  1  0  0  0  0
 32 31  2  0  0  0  0
 33 32  1  0  0  0  0
 34 28  1  0  0  0  0
 35 29  1  0  0  0  0
 36 43  2  0  0  0  0
 36 37  1  0  0  0  0
 37 38  1  0  0  0  0
 37 39  2  0  0  0  0
 39 40  1  0  0  0  0
 41 42  1  0  0  0  0
 41 39  1  0  0  0  0
 43 41  1  0  0  0  0
M  END
>  <minimizedAffinity>
-5.89721584

$$$$

 OpenBabel03272506103D

 43 46  0  0  0  0  0  0  0  0999 V2000
   36.2030   28.4450   33.8510 C   0  0  0  0  0  0  0  0  0  0  0  0
   35.5540   27.6640   33.4020 H   0  0  0  0  0  0  0  0  0  0  0  0
   36.8800   28.7870   33.0400 H   0  0  0  0  0  0  0  0  0  0  0  0
   35.3600   29.6000   34.3280 C   0  0  0  0  0  0  0  0  0  0  0  0
   33.9230   29.4450   34.4120 C   0  0  0  0  0  0  0  0  0  0  0  0
   33.4440   31.0350   35.0050 S   0  0  0  0  0  0  0  0  0  0  0  0
   35.1920   31.7150   35.0720 C   0  0  0  0  0  0  0  0  0  0  0  0
   35.8020   30.7650   34.6870 N   0  0  0  0  0  0  0  0  0  0  0  0
   35.7100   33.0150   35.4700 N   0  0  0  0  0  0  0  0  0  0  0  0
   34.9510   33.7080   36.4670 C   0  0  0  0  0  0  0  0  0  0  0  0
   35.2500   35.1710   36.5560 C   0  0  0  0  0  0  0  0  0  0  0  0
   36.1400   35.6480   35.4940 N   0  0  0  0  0  0  0  0  0  0  0  0
   37.3050   34.7830   35.5450 C   0  0  0  0  0  0  0  0  0  0  0  0
   36.9120   33.5030   34.8550 C   0  0  0  0  0  0  0  0  0  0  0  0
   33.3780   28.5780   34.1660 H   0  0  0  0  0  0  0  0  0  0  0  0
   33.8770   33.5890   36.2130 H   0  0  0  0  0  0  0  0  0  0  0  0
   35.0540   33.2250   37.4700 H   0  0  0  0  0  0  0  0  0  0  0  0
   34.3570   35.8090   36.6230 H   0  0  0  0  0  0  0  0  0  0  0  0
   35.8260   35.3470   37.4950 H   0  0  0  0  0  0  0  0  0  0  0  0
   35.6340   35.4590   34.5960 H   0  0  0  0  0  0  0  0  0  0  0  0
   37.6110   34.5230   36.5780 H   0  0  0  0  0  0  0  0  0  0  0  0
   38.1030   35.2790   34.9500 H   0  0  0  0  0  0  0  0  0  0  0  0
   36.6640   33.7510   33.8040 H   0  0  0  0  0  0  0  0  0  0  0  0
   37.7530   32.8100   34.8390 H   0  0  0  0  0  0  0  0  0  0  0  0
   36.9860   27.8550   34.9510 C   0  0  0  0  0  0  0  0  0  0  0  0
   36.3880   27.7900   35.8990 H   0  0  0  0  0  0  0  0  0  0  0  0
   37.9020   28.4440   35.1710 H   0  0  0  0  0  0  0  0  0  0  0  0
   37.5930   24.6810   33.1240 C   0  0  0  0  0  0  0  0  0  0  0  0
   38.1860   23.8650   34.0830 C   0  0  0  0  0  0  0  0  0  0  0  0
   38.3690   24.4180   35.3500 C   0  0  0  0  0  0  0  0  0  0  0  0
   37.9690   25.6940   35.5750 N   0  0  0  0  0  0  0  0  0  0  0  0
   37.4010   26.4360   34.6030 C   0  0  0  0  0  0  0  0  0  0  0  0
   37.2150   25.9390   33.3950 N   0  0  0  0  0  0  0  0  0  0  0  0
   37.4390   24.2720   32.1220 H   0  0  0  0  0  0  0  0  0  0  0  0
   38.5010   22.8490   33.8930 H   0  0  0  0  0  0  0  0  0  0  0  0
   38.9760   23.6780   36.4490 C   0  0  0  0  0  0  0  0  0  0  0  0
   40.2110   23.0470   36.3550 C   0  0  0  0  0  0  0  0  0  0  0  0
   40.8450   23.0350   35.4710 H   0  0  0  0  0  0  0  0  0  0  0  0
   40.5060   22.4310   37.5710 C   0  0  0  0  0  0  0  0  0  0  0  0
   41.4270   21.8750   37.7280 H   0  0  0  0  0  0  0  0  0  0  0  0
   39.4380   22.7090   38.3680 N   0  0  0  0  0  0  0  0  0  0  0  0
   39.4310   22.3510   39.3340 H   0  0  0  0  0  0  0  0  0  0  0  0
   38.5770   23.4240   37.7000 N   0  0  0  0  0  0  0  0  0  0  0  0
  1  4  1  0  0  0  0
  1 25  1  0  0  0  0
  2  1  1  0  0  0  0
  3  1  1  0  0  0  0
  4  5  2  0  0  0  0
  4  8  1  0  0  0  0
  5  6  1  0  0  0  0
  6  7  1  0  0  0  0
  7  9  1  0  0  0  0
  8  7  2  0  0  0  0
  9 10  1  0  0  0  0
 10 11  1  0  0  0  0
 10 17  1  0  0  0  0
 11 18  1  0  0  0  0
 11 19  1  0  0  0  0
 12 13  1  0  0  0  0
 12 11  1  0  0  0  0
 13 21  1  0  0  0  0
 14  9  1  0  0  0  0
 14 13  1  0  0  0  0
 15  5  1  0  0  0  0
 16 10  1  0  0  0  0
 20 12  1  0  0  0  0
 22 13  1  0  0  0  0
 23 14  1  0  0  0  0
 24 14  1  0  0  0  0
 25 27  1  0  0  0  0
 25 26  1  0  0  0  0
 28 33  2  0  0  0  0
 28 29  1  0  0  0  0
 29 30  2  0  0  0  0
 30 31  1  0  0  0  0
 30 36  1  0  0  0  0
 32 25  1  0  0  0  0
 32 31  2  0  0  0  0
 33 32  1  0  0  0  0
 34 28  1  0  0  0  0
 35 29  1  0  0  0  0
 36 43  2  0  0  0  0
 37 36  1  0  0  0  0
 37 39  2  0  0  0  0
 38 37  1  0  0  0  0
 39 40  1  0  0  0  0
 39 41  1  0  0  0  0
 41 42  1  0  0  0  0
 43 41  1  0  0  0  0
M  END
>  <minimizedAffinity>
-5.70671892

$$$$

 OpenBabel03272506103D

 43 46  0  0  0  0  0  0  0  0999 V2000
   37.6270   25.6780   31.2440 C   0  0  0  0  0  0  0  0  0  0  0  0
   38.5240   26.2350   31.5890 H   0  0  0  0  0  0  0  0  0  0  0  0
   37.2730   26.1980   30.3300 H   0  0  0  0  0  0  0  0  0  0  0  0
   38.0050   24.2580   30.9050 C   0  0  0  0  0  0  0  0  0  0  0  0
   39.1970   24.0060   30.1240 C   0  0  0  0  0  0  0  0  0  0  0  0
   39.1700   22.2460   30.0220 S   0  0  0  0  0  0  0  0  0  0  0  0
   37.5930   22.0500   31.0200 C   0  0  0  0  0  0  0  0  0  0  0  0
   37.3490   23.1940   31.2540 N   0  0  0  0  0  0  0  0  0  0  0  0
   36.8420   20.8720   31.4220 N   0  0  0  0  0  0  0  0  0  0  0  0
   37.6120   19.6800   31.6160 C   0  0  0  0  0  0  0  0  0  0  0  0
   36.8040   18.4220   31.6170 C   0  0  0  0  0  0  0  0  0  0  0  0
   35.4000   18.6320   31.2530 N   0  0  0  0  0  0  0  0  0  0  0  0
   34.9170   19.6700   32.1480 C   0  0  0  0  0  0  0  0  0  0  0  0
   35.4210   20.9760   31.5920 C   0  0  0  0  0  0  0  0  0  0  0  0
   39.8580   24.7360   29.7500 H   0  0  0  0  0  0  0  0  0  0  0  0
   38.3480   19.6170   30.7870 H   0  0  0  0  0  0  0  0  0  0  0  0
   38.2400   19.7440   32.5380 H   0  0  0  0  0  0  0  0  0  0  0  0
   37.2360   17.6080   31.0170 H   0  0  0  0  0  0  0  0  0  0  0  0
   36.7590   18.0430   32.6660 H   0  0  0  0  0  0  0  0  0  0  0  0
   35.4160   19.0250   30.2810 H   0  0  0  0  0  0  0  0  0  0  0  0
   35.3110   19.5740   33.1790 H   0  0  0  0  0  0  0  0  0  0  0  0
   33.8070   19.6590   32.0860 H   0  0  0  0  0  0  0  0  0  0  0  0
   34.9790   21.1040   30.5830 H   0  0  0  0  0  0  0  0  0  0  0  0
   35.0750   21.8060   32.2080 H   0  0  0  0  0  0  0  0  0  0  0  0
   36.5910   25.7270   32.2910 C   0  0  0  0  0  0  0  0  0  0  0  0
   36.1370   24.7170   32.4750 H   0  0  0  0  0  0  0  0  0  0  0  0
   35.7660   26.4230   32.0270 H   0  0  0  0  0  0  0  0  0  0  0  0
   37.9130   27.8150   35.0620 C   0  0  0  0  0  0  0  0  0  0  0  0
   38.2920   26.8780   36.0190 C   0  0  0  0  0  0  0  0  0  0  0  0
   38.0880   25.5370   35.6980 C   0  0  0  0  0  0  0  0  0  0  0  0
   37.5430   25.2220   34.4970 N   0  0  0  0  0  0  0  0  0  0  0  0
   37.1950   26.1770   33.6100 C   0  0  0  0  0  0  0  0  0  0  0  0
   37.3760   27.4540   33.8870 N   0  0  0  0  0  0  0  0  0  0  0  0
   38.0610   28.8730   35.2880 H   0  0  0  0  0  0  0  0  0  0  0  0
   38.7260   27.1400   36.9730 H   0  0  0  0  0  0  0  0  0  0  0  0
   38.4390   24.4510   36.6050 C   0  0  0  0  0  0  0  0  0  0  0  0
   38.0370   24.4070   37.9350 C   0  0  0  0  0  0  0  0  0  0  0  0
   37.4330   25.1610   38.4340 H   0  0  0  0  0  0  0  0  0  0  0  0
   38.5340   23.2460   38.5280 C   0  0  0  0  0  0  0  0  0  0  0  0
   38.3440   23.0020   39.5700 H   0  0  0  0  0  0  0  0  0  0  0  0
   39.2230   22.6190   37.5350 N   0  0  0  0  0  0  0  0  0  0  0  0
   39.6860   21.7220   37.7410 H   0  0  0  0  0  0  0  0  0  0  0  0
   39.1520   23.3310   36.4450 N   0  0  0  0  0  0  0  0  0  0  0  0
  1  2  1  0  0  0  0
  1 25  1  0  0  0  0
  3  1  1  0  0  0  0
  4  1  1  0  0  0  0
  4  8  1  0  0  0  0
  5  4  2  0  0  0  0
  6  5  1  0  0  0  0
  6  7  1  0  0  0  0
  7  8  2  0  0  0  0
  7  9  1  0  0  0  0
  9 14  1  0  0  0  0
  9 10  1  0  0  0  0
 10 11  1  0  0  0  0
 10 17  1  0  0  0  0
 11 19  1  0  0  0  0
 12 11  1  0  0  0  0
 12 13  1  0  0  0  0
 13 21  1  0  0  0  0
 14 13  1  0  0  0  0
 14 24  1  0  0  0  0
 15  5  1  0  0  0  0
 16 10  1  0  0  0  0
 18 11  1  0  0  0  0
 20 12  1  0  0  0  0
 22 13  1  0  0  0  0
 23 14  1  0  0  0  0
 25 26  1  0  0  0  0
 25 32  1  0  0  0  0
 27 25  1  0  0  0  0
 28 34  1  0  0  0  0
 28 29  1  0  0  0  0
 29 35  1  0  0  0  0
 30 29  2  0  0  0  0
 30 36  1  0  0  0  0
 31 30  1  0  0  0  0
 32 33  1  0  0  0  0
 32 31  2  0  0  0  0
 33 28  2  0  0  0  0
 36 37  1  0  0  0  0
 37 38  1  0  0  0  0
 37 39  2  0  0  0  0
 39 40  1  0  0  0  0
 41 42  1  0  0  0  0
 41 39  1  0  0  0  0
 43 36  2  0  0  0  0
 43 41  1  0  0  0  0
M  END
>  <minimizedAffinity>
-5.69229555

$$$$

 OpenBabel03272506103D

 43 46  0  0  0  0  0  0  0  0999 V2000
   37.1920   26.7960   33.2880 C   0  0  0  0  0  0  0  0  0  0  0  0
   37.9120   27.1330   34.0640 H   0  0  0  0  0  0  0  0  0  0  0  0
   36.3360   26.3500   33.8340 H   0  0  0  0  0  0  0  0  0  0  0  0
   36.7170   27.9800   32.4820 C   0  0  0  0  0  0  0  0  0  0  0  0
   35.5390   28.7050   32.9100 C   0  0  0  0  0  0  0  0  0  0  0  0
   35.4320   29.9440   31.6600 S   0  0  0  0  0  0  0  0  0  0  0  0
   36.9510   29.3610   30.7240 C   0  0  0  0  0  0  0  0  0  0  0  0
   37.2740   28.4360   31.4040 N   0  0  0  0  0  0  0  0  0  0  0  0
   37.5920   29.8550   29.5160 N   0  0  0  0  0  0  0  0  0  0  0  0
   37.4650   31.2620   29.2750 C   0  0  0  0  0  0  0  0  0  0  0  0
   37.7560   31.6700   27.8670 C   0  0  0  0  0  0  0  0  0  0  0  0
   37.9530   30.5360   26.9610 N   0  0  0  0  0  0  0  0  0  0  0  0
   38.9770   29.7140   27.5820 C   0  0  0  0  0  0  0  0  0  0  0  0
   38.2890   28.9300   28.6690 C   0  0  0  0  0  0  0  0  0  0  0  0
   34.9520   28.4890   33.7570 H   0  0  0  0  0  0  0  0  0  0  0  0
   36.4180   31.5490   29.5090 H   0  0  0  0  0  0  0  0  0  0  0  0
   38.0820   31.8570   29.9920 H   0  0  0  0  0  0  0  0  0  0  0  0
   37.0270   32.3760   27.4430 H   0  0  0  0  0  0  0  0  0  0  0  0
   38.7390   32.1990   27.8590 H   0  0  0  0  0  0  0  0  0  0  0  0
   37.0530   30.0000   26.9790 H   0  0  0  0  0  0  0  0  0  0  0  0
   39.7820   30.3080   28.0610 H   0  0  0  0  0  0  0  0  0  0  0  0
   39.3400   29.0070   26.8060 H   0  0  0  0  0  0  0  0  0  0  0  0
   37.5240   28.2890   28.1860 H   0  0  0  0  0  0  0  0  0  0  0  0
   39.0010   28.2710   29.1670 H   0  0  0  0  0  0  0  0  0  0  0  0
   37.8350   25.7830   32.4330 C   0  0  0  0  0  0  0  0  0  0  0  0
   38.9270   25.9940   32.2860 H   0  0  0  0  0  0  0  0  0  0  0  0
   37.3640   25.7290   31.4280 H   0  0  0  0  0  0  0  0  0  0  0  0
   37.2020   22.1730   33.0300 C   0  0  0  0  0  0  0  0  0  0  0  0
   37.6200   21.9850   34.3440 C   0  0  0  0  0  0  0  0  0  0  0  0
   38.1160   23.1060   35.0100 C   0  0  0  0  0  0  0  0  0  0  0  0
   38.1630   24.2930   34.3570 N   0  0  0  0  0  0  0  0  0  0  0  0
   37.7420   24.4120   33.0800 C   0  0  0  0  0  0  0  0  0  0  0  0
   37.2690   23.3690   32.4260 N   0  0  0  0  0  0  0  0  0  0  0  0
   36.8100   21.3120   32.4850 H   0  0  0  0  0  0  0  0  0  0  0  0
   37.5780   21.0350   34.8550 H   0  0  0  0  0  0  0  0  0  0  0  0
   38.5880   23.0550   36.3880 C   0  0  0  0  0  0  0  0  0  0  0  0
   37.9210   23.6620   37.4460 C   0  0  0  0  0  0  0  0  0  0  0  0
   36.9970   24.2300   37.3640 H   0  0  0  0  0  0  0  0  0  0  0  0
   38.6260   23.4300   38.6280 C   0  0  0  0  0  0  0  0  0  0  0  0
   38.2870   23.8140   39.5870 H   0  0  0  0  0  0  0  0  0  0  0  0
   39.7010   22.6870   38.2490 N   0  0  0  0  0  0  0  0  0  0  0  0
   40.3780   22.3880   38.9660 H   0  0  0  0  0  0  0  0  0  0  0  0
   39.6540   22.4860   36.9610 N   0  0  0  0  0  0  0  0  0  0  0  0
  1  3  1  0  0  0  0
  1  2  1  0  0  0  0
  4  5  2  0  0  0  0
  4  1  1  0  0  0  0
  5 15  1  0  0  0  0
  6  5  1  0  0  0  0
  7  8  2  0  0  0  0
  7  6  1  0  0  0  0
  8  4  1  0  0  0  0
  9  7  1  0  0  0  0
 10 16  1  0  0  0  0
 10  9  1  0  0  0  0
 10 17  1  0  0  0  0
 11 10  1  0  0  0  0
 12 20  1  0  0  0  0
 12 13  1  0  0  0  0
 12 11  1  0  0  0  0
 13 21  1  0  0  0  0
 13 14  1  0  0  0  0
 14 24  1  0  0  0  0
 14  9  1  0  0  0  0
 18 11  1  0  0  0  0
 19 11  1  0  0  0  0
 22 13  1  0  0  0  0
 23 14  1  0  0  0  0
 25 32  1  0  0  0  0
 25  1  1  0  0  0  0
 26 25  1  0  0  0  0
 27 25  1  0  0  0  0
 28 29  1  0  0  0  0
 29 35  1  0  0  0  0
 29 30  2  0  0  0  0
 30 36  1  0  0  0  0
 31 30  1  0  0  0  0
 32 31  2  0  0  0  0
 33 28  2  0  0  0  0
 33 32  1  0  0  0  0
 34 28  1  0  0  0  0
 36 43  2  0  0  0  0
 36 37  1  0  0  0  0
 37 39  2  0  0  0  0
 38 37  1  0  0  0  0
 39 40  1  0  0  0  0
 41 39  1  0  0  0  0
 41 42  1  0  0  0  0
 43 41  1  0  0  0  0
M  END
>  <minimizedAffinity>
-5.60867786

$$$$

 OpenBabel03272506103D

 43 46  0  0  0  0  0  0  0  0999 V2000
   37.4100   26.9040   35.1850 C   0  0  0  0  0  0  0  0  0  0  0  0
   38.2220   27.4340   35.7260 H   0  0  0  0  0  0  0  0  0  0  0  0
   36.5890   26.7660   35.9190 H   0  0  0  0  0  0  0  0  0  0  0  0
   36.9240   27.7490   34.0340 C   0  0  0  0  0  0  0  0  0  0  0  0
   35.7560   28.5860   34.2100 C   0  0  0  0  0  0  0  0  0  0  0  0
   35.6300   29.3310   32.6170 S   0  0  0  0  0  0  0  0  0  0  0  0
   37.1300   28.4530   31.9090 C   0  0  0  0  0  0  0  0  0  0  0  0
   37.4630   27.8090   32.8560 N   0  0  0  0  0  0  0  0  0  0  0  0
   37.7510   28.5050   30.5950 N   0  0  0  0  0  0  0  0  0  0  0  0
   37.6240   29.7480   29.8950 C   0  0  0  0  0  0  0  0  0  0  0  0
   37.8910   29.6540   28.4270 C   0  0  0  0  0  0  0  0  0  0  0  0
   38.0680   28.2790   27.9550 N   0  0  0  0  0  0  0  0  0  0  0  0
   39.1010   27.7070   28.8010 C   0  0  0  0  0  0  0  0  0  0  0  0
   38.4300   27.3410   30.1000 C   0  0  0  0  0  0  0  0  0  0  0  0
   35.1830   28.6740   35.0900 H   0  0  0  0  0  0  0  0  0  0  0  0
   36.5820   30.1060   30.0350 H   0  0  0  0  0  0  0  0  0  0  0  0
   38.2540   30.5460   30.3590 H   0  0  0  0  0  0  0  0  0  0  0  0
   37.1560   30.1810   27.8010 H   0  0  0  0  0  0  0  0  0  0  0  0
   38.8740   30.1410   28.2250 H   0  0  0  0  0  0  0  0  0  0  0  0
   37.1670   27.7880   28.1680 H   0  0  0  0  0  0  0  0  0  0  0  0
   39.9150   28.4200   29.0390 H   0  0  0  0  0  0  0  0  0  0  0  0
   39.4480   26.7760   28.3040 H   0  0  0  0  0  0  0  0  0  0  0  0
   37.6550   26.5810   29.8740 H   0  0  0  0  0  0  0  0  0  0  0  0
   39.1490   26.8840   30.7800 H   0  0  0  0  0  0  0  0  0  0  0  0
   37.9040   25.5950   34.7230 C   0  0  0  0  0  0  0  0  0  0  0  0
   38.8090   25.6990   34.0690 H   0  0  0  0  0  0  0  0  0  0  0  0
   37.1340   25.0400   34.1460 H   0  0  0  0  0  0  0  0  0  0  0  0
   38.1090   24.0610   38.0980 C   0  0  0  0  0  0  0  0  0  0  0  0
   39.1570   23.1530   37.9770 C   0  0  0  0  0  0  0  0  0  0  0  0
   39.7830   23.0810   36.7330 C   0  0  0  0  0  0  0  0  0  0  0  0
   39.3460   23.8810   35.7290 N   0  0  0  0  0  0  0  0  0  0  0  0
   38.3220   24.7410   35.9080 C   0  0  0  0  0  0  0  0  0  0  0  0
   37.7120   24.8300   37.0740 N   0  0  0  0  0  0  0  0  0  0  0  0
   37.6010   24.1370   39.0630 H   0  0  0  0  0  0  0  0  0  0  0  0
   39.4980   22.5210   38.7850 H   0  0  0  0  0  0  0  0  0  0  0  0
   40.8940   22.1770   36.4650 C   0  0  0  0  0  0  0  0  0  0  0  0
   41.5190   21.4220   37.4500 C   0  0  0  0  0  0  0  0  0  0  0  0
   41.2540   21.4220   38.5050 H   0  0  0  0  0  0  0  0  0  0  0  0
   42.5390   20.6650   36.8730 C   0  0  0  0  0  0  0  0  0  0  0  0
   43.1640   19.9960   37.4580 H   0  0  0  0  0  0  0  0  0  0  0  0
   42.5010   20.9860   35.5500 N   0  0  0  0  0  0  0  0  0  0  0  0
   43.1750   20.5410   34.9100 H   0  0  0  0  0  0  0  0  0  0  0  0
   41.5500   21.8540   35.3450 N   0  0  0  0  0  0  0  0  0  0  0  0
  1  2  1  0  0  0  0
  1  3  1  0  0  0  0
  4  5  2  0  0  0  0
  4  1  1  0  0  0  0
  5 15  1  0  0  0  0
  6  5  1  0  0  0  0
  7  6  1  0  0  0  0
  7  8  2  0  0  0  0
  8  4  1  0  0  0  0
  9  7  1  0  0  0  0
 10 16  1  0  0  0  0
 10 17  1  0  0  0  0
 10  9  1  0  0  0  0
 11 10  1  0  0  0  0
 12 20  1  0  0  0  0
 12 11  1  0  0  0  0
 12 13  1  0  0  0  0
 13 21  1  0  0  0  0
 13 14  1  0  0  0  0
 14  9  1  0  0  0  0
 14 24  1  0  0  0  0
 18 11  1  0  0  0  0
 19 11  1  0  0  0  0
 22 13  1  0  0  0  0
 23 14  1  0  0  0  0
 25  1  1  0  0  0  0
 25 32  1  0  0  0  0
 26 25  1  0  0  0  0
 27 25  1  0  0  0  0
 28 34  1  0  0  0  0
 29 28  1  0  0  0  0
 29 35  1  0  0  0  0
 30 29  2  0  0  0  0
 31 32  2  0  0  0  0
 31 30  1  0  0  0  0
 32 33  1  0  0  0  0
 33 28  2  0  0  0  0
 36 30  1  0  0  0  0
 36 37  1  0  0  0  0
 37 38  1  0  0  0  0
 39 37  2  0  0  0  0
 39 40  1  0  0  0  0
 41 39  1  0  0  0  0
 42 41  1  0  0  0  0
 43 41  1  0  0  0  0
 43 36  2  0  0  0  0
M  END
>  <minimizedAffinity>
-5.57422256

$$$$
