
 OpenBabel03272503353D

 40 43  0  0  1  0  0  0  0  0999 V2000
   35.9970   29.8220   31.7770 C   0  0  0  0  0  0  0  0  0  0  0  0
   36.4210   30.2540   30.5120 C   0  0  0  0  0  0  0  0  0  0  0  0
   36.9510   29.2850   29.6550 C   0  0  0  0  0  0  0  0  0  0  0  0
   37.0180   27.9860   30.1180 N   0  0  0  0  0  0  0  0  0  0  0  0
   36.6020   27.6260   31.3300 C   0  0  0  0  0  0  0  0  0  0  0  0
   36.0920   28.5470   32.1570 N   0  0  0  0  0  0  0  0  0  0  0  0
   36.3640   31.2780   30.1560 H   0  0  0  0  0  0  0  0  0  0  0  0
   37.3050   29.5230   28.6600 H   0  0  0  0  0  0  0  0  0  0  0  0
   35.4510   30.8160   32.6570 N   0  0  0  0  0  0  0  0  0  0  0  0
   34.9600   30.6210   33.9850 C   0  0  0  0  0  0  0  0  0  0  0  0
   35.2050   31.9810   34.6340 C   0  0  2  0  0  0  0  0  0  0  0  0
   35.9530   32.8130   33.6010 C   0  0  0  0  0  0  0  0  0  0  0  0
   35.2930   32.2330   32.3610 C   0  0  0  0  0  0  0  0  0  0  0  0
   33.8860   30.3500   34.0410 H   0  0  0  0  0  0  0  0  0  0  0  0
   35.6050   29.8960   34.5020 H   0  0  0  0  0  0  0  0  0  0  0  0
   34.2720   32.5150   34.8580 H   0  0  0  0  0  0  0  0  0  0  0  0
   37.0300   32.5890   33.5670 H   0  0  0  0  0  0  0  0  0  0  0  0
   35.7650   33.8880   33.7300 H   0  0  0  0  0  0  0  0  0  0  0  0
   35.8730   32.5160   31.4580 H   0  0  0  0  0  0  0  0  0  0  0  0
   34.2350   32.5360   32.2990 H   0  0  0  0  0  0  0  0  0  0  0  0
   35.9750   31.8620   35.9270 C   0  0  0  0  0  0  0  0  0  0  0  0
   37.0110   32.7730   35.8610 F   0  0  0  0  0  0  0  0  0  0  0  0
   36.5540   30.6080   35.9410 F   0  0  0  0  0  0  0  0  0  0  0  0
   35.1960   32.0510   37.0360 F   0  0  0  0  0  0  0  0  0  0  0  0
   36.7170   25.9330   31.8660 S   0  0  0  0  0  0  0  0  0  0  0  0
   37.3350   25.6230   33.3940 C   0  0  0  0  0  0  0  0  0  0  0  0
   37.4250   26.1710   34.6400 C   0  0  0  0  0  0  0  0  0  0  0  0
   38.0430   25.6070   35.7140 C   0  0  0  0  0  0  0  0  0  0  0  0
   38.6390   24.2820   35.3950 C   0  0  0  0  0  0  0  0  0  0  0  0
   38.2530   24.0040   33.6350 S   0  0  0  0  0  0  0  0  0  0  0  0
   36.9360   27.1330   34.6880 H   0  0  0  0  0  0  0  0  0  0  0  0
   38.1200   26.0170   36.6800 H   0  0  0  0  0  0  0  0  0  0  0  0
   39.3450   23.4900   36.3650 C   0  0  0  0  0  0  0  0  0  0  0  0
   40.5130   22.7750   36.3300 C   0  0  0  0  0  0  0  0  0  0  0  0
   41.0530   22.7770   35.3960 H   0  0  0  0  0  0  0  0  0  0  0  0
   40.6480   22.2340   37.5920 C   0  0  0  0  0  0  0  0  0  0  0  0
   41.5200   21.6150   37.8030 H   0  0  0  0  0  0  0  0  0  0  0  0
   39.5970   22.6200   38.3390 N   0  0  0  0  0  0  0  0  0  0  0  0
   39.5220   22.3040   39.3430 H   0  0  0  0  0  0  0  0  0  0  0  0
   38.8020   23.3860   37.5920 N   0  0  0  0  0  0  0  0  0  0  0  0
  1  6  1  0  0  0  0
  1  9  1  0  0  0  0
  2  1  2  0  0  0  0
  3  4  2  0  0  0  0
  3  2  1  0  0  0  0
  4  5  1  0  0  0  0
  5 25  1  0  0  0  0
  5  6  2  0  0  0  0
  7  2  1  0  0  0  0
  8  3  1  0  0  0  0
  9 10  1  0  0  0  0
 10 14  1  0  0  0  0
 10 15  1  0  0  0  0
 10 11  1  0  0  0  0
 11 16  1  1  0  0  0
 11 21  1  0  0  0  0
 12 18  1  0  0  0  0
 12 11  1  0  0  0  0
 13  9  1  0  0  0  0
 13 12  1  0  0  0  0
 17 12  1  0  0  0  0
 19 13  1  0  0  0  0
 20 13  1  0  0  0  0
 21 23  1  0  0  0  0
 21 24  1  0  0  0  0
 22 21  1  0  0  0  0
 25 26  1  0  0  0  0
 26 30  1  0  0  0  0
 26 27  2  0  0  0  0
 27 31  1  0  0  0  0
 27 28  1  0  0  0  0
 28 32  1  0  0  0  0
 29 28  2  0  0  0  0
 29 33  1  0  0  0  0
 30 29  1  0  0  0  0
 33 40  2  0  0  0  0
 34 33  1  0  0  0  0
 34 36  2  0  0  0  0
 35 34  1  0  0  0  0
 36 37  1  0  0  0  0
 36 38  1  0  0  0  0
 38 39  1  0  0  0  0
 40 38  1  0  0  0  0
M  END
>  <minimizedAffinity>
-6.47527075

$$$$

 OpenBabel03272503353D

 40 43  0  0  1  0  0  0  0  0999 V2000
   37.5980   24.8530   32.9460 C   0  0  0  0  0  0  0  0  0  0  0  0
   36.7050   23.8990   32.4360 C   0  0  0  0  0  0  0  0  0  0  0  0
   35.8450   24.3160   31.4160 C   0  0  0  0  0  0  0  0  0  0  0  0
   35.9390   25.6270   30.9930 N   0  0  0  0  0  0  0  0  0  0  0  0
   36.8050   26.4960   31.5100 C   0  0  0  0  0  0  0  0  0  0  0  0
   37.6330   26.1060   32.4860 N   0  0  0  0  0  0  0  0  0  0  0  0
   36.6390   22.8700   32.7760 H   0  0  0  0  0  0  0  0  0  0  0  0
   35.1220   23.6520   30.9610 H   0  0  0  0  0  0  0  0  0  0  0  0
   38.4830   24.4260   33.9920 N   0  0  0  0  0  0  0  0  0  0  0  0
   38.7320   25.0820   35.2380 C   0  0  0  0  0  0  0  0  0  0  0  0
   39.1070   23.9210   36.1550 C   0  0  2  0  0  0  0  0  0  0  0  0
   38.9100   22.6530   35.3360 C   0  0  0  0  0  0  0  0  0  0  0  0
   39.3070   23.2250   33.9840 C   0  0  0  0  0  0  0  0  0  0  0  0
   39.5460   25.8330   35.2050 H   0  0  0  0  0  0  0  0  0  0  0  0
   37.7870   25.5000   35.6160 H   0  0  0  0  0  0  0  0  0  0  0  0
   40.1630   23.9460   36.4560 H   0  0  0  0  0  0  0  0  0  0  0  0
   37.8600   22.3300   35.2890 H   0  0  0  0  0  0  0  0  0  0  0  0
   39.5710   21.8420   35.6730 H   0  0  0  0  0  0  0  0  0  0  0  0
   38.9920   22.5340   33.1750 H   0  0  0  0  0  0  0  0  0  0  0  0
   40.3850   23.4540   33.9540 H   0  0  0  0  0  0  0  0  0  0  0  0
   38.2830   23.9080   37.4210 C   0  0  0  0  0  0  0  0  0  0  0  0
   38.8990   23.0300   38.2900 F   0  0  0  0  0  0  0  0  0  0  0  0
   37.0600   23.3520   37.1020 F   0  0  0  0  0  0  0  0  0  0  0  0
   38.1240   25.1500   37.9710 F   0  0  0  0  0  0  0  0  0  0  0  0
   36.8750   28.1730   30.9180 S   0  0  0  0  0  0  0  0  0  0  0  0
   36.3260   29.3950   31.9280 C   0  0  0  0  0  0  0  0  0  0  0  0
   36.1410   30.7460   31.9640 C   0  0  0  0  0  0  0  0  0  0  0  0
   35.6430   31.4520   33.0170 C   0  0  0  0  0  0  0  0  0  0  0  0
   35.3060   30.5810   34.1760 C   0  0  0  0  0  0  0  0  0  0  0  0
   35.7290   28.8920   33.6340 S   0  0  0  0  0  0  0  0  0  0  0  0
   36.4390   31.2130   31.0380 H   0  0  0  0  0  0  0  0  0  0  0  0
   35.4940   32.4920   33.0610 H   0  0  0  0  0  0  0  0  0  0  0  0
   34.7650   31.0940   35.4050 C   0  0  0  0  0  0  0  0  0  0  0  0
   33.5040   31.1260   35.9410 C   0  0  0  0  0  0  0  0  0  0  0  0
   32.7170   30.6820   35.3500 H   0  0  0  0  0  0  0  0  0  0  0  0
   33.6410   31.7600   37.1590 C   0  0  0  0  0  0  0  0  0  0  0  0
   32.7530   31.9010   37.7750 H   0  0  0  0  0  0  0  0  0  0  0  0
   34.9350   32.0860   37.3290 N   0  0  0  0  0  0  0  0  0  0  0  0
   35.2400   32.5830   38.2090 H   0  0  0  0  0  0  0  0  0  0  0  0
   35.6220   31.6810   36.2600 N   0  0  0  0  0  0  0  0  0  0  0  0
  1  9  1  0  0  0  0
  2  7  1  0  0  0  0
  2  1  2  0  0  0  0
  3  2  1  0  0  0  0
  4  3  2  0  0  0  0
  4  5  1  0  0  0  0
  5  6  2  0  0  0  0
  6  1  1  0  0  0  0
  8  3  1  0  0  0  0
  9 10  1  0  0  0  0
 10 15  1  0  0  0  0
 10 11  1  0  0  0  0
 11 16  1  1  0  0  0
 11 21  1  0  0  0  0
 12 18  1  0  0  0  0
 12 11  1  0  0  0  0
 13  9  1  0  0  0  0
 13 12  1  0  0  0  0
 14 10  1  0  0  0  0
 17 12  1  0  0  0  0
 19 13  1  0  0  0  0
 20 13  1  0  0  0  0
 21 24  1  0  0  0  0
 21 22  1  0  0  0  0
 23 21  1  0  0  0  0
 25  5  1  0  0  0  0
 25 26  1  0  0  0  0
 26 27  2  0  0  0  0
 26 30  1  0  0  0  0
 27 28  1  0  0  0  0
 28 32  1  0  0  0  0
 28 29  2  0  0  0  0
 29 33  1  0  0  0  0
 30 29  1  0  0  0  0
 31 27  1  0  0  0  0
 33 34  1  0  0  0  0
 33 40  2  0  0  0  0
 34 36  2  0  0  0  0
 35 34  1  0  0  0  0
 36 38  1  0  0  0  0
 36 37  1  0  0  0  0
 38 39  1  0  0  0  0
 40 38  1  0  0  0  0
M  END
>  <minimizedAffinity>
-6.22323847

$$$$

 OpenBabel03272503353D

 40 43  0  0  1  0  0  0  0  0999 V2000
   35.6010   30.2820   32.7150 C   0  0  0  0  0  0  0  0  0  0  0  0
   35.8760   30.8930   31.4820 C   0  0  0  0  0  0  0  0  0  0  0  0
   36.3900   30.0770   30.4710 C   0  0  0  0  0  0  0  0  0  0  0  0
   36.5880   28.7420   30.7610 N   0  0  0  0  0  0  0  0  0  0  0  0
   36.3110   28.2090   31.9490 C   0  0  0  0  0  0  0  0  0  0  0  0
   35.8180   28.9820   32.9240 N   0  0  0  0  0  0  0  0  0  0  0  0
   35.7160   31.9440   31.2630 H   0  0  0  0  0  0  0  0  0  0  0  0
   36.6340   30.4580   29.4870 H   0  0  0  0  0  0  0  0  0  0  0  0
   35.0710   31.1190   33.7540 N   0  0  0  0  0  0  0  0  0  0  0  0
   33.6950   31.3600   34.0540 C   0  0  0  0  0  0  0  0  0  0  0  0
   33.7280   31.6610   35.5500 C   0  0  2  0  0  0  0  0  0  0  0  0
   35.1670   31.4330   35.9950 C   0  0  0  0  0  0  0  0  0  0  0  0
   35.8470   31.8920   34.7150 C   0  0  0  0  0  0  0  0  0  0  0  0
   33.2460   32.2060   33.4960 H   0  0  0  0  0  0  0  0  0  0  0  0
   33.1320   30.4240   33.9250 H   0  0  0  0  0  0  0  0  0  0  0  0
   33.4870   32.7080   35.7750 H   0  0  0  0  0  0  0  0  0  0  0  0
   35.4040   30.3720   36.1610 H   0  0  0  0  0  0  0  0  0  0  0  0
   35.4270   32.0500   36.8670 H   0  0  0  0  0  0  0  0  0  0  0  0
   36.9090   31.5700   34.7160 H   0  0  0  0  0  0  0  0  0  0  0  0
   35.7300   32.9780   34.5740 H   0  0  0  0  0  0  0  0  0  0  0  0
   32.7570   30.8010   36.3240 C   0  0  0  0  0  0  0  0  0  0  0  0
   32.9510   29.5010   35.9020 F   0  0  0  0  0  0  0  0  0  0  0  0
   31.4870   31.1610   35.9200 F   0  0  0  0  0  0  0  0  0  0  0  0
   32.8910   30.9270   37.6800 F   0  0  0  0  0  0  0  0  0  0  0  0
   36.5910   26.4790   32.2580 S   0  0  0  0  0  0  0  0  0  0  0  0
   37.2680   26.0340   33.7270 C   0  0  0  0  0  0  0  0  0  0  0  0
   37.4300   26.4800   35.0060 C   0  0  0  0  0  0  0  0  0  0  0  0
   38.0780   25.8170   36.0030 C   0  0  0  0  0  0  0  0  0  0  0  0
   38.6170   24.5040   35.5550 C   0  0  0  0  0  0  0  0  0  0  0  0
   38.1430   24.3760   33.7990 S   0  0  0  0  0  0  0  0  0  0  0  0
   36.9750   27.4480   35.1500 H   0  0  0  0  0  0  0  0  0  0  0  0
   38.2120   26.1470   36.9930 H   0  0  0  0  0  0  0  0  0  0  0  0
   39.3410   23.6200   36.4270 C   0  0  0  0  0  0  0  0  0  0  0  0
   40.5090   22.9150   36.2990 C   0  0  0  0  0  0  0  0  0  0  0  0
   41.0330   23.0150   35.3610 H   0  0  0  0  0  0  0  0  0  0  0  0
   40.6660   22.2480   37.4970 C   0  0  0  0  0  0  0  0  0  0  0  0
   41.5420   21.6140   37.6280 H   0  0  0  0  0  0  0  0  0  0  0  0
   39.6270   22.5520   38.2960 N   0  0  0  0  0  0  0  0  0  0  0  0
   39.5690   22.1350   39.2640 H   0  0  0  0  0  0  0  0  0  0  0  0
   38.8180   23.3890   37.6450 N   0  0  0  0  0  0  0  0  0  0  0  0
  1  6  1  0  0  0  0
  1  9  1  0  0  0  0
  2  1  2  0  0  0  0
  3  4  2  0  0  0  0
  3  2  1  0  0  0  0
  4  5  1  0  0  0  0
  5 25  1  0  0  0  0
  5  6  2  0  0  0  0
  7  2  1  0  0  0  0
  8  3  1  0  0  0  0
  9 10  1  0  0  0  0
  9 13  1  0  0  0  0
 10 11  1  0  0  0  0
 11 16  1  1  0  0  0
 11 12  1  0  0  0  0
 11 21  1  0  0  0  0
 12 17  1  0  0  0  0
 12 18  1  0  0  0  0
 13 19  1  0  0  0  0
 13 12  1  0  0  0  0
 14 10  1  0  0  0  0
 15 10  1  0  0  0  0
 20 13  1  0  0  0  0
 21 24  1  0  0  0  0
 22 21  1  0  0  0  0
 23 21  1  0  0  0  0
 25 26  1  0  0  0  0
 26 30  1  0  0  0  0
 26 27  2  0  0  0  0
 27 31  1  0  0  0  0
 27 28  1  0  0  0  0
 28 32  1  0  0  0  0
 29 28  2  0  0  0  0
 29 33  1  0  0  0  0
 30 29  1  0  0  0  0
 33 40  2  0  0  0  0
 34 33  1  0  0  0  0
 34 36  2  0  0  0  0
 35 34  1  0  0  0  0
 36 37  1  0  0  0  0
 36 38  1  0  0  0  0
 38 39  1  0  0  0  0
 40 38  1  0  0  0  0
M  END
>  <minimizedAffinity>
-6.15240955

$$$$

 OpenBabel03272503353D

 40 43  0  0  1  0  0  0  0  0999 V2000
   35.8830   29.5480   32.1980 C   0  0  0  0  0  0  0  0  0  0  0  0
   36.0990   30.0330   30.8990 C   0  0  0  0  0  0  0  0  0  0  0  0
   36.8540   29.2290   30.0400 C   0  0  0  0  0  0  0  0  0  0  0  0
   37.3270   28.0290   30.5330 N   0  0  0  0  0  0  0  0  0  0  0  0
   37.0940   27.6130   31.7750 C   0  0  0  0  0  0  0  0  0  0  0  0
   36.3710   28.3750   32.6050 N   0  0  0  0  0  0  0  0  0  0  0  0
   35.7230   30.9780   30.5210 H   0  0  0  0  0  0  0  0  0  0  0  0
   37.0740   29.5190   29.0200 H   0  0  0  0  0  0  0  0  0  0  0  0
   35.1060   30.3710   33.0810 N   0  0  0  0  0  0  0  0  0  0  0  0
   34.9200   30.1960   34.4870 C   0  0  0  0  0  0  0  0  0  0  0  0
   34.6800   31.6240   34.9710 C   0  0  2  0  0  0  0  0  0  0  0  0
   34.8820   32.5210   33.7570 C   0  0  0  0  0  0  0  0  0  0  0  0
   34.3510   31.5590   32.7070 C   0  0  0  0  0  0  0  0  0  0  0  0
   34.0650   29.5440   34.7580 H   0  0  0  0  0  0  0  0  0  0  0  0
   35.8660   29.8580   34.9340 H   0  0  0  0  0  0  0  0  0  0  0  0
   33.6510   31.7840   35.3180 H   0  0  0  0  0  0  0  0  0  0  0  0
   35.9410   32.7270   33.5450 H   0  0  0  0  0  0  0  0  0  0  0  0
   34.2950   33.4470   33.8320 H   0  0  0  0  0  0  0  0  0  0  0  0
   34.6390   31.9090   31.6940 H   0  0  0  0  0  0  0  0  0  0  0  0
   33.2630   31.4180   32.8150 H   0  0  0  0  0  0  0  0  0  0  0  0
   35.6000   32.0000   36.1080 C   0  0  0  0  0  0  0  0  0  0  0  0
   36.6480   31.1010   36.0880 F   0  0  0  0  0  0  0  0  0  0  0  0
   34.9080   31.7710   37.2820 F   0  0  0  0  0  0  0  0  0  0  0  0
   36.0330   33.2960   36.0430 F   0  0  0  0  0  0  0  0  0  0  0  0
   37.7330   26.0540   32.3480 S   0  0  0  0  0  0  0  0  0  0  0  0
   36.8730   24.6610   31.9830 C   0  0  0  0  0  0  0  0  0  0  0  0
   35.8180   24.2230   31.2370 C   0  0  0  0  0  0  0  0  0  0  0  0
   35.3640   22.9400   31.1780 C   0  0  0  0  0  0  0  0  0  0  0  0
   36.1550   22.0180   32.0370 C   0  0  0  0  0  0  0  0  0  0  0  0
   37.4270   23.0710   32.8110 S   0  0  0  0  0  0  0  0  0  0  0  0
   35.3650   25.0270   30.6780 H   0  0  0  0  0  0  0  0  0  0  0  0
   34.5530   22.5870   30.6080 H   0  0  0  0  0  0  0  0  0  0  0  0
   35.8690   20.6130   32.1430 C   0  0  0  0  0  0  0  0  0  0  0  0
   35.5180   19.7970   33.1860 C   0  0  0  0  0  0  0  0  0  0  0  0
   35.4240   20.2650   34.1540 H   0  0  0  0  0  0  0  0  0  0  0  0
   35.3840   18.5390   32.6360 C   0  0  0  0  0  0  0  0  0  0  0  0
   35.1030   17.7130   33.2890 H   0  0  0  0  0  0  0  0  0  0  0  0
   35.6460   18.6170   31.3180 N   0  0  0  0  0  0  0  0  0  0  0  0
   35.5940   17.7480   30.7210 H   0  0  0  0  0  0  0  0  0  0  0  0
   35.9420   19.8810   31.0170 N   0  0  0  0  0  0  0  0  0  0  0  0
  1  6  1  0  0  0  0
  1  9  1  0  0  0  0
  2  1  2  0  0  0  0
  3  4  2  0  0  0  0
  3  2  1  0  0  0  0
  4  5  1  0  0  0  0
  5 25  1  0  0  0  0
  5  6  2  0  0  0  0
  7  2  1  0  0  0  0
  8  3  1  0  0  0  0
  9 10  1  0  0  0  0
 10 14  1  0  0  0  0
 10 15  1  0  0  0  0
 10 11  1  0  0  0  0
 11 16  1  1  0  0  0
 11 21  1  0  0  0  0
 12 18  1  0  0  0  0
 12 11  1  0  0  0  0
 13 20  1  0  0  0  0
 13  9  1  0  0  0  0
 13 12  1  0  0  0  0
 17 12  1  0  0  0  0
 19 13  1  0  0  0  0
 21 23  1  0  0  0  0
 22 21  1  0  0  0  0
 24 21  1  0  0  0  0
 26 25  1  0  0  0  0
 26 30  1  0  0  0  0
 27 26  2  0  0  0  0
 28 27  1  0  0  0  0
 28 29  2  0  0  0  0
 29 33  1  0  0  0  0
 29 30  1  0  0  0  0
 31 27  1  0  0  0  0
 32 28  1  0  0  0  0
 33 34  1  0  0  0  0
 34 35  1  0  0  0  0
 36 34  2  0  0  0  0
 36 37  1  0  0  0  0
 38 36  1  0  0  0  0
 39 38  1  0  0  0  0
 40 38  1  0  0  0  0
 40 33  2  0  0  0  0
M  END
>  <minimizedAffinity>
-6.0730257

$$$$

 OpenBabel03272503353D

 40 43  0  0  1  0  0  0  0  0999 V2000
   34.2600   29.7620   32.7690 C   0  0  0  0  0  0  0  0  0  0  0  0
   34.6210   30.7140   31.8040 C   0  0  0  0  0  0  0  0  0  0  0  0
   35.6530   30.3680   30.9270 C   0  0  0  0  0  0  0  0  0  0  0  0
   36.2350   29.1250   31.0780 N   0  0  0  0  0  0  0  0  0  0  0  0
   35.8560   28.2560   32.0110 C   0  0  0  0  0  0  0  0  0  0  0  0
   34.8690   28.5770   32.8550 N   0  0  0  0  0  0  0  0  0  0  0  0
   34.1570   31.6890   31.6930 H   0  0  0  0  0  0  0  0  0  0  0  0
   36.0010   31.0370   30.1500 H   0  0  0  0  0  0  0  0  0  0  0  0
   33.2000   30.1140   33.6690 N   0  0  0  0  0  0  0  0  0  0  0  0
   33.0250   29.6730   35.0180 C   0  0  0  0  0  0  0  0  0  0  0  0
   32.2640   30.8330   35.6520 C   0  0  2  0  0  0  0  0  0  0  0  0
   32.1820   31.9180   34.5870 C   0  0  0  0  0  0  0  0  0  0  0  0
   32.0830   31.0030   33.3770 C   0  0  0  0  0  0  0  0  0  0  0  0
   32.4530   28.7290   35.1190 H   0  0  0  0  0  0  0  0  0  0  0  0
   34.0080   29.6250   35.5080 H   0  0  0  0  0  0  0  0  0  0  0  0
   31.2320   30.5670   35.9150 H   0  0  0  0  0  0  0  0  0  0  0  0
   33.1040   32.5130   34.5060 H   0  0  0  0  0  0  0  0  0  0  0  0
   31.2970   32.5560   34.7200 H   0  0  0  0  0  0  0  0  0  0  0  0
   32.2710   31.5830   32.4490 H   0  0  0  0  0  0  0  0  0  0  0  0
   31.1170   30.4750   33.3600 H   0  0  0  0  0  0  0  0  0  0  0  0
   32.9320   31.3300   36.9120 C   0  0  0  0  0  0  0  0  0  0  0  0
   32.5500   32.6460   37.0750 F   0  0  0  0  0  0  0  0  0  0  0  0
   34.2920   31.3420   36.6710 F   0  0  0  0  0  0  0  0  0  0  0  0
   32.6390   30.5690   38.0110 F   0  0  0  0  0  0  0  0  0  0  0  0
   36.6490   26.6690   32.1520 S   0  0  0  0  0  0  0  0  0  0  0  0
   37.2590   26.2160   33.6480 C   0  0  0  0  0  0  0  0  0  0  0  0
   37.3670   26.6570   34.9340 C   0  0  0  0  0  0  0  0  0  0  0  0
   37.9670   25.9870   35.9570 C   0  0  0  0  0  0  0  0  0  0  0  0
   38.5190   24.6740   35.5280 C   0  0  0  0  0  0  0  0  0  0  0  0
   38.1230   24.5530   33.7520 S   0  0  0  0  0  0  0  0  0  0  0  0
   36.9100   27.6260   35.0620 H   0  0  0  0  0  0  0  0  0  0  0  0
   38.0580   26.3140   36.9530 H   0  0  0  0  0  0  0  0  0  0  0  0
   39.2000   23.7820   36.4280 C   0  0  0  0  0  0  0  0  0  0  0  0
   40.3800   23.0910   36.3590 C   0  0  0  0  0  0  0  0  0  0  0  0
   40.9560   23.2090   35.4540 H   0  0  0  0  0  0  0  0  0  0  0  0
   40.4740   22.4070   37.5540 C   0  0  0  0  0  0  0  0  0  0  0  0
   41.3480   21.7790   37.7260 H   0  0  0  0  0  0  0  0  0  0  0  0
   39.3880   22.6900   38.2950 N   0  0  0  0  0  0  0  0  0  0  0  0
   39.2780   22.2570   39.2520 H   0  0  0  0  0  0  0  0  0  0  0  0
   38.6100   23.5290   37.6100 N   0  0  0  0  0  0  0  0  0  0  0  0
  1  6  1  0  0  0  0
  1  9  1  0  0  0  0
  2  1  2  0  0  0  0
  3  4  2  0  0  0  0
  3  2  1  0  0  0  0
  4  5  1  0  0  0  0
  5 25  1  0  0  0  0
  5  6  2  0  0  0  0
  7  2  1  0  0  0  0
  8  3  1  0  0  0  0
  9 10  1  0  0  0  0
 10 14  1  0  0  0  0
 10 15  1  0  0  0  0
 10 11  1  0  0  0  0
 11 16  1  1  0  0  0
 11 21  1  0  0  0  0
 12 18  1  0  0  0  0
 12 11  1  0  0  0  0
 13  9  1  0  0  0  0
 13 12  1  0  0  0  0
 17 12  1  0  0  0  0
 19 13  1  0  0  0  0
 20 13  1  0  0  0  0
 21 22  1  0  0  0  0
 21 24  1  0  0  0  0
 23 21  1  0  0  0  0
 25 26  1  0  0  0  0
 26 30  1  0  0  0  0
 26 27  2  0  0  0  0
 27 31  1  0  0  0  0
 27 28  1  0  0  0  0
 28 32  1  0  0  0  0
 29 28  2  0  0  0  0
 29 33  1  0  0  0  0
 30 29  1  0  0  0  0
 33 40  2  0  0  0  0
 34 33  1  0  0  0  0
 34 36  2  0  0  0  0
 35 34  1  0  0  0  0
 36 37  1  0  0  0  0
 36 38  1  0  0  0  0
 38 39  1  0  0  0  0
 40 38  1  0  0  0  0
M  END
>  <minimizedAffinity>
-6.05103683

$$$$

 OpenBabel03272503353D

 40 43  0  0  1  0  0  0  0  0999 V2000
   35.5770   29.9990   31.8750 C   0  0  0  0  0  0  0  0  0  0  0  0
   35.8370   30.6970   30.6870 C   0  0  0  0  0  0  0  0  0  0  0  0
   36.9030   30.2440   29.9050 C   0  0  0  0  0  0  0  0  0  0  0  0
   37.6140   29.1510   30.3600 N   0  0  0  0  0  0  0  0  0  0  0  0
   37.3270   28.5210   31.4970 C   0  0  0  0  0  0  0  0  0  0  0  0
   36.3080   28.9470   32.2520 N   0  0  0  0  0  0  0  0  0  0  0  0
   35.2720   31.5560   30.3380 H   0  0  0  0  0  0  0  0  0  0  0  0
   37.1800   30.7190   28.9730 H   0  0  0  0  0  0  0  0  0  0  0  0
   34.4820   30.4620   32.6790 N   0  0  0  0  0  0  0  0  0  0  0  0
   33.0900   30.4210   32.3540 C   0  0  0  0  0  0  0  0  0  0  0  0
   32.4300   30.3380   33.7280 C   0  0  2  0  0  0  0  0  0  0  0  0
   33.5650   30.2140   34.7350 C   0  0  0  0  0  0  0  0  0  0  0  0
   34.5810   31.0720   33.9980 C   0  0  0  0  0  0  0  0  0  0  0  0
   32.7240   31.3070   31.7980 H   0  0  0  0  0  0  0  0  0  0  0  0
   32.8730   29.4770   31.8340 H   0  0  0  0  0  0  0  0  0  0  0  0
   31.8740   31.2490   33.9840 H   0  0  0  0  0  0  0  0  0  0  0  0
   33.9590   29.1910   34.8170 H   0  0  0  0  0  0  0  0  0  0  0  0
   33.2850   30.6220   35.7170 H   0  0  0  0  0  0  0  0  0  0  0  0
   35.5910   30.9160   34.4310 H   0  0  0  0  0  0  0  0  0  0  0  0
   34.2770   32.1310   33.9980 H   0  0  0  0  0  0  0  0  0  0  0  0
   31.4630   29.1810   33.8240 C   0  0  0  0  0  0  0  0  0  0  0  0
   31.7000   28.5630   35.0350 F   0  0  0  0  0  0  0  0  0  0  0  0
   31.8160   28.2750   32.8430 F   0  0  0  0  0  0  0  0  0  0  0  0
   30.1560   29.5620   33.6880 F   0  0  0  0  0  0  0  0  0  0  0  0
   38.2830   27.1170   32.0260 S   0  0  0  0  0  0  0  0  0  0  0  0
   38.3320   26.7610   33.6640 C   0  0  0  0  0  0  0  0  0  0  0  0
   38.3220   27.3640   34.8880 C   0  0  0  0  0  0  0  0  0  0  0  0
   38.3800   26.7250   36.0890 C   0  0  0  0  0  0  0  0  0  0  0  0
   38.4590   25.2470   35.9430 C   0  0  0  0  0  0  0  0  0  0  0  0
   38.4400   24.9500   34.1450 S   0  0  0  0  0  0  0  0  0  0  0  0
   38.2610   28.4380   34.8010 H   0  0  0  0  0  0  0  0  0  0  0  0
   38.3740   27.1760   37.0400 H   0  0  0  0  0  0  0  0  0  0  0  0
   38.5290   24.3550   37.0690 C   0  0  0  0  0  0  0  0  0  0  0  0
   37.8980   24.3170   38.2840 C   0  0  0  0  0  0  0  0  0  0  0  0
   37.1880   25.1040   38.4830 H   0  0  0  0  0  0  0  0  0  0  0  0
   38.4030   23.2030   38.9230 C   0  0  0  0  0  0  0  0  0  0  0  0
   38.0390   22.9670   39.9230 H   0  0  0  0  0  0  0  0  0  0  0  0
   39.2970   22.6100   38.1100 N   0  0  0  0  0  0  0  0  0  0  0  0
   39.7940   21.7350   38.4260 H   0  0  0  0  0  0  0  0  0  0  0  0
   39.3750   23.3120   36.9790 N   0  0  0  0  0  0  0  0  0  0  0  0
  1  6  1  0  0  0  0
  1  9  1  0  0  0  0
  2  1  2  0  0  0  0
  3  4  2  0  0  0  0
  3  2  1  0  0  0  0
  4  5  1  0  0  0  0
  5 25  1  0  0  0  0
  5  6  2  0  0  0  0
  7  2  1  0  0  0  0
  8  3  1  0  0  0  0
  9 13  1  0  0  0  0
 10  9  1  0  0  0  0
 10 11  1  0  0  0  0
 11 21  1  0  0  0  0
 11 16  1  1  0  0  0
 11 12  1  0  0  0  0
 12 17  1  0  0  0  0
 12 18  1  0  0  0  0
 13 19  1  0  0  0  0
 13 12  1  0  0  0  0
 14 10  1  0  0  0  0
 15 10  1  0  0  0  0
 20 13  1  0  0  0  0
 21 22  1  0  0  0  0
 23 21  1  0  0  0  0
 24 21  1  0  0  0  0
 25 26  1  0  0  0  0
 26 30  1  0  0  0  0
 26 27  2  0  0  0  0
 27 28  1  0  0  0  0
 28 32  1  0  0  0  0
 29 28  2  0  0  0  0
 29 33  1  0  0  0  0
 30 29  1  0  0  0  0
 31 27  1  0  0  0  0
 33 34  1  0  0  0  0
 34 35  1  0  0  0  0
 34 36  2  0  0  0  0
 36 37  1  0  0  0  0
 38 39  1  0  0  0  0
 38 36  1  0  0  0  0
 40 33  2  0  0  0  0
 40 38  1  0  0  0  0
M  END
>  <minimizedAffinity>
-5.93870258

$$$$

 OpenBabel03272503353D

 40 43  0  0  1  0  0  0  0  0999 V2000
   34.5900   29.7830   32.5840 C   0  0  0  0  0  0  0  0  0  0  0  0
   35.1210   30.7980   31.7750 C   0  0  0  0  0  0  0  0  0  0  0  0
   36.2830   30.4960   31.0590 C   0  0  0  0  0  0  0  0  0  0  0  0
   36.8150   29.2300   31.2020 N   0  0  0  0  0  0  0  0  0  0  0  0
   36.2720   28.3000   31.9840 C   0  0  0  0  0  0  0  0  0  0  0  0
   35.1600   28.5790   32.6730 N   0  0  0  0  0  0  0  0  0  0  0  0
   34.6950   31.7910   31.6690 H   0  0  0  0  0  0  0  0  0  0  0  0
   36.7660   31.2150   30.4100 H   0  0  0  0  0  0  0  0  0  0  0  0
   33.3960   30.0910   33.3190 N   0  0  0  0  0  0  0  0  0  0  0  0
   32.0710   29.6220   33.0550 C   0  0  0  0  0  0  0  0  0  0  0  0
   31.4310   29.6390   34.4410 C   0  0  2  0  0  0  0  0  0  0  0  0
   32.5390   30.0180   35.4140 C   0  0  0  0  0  0  0  0  0  0  0  0
   33.3060   30.9510   34.4910 C   0  0  0  0  0  0  0  0  0  0  0  0
   31.4940   30.2540   32.3510 H   0  0  0  0  0  0  0  0  0  0  0  0
   32.1210   28.5710   32.7360 H   0  0  0  0  0  0  0  0  0  0  0  0
   30.6490   30.4040   34.5340 H   0  0  0  0  0  0  0  0  0  0  0  0
   33.1880   29.1710   35.6790 H   0  0  0  0  0  0  0  0  0  0  0  0
   32.1430   30.5230   36.3070 H   0  0  0  0  0  0  0  0  0  0  0  0
   34.3130   31.1540   34.9110 H   0  0  0  0  0  0  0  0  0  0  0  0
   32.7330   31.8710   34.2950 H   0  0  0  0  0  0  0  0  0  0  0  0
   30.8020   28.3120   34.7920 C   0  0  0  0  0  0  0  0  0  0  0  0
   29.4970   28.5730   35.1580 F   0  0  0  0  0  0  0  0  0  0  0  0
   31.4430   27.8460   35.9230 F   0  0  0  0  0  0  0  0  0  0  0  0
   30.8780   27.3970   33.7780 F   0  0  0  0  0  0  0  0  0  0  0  0
   37.0090   26.6860   32.1240 S   0  0  0  0  0  0  0  0  0  0  0  0
   37.5320   26.1810   33.6350 C   0  0  0  0  0  0  0  0  0  0  0  0
   37.5280   26.5570   34.9470 C   0  0  0  0  0  0  0  0  0  0  0  0
   38.0860   25.8610   35.9760 C   0  0  0  0  0  0  0  0  0  0  0  0
   38.7300   24.5980   35.5230 C   0  0  0  0  0  0  0  0  0  0  0  0
   38.4660   24.5550   33.7200 S   0  0  0  0  0  0  0  0  0  0  0  0
   37.0170   27.4970   35.0890 H   0  0  0  0  0  0  0  0  0  0  0  0
   38.0900   26.1370   36.9910 H   0  0  0  0  0  0  0  0  0  0  0  0
   39.3870   23.6910   36.4250 C   0  0  0  0  0  0  0  0  0  0  0  0
   40.5780   23.0150   36.3820 C   0  0  0  0  0  0  0  0  0  0  0  0
   41.1860   23.1650   35.5040 H   0  0  0  0  0  0  0  0  0  0  0  0
   40.6350   22.3010   37.5620 C   0  0  0  0  0  0  0  0  0  0  0  0
   41.5090   21.6780   37.7510 H   0  0  0  0  0  0  0  0  0  0  0  0
   39.5170   22.5510   38.2690 N   0  0  0  0  0  0  0  0  0  0  0  0
   39.3770   22.0920   39.2080 H   0  0  0  0  0  0  0  0  0  0  0  0
   38.7560   23.3990   37.5770 N   0  0  0  0  0  0  0  0  0  0  0  0
  1  6  1  0  0  0  0
  1  9  1  0  0  0  0
  2  1  2  0  0  0  0
  3  4  2  0  0  0  0
  3  2  1  0  0  0  0
  4  5  1  0  0  0  0
  5 25  1  0  0  0  0
  5  6  2  0  0  0  0
  7  2  1  0  0  0  0
  8  3  1  0  0  0  0
  9 13  1  0  0  0  0
 10  9  1  0  0  0  0
 10 11  1  0  0  0  0
 11 16  1  1  0  0  0
 11 21  1  0  0  0  0
 11 12  1  0  0  0  0
 12 17  1  0  0  0  0
 12 18  1  0  0  0  0
 13 19  1  0  0  0  0
 13 12  1  0  0  0  0
 14 10  1  0  0  0  0
 15 10  1  0  0  0  0
 20 13  1  0  0  0  0
 21 22  1  0  0  0  0
 21 23  1  0  0  0  0
 24 21  1  0  0  0  0
 25 26  1  0  0  0  0
 26 30  1  0  0  0  0
 26 27  2  0  0  0  0
 27 31  1  0  0  0  0
 27 28  1  0  0  0  0
 28 32  1  0  0  0  0
 29 28  2  0  0  0  0
 29 33  1  0  0  0  0
 30 29  1  0  0  0  0
 33 40  2  0  0  0  0
 34 33  1  0  0  0  0
 34 36  2  0  0  0  0
 35 34  1  0  0  0  0
 36 37  1  0  0  0  0
 36 38  1  0  0  0  0
 38 39  1  0  0  0  0
 40 38  1  0  0  0  0
M  END
>  <minimizedAffinity>
-5.93044424

$$$$

 OpenBabel03272503353D

 40 43  0  0  1  0  0  0  0  0999 V2000
   37.7400   24.3310   32.9310 C   0  0  0  0  0  0  0  0  0  0  0  0
   38.7250   24.7670   33.8290 C   0  0  0  0  0  0  0  0  0  0  0  0
   38.8060   26.1430   34.0620 C   0  0  0  0  0  0  0  0  0  0  0  0
   37.9170   26.9610   33.3940 N   0  0  0  0  0  0  0  0  0  0  0  0
   36.9980   26.4970   32.5510 C   0  0  0  0  0  0  0  0  0  0  0  0
   36.9120   25.1820   32.3210 N   0  0  0  0  0  0  0  0  0  0  0  0
   39.4200   24.1160   34.3490 H   0  0  0  0  0  0  0  0  0  0  0  0
   39.5350   26.5740   34.7370 H   0  0  0  0  0  0  0  0  0  0  0  0
   37.6540   22.9180   32.6920 N   0  0  0  0  0  0  0  0  0  0  0  0
   37.4770   21.8840   33.6630 C   0  0  0  0  0  0  0  0  0  0  0  0
   36.7630   20.7970   32.8640 C   0  0  2  0  0  0  0  0  0  0  0  0
   36.4860   21.3940   31.4910 C   0  0  0  0  0  0  0  0  0  0  0  0
   37.7320   22.2600   31.3950 C   0  0  0  0  0  0  0  0  0  0  0  0
   38.4210   21.4950   34.0940 H   0  0  0  0  0  0  0  0  0  0  0  0
   36.7740   22.2340   34.4330 H   0  0  0  0  0  0  0  0  0  0  0  0
   37.3900   19.9100   32.7060 H   0  0  0  0  0  0  0  0  0  0  0  0
   35.6000   22.0450   31.4750 H   0  0  0  0  0  0  0  0  0  0  0  0
   36.4370   20.6190   30.7120 H   0  0  0  0  0  0  0  0  0  0  0  0
   37.6180   22.9940   30.5710 H   0  0  0  0  0  0  0  0  0  0  0  0
   38.6370   21.6400   31.2900 H   0  0  0  0  0  0  0  0  0  0  0  0
   35.4960   20.3340   33.5430 C   0  0  0  0  0  0  0  0  0  0  0  0
   35.4740   18.9560   33.4510 F   0  0  0  0  0  0  0  0  0  0  0  0
   34.4380   20.7960   32.7850 F   0  0  0  0  0  0  0  0  0  0  0  0
   35.3920   20.7640   34.8380 F   0  0  0  0  0  0  0  0  0  0  0  0
   35.8810   27.6070   31.7210 S   0  0  0  0  0  0  0  0  0  0  0  0
   34.9600   28.6520   32.6560 C   0  0  0  0  0  0  0  0  0  0  0  0
   33.7090   29.1920   32.7350 C   0  0  0  0  0  0  0  0  0  0  0  0
   33.2790   30.0640   33.6880 C   0  0  0  0  0  0  0  0  0  0  0  0
   34.3400   30.3910   34.6790 C   0  0  0  0  0  0  0  0  0  0  0  0
   35.7950   29.4330   34.1440 S   0  0  0  0  0  0  0  0  0  0  0  0
   33.0740   28.8420   31.9360 H   0  0  0  0  0  0  0  0  0  0  0  0
   32.3190   30.4890   33.7620 H   0  0  0  0  0  0  0  0  0  0  0  0
   34.1270   31.2900   35.7810 C   0  0  0  0  0  0  0  0  0  0  0  0
   33.0270   31.9500   36.2620 C   0  0  0  0  0  0  0  0  0  0  0  0
   32.1000   31.7910   35.7330 H   0  0  0  0  0  0  0  0  0  0  0  0
   33.4770   32.6650   37.3520 C   0  0  0  0  0  0  0  0  0  0  0  0
   32.7640   33.2760   37.9050 H   0  0  0  0  0  0  0  0  0  0  0  0
   34.7940   32.4310   37.5040 N   0  0  0  0  0  0  0  0  0  0  0  0
   35.3220   32.8940   38.2920 H   0  0  0  0  0  0  0  0  0  0  0  0
   35.1910   31.5930   36.5460 N   0  0  0  0  0  0  0  0  0  0  0  0
  1  2  1  0  0  0  0
  2  3  2  0  0  0  0
  2  7  1  0  0  0  0
  3  8  1  0  0  0  0
  4  3  1  0  0  0  0
  5  4  2  0  0  0  0
  6  5  1  0  0  0  0
  6  1  2  0  0  0  0
  9  1  1  0  0  0  0
  9 10  1  0  0  0  0
 10 14  1  0  0  0  0
 10 15  1  0  0  0  0
 11 16  1  6  0  0  0
 11 21  1  0  0  0  0
 11 10  1  0  0  0  0
 12 11  1  0  0  0  0
 13 12  1  0  0  0  0
 13  9  1  0  0  0  0
 17 12  1  0  0  0  0
 18 12  1  0  0  0  0
 19 13  1  0  0  0  0
 20 13  1  0  0  0  0
 21 24  1  0  0  0  0
 22 21  1  0  0  0  0
 23 21  1  0  0  0  0
 25  5  1  0  0  0  0
 25 26  1  0  0  0  0
 26 27  2  0  0  0  0
 26 30  1  0  0  0  0
 27 28  1  0  0  0  0
 28 32  1  0  0  0  0
 28 29  2  0  0  0  0
 29 33  1  0  0  0  0
 30 29  1  0  0  0  0
 31 27  1  0  0  0  0
 33 34  1  0  0  0  0
 33 40  2  0  0  0  0
 34 36  2  0  0  0  0
 35 34  1  0  0  0  0
 36 38  1  0  0  0  0
 36 37  1  0  0  0  0
 38 39  1  0  0  0  0
 40 38  1  0  0  0  0
M  END
>  <minimizedAffinity>
-5.92990589

$$$$

 OpenBabel03272503353D

 40 43  0  0  1  0  0  0  0  0999 V2000
   37.2720   28.2820   31.5450 C   0  0  0  0  0  0  0  0  0  0  0  0
   37.8360   28.5490   30.2890 C   0  0  0  0  0  0  0  0  0  0  0  0
   37.3180   29.6360   29.5790 C   0  0  0  0  0  0  0  0  0  0  0  0
   36.2960   30.3570   30.1640 N   0  0  0  0  0  0  0  0  0  0  0  0
   35.7950   30.0630   31.3610 C   0  0  0  0  0  0  0  0  0  0  0  0
   36.2840   29.0250   32.0490 N   0  0  0  0  0  0  0  0  0  0  0  0
   38.6400   27.9760   29.8370 H   0  0  0  0  0  0  0  0  0  0  0  0
   37.6880   29.9190   28.6020 H   0  0  0  0  0  0  0  0  0  0  0  0
   37.8040   27.1670   32.2760 N   0  0  0  0  0  0  0  0  0  0  0  0
   39.1800   26.8200   32.4450 C   0  0  0  0  0  0  0  0  0  0  0  0
   39.1780   26.0950   33.7890 C   0  0  2  0  0  0  0  0  0  0  0  0
   37.7600   26.2140   34.3300 C   0  0  0  0  0  0  0  0  0  0  0  0
   37.0320   26.1640   32.9960 C   0  0  0  0  0  0  0  0  0  0  0  0
   39.5880   26.1640   31.6490 H   0  0  0  0  0  0  0  0  0  0  0  0
   39.7680   27.7400   32.5750 H   0  0  0  0  0  0  0  0  0  0  0  0
   39.3940   25.0240   33.6900 H   0  0  0  0  0  0  0  0  0  0  0  0
   37.5600   27.1850   34.8070 H   0  0  0  0  0  0  0  0  0  0  0  0
   37.5050   25.3750   34.9930 H   0  0  0  0  0  0  0  0  0  0  0  0
   35.9800   26.4930   33.1280 H   0  0  0  0  0  0  0  0  0  0  0  0
   37.1110   25.1640   32.5410 H   0  0  0  0  0  0  0  0  0  0  0  0
   40.1960   26.6700   34.7450 C   0  0  0  0  0  0  0  0  0  0  0  0
   40.8400   25.6000   35.3340 F   0  0  0  0  0  0  0  0  0  0  0  0
   39.4940   27.3090   35.7490 F   0  0  0  0  0  0  0  0  0  0  0  0
   41.0740   27.5300   34.1420 F   0  0  0  0  0  0  0  0  0  0  0  0
   34.4770   31.0340   32.0590 S   0  0  0  0  0  0  0  0  0  0  0  0
   33.2920   30.2450   32.9450 C   0  0  0  0  0  0  0  0  0  0  0  0
   32.0180   29.7680   32.8370 C   0  0  0  0  0  0  0  0  0  0  0  0
   31.3160   29.1420   33.8220 C   0  0  0  0  0  0  0  0  0  0  0  0
   32.0970   29.0200   35.0830 C   0  0  0  0  0  0  0  0  0  0  0  0
   33.7060   29.7950   34.7190 S   0  0  0  0  0  0  0  0  0  0  0  0
   31.6100   29.9440   31.8530 H   0  0  0  0  0  0  0  0  0  0  0  0
   30.3350   28.7700   33.7540 H   0  0  0  0  0  0  0  0  0  0  0  0
   31.5710   28.3960   36.2670 C   0  0  0  0  0  0  0  0  0  0  0  0
   30.8530   27.2510   36.4920 C   0  0  0  0  0  0  0  0  0  0  0  0
   30.6070   26.6580   35.6240 H   0  0  0  0  0  0  0  0  0  0  0  0
   30.6520   27.2060   37.8560 C   0  0  0  0  0  0  0  0  0  0  0  0
   30.0950   26.3670   38.2730 H   0  0  0  0  0  0  0  0  0  0  0  0
   31.2330   28.2870   38.4100 N   0  0  0  0  0  0  0  0  0  0  0  0
   31.1860   28.4300   39.4540 H   0  0  0  0  0  0  0  0  0  0  0  0
   31.7930   29.0130   37.4420 N   0  0  0  0  0  0  0  0  0  0  0  0
  1  6  1  0  0  0  0
  1  9  1  0  0  0  0
  2  1  2  0  0  0  0
  3  4  2  0  0  0  0
  3  2  1  0  0  0  0
  4  5  1  0  0  0  0
  5  6  2  0  0  0  0
  5 25  1  0  0  0  0
  7  2  1  0  0  0  0
  8  3  1  0  0  0  0
  9 10  1  0  0  0  0
  9 13  1  0  0  0  0
 10 15  1  0  0  0  0
 10 11  1  0  0  0  0
 11 16  1  6  0  0  0
 11 12  1  0  0  0  0
 11 21  1  0  0  0  0
 12 17  1  0  0  0  0
 12 18  1  0  0  0  0
 13 19  1  0  0  0  0
 13 12  1  0  0  0  0
 14 10  1  0  0  0  0
 20 13  1  0  0  0  0
 21 22  1  0  0  0  0
 21 23  1  0  0  0  0
 24 21  1  0  0  0  0
 25 26  1  0  0  0  0
 26 30  1  0  0  0  0
 27 26  2  0  0  0  0
 27 28  1  0  0  0  0
 28 29  2  0  0  0  0
 29 33  1  0  0  0  0
 30 29  1  0  0  0  0
 31 27  1  0  0  0  0
 32 28  1  0  0  0  0
 33 34  1  0  0  0  0
 33 40  2  0  0  0  0
 34 36  2  0  0  0  0
 35 34  1  0  0  0  0
 36 37  1  0  0  0  0
 36 38  1  0  0  0  0
 38 39  1  0  0  0  0
 40 38  1  0  0  0  0
M  END
>  <minimizedAffinity>
-5.7785449

$$$$
