
 OpenBabel03272510253D

 44 48  0  0  1  0  0  0  0  0999 V2000
   35.7790   30.1220   46.9730 C   0  0  0  0  0  0  0  0  0  0  0  0
   36.8200   30.5730   47.7810 C   0  0  0  0  0  0  0  0  0  0  0  0
   37.8680   31.3040   47.2470 C   0  0  0  0  0  0  0  0  0  0  0  0
   37.8290   31.5610   45.8820 C   0  0  0  0  0  0  0  0  0  0  0  0
   38.7400   32.2510   45.1370 N   0  0  0  0  0  0  0  0  0  0  0  0
   38.2740   32.2330   43.8710 C   0  0  0  0  0  0  0  0  0  0  0  0
   37.1390   31.5740   43.8060 N   0  0  0  0  0  0  0  0  0  0  0  0
   36.8120   31.1280   45.0460 C   0  0  0  0  0  0  0  0  0  0  0  0
   35.7630   30.3920   45.6100 C   0  0  0  0  0  0  0  0  0  0  0  0
   34.9420   29.5480   47.3530 H   0  0  0  0  0  0  0  0  0  0  0  0
   38.6710   31.6500   47.8800 H   0  0  0  0  0  0  0  0  0  0  0  0
   39.6210   32.7010   45.4910 H   0  0  0  0  0  0  0  0  0  0  0  0
   34.9770   30.0630   44.9450 H   0  0  0  0  0  0  0  0  0  0  0  0
   37.5610   30.1430   51.4370 C   0  0  0  0  0  0  0  0  0  0  0  0
   37.7400   30.5220   50.1080 C   0  0  0  0  0  0  0  0  0  0  0  0
   36.7430   30.2320   49.1830 C   0  0  0  0  0  0  0  0  0  0  0  0
   35.6370   29.5850   49.6440 N   0  0  0  0  0  0  0  0  0  0  0  0
   35.4670   29.2220   50.9230 C   0  0  0  0  0  0  0  0  0  0  0  0
   36.4150   29.4980   51.8040 N   0  0  0  0  0  0  0  0  0  0  0  0
   38.3860   30.4070   52.0880 H   0  0  0  0  0  0  0  0  0  0  0  0
   38.6180   31.0260   49.7770 H   0  0  0  0  0  0  0  0  0  0  0  0
   34.5670   28.7120   51.2280 H   0  0  0  0  0  0  0  0  0  0  0  0
   38.9710   32.8590   42.8290 O   0  0  0  0  0  0  0  0  0  0  0  0
   39.4540   30.6500   42.5100 N   0  0  0  0  0  0  0  0  0  0  0  0
   39.7160   32.0020   41.9740 C   0  0  1  0  0  0  0  0  0  0  0  0
   39.2480   32.0560   40.5940 C   0  0  0  0  0  0  0  0  0  0  0  0
   40.0240   31.1700   39.8240 O   0  0  0  0  0  0  0  0  0  0  0  0
   40.0450   29.8820   40.2650 C   0  0  0  0  0  0  0  0  0  0  0  0
   40.3050   29.7660   41.7460 C   0  0  2  0  0  0  0  0  0  0  0  0
   39.8370   30.6730   43.4810 H   0  0  0  0  0  0  0  0  0  0  0  0
   40.7990   32.2100   42.0080 H   0  0  0  0  0  0  0  0  0  0  0  0
   39.5460   33.0690   40.1810 H   0  0  0  0  0  0  0  0  0  0  0  0
   38.2590   31.8820   40.2720 H   0  0  0  0  0  0  0  0  0  0  0  0
   39.0440   29.3950   40.0870 H   0  0  0  0  0  0  0  0  0  0  0  0
   40.8460   29.3490   39.7560 H   0  0  0  0  0  0  0  0  0  0  0  0
   41.3820   29.9010   41.9920 H   0  0  0  0  0  0  0  0  0  0  0  0
   39.8830   28.3670   42.1170 C   0  0  0  0  0  0  0  0  0  0  0  0
   39.1660   27.9120   43.2170 C   0  0  0  0  0  0  0  0  0  0  0  0
   38.8380   28.6620   43.9500 H   0  0  0  0  0  0  0  0  0  0  0  0
   39.0400   26.5320   43.0950 C   0  0  0  0  0  0  0  0  0  0  0  0
   38.5030   25.9870   43.8660 H   0  0  0  0  0  0  0  0  0  0  0  0
   39.6590   26.1760   41.9630 N   0  0  0  0  0  0  0  0  0  0  0  0
   39.7020   25.1810   41.6510 H   0  0  0  0  0  0  0  0  0  0  0  0
   40.1630   27.2630   41.3800 N   0  0  0  0  0  0  0  0  0  0  0  0
  1 10  1  0  0  0  0
  1  2  1  0  0  0  0
  2 16  1  0  0  0  0
  3  2  2  0  0  0  0
  3 11  1  0  0  0  0
  4  3  1  0  0  0  0
  5 12  1  0  0  0  0
  5  4  1  0  0  0  0
  6  5  1  0  0  0  0
  7  6  2  0  0  0  0
  7  8  1  0  0  0  0
  8  9  1  0  0  0  0
  8  4  2  0  0  0  0
  9  1  2  0  0  0  0
 13  9  1  0  0  0  0
 14 19  1  0  0  0  0
 14 20  1  0  0  0  0
 15 14  2  0  0  0  0
 16 17  2  0  0  0  0
 16 15  1  0  0  0  0
 17 18  1  0  0  0  0
 18 22  1  0  0  0  0
 18 19  2  0  0  0  0
 21 15  1  0  0  0  0
 23  6  1  0  0  0  0
 24 30  1  0  0  0  0
 25 31  1  1  0  0  0
 25 24  1  0  0  0  0
 25 23  1  0  0  0  0
 26 25  1  0  0  0  0
 27 28  1  0  0  0  0
 27 26  1  0  0  0  0
 28 29  1  0  0  0  0
 29 36  1  1  0  0  0
 29 37  1  0  0  0  0
 29 24  1  0  0  0  0
 32 26  1  0  0  0  0
 33 26  1  0  0  0  0
 34 28  1  0  0  0  0
 35 28  1  0  0  0  0
 37 38  1  0  0  0  0
 38 39  1  0  0  0  0
 40 38  2  0  0  0  0
 40 41  1  0  0  0  0
 42 40  1  0  0  0  0
 43 42  1  0  0  0  0
 44 42  1  0  0  0  0
 44 37  2  0  0  0  0
M  END
>  <minimizedAffinity>
-6.12863064

>  <minimizedRMSD>
1.72918487

$$$$
