
 OpenBabel03272510253D

 44 48  0  0  1  0  0  0  0  0999 V2000
   36.0770   30.1930   46.8130 C   0  0  0  0  0  0  0  0  0  0  0  0
   36.9910   30.7490   47.7050 C   0  0  0  0  0  0  0  0  0  0  0  0
   37.9710   31.6230   47.2650 C   0  0  0  0  0  0  0  0  0  0  0  0
   37.9960   31.9130   45.9060 C   0  0  0  0  0  0  0  0  0  0  0  0
   38.8600   32.7350   45.2450 N   0  0  0  0  0  0  0  0  0  0  0  0
   38.4920   32.6950   43.9480 C   0  0  0  0  0  0  0  0  0  0  0  0
   37.4590   31.8990   43.7850 N   0  0  0  0  0  0  0  0  0  0  0  0
   37.1050   31.3790   44.9890 C   0  0  0  0  0  0  0  0  0  0  0  0
   36.1220   30.4990   45.4580 C   0  0  0  0  0  0  0  0  0  0  0  0
   35.2960   29.5060   47.1180 H   0  0  0  0  0  0  0  0  0  0  0  0
   38.6760   32.0490   47.9620 H   0  0  0  0  0  0  0  0  0  0  0  0
   39.6480   33.2830   45.6720 H   0  0  0  0  0  0  0  0  0  0  0  0
   35.4340   30.0920   44.7310 H   0  0  0  0  0  0  0  0  0  0  0  0
   37.5810   30.2090   51.3740 C   0  0  0  0  0  0  0  0  0  0  0  0
   37.8100   30.6350   50.0670 C   0  0  0  0  0  0  0  0  0  0  0  0
   36.8600   30.3590   49.0910 C   0  0  0  0  0  0  0  0  0  0  0  0
   35.7460   29.6800   49.4810 N   0  0  0  0  0  0  0  0  0  0  0  0
   35.5280   29.2710   50.7390 C   0  0  0  0  0  0  0  0  0  0  0  0
   36.4320   29.5330   51.6690 N   0  0  0  0  0  0  0  0  0  0  0  0
   38.3720   30.4640   52.0690 H   0  0  0  0  0  0  0  0  0  0  0  0
   38.6920   31.1640   49.7910 H   0  0  0  0  0  0  0  0  0  0  0  0
   34.6250   28.7360   50.9880 H   0  0  0  0  0  0  0  0  0  0  0  0
   39.1740   33.4350   42.9730 O   0  0  0  0  0  0  0  0  0  0  0  0
   39.6430   31.3580   42.1500 N   0  0  0  0  0  0  0  0  0  0  0  0
   39.4320   32.7640   41.7470 C   0  0  1  0  0  0  0  0  0  0  0  0
   38.2950   32.8220   40.8360 C   0  0  0  0  0  0  0  0  0  0  0  0
   38.6280   32.1210   39.6610 O   0  0  0  0  0  0  0  0  0  0  0  0
   39.0190   30.8300   39.8450 C   0  0  0  0  0  0  0  0  0  0  0  0
   40.0420   30.6710   40.9420 C   0  0  2  0  0  0  0  0  0  0  0  0
   40.4810   31.3850   42.7720 H   0  0  0  0  0  0  0  0  0  0  0  0
   40.3350   33.1440   41.2400 H   0  0  0  0  0  0  0  0  0  0  0  0
   38.2160   33.8930   40.4710 H   0  0  0  0  0  0  0  0  0  0  0  0
   37.3130   32.5080   41.0550 H   0  0  0  0  0  0  0  0  0  0  0  0
   38.1370   30.1980   40.1510 H   0  0  0  0  0  0  0  0  0  0  0  0
   39.4750   30.4660   38.9260 H   0  0  0  0  0  0  0  0  0  0  0  0
   41.0620   30.9660   40.6070 H   0  0  0  0  0  0  0  0  0  0  0  0
   40.0360   29.2030   41.2820 C   0  0  0  0  0  0  0  0  0  0  0  0
   39.5810   28.1150   40.5460 C   0  0  0  0  0  0  0  0  0  0  0  0
   39.1540   28.3200   39.5570 H   0  0  0  0  0  0  0  0  0  0  0  0
   39.8020   26.9710   41.3070 C   0  0  0  0  0  0  0  0  0  0  0  0
   39.5090   26.0080   40.8980 H   0  0  0  0  0  0  0  0  0  0  0  0
   40.3670   27.3620   42.4560 N   0  0  0  0  0  0  0  0  0  0  0  0
   40.6300   26.6760   43.1990 H   0  0  0  0  0  0  0  0  0  0  0  0
   40.5080   28.6870   42.4450 N   0  0  0  0  0  0  0  0  0  0  0  0
  1 10  1  0  0  0  0
  1  2  1  0  0  0  0
  2 16  1  0  0  0  0
  3  2  2  0  0  0  0
  3 11  1  0  0  0  0
  4  3  1  0  0  0  0
  5 12  1  0  0  0  0
  5  4  1  0  0  0  0
  6  5  1  0  0  0  0
  7  6  2  0  0  0  0
  7  8  1  0  0  0  0
  8  9  1  0  0  0  0
  8  4  2  0  0  0  0
  9  1  2  0  0  0  0
 13  9  1  0  0  0  0
 14 19  1  0  0  0  0
 14 20  1  0  0  0  0
 15 14  2  0  0  0  0
 16 17  2  0  0  0  0
 16 15  1  0  0  0  0
 17 18  1  0  0  0  0
 18 22  1  0  0  0  0
 18 19  2  0  0  0  0
 21 15  1  0  0  0  0
 23  6  1  0  0  0  0
 24 30  1  0  0  0  0
 25 31  1  6  0  0  0
 25 24  1  0  0  0  0
 25 23  1  0  0  0  0
 26 33  1  0  0  0  0
 26 25  1  0  0  0  0
 27 28  1  0  0  0  0
 27 26  1  0  0  0  0
 28 34  1  0  0  0  0
 28 29  1  0  0  0  0
 29 36  1  6  0  0  0
 29 37  1  0  0  0  0
 29 24  1  0  0  0  0
 32 26  1  0  0  0  0
 35 28  1  0  0  0  0
 37 44  2  0  0  0  0
 38 37  1  0  0  0  0
 38 40  2  0  0  0  0
 39 38  1  0  0  0  0
 40 42  1  0  0  0  0
 41 40  1  0  0  0  0
 42 43  1  0  0  0  0
 44 42  1  0  0  0  0
M  END
>  <minimizedAffinity>
-6.04156351

>  <minimizedRMSD>
0.994061708

$$$$
