
 OpenBabel03272510253D

 44 48  0  0  1  0  0  0  0  0999 V2000
   35.8460   30.1370   46.9400 C   0  0  0  0  0  0  0  0  0  0  0  0
   36.8380   30.6340   47.7830 C   0  0  0  0  0  0  0  0  0  0  0  0
   37.8590   31.4250   47.2860 C   0  0  0  0  0  0  0  0  0  0  0  0
   37.8460   31.6940   45.9230 C   0  0  0  0  0  0  0  0  0  0  0  0
   38.7400   32.4400   45.2110 N   0  0  0  0  0  0  0  0  0  0  0  0
   38.3130   32.4090   43.9320 C   0  0  0  0  0  0  0  0  0  0  0  0
   37.2180   31.6910   43.8280 N   0  0  0  0  0  0  0  0  0  0  0  0
   36.8790   31.2160   45.0540 C   0  0  0  0  0  0  0  0  0  0  0  0
   35.8550   30.4190   45.5800 C   0  0  0  0  0  0  0  0  0  0  0  0
   35.0300   29.5150   47.2910 H   0  0  0  0  0  0  0  0  0  0  0  0
   38.6240   31.8070   47.9460 H   0  0  0  0  0  0  0  0  0  0  0  0
   39.5850   32.9320   45.5950 H   0  0  0  0  0  0  0  0  0  0  0  0
   35.1070   30.0560   44.8900 H   0  0  0  0  0  0  0  0  0  0  0  0
   37.5210   30.1550   51.4440 C   0  0  0  0  0  0  0  0  0  0  0  0
   37.7210   30.5510   50.1230 C   0  0  0  0  0  0  0  0  0  0  0  0
   36.7380   30.2750   49.1800 C   0  0  0  0  0  0  0  0  0  0  0  0
   35.6230   29.6260   49.6150 N   0  0  0  0  0  0  0  0  0  0  0  0
   35.4330   29.2470   50.8860 C   0  0  0  0  0  0  0  0  0  0  0  0
   36.3680   29.5090   51.7850 N   0  0  0  0  0  0  0  0  0  0  0  0
   38.3370   30.4090   52.1110 H   0  0  0  0  0  0  0  0  0  0  0  0
   38.6050   31.0570   49.8120 H   0  0  0  0  0  0  0  0  0  0  0  0
   34.5270   28.7350   51.1720 H   0  0  0  0  0  0  0  0  0  0  0  0
   39.0060   33.0820   42.9170 O   0  0  0  0  0  0  0  0  0  0  0  0
   39.4970   30.8920   42.4970 N   0  0  0  0  0  0  0  0  0  0  0  0
   39.6800   32.2620   41.9720 C   0  0  1  0  0  0  0  0  0  0  0  0
   39.0790   32.3370   40.6460 C   0  0  0  0  0  0  0  0  0  0  0  0
   39.7930   31.4860   39.7820 O   0  0  0  0  0  0  0  0  0  0  0  0
   39.8810   30.1890   40.1860 C   0  0  0  0  0  0  0  0  0  0  0  0
   40.2860   30.0440   41.6320 C   0  0  2  0  0  0  0  0  0  0  0  0
   39.9720   30.9010   43.4270 H   0  0  0  0  0  0  0  0  0  0  0  0
   40.7570   32.4920   41.9060 H   0  0  0  0  0  0  0  0  0  0  0  0
   39.3160   33.3660   40.2320 H   0  0  0  0  0  0  0  0  0  0  0  0
   38.0670   32.1490   40.4160 H   0  0  0  0  0  0  0  0  0  0  0  0
   38.8770   29.6850   40.0950 H   0  0  0  0  0  0  0  0  0  0  0  0
   40.6390   29.6850   39.5890 H   0  0  0  0  0  0  0  0  0  0  0  0
   41.3790   30.1970   41.7760 H   0  0  0  0  0  0  0  0  0  0  0  0
   39.9290   28.6290   42.0070 C   0  0  0  0  0  0  0  0  0  0  0  0
   39.2060   28.1470   43.0920 C   0  0  0  0  0  0  0  0  0  0  0  0
   38.8200   28.8840   43.8070 H   0  0  0  0  0  0  0  0  0  0  0  0
   39.1580   26.7600   42.9820 C   0  0  0  0  0  0  0  0  0  0  0  0
   38.6310   26.1950   43.7440 H   0  0  0  0  0  0  0  0  0  0  0  0
   39.8270   26.4270   41.8720 N   0  0  0  0  0  0  0  0  0  0  0  0
   39.9310   25.4320   41.5710 H   0  0  0  0  0  0  0  0  0  0  0  0
   40.2870   27.5340   41.2890 N   0  0  0  0  0  0  0  0  0  0  0  0
  1 10  1  0  0  0  0
  1  2  1  0  0  0  0
  2 16  1  0  0  0  0
  3  2  2  0  0  0  0
  3 11  1  0  0  0  0
  4  3  1  0  0  0  0
  5 12  1  0  0  0  0
  5  4  1  0  0  0  0
  6  5  1  0  0  0  0
  7  6  2  0  0  0  0
  7  8  1  0  0  0  0
  8  9  1  0  0  0  0
  8  4  2  0  0  0  0
  9  1  2  0  0  0  0
 13  9  1  0  0  0  0
 14 19  1  0  0  0  0
 14 20  1  0  0  0  0
 15 14  2  0  0  0  0
 16 17  2  0  0  0  0
 16 15  1  0  0  0  0
 17 18  1  0  0  0  0
 18 22  1  0  0  0  0
 18 19  2  0  0  0  0
 21 15  1  0  0  0  0
 23  6  1  0  0  0  0
 24 30  1  0  0  0  0
 25 31  1  6  0  0  0
 25 24  1  0  0  0  0
 25 23  1  0  0  0  0
 26 25  1  0  0  0  0
 27 28  1  0  0  0  0
 27 26  1  0  0  0  0
 28 29  1  0  0  0  0
 29 36  1  1  0  0  0
 29 37  1  0  0  0  0
 29 24  1  0  0  0  0
 32 26  1  0  0  0  0
 33 26  1  0  0  0  0
 34 28  1  0  0  0  0
 35 28  1  0  0  0  0
 37 38  1  0  0  0  0
 38 39  1  0  0  0  0
 40 38  2  0  0  0  0
 40 41  1  0  0  0  0
 42 40  1  0  0  0  0
 43 42  1  0  0  0  0
 44 42  1  0  0  0  0
 44 37  2  0  0  0  0
M  END
>  <minimizedAffinity>
-6.14014626

>  <minimizedRMSD>
1.5499934

$$$$
