
 OpenBabel03272501313D

 19 20  0  0  0  0  0  0  0  0999 V2000
   39.3660   24.5400   35.5940 C   0  0  0  0  0  0  0  0  0  0  0  0
   40.4340   24.1270   35.0560 O   0  0  0  0  0  0  0  0  0  0  0  0
   37.7070   27.8540   35.2270 C   0  0  0  0  0  0  0  0  0  0  0  0
   38.5260   26.8260   35.7550 C   0  0  0  0  0  0  0  0  0  0  0  0
   38.5410   25.6110   35.0840 C   0  0  0  0  0  0  0  0  0  0  0  0
   37.7820   25.4560   33.9590 N   0  0  0  0  0  0  0  0  0  0  0  0
   37.0200   26.4540   33.4920 C   0  0  0  0  0  0  0  0  0  0  0  0
   36.9740   27.6500   34.1120 N   0  0  0  0  0  0  0  0  0  0  0  0
   37.6400   28.8140   35.6820 H   0  0  0  0  0  0  0  0  0  0  0  0
   39.1050   27.0150   36.6520 H   0  0  0  0  0  0  0  0  0  0  0  0
   36.4850   26.1720   32.6020 H   0  0  0  0  0  0  0  0  0  0  0  0
   38.9550   23.8590   36.8320 C   0  0  0  0  0  0  0  0  0  0  0  0
   37.7040   23.9530   37.4070 C   0  0  0  0  0  0  0  0  0  0  0  0
   36.8280   24.5060   37.0910 H   0  0  0  0  0  0  0  0  0  0  0  0
   37.7490   23.1650   38.5440 C   0  0  0  0  0  0  0  0  0  0  0  0
   37.0050   22.9430   39.2950 H   0  0  0  0  0  0  0  0  0  0  0  0
   38.9800   22.6310   38.6310 N   0  0  0  0  0  0  0  0  0  0  0  0
   39.4830   21.9940   39.2820 H   0  0  0  0  0  0  0  0  0  0  0  0
   39.6990   23.0480   37.6060 N   0  0  0  0  0  0  0  0  0  0  0  0
  1 12  1  0  0  0  0
  2  1  2  0  0  0  0
  3  9  1  0  0  0  0
  3  4  1  0  0  0  0
  4 10  1  0  0  0  0
  5  1  1  0  0  0  0
  5  4  2  0  0  0  0
  6  5  1  0  0  0  0
  7  6  2  0  0  0  0
  7  8  1  0  0  0  0
  8  3  2  0  0  0  0
 11  7  1  0  0  0  0
 12 13  1  0  0  0  0
 12 19  2  0  0  0  0
 13 15  2  0  0  0  0
 14 13  1  0  0  0  0
 15 17  1  0  0  0  0
 15 16  1  0  0  0  0
 17 18  1  0  0  0  0
 19 17  1  0  0  0  0
M  END
>  <minimizedAffinity>
-4.09080744

$$$$

 OpenBabel03272501313D

 19 20  0  0  0  0  0  0  0  0999 V2000
   38.2390   23.4770   35.0560 C   0  0  0  0  0  0  0  0  0  0  0  0
   37.7710   22.4590   34.4670 O   0  0  0  0  0  0  0  0  0  0  0  0
   39.7560   26.7510   34.1370 C   0  0  0  0  0  0  0  0  0  0  0  0
   39.5880   25.4880   34.7570 C   0  0  0  0  0  0  0  0  0  0  0  0
   38.4430   24.7690   34.4430 C   0  0  0  0  0  0  0  0  0  0  0  0
   37.5390   25.2950   33.5650 N   0  0  0  0  0  0  0  0  0  0  0  0
   37.7340   26.4940   33.0000 C   0  0  0  0  0  0  0  0  0  0  0  0
   38.8320   27.2270   33.2750 N   0  0  0  0  0  0  0  0  0  0  0  0
   40.6060   27.3640   34.3230 H   0  0  0  0  0  0  0  0  0  0  0  0
   40.3440   25.1280   35.4440 H   0  0  0  0  0  0  0  0  0  0  0  0
   36.9330   26.7640   32.3350 H   0  0  0  0  0  0  0  0  0  0  0  0
   38.5910   23.3030   36.4740 C   0  0  0  0  0  0  0  0  0  0  0  0
   37.9060   23.8630   37.5330 C   0  0  0  0  0  0  0  0  0  0  0  0
   37.0300   24.5000   37.5410 H   0  0  0  0  0  0  0  0  0  0  0  0
   38.5680   23.4480   38.6750 C   0  0  0  0  0  0  0  0  0  0  0  0
   38.3850   23.6410   39.7230 H   0  0  0  0  0  0  0  0  0  0  0  0
   39.6010   22.6750   38.2990 N   0  0  0  0  0  0  0  0  0  0  0  0
   40.3630   22.1480   38.7740 H   0  0  0  0  0  0  0  0  0  0  0  0
   39.6130   22.5890   36.9820 N   0  0  0  0  0  0  0  0  0  0  0  0
  1 12  1  0  0  0  0
  2  1  2  0  0  0  0
  3  9  1  0  0  0  0
  3  4  1  0  0  0  0
  4 10  1  0  0  0  0
  5  4  2  0  0  0  0
  5  1  1  0  0  0  0
  6  5  1  0  0  0  0
  7  8  1  0  0  0  0
  7  6  2  0  0  0  0
  8  3  2  0  0  0  0
 11  7  1  0  0  0  0
 12 19  2  0  0  0  0
 12 13  1  0  0  0  0
 13 14  1  0  0  0  0
 13 15  2  0  0  0  0
 15 16  1  0  0  0  0
 17 15  1  0  0  0  0
 17 18  1  0  0  0  0
 19 17  1  0  0  0  0
M  END
>  <minimizedAffinity>
-3.94403529

$$$$

 OpenBabel03272501313D

 19 20  0  0  0  0  0  0  0  0999 V2000
   39.0630   24.0100   35.1550 C   0  0  0  0  0  0  0  0  0  0  0  0
   39.9490   24.8640   34.8590 O   0  0  0  0  0  0  0  0  0  0  0  0
   36.9160   23.4080   32.1730 C   0  0  0  0  0  0  0  0  0  0  0  0
   37.7800   24.0700   33.0800 C   0  0  0  0  0  0  0  0  0  0  0  0
   38.1820   23.3670   34.2080 C   0  0  0  0  0  0  0  0  0  0  0  0
   37.7390   22.0890   34.3950 N   0  0  0  0  0  0  0  0  0  0  0  0
   36.9210   21.4990   33.5130 C   0  0  0  0  0  0  0  0  0  0  0  0
   36.5060   22.1430   32.4040 N   0  0  0  0  0  0  0  0  0  0  0  0
   36.5630   23.8770   31.2840 H   0  0  0  0  0  0  0  0  0  0  0  0
   38.0950   25.0850   32.8710 H   0  0  0  0  0  0  0  0  0  0  0  0
   36.6650   20.4960   33.8060 H   0  0  0  0  0  0  0  0  0  0  0  0
   38.9450   23.6630   36.5800 C   0  0  0  0  0  0  0  0  0  0  0  0
   38.0060   24.1890   37.4450 C   0  0  0  0  0  0  0  0  0  0  0  0
   37.2190   24.9110   37.2680 H   0  0  0  0  0  0  0  0  0  0  0  0
   38.2500   23.5980   38.6720 C   0  0  0  0  0  0  0  0  0  0  0  0
   37.7650   23.7080   39.6330 H   0  0  0  0  0  0  0  0  0  0  0  0
   39.2910   22.7590   38.5320 N   0  0  0  0  0  0  0  0  0  0  0  0
   39.8280   22.1120   39.1440 H   0  0  0  0  0  0  0  0  0  0  0  0
   39.7050   22.8000   37.2790 N   0  0  0  0  0  0  0  0  0  0  0  0
  1 12  1  0  0  0  0
  2  1  2  0  0  0  0
  3  8  2  0  0  0  0
  3  4  1  0  0  0  0
  4  5  2  0  0  0  0
  5  6  1  0  0  0  0
  5  1  1  0  0  0  0
  7 11  1  0  0  0  0
  7  6  2  0  0  0  0
  8  7  1  0  0  0  0
  9  3  1  0  0  0  0
 10  4  1  0  0  0  0
 12 19  2  0  0  0  0
 12 13  1  0  0  0  0
 13 15  2  0  0  0  0
 14 13  1  0  0  0  0
 15 16  1  0  0  0  0
 17 15  1  0  0  0  0
 17 18  1  0  0  0  0
 19 17  1  0  0  0  0
M  END
>  <minimizedAffinity>
-3.94280195

$$$$

 OpenBabel03272501313D

 19 20  0  0  0  0  0  0  0  0999 V2000
   38.2430   23.4990   35.0600 C   0  0  0  0  0  0  0  0  0  0  0  0
   37.7180   22.5040   34.4810 O   0  0  0  0  0  0  0  0  0  0  0  0
   37.9880   26.4630   32.8210 C   0  0  0  0  0  0  0  0  0  0  0  0
   37.6880   25.2110   33.4120 C   0  0  0  0  0  0  0  0  0  0  0  0
   38.5180   24.7720   34.4340 C   0  0  0  0  0  0  0  0  0  0  0  0
   39.5710   25.5490   34.8260 N   0  0  0  0  0  0  0  0  0  0  0  0
   39.8200   26.7280   34.2410 C   0  0  0  0  0  0  0  0  0  0  0  0
   39.0410   27.1940   33.2440 N   0  0  0  0  0  0  0  0  0  0  0  0
   37.4010   26.8710   32.0320 H   0  0  0  0  0  0  0  0  0  0  0  0
   36.8370   24.6440   33.0540 H   0  0  0  0  0  0  0  0  0  0  0  0
   40.6820   27.2150   34.6620 H   0  0  0  0  0  0  0  0  0  0  0  0
   38.5880   23.3180   36.4790 C   0  0  0  0  0  0  0  0  0  0  0  0
   37.8910   23.8660   37.5370 C   0  0  0  0  0  0  0  0  0  0  0  0
   37.0110   24.4960   37.5440 H   0  0  0  0  0  0  0  0  0  0  0  0
   38.5500   23.4490   38.6810 C   0  0  0  0  0  0  0  0  0  0  0  0
   38.3590   23.6340   39.7290 H   0  0  0  0  0  0  0  0  0  0  0  0
   39.5920   22.6870   38.3060 N   0  0  0  0  0  0  0  0  0  0  0  0
   40.3550   22.1640   38.7820 H   0  0  0  0  0  0  0  0  0  0  0  0
   39.6130   22.6100   36.9890 N   0  0  0  0  0  0  0  0  0  0  0  0
  1 12  1  0  0  0  0
  2  1  2  0  0  0  0
  3  8  2  0  0  0  0
  3  4  1  0  0  0  0
  4  5  2  0  0  0  0
  5  6  1  0  0  0  0
  5  1  1  0  0  0  0
  7 11  1  0  0  0  0
  7  6  2  0  0  0  0
  8  7  1  0  0  0  0
  9  3  1  0  0  0  0
 10  4  1  0  0  0  0
 12 19  2  0  0  0  0
 12 13  1  0  0  0  0
 13 14  1  0  0  0  0
 13 15  2  0  0  0  0
 15 16  1  0  0  0  0
 17 15  1  0  0  0  0
 17 18  1  0  0  0  0
 19 17  1  0  0  0  0
M  END
>  <minimizedAffinity>
-3.89385915

$$$$

 OpenBabel03272501313D

 19 20  0  0  0  0  0  0  0  0999 V2000
   38.1160   26.0630   35.6620 C   0  0  0  0  0  0  0  0  0  0  0  0
   38.5240   26.9930   36.4170 O   0  0  0  0  0  0  0  0  0  0  0  0
   36.4310   27.6630   32.7530 C   0  0  0  0  0  0  0  0  0  0  0  0
   37.0230   27.5110   34.0310 C   0  0  0  0  0  0  0  0  0  0  0  0
   37.5060   26.2540   34.3660 C   0  0  0  0  0  0  0  0  0  0  0  0
   37.3970   25.2310   33.4690 N   0  0  0  0  0  0  0  0  0  0  0  0
   36.8300   25.4150   32.2700 C   0  0  0  0  0  0  0  0  0  0  0  0
   36.3460   26.6190   31.9010 N   0  0  0  0  0  0  0  0  0  0  0  0
   36.0360   28.5930   32.4190 H   0  0  0  0  0  0  0  0  0  0  0  0
   37.0780   28.3650   34.6960 H   0  0  0  0  0  0  0  0  0  0  0  0
   36.8210   24.5130   31.6820 H   0  0  0  0  0  0  0  0  0  0  0  0
   38.2900   24.6920   36.1670 C   0  0  0  0  0  0  0  0  0  0  0  0
   39.4300   23.9300   36.0070 C   0  0  0  0  0  0  0  0  0  0  0  0
   40.3650   24.1650   35.5130 H   0  0  0  0  0  0  0  0  0  0  0  0
   39.1680   22.7210   36.6280 C   0  0  0  0  0  0  0  0  0  0  0  0
   39.7680   21.8300   36.7500 H   0  0  0  0  0  0  0  0  0  0  0  0
   37.9220   22.7730   37.1310 N   0  0  0  0  0  0  0  0  0  0  0  0
   37.2960   22.1360   37.6640 H   0  0  0  0  0  0  0  0  0  0  0  0
   37.3990   23.9530   36.8540 N   0  0  0  0  0  0  0  0  0  0  0  0
  1 12  1  0  0  0  0
  1  2  2  0  0  0  0
  3  4  1  0  0  0  0
  4  5  2  0  0  0  0
  4 10  1  0  0  0  0
  5  1  1  0  0  0  0
  6  5  1  0  0  0  0
  7  6  2  0  0  0  0
  8  7  1  0  0  0  0
  8  3  2  0  0  0  0
  9  3  1  0  0  0  0
 11  7  1  0  0  0  0
 12 19  2  0  0  0  0
 13 12  1  0  0  0  0
 13 15  2  0  0  0  0
 14 13  1  0  0  0  0
 15 16  1  0  0  0  0
 15 17  1  0  0  0  0
 17 18  1  0  0  0  0
 19 17  1  0  0  0  0
M  END
>  <minimizedAffinity>
-3.81511402

$$$$

 OpenBabel03272501313D

 19 20  0  0  0  0  0  0  0  0999 V2000
   38.4440   25.2170   35.6060 C   0  0  0  0  0  0  0  0  0  0  0  0
   37.2840   25.7080   35.4860 O   0  0  0  0  0  0  0  0  0  0  0  0
   41.3900   26.8740   34.0440 C   0  0  0  0  0  0  0  0  0  0  0  0
   40.3080   26.6380   34.9270 C   0  0  0  0  0  0  0  0  0  0  0  0
   39.5550   25.4900   34.7240 C   0  0  0  0  0  0  0  0  0  0  0  0
   39.8810   24.6460   33.7010 N   0  0  0  0  0  0  0  0  0  0  0  0
   40.9120   24.9050   32.8870 C   0  0  0  0  0  0  0  0  0  0  0  0
   41.6700   26.0090   33.0460 N   0  0  0  0  0  0  0  0  0  0  0  0
   42.0160   27.7310   34.1320 H   0  0  0  0  0  0  0  0  0  0  0  0
   40.1040   27.3490   35.7200 H   0  0  0  0  0  0  0  0  0  0  0  0
   41.0350   24.1460   32.1340 H   0  0  0  0  0  0  0  0  0  0  0  0
   38.6480   24.3030   36.7410 C   0  0  0  0  0  0  0  0  0  0  0  0
   37.9560   24.3570   37.9340 C   0  0  0  0  0  0  0  0  0  0  0  0
   37.1760   25.0340   38.2590 H   0  0  0  0  0  0  0  0  0  0  0  0
   38.4570   23.3270   38.7100 C   0  0  0  0  0  0  0  0  0  0  0  0
   38.2140   22.9960   39.7100 H   0  0  0  0  0  0  0  0  0  0  0  0
   39.4070   22.6940   37.9990 N   0  0  0  0  0  0  0  0  0  0  0  0
   40.0480   21.8890   38.1450 H   0  0  0  0  0  0  0  0  0  0  0  0
   39.5200   23.2800   36.8220 N   0  0  0  0  0  0  0  0  0  0  0  0
  1 12  1  0  0  0  0
  2  1  2  0  0  0  0
  3  9  1  0  0  0  0
  3  4  1  0  0  0  0
  4 10  1  0  0  0  0
  5  4  2  0  0  0  0
  5  1  1  0  0  0  0
  6  5  1  0  0  0  0
  7  8  1  0  0  0  0
  7  6  2  0  0  0  0
  8  3  2  0  0  0  0
 11  7  1  0  0  0  0
 12 19  2  0  0  0  0
 12 13  1  0  0  0  0
 13 14  1  0  0  0  0
 13 15  2  0  0  0  0
 15 16  1  0  0  0  0
 17 18  1  0  0  0  0
 17 15  1  0  0  0  0
 19 17  1  0  0  0  0
M  END
>  <minimizedAffinity>
-3.75850677

$$$$

 OpenBabel03272501313D

 19 20  0  0  0  0  0  0  0  0999 V2000
   37.6470   27.1730   32.3660 C   0  0  0  0  0  0  0  0  0  0  0  0
   38.0600   28.1030   31.6120 O   0  0  0  0  0  0  0  0  0  0  0  0
   34.8740   25.2090   30.8440 C   0  0  0  0  0  0  0  0  0  0  0  0
   35.6530   26.3220   31.2480 C   0  0  0  0  0  0  0  0  0  0  0  0
   36.8280   26.0630   31.9390 C   0  0  0  0  0  0  0  0  0  0  0  0
   37.1830   24.7700   32.1990 N   0  0  0  0  0  0  0  0  0  0  0  0
   36.4190   23.7450   31.8000 C   0  0  0  0  0  0  0  0  0  0  0  0
   35.2690   23.9490   31.1260 N   0  0  0  0  0  0  0  0  0  0  0  0
   33.9600   25.3210   30.3100 H   0  0  0  0  0  0  0  0  0  0  0  0
   35.3130   27.3220   31.0090 H   0  0  0  0  0  0  0  0  0  0  0  0
   36.8370   22.7940   32.0820 H   0  0  0  0  0  0  0  0  0  0  0  0
   38.0480   27.2560   33.7790 C   0  0  0  0  0  0  0  0  0  0  0  0
   39.2840   26.8870   34.2720 C   0  0  0  0  0  0  0  0  0  0  0  0
   40.1510   26.4900   33.7590 H   0  0  0  0  0  0  0  0  0  0  0  0
   39.2340   27.1240   35.6340 C   0  0  0  0  0  0  0  0  0  0  0  0
   39.9680   26.9840   36.4160 H   0  0  0  0  0  0  0  0  0  0  0  0
   38.0170   27.6130   35.9280 N   0  0  0  0  0  0  0  0  0  0  0  0
   37.5160   27.9320   36.7820 H   0  0  0  0  0  0  0  0  0  0  0  0
   37.3090   27.6900   34.8160 N   0  0  0  0  0  0  0  0  0  0  0  0
  1 12  1  0  0  0  0
  2  1  2  0  0  0  0
  3  8  2  0  0  0  0
  3  4  1  0  0  0  0
  4  5  2  0  0  0  0
  5  6  1  0  0  0  0
  5  1  1  0  0  0  0
  7 11  1  0  0  0  0
  7  6  2  0  0  0  0
  8  7  1  0  0  0  0
  9  3  1  0  0  0  0
 10  4  1  0  0  0  0
 12 13  1  0  0  0  0
 12 19  2  0  0  0  0
 13 15  2  0  0  0  0
 14 13  1  0  0  0  0
 15 17  1  0  0  0  0
 15 16  1  0  0  0  0
 17 18  1  0  0  0  0
 19 17  1  0  0  0  0
M  END
>  <minimizedAffinity>
-3.7528162

$$$$

 OpenBabel03272501313D

 19 20  0  0  0  0  0  0  0  0999 V2000
   38.1800   24.2580   36.5340 C   0  0  0  0  0  0  0  0  0  0  0  0
   37.1250   23.7250   36.9870 O   0  0  0  0  0  0  0  0  0  0  0  0
   41.6160   23.3200   35.4470 C   0  0  0  0  0  0  0  0  0  0  0  0
   40.3550   23.9660   35.4670 C   0  0  0  0  0  0  0  0  0  0  0  0
   39.4750   23.6190   36.4830 C   0  0  0  0  0  0  0  0  0  0  0  0
   39.8510   22.6880   37.4080 N   0  0  0  0  0  0  0  0  0  0  0  0
   41.0530   22.1000   37.3540 C   0  0  0  0  0  0  0  0  0  0  0  0
   41.9400   22.4050   36.3850 N   0  0  0  0  0  0  0  0  0  0  0  0
   42.3470   23.5290   34.7020 H   0  0  0  0  0  0  0  0  0  0  0  0
   40.1200   24.6970   34.7020 H   0  0  0  0  0  0  0  0  0  0  0  0
   41.1940   21.3920   38.1530 H   0  0  0  0  0  0  0  0  0  0  0  0
   38.0480   25.6330   36.0280 C   0  0  0  0  0  0  0  0  0  0  0  0
   37.4690   25.9790   34.8240 C   0  0  0  0  0  0  0  0  0  0  0  0
   37.0240   25.3560   34.0570 H   0  0  0  0  0  0  0  0  0  0  0  0
   37.5550   27.3580   34.7440 C   0  0  0  0  0  0  0  0  0  0  0  0
   37.2330   28.0560   33.9840 H   0  0  0  0  0  0  0  0  0  0  0  0
   38.1610   27.8020   35.8590 N   0  0  0  0  0  0  0  0  0  0  0  0
   38.4430   28.7240   36.2490 H   0  0  0  0  0  0  0  0  0  0  0  0
   38.4550   26.7690   36.6250 N   0  0  0  0  0  0  0  0  0  0  0  0
  1  2  2  0  0  0  0
  3  4  2  0  0  0  0
  3  8  1  0  0  0  0
  4  5  1  0  0  0  0
  5  1  1  0  0  0  0
  5  6  2  0  0  0  0
  7  6  1  0  0  0  0
  7 11  1  0  0  0  0
  8  7  2  0  0  0  0
  9  3  1  0  0  0  0
 10  4  1  0  0  0  0
 12  1  1  0  0  0  0
 12 19  2  0  0  0  0
 13 12  1  0  0  0  0
 14 13  1  0  0  0  0
 15 13  2  0  0  0  0
 15 17  1  0  0  0  0
 16 15  1  0  0  0  0
 17 18  1  0  0  0  0
 17 19  1  0  0  0  0
M  END
>  <minimizedAffinity>
-3.73684907

$$$$

 OpenBabel03272501313D

 19 20  0  0  0  0  0  0  0  0999 V2000
   38.8860   25.1170   35.3320 C   0  0  0  0  0  0  0  0  0  0  0  0
   40.1420   25.0520   35.1890 O   0  0  0  0  0  0  0  0  0  0  0  0
   36.8250   26.6080   32.6130 C   0  0  0  0  0  0  0  0  0  0  0  0
   37.6820   25.7090   33.2940 C   0  0  0  0  0  0  0  0  0  0  0  0
   38.0150   26.0120   34.6070 C   0  0  0  0  0  0  0  0  0  0  0  0
   37.5120   27.1440   35.1820 N   0  0  0  0  0  0  0  0  0  0  0  0
   36.7050   27.9700   34.5040 C   0  0  0  0  0  0  0  0  0  0  0  0
   36.3550   27.7150   33.2270 N   0  0  0  0  0  0  0  0  0  0  0  0
   36.5220   26.4480   31.6050 H   0  0  0  0  0  0  0  0  0  0  0  0
   38.0450   24.8280   32.7790 H   0  0  0  0  0  0  0  0  0  0  0  0
   36.3970   28.8130   35.0970 H   0  0  0  0  0  0  0  0  0  0  0  0
   38.2960   24.1990   36.3180 C   0  0  0  0  0  0  0  0  0  0  0  0
   38.1470   24.4740   37.6630 C   0  0  0  0  0  0  0  0  0  0  0  0
   38.4140   25.3570   38.2300 H   0  0  0  0  0  0  0  0  0  0  0  0
   37.5560   23.3510   38.2150 C   0  0  0  0  0  0  0  0  0  0  0  0
   37.2560   23.1210   39.2280 H   0  0  0  0  0  0  0  0  0  0  0  0
   37.3670   22.4530   37.2330 N   0  0  0  0  0  0  0  0  0  0  0  0
   36.9720   21.4950   37.1510 H   0  0  0  0  0  0  0  0  0  0  0  0
   37.8110   22.9630   36.0990 N   0  0  0  0  0  0  0  0  0  0  0  0
  1 12  1  0  0  0  0
  2  1  2  0  0  0  0
  3  8  2  0  0  0  0
  3  4  1  0  0  0  0
  4  5  2  0  0  0  0
  5  6  1  0  0  0  0
  5  1  1  0  0  0  0
  7 11  1  0  0  0  0
  7  6  2  0  0  0  0
  8  7  1  0  0  0  0
  9  3  1  0  0  0  0
 10  4  1  0  0  0  0
 12 13  1  0  0  0  0
 13 15  2  0  0  0  0
 13 14  1  0  0  0  0
 15 16  1  0  0  0  0
 17 15  1  0  0  0  0
 18 17  1  0  0  0  0
 19 12  2  0  0  0  0
 19 17  1  0  0  0  0
M  END
>  <minimizedAffinity>
-3.66947269

$$$$
