
 OpenBabel03262521483D

 31 33  0  0  1  0  0  0  0  0999 V2000
   37.1880   29.2590   50.4180 C   0  0  0  0  0  0  0  0  0  0  0  0
   37.3120   30.6110   50.7300 C   0  0  0  0  0  0  0  0  0  0  0  0
   36.5230   31.5040   50.0080 C   0  0  0  0  0  0  0  0  0  0  0  0
   35.6910   31.0010   49.0560 N   0  0  0  0  0  0  0  0  0  0  0  0
   35.6000   29.6760   48.7820 C   0  0  0  0  0  0  0  0  0  0  0  0
   36.3540   28.8070   49.4700 N   0  0  0  0  0  0  0  0  0  0  0  0
   34.7150   29.2540   47.7840 N   0  0  0  0  0  0  0  0  0  0  0  0
   34.1010   27.9190   47.8370 C   0  0  0  0  0  0  0  0  0  0  0  0
   32.6330   28.0480   47.7380 C   0  0  0  0  0  0  0  0  0  0  0  0
   32.1210   29.2490   47.2480 N   0  0  0  0  0  0  0  0  0  0  0  0
   32.9260   30.1010   46.4460 C   0  0  0  0  0  0  0  0  0  0  0  0
   34.3750   30.1110   46.6690 C   0  0  2  0  0  0  0  0  0  0  0  0
   37.8260   28.6340   51.0140 H   0  0  0  0  0  0  0  0  0  0  0  0
   37.9640   31.0120   51.4780 H   0  0  0  0  0  0  0  0  0  0  0  0
   36.5200   32.5820   50.1500 H   0  0  0  0  0  0  0  0  0  0  0  0
   34.4870   27.2990   47.0010 H   0  0  0  0  0  0  0  0  0  0  0  0
   34.4100   27.4070   48.7740 H   0  0  0  0  0  0  0  0  0  0  0  0
   32.2160   27.2010   47.1240 H   0  0  0  0  0  0  0  0  0  0  0  0
   32.1860   27.8560   48.7540 H   0  0  0  0  0  0  0  0  0  0  0  0
   31.2010   29.1220   46.7870 H   0  0  0  0  0  0  0  0  0  0  0  0
   32.4590   31.1190   46.5330 H   0  0  0  0  0  0  0  0  0  0  0  0
   32.7240   29.8180   45.3890 H   0  0  0  0  0  0  0  0  0  0  0  0
   34.6780   31.1500   46.9330 H   0  0  0  0  0  0  0  0  0  0  0  0
   35.1840   29.7750   45.4580 C   0  0  0  0  0  0  0  0  0  0  0  0
   35.0670   28.9600   44.3510 C   0  0  0  0  0  0  0  0  0  0  0  0
   34.1630   28.3710   44.2750 H   0  0  0  0  0  0  0  0  0  0  0  0
   36.1950   29.1020   43.5690 C   0  0  0  0  0  0  0  0  0  0  0  0
   36.3310   28.5700   42.6600 H   0  0  0  0  0  0  0  0  0  0  0  0
   36.9530   30.0090   44.2480 N   0  0  0  0  0  0  0  0  0  0  0  0
   37.8910   30.3020   43.8560 H   0  0  0  0  0  0  0  0  0  0  0  0
   36.3710   30.4090   45.3540 N   0  0  0  0  0  0  0  0  0  0  0  0
  1  2  1  0  0  0  0
  1 13  1  0  0  0  0
  2 14  1  0  0  0  0
  3 15  1  0  0  0  0
  3  2  2  0  0  0  0
  4  3  1  0  0  0  0
  5  4  2  0  0  0  0
  5  6  1  0  0  0  0
  6  1  2  0  0  0  0
  7  8  1  0  0  0  0
  7  5  1  0  0  0  0
  8 17  1  0  0  0  0
  9  8  1  0  0  0  0
  9 19  1  0  0  0  0
 10  9  1  0  0  0  0
 11 21  1  0  0  0  0
 11 12  1  0  0  0  0
 11 10  1  0  0  0  0
 12 23  1  1  0  0  0
 12  7  1  0  0  0  0
 16  8  1  0  0  0  0
 18  9  1  0  0  0  0
 20 10  1  0  0  0  0
 22 11  1  0  0  0  0
 24 12  1  0  0  0  0
 25 24  1  0  0  0  0
 26 25  1  0  0  0  0
 27 29  1  0  0  0  0
 27 25  2  0  0  0  0
 28 27  1  0  0  0  0
 29 31  1  0  0  0  0
 30 29  1  0  0  0  0
 31 24  2  0  0  0  0
M  END
>  <minimizedAffinity>
-4.57541943

>  <minimizedRMSD>
0.887063444

$$$$
