
 OpenBabel03272508523D

 28 30  0  0  1  0  0  0  0  0999 V2000
   39.2660   27.1450   33.4760 C   0  0  2  0  0  0  0  0  0  0  0  0
   40.7240   27.1390   33.4320 C   0  0  0  0  0  0  0  0  0  0  0  0
   39.9100   25.8380   33.5370 C   0  0  1  0  0  0  0  0  0  0  0  0
   38.7030   27.4090   34.4300 H   0  0  0  0  0  0  0  0  0  0  0  0
   41.2410   27.3980   34.3740 H   0  0  0  0  0  0  0  0  0  0  0  0
   41.2650   27.3520   32.4860 H   0  0  0  0  0  0  0  0  0  0  0  0
   40.1680   25.1680   32.7000 H   0  0  0  0  0  0  0  0  0  0  0  0
   38.2210   27.9200   30.0090 C   0  0  0  0  0  0  0  0  0  0  0  0
   36.8230   28.1200   30.1560 C   0  0  0  0  0  0  0  0  0  0  0  0
   36.2590   27.9800   31.4700 C   0  0  0  0  0  0  0  0  0  0  0  0
   37.0820   27.6670   32.4960 N   0  0  0  0  0  0  0  0  0  0  0  0
   38.4160   27.4880   32.2930 C   0  0  0  0  0  0  0  0  0  0  0  0
   39.0110   27.6060   31.0710 N   0  0  0  0  0  0  0  0  0  0  0  0
   38.5750   28.0420   28.9980 H   0  0  0  0  0  0  0  0  0  0  0  0
   36.2160   28.3680   29.2970 H   0  0  0  0  0  0  0  0  0  0  0  0
   35.2090   28.1280   31.5920 H   0  0  0  0  0  0  0  0  0  0  0  0
   38.9030   24.3150   35.2010 C   0  0  0  0  0  0  0  0  0  0  0  0
   38.0230   24.0150   34.3520 O   0  0  0  0  0  0  0  0  0  0  0  0
   39.9880   25.1990   34.8550 N   0  0  0  0  0  0  0  0  0  0  0  0
   40.7940   25.3920   35.4830 H   0  0  0  0  0  0  0  0  0  0  0  0
   38.8980   23.8020   36.5750 C   0  0  0  0  0  0  0  0  0  0  0  0
   38.0750   24.1250   37.6310 C   0  0  0  0  0  0  0  0  0  0  0  0
   37.2800   24.8330   37.6000 H   0  0  0  0  0  0  0  0  0  0  0  0
   38.4570   23.3780   38.7300 C   0  0  0  0  0  0  0  0  0  0  0  0
   38.0610   23.3500   39.7230 H   0  0  0  0  0  0  0  0  0  0  0  0
   39.4940   22.6240   38.3220 N   0  0  0  0  0  0  0  0  0  0  0  0
   40.0950   21.9130   38.8150 H   0  0  0  0  0  0  0  0  0  0  0  0
   39.7670   22.8620   37.0500 N   0  0  0  0  0  0  0  0  0  0  0  0
  1  3  1  0  0  0  0
  1  4  1  1  0  0  0
  2  1  1  0  0  0  0
  2  3  1  0  0  0  0
  2  5  1  0  0  0  0
  3  7  1  6  0  0  0
  3 19  1  0  0  0  0
  6  2  1  0  0  0  0
  8  9  2  0  0  0  0
  8 13  1  0  0  0  0
  9 10  1  0  0  0  0
 10 16  1  0  0  0  0
 10 11  2  0  0  0  0
 12 11  1  0  0  0  0
 12  1  1  0  0  0  0
 13 12  2  0  0  0  0
 14  8  1  0  0  0  0
 15  9  1  0  0  0  0
 17 21  1  0  0  0  0
 18 17  2  0  0  0  0
 19 17  1  0  0  0  0
 19 20  1  0  0  0  0
 21 28  2  0  0  0  0
 21 22  1  0  0  0  0
 22 24  2  0  0  0  0
 23 22  1  0  0  0  0
 24 25  1  0  0  0  0
 26 24  1  0  0  0  0
 26 27  1  0  0  0  0
 28 26  1  0  0  0  0
M  END
>  <minimizedAffinity>
-4.59768867

$$$$

 OpenBabel03272508523D

 28 30  0  0  1  0  0  0  0  0999 V2000
   37.6920   26.2690   34.9050 C   0  0  2  0  0  0  0  0  0  0  0  0
   38.5090   27.2220   35.6480 C   0  0  0  0  0  0  0  0  0  0  0  0
   39.1250   26.0000   34.9460 C   0  0  1  0  0  0  0  0  0  0  0  0
   37.0750   25.4740   35.4400 H   0  0  0  0  0  0  0  0  0  0  0  0
   38.4950   27.1220   36.7490 H   0  0  0  0  0  0  0  0  0  0  0  0
   38.7180   28.2320   35.2370 H   0  0  0  0  0  0  0  0  0  0  0  0
   39.8990   26.3310   34.2320 H   0  0  0  0  0  0  0  0  0  0  0  0
   36.2540   25.9070   31.5120 C   0  0  0  0  0  0  0  0  0  0  0  0
   35.8630   27.2380   31.2100 C   0  0  0  0  0  0  0  0  0  0  0  0
   36.1060   28.2500   32.2000 C   0  0  0  0  0  0  0  0  0  0  0  0
   36.6920   27.8880   33.3630 N   0  0  0  0  0  0  0  0  0  0  0  0
   37.0450   26.5950   33.5960 C   0  0  0  0  0  0  0  0  0  0  0  0
   36.8410   25.5890   32.6970 N   0  0  0  0  0  0  0  0  0  0  0  0
   36.0430   25.2010   30.7250 H   0  0  0  0  0  0  0  0  0  0  0  0
   35.3970   27.4660   30.2610 H   0  0  0  0  0  0  0  0  0  0  0  0
   35.8160   29.2540   31.9830 H   0  0  0  0  0  0  0  0  0  0  0  0
   40.6470   24.1090   35.4040 C   0  0  0  0  0  0  0  0  0  0  0  0
   41.2360   24.3570   34.3200 O   0  0  0  0  0  0  0  0  0  0  0  0
   39.5770   24.9560   35.8710 N   0  0  0  0  0  0  0  0  0  0  0  0
   39.1320   24.8570   36.8050 H   0  0  0  0  0  0  0  0  0  0  0  0
   40.9900   22.9680   36.2590 C   0  0  0  0  0  0  0  0  0  0  0  0
   42.1030   22.1570   36.2370 C   0  0  0  0  0  0  0  0  0  0  0  0
   42.9190   22.2450   35.5580 H   0  0  0  0  0  0  0  0  0  0  0  0
   41.9790   21.2130   37.2410 C   0  0  0  0  0  0  0  0  0  0  0  0
   42.6330   20.4210   37.5340 H   0  0  0  0  0  0  0  0  0  0  0  0
   40.8050   21.4700   37.8450 N   0  0  0  0  0  0  0  0  0  0  0  0
   40.3040   21.0130   38.6520 H   0  0  0  0  0  0  0  0  0  0  0  0
   40.2080   22.5050   37.2770 N   0  0  0  0  0  0  0  0  0  0  0  0
  1  3  1  0  0  0  0
  1  4  1  1  0  0  0
  1  2  1  0  0  0  0
  2  5  1  0  0  0  0
  3  7  1  6  0  0  0
  3  2  1  0  0  0  0
  3 19  1  0  0  0  0
  6  2  1  0  0  0  0
  8 13  1  0  0  0  0
  9  8  2  0  0  0  0
  9 10  1  0  0  0  0
 10 11  2  0  0  0  0
 11 12  1  0  0  0  0
 12  1  1  0  0  0  0
 13 12  2  0  0  0  0
 14  8  1  0  0  0  0
 15  9  1  0  0  0  0
 16 10  1  0  0  0  0
 17 19  1  0  0  0  0
 17 21  1  0  0  0  0
 18 17  2  0  0  0  0
 19 20  1  0  0  0  0
 21 28  2  0  0  0  0
 22 21  1  0  0  0  0
 22 24  2  0  0  0  0
 23 22  1  0  0  0  0
 24 25  1  0  0  0  0
 24 26  1  0  0  0  0
 26 27  1  0  0  0  0
 28 26  1  0  0  0  0
M  END
>  <minimizedAffinity>
-4.5785656

$$$$

 OpenBabel03272508523D

 28 30  0  0  1  0  0  0  0  0999 V2000
   38.2610   26.2560   32.9100 C   0  0  2  0  0  0  0  0  0  0  0  0
   38.3310   25.2200   31.8850 C   0  0  0  0  0  0  0  0  0  0  0  0
   37.6210   24.9840   33.2290 C   0  0  1  0  0  0  0  0  0  0  0  0
   39.1520   26.4850   33.5820 H   0  0  0  0  0  0  0  0  0  0  0  0
   39.2900   24.6760   31.8070 H   0  0  0  0  0  0  0  0  0  0  0  0
   37.7150   25.2900   30.9640 H   0  0  0  0  0  0  0  0  0  0  0  0
   36.5730   24.6880   33.0500 H   0  0  0  0  0  0  0  0  0  0  0  0
   36.6790   29.2870   31.4890 C   0  0  0  0  0  0  0  0  0  0  0  0
   35.8670   29.7310   32.5640 C   0  0  0  0  0  0  0  0  0  0  0  0
   35.8800   28.9640   33.7780 C   0  0  0  0  0  0  0  0  0  0  0  0
   36.6610   27.8620   33.8370 N   0  0  0  0  0  0  0  0  0  0  0  0
   37.4200   27.4850   32.7720 C   0  0  0  0  0  0  0  0  0  0  0  0
   37.4500   28.1700   31.5930 N   0  0  0  0  0  0  0  0  0  0  0  0
   36.6210   29.9100   30.6110 H   0  0  0  0  0  0  0  0  0  0  0  0
   35.2620   30.6210   32.4570 H   0  0  0  0  0  0  0  0  0  0  0  0
   35.2720   29.2900   34.5930 H   0  0  0  0  0  0  0  0  0  0  0  0
   38.2520   24.3760   35.5380 C   0  0  0  0  0  0  0  0  0  0  0  0
   37.4730   25.2710   35.9570 O   0  0  0  0  0  0  0  0  0  0  0  0
   38.3480   24.0840   34.1300 N   0  0  0  0  0  0  0  0  0  0  0  0
   38.8920   23.2870   33.7440 H   0  0  0  0  0  0  0  0  0  0  0  0
   39.1030   23.5760   36.4250 C   0  0  0  0  0  0  0  0  0  0  0  0
   40.3040   22.9530   36.1640 C   0  0  0  0  0  0  0  0  0  0  0  0
   40.8150   22.9630   35.2290 H   0  0  0  0  0  0  0  0  0  0  0  0
   40.7280   22.3160   37.3160 C   0  0  0  0  0  0  0  0  0  0  0  0
   41.6050   21.7350   37.5060 H   0  0  0  0  0  0  0  0  0  0  0  0
   39.7850   22.5640   38.2430 N   0  0  0  0  0  0  0  0  0  0  0  0
   39.6890   22.2820   39.2540 H   0  0  0  0  0  0  0  0  0  0  0  0
   38.8180   23.3080   37.7320 N   0  0  0  0  0  0  0  0  0  0  0  0
  1  3  1  0  0  0  0
  1  4  1  1  0  0  0
  2  1  1  0  0  0  0
  2  3  1  0  0  0  0
  3  7  1  1  0  0  0
  3 19  1  0  0  0  0
  5  2  1  0  0  0  0
  6  2  1  0  0  0  0
  8 13  2  0  0  0  0
  8  9  1  0  0  0  0
  9 10  2  0  0  0  0
 10 11  1  0  0  0  0
 10 16  1  0  0  0  0
 12  1  1  0  0  0  0
 12 11  2  0  0  0  0
 13 12  1  0  0  0  0
 14  8  1  0  0  0  0
 15  9  1  0  0  0  0
 17 18  2  0  0  0  0
 17 21  1  0  0  0  0
 19 17  1  0  0  0  0
 20 19  1  0  0  0  0
 21 28  2  0  0  0  0
 22 21  1  0  0  0  0
 22 24  2  0  0  0  0
 23 22  1  0  0  0  0
 24 25  1  0  0  0  0
 24 26  1  0  0  0  0
 26 27  1  0  0  0  0
 28 26  1  0  0  0  0
M  END
>  <minimizedAffinity>
-4.55824518

$$$$

 OpenBabel03272508523D

 28 30  0  0  1  0  0  0  0  0999 V2000
   38.1670   26.2260   32.8610 C   0  0  2  0  0  0  0  0  0  0  0  0
   38.1950   25.1450   31.8820 C   0  0  0  0  0  0  0  0  0  0  0  0
   37.5080   24.9830   33.2480 C   0  0  1  0  0  0  0  0  0  0  0  0
   39.0760   26.4650   33.5050 H   0  0  0  0  0  0  0  0  0  0  0  0
   39.1410   24.5770   31.8090 H   0  0  0  0  0  0  0  0  0  0  0  0
   37.5620   25.1880   30.9710 H   0  0  0  0  0  0  0  0  0  0  0  0
   36.4510   24.7020   33.1030 H   0  0  0  0  0  0  0  0  0  0  0  0
   35.8320   29.0170   33.5410 C   0  0  0  0  0  0  0  0  0  0  0  0
   35.8630   29.7370   32.3180 C   0  0  0  0  0  0  0  0  0  0  0  0
   36.7030   29.2370   31.2650 C   0  0  0  0  0  0  0  0  0  0  0  0
   37.4190   28.1120   31.4900 N   0  0  0  0  0  0  0  0  0  0  0  0
   37.3490   27.4650   32.6860 C   0  0  0  0  0  0  0  0  0  0  0  0
   36.5710   27.8890   33.7230 N   0  0  0  0  0  0  0  0  0  0  0  0
   35.1810   29.4480   34.2840 H   0  0  0  0  0  0  0  0  0  0  0  0
   35.2670   30.6310   32.1980 H   0  0  0  0  0  0  0  0  0  0  0  0
   36.7340   29.7700   30.3410 H   0  0  0  0  0  0  0  0  0  0  0  0
   38.1600   24.4540   35.5710 C   0  0  0  0  0  0  0  0  0  0  0  0
   37.3980   25.3740   35.9660 O   0  0  0  0  0  0  0  0  0  0  0  0
   38.2340   24.1080   34.1730 N   0  0  0  0  0  0  0  0  0  0  0  0
   38.7640   23.2900   33.8110 H   0  0  0  0  0  0  0  0  0  0  0  0
   39.0120   23.6760   36.4770 C   0  0  0  0  0  0  0  0  0  0  0  0
   40.2660   23.1480   36.2660 C   0  0  0  0  0  0  0  0  0  0  0  0
   40.8290   23.2310   35.3660 H   0  0  0  0  0  0  0  0  0  0  0  0
   40.6660   22.4920   37.4170 C   0  0  0  0  0  0  0  0  0  0  0  0
   41.5680   21.9640   37.6380 H   0  0  0  0  0  0  0  0  0  0  0  0
   39.6550   22.6360   38.2930 N   0  0  0  0  0  0  0  0  0  0  0  0
   39.5200   22.3060   39.2850 H   0  0  0  0  0  0  0  0  0  0  0  0
   38.6700   23.3340   37.7530 N   0  0  0  0  0  0  0  0  0  0  0  0
  1  3  1  0  0  0  0
  1  4  1  1  0  0  0
  2  1  1  0  0  0  0
  2  3  1  0  0  0  0
  3  7  1  1  0  0  0
  3 19  1  0  0  0  0
  5  2  1  0  0  0  0
  6  2  1  0  0  0  0
  8 13  1  0  0  0  0
  8 14  1  0  0  0  0
  9  8  2  0  0  0  0
 10 11  2  0  0  0  0
 10  9  1  0  0  0  0
 11 12  1  0  0  0  0
 12  1  1  0  0  0  0
 12 13  2  0  0  0  0
 15  9  1  0  0  0  0
 16 10  1  0  0  0  0
 17 18  2  0  0  0  0
 17 21  1  0  0  0  0
 19 17  1  0  0  0  0
 20 19  1  0  0  0  0
 21 28  2  0  0  0  0
 22 21  1  0  0  0  0
 22 24  2  0  0  0  0
 23 22  1  0  0  0  0
 24 25  1  0  0  0  0
 24 26  1  0  0  0  0
 26 27  1  0  0  0  0
 28 26  1  0  0  0  0
M  END
>  <minimizedAffinity>
-4.55203438

$$$$

 OpenBabel03272508523D

 28 30  0  0  1  0  0  0  0  0999 V2000
   36.7230   27.4030   32.9760 C   0  0  2  0  0  0  0  0  0  0  0  0
   36.2140   28.3970   33.9150 C   0  0  0  0  0  0  0  0  0  0  0  0
   37.4580   27.5480   34.2280 C   0  0  1  0  0  0  0  0  0  0  0  0
   36.2270   26.3840   32.8670 H   0  0  0  0  0  0  0  0  0  0  0  0
   35.3320   28.0990   34.5100 H   0  0  0  0  0  0  0  0  0  0  0  0
   36.3480   29.4820   33.7210 H   0  0  0  0  0  0  0  0  0  0  0  0
   38.3170   28.2080   34.4390 H   0  0  0  0  0  0  0  0  0  0  0  0
   39.3230   27.8870   30.3850 C   0  0  0  0  0  0  0  0  0  0  0  0
   38.5770   28.4480   29.3150 C   0  0  0  0  0  0  0  0  0  0  0  0
   37.1690   28.6500   29.5110 C   0  0  0  0  0  0  0  0  0  0  0  0
   36.6260   28.2990   30.6990 N   0  0  0  0  0  0  0  0  0  0  0  0
   37.3920   27.7650   31.6890 C   0  0  0  0  0  0  0  0  0  0  0  0
   38.7340   27.5490   31.5630 N   0  0  0  0  0  0  0  0  0  0  0  0
   40.3720   27.7650   30.1690 H   0  0  0  0  0  0  0  0  0  0  0  0
   39.0690   28.7080   28.3880 H   0  0  0  0  0  0  0  0  0  0  0  0
   36.5990   29.0710   28.7130 H   0  0  0  0  0  0  0  0  0  0  0  0
   38.3630   25.7020   35.5970 C   0  0  0  0  0  0  0  0  0  0  0  0
   39.5060   25.9560   35.1350 O   0  0  0  0  0  0  0  0  0  0  0  0
   37.2300   26.5240   35.2530 N   0  0  0  0  0  0  0  0  0  0  0  0
   36.2920   26.4220   35.6890 H   0  0  0  0  0  0  0  0  0  0  0  0
   38.0970   24.5780   36.5020 C   0  0  0  0  0  0  0  0  0  0  0  0
   38.0220   24.5560   37.8770 C   0  0  0  0  0  0  0  0  0  0  0  0
   38.1560   25.3970   38.5170 H   0  0  0  0  0  0  0  0  0  0  0  0
   37.7490   23.2620   38.2810 C   0  0  0  0  0  0  0  0  0  0  0  0
   37.6180   22.8520   39.2600 H   0  0  0  0  0  0  0  0  0  0  0  0
   37.6630   22.5330   37.1530 N   0  0  0  0  0  0  0  0  0  0  0  0
   37.4720   21.5120   36.9780 H   0  0  0  0  0  0  0  0  0  0  0  0
   37.8660   23.2970   36.0920 N   0  0  0  0  0  0  0  0  0  0  0  0
  1  4  1  6  0  0  0
  1  2  1  0  0  0  0
  1  3  1  0  0  0  0
  2  3  1  0  0  0  0
  2  5  1  0  0  0  0
  3  7  1  6  0  0  0
  3 19  1  0  0  0  0
  6  2  1  0  0  0  0
  8 13  1  0  0  0  0
  9 10  1  0  0  0  0
  9  8  2  0  0  0  0
 10 11  2  0  0  0  0
 11 12  1  0  0  0  0
 12  1  1  0  0  0  0
 13 12  2  0  0  0  0
 14  8  1  0  0  0  0
 15  9  1  0  0  0  0
 16 10  1  0  0  0  0
 17 21  1  0  0  0  0
 18 17  2  0  0  0  0
 19 17  1  0  0  0  0
 19 20  1  0  0  0  0
 21 22  1  0  0  0  0
 22 24  2  0  0  0  0
 22 23  1  0  0  0  0
 24 25  1  0  0  0  0
 26 24  1  0  0  0  0
 27 26  1  0  0  0  0
 28 21  2  0  0  0  0
 28 26  1  0  0  0  0
M  END
>  <minimizedAffinity>
-4.49646044

$$$$

 OpenBabel03272508523D

 28 30  0  0  1  0  0  0  0  0999 V2000
   39.9540   25.3180   34.5490 C   0  0  2  0  0  0  0  0  0  0  0  0
   41.1310   26.1810   34.5550 C   0  0  0  0  0  0  0  0  0  0  0  0
   39.7080   26.7510   34.4310 C   0  0  1  0  0  0  0  0  0  0  0  0
   39.6510   24.7370   33.6180 H   0  0  0  0  0  0  0  0  0  0  0  0
   41.6990   26.2370   33.6090 H   0  0  0  0  0  0  0  0  0  0  0  0
   41.6960   26.3640   35.4930 H   0  0  0  0  0  0  0  0  0  0  0  0
   39.5260   27.4780   35.2410 H   0  0  0  0  0  0  0  0  0  0  0  0
   37.9210   24.3590   37.4910 C   0  0  0  0  0  0  0  0  0  0  0  0
   38.6240   23.2300   37.9840 C   0  0  0  0  0  0  0  0  0  0  0  0
   39.8050   22.8130   37.2810 C   0  0  0  0  0  0  0  0  0  0  0  0
   40.1870   23.5140   36.1890 N   0  0  0  0  0  0  0  0  0  0  0  0
   39.4710   24.5900   35.7630 C   0  0  0  0  0  0  0  0  0  0  0  0
   38.3420   25.0340   36.3870 N   0  0  0  0  0  0  0  0  0  0  0  0
   37.0460   24.6150   38.0670 H   0  0  0  0  0  0  0  0  0  0  0  0
   38.2690   22.7090   38.8630 H   0  0  0  0  0  0  0  0  0  0  0  0
   40.3420   21.9650   37.6430 H   0  0  0  0  0  0  0  0  0  0  0  0
   37.9930   27.3470   32.7560 C   0  0  0  0  0  0  0  0  0  0  0  0
   37.1090   27.1230   33.6230 O   0  0  0  0  0  0  0  0  0  0  0  0
   39.3930   27.2610   33.0930 N   0  0  0  0  0  0  0  0  0  0  0  0
   40.1570   27.5380   32.4460 H   0  0  0  0  0  0  0  0  0  0  0  0
   37.6820   27.7040   31.3680 C   0  0  0  0  0  0  0  0  0  0  0  0
   38.4590   28.3500   30.4320 C   0  0  0  0  0  0  0  0  0  0  0  0
   39.4510   28.7040   30.5890 H   0  0  0  0  0  0  0  0  0  0  0  0
   37.7320   28.4620   29.2600 C   0  0  0  0  0  0  0  0  0  0  0  0
   37.9930   28.8980   28.3190 H   0  0  0  0  0  0  0  0  0  0  0  0
   36.5420   27.8860   29.5070 N   0  0  0  0  0  0  0  0  0  0  0  0
   35.6840   27.7410   28.9130 H   0  0  0  0  0  0  0  0  0  0  0  0
   36.4960   27.4320   30.7490 N   0  0  0  0  0  0  0  0  0  0  0  0
  1  4  1  6  0  0  0
  1  2  1  0  0  0  0
  1 12  1  0  0  0  0
  2  6  1  0  0  0  0
  3  1  1  0  0  0  0
  3  2  1  0  0  0  0
  3  7  1  1  0  0  0
  5  2  1  0  0  0  0
  8  9  1  0  0  0  0
  8 14  1  0  0  0  0
  9 15  1  0  0  0  0
 10 16  1  0  0  0  0
 10  9  2  0  0  0  0
 11 10  1  0  0  0  0
 12 11  2  0  0  0  0
 12 13  1  0  0  0  0
 13  8  2  0  0  0  0
 17 19  1  0  0  0  0
 17 18  2  0  0  0  0
 19  3  1  0  0  0  0
 20 19  1  0  0  0  0
 21 17  1  0  0  0  0
 22 23  1  0  0  0  0
 22 21  1  0  0  0  0
 24 26  1  0  0  0  0
 24 22  2  0  0  0  0
 25 24  1  0  0  0  0
 26 28  1  0  0  0  0
 27 26  1  0  0  0  0
 28 21  2  0  0  0  0
M  END
>  <minimizedAffinity>
-4.49510956

$$$$

 OpenBabel03272508523D

 28 30  0  0  1  0  0  0  0  0999 V2000
   38.7910   26.3450   35.3010 C   0  0  2  0  0  0  0  0  0  0  0  0
   38.2000   27.5260   35.9200 C   0  0  0  0  0  0  0  0  0  0  0  0
   37.4650   26.7300   34.8280 C   0  0  1  0  0  0  0  0  0  0  0  0
   39.5930   26.4360   34.4970 H   0  0  0  0  0  0  0  0  0  0  0  0
   38.5720   28.5030   35.5600 H   0  0  0  0  0  0  0  0  0  0  0  0
   37.8090   27.4880   36.9580 H   0  0  0  0  0  0  0  0  0  0  0  0
   36.4850   26.3940   35.2070 H   0  0  0  0  0  0  0  0  0  0  0  0
   40.1020   23.0300   36.3000 C   0  0  0  0  0  0  0  0  0  0  0  0
   39.2350   22.6750   37.3670 C   0  0  0  0  0  0  0  0  0  0  0  0
   38.1990   23.6020   37.7270 C   0  0  0  0  0  0  0  0  0  0  0  0
   38.1000   24.7600   37.0360 N   0  0  0  0  0  0  0  0  0  0  0  0
   38.9620   25.0460   36.0220 C   0  0  0  0  0  0  0  0  0  0  0  0
   39.9650   24.2070   35.6330 N   0  0  0  0  0  0  0  0  0  0  0  0
   40.8540   22.2890   36.0840 H   0  0  0  0  0  0  0  0  0  0  0  0
   39.3650   21.7340   37.8830 H   0  0  0  0  0  0  0  0  0  0  0  0
   37.5420   23.3460   38.5280 H   0  0  0  0  0  0  0  0  0  0  0  0
   37.4150   26.5880   32.3630 C   0  0  0  0  0  0  0  0  0  0  0  0
   37.3520   25.3350   32.4640 O   0  0  0  0  0  0  0  0  0  0  0  0
   37.3970   27.4230   33.5380 N   0  0  0  0  0  0  0  0  0  0  0  0
   37.3390   28.4600   33.5040 H   0  0  0  0  0  0  0  0  0  0  0  0
   37.5070   27.2840   31.0750 C   0  0  0  0  0  0  0  0  0  0  0  0
   38.6210   27.6510   30.3530 C   0  0  0  0  0  0  0  0  0  0  0  0
   39.6310   27.4740   30.6410 H   0  0  0  0  0  0  0  0  0  0  0  0
   38.2050   28.2870   29.1970 C   0  0  0  0  0  0  0  0  0  0  0  0
   38.7710   28.7100   28.3940 H   0  0  0  0  0  0  0  0  0  0  0  0
   36.8610   28.2920   29.2420 N   0  0  0  0  0  0  0  0  0  0  0  0
   36.1280   28.6650   28.5830 H   0  0  0  0  0  0  0  0  0  0  0  0
   36.4320   27.7020   30.3460 N   0  0  0  0  0  0  0  0  0  0  0  0
  1  4  1  6  0  0  0
  1  2  1  0  0  0  0
  1 12  1  0  0  0  0
  2  6  1  0  0  0  0
  3  7  1  1  0  0  0
  3  1  1  0  0  0  0
  3  2  1  0  0  0  0
  5  2  1  0  0  0  0
  8  9  1  0  0  0  0
  9 10  2  0  0  0  0
  9 15  1  0  0  0  0
 10 16  1  0  0  0  0
 11 10  1  0  0  0  0
 12 11  2  0  0  0  0
 13 12  1  0  0  0  0
 13  8  2  0  0  0  0
 14  8  1  0  0  0  0
 17 18  2  0  0  0  0
 17 19  1  0  0  0  0
 19  3  1  0  0  0  0
 20 19  1  0  0  0  0
 21 17  1  0  0  0  0
 22 23  1  0  0  0  0
 22 21  1  0  0  0  0
 24 26  1  0  0  0  0
 24 22  2  0  0  0  0
 25 24  1  0  0  0  0
 26 28  1  0  0  0  0
 27 26  1  0  0  0  0
 28 21  2  0  0  0  0
M  END
>  <minimizedAffinity>
-4.44714642

$$$$

 OpenBabel03272508523D

 28 30  0  0  1  0  0  0  0  0999 V2000
   38.8920   26.2860   35.3620 C   0  0  2  0  0  0  0  0  0  0  0  0
   38.2980   27.4340   36.0390 C   0  0  0  0  0  0  0  0  0  0  0  0
   37.5580   26.6800   34.9210 C   0  0  1  0  0  0  0  0  0  0  0  0
   39.6850   26.4200   34.5550 H   0  0  0  0  0  0  0  0  0  0  0  0
   38.6580   28.4290   35.7190 H   0  0  0  0  0  0  0  0  0  0  0  0
   37.9190   27.3460   37.0790 H   0  0  0  0  0  0  0  0  0  0  0  0
   36.5850   26.3190   35.2950 H   0  0  0  0  0  0  0  0  0  0  0  0
   38.3970   23.3680   37.5870 C   0  0  0  0  0  0  0  0  0  0  0  0
   39.4700   22.5200   37.2090 C   0  0  0  0  0  0  0  0  0  0  0  0
   40.3570   22.9780   36.1760 C   0  0  0  0  0  0  0  0  0  0  0  0
   40.1280   24.1880   35.6180 N   0  0  0  0  0  0  0  0  0  0  0  0
   39.0820   24.9580   36.0230 C   0  0  0  0  0  0  0  0  0  0  0  0
   38.2050   24.5790   36.9970 N   0  0  0  0  0  0  0  0  0  0  0  0
   37.7730   22.9620   38.3670 H   0  0  0  0  0  0  0  0  0  0  0  0
   39.6010   21.5610   37.6920 H   0  0  0  0  0  0  0  0  0  0  0  0
   41.1670   22.3470   35.8840 H   0  0  0  0  0  0  0  0  0  0  0  0
   37.3570   26.6450   32.4590 C   0  0  0  0  0  0  0  0  0  0  0  0
   37.2040   25.3970   32.5180 O   0  0  0  0  0  0  0  0  0  0  0  0
   37.4710   27.4300   33.6640 N   0  0  0  0  0  0  0  0  0  0  0  0
   37.4910   28.4690   33.6720 H   0  0  0  0  0  0  0  0  0  0  0  0
   37.4290   27.3840   31.1950 C   0  0  0  0  0  0  0  0  0  0  0  0
   38.5040   28.0110   30.6040 C   0  0  0  0  0  0  0  0  0  0  0  0
   39.4910   28.0510   31.0010 H   0  0  0  0  0  0  0  0  0  0  0  0
   38.0830   28.5760   29.4140 C   0  0  0  0  0  0  0  0  0  0  0  0
   38.6230   29.1380   28.6820 H   0  0  0  0  0  0  0  0  0  0  0  0
   36.7740   28.2830   29.3090 N   0  0  0  0  0  0  0  0  0  0  0  0
   36.0510   28.5060   28.5750 H   0  0  0  0  0  0  0  0  0  0  0  0
   36.3720   27.5790   30.3540 N   0  0  0  0  0  0  0  0  0  0  0  0
  1  4  1  6  0  0  0
  1 12  1  0  0  0  0
  1  2  1  0  0  0  0
  2  6  1  0  0  0  0
  3  7  1  1  0  0  0
  3  1  1  0  0  0  0
  3  2  1  0  0  0  0
  5  2  1  0  0  0  0
  8 14  1  0  0  0  0
  9  8  1  0  0  0  0
  9 15  1  0  0  0  0
 10  9  2  0  0  0  0
 11 12  2  0  0  0  0
 11 10  1  0  0  0  0
 12 13  1  0  0  0  0
 13  8  2  0  0  0  0
 16 10  1  0  0  0  0
 17 18  2  0  0  0  0
 17 19  1  0  0  0  0
 19 20  1  0  0  0  0
 19  3  1  0  0  0  0
 21 17  1  0  0  0  0
 22 23  1  0  0  0  0
 22 21  1  0  0  0  0
 24 22  2  0  0  0  0
 25 24  1  0  0  0  0
 26 24  1  0  0  0  0
 26 28  1  0  0  0  0
 27 26  1  0  0  0  0
 28 21  2  0  0  0  0
M  END
>  <minimizedAffinity>
-4.41347551

$$$$

 OpenBabel03272508523D

 28 30  0  0  1  0  0  0  0  0999 V2000
   38.2550   23.5840   34.5400 C   0  0  2  0  0  0  0  0  0  0  0  0
   39.0270   22.8300   33.5580 C   0  0  0  0  0  0  0  0  0  0  0  0
   39.1500   24.3580   33.6860 C   0  0  1  0  0  0  0  0  0  0  0  0
   37.1550   23.8270   34.3670 H   0  0  0  0  0  0  0  0  0  0  0  0
   38.4860   22.5200   32.6460 H   0  0  0  0  0  0  0  0  0  0  0  0
   39.8860   22.2010   33.8720 H   0  0  0  0  0  0  0  0  0  0  0  0
   40.2010   24.6330   33.8770 H   0  0  0  0  0  0  0  0  0  0  0  0
   39.8280   22.7710   37.7910 C   0  0  0  0  0  0  0  0  0  0  0  0
   38.9650   23.4220   38.7110 C   0  0  0  0  0  0  0  0  0  0  0  0
   37.8390   24.1400   38.1830 C   0  0  0  0  0  0  0  0  0  0  0  0
   37.6570   24.1620   36.8430 N   0  0  0  0  0  0  0  0  0  0  0  0
   38.5200   23.5190   36.0100 C   0  0  0  0  0  0  0  0  0  0  0  0
   39.6060   22.8200   36.4500 N   0  0  0  0  0  0  0  0  0  0  0  0
   40.6500   22.2520   38.2560 H   0  0  0  0  0  0  0  0  0  0  0  0
   39.1630   23.3690   39.7730 H   0  0  0  0  0  0  0  0  0  0  0  0
   37.1830   24.6330   38.8660 H   0  0  0  0  0  0  0  0  0  0  0  0
   38.3070   26.5010   32.7920 C   0  0  0  0  0  0  0  0  0  0  0  0
   38.7440   27.0720   33.8250 O   0  0  0  0  0  0  0  0  0  0  0  0
   38.5350   25.0940   32.5770 N   0  0  0  0  0  0  0  0  0  0  0  0
   38.2890   24.6010   31.6950 H   0  0  0  0  0  0  0  0  0  0  0  0
   37.5510   27.2020   31.7490 C   0  0  0  0  0  0  0  0  0  0  0  0
   37.4090   28.5540   31.5250 C   0  0  0  0  0  0  0  0  0  0  0  0
   37.8510   29.3270   32.1080 H   0  0  0  0  0  0  0  0  0  0  0  0
   36.5960   28.7320   30.4200 C   0  0  0  0  0  0  0  0  0  0  0  0
   36.2600   29.6270   29.9410 H   0  0  0  0  0  0  0  0  0  0  0  0
   36.2670   27.4970   30.0000 N   0  0  0  0  0  0  0  0  0  0  0  0
   35.6730   27.1510   29.2020 H   0  0  0  0  0  0  0  0  0  0  0  0
   36.8230   26.5810   30.7760 N   0  0  0  0  0  0  0  0  0  0  0  0
  1  4  1  6  0  0  0
  1 12  1  0  0  0  0
  2  3  1  0  0  0  0
  2  6  1  0  0  0  0
  2  1  1  0  0  0  0
  3  7  1  1  0  0  0
  3  1  1  0  0  0  0
  5  2  1  0  0  0  0
  8 14  1  0  0  0  0
  8  9  1  0  0  0  0
  9 15  1  0  0  0  0
 10  9  2  0  0  0  0
 10 16  1  0  0  0  0
 11 10  1  0  0  0  0
 12 13  1  0  0  0  0
 12 11  2  0  0  0  0
 13  8  2  0  0  0  0
 17 18  2  0  0  0  0
 19 17  1  0  0  0  0
 19  3  1  0  0  0  0
 20 19  1  0  0  0  0
 21 17  1  0  0  0  0
 22 21  1  0  0  0  0
 22 23  1  0  0  0  0
 24 22  2  0  0  0  0
 25 24  1  0  0  0  0
 26 24  1  0  0  0  0
 26 28  1  0  0  0  0
 27 26  1  0  0  0  0
 28 21  2  0  0  0  0
M  END
>  <minimizedAffinity>
-4.39151955

$$$$
