
 OpenBabel03272510253D

 44 48  0  0  1  0  0  0  0  0999 V2000
   35.8980   30.1270   47.0220 C   0  0  0  0  0  0  0  0  0  0  0  0
   36.8620   30.6700   47.8680 C   0  0  0  0  0  0  0  0  0  0  0  0
   37.8410   31.5160   47.3760 C   0  0  0  0  0  0  0  0  0  0  0  0
   37.8140   31.7930   46.0150 C   0  0  0  0  0  0  0  0  0  0  0  0
   38.6670   32.5890   45.3080 N   0  0  0  0  0  0  0  0  0  0  0  0
   38.2420   32.5450   44.0290 C   0  0  0  0  0  0  0  0  0  0  0  0
   37.1840   31.7720   43.9200 N   0  0  0  0  0  0  0  0  0  0  0  0
   36.8710   31.2720   45.1420 C   0  0  0  0  0  0  0  0  0  0  0  0
   35.8910   30.4190   45.6630 C   0  0  0  0  0  0  0  0  0  0  0  0
   35.1160   29.4610   47.3680 H   0  0  0  0  0  0  0  0  0  0  0  0
   38.5860   31.9330   48.0380 H   0  0  0  0  0  0  0  0  0  0  0  0
   39.4850   33.1220   45.6950 H   0  0  0  0  0  0  0  0  0  0  0  0
   35.1630   30.0220   44.9710 H   0  0  0  0  0  0  0  0  0  0  0  0
   37.5960   30.1560   51.5140 C   0  0  0  0  0  0  0  0  0  0  0  0
   37.7780   30.5650   50.1940 C   0  0  0  0  0  0  0  0  0  0  0  0
   36.7830   30.2960   49.2620 C   0  0  0  0  0  0  0  0  0  0  0  0
   35.6750   29.6400   49.7050 N   0  0  0  0  0  0  0  0  0  0  0  0
   35.5030   29.2480   50.9750 C   0  0  0  0  0  0  0  0  0  0  0  0
   36.4500   29.5030   51.8640 N   0  0  0  0  0  0  0  0  0  0  0  0
   38.4200   30.4050   52.1730 H   0  0  0  0  0  0  0  0  0  0  0  0
   38.6560   31.0760   49.8770 H   0  0  0  0  0  0  0  0  0  0  0  0
   34.6020   28.7310   51.2680 H   0  0  0  0  0  0  0  0  0  0  0  0
   38.8970   33.2600   43.0180 O   0  0  0  0  0  0  0  0  0  0  0  0
   39.4910   31.1010   42.5710 N   0  0  0  0  0  0  0  0  0  0  0  0
   39.5910   32.4810   42.0530 C   0  0  1  0  0  0  0  0  0  0  0  0
   38.9560   32.5340   40.7410 C   0  0  0  0  0  0  0  0  0  0  0  0
   39.6930   31.7250   39.8550 O   0  0  0  0  0  0  0  0  0  0  0  0
   39.8570   30.4320   40.2480 C   0  0  0  0  0  0  0  0  0  0  0  0
   40.3030   30.3000   41.6830 C   0  0  2  0  0  0  0  0  0  0  0  0
   39.9860   31.1290   43.4900 H   0  0  0  0  0  0  0  0  0  0  0  0
   40.6530   32.7680   41.9640 H   0  0  0  0  0  0  0  0  0  0  0  0
   39.1300   33.5750   40.3290 H   0  0  0  0  0  0  0  0  0  0  0  0
   37.9500   32.2950   40.5330 H   0  0  0  0  0  0  0  0  0  0  0  0
   38.8780   29.8770   40.1760 H   0  0  0  0  0  0  0  0  0  0  0  0
   40.6260   29.9720   39.6300 H   0  0  0  0  0  0  0  0  0  0  0  0
   41.3900   30.5080   41.8030 H   0  0  0  0  0  0  0  0  0  0  0  0
   40.0280   28.8660   42.0560 C   0  0  0  0  0  0  0  0  0  0  0  0
   39.2430   28.3430   43.0770 C   0  0  0  0  0  0  0  0  0  0  0  0
   38.7280   29.0570   43.7330 H   0  0  0  0  0  0  0  0  0  0  0  0
   39.3180   26.9560   42.9970 C   0  0  0  0  0  0  0  0  0  0  0  0
   38.7660   26.3610   43.7170 H   0  0  0  0  0  0  0  0  0  0  0  0
   40.1200   26.6620   41.9650 N   0  0  0  0  0  0  0  0  0  0  0  0
   40.3340   25.6750   41.7010 H   0  0  0  0  0  0  0  0  0  0  0  0
   40.5430   27.7940   41.4040 N   0  0  0  0  0  0  0  0  0  0  0  0
  1 10  1  0  0  0  0
  1  2  1  0  0  0  0
  2 16  1  0  0  0  0
  3  2  2  0  0  0  0
  3 11  1  0  0  0  0
  4  3  1  0  0  0  0
  5 12  1  0  0  0  0
  5  4  1  0  0  0  0
  6  5  1  0  0  0  0
  7  6  2  0  0  0  0
  7  8  1  0  0  0  0
  8  9  1  0  0  0  0
  8  4  2  0  0  0  0
  9  1  2  0  0  0  0
 13  9  1  0  0  0  0
 14 19  1  0  0  0  0
 14 20  1  0  0  0  0
 15 14  2  0  0  0  0
 16 17  2  0  0  0  0
 16 15  1  0  0  0  0
 17 18  1  0  0  0  0
 18 22  1  0  0  0  0
 18 19  2  0  0  0  0
 21 15  1  0  0  0  0
 23  6  1  0  0  0  0
 24 30  1  0  0  0  0
 25 31  1  6  0  0  0
 25 24  1  0  0  0  0
 25 23  1  0  0  0  0
 26 25  1  0  0  0  0
 27 28  1  0  0  0  0
 27 26  1  0  0  0  0
 28 29  1  0  0  0  0
 29 36  1  1  0  0  0
 29 37  1  0  0  0  0
 29 24  1  0  0  0  0
 32 26  1  0  0  0  0
 33 26  1  0  0  0  0
 34 28  1  0  0  0  0
 35 28  1  0  0  0  0
 37 38  1  0  0  0  0
 38 39  1  0  0  0  0
 40 38  2  0  0  0  0
 40 41  1  0  0  0  0
 42 40  1  0  0  0  0
 43 42  1  0  0  0  0
 44 42  1  0  0  0  0
 44 37  2  0  0  0  0
M  END
>  <minimizedAffinity>
-6.11931753

>  <minimizedRMSD>
1.51306784

$$$$
