
 OpenBabel03272510253D

 44 48  0  0  1  0  0  0  0  0999 V2000
   36.1850   30.2350   47.0100 C   0  0  0  0  0  0  0  0  0  0  0  0
   37.0410   30.7600   47.9760 C   0  0  0  0  0  0  0  0  0  0  0  0
   38.0480   31.6440   47.6260 C   0  0  0  0  0  0  0  0  0  0  0  0
   38.1600   31.9760   46.2820 C   0  0  0  0  0  0  0  0  0  0  0  0
   39.0660   32.8160   45.7030 N   0  0  0  0  0  0  0  0  0  0  0  0
   38.7810   32.8170   44.3840 C   0  0  0  0  0  0  0  0  0  0  0  0
   37.7600   32.0300   44.1320 N   0  0  0  0  0  0  0  0  0  0  0  0
   37.3290   31.4740   45.2930 C   0  0  0  0  0  0  0  0  0  0  0  0
   36.3180   30.5820   45.6710 C   0  0  0  0  0  0  0  0  0  0  0  0
   35.3860   29.5420   47.2440 H   0  0  0  0  0  0  0  0  0  0  0  0
   38.7070   32.0470   48.3800 H   0  0  0  0  0  0  0  0  0  0  0  0
   39.8260   33.3470   46.1960 H   0  0  0  0  0  0  0  0  0  0  0  0
   35.6770   30.2010   44.8890 H   0  0  0  0  0  0  0  0  0  0  0  0
   37.4100   30.0740   51.6490 C   0  0  0  0  0  0  0  0  0  0  0  0
   37.7250   30.5360   50.3730 C   0  0  0  0  0  0  0  0  0  0  0  0
   36.8210   30.3290   49.3370 C   0  0  0  0  0  0  0  0  0  0  0  0
   35.6650   29.6760   49.6420 N   0  0  0  0  0  0  0  0  0  0  0  0
   35.3650   29.2320   50.8710 C   0  0  0  0  0  0  0  0  0  0  0  0
   36.2250   29.4300   51.8570 N   0  0  0  0  0  0  0  0  0  0  0  0
   38.1700   30.2780   52.3940 H   0  0  0  0  0  0  0  0  0  0  0  0
   38.6380   31.0430   50.1640 H   0  0  0  0  0  0  0  0  0  0  0  0
   34.4320   28.7210   51.0520 H   0  0  0  0  0  0  0  0  0  0  0  0
   39.5250   33.5840   43.4790 O   0  0  0  0  0  0  0  0  0  0  0  0
   39.7890   31.7140   42.1960 N   0  0  0  0  0  0  0  0  0  0  0  0
   39.4890   33.1590   42.1230 C   0  0  1  0  0  0  0  0  0  0  0  0
   38.1700   33.3320   41.5250 C   0  0  0  0  0  0  0  0  0  0  0  0
   38.2180   32.8720   40.1960 O   0  0  0  0  0  0  0  0  0  0  0  0
   38.6420   31.5880   40.0400 C   0  0  0  0  0  0  0  0  0  0  0  0
   39.8940   31.2770   40.8220 C   0  0  2  0  0  0  0  0  0  0  0  0
   40.7500   31.6650   42.6020 H   0  0  0  0  0  0  0  0  0  0  0  0
   40.2480   33.6640   41.5020 H   0  0  0  0  0  0  0  0  0  0  0  0
   38.0070   34.4460   41.3960 H   0  0  0  0  0  0  0  0  0  0  0  0
   37.2670   32.9400   41.9020 H   0  0  0  0  0  0  0  0  0  0  0  0
   37.8560   30.8710   40.4170 H   0  0  0  0  0  0  0  0  0  0  0  0
   38.8700   31.4170   38.9890 H   0  0  0  0  0  0  0  0  0  0  0  0
   40.8060   31.6720   40.3220 H   0  0  0  0  0  0  0  0  0  0  0  0
   39.9690   29.7720   40.8740 C   0  0  0  0  0  0  0  0  0  0  0  0
   41.0550   28.9240   40.6970 C   0  0  0  0  0  0  0  0  0  0  0  0
   42.0270   29.3890   40.4830 H   0  0  0  0  0  0  0  0  0  0  0  0
   40.5990   27.6180   40.8460 C   0  0  0  0  0  0  0  0  0  0  0  0
   41.3090   26.8030   40.7420 H   0  0  0  0  0  0  0  0  0  0  0  0
   39.2870   27.6850   41.1030 N   0  0  0  0  0  0  0  0  0  0  0  0
   38.7140   26.8250   41.2570 H   0  0  0  0  0  0  0  0  0  0  0  0
   38.9080   28.9620   41.1210 N   0  0  0  0  0  0  0  0  0  0  0  0
  1 10  1  0  0  0  0
  1  2  1  0  0  0  0
  2 16  1  0  0  0  0
  3  2  2  0  0  0  0
  3 11  1  0  0  0  0
  4  3  1  0  0  0  0
  5 12  1  0  0  0  0
  5  4  1  0  0  0  0
  6  5  1  0  0  0  0
  7  6  2  0  0  0  0
  7  8  1  0  0  0  0
  8  9  1  0  0  0  0
  8  4  2  0  0  0  0
  9  1  2  0  0  0  0
 13  9  1  0  0  0  0
 14 19  1  0  0  0  0
 14 20  1  0  0  0  0
 15 14  2  0  0  0  0
 16 17  2  0  0  0  0
 16 15  1  0  0  0  0
 17 18  1  0  0  0  0
 18 22  1  0  0  0  0
 18 19  2  0  0  0  0
 21 15  1  0  0  0  0
 23  6  1  0  0  0  0
 24 30  1  0  0  0  0
 25 31  1  6  0  0  0
 25 24  1  0  0  0  0
 25 23  1  0  0  0  0
 26 33  1  0  0  0  0
 26 25  1  0  0  0  0
 27 26  1  0  0  0  0
 28 27  1  0  0  0  0
 28 34  1  0  0  0  0
 28 29  1  0  0  0  0
 29 36  1  6  0  0  0
 29 37  1  0  0  0  0
 29 24  1  0  0  0  0
 32 26  1  0  0  0  0
 35 28  1  0  0  0  0
 37 44  2  0  0  0  0
 38 40  2  0  0  0  0
 38 37  1  0  0  0  0
 39 38  1  0  0  0  0
 40 42  1  0  0  0  0
 41 40  1  0  0  0  0
 42 44  1  0  0  0  0
 42 43  1  0  0  0  0
M  END
>  <minimizedAffinity>
-5.88577509

>  <minimizedRMSD>
0.536787152

$$$$
