
 OpenBabel03272510253D

 44 48  0  0  1  0  0  0  0  0999 V2000
   36.2130   30.1960   46.9710 C   0  0  0  0  0  0  0  0  0  0  0  0
   37.0500   30.7560   47.9340 C   0  0  0  0  0  0  0  0  0  0  0  0
   38.0320   31.6640   47.5780 C   0  0  0  0  0  0  0  0  0  0  0  0
   38.1410   31.9840   46.2300 C   0  0  0  0  0  0  0  0  0  0  0  0
   39.0250   32.8420   45.6450 N   0  0  0  0  0  0  0  0  0  0  0  0
   38.7460   32.8200   44.3260 C   0  0  0  0  0  0  0  0  0  0  0  0
   37.7480   32.0020   44.0780 N   0  0  0  0  0  0  0  0  0  0  0  0
   37.3290   31.4470   45.2440 C   0  0  0  0  0  0  0  0  0  0  0  0
   36.3410   30.5320   45.6290 C   0  0  0  0  0  0  0  0  0  0  0  0
   35.4330   29.4830   47.2090 H   0  0  0  0  0  0  0  0  0  0  0  0
   38.6770   32.0940   48.3300 H   0  0  0  0  0  0  0  0  0  0  0  0
   39.7670   33.4010   46.1350 H   0  0  0  0  0  0  0  0  0  0  0  0
   35.7150   30.1230   44.8480 H   0  0  0  0  0  0  0  0  0  0  0  0
   37.4340   30.1000   51.6110 C   0  0  0  0  0  0  0  0  0  0  0  0
   37.7430   30.5540   50.3300 C   0  0  0  0  0  0  0  0  0  0  0  0
   36.8360   30.3340   49.2990 C   0  0  0  0  0  0  0  0  0  0  0  0
   35.6840   29.6790   49.6130 N   0  0  0  0  0  0  0  0  0  0  0  0
   35.3900   29.2430   50.8460 C   0  0  0  0  0  0  0  0  0  0  0  0
   36.2520   29.4520   51.8280 N   0  0  0  0  0  0  0  0  0  0  0  0
   38.1960   30.3130   52.3520 H   0  0  0  0  0  0  0  0  0  0  0  0
   38.6530   31.0630   50.1140 H   0  0  0  0  0  0  0  0  0  0  0  0
   34.4600   28.7300   51.0340 H   0  0  0  0  0  0  0  0  0  0  0  0
   39.4720   33.5990   43.4140 O   0  0  0  0  0  0  0  0  0  0  0  0
   39.7900   31.7980   42.0460 N   0  0  0  0  0  0  0  0  0  0  0  0
   39.3720   33.2160   42.0490 C   0  0  1  0  0  0  0  0  0  0  0  0
   38.0040   33.3000   41.5500 C   0  0  0  0  0  0  0  0  0  0  0  0
   37.9940   32.8890   40.2040 O   0  0  0  0  0  0  0  0  0  0  0  0
   38.5050   31.6490   39.9710 C   0  0  0  0  0  0  0  0  0  0  0  0
   39.8300   31.4150   40.6520 C   0  0  2  0  0  0  0  0  0  0  0  0
   40.7780   31.8140   42.3840 H   0  0  0  0  0  0  0  0  0  0  0  0
   40.0430   33.8010   41.3970 H   0  0  0  0  0  0  0  0  0  0  0  0
   37.7460   34.4010   41.4750 H   0  0  0  0  0  0  0  0  0  0  0  0
   37.1640   32.8240   41.9730 H   0  0  0  0  0  0  0  0  0  0  0  0
   37.8070   30.8600   40.3730 H   0  0  0  0  0  0  0  0  0  0  0  0
   38.6700   31.5320   38.9010 H   0  0  0  0  0  0  0  0  0  0  0  0
   40.6710   31.9000   40.1070 H   0  0  0  0  0  0  0  0  0  0  0  0
   40.0270   29.9210   40.6420 C   0  0  0  0  0  0  0  0  0  0  0  0
   39.1420   28.9050   40.3010 C   0  0  0  0  0  0  0  0  0  0  0  0
   38.1330   29.2010   39.9840 H   0  0  0  0  0  0  0  0  0  0  0  0
   39.8110   27.6950   40.4610 C   0  0  0  0  0  0  0  0  0  0  0  0
   39.2800   26.7730   40.2400 H   0  0  0  0  0  0  0  0  0  0  0  0
   41.0490   27.9790   40.8820 N   0  0  0  0  0  0  0  0  0  0  0  0
   41.7490   27.2270   41.0750 H   0  0  0  0  0  0  0  0  0  0  0  0
   41.1810   29.3000   40.9920 N   0  0  0  0  0  0  0  0  0  0  0  0
  1 10  1  0  0  0  0
  1  2  1  0  0  0  0
  2 16  1  0  0  0  0
  3  2  2  0  0  0  0
  3 11  1  0  0  0  0
  4  3  1  0  0  0  0
  5 12  1  0  0  0  0
  5  4  1  0  0  0  0
  6  5  1  0  0  0  0
  7  6  2  0  0  0  0
  7  8  1  0  0  0  0
  8  9  1  0  0  0  0
  8  4  2  0  0  0  0
  9  1  2  0  0  0  0
 13  9  1  0  0  0  0
 14 19  1  0  0  0  0
 14 20  1  0  0  0  0
 15 14  2  0  0  0  0
 16 17  2  0  0  0  0
 16 15  1  0  0  0  0
 17 18  1  0  0  0  0
 18 22  1  0  0  0  0
 18 19  2  0  0  0  0
 21 15  1  0  0  0  0
 23  6  1  0  0  0  0
 24 25  1  0  0  0  0
 24 30  1  0  0  0  0
 25 31  1  6  0  0  0
 25 23  1  0  0  0  0
 26 33  1  0  0  0  0
 26 25  1  0  0  0  0
 27 26  1  0  0  0  0
 28 27  1  0  0  0  0
 28 34  1  0  0  0  0
 28 29  1  0  0  0  0
 29 36  1  6  0  0  0
 29 24  1  0  0  0  0
 32 26  1  0  0  0  0
 35 28  1  0  0  0  0
 37 29  1  0  0  0  0
 37 44  2  0  0  0  0
 38 40  2  0  0  0  0
 38 37  1  0  0  0  0
 39 38  1  0  0  0  0
 40 42  1  0  0  0  0
 41 40  1  0  0  0  0
 42 44  1  0  0  0  0
 42 43  1  0  0  0  0
M  END
>  <minimizedAffinity>
-5.9012351

>  <minimizedRMSD>
0.42872715

$$$$
