
 OpenBabel03262522083D

 19 20  0  0  0  0  0  0  0  0999 V2000
   38.0600   31.0830   48.0190 C   0  0  0  0  0  0  0  0  0  0  0  0
   38.2520   30.3880   47.0250 O   0  0  0  0  0  0  0  0  0  0  0  0
   37.6960   29.8090   50.1140 C   0  0  0  0  0  0  0  0  0  0  0  0
   37.1330   30.5090   49.0020 C   0  0  0  0  0  0  0  0  0  0  0  0
   35.7350   30.5880   48.9400 C   0  0  0  0  0  0  0  0  0  0  0  0
   35.0040   30.0070   49.9220 N   0  0  0  0  0  0  0  0  0  0  0  0
   35.5780   29.3610   50.9480 C   0  0  0  0  0  0  0  0  0  0  0  0
   36.9020   29.2480   51.0660 N   0  0  0  0  0  0  0  0  0  0  0  0
   38.7750   29.7440   50.1670 H   0  0  0  0  0  0  0  0  0  0  0  0
   35.3520   31.1240   48.0840 H   0  0  0  0  0  0  0  0  0  0  0  0
   34.9690   28.9060   51.7200 H   0  0  0  0  0  0  0  0  0  0  0  0
   38.6830   32.3640   48.2250 C   0  0  0  0  0  0  0  0  0  0  0  0
   38.6270   33.0630   49.3950 C   0  0  0  0  0  0  0  0  0  0  0  0
   38.1310   32.7970   50.3310 H   0  0  0  0  0  0  0  0  0  0  0  0
   39.3420   34.2310   49.1900 C   0  0  0  0  0  0  0  0  0  0  0  0
   39.5360   35.0560   49.8750 H   0  0  0  0  0  0  0  0  0  0  0  0
   39.8130   34.2160   47.9120 N   0  0  0  0  0  0  0  0  0  0  0  0
   40.3930   34.9150   47.3820 H   0  0  0  0  0  0  0  0  0  0  0  0
   39.4050   33.0830   47.3460 N   0  0  0  0  0  0  0  0  0  0  0  0
  1 12  1  0  0  0  0
  1  4  1  0  0  0  0
  2  1  2  0  0  0  0
  3  9  1  0  0  0  0
  3  8  1  0  0  0  0
  4  3  2  0  0  0  0
  5  4  1  0  0  0  0
  5  6  2  0  0  0  0
  6  7  1  0  0  0  0
  7  8  2  0  0  0  0
  7 11  1  0  0  0  0
 10  5  1  0  0  0  0
 12 13  1  0  0  0  0
 13 14  1  0  0  0  0
 15 13  2  0  0  0  0
 15 16  1  0  0  0  0
 17 15  1  0  0  0  0
 18 17  1  0  0  0  0
 19 17  1  0  0  0  0
 19 12  2  0  0  0  0
M  END
>  <minimizedAffinity>
-4.8508935

>  <minimizedRMSD>
2.5930469

$$$$
