
 OpenBabel03272508433D

 26 28  0  0  0  0  0  0  0  0999 V2000
   35.8320   30.1840   49.9450 C   0  0  0  0  0  0  0  0  0  0  0  0
   36.7400   29.8220   50.9150 C   0  0  0  0  0  0  0  0  0  0  0  0
   37.8400   30.6570   50.6530 C   0  0  0  0  0  0  0  0  0  0  0  0
   37.5360   31.4440   49.5740 C   0  0  0  0  0  0  0  0  0  0  0  0
   36.3380   31.1460   49.1700 O   0  0  0  0  0  0  0  0  0  0  0  0
   36.6820   29.0960   51.7020 H   0  0  0  0  0  0  0  0  0  0  0  0
   38.7730   30.6650   51.2230 H   0  0  0  0  0  0  0  0  0  0  0  0
   38.3630   32.4620   48.9360 C   0  0  0  0  0  0  0  0  0  0  0  0
   38.9080   33.5560   49.5730 C   0  0  0  0  0  0  0  0  0  0  0  0
   38.8050   33.8210   50.6340 H   0  0  0  0  0  0  0  0  0  0  0  0
   39.6270   34.2970   48.6570 C   0  0  0  0  0  0  0  0  0  0  0  0
   40.1610   35.2110   48.8830 H   0  0  0  0  0  0  0  0  0  0  0  0
   39.5030   33.6350   47.4800 N   0  0  0  0  0  0  0  0  0  0  0  0
   39.9530   33.9780   46.6040 H   0  0  0  0  0  0  0  0  0  0  0  0
   38.7570   32.5490   47.6400 N   0  0  0  0  0  0  0  0  0  0  0  0
   34.5000   29.5830   49.7980 C   0  0  0  0  0  0  0  0  0  0  0  0
   33.7010   29.7020   50.7500 O   0  0  0  0  0  0  0  0  0  0  0  0
   33.8320   26.8380   47.5110 C   0  0  0  0  0  0  0  0  0  0  0  0
   33.5380   27.4750   46.3090 C   0  0  0  0  0  0  0  0  0  0  0  0
   33.5640   28.8710   46.2630 C   0  0  0  0  0  0  0  0  0  0  0  0
   33.8780   29.5240   47.4060 N   0  0  0  0  0  0  0  0  0  0  0  0
   34.1600   28.8830   48.5640 C   0  0  0  0  0  0  0  0  0  0  0  0
   34.1340   27.5330   48.6050 N   0  0  0  0  0  0  0  0  0  0  0  0
   33.7980   25.7570   47.4890 H   0  0  0  0  0  0  0  0  0  0  0  0
   33.2830   27.0100   45.3720 H   0  0  0  0  0  0  0  0  0  0  0  0
   33.3590   29.4960   45.4010 H   0  0  0  0  0  0  0  0  0  0  0  0
  1  2  2  0  0  0  0
  2  6  1  0  0  0  0
  3  2  1  0  0  0  0
  3  7  1  0  0  0  0
  4  3  2  0  0  0  0
  5  4  1  0  0  0  0
  5  1  1  0  0  0  0
  8  9  1  0  0  0  0
  8  4  1  0  0  0  0
  9 10  1  0  0  0  0
 11 12  1  0  0  0  0
 11  9  2  0  0  0  0
 13 15  1  0  0  0  0
 13 11  1  0  0  0  0
 14 13  1  0  0  0  0
 15  8  2  0  0  0  0
 16  1  1  0  0  0  0
 16 17  2  0  0  0  0
 18 23  1  0  0  0  0
 19 18  2  0  0  0  0
 20 19  1  0  0  0  0
 20 21  2  0  0  0  0
 21 22  1  0  0  0  0
 22 23  2  0  0  0  0
 22 16  1  0  0  0  0
 24 18  1  0  0  0  0
 25 19  1  0  0  0  0
 26 20  1  0  0  0  0
M  END
>  <minimizedAffinity>
-5.73072338

>  <minimizedRMSD>
1.97364509

$$$$
