
 OpenBabel03272505353D

 34 36  0  0  1  0  0  0  0  0999 V2000
   38.9950   23.2860   37.4050 C   0  0  0  0  0  0  0  0  0  0  0  0
   40.1960   22.5580   37.4180 C   0  0  0  0  0  0  0  0  0  0  0  0
   40.8110   22.2830   36.1900 C   0  0  0  0  0  0  0  0  0  0  0  0
   40.2090   22.7400   35.0400 N   0  0  0  0  0  0  0  0  0  0  0  0
   39.0560   23.4320   35.0890 C   0  0  0  0  0  0  0  0  0  0  0  0
   38.4700   23.6940   36.2440 N   0  0  0  0  0  0  0  0  0  0  0  0
   38.5120   23.8580   33.8470 N   0  0  0  0  0  0  0  0  0  0  0  0
   37.5850   22.9850   33.1400 C   0  0  0  0  0  0  0  0  0  0  0  0
   37.8690   22.9540   31.6520 C   0  0  0  0  0  0  0  0  0  0  0  0
   38.1290   24.2360   31.0940 N   0  0  0  0  0  0  0  0  0  0  0  0
   37.9840   25.3260   32.0220 C   0  0  0  0  0  0  0  0  0  0  0  0
   38.8530   25.1530   33.2500 C   0  0  1  0  0  0  0  0  0  0  0  0
   40.6740   22.1980   38.3280 H   0  0  0  0  0  0  0  0  0  0  0  0
   41.7430   21.7260   36.1290 H   0  0  0  0  0  0  0  0  0  0  0  0
   36.5590   23.3720   33.2780 H   0  0  0  0  0  0  0  0  0  0  0  0
   37.6270   21.9730   33.5480 H   0  0  0  0  0  0  0  0  0  0  0  0
   38.7770   22.3140   31.5180 H   0  0  0  0  0  0  0  0  0  0  0  0
   37.0120   22.4260   31.1800 H   0  0  0  0  0  0  0  0  0  0  0  0
   37.6200   24.4860   30.2370 H   0  0  0  0  0  0  0  0  0  0  0  0
   38.4150   26.2290   31.4980 H   0  0  0  0  0  0  0  0  0  0  0  0
   36.9610   25.5710   32.3090 H   0  0  0  0  0  0  0  0  0  0  0  0
   39.9300   25.1830   33.0110 H   0  0  0  0  0  0  0  0  0  0  0  0
   38.5130   26.2630   34.1790 C   0  0  0  0  0  0  0  0  0  0  0  0
   37.3180   26.9440   34.2840 C   0  0  0  0  0  0  0  0  0  0  0  0
   36.4150   26.7660   33.6870 H   0  0  0  0  0  0  0  0  0  0  0  0
   37.4240   27.9140   35.2850 C   0  0  0  0  0  0  0  0  0  0  0  0
   36.6820   28.6190   35.6270 H   0  0  0  0  0  0  0  0  0  0  0  0
   38.6970   27.7820   35.7530 N   0  0  0  0  0  0  0  0  0  0  0  0
   39.1550   28.3340   36.5100 H   0  0  0  0  0  0  0  0  0  0  0  0
   39.3260   26.8310   35.1170 N   0  0  0  0  0  0  0  0  0  0  0  0
   38.3350   23.5820   38.7010 C   0  0  0  0  0  0  0  0  0  0  0  0
   37.7030   24.8250   38.6380 F   0  0  0  0  0  0  0  0  0  0  0  0
   37.4880   22.5510   38.9950 F   0  0  0  0  0  0  0  0  0  0  0  0
   39.3500   23.7040   39.6610 F   0  0  0  0  0  0  0  0  0  0  0  0
  1  2  1  0  0  0  0
  1 31  1  0  0  0  0
  2 13  1  0  0  0  0
  3  2  2  0  0  0  0
  4  5  2  0  0  0  0
  4  3  1  0  0  0  0
  5  6  1  0  0  0  0
  6  1  2  0  0  0  0
  7  5  1  0  0  0  0
  8 15  1  0  0  0  0
  8 16  1  0  0  0  0
  8  7  1  0  0  0  0
  9  8  1  0  0  0  0
 10  9  1  0  0  0  0
 10 11  1  0  0  0  0
 11 21  1  0  0  0  0
 11 12  1  0  0  0  0
 12 22  1  6  0  0  0
 12  7  1  0  0  0  0
 12 23  1  0  0  0  0
 14  3  1  0  0  0  0
 17  9  1  0  0  0  0
 18  9  1  0  0  0  0
 19 10  1  0  0  0  0
 20 11  1  0  0  0  0
 23 24  1  0  0  0  0
 23 30  2  0  0  0  0
 24 26  2  0  0  0  0
 25 24  1  0  0  0  0
 26 27  1  0  0  0  0
 26 28  1  0  0  0  0
 28 29  1  0  0  0  0
 30 28  1  0  0  0  0
 31 33  1  0  0  0  0
 31 34  1  0  0  0  0
 32 31  1  0  0  0  0
M  END
>  <minimizedAffinity>
-5.76004028

$$$$

 OpenBabel03272505353D

 34 36  0  0  1  0  0  0  0  0999 V2000
   38.5550   24.2500   35.1010 C   0  0  0  0  0  0  0  0  0  0  0  0
   39.8080   23.6490   35.3050 C   0  0  0  0  0  0  0  0  0  0  0  0
   40.0420   22.4020   34.7100 C   0  0  0  0  0  0  0  0  0  0  0  0
   39.0370   21.8360   33.9610 N   0  0  0  0  0  0  0  0  0  0  0  0
   37.8550   22.4590   33.8010 C   0  0  0  0  0  0  0  0  0  0  0  0
   37.6270   23.6350   34.3600 N   0  0  0  0  0  0  0  0  0  0  0  0
   36.8810   21.7920   33.0120 N   0  0  0  0  0  0  0  0  0  0  0  0
   35.9480   20.8770   33.6550 C   0  0  0  0  0  0  0  0  0  0  0  0
   35.7490   19.6150   32.8410 C   0  0  0  0  0  0  0  0  0  0  0  0
   35.5870   19.8530   31.4490 N   0  0  0  0  0  0  0  0  0  0  0  0
   35.5530   21.2460   31.0860 C   0  0  0  0  0  0  0  0  0  0  0  0
   36.7810   21.9930   31.5620 C   0  0  1  0  0  0  0  0  0  0  0  0
   40.6040   24.0980   35.8960 H   0  0  0  0  0  0  0  0  0  0  0  0
   40.9900   21.8820   34.8270 H   0  0  0  0  0  0  0  0  0  0  0  0
   34.9670   21.3780   33.7450 H   0  0  0  0  0  0  0  0  0  0  0  0
   36.2940   20.6220   34.6590 H   0  0  0  0  0  0  0  0  0  0  0  0
   36.6660   18.9930   32.9950 H   0  0  0  0  0  0  0  0  0  0  0  0
   34.8940   19.0750   33.3050 H   0  0  0  0  0  0  0  0  0  0  0  0
   34.7980   19.3900   30.9820 H   0  0  0  0  0  0  0  0  0  0  0  0
   35.6300   21.2680   29.9600 H   0  0  0  0  0  0  0  0  0  0  0  0
   34.6470   21.7850   31.3640 H   0  0  0  0  0  0  0  0  0  0  0  0
   37.7050   21.6410   31.0710 H   0  0  0  0  0  0  0  0  0  0  0  0
   36.5610   23.4300   31.2470 C   0  0  0  0  0  0  0  0  0  0  0  0
   35.4210   24.1770   31.4560 C   0  0  0  0  0  0  0  0  0  0  0  0
   34.4820   23.8200   31.8950 H   0  0  0  0  0  0  0  0  0  0  0  0
   35.6390   25.4870   31.0160 C   0  0  0  0  0  0  0  0  0  0  0  0
   34.9640   26.3280   31.0300 H   0  0  0  0  0  0  0  0  0  0  0  0
   36.9200   25.4810   30.5530 N   0  0  0  0  0  0  0  0  0  0  0  0
   37.4500   26.2790   30.1410 H   0  0  0  0  0  0  0  0  0  0  0  0
   37.4530   24.2960   30.6850 N   0  0  0  0  0  0  0  0  0  0  0  0
   38.2970   25.5710   35.7280 C   0  0  0  0  0  0  0  0  0  0  0  0
   39.3810   26.4220   35.5020 F   0  0  0  0  0  0  0  0  0  0  0  0
   37.1140   26.0510   35.2420 F   0  0  0  0  0  0  0  0  0  0  0  0
   38.2400   25.3660   37.1140 F   0  0  0  0  0  0  0  0  0  0  0  0
  1  2  1  0  0  0  0
  1 31  1  0  0  0  0
  2 13  1  0  0  0  0
  3 14  1  0  0  0  0
  3  2  2  0  0  0  0
  4  3  1  0  0  0  0
  5  4  2  0  0  0  0
  5  6  1  0  0  0  0
  6  1  2  0  0  0  0
  7  8  1  0  0  0  0
  7  5  1  0  0  0  0
  8 15  1  0  0  0  0
  8 16  1  0  0  0  0
  9 17  1  0  0  0  0
  9 18  1  0  0  0  0
  9  8  1  0  0  0  0
 10  9  1  0  0  0  0
 11 21  1  0  0  0  0
 11 10  1  0  0  0  0
 11 12  1  0  0  0  0
 12 22  1  6  0  0  0
 12  7  1  0  0  0  0
 19 10  1  0  0  0  0
 20 11  1  0  0  0  0
 23 24  1  0  0  0  0
 23 12  1  0  0  0  0
 24 25  1  0  0  0  0
 26 27  1  0  0  0  0
 26 24  2  0  0  0  0
 28 30  1  0  0  0  0
 28 26  1  0  0  0  0
 29 28  1  0  0  0  0
 30 23  2  0  0  0  0
 31 34  1  0  0  0  0
 32 31  1  0  0  0  0
 33 31  1  0  0  0  0
M  END
>  <minimizedAffinity>
-5.44111776

$$$$

 OpenBabel03272505353D

 34 36  0  0  1  0  0  0  0  0999 V2000
   37.2120   26.2000   33.5260 C   0  0  0  0  0  0  0  0  0  0  0  0
   37.3220   27.4980   34.0490 C   0  0  0  0  0  0  0  0  0  0  0  0
   37.8730   27.6470   35.3280 C   0  0  0  0  0  0  0  0  0  0  0  0
   38.2770   26.5170   36.0010 N   0  0  0  0  0  0  0  0  0  0  0  0
   38.1460   25.2970   35.4500 C   0  0  0  0  0  0  0  0  0  0  0  0
   37.6260   25.1490   34.2440 N   0  0  0  0  0  0  0  0  0  0  0  0
   38.5910   24.1930   36.2260 N   0  0  0  0  0  0  0  0  0  0  0  0
   37.6550   23.5340   37.1270 C   0  0  0  0  0  0  0  0  0  0  0  0
   38.2970   23.2070   38.4600 C   0  0  0  0  0  0  0  0  0  0  0  0
   39.6040   22.6590   38.3460 N   0  0  0  0  0  0  0  0  0  0  0  0
   40.0350   22.4330   36.9910 C   0  0  0  0  0  0  0  0  0  0  0  0
   39.9660   23.6910   36.1500 C   0  0  1  0  0  0  0  0  0  0  0  0
   37.0030   28.3920   33.5160 H   0  0  0  0  0  0  0  0  0  0  0  0
   37.9870   28.6240   35.7910 H   0  0  0  0  0  0  0  0  0  0  0  0
   37.3330   22.5820   36.6670 H   0  0  0  0  0  0  0  0  0  0  0  0
   36.7710   24.1550   37.2810 H   0  0  0  0  0  0  0  0  0  0  0  0
   38.3610   24.1720   39.0230 H   0  0  0  0  0  0  0  0  0  0  0  0
   37.5810   22.5490   39.0000 H   0  0  0  0  0  0  0  0  0  0  0  0
   39.8030   21.8060   38.8830 H   0  0  0  0  0  0  0  0  0  0  0  0
   41.1370   22.2000   37.0590 H   0  0  0  0  0  0  0  0  0  0  0  0
   39.5550   21.6020   36.4740 H   0  0  0  0  0  0  0  0  0  0  0  0
   40.6680   24.4680   36.4980 H   0  0  0  0  0  0  0  0  0  0  0  0
   40.3040   23.2960   34.7570 C   0  0  0  0  0  0  0  0  0  0  0  0
   39.8460   22.2020   34.0520 C   0  0  0  0  0  0  0  0  0  0  0  0
   39.1490   21.4400   34.4180 H   0  0  0  0  0  0  0  0  0  0  0  0
   40.4120   22.2050   32.7730 C   0  0  0  0  0  0  0  0  0  0  0  0
   40.2730   21.5010   31.9680 H   0  0  0  0  0  0  0  0  0  0  0  0
   41.2010   23.3160   32.7540 N   0  0  0  0  0  0  0  0  0  0  0  0
   41.7910   23.6620   31.9660 H   0  0  0  0  0  0  0  0  0  0  0  0
   41.1400   23.9460   33.8960 N   0  0  0  0  0  0  0  0  0  0  0  0
   36.6280   26.0320   32.1720 C   0  0  0  0  0  0  0  0  0  0  0  0
   35.6540   27.0070   31.9520 F   0  0  0  0  0  0  0  0  0  0  0  0
   37.6460   26.0600   31.2610 F   0  0  0  0  0  0  0  0  0  0  0  0
   35.9610   24.7980   32.1600 F   0  0  0  0  0  0  0  0  0  0  0  0
  1  2  2  0  0  0  0
  1  6  1  0  0  0  0
  2  3  1  0  0  0  0
  3 14  1  0  0  0  0
  3  4  2  0  0  0  0
  5  4  1  0  0  0  0
  5  7  1  0  0  0  0
  6  5  2  0  0  0  0
  7  8  1  0  0  0  0
  8 16  1  0  0  0  0
  8  9  1  0  0  0  0
  9 18  1  0  0  0  0
  9 17  1  0  0  0  0
 10  9  1  0  0  0  0
 10 19  1  0  0  0  0
 11 20  1  0  0  0  0
 11 10  1  0  0  0  0
 12  7  1  0  0  0  0
 12 22  1  1  0  0  0
 12 11  1  0  0  0  0
 13  2  1  0  0  0  0
 15  8  1  0  0  0  0
 21 11  1  0  0  0  0
 23 12  1  0  0  0  0
 24 25  1  0  0  0  0
 24 23  1  0  0  0  0
 26 24  2  0  0  0  0
 27 26  1  0  0  0  0
 28 26  1  0  0  0  0
 28 30  1  0  0  0  0
 29 28  1  0  0  0  0
 30 23  2  0  0  0  0
 31  1  1  0  0  0  0
 32 31  1  0  0  0  0
 33 31  1  0  0  0  0
 34 31  1  0  0  0  0
M  END
>  <minimizedAffinity>
-5.36206722

$$$$

 OpenBabel03272505353D

 34 36  0  0  1  0  0  0  0  0999 V2000
   38.0540   23.3950   36.1870 C   0  0  0  0  0  0  0  0  0  0  0  0
   37.7190   22.0770   35.8350 C   0  0  0  0  0  0  0  0  0  0  0  0
   37.5000   21.7950   34.4800 C   0  0  0  0  0  0  0  0  0  0  0  0
   37.6250   22.8190   33.5710 N   0  0  0  0  0  0  0  0  0  0  0  0
   37.9480   24.0640   33.9660 C   0  0  0  0  0  0  0  0  0  0  0  0
   38.1560   24.3370   35.2430 N   0  0  0  0  0  0  0  0  0  0  0  0
   38.0510   25.0520   32.9520 N   0  0  0  0  0  0  0  0  0  0  0  0
   36.8700   25.8210   32.5840 C   0  0  0  0  0  0  0  0  0  0  0  0
   36.7560   25.9910   31.0830 C   0  0  0  0  0  0  0  0  0  0  0  0
   37.9850   26.3240   30.4510 N   0  0  0  0  0  0  0  0  0  0  0  0
   39.0830   26.5260   31.3600 C   0  0  0  0  0  0  0  0  0  0  0  0
   39.3130   25.3270   32.2570 C   0  0  1  0  0  0  0  0  0  0  0  0
   37.6210   21.2670   36.5550 H   0  0  0  0  0  0  0  0  0  0  0  0
   37.2380   20.7960   34.1400 H   0  0  0  0  0  0  0  0  0  0  0  0
   36.9510   26.8290   33.0310 H   0  0  0  0  0  0  0  0  0  0  0  0
   35.9680   25.3460   32.9750 H   0  0  0  0  0  0  0  0  0  0  0  0
   36.4000   25.0080   30.6820 H   0  0  0  0  0  0  0  0  0  0  0  0
   35.9480   26.7360   30.9120 H   0  0  0  0  0  0  0  0  0  0  0  0
   37.9760   27.1130   29.7930 H   0  0  0  0  0  0  0  0  0  0  0  0
   40.0070   26.5750   30.7130 H   0  0  0  0  0  0  0  0  0  0  0  0
   39.0470   27.4420   31.9500 H   0  0  0  0  0  0  0  0  0  0  0  0
   39.6320   24.4340   31.6920 H   0  0  0  0  0  0  0  0  0  0  0  0
   40.3720   25.7120   33.2270 C   0  0  0  0  0  0  0  0  0  0  0  0
   41.5080   25.0070   33.5650 C   0  0  0  0  0  0  0  0  0  0  0  0
   41.8120   24.0340   33.1610 H   0  0  0  0  0  0  0  0  0  0  0  0
   42.2340   25.7280   34.5180 C   0  0  0  0  0  0  0  0  0  0  0  0
   43.1660   25.4710   34.9980 H   0  0  0  0  0  0  0  0  0  0  0  0
   41.4990   26.8570   34.7230 N   0  0  0  0  0  0  0  0  0  0  0  0
   41.7160   27.6470   35.3690 H   0  0  0  0  0  0  0  0  0  0  0  0
   40.4260   26.8490   33.9800 N   0  0  0  0  0  0  0  0  0  0  0  0
   38.2880   23.7040   37.6200 C   0  0  0  0  0  0  0  0  0  0  0  0
   39.5460   23.2380   38.0060 F   0  0  0  0  0  0  0  0  0  0  0  0
   38.1230   25.0490   37.8000 F   0  0  0  0  0  0  0  0  0  0  0  0
   37.3500   22.9680   38.3590 F   0  0  0  0  0  0  0  0  0  0  0  0
  1 31  1  0  0  0  0
  2  1  1  0  0  0  0
  2 13  1  0  0  0  0
  3  2  2  0  0  0  0
  4  5  2  0  0  0  0
  4  3  1  0  0  0  0
  5  6  1  0  0  0  0
  6  1  2  0  0  0  0
  7  5  1  0  0  0  0
  8  7  1  0  0  0  0
  8 16  1  0  0  0  0
  8 15  1  0  0  0  0
  9  8  1  0  0  0  0
 10  9  1  0  0  0  0
 10 11  1  0  0  0  0
 11 21  1  0  0  0  0
 11 12  1  0  0  0  0
 12 22  1  6  0  0  0
 12  7  1  0  0  0  0
 12 23  1  0  0  0  0
 14  3  1  0  0  0  0
 17  9  1  0  0  0  0
 18  9  1  0  0  0  0
 19 10  1  0  0  0  0
 20 11  1  0  0  0  0
 23 24  1  0  0  0  0
 23 30  2  0  0  0  0
 24 26  2  0  0  0  0
 25 24  1  0  0  0  0
 26 28  1  0  0  0  0
 26 27  1  0  0  0  0
 28 29  1  0  0  0  0
 30 28  1  0  0  0  0
 31 33  1  0  0  0  0
 31 32  1  0  0  0  0
 31 34  1  0  0  0  0
M  END
>  <minimizedAffinity>
-5.31138515

$$$$

 OpenBabel03272505353D

 34 36  0  0  1  0  0  0  0  0999 V2000
   37.0800   21.4300   33.2030 C   0  0  0  0  0  0  0  0  0  0  0  0
   37.9060   20.7650   32.2820 C   0  0  0  0  0  0  0  0  0  0  0  0
   39.0640   21.4220   31.8450 C   0  0  0  0  0  0  0  0  0  0  0  0
   39.3290   22.6780   32.3400 N   0  0  0  0  0  0  0  0  0  0  0  0
   38.5010   23.2660   33.2210 C   0  0  0  0  0  0  0  0  0  0  0  0
   37.4070   22.6520   33.6380 N   0  0  0  0  0  0  0  0  0  0  0  0
   38.8620   24.5640   33.6720 N   0  0  0  0  0  0  0  0  0  0  0  0
   38.3890   25.7300   32.9370 C   0  0  0  0  0  0  0  0  0  0  0  0
   39.4750   26.7740   32.7840 C   0  0  0  0  0  0  0  0  0  0  0  0
   40.2220   27.0000   33.9720 N   0  0  0  0  0  0  0  0  0  0  0  0
   39.7510   26.2640   35.1160 C   0  0  0  0  0  0  0  0  0  0  0  0
   39.6980   24.7730   34.8580 C   0  0  1  0  0  0  0  0  0  0  0  0
   37.6960   19.7710   31.8910 H   0  0  0  0  0  0  0  0  0  0  0  0
   39.7470   20.9640   31.1330 H   0  0  0  0  0  0  0  0  0  0  0  0
   37.5570   26.1900   33.5010 H   0  0  0  0  0  0  0  0  0  0  0  0
   38.0140   25.4350   31.9550 H   0  0  0  0  0  0  0  0  0  0  0  0
   40.1680   26.3940   31.9910 H   0  0  0  0  0  0  0  0  0  0  0  0
   38.9780   27.6870   32.3870 H   0  0  0  0  0  0  0  0  0  0  0  0
   40.3570   27.9760   34.2630 H   0  0  0  0  0  0  0  0  0  0  0  0
   40.5500   26.3850   35.9040 H   0  0  0  0  0  0  0  0  0  0  0  0
   38.8100   26.6100   35.5470 H   0  0  0  0  0  0  0  0  0  0  0  0
   40.6990   24.3400   34.6910 H   0  0  0  0  0  0  0  0  0  0  0  0
   39.0740   24.1500   36.0550 C   0  0  0  0  0  0  0  0  0  0  0  0
   37.9620   24.5770   36.7500 C   0  0  0  0  0  0  0  0  0  0  0  0
   37.3540   25.4600   36.5210 H   0  0  0  0  0  0  0  0  0  0  0  0
   37.7150   23.7020   37.8120 C   0  0  0  0  0  0  0  0  0  0  0  0
   36.9300   23.7370   38.5520 H   0  0  0  0  0  0  0  0  0  0  0  0
   38.7020   22.7660   37.7180 N   0  0  0  0  0  0  0  0  0  0  0  0
   38.8550   21.9410   38.3380 H   0  0  0  0  0  0  0  0  0  0  0  0
   39.4860   23.0230   36.7060 N   0  0  0  0  0  0  0  0  0  0  0  0
   35.8510   20.7430   33.6730 C   0  0  0  0  0  0  0  0  0  0  0  0
   35.8910   19.3970   33.3030 F   0  0  0  0  0  0  0  0  0  0  0  0
   35.7400   20.9370   35.0210 F   0  0  0  0  0  0  0  0  0  0  0  0
   34.7720   21.3100   32.9800 F   0  0  0  0  0  0  0  0  0  0  0  0
  1  6  1  0  0  0  0
  1 31  1  0  0  0  0
  2  1  2  0  0  0  0
  3  2  1  0  0  0  0
  3  4  2  0  0  0  0
  4  5  1  0  0  0  0
  5  6  2  0  0  0  0
  5  7  1  0  0  0  0
  7 12  1  0  0  0  0
  8 15  1  0  0  0  0
  8  7  1  0  0  0  0
  9  8  1  0  0  0  0
  9 10  1  0  0  0  0
 10 19  1  0  0  0  0
 10 11  1  0  0  0  0
 11 21  1  0  0  0  0
 11 20  1  0  0  0  0
 12 22  1  6  0  0  0
 12 11  1  0  0  0  0
 12 23  1  0  0  0  0
 13  2  1  0  0  0  0
 14  3  1  0  0  0  0
 16  8  1  0  0  0  0
 17  9  1  0  0  0  0
 18  9  1  0  0  0  0
 23 30  2  0  0  0  0
 23 24  1  0  0  0  0
 24 26  2  0  0  0  0
 25 24  1  0  0  0  0
 26 27  1  0  0  0  0
 28 26  1  0  0  0  0
 28 29  1  0  0  0  0
 30 28  1  0  0  0  0
 31 33  1  0  0  0  0
 32 31  1  0  0  0  0
 34 31  1  0  0  0  0
M  END
>  <minimizedAffinity>
-5.29117775

$$$$

 OpenBabel03272505353D

 34 36  0  0  1  0  0  0  0  0999 V2000
   37.3550   23.2870   31.6300 C   0  0  0  0  0  0  0  0  0  0  0  0
   38.0460   23.8170   30.5290 C   0  0  0  0  0  0  0  0  0  0  0  0
   38.6980   25.0460   30.6930 C   0  0  0  0  0  0  0  0  0  0  0  0
   38.6280   25.6650   31.9190 N   0  0  0  0  0  0  0  0  0  0  0  0
   37.9500   25.1100   32.9390 C   0  0  0  0  0  0  0  0  0  0  0  0
   37.3320   23.9500   32.7920 N   0  0  0  0  0  0  0  0  0  0  0  0
   37.9340   25.8270   34.1650 N   0  0  0  0  0  0  0  0  0  0  0  0
   36.8740   26.7960   34.4090 C   0  0  0  0  0  0  0  0  0  0  0  0
   37.4090   28.0640   35.0440 C   0  0  0  0  0  0  0  0  0  0  0  0
   38.3440   27.8300   36.0880 N   0  0  0  0  0  0  0  0  0  0  0  0
   38.5390   26.4400   36.4070 C   0  0  0  0  0  0  0  0  0  0  0  0
   38.9540   25.6260   35.1990 C   0  0  1  0  0  0  0  0  0  0  0  0
   38.1030   23.3270   29.5590 H   0  0  0  0  0  0  0  0  0  0  0  0
   39.2520   25.5120   29.8810 H   0  0  0  0  0  0  0  0  0  0  0  0
   36.1440   26.3520   35.1100 H   0  0  0  0  0  0  0  0  0  0  0  0
   36.3540   27.0350   33.4800 H   0  0  0  0  0  0  0  0  0  0  0  0
   37.9180   28.6340   34.2260 H   0  0  0  0  0  0  0  0  0  0  0  0
   36.5210   28.6540   35.3620 H   0  0  0  0  0  0  0  0  0  0  0  0
   38.1980   28.3350   36.9710 H   0  0  0  0  0  0  0  0  0  0  0  0
   39.4380   26.4080   37.0900 H   0  0  0  0  0  0  0  0  0  0  0  0
   37.7150   25.9530   36.9300 H   0  0  0  0  0  0  0  0  0  0  0  0
   39.9440   25.9240   34.8120 H   0  0  0  0  0  0  0  0  0  0  0  0
   38.9900   24.2030   35.6290 C   0  0  0  0  0  0  0  0  0  0  0  0
   40.0460   23.3200   35.5470 C   0  0  0  0  0  0  0  0  0  0  0  0
   41.0430   23.5360   35.1440 H   0  0  0  0  0  0  0  0  0  0  0  0
   39.6550   22.0810   36.0640 C   0  0  0  0  0  0  0  0  0  0  0  0
   40.2280   21.1710   36.1530 H   0  0  0  0  0  0  0  0  0  0  0  0
   38.3590   22.2650   36.4440 N   0  0  0  0  0  0  0  0  0  0  0  0
   37.7190   21.5650   36.8780 H   0  0  0  0  0  0  0  0  0  0  0  0
   37.9750   23.4870   36.1940 N   0  0  0  0  0  0  0  0  0  0  0  0
   36.6600   21.9850   31.4670 C   0  0  0  0  0  0  0  0  0  0  0  0
   37.2650   21.2510   30.4450 F   0  0  0  0  0  0  0  0  0  0  0  0
   36.6600   21.3460   32.6740 F   0  0  0  0  0  0  0  0  0  0  0  0
   35.3570   22.2660   31.0320 F   0  0  0  0  0  0  0  0  0  0  0  0
  1  6  1  0  0  0  0
  2  3  1  0  0  0  0
  2  1  2  0  0  0  0
  3  4  2  0  0  0  0
  4  5  1  0  0  0  0
  5  7  1  0  0  0  0
  6  5  2  0  0  0  0
  7  8  1  0  0  0  0
  7 12  1  0  0  0  0
  8  9  1  0  0  0  0
  8 15  1  0  0  0  0
  9 18  1  0  0  0  0
  9 10  1  0  0  0  0
 10 11  1  0  0  0  0
 10 19  1  0  0  0  0
 11 21  1  0  0  0  0
 11 20  1  0  0  0  0
 12 22  1  6  0  0  0
 12 23  1  0  0  0  0
 12 11  1  0  0  0  0
 13  2  1  0  0  0  0
 14  3  1  0  0  0  0
 16  8  1  0  0  0  0
 17  9  1  0  0  0  0
 23 30  2  0  0  0  0
 24 23  1  0  0  0  0
 24 26  2  0  0  0  0
 25 24  1  0  0  0  0
 26 27  1  0  0  0  0
 26 28  1  0  0  0  0
 28 29  1  0  0  0  0
 30 28  1  0  0  0  0
 31  1  1  0  0  0  0
 31 33  1  0  0  0  0
 32 31  1  0  0  0  0
 34 31  1  0  0  0  0
M  END
>  <minimizedAffinity>
-5.24769497

$$$$

 OpenBabel03272505353D

 34 36  0  0  1  0  0  0  0  0999 V2000
   38.7000   26.1680   34.1060 C   0  0  0  0  0  0  0  0  0  0  0  0
   38.7490   25.9450   32.7210 C   0  0  0  0  0  0  0  0  0  0  0  0
   39.6070   24.9460   32.2460 C   0  0  0  0  0  0  0  0  0  0  0  0
   40.3540   24.2380   33.1590 N   0  0  0  0  0  0  0  0  0  0  0  0
   40.2670   24.4960   34.4760 C   0  0  0  0  0  0  0  0  0  0  0  0
   39.4590   25.4380   34.9310 N   0  0  0  0  0  0  0  0  0  0  0  0
   41.0790   23.7120   35.3380 N   0  0  0  0  0  0  0  0  0  0  0  0
   42.4230   24.1720   35.6630 C   0  0  0  0  0  0  0  0  0  0  0  0
   43.4260   23.0370   35.6330 C   0  0  0  0  0  0  0  0  0  0  0  0
   42.9640   21.8490   36.2610 N   0  0  0  0  0  0  0  0  0  0  0  0
   41.6730   21.9730   36.8850 C   0  0  0  0  0  0  0  0  0  0  0  0
   40.6100   22.4480   35.9150 C   0  0  1  0  0  0  0  0  0  0  0  0
   38.1570   26.5050   31.9980 H   0  0  0  0  0  0  0  0  0  0  0  0
   39.6920   24.7210   31.1850 H   0  0  0  0  0  0  0  0  0  0  0  0
   42.4160   24.5870   36.6870 H   0  0  0  0  0  0  0  0  0  0  0  0
   42.7320   24.9610   34.9760 H   0  0  0  0  0  0  0  0  0  0  0  0
   43.6220   22.8190   34.5530 H   0  0  0  0  0  0  0  0  0  0  0  0
   44.3660   23.4380   36.0710 H   0  0  0  0  0  0  0  0  0  0  0  0
   43.5940   21.3990   36.9370 H   0  0  0  0  0  0  0  0  0  0  0  0
   41.3610   20.9200   37.1490 H   0  0  0  0  0  0  0  0  0  0  0  0
   41.6440   22.5630   37.8010 H   0  0  0  0  0  0  0  0  0  0  0  0
   40.4180   21.7170   35.1110 H   0  0  0  0  0  0  0  0  0  0  0  0
   39.3700   22.6620   36.7060 C   0  0  0  0  0  0  0  0  0  0  0  0
   39.2550   23.1900   37.9750 C   0  0  0  0  0  0  0  0  0  0  0  0
   40.0780   23.5410   38.6090 H   0  0  0  0  0  0  0  0  0  0  0  0
   37.9060   23.2150   38.3460 C   0  0  0  0  0  0  0  0  0  0  0  0
   37.4620   23.5620   39.2660 H   0  0  0  0  0  0  0  0  0  0  0  0
   37.2490   22.6940   37.2720 N   0  0  0  0  0  0  0  0  0  0  0  0
   36.2220   22.5480   37.1670 H   0  0  0  0  0  0  0  0  0  0  0  0
   38.0900   22.3740   36.3270 N   0  0  0  0  0  0  0  0  0  0  0  0
   37.7940   27.2260   34.6190 C   0  0  0  0  0  0  0  0  0  0  0  0
   38.4200   27.9270   35.6520 F   0  0  0  0  0  0  0  0  0  0  0  0
   37.4210   28.0170   33.5690 F   0  0  0  0  0  0  0  0  0  0  0  0
   36.6900   26.5800   35.1940 F   0  0  0  0  0  0  0  0  0  0  0  0
  1 31  1  0  0  0  0
  1  6  1  0  0  0  0
  2  1  2  0  0  0  0
  3  2  1  0  0  0  0
  3  4  2  0  0  0  0
  4  5  1  0  0  0  0
  5  6  2  0  0  0  0
  5  7  1  0  0  0  0
  7  8  1  0  0  0  0
  7 12  1  0  0  0  0
  8 15  1  0  0  0  0
  9  8  1  0  0  0  0
  9 18  1  0  0  0  0
  9 10  1  0  0  0  0
 10 11  1  0  0  0  0
 10 19  1  0  0  0  0
 11 20  1  0  0  0  0
 11 21  1  0  0  0  0
 12 22  1  6  0  0  0
 12 23  1  0  0  0  0
 12 11  1  0  0  0  0
 13  2  1  0  0  0  0
 14  3  1  0  0  0  0
 16  8  1  0  0  0  0
 17  9  1  0  0  0  0
 23 24  1  0  0  0  0
 24 26  2  0  0  0  0
 24 25  1  0  0  0  0
 26 27  1  0  0  0  0
 28 26  1  0  0  0  0
 29 28  1  0  0  0  0
 30 23  2  0  0  0  0
 30 28  1  0  0  0  0
 31 34  1  0  0  0  0
 31 32  1  0  0  0  0
 33 31  1  0  0  0  0
M  END
>  <minimizedAffinity>
-5.12770891

$$$$

 OpenBabel03272505353D

 34 36  0  0  1  0  0  0  0  0999 V2000
   36.5330   21.3470   32.6130 C   0  0  0  0  0  0  0  0  0  0  0  0
   37.0340   21.0520   31.3340 C   0  0  0  0  0  0  0  0  0  0  0  0
   37.8770   21.9910   30.7270 C   0  0  0  0  0  0  0  0  0  0  0  0
   38.1710   23.1460   31.4130 N   0  0  0  0  0  0  0  0  0  0  0  0
   37.6620   23.3750   32.6370 C   0  0  0  0  0  0  0  0  0  0  0  0
   36.8640   22.4940   33.2160 N   0  0  0  0  0  0  0  0  0  0  0  0
   38.0230   24.5980   33.2620 N   0  0  0  0  0  0  0  0  0  0  0  0
   37.1950   25.7780   33.0490 C   0  0  0  0  0  0  0  0  0  0  0  0
   38.0360   27.0180   32.8230 C   0  0  0  0  0  0  0  0  0  0  0  0
   39.1350   27.1340   33.7170 N   0  0  0  0  0  0  0  0  0  0  0  0
   39.1910   26.1050   34.7230 C   0  0  0  0  0  0  0  0  0  0  0  0
   39.2060   24.7150   34.1210 C   0  0  1  0  0  0  0  0  0  0  0  0
   36.8020   20.1370   30.7910 H   0  0  0  0  0  0  0  0  0  0  0  0
   38.3000   21.8250   29.7380 H   0  0  0  0  0  0  0  0  0  0  0  0
   36.5820   25.9480   33.9520 H   0  0  0  0  0  0  0  0  0  0  0  0
   36.5230   25.6250   32.2030 H   0  0  0  0  0  0  0  0  0  0  0  0
   38.4300   26.9460   31.7780 H   0  0  0  0  0  0  0  0  0  0  0  0
   37.3360   27.8820   32.8600 H   0  0  0  0  0  0  0  0  0  0  0  0
   39.2630   28.0380   34.1890 H   0  0  0  0  0  0  0  0  0  0  0  0
   40.2040   26.2120   35.2090 H   0  0  0  0  0  0  0  0  0  0  0  0
   38.4410   26.1720   35.5110 H   0  0  0  0  0  0  0  0  0  0  0  0
   40.1180   24.5230   33.5300 H   0  0  0  0  0  0  0  0  0  0  0  0
   39.1280   23.7550   35.2530 C   0  0  0  0  0  0  0  0  0  0  0  0
   40.0190   22.7530   35.5760 C   0  0  0  0  0  0  0  0  0  0  0  0
   40.9420   22.5060   35.0370 H   0  0  0  0  0  0  0  0  0  0  0  0
   39.5680   22.0820   36.7170 C   0  0  0  0  0  0  0  0  0  0  0  0
   40.0190   21.2510   37.2390 H   0  0  0  0  0  0  0  0  0  0  0  0
   38.4050   22.7120   37.0440 N   0  0  0  0  0  0  0  0  0  0  0  0
   37.7700   22.4980   37.8430 H   0  0  0  0  0  0  0  0  0  0  0  0
   38.1500   23.6760   36.2020 N   0  0  0  0  0  0  0  0  0  0  0  0
   35.6380   20.3580   33.2640 C   0  0  0  0  0  0  0  0  0  0  0  0
   36.1190   19.0660   33.0450 F   0  0  0  0  0  0  0  0  0  0  0  0
   35.5310   20.6850   34.5870 F   0  0  0  0  0  0  0  0  0  0  0  0
   34.3980   20.4330   32.6130 F   0  0  0  0  0  0  0  0  0  0  0  0
  1  6  1  0  0  0  0
  1 31  1  0  0  0  0
  2  1  2  0  0  0  0
  3  2  1  0  0  0  0
  3  4  2  0  0  0  0
  4  5  1  0  0  0  0
  5  6  2  0  0  0  0
  5  7  1  0  0  0  0
  7 12  1  0  0  0  0
  8  7  1  0  0  0  0
  8 15  1  0  0  0  0
  9 18  1  0  0  0  0
  9  8  1  0  0  0  0
  9 10  1  0  0  0  0
 10 19  1  0  0  0  0
 10 11  1  0  0  0  0
 11 20  1  0  0  0  0
 11 21  1  0  0  0  0
 12 22  1  6  0  0  0
 12 11  1  0  0  0  0
 12 23  1  0  0  0  0
 13  2  1  0  0  0  0
 14  3  1  0  0  0  0
 16  8  1  0  0  0  0
 17  9  1  0  0  0  0
 23 24  1  0  0  0  0
 23 30  2  0  0  0  0
 24 26  2  0  0  0  0
 25 24  1  0  0  0  0
 26 28  1  0  0  0  0
 26 27  1  0  0  0  0
 28 29  1  0  0  0  0
 30 28  1  0  0  0  0
 31 33  1  0  0  0  0
 32 31  1  0  0  0  0
 34 31  1  0  0  0  0
M  END
>  <minimizedAffinity>
-4.97283459

$$$$

 OpenBabel03272505353D

 34 36  0  0  1  0  0  0  0  0999 V2000
   36.0130   20.8770   32.8570 C   0  0  0  0  0  0  0  0  0  0  0  0
   35.4910   20.5270   34.1130 C   0  0  0  0  0  0  0  0  0  0  0  0
   36.1560   20.9940   35.2540 C   0  0  0  0  0  0  0  0  0  0  0  0
   37.2800   21.7690   35.0850 N   0  0  0  0  0  0  0  0  0  0  0  0
   37.7350   22.0720   33.8560 C   0  0  0  0  0  0  0  0  0  0  0  0
   37.1130   21.6350   32.7750 N   0  0  0  0  0  0  0  0  0  0  0  0
   38.9040   22.8770   33.7860 N   0  0  0  0  0  0  0  0  0  0  0  0
   40.2100   22.2330   33.7610 C   0  0  0  0  0  0  0  0  0  0  0  0
   41.2060   22.9510   34.6480 C   0  0  0  0  0  0  0  0  0  0  0  0
   41.1630   24.3670   34.5260 N   0  0  0  0  0  0  0  0  0  0  0  0
   40.2520   24.8470   33.5210 C   0  0  0  0  0  0  0  0  0  0  0  0
   38.8400   24.3410   33.7380 C   0  0  1  0  0  0  0  0  0  0  0  0
   34.6010   19.9150   34.2470 H   0  0  0  0  0  0  0  0  0  0  0  0
   35.8050   20.7600   36.2560 H   0  0  0  0  0  0  0  0  0  0  0  0
   40.5990   22.2630   32.7270 H   0  0  0  0  0  0  0  0  0  0  0  0
   40.1270   21.1880   34.0640 H   0  0  0  0  0  0  0  0  0  0  0  0
   40.9460   22.6740   35.7010 H   0  0  0  0  0  0  0  0  0  0  0  0
   42.2020   22.5120   34.4210 H   0  0  0  0  0  0  0  0  0  0  0  0
   42.0590   24.8530   34.3930 H   0  0  0  0  0  0  0  0  0  0  0  0
   40.1790   25.9620   33.6860 H   0  0  0  0  0  0  0  0  0  0  0  0
   40.5590   24.6880   32.4870 H   0  0  0  0  0  0  0  0  0  0  0  0
   38.3940   24.7270   34.6710 H   0  0  0  0  0  0  0  0  0  0  0  0
   38.0370   24.7930   32.5710 C   0  0  0  0  0  0  0  0  0  0  0  0
   36.8500   25.4950   32.5820 C   0  0  0  0  0  0  0  0  0  0  0  0
   36.3060   25.8370   33.4700 H   0  0  0  0  0  0  0  0  0  0  0  0
   36.4310   25.7150   31.2650 C   0  0  0  0  0  0  0  0  0  0  0  0
   35.5510   26.2290   30.9110 H   0  0  0  0  0  0  0  0  0  0  0  0
   37.3940   25.1290   30.5000 N   0  0  0  0  0  0  0  0  0  0  0  0
   37.4360   25.0830   29.4590 H   0  0  0  0  0  0  0  0  0  0  0  0
   38.3190   24.5970   31.2500 N   0  0  0  0  0  0  0  0  0  0  0  0
   35.3160   20.3870   31.6420 C   0  0  0  0  0  0  0  0  0  0  0  0
   36.0410   19.3400   31.0700 F   0  0  0  0  0  0  0  0  0  0  0  0
   34.0400   20.0430   31.9900 F   0  0  0  0  0  0  0  0  0  0  0  0
   35.3310   21.4330   30.7080 F   0  0  0  0  0  0  0  0  0  0  0  0
  1  2  1  0  0  0  0
  2 13  1  0  0  0  0
  2  3  2  0  0  0  0
  3 14  1  0  0  0  0
  4  3  1  0  0  0  0
  5  4  2  0  0  0  0
  6  1  2  0  0  0  0
  6  5  1  0  0  0  0
  7  5  1  0  0  0  0
  8  7  1  0  0  0  0
  8 16  1  0  0  0  0
  8  9  1  0  0  0  0
  9 17  1  0  0  0  0
 10  9  1  0  0  0  0
 11 20  1  0  0  0  0
 11 12  1  0  0  0  0
 11 10  1  0  0  0  0
 12  7  1  0  0  0  0
 12 22  1  1  0  0  0
 15  8  1  0  0  0  0
 18  9  1  0  0  0  0
 19 10  1  0  0  0  0
 21 11  1  0  0  0  0
 23 24  1  0  0  0  0
 23 12  1  0  0  0  0
 24 25  1  0  0  0  0
 26 24  2  0  0  0  0
 27 26  1  0  0  0  0
 28 30  1  0  0  0  0
 28 26  1  0  0  0  0
 29 28  1  0  0  0  0
 30 23  2  0  0  0  0
 31 33  1  0  0  0  0
 31  1  1  0  0  0  0
 32 31  1  0  0  0  0
 34 31  1  0  0  0  0
M  END
>  <minimizedAffinity>
-4.93022585

$$$$
