
 OpenBabel03272502003D

 41 45  0  0  0  0  0  0  0  0999 V2000
   34.5420   28.2520   47.9900 C   0  0  0  0  0  0  0  0  0  0  0  0
   35.0060   29.1690   47.6120 H   0  0  0  0  0  0  0  0  0  0  0  0
   34.9790   27.3260   47.5820 H   0  0  0  0  0  0  0  0  0  0  0  0
   33.0650   28.3210   47.6990 C   0  0  0  0  0  0  0  0  0  0  0  0
   32.0830   27.5160   48.2420 C   0  0  0  0  0  0  0  0  0  0  0  0
   30.8480   27.8940   47.7220 C   0  0  0  0  0  0  0  0  0  0  0  0
   31.1300   28.9130   46.8820 N   0  0  0  0  0  0  0  0  0  0  0  0
   32.4320   29.1580   46.8740 N   0  0  0  0  0  0  0  0  0  0  0  0
   28.7410   29.2930   46.2620 N   0  0  0  0  0  0  0  0  0  0  0  0
   30.0560   29.5330   46.1770 C   0  0  0  0  0  0  0  0  0  0  0  0
   30.2070   30.5220   45.2580 N   0  0  0  0  0  0  0  0  0  0  0  0
   29.0160   30.8830   44.7870 C   0  0  0  0  0  0  0  0  0  0  0  0
   28.6800   31.8390   43.8450 C   0  0  0  0  0  0  0  0  0  0  0  0
   27.3970   32.0270   43.5280 N   0  0  0  0  0  0  0  0  0  0  0  0
   26.4510   31.2640   44.1470 C   0  0  0  0  0  0  0  0  0  0  0  0
   26.7620   30.3150   45.0790 N   0  0  0  0  0  0  0  0  0  0  0  0
   28.0630   30.1080   45.4160 C   0  0  0  0  0  0  0  0  0  0  0  0
   32.2800   26.7330   48.9520 H   0  0  0  0  0  0  0  0  0  0  0  0
   29.8970   27.4310   47.9750 H   0  0  0  0  0  0  0  0  0  0  0  0
   28.2840   28.5890   46.8780 H   0  0  0  0  0  0  0  0  0  0  0  0
   29.3900   32.4680   43.3270 H   0  0  0  0  0  0  0  0  0  0  0  0
   25.3810   31.3050   43.9920 H   0  0  0  0  0  0  0  0  0  0  0  0
   34.6600   28.2830   49.5050 C   0  0  0  0  0  0  0  0  0  0  0  0
   34.7310   27.2590   49.9160 H   0  0  0  0  0  0  0  0  0  0  0  0
   33.7390   28.7380   49.9680 H   0  0  0  0  0  0  0  0  0  0  0  0
   37.2190   30.0770   51.5060 C   0  0  0  0  0  0  0  0  0  0  0  0
   37.9050   30.8010   50.5240 C   0  0  0  0  0  0  0  0  0  0  0  0
   37.4750   30.6610   49.1920 C   0  0  0  0  0  0  0  0  0  0  0  0
   36.4390   29.8490   48.9150 N   0  0  0  0  0  0  0  0  0  0  0  0
   35.7940   29.1570   49.9030 C   0  0  0  0  0  0  0  0  0  0  0  0
   36.1990   29.2890   51.1600 N   0  0  0  0  0  0  0  0  0  0  0  0
   37.5270   30.1670   52.5350 H   0  0  0  0  0  0  0  0  0  0  0  0
   38.7180   31.4280   50.8110 H   0  0  0  0  0  0  0  0  0  0  0  0
   38.1910   31.4160   48.1780 C   0  0  0  0  0  0  0  0  0  0  0  0
   38.5660   30.9680   46.9280 C   0  0  0  0  0  0  0  0  0  0  0  0
   38.3990   29.9970   46.4930 H   0  0  0  0  0  0  0  0  0  0  0  0
   39.2190   32.0350   46.3260 C   0  0  0  0  0  0  0  0  0  0  0  0
   39.6660   32.0920   45.3420 H   0  0  0  0  0  0  0  0  0  0  0  0
   39.2140   33.0690   47.2160 N   0  0  0  0  0  0  0  0  0  0  0  0
   39.6430   33.9980   47.0130 H   0  0  0  0  0  0  0  0  0  0  0  0
   38.5870   32.6830   48.3390 N   0  0  0  0  0  0  0  0  0  0  0  0
  1 23  1  0  0  0  0
  2  1  1  0  0  0  0
  3  1  1  0  0  0  0
  4  1  1  0  0  0  0
  4  5  1  0  0  0  0
  5 18  1  0  0  0  0
  6 19  1  0  0  0  0
  6  5  2  0  0  0  0
  7  6  1  0  0  0  0
  8  7  1  0  0  0  0
  8  4  2  0  0  0  0
  9 20  1  0  0  0  0
 10  9  1  0  0  0  0
 10  7  1  0  0  0  0
 11 10  2  0  0  0  0
 12 11  1  0  0  0  0
 12 17  1  0  0  0  0
 13 12  2  0  0  0  0
 14 13  1  0  0  0  0
 14 15  2  0  0  0  0
 15 16  1  0  0  0  0
 16 17  2  0  0  0  0
 17  9  1  0  0  0  0
 21 13  1  0  0  0  0
 22 15  1  0  0  0  0
 23 30  1  0  0  0  0
 23 24  1  0  0  0  0
 23 25  1  0  0  0  0
 26 32  1  0  0  0  0
 27 33  1  0  0  0  0
 27 26  2  0  0  0  0
 28 27  1  0  0  0  0
 29 28  2  0  0  0  0
 29 30  1  0  0  0  0
 30 31  2  0  0  0  0
 31 26  1  0  0  0  0
 34 41  2  0  0  0  0
 34 28  1  0  0  0  0
 35 34  1  0  0  0  0
 36 35  1  0  0  0  0
 37 35  2  0  0  0  0
 37 39  1  0  0  0  0
 38 37  1  0  0  0  0
 39 41  1  0  0  0  0
 40 39  1  0  0  0  0
M  END
>  <minimizedAffinity>
-6.84886026

>  <minimizedRMSD>
0.463650674

$$$$
