
 OpenBabel03272503213D

 34 37  0  0  0  0  0  0  0  0999 V2000
   37.4870   27.4340   34.0290 C   0  0  0  0  0  0  0  0  0  0  0  0
   37.7920   27.6770   35.3030 C   0  0  0  0  0  0  0  0  0  0  0  0
   38.5070   26.7770   36.0080 C   0  0  0  0  0  0  0  0  0  0  0  0
   38.8910   25.6270   35.3500 C   0  0  0  0  0  0  0  0  0  0  0  0
   38.1940   25.8720   33.6830 S   0  0  0  0  0  0  0  0  0  0  0  0
   37.4540   28.6160   35.7620 H   0  0  0  0  0  0  0  0  0  0  0  0
   38.8280   26.8350   37.0390 H   0  0  0  0  0  0  0  0  0  0  0  0
   37.4300   23.6960   37.2050 Cl  0  0  0  0  0  0  0  0  0  0  0  0
   39.0490   23.5510   36.5770 C   0  0  0  0  0  0  0  0  0  0  0  0
   39.6430   24.4570   35.7470 C   0  0  0  0  0  0  0  0  0  0  0  0
   40.8910   24.3760   35.2440 C   0  0  0  0  0  0  0  0  0  0  0  0
   41.6780   23.2720   35.5850 C   0  0  0  0  0  0  0  0  0  0  0  0
   41.1520   22.3210   36.4120 C   0  0  0  0  0  0  0  0  0  0  0  0
   42.0710   20.9040   36.8900 Cl  0  0  0  0  0  0  0  0  0  0  0  0
   39.8580   22.4560   36.9030 C   0  0  0  0  0  0  0  0  0  0  0  0
   41.3490   25.1050   34.5850 H   0  0  0  0  0  0  0  0  0  0  0  0
   42.6860   23.1740   35.1990 H   0  0  0  0  0  0  0  0  0  0  0  0
   39.4490   21.6810   37.5670 H   0  0  0  0  0  0  0  0  0  0  0  0
   34.8470   29.5270   32.3490 C   0  0  0  0  0  0  0  0  0  0  0  0
   35.4800   28.7680   33.3570 C   0  0  0  0  0  0  0  0  0  0  0  0
   36.7350   28.2370   33.0580 C   0  0  0  0  0  0  0  0  0  0  0  0
   37.2860   28.4620   31.8410 N   0  0  0  0  0  0  0  0  0  0  0  0
   36.6560   29.1880   30.9040 C   0  0  0  0  0  0  0  0  0  0  0  0
   35.4420   29.7160   31.1650 N   0  0  0  0  0  0  0  0  0  0  0  0
   33.8650   29.9530   32.5630 H   0  0  0  0  0  0  0  0  0  0  0  0
   35.0350   28.5930   34.3240 H   0  0  0  0  0  0  0  0  0  0  0  0
   37.2370   29.4390   29.5890 C   0  0  0  0  0  0  0  0  0  0  0  0
   37.2160   30.7740   29.1830 C   0  0  0  0  0  0  0  0  0  0  0  0
   36.8680   31.7090   29.6030 H   0  0  0  0  0  0  0  0  0  0  0  0
   37.7990   30.8330   27.9290 C   0  0  0  0  0  0  0  0  0  0  0  0
   38.0000   31.6550   27.2260 H   0  0  0  0  0  0  0  0  0  0  0  0
   38.1440   29.5540   27.6310 N   0  0  0  0  0  0  0  0  0  0  0  0
   38.6100   29.2260   26.7570 H   0  0  0  0  0  0  0  0  0  0  0  0
   37.8140   28.7090   28.6120 N   0  0  0  0  0  0  0  0  0  0  0  0
  1  2  2  0  0  0  0
  2  6  1  0  0  0  0
  2  3  1  0  0  0  0
  3  7  1  0  0  0  0
  4 10  1  0  0  0  0
  4  3  2  0  0  0  0
  5  1  1  0  0  0  0
  5  4  1  0  0  0  0
  9 15  1  0  0  0  0
  9  8  1  0  0  0  0
 10  9  2  0  0  0  0
 11 12  2  0  0  0  0
 11 10  1  0  0  0  0
 12 13  1  0  0  0  0
 13 14  1  0  0  0  0
 13 15  2  0  0  0  0
 15 18  1  0  0  0  0
 16 11  1  0  0  0  0
 17 12  1  0  0  0  0
 19 25  1  0  0  0  0
 19 20  1  0  0  0  0
 20 26  1  0  0  0  0
 21 20  2  0  0  0  0
 21  1  1  0  0  0  0
 22 21  1  0  0  0  0
 23 24  1  0  0  0  0
 23 22  2  0  0  0  0
 24 19  2  0  0  0  0
 27 23  1  0  0  0  0
 28 27  1  0  0  0  0
 28 29  1  0  0  0  0
 30 28  2  0  0  0  0
 31 30  1  0  0  0  0
 32 30  1  0  0  0  0
 32 34  1  0  0  0  0
 33 32  1  0  0  0  0
 34 27  2  0  0  0  0
M  END
>  <minimizedAffinity>
-6.03002596

$$$$

 OpenBabel03272503213D

 34 37  0  0  0  0  0  0  0  0999 V2000
   36.8980   27.4690   33.6790 C   0  0  0  0  0  0  0  0  0  0  0  0
   36.9890   26.4250   32.8570 C   0  0  0  0  0  0  0  0  0  0  0  0
   37.7000   25.3390   33.2210 C   0  0  0  0  0  0  0  0  0  0  0  0
   38.3070   25.3740   34.4600 C   0  0  0  0  0  0  0  0  0  0  0  0
   37.8280   27.0170   35.0890 S   0  0  0  0  0  0  0  0  0  0  0  0
   36.4780   26.4660   31.8850 H   0  0  0  0  0  0  0  0  0  0  0  0
   37.8630   24.4260   32.6660 H   0  0  0  0  0  0  0  0  0  0  0  0
   41.3070   25.5950   33.9530 Cl  0  0  0  0  0  0  0  0  0  0  0  0
   40.4840   24.4810   35.0110 C   0  0  0  0  0  0  0  0  0  0  0  0
   39.1320   24.4380   35.1920 C   0  0  0  0  0  0  0  0  0  0  0  0
   38.4640   23.5920   36.0000 C   0  0  0  0  0  0  0  0  0  0  0  0
   39.1960   22.6570   36.7390 C   0  0  0  0  0  0  0  0  0  0  0  0
   40.5560   22.6400   36.6130 C   0  0  0  0  0  0  0  0  0  0  0  0
   41.5490   21.5000   37.5030 Cl  0  0  0  0  0  0  0  0  0  0  0  0
   41.1930   23.5360   35.7620 C   0  0  0  0  0  0  0  0  0  0  0  0
   37.3880   23.5710   36.1330 H   0  0  0  0  0  0  0  0  0  0  0  0
   38.6920   21.9620   37.4000 H   0  0  0  0  0  0  0  0  0  0  0  0
   42.2880   23.5080   35.6720 H   0  0  0  0  0  0  0  0  0  0  0  0
   35.2450   30.5270   32.2360 C   0  0  0  0  0  0  0  0  0  0  0  0
   35.9290   29.2930   32.2680 C   0  0  0  0  0  0  0  0  0  0  0  0
   36.1960   28.7480   33.5240 C   0  0  0  0  0  0  0  0  0  0  0  0
   35.8000   29.4070   34.6400 N   0  0  0  0  0  0  0  0  0  0  0  0
   35.1520   30.5810   34.5730 C   0  0  0  0  0  0  0  0  0  0  0  0
   34.8790   31.1330   33.3730 N   0  0  0  0  0  0  0  0  0  0  0  0
   35.0260   30.9710   31.2630 H   0  0  0  0  0  0  0  0  0  0  0  0
   36.2410   28.7730   31.3750 H   0  0  0  0  0  0  0  0  0  0  0  0
   34.7190   31.3030   35.7660 C   0  0  0  0  0  0  0  0  0  0  0  0
   33.3720   31.1400   36.0940 C   0  0  0  0  0  0  0  0  0  0  0  0
   32.5310   30.5990   35.6800 H   0  0  0  0  0  0  0  0  0  0  0  0
   33.1340   31.8840   37.2360 C   0  0  0  0  0  0  0  0  0  0  0  0
   32.2390   32.0590   37.8520 H   0  0  0  0  0  0  0  0  0  0  0  0
   34.3240   32.4560   37.5500 N   0  0  0  0  0  0  0  0  0  0  0  0
   34.5140   33.0860   38.3590 H   0  0  0  0  0  0  0  0  0  0  0  0
   35.2810   32.1190   36.6800 N   0  0  0  0  0  0  0  0  0  0  0  0
  1  5  1  0  0  0  0
  2  3  1  0  0  0  0
  2  1  2  0  0  0  0
  3  4  2  0  0  0  0
  4  5  1  0  0  0  0
  4 10  1  0  0  0  0
  6  2  1  0  0  0  0
  7  3  1  0  0  0  0
  8  9  1  0  0  0  0
  9 10  2  0  0  0  0
  9 15  1  0  0  0  0
 10 11  1  0  0  0  0
 11 16  1  0  0  0  0
 11 12  2  0  0  0  0
 12 17  1  0  0  0  0
 13 12  1  0  0  0  0
 13 14  1  0  0  0  0
 15 13  2  0  0  0  0
 18 15  1  0  0  0  0
 19 20  2  0  0  0  0
 19 24  1  0  0  0  0
 20 21  1  0  0  0  0
 21  1  1  0  0  0  0
 21 22  2  0  0  0  0
 23 22  1  0  0  0  0
 23 27  1  0  0  0  0
 24 23  2  0  0  0  0
 25 19  1  0  0  0  0
 26 20  1  0  0  0  0
 27 28  1  0  0  0  0
 27 34  2  0  0  0  0
 28 30  2  0  0  0  0
 29 28  1  0  0  0  0
 30 32  1  0  0  0  0
 30 31  1  0  0  0  0
 32 33  1  0  0  0  0
 34 32  1  0  0  0  0
M  END
>  <minimizedAffinity>
-5.96999311

$$$$

 OpenBabel03272503213D

 34 37  0  0  0  0  0  0  0  0999 V2000
   37.1380   25.2070   32.4560 C   0  0  0  0  0  0  0  0  0  0  0  0
   36.0730   25.3590   31.6710 C   0  0  0  0  0  0  0  0  0  0  0  0
   35.6960   26.5930   31.2770 C   0  0  0  0  0  0  0  0  0  0  0  0
   36.4580   27.6530   31.7230 C   0  0  0  0  0  0  0  0  0  0  0  0
   37.7360   26.8280   32.7290 S   0  0  0  0  0  0  0  0  0  0  0  0
   35.5140   24.4690   31.3520 H   0  0  0  0  0  0  0  0  0  0  0  0
   34.8630   26.8700   30.6470 H   0  0  0  0  0  0  0  0  0  0  0  0
   37.4150   28.6600   29.0080 Cl  0  0  0  0  0  0  0  0  0  0  0  0
   36.7950   29.6030   30.3360 C   0  0  0  0  0  0  0  0  0  0  0  0
   36.3820   29.0840   31.5290 C   0  0  0  0  0  0  0  0  0  0  0  0
   35.9000   29.7840   32.5750 C   0  0  0  0  0  0  0  0  0  0  0  0
   35.7980   31.1730   32.4600 C   0  0  0  0  0  0  0  0  0  0  0  0
   36.1910   31.7660   31.2940 C   0  0  0  0  0  0  0  0  0  0  0  0
   36.0960   33.5030   31.0660 Cl  0  0  0  0  0  0  0  0  0  0  0  0
   36.6830   30.9950   30.2460 C   0  0  0  0  0  0  0  0  0  0  0  0
   35.5750   29.3560   33.5180 H   0  0  0  0  0  0  0  0  0  0  0  0
   35.4130   31.7670   33.2810 H   0  0  0  0  0  0  0  0  0  0  0  0
   36.9950   31.4880   29.3150 H   0  0  0  0  0  0  0  0  0  0  0  0
   38.6050   21.7640   32.8620 C   0  0  0  0  0  0  0  0  0  0  0  0
   38.0140   22.8750   32.2230 C   0  0  0  0  0  0  0  0  0  0  0  0
   37.7480   23.9940   33.0120 C   0  0  0  0  0  0  0  0  0  0  0  0
   38.0590   23.9740   34.3310 N   0  0  0  0  0  0  0  0  0  0  0  0
   38.6210   22.8990   34.9080 C   0  0  0  0  0  0  0  0  0  0  0  0
   38.8900   21.8030   34.1690 N   0  0  0  0  0  0  0  0  0  0  0  0
   38.8220   20.8780   32.2620 H   0  0  0  0  0  0  0  0  0  0  0  0
   37.7690   22.8840   31.1720 H   0  0  0  0  0  0  0  0  0  0  0  0
   38.9620   22.8630   36.3260 C   0  0  0  0  0  0  0  0  0  0  0  0
   38.0660   23.5300   37.1630 C   0  0  0  0  0  0  0  0  0  0  0  0
   37.1480   24.0890   37.0320 H   0  0  0  0  0  0  0  0  0  0  0  0
   38.5350   23.3970   38.4580 C   0  0  0  0  0  0  0  0  0  0  0  0
   38.1700   23.7490   39.4340 H   0  0  0  0  0  0  0  0  0  0  0  0
   39.6760   22.6690   38.3570 N   0  0  0  0  0  0  0  0  0  0  0  0
   40.2960   22.3770   39.1420 H   0  0  0  0  0  0  0  0  0  0  0  0
   39.9450   22.3420   37.0890 N   0  0  0  0  0  0  0  0  0  0  0  0
  1  5  1  0  0  0  0
  1 21  1  0  0  0  0
  2  1  2  0  0  0  0
  3  2  1  0  0  0  0
  3  4  2  0  0  0  0
  4  5  1  0  0  0  0
  6  2  1  0  0  0  0
  7  3  1  0  0  0  0
  8  9  1  0  0  0  0
  9 10  1  0  0  0  0
 10  4  1  0  0  0  0
 10 11  2  0  0  0  0
 11 16  1  0  0  0  0
 12 11  1  0  0  0  0
 12 17  1  0  0  0  0
 13 12  2  0  0  0  0
 14 13  1  0  0  0  0
 15  9  2  0  0  0  0
 15 13  1  0  0  0  0
 18 15  1  0  0  0  0
 19 24  1  0  0  0  0
 20 19  2  0  0  0  0
 20 21  1  0  0  0  0
 21 22  2  0  0  0  0
 22 23  1  0  0  0  0
 23 27  1  0  0  0  0
 24 23  2  0  0  0  0
 25 19  1  0  0  0  0
 26 20  1  0  0  0  0
 27 34  2  0  0  0  0
 27 28  1  0  0  0  0
 28 30  2  0  0  0  0
 29 28  1  0  0  0  0
 30 31  1  0  0  0  0
 32 30  1  0  0  0  0
 32 33  1  0  0  0  0
 34 32  1  0  0  0  0
M  END
>  <minimizedAffinity>
-5.93169069

$$$$

 OpenBabel03272503213D

 34 37  0  0  0  0  0  0  0  0999 V2000
   36.9860   26.9480   33.6560 C   0  0  0  0  0  0  0  0  0  0  0  0
   36.6670   27.8350   34.5960 C   0  0  0  0  0  0  0  0  0  0  0  0
   36.0890   29.0050   34.2530 C   0  0  0  0  0  0  0  0  0  0  0  0
   35.8570   29.2180   32.9090 C   0  0  0  0  0  0  0  0  0  0  0  0
   36.4940   27.6880   32.1490 S   0  0  0  0  0  0  0  0  0  0  0  0
   36.8790   27.5970   35.6480 H   0  0  0  0  0  0  0  0  0  0  0  0
   35.7770   29.8140   34.8990 H   0  0  0  0  0  0  0  0  0  0  0  0
   32.8090   29.2570   32.7990 Cl  0  0  0  0  0  0  0  0  0  0  0  0
   33.9170   30.3890   32.0710 C   0  0  0  0  0  0  0  0  0  0  0  0
   35.2770   30.3110   32.1610 C   0  0  0  0  0  0  0  0  0  0  0  0
   36.1600   31.1670   31.6110 C   0  0  0  0  0  0  0  0  0  0  0  0
   35.6720   32.2490   30.8730 C   0  0  0  0  0  0  0  0  0  0  0  0
   34.3200   32.3950   30.7380 C   0  0  0  0  0  0  0  0  0  0  0  0
   33.6230   33.7230   29.8290 Cl  0  0  0  0  0  0  0  0  0  0  0  0
   33.4530   31.4800   31.3270 C   0  0  0  0  0  0  0  0  0  0  0  0
   37.2390   31.0910   31.6930 H   0  0  0  0  0  0  0  0  0  0  0  0
   36.3530   32.9570   30.4170 H   0  0  0  0  0  0  0  0  0  0  0  0
   32.3690   31.6120   31.2080 H   0  0  0  0  0  0  0  0  0  0  0  0
   38.4610   23.5780   32.8610 C   0  0  0  0  0  0  0  0  0  0  0  0
   37.8550   24.8330   32.6410 C   0  0  0  0  0  0  0  0  0  0  0  0
   37.6090   25.6240   33.7640 C   0  0  0  0  0  0  0  0  0  0  0  0
   37.9520   25.1700   34.9930 N   0  0  0  0  0  0  0  0  0  0  0  0
   38.5270   23.9690   35.1670 C   0  0  0  0  0  0  0  0  0  0  0  0
   38.7780   23.1820   34.1000 N   0  0  0  0  0  0  0  0  0  0  0  0
   38.6630   22.9430   31.9960 H   0  0  0  0  0  0  0  0  0  0  0  0
   37.5840   25.1890   31.6590 H   0  0  0  0  0  0  0  0  0  0  0  0
   38.9030   23.4660   36.4840 C   0  0  0  0  0  0  0  0  0  0  0  0
   38.1720   24.0000   37.5460 C   0  0  0  0  0  0  0  0  0  0  0  0
   37.3690   24.7170   37.6550 H   0  0  0  0  0  0  0  0  0  0  0  0
   38.6520   23.4210   38.7080 C   0  0  0  0  0  0  0  0  0  0  0  0
   38.3900   23.5300   39.7710 H   0  0  0  0  0  0  0  0  0  0  0  0
   39.6360   22.5750   38.3110 N   0  0  0  0  0  0  0  0  0  0  0  0
   40.2190   21.9690   38.9290 H   0  0  0  0  0  0  0  0  0  0  0  0
   39.7990   22.5910   36.9850 N   0  0  0  0  0  0  0  0  0  0  0  0
  1 21  1  0  0  0  0
  1  2  2  0  0  0  0
  2  6  1  0  0  0  0
  3  2  1  0  0  0  0
  3  7  1  0  0  0  0
  4  3  2  0  0  0  0
  5  4  1  0  0  0  0
  5  1  1  0  0  0  0
  9 10  1  0  0  0  0
  9  8  1  0  0  0  0
 10  4  1  0  0  0  0
 11 16  1  0  0  0  0
 11 10  2  0  0  0  0
 12 11  1  0  0  0  0
 13 12  2  0  0  0  0
 13 15  1  0  0  0  0
 14 13  1  0  0  0  0
 15  9  2  0  0  0  0
 17 12  1  0  0  0  0
 18 15  1  0  0  0  0
 19 24  1  0  0  0  0
 20 19  2  0  0  0  0
 20 21  1  0  0  0  0
 21 22  2  0  0  0  0
 22 23  1  0  0  0  0
 23 27  1  0  0  0  0
 24 23  2  0  0  0  0
 25 19  1  0  0  0  0
 26 20  1  0  0  0  0
 27 34  2  0  0  0  0
 27 28  1  0  0  0  0
 28 29  1  0  0  0  0
 28 30  2  0  0  0  0
 30 31  1  0  0  0  0
 32 30  1  0  0  0  0
 32 33  1  0  0  0  0
 34 32  1  0  0  0  0
M  END
>  <minimizedAffinity>
-5.92220736

$$$$

 OpenBabel03272503213D

 34 37  0  0  0  0  0  0  0  0999 V2000
   37.1290   25.2350   32.4890 C   0  0  0  0  0  0  0  0  0  0  0  0
   36.0770   25.4150   31.6920 C   0  0  0  0  0  0  0  0  0  0  0  0
   35.7160   26.6600   31.3210 C   0  0  0  0  0  0  0  0  0  0  0  0
   36.4810   27.7040   31.8020 C   0  0  0  0  0  0  0  0  0  0  0  0
   37.7370   26.8440   32.8070 S   0  0  0  0  0  0  0  0  0  0  0  0
   35.5140   24.5370   31.3450 H   0  0  0  0  0  0  0  0  0  0  0  0
   34.8950   26.9600   30.6850 H   0  0  0  0  0  0  0  0  0  0  0  0
   35.2240   29.2340   34.1220 Cl  0  0  0  0  0  0  0  0  0  0  0  0
   35.8700   29.8860   32.6400 C   0  0  0  0  0  0  0  0  0  0  0  0
   36.4210   29.1390   31.6390 C   0  0  0  0  0  0  0  0  0  0  0  0
   36.9280   29.6100   30.4830 C   0  0  0  0  0  0  0  0  0  0  0  0
   36.9040   30.9890   30.2560 C   0  0  0  0  0  0  0  0  0  0  0  0
   36.3680   31.8040   31.2130 C   0  0  0  0  0  0  0  0  0  0  0  0
   36.2980   33.5440   31.0080 Cl  0  0  0  0  0  0  0  0  0  0  0  0
   35.8570   31.2630   32.3880 C   0  0  0  0  0  0  0  0  0  0  0  0
   37.3630   29.0030   29.6970 H   0  0  0  0  0  0  0  0  0  0  0  0
   37.3030   31.4030   29.3370 H   0  0  0  0  0  0  0  0  0  0  0  0
   35.4300   31.9320   33.1480 H   0  0  0  0  0  0  0  0  0  0  0  0
   38.5100   21.7520   32.8490 C   0  0  0  0  0  0  0  0  0  0  0  0
   37.9320   22.8810   32.2280 C   0  0  0  0  0  0  0  0  0  0  0  0
   37.7200   24.0050   33.0270 C   0  0  0  0  0  0  0  0  0  0  0  0
   38.0670   23.9730   34.3360 N   0  0  0  0  0  0  0  0  0  0  0  0
   38.6140   22.8820   34.8950 C   0  0  0  0  0  0  0  0  0  0  0  0
   38.8310   21.7800   34.1480 N   0  0  0  0  0  0  0  0  0  0  0  0
   38.6850   20.8620   32.2420 H   0  0  0  0  0  0  0  0  0  0  0  0
   37.6590   22.8980   31.1840 H   0  0  0  0  0  0  0  0  0  0  0  0
   38.9930   22.8330   36.3040 C   0  0  0  0  0  0  0  0  0  0  0  0
   38.1360   23.5180   37.1660 C   0  0  0  0  0  0  0  0  0  0  0  0
   37.2290   24.1000   37.0620 H   0  0  0  0  0  0  0  0  0  0  0  0
   38.6380   23.3710   38.4480 C   0  0  0  0  0  0  0  0  0  0  0  0
   38.3080   23.7280   39.4340 H   0  0  0  0  0  0  0  0  0  0  0  0
   39.7580   22.6160   38.3130 N   0  0  0  0  0  0  0  0  0  0  0  0
   40.3920   22.3060   39.0810 H   0  0  0  0  0  0  0  0  0  0  0  0
   39.9830   22.2860   37.0380 N   0  0  0  0  0  0  0  0  0  0  0  0
  1  5  1  0  0  0  0
  1 21  1  0  0  0  0
  2  1  2  0  0  0  0
  3  2  1  0  0  0  0
  3  4  2  0  0  0  0
  4  5  1  0  0  0  0
  6  2  1  0  0  0  0
  7  3  1  0  0  0  0
  9  8  1  0  0  0  0
 10  4  1  0  0  0  0
 10  9  2  0  0  0  0
 11 10  1  0  0  0  0
 12 11  2  0  0  0  0
 12 13  1  0  0  0  0
 13 15  2  0  0  0  0
 14 13  1  0  0  0  0
 15  9  1  0  0  0  0
 15 18  1  0  0  0  0
 16 11  1  0  0  0  0
 17 12  1  0  0  0  0
 19 24  1  0  0  0  0
 20 19  2  0  0  0  0
 20 21  1  0  0  0  0
 21 22  2  0  0  0  0
 22 23  1  0  0  0  0
 23 27  1  0  0  0  0
 24 23  2  0  0  0  0
 25 19  1  0  0  0  0
 26 20  1  0  0  0  0
 27 34  2  0  0  0  0
 27 28  1  0  0  0  0
 28 30  2  0  0  0  0
 29 28  1  0  0  0  0
 30 31  1  0  0  0  0
 32 30  1  0  0  0  0
 32 33  1  0  0  0  0
 34 32  1  0  0  0  0
M  END
>  <minimizedAffinity>
-5.92116308

$$$$

 OpenBabel03272503213D

 34 37  0  0  0  0  0  0  0  0999 V2000
   38.1990   25.6790   35.1980 C   0  0  0  0  0  0  0  0  0  0  0  0
   37.3370   26.6880   35.3090 C   0  0  0  0  0  0  0  0  0  0  0  0
   37.1130   27.5020   34.2580 C   0  0  0  0  0  0  0  0  0  0  0  0
   37.8100   27.2340   33.0970 C   0  0  0  0  0  0  0  0  0  0  0  0
   38.8000   25.7740   33.5590 S   0  0  0  0  0  0  0  0  0  0  0  0
   36.8160   26.8420   36.2640 H   0  0  0  0  0  0  0  0  0  0  0  0
   36.4490   28.3540   34.1980 H   0  0  0  0  0  0  0  0  0  0  0  0
   35.2170   28.5730   32.2090 Cl  0  0  0  0  0  0  0  0  0  0  0  0
   36.7210   28.4740   31.3320 C   0  0  0  0  0  0  0  0  0  0  0  0
   37.8480   27.8560   31.7930 C   0  0  0  0  0  0  0  0  0  0  0  0
   39.0240   27.7610   31.1420 C   0  0  0  0  0  0  0  0  0  0  0  0
   39.1350   28.3390   29.8740 C   0  0  0  0  0  0  0  0  0  0  0  0
   38.0480   28.9770   29.3460 C   0  0  0  0  0  0  0  0  0  0  0  0
   38.1010   29.7290   27.7620 Cl  0  0  0  0  0  0  0  0  0  0  0  0
   36.8580   29.0440   30.0610 C   0  0  0  0  0  0  0  0  0  0  0  0
   39.9110   27.2660   31.5220 H   0  0  0  0  0  0  0  0  0  0  0  0
   40.0660   28.2820   29.3220 H   0  0  0  0  0  0  0  0  0  0  0  0
   35.9930   29.5610   29.6220 H   0  0  0  0  0  0  0  0  0  0  0  0
   38.4680   23.5330   38.2790 C   0  0  0  0  0  0  0  0  0  0  0  0
   37.9920   24.5450   37.4180 C   0  0  0  0  0  0  0  0  0  0  0  0
   38.6120   24.6650   36.1750 C   0  0  0  0  0  0  0  0  0  0  0  0
   39.6240   23.8260   35.8460 N   0  0  0  0  0  0  0  0  0  0  0  0
   40.0530   22.8730   36.6900 C   0  0  0  0  0  0  0  0  0  0  0  0
   39.4720   22.7330   37.8990 N   0  0  0  0  0  0  0  0  0  0  0  0
   37.9960   23.4220   39.2570 H   0  0  0  0  0  0  0  0  0  0  0  0
   37.1850   25.2100   37.6870 H   0  0  0  0  0  0  0  0  0  0  0  0
   41.1420   21.9620   36.3500 C   0  0  0  0  0  0  0  0  0  0  0  0
   41.7130   21.2980   37.4360 C   0  0  0  0  0  0  0  0  0  0  0  0
   41.5550   21.2800   38.5070 H   0  0  0  0  0  0  0  0  0  0  0  0
   42.7160   20.4840   36.9410 C   0  0  0  0  0  0  0  0  0  0  0  0
   43.4270   19.7880   37.4110 H   0  0  0  0  0  0  0  0  0  0  0  0
   42.7140   20.6840   35.5980 N   0  0  0  0  0  0  0  0  0  0  0  0
   43.3440   20.2290   34.9030 H   0  0  0  0  0  0  0  0  0  0  0  0
   41.7790   21.5650   35.2290 N   0  0  0  0  0  0  0  0  0  0  0  0
  1  2  2  0  0  0  0
  1 21  1  0  0  0  0
  2  6  1  0  0  0  0
  3  2  1  0  0  0  0
  4  5  1  0  0  0  0
  4  3  2  0  0  0  0
  5  1  1  0  0  0  0
  7  3  1  0  0  0  0
  9 10  1  0  0  0  0
  9  8  1  0  0  0  0
 10  4  1  0  0  0  0
 11 16  1  0  0  0  0
 11 10  2  0  0  0  0
 12 11  1  0  0  0  0
 13 12  2  0  0  0  0
 13 15  1  0  0  0  0
 14 13  1  0  0  0  0
 15  9  2  0  0  0  0
 17 12  1  0  0  0  0
 18 15  1  0  0  0  0
 19 25  1  0  0  0  0
 20 26  1  0  0  0  0
 20 19  2  0  0  0  0
 21 20  1  0  0  0  0
 22 21  2  0  0  0  0
 22 23  1  0  0  0  0
 23 24  2  0  0  0  0
 24 19  1  0  0  0  0
 27 23  1  0  0  0  0
 27 28  1  0  0  0  0
 28 29  1  0  0  0  0
 30 31  1  0  0  0  0
 30 28  2  0  0  0  0
 32 30  1  0  0  0  0
 33 32  1  0  0  0  0
 34 32  1  0  0  0  0
 34 27  2  0  0  0  0
M  END
>  <minimizedAffinity>
-5.88775969

$$$$

 OpenBabel03272503213D

 34 37  0  0  0  0  0  0  0  0999 V2000
   36.6670   27.6550   33.2220 C   0  0  0  0  0  0  0  0  0  0  0  0
   36.0790   28.5270   32.4050 C   0  0  0  0  0  0  0  0  0  0  0  0
   35.5070   29.6410   32.9060 C   0  0  0  0  0  0  0  0  0  0  0  0
   35.5680   29.8160   34.2730 C   0  0  0  0  0  0  0  0  0  0  0  0
   36.4710   28.3310   34.8230 S   0  0  0  0  0  0  0  0  0  0  0  0
   36.0700   28.3240   31.3250 H   0  0  0  0  0  0  0  0  0  0  0  0
   34.9980   30.4320   32.3720 H   0  0  0  0  0  0  0  0  0  0  0  0
   32.7030   29.4650   35.2610 Cl  0  0  0  0  0  0  0  0  0  0  0  0
   33.8140   30.7520   35.6470 C   0  0  0  0  0  0  0  0  0  0  0  0
   35.0880   30.8470   35.1670 C   0  0  0  0  0  0  0  0  0  0  0  0
   35.9710   31.8270   35.4450 C   0  0  0  0  0  0  0  0  0  0  0  0
   35.5770   32.8580   36.3020 C   0  0  0  0  0  0  0  0  0  0  0  0
   34.3140   32.8320   36.8240 C   0  0  0  0  0  0  0  0  0  0  0  0
   33.7390   34.0860   37.9070 Cl  0  0  0  0  0  0  0  0  0  0  0  0
   33.4430   31.7960   36.5020 C   0  0  0  0  0  0  0  0  0  0  0  0
   36.9810   31.8870   35.0550 H   0  0  0  0  0  0  0  0  0  0  0  0
   36.2610   33.6620   36.5470 H   0  0  0  0  0  0  0  0  0  0  0  0
   32.4310   31.7900   36.9310 H   0  0  0  0  0  0  0  0  0  0  0  0
   38.3840   24.7950   31.4780 C   0  0  0  0  0  0  0  0  0  0  0  0
   37.7280   26.0350   31.6390 C   0  0  0  0  0  0  0  0  0  0  0  0
   37.3520   26.3900   32.9350 C   0  0  0  0  0  0  0  0  0  0  0  0
   37.6220   25.5530   33.9650 N   0  0  0  0  0  0  0  0  0  0  0  0
   38.2480   24.3800   33.7760 C   0  0  0  0  0  0  0  0  0  0  0  0
   38.6240   24.0100   32.5350 N   0  0  0  0  0  0  0  0  0  0  0  0
   38.6870   24.4990   30.4720 H   0  0  0  0  0  0  0  0  0  0  0  0
   37.5160   26.6970   30.8130 H   0  0  0  0  0  0  0  0  0  0  0  0
   38.5460   23.4680   34.8760 C   0  0  0  0  0  0  0  0  0  0  0  0
   39.0580   24.0780   36.0220 C   0  0  0  0  0  0  0  0  0  0  0  0
   39.3020   25.0890   36.3220 H   0  0  0  0  0  0  0  0  0  0  0  0
   39.2820   23.0800   36.9540 C   0  0  0  0  0  0  0  0  0  0  0  0
   39.6710   23.0810   37.9830 H   0  0  0  0  0  0  0  0  0  0  0  0
   38.9040   21.9270   36.3480 N   0  0  0  0  0  0  0  0  0  0  0  0
   38.9360   20.9700   36.7610 H   0  0  0  0  0  0  0  0  0  0  0  0
   38.4620   22.1410   35.1050 N   0  0  0  0  0  0  0  0  0  0  0  0
  1  5  1  0  0  0  0
  2  3  1  0  0  0  0
  2  1  2  0  0  0  0
  3  4  2  0  0  0  0
  4  5  1  0  0  0  0
  4 10  1  0  0  0  0
  6  2  1  0  0  0  0
  7  3  1  0  0  0  0
  8  9  1  0  0  0  0
  9 15  1  0  0  0  0
 10 11  1  0  0  0  0
 10  9  2  0  0  0  0
 11 12  2  0  0  0  0
 12 17  1  0  0  0  0
 12 13  1  0  0  0  0
 13 14  1  0  0  0  0
 15 13  2  0  0  0  0
 15 18  1  0  0  0  0
 16 11  1  0  0  0  0
 19 20  2  0  0  0  0
 19 24  1  0  0  0  0
 20 21  1  0  0  0  0
 21  1  1  0  0  0  0
 21 22  2  0  0  0  0
 23 22  1  0  0  0  0
 23 27  1  0  0  0  0
 24 23  2  0  0  0  0
 25 19  1  0  0  0  0
 26 20  1  0  0  0  0
 27 34  2  0  0  0  0
 27 28  1  0  0  0  0
 28 29  1  0  0  0  0
 28 30  2  0  0  0  0
 30 31  1  0  0  0  0
 32 33  1  0  0  0  0
 32 30  1  0  0  0  0
 34 32  1  0  0  0  0
M  END
>  <minimizedAffinity>
-5.87435913

$$$$

 OpenBabel03272503213D

 34 37  0  0  0  0  0  0  0  0999 V2000
   37.6450   27.1610   33.9880 C   0  0  0  0  0  0  0  0  0  0  0  0
   37.8160   27.4100   35.2850 C   0  0  0  0  0  0  0  0  0  0  0  0
   38.5040   26.5420   36.0540 C   0  0  0  0  0  0  0  0  0  0  0  0
   39.0040   25.4150   35.4330 C   0  0  0  0  0  0  0  0  0  0  0  0
   38.4560   25.6370   33.7080 S   0  0  0  0  0  0  0  0  0  0  0  0
   37.3910   28.3290   35.7120 H   0  0  0  0  0  0  0  0  0  0  0  0
   38.7220   26.6080   37.1110 H   0  0  0  0  0  0  0  0  0  0  0  0
   37.5630   23.5730   37.3920 Cl  0  0  0  0  0  0  0  0  0  0  0  0
   39.1870   23.4150   36.7770 C   0  0  0  0  0  0  0  0  0  0  0  0
   39.7710   24.2800   35.8980 C   0  0  0  0  0  0  0  0  0  0  0  0
   41.0210   24.1880   35.4040 C   0  0  0  0  0  0  0  0  0  0  0  0
   41.8220   23.1160   35.8090 C   0  0  0  0  0  0  0  0  0  0  0  0
   41.3060   22.2060   36.6880 C   0  0  0  0  0  0  0  0  0  0  0  0
   42.2430   20.8320   37.2480 Cl  0  0  0  0  0  0  0  0  0  0  0  0
   40.0090   22.3510   37.1670 C   0  0  0  0  0  0  0  0  0  0  0  0
   41.4710   24.8840   34.7050 H   0  0  0  0  0  0  0  0  0  0  0  0
   42.8320   23.0100   35.4310 H   0  0  0  0  0  0  0  0  0  0  0  0
   39.6090   21.6100   37.8740 H   0  0  0  0  0  0  0  0  0  0  0  0
   36.7270   28.8460   30.7500 C   0  0  0  0  0  0  0  0  0  0  0  0
   37.4810   28.0850   31.6700 C   0  0  0  0  0  0  0  0  0  0  0  0
   36.9510   27.9320   32.9510 C   0  0  0  0  0  0  0  0  0  0  0  0
   35.7620   28.5060   33.2580 N   0  0  0  0  0  0  0  0  0  0  0  0
   35.0710   29.2240   32.3590 C   0  0  0  0  0  0  0  0  0  0  0  0
   35.5580   29.3880   31.1110 N   0  0  0  0  0  0  0  0  0  0  0  0
   37.1240   28.9770   29.7410 H   0  0  0  0  0  0  0  0  0  0  0  0
   38.4270   27.6310   31.4170 H   0  0  0  0  0  0  0  0  0  0  0  0
   33.7900   29.8470   32.6750 C   0  0  0  0  0  0  0  0  0  0  0  0
   33.3680   29.6830   33.9950 C   0  0  0  0  0  0  0  0  0  0  0  0
   33.7550   29.1970   34.8810 H   0  0  0  0  0  0  0  0  0  0  0  0
   32.1500   30.3290   34.1200 C   0  0  0  0  0  0  0  0  0  0  0  0
   31.4500   30.4670   34.9580 H   0  0  0  0  0  0  0  0  0  0  0  0
   31.8880   30.8480   32.8940 N   0  0  0  0  0  0  0  0  0  0  0  0
   31.0480   31.4040   32.6230 H   0  0  0  0  0  0  0  0  0  0  0  0
   32.8580   30.5690   32.0190 N   0  0  0  0  0  0  0  0  0  0  0  0
  1  2  2  0  0  0  0
  2  6  1  0  0  0  0
  2  3  1  0  0  0  0
  3  7  1  0  0  0  0
  4 10  1  0  0  0  0
  4  3  2  0  0  0  0
  5  1  1  0  0  0  0
  5  4  1  0  0  0  0
  9 15  1  0  0  0  0
  9  8  1  0  0  0  0
 10  9  2  0  0  0  0
 11 12  2  0  0  0  0
 11 10  1  0  0  0  0
 12 13  1  0  0  0  0
 13 15  2  0  0  0  0
 13 14  1  0  0  0  0
 15 18  1  0  0  0  0
 16 11  1  0  0  0  0
 17 12  1  0  0  0  0
 19 24  2  0  0  0  0
 19 20  1  0  0  0  0
 20 21  2  0  0  0  0
 21 22  1  0  0  0  0
 21  1  1  0  0  0  0
 23 27  1  0  0  0  0
 23 22  2  0  0  0  0
 24 23  1  0  0  0  0
 25 19  1  0  0  0  0
 26 20  1  0  0  0  0
 27 28  1  0  0  0  0
 28 30  2  0  0  0  0
 28 29  1  0  0  0  0
 30 31  1  0  0  0  0
 32 30  1  0  0  0  0
 33 32  1  0  0  0  0
 34 27  2  0  0  0  0
 34 32  1  0  0  0  0
M  END
>  <minimizedAffinity>
-5.81358671

$$$$

 OpenBabel03272503213D

 34 37  0  0  0  0  0  0  0  0999 V2000
   36.9150   27.5450   32.8440 C   0  0  0  0  0  0  0  0  0  0  0  0
   36.4300   28.5030   32.0550 C   0  0  0  0  0  0  0  0  0  0  0  0
   35.8110   29.5720   32.5950 C   0  0  0  0  0  0  0  0  0  0  0  0
   35.7130   29.6120   33.9710 C   0  0  0  0  0  0  0  0  0  0  0  0
   36.5380   28.0650   34.4710 S   0  0  0  0  0  0  0  0  0  0  0  0
   36.5450   28.4060   30.9670 H   0  0  0  0  0  0  0  0  0  0  0  0
   35.3720   30.4200   32.0870 H   0  0  0  0  0  0  0  0  0  0  0  0
   32.6980   29.3910   34.3720 Cl  0  0  0  0  0  0  0  0  0  0  0  0
   33.7940   30.5160   35.1270 C   0  0  0  0  0  0  0  0  0  0  0  0
   35.1390   30.5590   34.9010 C   0  0  0  0  0  0  0  0  0  0  0  0
   36.0130   31.4140   35.4670 C   0  0  0  0  0  0  0  0  0  0  0  0
   35.5300   32.3590   36.3760 C   0  0  0  0  0  0  0  0  0  0  0  0
   34.1920   32.3770   36.6560 C   0  0  0  0  0  0  0  0  0  0  0  0
   33.5030   33.5300   37.7850 Cl  0  0  0  0  0  0  0  0  0  0  0  0
   33.3350   31.4710   36.0420 C   0  0  0  0  0  0  0  0  0  0  0  0
   37.0810   31.4350   35.2760 H   0  0  0  0  0  0  0  0  0  0  0  0
   36.2040   33.0620   36.8510 H   0  0  0  0  0  0  0  0  0  0  0  0
   32.2620   31.5000   36.2770 H   0  0  0  0  0  0  0  0  0  0  0  0
   39.5210   25.0520   31.7690 C   0  0  0  0  0  0  0  0  0  0  0  0
   38.9380   26.3050   32.0540 C   0  0  0  0  0  0  0  0  0  0  0  0
   37.6210   26.3030   32.5140 C   0  0  0  0  0  0  0  0  0  0  0  0
   36.9660   25.1260   32.6670 N   0  0  0  0  0  0  0  0  0  0  0  0
   37.5510   23.9510   32.3850 C   0  0  0  0  0  0  0  0  0  0  0  0
   38.8240   23.9220   31.9390 N   0  0  0  0  0  0  0  0  0  0  0  0
   40.5510   25.0310   31.4080 H   0  0  0  0  0  0  0  0  0  0  0  0
   39.4660   27.2380   31.9300 H   0  0  0  0  0  0  0  0  0  0  0  0
   36.8580   22.6760   32.5450 C   0  0  0  0  0  0  0  0  0  0  0  0
   35.7660   22.4920   31.6970 C   0  0  0  0  0  0  0  0  0  0  0  0
   35.2770   23.0670   30.9210 H   0  0  0  0  0  0  0  0  0  0  0  0
   35.2320   21.2460   31.9780 C   0  0  0  0  0  0  0  0  0  0  0  0
   34.3810   20.6790   31.5720 H   0  0  0  0  0  0  0  0  0  0  0  0
   36.0080   20.7350   32.9670 N   0  0  0  0  0  0  0  0  0  0  0  0
   35.8940   19.8050   33.4260 H   0  0  0  0  0  0  0  0  0  0  0  0
   36.9840   21.5780   33.3170 N   0  0  0  0  0  0  0  0  0  0  0  0
  1  5  1  0  0  0  0
  2  3  1  0  0  0  0
  2  1  2  0  0  0  0
  3  4  2  0  0  0  0
  4  5  1  0  0  0  0
  4 10  1  0  0  0  0
  6  2  1  0  0  0  0
  7  3  1  0  0  0  0
  8  9  1  0  0  0  0
  9 15  1  0  0  0  0
 10  9  2  0  0  0  0
 10 11  1  0  0  0  0
 11 12  2  0  0  0  0
 12 13  1  0  0  0  0
 12 17  1  0  0  0  0
 13 14  1  0  0  0  0
 15 18  1  0  0  0  0
 15 13  2  0  0  0  0
 16 11  1  0  0  0  0
 19 24  2  0  0  0  0
 19 20  1  0  0  0  0
 20 21  2  0  0  0  0
 21 22  1  0  0  0  0
 21  1  1  0  0  0  0
 23 27  1  0  0  0  0
 23 22  2  0  0  0  0
 24 23  1  0  0  0  0
 25 19  1  0  0  0  0
 26 20  1  0  0  0  0
 27 34  2  0  0  0  0
 28 30  2  0  0  0  0
 28 27  1  0  0  0  0
 29 28  1  0  0  0  0
 30 32  1  0  0  0  0
 31 30  1  0  0  0  0
 32 34  1  0  0  0  0
 32 33  1  0  0  0  0
M  END
>  <minimizedAffinity>
-5.74562311

$$$$
