
 OpenBabel03272509523D

 42 45  0  0  0  0  0  0  0  0999 V2000
   34.4630   28.6440   48.1450 C   0  0  0  0  0  0  0  0  0  0  0  0
   35.2850   28.8740   47.4530 H   0  0  0  0  0  0  0  0  0  0  0  0
   33.8020   29.5520   48.2390 H   0  0  0  0  0  0  0  0  0  0  0  0
   33.5910   27.5210   47.6870 C   0  0  0  0  0  0  0  0  0  0  0  0
   33.7870   26.5680   48.2160 H   0  0  0  0  0  0  0  0  0  0  0  0
   33.8180   27.3380   46.6080 H   0  0  0  0  0  0  0  0  0  0  0  0
   32.1410   27.8490   47.7320 C   0  0  0  0  0  0  0  0  0  0  0  0
   31.3930   27.2960   48.7610 C   0  0  0  0  0  0  0  0  0  0  0  0
   30.0560   27.5270   48.9010 C   0  0  0  0  0  0  0  0  0  0  0  0
   29.4530   28.3080   48.0250 N   0  0  0  0  0  0  0  0  0  0  0  0
   30.1830   28.8620   47.0010 C   0  0  0  0  0  0  0  0  0  0  0  0
   31.5110   28.6440   46.8460 N   0  0  0  0  0  0  0  0  0  0  0  0
   31.8860   26.6490   49.4900 H   0  0  0  0  0  0  0  0  0  0  0  0
   29.4580   27.1000   49.7030 H   0  0  0  0  0  0  0  0  0  0  0  0
   29.5430   29.7300   46.0160 C   0  0  0  0  0  0  0  0  0  0  0  0
   30.3420   30.4530   45.1240 C   0  0  0  0  0  0  0  0  0  0  0  0
   31.4230   30.5230   44.9850 H   0  0  0  0  0  0  0  0  0  0  0  0
   29.4750   31.1870   44.3070 C   0  0  0  0  0  0  0  0  0  0  0  0
   29.6400   31.8740   43.4920 H   0  0  0  0  0  0  0  0  0  0  0  0
   28.2250   30.8950   44.7170 N   0  0  0  0  0  0  0  0  0  0  0  0
   27.3170   31.2770   44.3150 H   0  0  0  0  0  0  0  0  0  0  0  0
   28.2580   30.0250   45.7370 N   0  0  0  0  0  0  0  0  0  0  0  0
   34.9880   28.3760   49.4480 O   0  0  0  0  0  0  0  0  0  0  0  0
   37.3320   30.1690   51.5160 C   0  0  0  0  0  0  0  0  0  0  0  0
   38.0750   30.8640   50.5130 C   0  0  0  0  0  0  0  0  0  0  0  0
   37.7040   30.6570   49.1910 C   0  0  0  0  0  0  0  0  0  0  0  0
   36.6610   29.8060   48.9690 N   0  0  0  0  0  0  0  0  0  0  0  0
   35.9860   29.1700   49.9330 C   0  0  0  0  0  0  0  0  0  0  0  0
   36.3270   29.3560   51.2150 N   0  0  0  0  0  0  0  0  0  0  0  0
   37.6830   30.3840   52.5160 H   0  0  0  0  0  0  0  0  0  0  0  0
   38.8860   31.5240   50.7110 H   0  0  0  0  0  0  0  0  0  0  0  0
   38.9350   33.2710   49.0140 F   0  0  0  0  0  0  0  0  0  0  0  0
   38.9160   32.4870   47.9500 C   0  0  0  0  0  0  0  0  0  0  0  0
   38.3360   31.2710   48.0540 C   0  0  0  0  0  0  0  0  0  0  0  0
   38.3700   30.5240   46.8720 C   0  0  0  0  0  0  0  0  0  0  0  0
   38.9470   30.9940   45.7100 C   0  0  0  0  0  0  0  0  0  0  0  0
   39.5230   32.2380   45.6540 C   0  0  0  0  0  0  0  0  0  0  0  0
   39.4990   32.9860   46.8020 C   0  0  0  0  0  0  0  0  0  0  0  0
   37.9390   29.5220   46.8150 H   0  0  0  0  0  0  0  0  0  0  0  0
   38.9520   30.3840   44.8150 H   0  0  0  0  0  0  0  0  0  0  0  0
   39.9690   32.6010   44.7500 H   0  0  0  0  0  0  0  0  0  0  0  0
   39.9480   33.9670   46.7790 H   0  0  0  0  0  0  0  0  0  0  0  0
  1  3  1  0  0  0  0
  1 23  1  0  0  0  0
  2  1  1  0  0  0  0
  4  7  1  0  0  0  0
  4  1  1  0  0  0  0
  4  5  1  0  0  0  0
  6  4  1  0  0  0  0
  7  8  1  0  0  0  0
  8  9  2  0  0  0  0
  8 13  1  0  0  0  0
  9 14  1  0  0  0  0
 10  9  1  0  0  0  0
 11 10  2  0  0  0  0
 12 11  1  0  0  0  0
 12  7  2  0  0  0  0
 15 11  1  0  0  0  0
 16 15  1  0  0  0  0
 17 16  1  0  0  0  0
 18 20  1  0  0  0  0
 18 16  2  0  0  0  0
 19 18  1  0  0  0  0
 20 22  1  0  0  0  0
 21 20  1  0  0  0  0
 22 15  2  0  0  0  0
 23 28  1  0  0  0  0
 24 30  1  0  0  0  0
 25 31  1  0  0  0  0
 25 24  2  0  0  0  0
 26 25  1  0  0  0  0
 27 26  2  0  0  0  0
 27 28  1  0  0  0  0
 28 29  2  0  0  0  0
 29 24  1  0  0  0  0
 33 34  1  0  0  0  0
 33 32  1  0  0  0  0
 34 26  1  0  0  0  0
 35 34  2  0  0  0  0
 36 35  1  0  0  0  0
 37 36  2  0  0  0  0
 37 38  1  0  0  0  0
 38 33  2  0  0  0  0
 39 35  1  0  0  0  0
 40 36  1  0  0  0  0
 41 37  1  0  0  0  0
 42 38  1  0  0  0  0
M  END
>  <minimizedAffinity>
-6.48834562

>  <minimizedRMSD>
0.229930148

$$$$
