
 OpenBabel03272509523D

 42 45  0  0  0  0  0  0  0  0999 V2000
   34.4150   29.1140   47.7800 C   0  0  0  0  0  0  0  0  0  0  0  0
   35.1060   29.7160   47.1730 H   0  0  0  0  0  0  0  0  0  0  0  0
   33.6350   29.7950   48.2250 H   0  0  0  0  0  0  0  0  0  0  0  0
   33.6830   28.0720   46.9990 C   0  0  0  0  0  0  0  0  0  0  0  0
   34.1640   27.0760   47.0350 H   0  0  0  0  0  0  0  0  0  0  0  0
   33.6900   28.3890   45.9270 H   0  0  0  0  0  0  0  0  0  0  0  0
   32.2460   27.9660   47.3660 C   0  0  0  0  0  0  0  0  0  0  0  0
   31.8940   27.0000   48.2980 C   0  0  0  0  0  0  0  0  0  0  0  0
   30.6070   26.8120   48.7100 C   0  0  0  0  0  0  0  0  0  0  0  0
   29.6620   27.5800   48.2030 N   0  0  0  0  0  0  0  0  0  0  0  0
   29.9970   28.5410   47.2790 C   0  0  0  0  0  0  0  0  0  0  0  0
   31.2690   28.7420   46.8580 N   0  0  0  0  0  0  0  0  0  0  0  0
   32.6720   26.3610   48.7220 H   0  0  0  0  0  0  0  0  0  0  0  0
   30.3190   26.0590   49.4390 H   0  0  0  0  0  0  0  0  0  0  0  0
   28.9720   29.4060   46.7000 C   0  0  0  0  0  0  0  0  0  0  0  0
   27.7830   29.6180   47.4050 C   0  0  0  0  0  0  0  0  0  0  0  0
   27.4160   29.2540   48.3680 H   0  0  0  0  0  0  0  0  0  0  0  0
   26.9970   30.4730   46.6260 C   0  0  0  0  0  0  0  0  0  0  0  0
   26.0170   30.9020   46.7660 H   0  0  0  0  0  0  0  0  0  0  0  0
   27.7100   30.7430   45.5150 N   0  0  0  0  0  0  0  0  0  0  0  0
   27.4150   31.3630   44.7030 H   0  0  0  0  0  0  0  0  0  0  0  0
   28.8910   30.1080   45.5520 N   0  0  0  0  0  0  0  0  0  0  0  0
   35.1210   28.5210   48.8730 O   0  0  0  0  0  0  0  0  0  0  0  0
   37.2870   30.0690   51.3010 C   0  0  0  0  0  0  0  0  0  0  0  0
   38.0990   30.8720   50.4420 C   0  0  0  0  0  0  0  0  0  0  0  0
   37.8310   30.8150   49.0800 C   0  0  0  0  0  0  0  0  0  0  0  0
   36.8140   29.9940   48.6860 N   0  0  0  0  0  0  0  0  0  0  0  0
   36.0730   29.2560   49.5180 C   0  0  0  0  0  0  0  0  0  0  0  0
   36.3150   29.2970   50.8360 N   0  0  0  0  0  0  0  0  0  0  0  0
   37.5600   30.1710   52.3430 H   0  0  0  0  0  0  0  0  0  0  0  0
   38.8880   31.5050   50.7730 H   0  0  0  0  0  0  0  0  0  0  0  0
   38.8480   33.5220   49.2130 F   0  0  0  0  0  0  0  0  0  0  0  0
   39.0250   32.8130   48.1120 C   0  0  0  0  0  0  0  0  0  0  0  0
   38.5430   31.5510   48.0710 C   0  0  0  0  0  0  0  0  0  0  0  0
   38.7850   30.8920   46.8620 C   0  0  0  0  0  0  0  0  0  0  0  0
   39.4570   31.4820   45.8120 C   0  0  0  0  0  0  0  0  0  0  0  0
   39.9280   32.7680   45.9010 C   0  0  0  0  0  0  0  0  0  0  0  0
   39.7000   33.4320   47.0780 C   0  0  0  0  0  0  0  0  0  0  0  0
   38.4500   29.8650   46.6920 H   0  0  0  0  0  0  0  0  0  0  0  0
   39.6230   30.9370   44.8910 H   0  0  0  0  0  0  0  0  0  0  0  0
   40.4490   33.2250   45.0840 H   0  0  0  0  0  0  0  0  0  0  0  0
   40.0630   34.4440   47.1690 H   0  0  0  0  0  0  0  0  0  0  0  0
  1  3  1  0  0  0  0
  1 23  1  0  0  0  0
  2  1  1  0  0  0  0
  4  5  1  0  0  0  0
  4  7  1  0  0  0  0
  4  1  1  0  0  0  0
  6  4  1  0  0  0  0
  7  8  1  0  0  0  0
  8  9  2  0  0  0  0
  8 13  1  0  0  0  0
  9 14  1  0  0  0  0
 10  9  1  0  0  0  0
 11 10  2  0  0  0  0
 12 11  1  0  0  0  0
 12  7  2  0  0  0  0
 15 11  1  0  0  0  0
 15 16  1  0  0  0  0
 16 17  1  0  0  0  0
 18 19  1  0  0  0  0
 18 16  2  0  0  0  0
 20 22  1  0  0  0  0
 20 18  1  0  0  0  0
 21 20  1  0  0  0  0
 22 15  2  0  0  0  0
 23 28  1  0  0  0  0
 24 30  1  0  0  0  0
 25 31  1  0  0  0  0
 25 24  2  0  0  0  0
 26 25  1  0  0  0  0
 27 26  2  0  0  0  0
 27 28  1  0  0  0  0
 28 29  2  0  0  0  0
 29 24  1  0  0  0  0
 33 32  1  0  0  0  0
 34 33  1  0  0  0  0
 34 26  1  0  0  0  0
 35 34  2  0  0  0  0
 36 37  2  0  0  0  0
 36 35  1  0  0  0  0
 37 38  1  0  0  0  0
 38 42  1  0  0  0  0
 38 33  2  0  0  0  0
 39 35  1  0  0  0  0
 40 36  1  0  0  0  0
 41 37  1  0  0  0  0
M  END
>  <minimizedAffinity>
-6.66245842

>  <minimizedRMSD>
0.94536978

$$$$
