
 OpenBabel03272509563D

 42 45  0  0  0  0  0  0  0  0999 V2000
   38.1930   26.5420   32.8710 C   0  0  0  0  0  0  0  0  0  0  0  0
   38.9160   26.4770   33.6950 H   0  0  0  0  0  0  0  0  0  0  0  0
   38.5660   27.2950   32.1200 H   0  0  0  0  0  0  0  0  0  0  0  0
   38.0050   25.2560   32.1350 C   0  0  0  0  0  0  0  0  0  0  0  0
   38.7860   25.0660   31.3730 H   0  0  0  0  0  0  0  0  0  0  0  0
   37.0340   25.3220   31.5850 H   0  0  0  0  0  0  0  0  0  0  0  0
   37.8660   24.0800   33.0360 C   0  0  0  0  0  0  0  0  0  0  0  0
   37.2170   22.9630   32.5320 C   0  0  0  0  0  0  0  0  0  0  0  0
   37.0310   21.8290   33.2670 C   0  0  0  0  0  0  0  0  0  0  0  0
   37.4880   21.7950   34.5050 N   0  0  0  0  0  0  0  0  0  0  0  0
   38.1320   22.8960   35.0160 C   0  0  0  0  0  0  0  0  0  0  0  0
   38.3260   24.0300   34.3010 N   0  0  0  0  0  0  0  0  0  0  0  0
   36.8370   22.9840   31.5080 H   0  0  0  0  0  0  0  0  0  0  0  0
   36.5250   20.9470   32.8840 H   0  0  0  0  0  0  0  0  0  0  0  0
   38.6480   22.8880   36.3820 C   0  0  0  0  0  0  0  0  0  0  0  0
   37.9240   23.5370   37.3880 C   0  0  0  0  0  0  0  0  0  0  0  0
   36.9830   24.0940   37.3830 H   0  0  0  0  0  0  0  0  0  0  0  0
   38.6410   23.3710   38.5770 C   0  0  0  0  0  0  0  0  0  0  0  0
   38.4680   23.6950   39.5900 H   0  0  0  0  0  0  0  0  0  0  0  0
   39.7370   22.6520   38.2640 N   0  0  0  0  0  0  0  0  0  0  0  0
   40.5070   22.3420   38.9300 H   0  0  0  0  0  0  0  0  0  0  0  0
   39.7480   22.3610   36.9550 N   0  0  0  0  0  0  0  0  0  0  0  0
   36.9420   27.0290   33.3620 O   0  0  0  0  0  0  0  0  0  0  0  0
   36.1990   30.0880   31.6060 C   0  0  0  0  0  0  0  0  0  0  0  0
   35.5660   30.8320   32.6490 C   0  0  0  0  0  0  0  0  0  0  0  0
   35.4460   30.2130   33.8870 C   0  0  0  0  0  0  0  0  0  0  0  0
   35.9440   28.9470   33.9940 N   0  0  0  0  0  0  0  0  0  0  0  0
   36.5310   28.2780   32.9960 C   0  0  0  0  0  0  0  0  0  0  0  0
   36.6580   28.8570   31.7940 N   0  0  0  0  0  0  0  0  0  0  0  0
   36.2520   30.6390   30.6770 H   0  0  0  0  0  0  0  0  0  0  0  0
   35.1850   31.8190   32.5410 H   0  0  0  0  0  0  0  0  0  0  0  0
   36.6820   31.8830   35.9020 F   0  0  0  0  0  0  0  0  0  0  0  0
   35.3970   31.5890   35.9990 C   0  0  0  0  0  0  0  0  0  0  0  0
   34.8400   30.8070   35.0480 C   0  0  0  0  0  0  0  0  0  0  0  0
   33.4780   30.5570   35.2460 C   0  0  0  0  0  0  0  0  0  0  0  0
   32.7750   31.0680   36.3180 C   0  0  0  0  0  0  0  0  0  0  0  0
   33.3860   31.8570   37.2590 C   0  0  0  0  0  0  0  0  0  0  0  0
   34.7210   32.1130   37.0830 C   0  0  0  0  0  0  0  0  0  0  0  0
   32.9020   29.9410   34.5520 H   0  0  0  0  0  0  0  0  0  0  0  0
   31.7210   30.8500   36.4350 H   0  0  0  0  0  0  0  0  0  0  0  0
   32.8390   32.2510   38.0910 H   0  0  0  0  0  0  0  0  0  0  0  0
   35.2200   32.7320   37.8120 H   0  0  0  0  0  0  0  0  0  0  0  0
  1 23  1  0  0  0  0
  1  2  1  0  0  0  0
  3  1  1  0  0  0  0
  4  1  1  0  0  0  0
  4  7  1  0  0  0  0
  5  4  1  0  0  0  0
  6  4  1  0  0  0  0
  7 12  1  0  0  0  0
  8  7  2  0  0  0  0
  8  9  1  0  0  0  0
  9 10  2  0  0  0  0
 10 11  1  0  0  0  0
 11 15  1  0  0  0  0
 12 11  2  0  0  0  0
 13  8  1  0  0  0  0
 14  9  1  0  0  0  0
 15 22  2  0  0  0  0
 15 16  1  0  0  0  0
 16 18  2  0  0  0  0
 17 16  1  0  0  0  0
 18 19  1  0  0  0  0
 20 18  1  0  0  0  0
 20 21  1  0  0  0  0
 22 20  1  0  0  0  0
 24 29  2  0  0  0  0
 24 25  1  0  0  0  0
 25 26  2  0  0  0  0
 26 27  1  0  0  0  0
 26 34  1  0  0  0  0
 28 23  1  0  0  0  0
 28 27  2  0  0  0  0
 29 28  1  0  0  0  0
 30 24  1  0  0  0  0
 31 25  1  0  0  0  0
 32 33  1  0  0  0  0
 33 38  1  0  0  0  0
 34 35  1  0  0  0  0
 34 33  2  0  0  0  0
 35 36  2  0  0  0  0
 36 40  1  0  0  0  0
 36 37  1  0  0  0  0
 37 41  1  0  0  0  0
 38 37  2  0  0  0  0
 38 42  1  0  0  0  0
 39 35  1  0  0  0  0
M  END
>  <minimizedAffinity>
-6.57269621

$$$$

 OpenBabel03272509563D

 42 45  0  0  0  0  0  0  0  0999 V2000
   36.1440   26.4440   31.2540 C   0  0  0  0  0  0  0  0  0  0  0  0
   37.1160   26.4350   30.7420 H   0  0  0  0  0  0  0  0  0  0  0  0
   35.5600   27.3440   30.9100 H   0  0  0  0  0  0  0  0  0  0  0  0
   35.3020   25.2450   30.9610 C   0  0  0  0  0  0  0  0  0  0  0  0
   34.7100   25.3410   30.0300 H   0  0  0  0  0  0  0  0  0  0  0  0
   34.5660   25.1390   31.7960 H   0  0  0  0  0  0  0  0  0  0  0  0
   36.0730   23.9740   30.9550 C   0  0  0  0  0  0  0  0  0  0  0  0
   37.4080   24.0380   30.5820 C   0  0  0  0  0  0  0  0  0  0  0  0
   38.2120   22.9360   30.5400 C   0  0  0  0  0  0  0  0  0  0  0  0
   37.6990   21.7660   30.8670 N   0  0  0  0  0  0  0  0  0  0  0  0
   36.3770   21.6880   31.2380 C   0  0  0  0  0  0  0  0  0  0  0  0
   35.5650   22.7710   31.2860 N   0  0  0  0  0  0  0  0  0  0  0  0
   37.8390   25.0050   30.3100 H   0  0  0  0  0  0  0  0  0  0  0  0
   39.2590   22.9740   30.2500 H   0  0  0  0  0  0  0  0  0  0  0  0
   35.7820   20.4060   31.6050 C   0  0  0  0  0  0  0  0  0  0  0  0
   36.6070   19.2850   31.7370 C   0  0  0  0  0  0  0  0  0  0  0  0
   37.6840   19.1380   31.6170 H   0  0  0  0  0  0  0  0  0  0  0  0
   35.7810   18.2130   32.0890 C   0  0  0  0  0  0  0  0  0  0  0  0
   35.9750   17.1720   32.2920 H   0  0  0  0  0  0  0  0  0  0  0  0
   34.5270   18.7020   32.1580 N   0  0  0  0  0  0  0  0  0  0  0  0
   33.6450   18.1610   32.4020 H   0  0  0  0  0  0  0  0  0  0  0  0
   34.5200   20.0120   31.8690 N   0  0  0  0  0  0  0  0  0  0  0  0
   36.3410   26.5890   32.6630 O   0  0  0  0  0  0  0  0  0  0  0  0
   39.8440   27.1610   33.2870 C   0  0  0  0  0  0  0  0  0  0  0  0
   40.0370   26.3260   34.4310 C   0  0  0  0  0  0  0  0  0  0  0  0
   38.9330   25.6260   34.8990 C   0  0  0  0  0  0  0  0  0  0  0  0
   37.7600   25.8000   34.2230 N   0  0  0  0  0  0  0  0  0  0  0  0
   37.6140   26.5900   33.1540 C   0  0  0  0  0  0  0  0  0  0  0  0
   38.6670   27.2730   32.6860 N   0  0  0  0  0  0  0  0  0  0  0  0
   40.7500   27.6690   32.9870 H   0  0  0  0  0  0  0  0  0  0  0  0
   40.9620   26.2070   34.9430 H   0  0  0  0  0  0  0  0  0  0  0  0
   40.5900   23.2960   35.3510 F   0  0  0  0  0  0  0  0  0  0  0  0
   39.7040   23.6510   36.2650 C   0  0  0  0  0  0  0  0  0  0  0  0
   38.9410   24.7420   36.0340 C   0  0  0  0  0  0  0  0  0  0  0  0
   38.0380   25.0290   37.0630 C   0  0  0  0  0  0  0  0  0  0  0  0
   37.9430   24.2640   38.2070 C   0  0  0  0  0  0  0  0  0  0  0  0
   38.7410   23.1630   38.3950 C   0  0  0  0  0  0  0  0  0  0  0  0
   39.6320   22.8640   37.3970 C   0  0  0  0  0  0  0  0  0  0  0  0
   37.3600   25.8850   37.0090 H   0  0  0  0  0  0  0  0  0  0  0  0
   37.2300   24.5200   38.9810 H   0  0  0  0  0  0  0  0  0  0  0  0
   38.6650   22.5690   39.2830 H   0  0  0  0  0  0  0  0  0  0  0  0
   40.2690   22.0030   37.5260 H   0  0  0  0  0  0  0  0  0  0  0  0
  1 23  1  0  0  0  0
  2  1  1  0  0  0  0
  3  1  1  0  0  0  0
  4  1  1  0  0  0  0
  4  6  1  0  0  0  0
  5  4  1  0  0  0  0
  7  4  1  0  0  0  0
  7 12  1  0  0  0  0
  8  7  2  0  0  0  0
  9  8  1  0  0  0  0
  9 10  2  0  0  0  0
 10 11  1  0  0  0  0
 11 12  2  0  0  0  0
 11 15  1  0  0  0  0
 13  8  1  0  0  0  0
 14  9  1  0  0  0  0
 15 16  1  0  0  0  0
 15 22  2  0  0  0  0
 16 18  2  0  0  0  0
 17 16  1  0  0  0  0
 18 20  1  0  0  0  0
 18 19  1  0  0  0  0
 20 21  1  0  0  0  0
 22 20  1  0  0  0  0
 23 28  1  0  0  0  0
 24 25  1  0  0  0  0
 25 26  2  0  0  0  0
 25 31  1  0  0  0  0
 26 34  1  0  0  0  0
 27 26  1  0  0  0  0
 28 27  2  0  0  0  0
 29 28  1  0  0  0  0
 29 24  2  0  0  0  0
 30 24  1  0  0  0  0
 32 33  1  0  0  0  0
 33 38  1  0  0  0  0
 34 33  2  0  0  0  0
 34 35  1  0  0  0  0
 35 36  2  0  0  0  0
 36 37  1  0  0  0  0
 36 40  1  0  0  0  0
 37 41  1  0  0  0  0
 38 42  1  0  0  0  0
 38 37  2  0  0  0  0
 39 35  1  0  0  0  0
M  END
>  <minimizedAffinity>
-6.39739418

$$$$

 OpenBabel03272509563D

 42 45  0  0  0  0  0  0  0  0999 V2000
   37.2110   26.9980   31.7010 C   0  0  0  0  0  0  0  0  0  0  0  0
   38.0050   27.6470   32.0940 H   0  0  0  0  0  0  0  0  0  0  0  0
   37.5590   26.5430   30.7310 H   0  0  0  0  0  0  0  0  0  0  0  0
   36.8600   25.8640   32.6080 C   0  0  0  0  0  0  0  0  0  0  0  0
   37.0910   24.8700   32.1790 H   0  0  0  0  0  0  0  0  0  0  0  0
   35.7530   25.8910   32.7670 H   0  0  0  0  0  0  0  0  0  0  0  0
   37.4540   25.9930   33.9650 C   0  0  0  0  0  0  0  0  0  0  0  0
   37.5030   27.2620   34.5220 C   0  0  0  0  0  0  0  0  0  0  0  0
   38.0270   27.5000   35.7600 C   0  0  0  0  0  0  0  0  0  0  0  0
   38.5020   26.4820   36.4520 N   0  0  0  0  0  0  0  0  0  0  0  0
   38.4580   25.2200   35.9110 C   0  0  0  0  0  0  0  0  0  0  0  0
   37.9430   24.9650   34.6850 N   0  0  0  0  0  0  0  0  0  0  0  0
   37.1110   28.1100   33.9540 H   0  0  0  0  0  0  0  0  0  0  0  0
   38.0710   28.4900   36.2070 H   0  0  0  0  0  0  0  0  0  0  0  0
   38.9770   24.0740   36.6540 C   0  0  0  0  0  0  0  0  0  0  0  0
   40.0200   23.3210   36.1040 C   0  0  0  0  0  0  0  0  0  0  0  0
   40.5790   23.4010   35.1680 H   0  0  0  0  0  0  0  0  0  0  0  0
   40.3090   22.3020   37.0170 C   0  0  0  0  0  0  0  0  0  0  0  0
   41.0270   21.4970   37.0160 H   0  0  0  0  0  0  0  0  0  0  0  0
   39.4640   22.4650   38.0540 N   0  0  0  0  0  0  0  0  0  0  0  0
   39.4070   21.8650   38.9290 H   0  0  0  0  0  0  0  0  0  0  0  0
   38.6650   23.5220   37.8430 N   0  0  0  0  0  0  0  0  0  0  0  0
   36.0520   27.7800   31.4010 O   0  0  0  0  0  0  0  0  0  0  0  0
   36.5640   31.3270   31.0170 C   0  0  0  0  0  0  0  0  0  0  0  0
   36.0520   31.7940   32.2670 C   0  0  0  0  0  0  0  0  0  0  0  0
   35.5680   30.8380   33.1500 C   0  0  0  0  0  0  0  0  0  0  0  0
   35.6230   29.5370   32.7430 N   0  0  0  0  0  0  0  0  0  0  0  0
   36.1100   29.1340   31.5650 C   0  0  0  0  0  0  0  0  0  0  0  0
   36.5830   30.0390   30.6980 N   0  0  0  0  0  0  0  0  0  0  0  0
   36.9210   32.1320   30.3880 H   0  0  0  0  0  0  0  0  0  0  0  0
   36.0190   32.8150   32.5620 H   0  0  0  0  0  0  0  0  0  0  0  0
   36.7770   32.3080   35.3310 F   0  0  0  0  0  0  0  0  0  0  0  0
   35.5630   31.8060   35.4790 C   0  0  0  0  0  0  0  0  0  0  0  0
   35.0170   31.1230   34.4480 C   0  0  0  0  0  0  0  0  0  0  0  0
   33.7330   30.6350   34.7100 C   0  0  0  0  0  0  0  0  0  0  0  0
   33.0890   30.8380   35.9130 C   0  0  0  0  0  0  0  0  0  0  0  0
   33.6860   31.5390   36.9310 C   0  0  0  0  0  0  0  0  0  0  0  0
   34.9450   32.0250   36.6940 C   0  0  0  0  0  0  0  0  0  0  0  0
   33.1740   30.0660   33.9640 H   0  0  0  0  0  0  0  0  0  0  0  0
   32.0940   30.4430   36.0750 H   0  0  0  0  0  0  0  0  0  0  0  0
   33.1850   31.6940   37.8640 H   0  0  0  0  0  0  0  0  0  0  0  0
   35.4330   32.5790   37.4820 H   0  0  0  0  0  0  0  0  0  0  0  0
  1  2  1  0  0  0  0
  1  4  1  0  0  0  0
  3  1  1  0  0  0  0
  4  6  1  0  0  0  0
  4  7  1  0  0  0  0
  5  4  1  0  0  0  0
  7  8  2  0  0  0  0
  7 12  1  0  0  0  0
  8  9  1  0  0  0  0
  9 14  1  0  0  0  0
  9 10  2  0  0  0  0
 11 10  1  0  0  0  0
 11 15  1  0  0  0  0
 12 11  2  0  0  0  0
 13  8  1  0  0  0  0
 15 22  2  0  0  0  0
 16 15  1  0  0  0  0
 16 18  2  0  0  0  0
 17 16  1  0  0  0  0
 18 20  1  0  0  0  0
 19 18  1  0  0  0  0
 20 21  1  0  0  0  0
 22 20  1  0  0  0  0
 23 28  1  0  0  0  0
 23  1  1  0  0  0  0
 24 25  1  0  0  0  0
 25 31  1  0  0  0  0
 25 26  2  0  0  0  0
 26 34  1  0  0  0  0
 27 26  1  0  0  0  0
 28 27  2  0  0  0  0
 29 24  2  0  0  0  0
 29 28  1  0  0  0  0
 30 24  1  0  0  0  0
 32 33  1  0  0  0  0
 33 38  1  0  0  0  0
 34 35  1  0  0  0  0
 34 33  2  0  0  0  0
 35 36  2  0  0  0  0
 36 40  1  0  0  0  0
 36 37  1  0  0  0  0
 37 41  1  0  0  0  0
 38 37  2  0  0  0  0
 38 42  1  0  0  0  0
 39 35  1  0  0  0  0
M  END
>  <minimizedAffinity>
-6.24211407

$$$$

 OpenBabel03272509563D

 42 45  0  0  0  0  0  0  0  0999 V2000
   38.5180   26.3210   34.5610 C   0  0  0  0  0  0  0  0  0  0  0  0
   38.2170   27.3630   34.3840 H   0  0  0  0  0  0  0  0  0  0  0  0
   39.5340   26.3150   35.0490 H   0  0  0  0  0  0  0  0  0  0  0  0
   37.5980   25.5770   35.4720 C   0  0  0  0  0  0  0  0  0  0  0  0
   36.7680   25.0710   34.9410 H   0  0  0  0  0  0  0  0  0  0  0  0
   37.1270   26.3240   36.1580 H   0  0  0  0  0  0  0  0  0  0  0  0
   38.3030   24.6170   36.3620 C   0  0  0  0  0  0  0  0  0  0  0  0
   37.8990   24.5590   37.6870 C   0  0  0  0  0  0  0  0  0  0  0  0
   38.4740   23.7170   38.5940 C   0  0  0  0  0  0  0  0  0  0  0  0
   39.4530   22.9280   38.1920 N   0  0  0  0  0  0  0  0  0  0  0  0
   39.8630   22.9760   36.8810 C   0  0  0  0  0  0  0  0  0  0  0  0
   39.3030   23.8050   35.9680 N   0  0  0  0  0  0  0  0  0  0  0  0
   37.0880   25.2090   38.0260 H   0  0  0  0  0  0  0  0  0  0  0  0
   38.1660   23.6610   39.6350 H   0  0  0  0  0  0  0  0  0  0  0  0
   40.9440   22.1150   36.4080 C   0  0  0  0  0  0  0  0  0  0  0  0
   41.7130   21.4120   37.3410 C   0  0  0  0  0  0  0  0  0  0  0  0
   41.6870   21.3560   38.4330 H   0  0  0  0  0  0  0  0  0  0  0  0
   42.6600   20.6800   36.6180 C   0  0  0  0  0  0  0  0  0  0  0  0
   43.4480   20.0060   36.9120 H   0  0  0  0  0  0  0  0  0  0  0  0
   42.4410   20.9530   35.3170 N   0  0  0  0  0  0  0  0  0  0  0  0
   42.9800   20.5670   34.4850 H   0  0  0  0  0  0  0  0  0  0  0  0
   41.4180   21.8110   35.1840 N   0  0  0  0  0  0  0  0  0  0  0  0
   38.6530   25.6380   33.3120 O   0  0  0  0  0  0  0  0  0  0  0  0
   35.6590   25.9110   31.3240 C   0  0  0  0  0  0  0  0  0  0  0  0
   35.3690   24.5270   31.1120 C   0  0  0  0  0  0  0  0  0  0  0  0
   36.2380   23.6030   31.6770 C   0  0  0  0  0  0  0  0  0  0  0  0
   37.2920   24.1010   32.3850 N   0  0  0  0  0  0  0  0  0  0  0  0
   37.5340   25.4040   32.5650 C   0  0  0  0  0  0  0  0  0  0  0  0
   36.7080   26.3120   32.0290 N   0  0  0  0  0  0  0  0  0  0  0  0
   34.9360   26.5630   30.8530 H   0  0  0  0  0  0  0  0  0  0  0  0
   34.5390   24.1630   30.5540 H   0  0  0  0  0  0  0  0  0  0  0  0
   37.9440   21.7420   30.2600 F   0  0  0  0  0  0  0  0  0  0  0  0
   36.8870   21.2900   30.9120 C   0  0  0  0  0  0  0  0  0  0  0  0
   36.1040   22.1750   31.5670 C   0  0  0  0  0  0  0  0  0  0  0  0
   35.0150   21.5920   32.2220 C   0  0  0  0  0  0  0  0  0  0  0  0
   34.7710   20.2340   32.1980 C   0  0  0  0  0  0  0  0  0  0  0  0
   35.5960   19.3740   31.5170 C   0  0  0  0  0  0  0  0  0  0  0  0
   36.6680   19.9270   30.8680 C   0  0  0  0  0  0  0  0  0  0  0  0
   34.3010   22.1910   32.7920 H   0  0  0  0  0  0  0  0  0  0  0  0
   33.9150   19.8220   32.7180 H   0  0  0  0  0  0  0  0  0  0  0  0
   35.4040   18.3210   31.4980 H   0  0  0  0  0  0  0  0  0  0  0  0
   37.3300   19.2680   30.3270 H   0  0  0  0  0  0  0  0  0  0  0  0
  1  3  1  0  0  0  0
  1  4  1  0  0  0  0
  2  1  1  0  0  0  0
  4  6  1  0  0  0  0
  4  7  1  0  0  0  0
  5  4  1  0  0  0  0
  7  8  1  0  0  0  0
  8 13  1  0  0  0  0
  8  9  2  0  0  0  0
  9 14  1  0  0  0  0
 10  9  1  0  0  0  0
 11 10  2  0  0  0  0
 12  7  2  0  0  0  0
 12 11  1  0  0  0  0
 15 11  1  0  0  0  0
 15 16  1  0  0  0  0
 16 17  1  0  0  0  0
 18 19  1  0  0  0  0
 18 16  2  0  0  0  0
 20 18  1  0  0  0  0
 21 20  1  0  0  0  0
 22 20  1  0  0  0  0
 22 15  2  0  0  0  0
 23  1  1  0  0  0  0
 24 29  1  0  0  0  0
 25 24  2  0  0  0  0
 25 26  1  0  0  0  0
 26 27  2  0  0  0  0
 27 28  1  0  0  0  0
 28 23  1  0  0  0  0
 29 28  2  0  0  0  0
 30 24  1  0  0  0  0
 31 25  1  0  0  0  0
 32 33  1  0  0  0  0
 33 34  1  0  0  0  0
 34 26  1  0  0  0  0
 34 35  2  0  0  0  0
 35 39  1  0  0  0  0
 36 35  1  0  0  0  0
 36 40  1  0  0  0  0
 37 36  2  0  0  0  0
 38 33  2  0  0  0  0
 38 37  1  0  0  0  0
 41 37  1  0  0  0  0
 42 38  1  0  0  0  0
M  END
>  <minimizedAffinity>
-6.23441124

$$$$

 OpenBabel03272509563D

 42 45  0  0  0  0  0  0  0  0999 V2000
   35.5670   21.7420   32.5300 C   0  0  0  0  0  0  0  0  0  0  0  0
   34.5930   21.2550   32.3870 H   0  0  0  0  0  0  0  0  0  0  0  0
   35.4850   22.4760   33.3810 H   0  0  0  0  0  0  0  0  0  0  0  0
   36.6650   20.7930   32.8830 C   0  0  0  0  0  0  0  0  0  0  0  0
   37.0220   20.1930   32.0240 H   0  0  0  0  0  0  0  0  0  0  0  0
   36.2560   20.0670   33.6290 H   0  0  0  0  0  0  0  0  0  0  0  0
   37.8110   21.4510   33.5650 C   0  0  0  0  0  0  0  0  0  0  0  0
   38.9830   21.6070   32.8400 C   0  0  0  0  0  0  0  0  0  0  0  0
   40.0970   22.1950   33.3630 C   0  0  0  0  0  0  0  0  0  0  0  0
   40.0560   22.6340   34.6070 N   0  0  0  0  0  0  0  0  0  0  0  0
   38.9010   22.4860   35.3370 C   0  0  0  0  0  0  0  0  0  0  0  0
   37.7860   21.9040   34.8340 N   0  0  0  0  0  0  0  0  0  0  0  0
   39.0240   21.2460   31.8090 H   0  0  0  0  0  0  0  0  0  0  0  0
   41.0210   22.3230   32.8050 H   0  0  0  0  0  0  0  0  0  0  0  0
   38.8260   22.9620   36.7150 C   0  0  0  0  0  0  0  0  0  0  0  0
   37.7580   23.7800   37.0970 C   0  0  0  0  0  0  0  0  0  0  0  0
   36.8960   24.1770   36.5530 H   0  0  0  0  0  0  0  0  0  0  0  0
   37.9400   24.0800   38.4500 C   0  0  0  0  0  0  0  0  0  0  0  0
   37.3740   24.6690   39.1540 H   0  0  0  0  0  0  0  0  0  0  0  0
   39.0710   23.4560   38.8320 N   0  0  0  0  0  0  0  0  0  0  0  0
   39.5100   23.4690   39.8000 H   0  0  0  0  0  0  0  0  0  0  0  0
   39.6070   22.7860   37.8000 N   0  0  0  0  0  0  0  0  0  0  0  0
   35.9070   22.4940   31.3630 O   0  0  0  0  0  0  0  0  0  0  0  0
   35.1680   25.9940   30.9250 C   0  0  0  0  0  0  0  0  0  0  0  0
   36.1160   26.5680   31.8280 C   0  0  0  0  0  0  0  0  0  0  0  0
   36.9420   25.6930   32.5210 C   0  0  0  0  0  0  0  0  0  0  0  0
   36.7730   24.3620   32.2770 N   0  0  0  0  0  0  0  0  0  0  0  0
   35.8750   23.8570   31.4240 C   0  0  0  0  0  0  0  0  0  0  0  0
   35.0680   24.6840   30.7450 N   0  0  0  0  0  0  0  0  0  0  0  0
   34.5650   26.7410   30.4260 H   0  0  0  0  0  0  0  0  0  0  0  0
   36.2290   27.6120   32.0020 H   0  0  0  0  0  0  0  0  0  0  0  0
   36.5850   26.9160   35.1200 F   0  0  0  0  0  0  0  0  0  0  0  0
   37.8060   26.6620   34.6830 C   0  0  0  0  0  0  0  0  0  0  0  0
   37.9500   26.0900   33.4670 C   0  0  0  0  0  0  0  0  0  0  0  0
   39.2810   25.8660   33.1010 C   0  0  0  0  0  0  0  0  0  0  0  0
   40.3440   26.1980   33.9150 C   0  0  0  0  0  0  0  0  0  0  0  0
   40.1460   26.7780   35.1440 C   0  0  0  0  0  0  0  0  0  0  0  0
   38.8480   27.0070   35.5200 C   0  0  0  0  0  0  0  0  0  0  0  0
   39.5430   25.4090   32.1440 H   0  0  0  0  0  0  0  0  0  0  0  0
   41.3610   26.0080   33.5950 H   0  0  0  0  0  0  0  0  0  0  0  0
   40.9720   27.0370   35.7740 H   0  0  0  0  0  0  0  0  0  0  0  0
   38.6710   27.4620   36.4820 H   0  0  0  0  0  0  0  0  0  0  0  0
  1  4  1  0  0  0  0
  1  3  1  0  0  0  0
  2  1  1  0  0  0  0
  4  7  1  0  0  0  0
  4  6  1  0  0  0  0
  5  4  1  0  0  0  0
  7 12  1  0  0  0  0
  8  9  1  0  0  0  0
  8  7  2  0  0  0  0
  9 10  2  0  0  0  0
 10 11  1  0  0  0  0
 11 15  1  0  0  0  0
 12 11  2  0  0  0  0
 13  8  1  0  0  0  0
 14  9  1  0  0  0  0
 15 16  1  0  0  0  0
 15 22  2  0  0  0  0
 16 18  2  0  0  0  0
 17 16  1  0  0  0  0
 18 20  1  0  0  0  0
 18 19  1  0  0  0  0
 20 21  1  0  0  0  0
 22 20  1  0  0  0  0
 23 28  1  0  0  0  0
 23  1  1  0  0  0  0
 24 25  1  0  0  0  0
 25 31  1  0  0  0  0
 25 26  2  0  0  0  0
 26 34  1  0  0  0  0
 27 26  1  0  0  0  0
 28 27  2  0  0  0  0
 29 24  2  0  0  0  0
 29 28  1  0  0  0  0
 30 24  1  0  0  0  0
 33 32  1  0  0  0  0
 33 38  1  0  0  0  0
 34 33  2  0  0  0  0
 35 34  1  0  0  0  0
 35 36  2  0  0  0  0
 36 37  1  0  0  0  0
 37 38  2  0  0  0  0
 37 41  1  0  0  0  0
 38 42  1  0  0  0  0
 39 35  1  0  0  0  0
 40 36  1  0  0  0  0
M  END
>  <minimizedAffinity>
-6.20548582

$$$$

 OpenBabel03272509563D

 42 45  0  0  0  0  0  0  0  0999 V2000
   36.1820   26.4360   31.0730 C   0  0  0  0  0  0  0  0  0  0  0  0
   37.1830   26.2800   30.6480 H   0  0  0  0  0  0  0  0  0  0  0  0
   35.5770   27.0630   30.3570 H   0  0  0  0  0  0  0  0  0  0  0  0
   35.4180   25.1710   31.2900 C   0  0  0  0  0  0  0  0  0  0  0  0
   34.4910   25.1080   30.6870 H   0  0  0  0  0  0  0  0  0  0  0  0
   35.1020   25.1480   32.3620 H   0  0  0  0  0  0  0  0  0  0  0  0
   36.2430   23.9480   31.0980 C   0  0  0  0  0  0  0  0  0  0  0  0
   37.5440   24.1190   30.6490 C   0  0  0  0  0  0  0  0  0  0  0  0
   38.3910   23.0710   30.4370 C   0  0  0  0  0  0  0  0  0  0  0  0
   37.9550   21.8480   30.6710 N   0  0  0  0  0  0  0  0  0  0  0  0
   36.6680   21.6650   31.1170 C   0  0  0  0  0  0  0  0  0  0  0  0
   35.8130   22.6930   31.3330 N   0  0  0  0  0  0  0  0  0  0  0  0
   37.9120   25.1300   30.4530 H   0  0  0  0  0  0  0  0  0  0  0  0
   39.4130   23.1920   30.0850 H   0  0  0  0  0  0  0  0  0  0  0  0
   36.1570   20.3230   31.3850 C   0  0  0  0  0  0  0  0  0  0  0  0
   35.5720   20.0510   32.6260 C   0  0  0  0  0  0  0  0  0  0  0  0
   35.3970   20.6650   33.5140 H   0  0  0  0  0  0  0  0  0  0  0  0
   35.1800   18.7090   32.6050 C   0  0  0  0  0  0  0  0  0  0  0  0
   34.6960   18.0740   33.3290 H   0  0  0  0  0  0  0  0  0  0  0  0
   35.5260   18.2290   31.3940 N   0  0  0  0  0  0  0  0  0  0  0  0
   35.3760   17.2390   31.0350 H   0  0  0  0  0  0  0  0  0  0  0  0
   36.1110   19.1870   30.6600 N   0  0  0  0  0  0  0  0  0  0  0  0
   36.2840   27.1780   32.2910 O   0  0  0  0  0  0  0  0  0  0  0  0
   36.4710   30.6590   31.3770 C   0  0  0  0  0  0  0  0  0  0  0  0
   35.8440   31.2540   32.5150 C   0  0  0  0  0  0  0  0  0  0  0  0
   35.4050   30.3980   33.5170 C   0  0  0  0  0  0  0  0  0  0  0  0
   35.6100   29.0640   33.3220 N   0  0  0  0  0  0  0  0  0  0  0  0
   36.2000   28.5390   32.2420 C   0  0  0  0  0  0  0  0  0  0  0  0
   36.6330   29.3470   31.2650 N   0  0  0  0  0  0  0  0  0  0  0  0
   36.7830   31.3920   30.6450 H   0  0  0  0  0  0  0  0  0  0  0  0
   35.6950   32.2990   32.6450 H   0  0  0  0  0  0  0  0  0  0  0  0
   32.6920   29.8700   34.3770 F   0  0  0  0  0  0  0  0  0  0  0  0
   33.4920   30.5830   35.1500 C   0  0  0  0  0  0  0  0  0  0  0  0
   34.7550   30.8180   34.7300 C   0  0  0  0  0  0  0  0  0  0  0  0
   35.5150   31.5810   35.6210 C   0  0  0  0  0  0  0  0  0  0  0  0
   35.0150   32.0470   36.8190 C   0  0  0  0  0  0  0  0  0  0  0  0
   33.7230   31.7820   37.2020 C   0  0  0  0  0  0  0  0  0  0  0  0
   32.9620   31.0360   36.3420 C   0  0  0  0  0  0  0  0  0  0  0  0
   36.5540   31.8450   35.4080 H   0  0  0  0  0  0  0  0  0  0  0  0
   35.6370   32.6350   37.4820 H   0  0  0  0  0  0  0  0  0  0  0  0
   33.3360   32.1450   38.1320 H   0  0  0  0  0  0  0  0  0  0  0  0
   31.9440   30.8160   36.6240 H   0  0  0  0  0  0  0  0  0  0  0  0
  1  4  1  0  0  0  0
  1 23  1  0  0  0  0
  2  1  1  0  0  0  0
  3  1  1  0  0  0  0
  4  6  1  0  0  0  0
  5  4  1  0  0  0  0
  7  4  1  0  0  0  0
  7 12  1  0  0  0  0
  8  7  2  0  0  0  0
  9  8  1  0  0  0  0
  9 10  2  0  0  0  0
 10 11  1  0  0  0  0
 11 12  2  0  0  0  0
 11 15  1  0  0  0  0
 13  8  1  0  0  0  0
 14  9  1  0  0  0  0
 15 16  1  0  0  0  0
 16 17  1  0  0  0  0
 18 16  2  0  0  0  0
 18 19  1  0  0  0  0
 20 18  1  0  0  0  0
 21 20  1  0  0  0  0
 22 15  2  0  0  0  0
 22 20  1  0  0  0  0
 24 25  1  0  0  0  0
 25 31  1  0  0  0  0
 25 26  2  0  0  0  0
 26 34  1  0  0  0  0
 27 26  1  0  0  0  0
 28 23  1  0  0  0  0
 28 27  2  0  0  0  0
 29 24  2  0  0  0  0
 29 28  1  0  0  0  0
 30 24  1  0  0  0  0
 32 33  1  0  0  0  0
 33 38  1  0  0  0  0
 34 33  2  0  0  0  0
 34 35  1  0  0  0  0
 35 36  2  0  0  0  0
 36 37  1  0  0  0  0
 36 40  1  0  0  0  0
 37 41  1  0  0  0  0
 38 42  1  0  0  0  0
 38 37  2  0  0  0  0
 39 35  1  0  0  0  0
M  END
>  <minimizedAffinity>
-6.12116575

$$$$

 OpenBabel03272509563D

 42 45  0  0  0  0  0  0  0  0999 V2000
   38.7100   26.6880   33.6060 C   0  0  0  0  0  0  0  0  0  0  0  0
   39.2600   27.4370   33.0210 H   0  0  0  0  0  0  0  0  0  0  0  0
   38.9940   25.6610   33.2400 H   0  0  0  0  0  0  0  0  0  0  0  0
   39.0190   26.7250   35.0680 C   0  0  0  0  0  0  0  0  0  0  0  0
   38.4050   27.4570   35.6280 H   0  0  0  0  0  0  0  0  0  0  0  0
   40.0820   27.0520   35.1790 H   0  0  0  0  0  0  0  0  0  0  0  0
   38.9490   25.3890   35.7160 C   0  0  0  0  0  0  0  0  0  0  0  0
   37.7960   25.0800   36.4220 C   0  0  0  0  0  0  0  0  0  0  0  0
   37.6220   23.8840   37.0560 C   0  0  0  0  0  0  0  0  0  0  0  0
   38.5890   22.9880   36.9940 N   0  0  0  0  0  0  0  0  0  0  0  0
   39.7370   23.2820   36.2970 C   0  0  0  0  0  0  0  0  0  0  0  0
   39.9260   24.4630   35.6610 N   0  0  0  0  0  0  0  0  0  0  0  0
   36.9920   25.8170   36.4770 H   0  0  0  0  0  0  0  0  0  0  0  0
   36.7240   23.6300   37.6130 H   0  0  0  0  0  0  0  0  0  0  0  0
   40.8240   22.3100   36.2110 C   0  0  0  0  0  0  0  0  0  0  0  0
   41.2710   21.6830   37.3780 C   0  0  0  0  0  0  0  0  0  0  0  0
   40.9680   21.7620   38.4260 H   0  0  0  0  0  0  0  0  0  0  0  0
   42.3030   20.8170   37.0030 C   0  0  0  0  0  0  0  0  0  0  0  0
   42.9320   20.1400   37.5590 H   0  0  0  0  0  0  0  0  0  0  0  0
   42.4410   20.9410   35.6680 N   0  0  0  0  0  0  0  0  0  0  0  0
   43.1360   20.4270   35.0490 H   0  0  0  0  0  0  0  0  0  0  0  0
   41.5610   21.8330   35.1880 N   0  0  0  0  0  0  0  0  0  0  0  0
   37.3060   26.8360   33.3840 O   0  0  0  0  0  0  0  0  0  0  0  0
   36.4400   29.7740   31.4850 C   0  0  0  0  0  0  0  0  0  0  0  0
   35.7120   30.5080   32.4720 C   0  0  0  0  0  0  0  0  0  0  0  0
   35.5790   29.9250   33.7260 C   0  0  0  0  0  0  0  0  0  0  0  0
   36.1540   28.7010   33.9010 N   0  0  0  0  0  0  0  0  0  0  0  0
   36.8290   28.0400   32.9540 C   0  0  0  0  0  0  0  0  0  0  0  0
   36.9710   28.5850   31.7380 N   0  0  0  0  0  0  0  0  0  0  0  0
   36.4980   30.2960   30.5390 H   0  0  0  0  0  0  0  0  0  0  0  0
   35.2710   31.4630   32.3110 H   0  0  0  0  0  0  0  0  0  0  0  0
   32.8340   29.5160   34.5490 F   0  0  0  0  0  0  0  0  0  0  0  0
   33.6040   30.3400   35.2380 C   0  0  0  0  0  0  0  0  0  0  0  0
   34.8830   30.5170   34.8370 C   0  0  0  0  0  0  0  0  0  0  0  0
   35.6090   31.4080   35.6330 C   0  0  0  0  0  0  0  0  0  0  0  0
   35.0620   32.0430   36.7290 C   0  0  0  0  0  0  0  0  0  0  0  0
   33.7570   31.8310   37.0970 C   0  0  0  0  0  0  0  0  0  0  0  0
   33.0280   30.9620   36.3280 C   0  0  0  0  0  0  0  0  0  0  0  0
   36.6550   31.6420   35.4230 H   0  0  0  0  0  0  0  0  0  0  0  0
   35.6580   32.7270   37.3210 H   0  0  0  0  0  0  0  0  0  0  0  0
   33.3340   32.3260   37.9480 H   0  0  0  0  0  0  0  0  0  0  0  0
   32.0000   30.7810   36.6010 H   0  0  0  0  0  0  0  0  0  0  0  0
  1  4  1  0  0  0  0
  2  1  1  0  0  0  0
  3  1  1  0  0  0  0
  4  6  1  0  0  0  0
  4  5  1  0  0  0  0
  4  7  1  0  0  0  0
  7  8  1  0  0  0  0
  8 13  1  0  0  0  0
  8  9  2  0  0  0  0
  9 14  1  0  0  0  0
 10  9  1  0  0  0  0
 11 10  2  0  0  0  0
 12  7  2  0  0  0  0
 12 11  1  0  0  0  0
 15 11  1  0  0  0  0
 15 16  1  0  0  0  0
 16 17  1  0  0  0  0
 18 16  2  0  0  0  0
 18 19  1  0  0  0  0
 20 18  1  0  0  0  0
 21 20  1  0  0  0  0
 22 20  1  0  0  0  0
 22 15  2  0  0  0  0
 23  1  1  0  0  0  0
 24 29  2  0  0  0  0
 24 25  1  0  0  0  0
 25 26  2  0  0  0  0
 26 27  1  0  0  0  0
 26 34  1  0  0  0  0
 28 23  1  0  0  0  0
 28 27  2  0  0  0  0
 29 28  1  0  0  0  0
 30 24  1  0  0  0  0
 31 25  1  0  0  0  0
 32 33  1  0  0  0  0
 33 38  1  0  0  0  0
 34 33  2  0  0  0  0
 34 35  1  0  0  0  0
 35 36  2  0  0  0  0
 36 37  1  0  0  0  0
 36 40  1  0  0  0  0
 37 41  1  0  0  0  0
 38 42  1  0  0  0  0
 38 37  2  0  0  0  0
 39 35  1  0  0  0  0
M  END
>  <minimizedAffinity>
-6.1088357

$$$$

 OpenBabel03272509563D

 42 45  0  0  0  0  0  0  0  0999 V2000
   36.3860   21.7000   32.4810 C   0  0  0  0  0  0  0  0  0  0  0  0
   36.4860   22.2360   33.4340 H   0  0  0  0  0  0  0  0  0  0  0  0
   35.5160   20.9870   32.5540 H   0  0  0  0  0  0  0  0  0  0  0  0
   36.1150   22.5940   31.3150 C   0  0  0  0  0  0  0  0  0  0  0  0
   35.1470   22.3870   30.8180 H   0  0  0  0  0  0  0  0  0  0  0  0
   36.9100   22.4040   30.5530 H   0  0  0  0  0  0  0  0  0  0  0  0
   36.2270   24.0390   31.6470 C   0  0  0  0  0  0  0  0  0  0  0  0
   35.4380   24.9230   30.9260 C   0  0  0  0  0  0  0  0  0  0  0  0
   35.4580   26.2700   31.1440 C   0  0  0  0  0  0  0  0  0  0  0  0
   36.2590   26.7480   32.0770 N   0  0  0  0  0  0  0  0  0  0  0  0
   37.0470   25.8830   32.7980 C   0  0  0  0  0  0  0  0  0  0  0  0
   37.0390   24.5430   32.5960 N   0  0  0  0  0  0  0  0  0  0  0  0
   34.7710   24.5340   30.1520 H   0  0  0  0  0  0  0  0  0  0  0  0
   34.8440   26.9730   30.5860 H   0  0  0  0  0  0  0  0  0  0  0  0
   37.9430   26.3830   33.8370 C   0  0  0  0  0  0  0  0  0  0  0  0
   37.4120   27.1270   34.8950 C   0  0  0  0  0  0  0  0  0  0  0  0
   36.3950   27.4460   35.1410 H   0  0  0  0  0  0  0  0  0  0  0  0
   38.4820   27.4710   35.7270 C   0  0  0  0  0  0  0  0  0  0  0  0
   38.5470   28.0320   36.6450 H   0  0  0  0  0  0  0  0  0  0  0  0
   39.5870   26.9430   35.1660 N   0  0  0  0  0  0  0  0  0  0  0  0
   40.5830   27.0100   35.5340 H   0  0  0  0  0  0  0  0  0  0  0  0
   39.2730   26.2910   34.0360 N   0  0  0  0  0  0  0  0  0  0  0  0
   37.5530   20.9080   32.2470 O   0  0  0  0  0  0  0  0  0  0  0  0
   40.9870   21.4380   33.2030 C   0  0  0  0  0  0  0  0  0  0  0  0
   40.8030   22.0360   34.4880 C   0  0  0  0  0  0  0  0  0  0  0  0
   39.4960   22.2090   34.9260 C   0  0  0  0  0  0  0  0  0  0  0  0
   38.5050   21.7930   34.0860 N   0  0  0  0  0  0  0  0  0  0  0  0
   38.7120   21.2360   32.8890 C   0  0  0  0  0  0  0  0  0  0  0  0
   39.9650   21.0580   32.4480 N   0  0  0  0  0  0  0  0  0  0  0  0
   42.0310   21.3380   32.9380 H   0  0  0  0  0  0  0  0  0  0  0  0
   41.5940   22.3540   35.1250 H   0  0  0  0  0  0  0  0  0  0  0  0
   40.7380   21.8390   37.5140 F   0  0  0  0  0  0  0  0  0  0  0  0
   39.6870   22.6330   37.4040 C   0  0  0  0  0  0  0  0  0  0  0  0
   39.1230   22.7920   36.1860 C   0  0  0  0  0  0  0  0  0  0  0  0
   38.0190   23.6500   36.1820 C   0  0  0  0  0  0  0  0  0  0  0  0
   37.5560   24.2760   37.3210 C   0  0  0  0  0  0  0  0  0  0  0  0
   38.1640   24.0820   38.5370 C   0  0  0  0  0  0  0  0  0  0  0  0
   39.2470   23.2430   38.5620 C   0  0  0  0  0  0  0  0  0  0  0  0
   37.4680   23.8700   35.2650 H   0  0  0  0  0  0  0  0  0  0  0  0
   36.6970   24.9330   37.2750 H   0  0  0  0  0  0  0  0  0  0  0  0
   37.8020   24.5670   39.4200 H   0  0  0  0  0  0  0  0  0  0  0  0
   39.7400   23.0770   39.5080 H   0  0  0  0  0  0  0  0  0  0  0  0
  1  3  1  0  0  0  0
  1  2  1  0  0  0  0
  4  7  1  0  0  0  0
  4  1  1  0  0  0  0
  5  4  1  0  0  0  0
  6  4  1  0  0  0  0
  7 12  1  0  0  0  0
  8  9  1  0  0  0  0
  8  7  2  0  0  0  0
  9 10  2  0  0  0  0
 10 11  1  0  0  0  0
 11 15  1  0  0  0  0
 12 11  2  0  0  0  0
 13  8  1  0  0  0  0
 14  9  1  0  0  0  0
 15 22  2  0  0  0  0
 15 16  1  0  0  0  0
 16 17  1  0  0  0  0
 16 18  2  0  0  0  0
 18 19  1  0  0  0  0
 20 21  1  0  0  0  0
 20 18  1  0  0  0  0
 22 20  1  0  0  0  0
 23  1  1  0  0  0  0
 23 28  1  0  0  0  0
 24 25  1  0  0  0  0
 25 26  2  0  0  0  0
 25 31  1  0  0  0  0
 26 34  1  0  0  0  0
 27 26  1  0  0  0  0
 28 27  2  0  0  0  0
 29 28  1  0  0  0  0
 29 24  2  0  0  0  0
 30 24  1  0  0  0  0
 33 32  1  0  0  0  0
 33 38  1  0  0  0  0
 34 33  2  0  0  0  0
 35 34  1  0  0  0  0
 35 36  2  0  0  0  0
 36 37  1  0  0  0  0
 37 38  2  0  0  0  0
 37 41  1  0  0  0  0
 38 42  1  0  0  0  0
 39 35  1  0  0  0  0
 40 36  1  0  0  0  0
M  END
>  <minimizedAffinity>
-6.09242535

$$$$

 OpenBabel03272509563D

 42 45  0  0  0  0  0  0  0  0999 V2000
   36.4070   26.1530   32.1390 C   0  0  0  0  0  0  0  0  0  0  0  0
   35.6620   25.7700   32.8500 H   0  0  0  0  0  0  0  0  0  0  0  0
   35.8770   26.4850   31.2020 H   0  0  0  0  0  0  0  0  0  0  0  0
   37.1680   27.3340   32.6460 C   0  0  0  0  0  0  0  0  0  0  0  0
   38.0830   27.5510   32.0620 H   0  0  0  0  0  0  0  0  0  0  0  0
   37.5040   27.0960   33.6860 H   0  0  0  0  0  0  0  0  0  0  0  0
   36.3340   28.5580   32.7740 C   0  0  0  0  0  0  0  0  0  0  0  0
   35.7980   29.0910   31.6100 C   0  0  0  0  0  0  0  0  0  0  0  0
   35.0180   30.2100   31.6060 C   0  0  0  0  0  0  0  0  0  0  0  0
   34.7640   30.8080   32.7550 N   0  0  0  0  0  0  0  0  0  0  0  0
   35.2890   30.2900   33.9150 C   0  0  0  0  0  0  0  0  0  0  0  0
   36.0640   29.1800   33.9380 N   0  0  0  0  0  0  0  0  0  0  0  0
   36.0050   28.6000   30.6550 H   0  0  0  0  0  0  0  0  0  0  0  0
   34.5930   30.6370   30.7020 H   0  0  0  0  0  0  0  0  0  0  0  0
   35.0240   30.9300   35.2010 C   0  0  0  0  0  0  0  0  0  0  0  0
   33.7070   31.0060   35.6670 C   0  0  0  0  0  0  0  0  0  0  0  0
   32.7530   30.6680   35.2520 H   0  0  0  0  0  0  0  0  0  0  0  0
   33.7500   31.6590   36.9020 C   0  0  0  0  0  0  0  0  0  0  0  0
   32.9890   31.9350   37.6140 H   0  0  0  0  0  0  0  0  0  0  0  0
   35.0450   31.9470   37.1380 N   0  0  0  0  0  0  0  0  0  0  0  0
   35.4430   32.4440   37.9890 H   0  0  0  0  0  0  0  0  0  0  0  0
   35.8120   31.5150   36.1250 N   0  0  0  0  0  0  0  0  0  0  0  0
   37.3000   25.1020   31.7620 O   0  0  0  0  0  0  0  0  0  0  0  0
   36.4470   21.7010   32.5970 C   0  0  0  0  0  0  0  0  0  0  0  0
   37.1360   21.5660   33.8420 C   0  0  0  0  0  0  0  0  0  0  0  0
   37.8460   22.6690   34.2970 C   0  0  0  0  0  0  0  0  0  0  0  0
   37.8220   23.7850   33.5130 N   0  0  0  0  0  0  0  0  0  0  0  0
   37.1650   23.8790   32.3520 C   0  0  0  0  0  0  0  0  0  0  0  0
   36.4740   22.8260   31.8940 N   0  0  0  0  0  0  0  0  0  0  0  0
   35.9200   20.8000   32.3150 H   0  0  0  0  0  0  0  0  0  0  0  0
   37.1410   20.6840   34.4360 H   0  0  0  0  0  0  0  0  0  0  0  0
   37.0930   23.8710   36.8210 F   0  0  0  0  0  0  0  0  0  0  0  0
   38.2640   23.2690   36.7110 C   0  0  0  0  0  0  0  0  0  0  0  0
   38.5960   22.7140   35.5240 C   0  0  0  0  0  0  0  0  0  0  0  0
   39.8550   22.1050   35.5160 C   0  0  0  0  0  0  0  0  0  0  0  0
   40.6760   22.0760   36.6240 C   0  0  0  0  0  0  0  0  0  0  0  0
   40.2940   22.6550   37.8080 C   0  0  0  0  0  0  0  0  0  0  0  0
   39.0640   23.2580   37.8360 C   0  0  0  0  0  0  0  0  0  0  0  0
   40.2490   21.6170   34.6210 H   0  0  0  0  0  0  0  0  0  0  0  0
   41.6450   21.5940   36.5760 H   0  0  0  0  0  0  0  0  0  0  0  0
   40.9340   22.6320   38.6670 H   0  0  0  0  0  0  0  0  0  0  0  0
   38.7440   23.7180   38.7580 H   0  0  0  0  0  0  0  0  0  0  0  0
  1  4  1  0  0  0  0
  1  2  1  0  0  0  0
  3  1  1  0  0  0  0
  4  7  1  0  0  0  0
  4  6  1  0  0  0  0
  5  4  1  0  0  0  0
  7 12  1  0  0  0  0
  8  7  2  0  0  0  0
  9  8  1  0  0  0  0
  9 10  2  0  0  0  0
 10 11  1  0  0  0  0
 11 12  2  0  0  0  0
 11 15  1  0  0  0  0
 13  8  1  0  0  0  0
 14  9  1  0  0  0  0
 15 16  1  0  0  0  0
 15 22  2  0  0  0  0
 16 18  2  0  0  0  0
 17 16  1  0  0  0  0
 18 20  1  0  0  0  0
 18 19  1  0  0  0  0
 20 21  1  0  0  0  0
 22 20  1  0  0  0  0
 23  1  1  0  0  0  0
 23 28  1  0  0  0  0
 24 25  1  0  0  0  0
 25 26  2  0  0  0  0
 25 31  1  0  0  0  0
 26 34  1  0  0  0  0
 27 26  1  0  0  0  0
 28 27  2  0  0  0  0
 29 28  1  0  0  0  0
 29 24  2  0  0  0  0
 30 24  1  0  0  0  0
 33 32  1  0  0  0  0
 33 38  1  0  0  0  0
 34 33  2  0  0  0  0
 35 34  1  0  0  0  0
 35 36  2  0  0  0  0
 36 37  1  0  0  0  0
 37 38  2  0  0  0  0
 37 41  1  0  0  0  0
 38 42  1  0  0  0  0
 39 35  1  0  0  0  0
 40 36  1  0  0  0  0
M  END
>  <minimizedAffinity>
-6.06284571

$$$$
