
 OpenBabel03272509523D

 42 45  0  0  0  0  0  0  0  0999 V2000
   34.4680   28.6390   48.1550 C   0  0  0  0  0  0  0  0  0  0  0  0
   35.2880   28.8610   47.4580 H   0  0  0  0  0  0  0  0  0  0  0  0
   33.8150   29.5530   48.2500 H   0  0  0  0  0  0  0  0  0  0  0  0
   33.5830   27.5220   47.7050 C   0  0  0  0  0  0  0  0  0  0  0  0
   33.7600   26.5750   48.2510 H   0  0  0  0  0  0  0  0  0  0  0  0
   33.8190   27.3190   46.6320 H   0  0  0  0  0  0  0  0  0  0  0  0
   32.1380   27.8730   47.7300 C   0  0  0  0  0  0  0  0  0  0  0  0
   31.3720   27.3510   48.7620 C   0  0  0  0  0  0  0  0  0  0  0  0
   30.0370   27.6040   48.8850 C   0  0  0  0  0  0  0  0  0  0  0  0
   29.4540   28.3770   47.9880 N   0  0  0  0  0  0  0  0  0  0  0  0
   30.2020   28.9000   46.9610 C   0  0  0  0  0  0  0  0  0  0  0  0
   31.5280   28.6590   46.8230 N   0  0  0  0  0  0  0  0  0  0  0  0
   31.8490   26.7110   49.5090 H   0  0  0  0  0  0  0  0  0  0  0  0
   29.4260   27.2020   49.6890 H   0  0  0  0  0  0  0  0  0  0  0  0
   29.5850   29.7580   45.9530 C   0  0  0  0  0  0  0  0  0  0  0  0
   28.1960   29.7250   45.7900 C   0  0  0  0  0  0  0  0  0  0  0  0
   27.4040   29.1580   46.2860 H   0  0  0  0  0  0  0  0  0  0  0  0
   27.8860   30.6340   44.7730 C   0  0  0  0  0  0  0  0  0  0  0  0
   26.9560   30.9360   44.3150 H   0  0  0  0  0  0  0  0  0  0  0  0
   29.0550   31.1670   44.3670 N   0  0  0  0  0  0  0  0  0  0  0  0
   29.1920   31.8960   43.6050 H   0  0  0  0  0  0  0  0  0  0  0  0
   30.0740   30.6480   45.0680 N   0  0  0  0  0  0  0  0  0  0  0  0
   34.9980   28.3700   49.4550 O   0  0  0  0  0  0  0  0  0  0  0  0
   37.3370   30.1730   51.5210 C   0  0  0  0  0  0  0  0  0  0  0  0
   38.0780   30.8690   50.5170 C   0  0  0  0  0  0  0  0  0  0  0  0
   37.7070   30.6590   49.1950 C   0  0  0  0  0  0  0  0  0  0  0  0
   36.6670   29.8040   48.9750 N   0  0  0  0  0  0  0  0  0  0  0  0
   35.9940   29.1680   49.9390 C   0  0  0  0  0  0  0  0  0  0  0  0
   36.3350   29.3570   51.2210 N   0  0  0  0  0  0  0  0  0  0  0  0
   37.6880   30.3910   52.5210 H   0  0  0  0  0  0  0  0  0  0  0  0
   38.8870   31.5310   50.7140 H   0  0  0  0  0  0  0  0  0  0  0  0
   38.9350   33.2740   49.0150 F   0  0  0  0  0  0  0  0  0  0  0  0
   38.9160   32.4900   47.9520 C   0  0  0  0  0  0  0  0  0  0  0  0
   38.3380   31.2730   48.0570 C   0  0  0  0  0  0  0  0  0  0  0  0
   38.3720   30.5250   46.8760 C   0  0  0  0  0  0  0  0  0  0  0  0
   38.9470   30.9950   45.7130 C   0  0  0  0  0  0  0  0  0  0  0  0
   39.5220   32.2400   45.6560 C   0  0  0  0  0  0  0  0  0  0  0  0
   39.4980   32.9880   46.8030 C   0  0  0  0  0  0  0  0  0  0  0  0
   37.9420   29.5220   46.8200 H   0  0  0  0  0  0  0  0  0  0  0  0
   38.9530   30.3840   44.8190 H   0  0  0  0  0  0  0  0  0  0  0  0
   39.9670   32.6030   44.7520 H   0  0  0  0  0  0  0  0  0  0  0  0
   39.9450   33.9700   46.7790 H   0  0  0  0  0  0  0  0  0  0  0  0
  1  3  1  0  0  0  0
  1 23  1  0  0  0  0
  2  1  1  0  0  0  0
  4  7  1  0  0  0  0
  4  1  1  0  0  0  0
  4  5  1  0  0  0  0
  6  4  1  0  0  0  0
  7  8  1  0  0  0  0
  8  9  2  0  0  0  0
  8 13  1  0  0  0  0
  9 14  1  0  0  0  0
 10  9  1  0  0  0  0
 11 10  2  0  0  0  0
 12 11  1  0  0  0  0
 12  7  2  0  0  0  0
 15 11  1  0  0  0  0
 16 15  1  0  0  0  0
 16 17  1  0  0  0  0
 18 16  2  0  0  0  0
 19 18  1  0  0  0  0
 20 18  1  0  0  0  0
 20 22  1  0  0  0  0
 21 20  1  0  0  0  0
 22 15  2  0  0  0  0
 23 28  1  0  0  0  0
 24 30  1  0  0  0  0
 25 31  1  0  0  0  0
 25 24  2  0  0  0  0
 26 25  1  0  0  0  0
 27 26  2  0  0  0  0
 27 28  1  0  0  0  0
 28 29  2  0  0  0  0
 29 24  1  0  0  0  0
 33 34  1  0  0  0  0
 33 32  1  0  0  0  0
 34 26  1  0  0  0  0
 35 34  2  0  0  0  0
 36 35  1  0  0  0  0
 37 36  2  0  0  0  0
 37 38  1  0  0  0  0
 38 33  2  0  0  0  0
 39 35  1  0  0  0  0
 40 36  1  0  0  0  0
 41 37  1  0  0  0  0
 42 38  1  0  0  0  0
M  END
>  <minimizedAffinity>
-6.49521494

>  <minimizedRMSD>
0.20196259

$$$$
