
 OpenBabel03272509523D

 42 45  0  0  0  0  0  0  0  0999 V2000
   34.4680   28.6410   48.1560 C   0  0  0  0  0  0  0  0  0  0  0  0
   35.2890   28.8610   47.4600 H   0  0  0  0  0  0  0  0  0  0  0  0
   33.8150   29.5540   48.2500 H   0  0  0  0  0  0  0  0  0  0  0  0
   33.5850   27.5230   47.7070 C   0  0  0  0  0  0  0  0  0  0  0  0
   33.7610   26.5760   48.2520 H   0  0  0  0  0  0  0  0  0  0  0  0
   33.8210   27.3200   46.6330 H   0  0  0  0  0  0  0  0  0  0  0  0
   32.1390   27.8730   47.7310 C   0  0  0  0  0  0  0  0  0  0  0  0
   31.3730   27.3500   48.7620 C   0  0  0  0  0  0  0  0  0  0  0  0
   30.0380   27.6030   48.8850 C   0  0  0  0  0  0  0  0  0  0  0  0
   29.4550   28.3760   47.9880 N   0  0  0  0  0  0  0  0  0  0  0  0
   30.2040   28.8990   46.9600 C   0  0  0  0  0  0  0  0  0  0  0  0
   31.5300   28.6590   46.8230 N   0  0  0  0  0  0  0  0  0  0  0  0
   31.8490   26.7100   49.5090 H   0  0  0  0  0  0  0  0  0  0  0  0
   29.4260   27.2000   49.6880 H   0  0  0  0  0  0  0  0  0  0  0  0
   29.5860   29.7570   45.9530 C   0  0  0  0  0  0  0  0  0  0  0  0
   28.1970   29.7250   45.7890 C   0  0  0  0  0  0  0  0  0  0  0  0
   27.4060   29.1570   46.2840 H   0  0  0  0  0  0  0  0  0  0  0  0
   27.8870   30.6320   44.7720 C   0  0  0  0  0  0  0  0  0  0  0  0
   26.9580   30.9360   44.3140 H   0  0  0  0  0  0  0  0  0  0  0  0
   29.0560   31.1670   44.3660 N   0  0  0  0  0  0  0  0  0  0  0  0
   29.1930   31.8960   43.6050 H   0  0  0  0  0  0  0  0  0  0  0  0
   30.0750   30.6480   45.0670 N   0  0  0  0  0  0  0  0  0  0  0  0
   34.9970   28.3730   49.4580 O   0  0  0  0  0  0  0  0  0  0  0  0
   37.3380   30.1730   51.5230 C   0  0  0  0  0  0  0  0  0  0  0  0
   38.0790   30.8690   50.5180 C   0  0  0  0  0  0  0  0  0  0  0  0
   37.7070   30.6600   49.1970 C   0  0  0  0  0  0  0  0  0  0  0  0
   36.6660   29.8050   48.9770 N   0  0  0  0  0  0  0  0  0  0  0  0
   35.9930   29.1700   49.9410 C   0  0  0  0  0  0  0  0  0  0  0  0
   36.3350   29.3580   51.2230 N   0  0  0  0  0  0  0  0  0  0  0  0
   37.6890   30.3900   52.5230 H   0  0  0  0  0  0  0  0  0  0  0  0
   38.8890   31.5300   50.7150 H   0  0  0  0  0  0  0  0  0  0  0  0
   38.9340   33.2750   49.0170 F   0  0  0  0  0  0  0  0  0  0  0  0
   38.9160   32.4910   47.9530 C   0  0  0  0  0  0  0  0  0  0  0  0
   38.3380   31.2730   48.0590 C   0  0  0  0  0  0  0  0  0  0  0  0
   38.3720   30.5260   46.8780 C   0  0  0  0  0  0  0  0  0  0  0  0
   38.9470   30.9950   45.7150 C   0  0  0  0  0  0  0  0  0  0  0  0
   39.5220   32.2410   45.6570 C   0  0  0  0  0  0  0  0  0  0  0  0
   39.4970   32.9890   46.8040 C   0  0  0  0  0  0  0  0  0  0  0  0
   37.9420   29.5230   46.8220 H   0  0  0  0  0  0  0  0  0  0  0  0
   38.9530   30.3850   44.8210 H   0  0  0  0  0  0  0  0  0  0  0  0
   39.9660   32.6040   44.7530 H   0  0  0  0  0  0  0  0  0  0  0  0
   39.9440   33.9710   46.7800 H   0  0  0  0  0  0  0  0  0  0  0  0
  1  3  1  0  0  0  0
  1 23  1  0  0  0  0
  2  1  1  0  0  0  0
  4  7  1  0  0  0  0
  4  1  1  0  0  0  0
  4  5  1  0  0  0  0
  6  4  1  0  0  0  0
  7  8  1  0  0  0  0
  8  9  2  0  0  0  0
  8 13  1  0  0  0  0
  9 14  1  0  0  0  0
 10  9  1  0  0  0  0
 11 10  2  0  0  0  0
 12 11  1  0  0  0  0
 12  7  2  0  0  0  0
 15 11  1  0  0  0  0
 16 15  1  0  0  0  0
 16 17  1  0  0  0  0
 18 16  2  0  0  0  0
 19 18  1  0  0  0  0
 20 18  1  0  0  0  0
 20 22  1  0  0  0  0
 21 20  1  0  0  0  0
 22 15  2  0  0  0  0
 23 28  1  0  0  0  0
 24 30  1  0  0  0  0
 25 31  1  0  0  0  0
 25 24  2  0  0  0  0
 26 25  1  0  0  0  0
 27 26  2  0  0  0  0
 27 28  1  0  0  0  0
 28 29  2  0  0  0  0
 29 24  1  0  0  0  0
 33 34  1  0  0  0  0
 33 32  1  0  0  0  0
 34 26  1  0  0  0  0
 35 34  2  0  0  0  0
 36 35  1  0  0  0  0
 37 36  2  0  0  0  0
 37 38  1  0  0  0  0
 38 33  2  0  0  0  0
 39 35  1  0  0  0  0
 40 36  1  0  0  0  0
 41 37  1  0  0  0  0
 42 38  1  0  0  0  0
M  END
>  <minimizedAffinity>
-6.49682903

>  <minimizedRMSD>
0.458296835

$$$$
