
 OpenBabel03272510193D

 35 38  0  0  0  0  0  0  0  0999 V2000
   37.3430   29.1500   50.7720 Br  0  0  0  0  0  0  0  0  0  0  0  0
   35.9560   29.2760   49.4710 C   0  0  0  0  0  0  0  0  0  0  0  0
   35.9720   30.2950   48.5190 C   0  0  0  0  0  0  0  0  0  0  0  0
   34.9450   30.3310   47.6090 C   0  0  0  0  0  0  0  0  0  0  0  0
   33.9130   29.4080   47.6030 C   0  0  0  0  0  0  0  0  0  0  0  0
   33.9200   28.4220   48.5430 C   0  0  0  0  0  0  0  0  0  0  0  0
   34.9430   28.3710   49.4630 C   0  0  0  0  0  0  0  0  0  0  0  0
   34.9010   31.0960   46.8470 H   0  0  0  0  0  0  0  0  0  0  0  0
   33.1320   27.6810   48.5710 H   0  0  0  0  0  0  0  0  0  0  0  0
   34.9160   27.5640   50.2040 H   0  0  0  0  0  0  0  0  0  0  0  0
   37.9890   33.1710   49.5060 C   0  0  0  0  0  0  0  0  0  0  0  0
   39.0350   33.1900   48.5320 C   0  0  0  0  0  0  0  0  0  0  0  0
   39.0210   32.2140   47.5600 C   0  0  0  0  0  0  0  0  0  0  0  0
   38.0210   31.2790   47.5660 N   0  0  0  0  0  0  0  0  0  0  0  0
   37.0400   31.2790   48.4980 C   0  0  0  0  0  0  0  0  0  0  0  0
   37.0310   32.2380   49.4730 N   0  0  0  0  0  0  0  0  0  0  0  0
   37.9720   33.9280   50.2860 H   0  0  0  0  0  0  0  0  0  0  0  0
   39.7840   33.9420   48.5800 H   0  0  0  0  0  0  0  0  0  0  0  0
   39.7940   32.1820   46.7950 H   0  0  0  0  0  0  0  0  0  0  0  0
   32.8200   29.4430   46.6370 C   0  0  0  0  0  0  0  0  0  0  0  0
   32.0980   28.3490   46.2180 C   0  0  0  0  0  0  0  0  0  0  0  0
   31.0690   28.4440   45.2970 C   0  0  0  0  0  0  0  0  0  0  0  0
   30.7500   29.6320   44.7850 N   0  0  0  0  0  0  0  0  0  0  0  0
   31.4380   30.7100   45.1770 C   0  0  0  0  0  0  0  0  0  0  0  0
   32.4380   30.6130   46.0730 N   0  0  0  0  0  0  0  0  0  0  0  0
   32.3600   27.3830   46.6380 H   0  0  0  0  0  0  0  0  0  0  0  0
   30.5380   27.5370   45.0090 H   0  0  0  0  0  0  0  0  0  0  0  0
   31.2080   32.0730   44.7070 C   0  0  0  0  0  0  0  0  0  0  0  0
   30.4720   32.2980   43.5460 C   0  0  0  0  0  0  0  0  0  0  0  0
   30.0130   31.5860   42.8920 H   0  0  0  0  0  0  0  0  0  0  0  0
   30.4010   33.6800   43.3230 C   0  0  0  0  0  0  0  0  0  0  0  0
   29.8900   34.1450   42.4900 H   0  0  0  0  0  0  0  0  0  0  0  0
   31.0980   34.2320   44.3580 N   0  0  0  0  0  0  0  0  0  0  0  0
   31.2180   35.2620   44.4600 H   0  0  0  0  0  0  0  0  0  0  0  0
   31.5660   33.3090   45.1620 N   0  0  0  0  0  0  0  0  0  0  0  0
  2  1  1  0  0  0  0
  3  2  2  0  0  0  0
  4  3  1  0  0  0  0
  5  4  2  0  0  0  0
  5  6  1  0  0  0  0
  6  9  1  0  0  0  0
  6  7  2  0  0  0  0
  7  2  1  0  0  0  0
  7 10  1  0  0  0  0
  8  4  1  0  0  0  0
 11 17  1  0  0  0  0
 12 18  1  0  0  0  0
 12 11  2  0  0  0  0
 13 14  2  0  0  0  0
 13 12  1  0  0  0  0
 14 15  1  0  0  0  0
 15  3  1  0  0  0  0
 15 16  2  0  0  0  0
 16 11  1  0  0  0  0
 19 13  1  0  0  0  0
 20  5  1  0  0  0  0
 21 20  1  0  0  0  0
 21 26  1  0  0  0  0
 22 21  2  0  0  0  0
 23 24  2  0  0  0  0
 23 22  1  0  0  0  0
 24 25  1  0  0  0  0
 25 20  2  0  0  0  0
 27 22  1  0  0  0  0
 28 35  2  0  0  0  0
 28 24  1  0  0  0  0
 29 28  1  0  0  0  0
 30 29  1  0  0  0  0
 31 29  2  0  0  0  0
 31 33  1  0  0  0  0
 32 31  1  0  0  0  0
 33 34  1  0  0  0  0
 33 35  1  0  0  0  0
M  END
>  <minimizedAffinity>
-6.67752218

>  <minimizedRMSD>
0.365241855

$$$$
