
 OpenBabel03272503363D

 18 19  0  0  0  0  0  0  0  0999 V2000
   37.3430   29.8280   50.9640 C   0  0  0  0  0  0  0  0  0  0  0  0
   38.1030   30.7250   50.2020 C   0  0  0  0  0  0  0  0  0  0  0  0
   37.8030   30.8560   48.8500 C   0  0  0  0  0  0  0  0  0  0  0  0
   36.7910   30.1080   48.3440 N   0  0  0  0  0  0  0  0  0  0  0  0
   36.0690   29.2450   49.1090 C   0  0  0  0  0  0  0  0  0  0  0  0
   36.3490   29.1100   50.4130 N   0  0  0  0  0  0  0  0  0  0  0  0
   38.9020   31.3350   50.5320 H   0  0  0  0  0  0  0  0  0  0  0  0
   35.2680   28.6460   48.7320 H   0  0  0  0  0  0  0  0  0  0  0  0
   38.5450   31.7660   47.9850 C   0  0  0  0  0  0  0  0  0  0  0  0
   39.0120   31.4400   46.7280 C   0  0  0  0  0  0  0  0  0  0  0  0
   38.9170   30.5190   46.2020 H   0  0  0  0  0  0  0  0  0  0  0  0
   39.6410   32.6190   46.3140 C   0  0  0  0  0  0  0  0  0  0  0  0
   40.1310   32.7340   45.3580 H   0  0  0  0  0  0  0  0  0  0  0  0
   39.5470   33.5770   47.2720 N   0  0  0  0  0  0  0  0  0  0  0  0
   39.9350   34.5440   47.2070 H   0  0  0  0  0  0  0  0  0  0  0  0
   38.8750   33.0310   48.2800 N   0  0  0  0  0  0  0  0  0  0  0  0
   37.7690   29.8140   52.2940 O   0  0  0  0  0  0  0  0  0  0  0  0
   37.5520   30.6370   52.8420 H   0  0  0  0  0  0  0  0  0  0  0  0
  1 17  1  0  0  0  0
  2  7  1  0  0  0  0
  2  1  2  0  0  0  0
  3  2  1  0  0  0  0
  4  3  2  0  0  0  0
  4  5  1  0  0  0  0
  5  6  2  0  0  0  0
  6  1  1  0  0  0  0
  8  5  1  0  0  0  0
  9 16  2  0  0  0  0
  9  3  1  0  0  0  0
 10  9  1  0  0  0  0
 11 10  1  0  0  0  0
 12 10  2  0  0  0  0
 12 14  1  0  0  0  0
 13 12  1  0  0  0  0
 14 16  1  0  0  0  0
 15 14  1  0  0  0  0
 17 18  1  0  0  0  0
M  END
>  <minimizedAffinity>
-5.11415291

>  <minimizedRMSD>
1.09694374

$$$$
