
 OpenBabel03272506003D

 43 46  0  0  1  0  0  0  0  0999 V2000
   37.7890   26.5080   33.1030 C   0  0  2  0  0  0  0  0  0  0  0  0
   39.0710   25.8690   33.4820 C   0  0  0  0  0  0  0  0  0  0  0  0
   39.1700   25.5760   34.9930 C   0  0  2  0  0  0  0  0  0  0  0  0
   38.9580   26.7500   35.8420 C   0  0  0  0  0  0  0  0  0  0  0  0
   37.8870   27.7000   35.3160 C   0  0  0  0  0  0  0  0  0  0  0  0
   37.0140   27.0320   34.2900 C   0  0  0  0  0  0  0  0  0  0  0  0
   37.9750   27.4230   32.4630 H   0  0  0  0  0  0  0  0  0  0  0  0
   39.4040   24.9620   33.0420 H   0  0  0  0  0  0  0  0  0  0  0  0
   39.9140   26.6200   33.3230 H   0  0  0  0  0  0  0  0  0  0  0  0
   38.4780   24.7520   35.2120 H   0  0  0  0  0  0  0  0  0  0  0  0
   39.8750   27.3610   35.9120 H   0  0  0  0  0  0  0  0  0  0  0  0
   38.7210   26.4130   36.8730 H   0  0  0  0  0  0  0  0  0  0  0  0
   38.2970   28.6510   34.9490 H   0  0  0  0  0  0  0  0  0  0  0  0
   37.2360   27.9540   36.1780 H   0  0  0  0  0  0  0  0  0  0  0  0
   36.4100   26.2310   34.7530 H   0  0  0  0  0  0  0  0  0  0  0  0
   36.2990   27.7900   33.9210 H   0  0  0  0  0  0  0  0  0  0  0  0
   39.3470   22.8620   36.1030 Cl  0  0  0  0  0  0  0  0  0  0  0  0
   40.7730   23.7990   35.6950 C   0  0  0  0  0  0  0  0  0  0  0  0
   40.5610   25.0640   35.1580 C   0  0  0  0  0  0  0  0  0  0  0  0
   41.7330   25.7210   34.8670 C   0  0  0  0  0  0  0  0  0  0  0  0
   42.9800   25.1810   35.0860 C   0  0  0  0  0  0  0  0  0  0  0  0
   43.1080   23.9110   35.6260 C   0  0  0  0  0  0  0  0  0  0  0  0
   41.9490   23.2010   35.9400 C   0  0  0  0  0  0  0  0  0  0  0  0
   41.6590   26.7120   34.4390 H   0  0  0  0  0  0  0  0  0  0  0  0
   43.8420   25.7860   34.8210 H   0  0  0  0  0  0  0  0  0  0  0  0
   44.1250   23.6020   35.7490 H   0  0  0  0  0  0  0  0  0  0  0  0
   42.2190   21.8900   36.4970 C   0  0  0  0  0  0  0  0  0  0  0  0
   42.9030   20.7890   36.0420 C   0  0  0  0  0  0  0  0  0  0  0  0
   43.4100   20.7060   35.0970 H   0  0  0  0  0  0  0  0  0  0  0  0
   42.9040   19.7400   36.9190 C   0  0  0  0  0  0  0  0  0  0  0  0
   43.3610   18.7660   36.8160 H   0  0  0  0  0  0  0  0  0  0  0  0
   42.1890   20.2310   37.9430 N   0  0  0  0  0  0  0  0  0  0  0  0
   41.9450   19.7350   38.8480 H   0  0  0  0  0  0  0  0  0  0  0  0
   41.7960   21.4650   37.7010 N   0  0  0  0  0  0  0  0  0  0  0  0
   36.8970   25.6100   32.3550 C   0  0  0  0  0  0  0  0  0  0  0  0
   35.9130   26.2470   31.5970 C   0  0  0  0  0  0  0  0  0  0  0  0
   35.0460   25.4350   30.8520 C   0  0  0  0  0  0  0  0  0  0  0  0
   35.2020   24.0590   30.9010 N   0  0  0  0  0  0  0  0  0  0  0  0
   36.1710   23.4840   31.6520 C   0  0  0  0  0  0  0  0  0  0  0  0
   36.9840   24.2780   32.3510 N   0  0  0  0  0  0  0  0  0  0  0  0
   35.5560   27.2360   31.3720 H   0  0  0  0  0  0  0  0  0  0  0  0
   34.2310   25.6480   30.2050 H   0  0  0  0  0  0  0  0  0  0  0  0
   36.3070   22.4210   31.7030 H   0  0  0  0  0  0  0  0  0  0  0  0
  1  7  1  6  0  0  0
  1  2  1  0  0  0  0
  1  6  1  0  0  0  0
  2  3  1  0  0  0  0
  3 19  1  0  0  0  0
  3 10  1  1  0  0  0
  3  4  1  0  0  0  0
  4 11  1  0  0  0  0
  4 12  1  0  0  0  0
  5  4  1  0  0  0  0
  5 14  1  0  0  0  0
  6 15  1  0  0  0  0
  6  5  1  0  0  0  0
  8  2  1  0  0  0  0
  9  2  1  0  0  0  0
 13  5  1  0  0  0  0
 16  6  1  0  0  0  0
 18 23  1  0  0  0  0
 18 17  1  0  0  0  0
 19 18  2  0  0  0  0
 20 21  2  0  0  0  0
 20 19  1  0  0  0  0
 21 22  1  0  0  0  0
 22 26  1  0  0  0  0
 22 23  2  0  0  0  0
 23 27  1  0  0  0  0
 24 20  1  0  0  0  0
 25 21  1  0  0  0  0
 27 34  2  0  0  0  0
 28 27  1  0  0  0  0
 28 30  2  0  0  0  0
 29 28  1  0  0  0  0
 30 32  1  0  0  0  0
 31 30  1  0  0  0  0
 32 33  1  0  0  0  0
 34 32  1  0  0  0  0
 35  1  1  0  0  0  0
 36 35  2  0  0  0  0
 37 38  2  0  0  0  0
 37 36  1  0  0  0  0
 38 39  1  0  0  0  0
 39 43  1  0  0  0  0
 39 40  2  0  0  0  0
 40 35  1  0  0  0  0
 41 36  1  0  0  0  0
 42 37  1  0  0  0  0
M  END
>  <minimizedAffinity>
-6.30068398

$$$$

 OpenBabel03272506003D

 43 46  0  0  1  0  0  0  0  0999 V2000
   35.7620   28.2850   31.8600 C   0  0  2  0  0  0  0  0  0  0  0  0
   36.1350   26.9760   32.4450 C   0  0  0  0  0  0  0  0  0  0  0  0
   37.6350   26.8800   32.7900 C   0  0  2  0  0  0  0  0  0  0  0  0
   38.5240   27.1650   31.6630 C   0  0  0  0  0  0  0  0  0  0  0  0
   38.0200   28.2790   30.7500 C   0  0  0  0  0  0  0  0  0  0  0  0
   36.9560   29.1020   31.4240 C   0  0  0  0  0  0  0  0  0  0  0  0
   35.1600   28.1400   30.9130 H   0  0  0  0  0  0  0  0  0  0  0  0
   35.6660   26.5900   33.3160 H   0  0  0  0  0  0  0  0  0  0  0  0
   36.0170   26.1720   31.6450 H   0  0  0  0  0  0  0  0  0  0  0  0
   37.8130   27.5300   33.6570 H   0  0  0  0  0  0  0  0  0  0  0  0
   38.6320   26.2830   31.0080 H   0  0  0  0  0  0  0  0  0  0  0  0
   39.5390   27.3970   32.0510 H   0  0  0  0  0  0  0  0  0  0  0  0
   37.6940   27.9150   29.7660 H   0  0  0  0  0  0  0  0  0  0  0  0
   38.8810   28.9520   30.5650 H   0  0  0  0  0  0  0  0  0  0  0  0
   37.3800   29.6680   32.2720 H   0  0  0  0  0  0  0  0  0  0  0  0
   36.6060   29.8520   30.6900 H   0  0  0  0  0  0  0  0  0  0  0  0
   38.1510   26.5560   35.6640 Cl  0  0  0  0  0  0  0  0  0  0  0  0
   38.0710   25.1880   34.5700 C   0  0  0  0  0  0  0  0  0  0  0  0
   37.8010   25.4660   33.2340 C   0  0  0  0  0  0  0  0  0  0  0  0
   37.7550   24.3350   32.4540 C   0  0  0  0  0  0  0  0  0  0  0  0
   37.9560   23.0660   32.9460 C   0  0  0  0  0  0  0  0  0  0  0  0
   38.2210   22.8700   34.2930 C   0  0  0  0  0  0  0  0  0  0  0  0
   38.2780   23.9850   35.1290 C   0  0  0  0  0  0  0  0  0  0  0  0
   37.5440   24.4610   31.4010 H   0  0  0  0  0  0  0  0  0  0  0  0
   37.8980   22.2390   32.2440 H   0  0  0  0  0  0  0  0  0  0  0  0
   38.3580   21.8420   34.5540 H   0  0  0  0  0  0  0  0  0  0  0  0
   38.5630   23.6480   36.5090 C   0  0  0  0  0  0  0  0  0  0  0  0
   37.9580   23.9550   37.7040 C   0  0  0  0  0  0  0  0  0  0  0  0
   37.0780   24.5590   37.8300 H   0  0  0  0  0  0  0  0  0  0  0  0
   38.5810   23.4110   38.7930 C   0  0  0  0  0  0  0  0  0  0  0  0
   38.3200   23.4900   39.8380 H   0  0  0  0  0  0  0  0  0  0  0  0
   39.6030   22.7490   38.2280 N   0  0  0  0  0  0  0  0  0  0  0  0
   40.3470   22.1790   38.7240 H   0  0  0  0  0  0  0  0  0  0  0  0
   39.5930   22.8860   36.9180 N   0  0  0  0  0  0  0  0  0  0  0  0
   34.9670   29.1190   32.7740 C   0  0  0  0  0  0  0  0  0  0  0  0
   35.6780   29.6760   33.8390 C   0  0  0  0  0  0  0  0  0  0  0  0
   34.9680   30.4930   34.7310 C   0  0  0  0  0  0  0  0  0  0  0  0
   33.6150   30.7070   34.5180 N   0  0  0  0  0  0  0  0  0  0  0  0
   32.9660   30.1450   33.4720 C   0  0  0  0  0  0  0  0  0  0  0  0
   33.6630   29.3720   32.6360 N   0  0  0  0  0  0  0  0  0  0  0  0
   36.6700   29.6900   34.2500 H   0  0  0  0  0  0  0  0  0  0  0  0
   35.2510   31.0300   35.6020 H   0  0  0  0  0  0  0  0  0  0  0  0
   31.9200   30.2990   33.2920 H   0  0  0  0  0  0  0  0  0  0  0  0
  1  7  1  6  0  0  0
  1  2  1  0  0  0  0
  1 35  1  0  0  0  0
  2  3  1  0  0  0  0
  2  8  1  0  0  0  0
  3 19  1  0  0  0  0
  3 10  1  1  0  0  0
  4 12  1  0  0  0  0
  4  3  1  0  0  0  0
  5  6  1  0  0  0  0
  5  4  1  0  0  0  0
  6  1  1  0  0  0  0
  6 15  1  0  0  0  0
  9  2  1  0  0  0  0
 11  4  1  0  0  0  0
 13  5  1  0  0  0  0
 14  5  1  0  0  0  0
 16  6  1  0  0  0  0
 18 23  1  0  0  0  0
 18 17  1  0  0  0  0
 19 18  2  0  0  0  0
 20 21  2  0  0  0  0
 20 19  1  0  0  0  0
 21 22  1  0  0  0  0
 22 26  1  0  0  0  0
 22 23  2  0  0  0  0
 23 27  1  0  0  0  0
 24 20  1  0  0  0  0
 25 21  1  0  0  0  0
 27 34  2  0  0  0  0
 27 28  1  0  0  0  0
 28 29  1  0  0  0  0
 28 30  2  0  0  0  0
 30 31  1  0  0  0  0
 32 33  1  0  0  0  0
 32 30  1  0  0  0  0
 34 32  1  0  0  0  0
 35 36  1  0  0  0  0
 36 41  1  0  0  0  0
 36 37  2  0  0  0  0
 37 42  1  0  0  0  0
 38 37  1  0  0  0  0
 39 38  2  0  0  0  0
 40 35  2  0  0  0  0
 40 39  1  0  0  0  0
 43 39  1  0  0  0  0
M  END
>  <minimizedAffinity>
-6.16206121

$$$$

 OpenBabel03272506003D

 43 46  0  0  1  0  0  0  0  0999 V2000
   35.1180   31.7970   36.2570 C   0  0  2  0  0  0  0  0  0  0  0  0
   35.8870   30.7930   35.4830 C   0  0  0  0  0  0  0  0  0  0  0  0
   35.1020   30.2370   34.2780 C   0  0  2  0  0  0  0  0  0  0  0  0
   33.8000   29.6670   34.6280 C   0  0  0  0  0  0  0  0  0  0  0  0
   33.0710   30.4350   35.7270 C   0  0  0  0  0  0  0  0  0  0  0  0
   33.6470   31.8110   35.9120 C   0  0  0  0  0  0  0  0  0  0  0  0
   35.1450   31.5520   37.3610 H   0  0  0  0  0  0  0  0  0  0  0  0
   36.8400   31.0080   35.0670 H   0  0  0  0  0  0  0  0  0  0  0  0
   36.0310   29.8660   36.1300 H   0  0  0  0  0  0  0  0  0  0  0  0
   35.0370   31.0400   33.5310 H   0  0  0  0  0  0  0  0  0  0  0  0
   33.9070   28.6400   35.0170 H   0  0  0  0  0  0  0  0  0  0  0  0
   33.1770   29.5960   33.7110 H   0  0  0  0  0  0  0  0  0  0  0  0
   33.0170   29.8820   36.6750 H   0  0  0  0  0  0  0  0  0  0  0  0
   32.0250   30.5650   35.3830 H   0  0  0  0  0  0  0  0  0  0  0  0
   33.4560   32.4370   35.0220 H   0  0  0  0  0  0  0  0  0  0  0  0
   33.1060   32.2860   36.7510 H   0  0  0  0  0  0  0  0  0  0  0  0
   35.9830   30.6820   31.5110 Cl  0  0  0  0  0  0  0  0  0  0  0  0
   36.4660   29.2670   32.4280 C   0  0  0  0  0  0  0  0  0  0  0  0
   36.0010   29.1770   33.7360 C   0  0  0  0  0  0  0  0  0  0  0  0
   36.4310   28.0400   34.3770 C   0  0  0  0  0  0  0  0  0  0  0  0
   37.2350   27.0940   33.7830 C   0  0  0  0  0  0  0  0  0  0  0  0
   37.6580   27.2550   32.4730 C   0  0  0  0  0  0  0  0  0  0  0  0
   37.2490   28.3930   31.7770 C   0  0  0  0  0  0  0  0  0  0  0  0
   36.1180   27.8940   35.4020 H   0  0  0  0  0  0  0  0  0  0  0  0
   37.5180   26.2300   34.3780 H   0  0  0  0  0  0  0  0  0  0  0  0
   38.2770   26.4560   32.1240 H   0  0  0  0  0  0  0  0  0  0  0  0
   37.7560   28.4440   30.4200 C   0  0  0  0  0  0  0  0  0  0  0  0
   39.0180   28.5200   29.8820 C   0  0  0  0  0  0  0  0  0  0  0  0
   39.9390   28.5580   30.4350 H   0  0  0  0  0  0  0  0  0  0  0  0
   39.0330   28.5460   28.5150 C   0  0  0  0  0  0  0  0  0  0  0  0
   39.8780   28.6020   27.8440 H   0  0  0  0  0  0  0  0  0  0  0  0
   37.7260   28.4820   28.2200 N   0  0  0  0  0  0  0  0  0  0  0  0
   37.2880   28.4760   27.2540 H   0  0  0  0  0  0  0  0  0  0  0  0
   36.9930   28.4230   29.3130 N   0  0  0  0  0  0  0  0  0  0  0  0
   35.6240   33.1670   36.0870 C   0  0  0  0  0  0  0  0  0  0  0  0
   36.8210   33.2740   35.3770 C   0  0  0  0  0  0  0  0  0  0  0  0
   37.3380   34.5610   35.1740 C   0  0  0  0  0  0  0  0  0  0  0  0
   36.6490   35.6520   35.6800 N   0  0  0  0  0  0  0  0  0  0  0  0
   35.4910   35.5010   36.3650 C   0  0  0  0  0  0  0  0  0  0  0  0
   35.0190   34.2660   36.5440 N   0  0  0  0  0  0  0  0  0  0  0  0
   37.5510   32.6510   34.8930 H   0  0  0  0  0  0  0  0  0  0  0  0
   38.2060   34.9240   34.6810 H   0  0  0  0  0  0  0  0  0  0  0  0
   34.9440   36.3330   36.7640 H   0  0  0  0  0  0  0  0  0  0  0  0
  1  7  1  1  0  0  0
  2  9  1  0  0  0  0
  2  1  1  0  0  0  0
  3 10  1  6  0  0  0
  3  4  1  0  0  0  0
  3  2  1  0  0  0  0
  4 11  1  0  0  0  0
  4  5  1  0  0  0  0
  5  6  1  0  0  0  0
  5 13  1  0  0  0  0
  6  1  1  0  0  0  0
  6 16  1  0  0  0  0
  8  2  1  0  0  0  0
 12  4  1  0  0  0  0
 14  5  1  0  0  0  0
 15  6  1  0  0  0  0
 17 18  1  0  0  0  0
 18 19  1  0  0  0  0
 19  3  1  0  0  0  0
 19 20  2  0  0  0  0
 20 24  1  0  0  0  0
 21 20  1  0  0  0  0
 21 25  1  0  0  0  0
 22 21  2  0  0  0  0
 23 18  2  0  0  0  0
 23 22  1  0  0  0  0
 26 22  1  0  0  0  0
 27 23  1  0  0  0  0
 28 27  1  0  0  0  0
 28 29  1  0  0  0  0
 30 28  2  0  0  0  0
 31 30  1  0  0  0  0
 32 30  1  0  0  0  0
 32 34  1  0  0  0  0
 33 32  1  0  0  0  0
 34 27  2  0  0  0  0
 35  1  1  0  0  0  0
 35 40  1  0  0  0  0
 36 35  2  0  0  0  0
 37 36  1  0  0  0  0
 37 38  2  0  0  0  0
 38 39  1  0  0  0  0
 39 40  2  0  0  0  0
 39 43  1  0  0  0  0
 41 36  1  0  0  0  0
 42 37  1  0  0  0  0
M  END
>  <minimizedAffinity>
-6.04905367

$$$$

 OpenBabel03272506003D

 43 46  0  0  1  0  0  0  0  0999 V2000
   36.5770   28.0850   31.4950 C   0  0  2  0  0  0  0  0  0  0  0  0
   36.6830   26.8000   32.2270 C   0  0  0  0  0  0  0  0  0  0  0  0
   38.1410   26.3290   32.3990 C   0  0  2  0  0  0  0  0  0  0  0  0
   38.8840   26.2210   31.1430 C   0  0  0  0  0  0  0  0  0  0  0  0
   38.5500   27.3180   30.1370 C   0  0  0  0  0  0  0  0  0  0  0  0
   37.8590   28.4780   30.7980 C   0  0  0  0  0  0  0  0  0  0  0  0
   35.8160   28.0060   30.6620 H   0  0  0  0  0  0  0  0  0  0  0  0
   36.2730   26.6650   33.1970 H   0  0  0  0  0  0  0  0  0  0  0  0
   36.2340   25.9750   31.5810 H   0  0  0  0  0  0  0  0  0  0  0  0
   38.6170   26.9980   33.1280 H   0  0  0  0  0  0  0  0  0  0  0  0
   38.6530   25.2740   30.6230 H   0  0  0  0  0  0  0  0  0  0  0  0
   39.9720   26.2020   31.3650 H   0  0  0  0  0  0  0  0  0  0  0  0
   37.9900   26.9490   29.2670 H   0  0  0  0  0  0  0  0  0  0  0  0
   39.5170   27.6970   29.7470 H   0  0  0  0  0  0  0  0  0  0  0  0
   38.5440   28.9970   31.4920 H   0  0  0  0  0  0  0  0  0  0  0  0
   37.6050   29.2060   30.0060 H   0  0  0  0  0  0  0  0  0  0  0  0
   38.7840   26.2590   35.2650 Cl  0  0  0  0  0  0  0  0  0  0  0  0
   38.2980   24.8230   34.3820 C   0  0  0  0  0  0  0  0  0  0  0  0
   38.0000   24.9860   33.0330 C   0  0  0  0  0  0  0  0  0  0  0  0
   37.6270   23.8110   32.4250 C   0  0  0  0  0  0  0  0  0  0  0  0
   37.5590   22.6050   33.0840 C   0  0  0  0  0  0  0  0  0  0  0  0
   37.8720   22.5240   34.4320 C   0  0  0  0  0  0  0  0  0  0  0  0
   38.2560   23.6880   35.0970 C   0  0  0  0  0  0  0  0  0  0  0  0
   37.3730   23.8490   31.3740 H   0  0  0  0  0  0  0  0  0  0  0  0
   37.2530   21.7350   32.5090 H   0  0  0  0  0  0  0  0  0  0  0  0
   37.7810   21.5360   34.8310 H   0  0  0  0  0  0  0  0  0  0  0  0
   38.5580   23.4710   36.4980 C   0  0  0  0  0  0  0  0  0  0  0  0
   37.9750   23.8910   37.6690 C   0  0  0  0  0  0  0  0  0  0  0  0
   37.1040   24.5160   37.7530 H   0  0  0  0  0  0  0  0  0  0  0  0
   38.6080   23.4370   38.7930 C   0  0  0  0  0  0  0  0  0  0  0  0
   38.3630   23.6120   39.8310 H   0  0  0  0  0  0  0  0  0  0  0  0
   39.6120   22.7140   38.2750 N   0  0  0  0  0  0  0  0  0  0  0  0
   40.3560   22.1790   38.8090 H   0  0  0  0  0  0  0  0  0  0  0  0
   39.5840   22.7330   36.9580 N   0  0  0  0  0  0  0  0  0  0  0  0
   36.1820   29.2080   32.3590 C   0  0  0  0  0  0  0  0  0  0  0  0
   35.8890   28.8670   33.6800 C   0  0  0  0  0  0  0  0  0  0  0  0
   35.5230   29.9050   34.5490 C   0  0  0  0  0  0  0  0  0  0  0  0
   35.4690   31.2020   34.0640 N   0  0  0  0  0  0  0  0  0  0  0  0
   35.7610   31.4870   32.7730 C   0  0  0  0  0  0  0  0  0  0  0  0
   36.1070   30.4820   31.9670 N   0  0  0  0  0  0  0  0  0  0  0  0
   35.8370   28.0020   34.3160 H   0  0  0  0  0  0  0  0  0  0  0  0
   35.2560   29.9290   35.5770 H   0  0  0  0  0  0  0  0  0  0  0  0
   35.7240   32.4850   32.3800 H   0  0  0  0  0  0  0  0  0  0  0  0
  1  7  1  6  0  0  0
  1  2  1  0  0  0  0
  1 35  1  0  0  0  0
  2  3  1  0  0  0  0
  2  8  1  0  0  0  0
  3 19  1  0  0  0  0
  3 10  1  1  0  0  0
  4 12  1  0  0  0  0
  4  3  1  0  0  0  0
  5  6  1  0  0  0  0
  5  4  1  0  0  0  0
  6 15  1  0  0  0  0
  6  1  1  0  0  0  0
  9  2  1  0  0  0  0
 11  4  1  0  0  0  0
 13  5  1  0  0  0  0
 14  5  1  0  0  0  0
 16  6  1  0  0  0  0
 18 23  1  0  0  0  0
 18 17  1  0  0  0  0
 19 18  2  0  0  0  0
 20 19  1  0  0  0  0
 20 21  2  0  0  0  0
 21 22  1  0  0  0  0
 22 26  1  0  0  0  0
 22 23  2  0  0  0  0
 23 27  1  0  0  0  0
 24 20  1  0  0  0  0
 25 21  1  0  0  0  0
 27 34  2  0  0  0  0
 27 28  1  0  0  0  0
 28 29  1  0  0  0  0
 28 30  2  0  0  0  0
 30 31  1  0  0  0  0
 32 30  1  0  0  0  0
 32 33  1  0  0  0  0
 34 32  1  0  0  0  0
 35 36  1  0  0  0  0
 36 41  1  0  0  0  0
 36 37  2  0  0  0  0
 37 42  1  0  0  0  0
 38 37  1  0  0  0  0
 39 38  2  0  0  0  0
 40 35  2  0  0  0  0
 40 39  1  0  0  0  0
 43 39  1  0  0  0  0
M  END
>  <minimizedAffinity>
-6.03712749

$$$$

 OpenBabel03272506003D

 43 46  0  0  1  0  0  0  0  0999 V2000
   37.1480   27.4660   31.7740 C   0  0  2  0  0  0  0  0  0  0  0  0
   36.6020   28.2250   32.9250 C   0  0  0  0  0  0  0  0  0  0  0  0
   35.4800   29.2010   32.5200 C   0  0  2  0  0  0  0  0  0  0  0  0
   35.8640   30.1460   31.4700 C   0  0  0  0  0  0  0  0  0  0  0  0
   36.7730   29.5420   30.4040 C   0  0  0  0  0  0  0  0  0  0  0  0
   36.7360   28.0390   30.4380 C   0  0  0  0  0  0  0  0  0  0  0  0
   38.2780   27.5160   31.7650 H   0  0  0  0  0  0  0  0  0  0  0  0
   36.2000   27.7430   33.7820 H   0  0  0  0  0  0  0  0  0  0  0  0
   37.4100   28.9290   33.3140 H   0  0  0  0  0  0  0  0  0  0  0  0
   34.6000   28.5980   32.2600 H   0  0  0  0  0  0  0  0  0  0  0  0
   36.4350   30.9940   31.8870 H   0  0  0  0  0  0  0  0  0  0  0  0
   34.9460   30.5760   31.0150 H   0  0  0  0  0  0  0  0  0  0  0  0
   37.8010   29.9280   30.4450 H   0  0  0  0  0  0  0  0  0  0  0  0
   36.3610   29.8530   29.4220 H   0  0  0  0  0  0  0  0  0  0  0  0
   35.7410   27.6660   30.1370 H   0  0  0  0  0  0  0  0  0  0  0  0
   37.4510   27.6740   29.6770 H   0  0  0  0  0  0  0  0  0  0  0  0
   32.6500   29.1610   33.3070 Cl  0  0  0  0  0  0  0  0  0  0  0  0
   33.8690   29.9990   34.2490 C   0  0  0  0  0  0  0  0  0  0  0  0
   35.1790   29.9300   33.7860 C   0  0  0  0  0  0  0  0  0  0  0  0
   36.0640   30.6120   34.5870 C   0  0  0  0  0  0  0  0  0  0  0  0
   35.6880   31.2890   35.7250 C   0  0  0  0  0  0  0  0  0  0  0  0
   34.3600   31.3110   36.1220 C   0  0  0  0  0  0  0  0  0  0  0  0
   33.4210   30.6350   35.3430 C   0  0  0  0  0  0  0  0  0  0  0  0
   37.1070   30.6050   34.3010 H   0  0  0  0  0  0  0  0  0  0  0  0
   36.4670   31.7970   36.2870 H   0  0  0  0  0  0  0  0  0  0  0  0
   34.1940   31.8690   37.0200 H   0  0  0  0  0  0  0  0  0  0  0  0
   32.0720   30.7350   35.8630 C   0  0  0  0  0  0  0  0  0  0  0  0
   31.0170   31.5760   35.6030 C   0  0  0  0  0  0  0  0  0  0  0  0
   31.0130   32.3850   34.8950 H   0  0  0  0  0  0  0  0  0  0  0  0
   29.9010   31.3040   36.3450 C   0  0  0  0  0  0  0  0  0  0  0  0
   28.9420   31.8020   36.3410 H   0  0  0  0  0  0  0  0  0  0  0  0
   30.3030   30.2570   37.0810 N   0  0  0  0  0  0  0  0  0  0  0  0
   29.7340   29.7270   37.8020 H   0  0  0  0  0  0  0  0  0  0  0  0
   31.5490   29.9300   36.8050 N   0  0  0  0  0  0  0  0  0  0  0  0
   36.7610   26.0470   31.7840 C   0  0  0  0  0  0  0  0  0  0  0  0
   35.5700   25.7520   31.1200 C   0  0  0  0  0  0  0  0  0  0  0  0
   35.1650   24.4100   31.0870 C   0  0  0  0  0  0  0  0  0  0  0  0
   35.9530   23.4530   31.7060 N   0  0  0  0  0  0  0  0  0  0  0  0
   37.1020   23.7850   32.3410 C   0  0  0  0  0  0  0  0  0  0  0  0
   37.4660   25.0690   32.3580 N   0  0  0  0  0  0  0  0  0  0  0  0
   34.7820   26.2450   30.5810 H   0  0  0  0  0  0  0  0  0  0  0  0
   34.3260   23.9160   30.6620 H   0  0  0  0  0  0  0  0  0  0  0  0
   37.7240   23.0580   32.8260 H   0  0  0  0  0  0  0  0  0  0  0  0
  1  7  1  1  0  0  0
  1 35  1  0  0  0  0
  1  2  1  0  0  0  0
  2  9  1  0  0  0  0
  2  8  1  0  0  0  0
  3 10  1  6  0  0  0
  3  2  1  0  0  0  0
  3 19  1  0  0  0  0
  4 11  1  0  0  0  0
  4  3  1  0  0  0  0
  5  6  1  0  0  0  0
  5 13  1  0  0  0  0
  5  4  1  0  0  0  0
  6  1  1  0  0  0  0
 12  4  1  0  0  0  0
 14  5  1  0  0  0  0
 15  6  1  0  0  0  0
 16  6  1  0  0  0  0
 17 18  1  0  0  0  0
 18 23  1  0  0  0  0
 19 18  2  0  0  0  0
 19 20  1  0  0  0  0
 20 21  2  0  0  0  0
 21 22  1  0  0  0  0
 21 25  1  0  0  0  0
 22 26  1  0  0  0  0
 23 27  1  0  0  0  0
 23 22  2  0  0  0  0
 24 20  1  0  0  0  0
 27 34  2  0  0  0  0
 28 27  1  0  0  0  0
 28 30  2  0  0  0  0
 29 28  1  0  0  0  0
 30 32  1  0  0  0  0
 31 30  1  0  0  0  0
 32 33  1  0  0  0  0
 34 32  1  0  0  0  0
 35 40  1  0  0  0  0
 36 35  2  0  0  0  0
 37 36  1  0  0  0  0
 37 38  2  0  0  0  0
 38 39  1  0  0  0  0
 39 40  2  0  0  0  0
 39 43  1  0  0  0  0
 41 36  1  0  0  0  0
 42 37  1  0  0  0  0
M  END
>  <minimizedAffinity>
-5.85261154

$$$$

 OpenBabel03272506003D

 43 46  0  0  1  0  0  0  0  0999 V2000
   34.7550   30.0500   33.1490 C   0  0  2  0  0  0  0  0  0  0  0  0
   35.2230   28.6440   33.1970 C   0  0  0  0  0  0  0  0  0  0  0  0
   36.6950   28.4880   32.7660 C   0  0  2  0  0  0  0  0  0  0  0  0
   36.9890   29.0390   31.4420 C   0  0  0  0  0  0  0  0  0  0  0  0
   36.2350   30.3290   31.1340 C   0  0  0  0  0  0  0  0  0  0  0  0
   35.6900   30.9600   32.3860 C   0  0  0  0  0  0  0  0  0  0  0  0
   33.7740   30.1230   32.5920 H   0  0  0  0  0  0  0  0  0  0  0  0
   35.1720   28.0600   34.0830 H   0  0  0  0  0  0  0  0  0  0  0  0
   34.6700   28.0480   32.3980 H   0  0  0  0  0  0  0  0  0  0  0  0
   37.3170   28.9190   33.5620 H   0  0  0  0  0  0  0  0  0  0  0  0
   36.6930   28.3360   30.6440 H   0  0  0  0  0  0  0  0  0  0  0  0
   38.0850   29.1850   31.3440 H   0  0  0  0  0  0  0  0  0  0  0  0
   35.4580   30.2020   30.3670 H   0  0  0  0  0  0  0  0  0  0  0  0
   36.9760   31.0370   30.7120 H   0  0  0  0  0  0  0  0  0  0  0  0
   36.5110   31.3160   33.0330 H   0  0  0  0  0  0  0  0  0  0  0  0
   35.1180   31.8560   32.0820 H   0  0  0  0  0  0  0  0  0  0  0  0
   37.9570   27.4390   35.2030 Cl  0  0  0  0  0  0  0  0  0  0  0  0
   37.5140   26.4010   33.8600 C   0  0  0  0  0  0  0  0  0  0  0  0
   36.9050   27.0110   32.7690 C   0  0  0  0  0  0  0  0  0  0  0  0
   36.5910   26.1220   31.7680 C   0  0  0  0  0  0  0  0  0  0  0  0
   36.8540   24.7730   31.8440 C   0  0  0  0  0  0  0  0  0  0  0  0
   37.4660   24.2400   32.9680 C   0  0  0  0  0  0  0  0  0  0  0  0
   37.8050   25.1000   34.0120 C   0  0  0  0  0  0  0  0  0  0  0  0
   36.1080   26.5130   30.8830 H   0  0  0  0  0  0  0  0  0  0  0  0
   36.5660   24.1570   30.9960 H   0  0  0  0  0  0  0  0  0  0  0  0
   37.6170   23.1820   32.9080 H   0  0  0  0  0  0  0  0  0  0  0  0
   38.4380   24.4220   35.1250 C   0  0  0  0  0  0  0  0  0  0  0  0
   39.6760   23.8540   35.3090 C   0  0  0  0  0  0  0  0  0  0  0  0
   40.4670   23.8140   34.5820 H   0  0  0  0  0  0  0  0  0  0  0  0
   39.8530   23.3080   36.5510 C   0  0  0  0  0  0  0  0  0  0  0  0
   40.7180   22.8060   36.9570 H   0  0  0  0  0  0  0  0  0  0  0  0
   38.6720   23.5590   37.1360 N   0  0  0  0  0  0  0  0  0  0  0  0
   38.3800   23.2990   38.1220 H   0  0  0  0  0  0  0  0  0  0  0  0
   37.8600   24.1970   36.3190 N   0  0  0  0  0  0  0  0  0  0  0  0
   34.5600   30.6370   34.4830 C   0  0  0  0  0  0  0  0  0  0  0  0
   35.6990   31.2060   35.0540 C   0  0  0  0  0  0  0  0  0  0  0  0
   35.5610   31.7950   36.3200 C   0  0  0  0  0  0  0  0  0  0  0  0
   34.3200   31.7850   36.9360 N   0  0  0  0  0  0  0  0  0  0  0  0
   33.2410   31.2190   36.3450 C   0  0  0  0  0  0  0  0  0  0  0  0
   33.3980   30.6660   35.1400 N   0  0  0  0  0  0  0  0  0  0  0  0
   36.7410   31.3570   34.8410 H   0  0  0  0  0  0  0  0  0  0  0  0
   36.2430   32.2880   36.9680 H   0  0  0  0  0  0  0  0  0  0  0  0
   32.2730   31.2010   36.8070 H   0  0  0  0  0  0  0  0  0  0  0  0
  1  7  1  6  0  0  0
  1  2  1  0  0  0  0
  1 35  1  0  0  0  0
  2  8  1  0  0  0  0
  3 19  1  0  0  0  0
  3  2  1  0  0  0  0
  3 10  1  1  0  0  0
  4  3  1  0  0  0  0
  5  4  1  0  0  0  0
  5  6  1  0  0  0  0
  6 15  1  0  0  0  0
  6  1  1  0  0  0  0
  9  2  1  0  0  0  0
 11  4  1  0  0  0  0
 12  4  1  0  0  0  0
 13  5  1  0  0  0  0
 14  5  1  0  0  0  0
 16  6  1  0  0  0  0
 18 23  1  0  0  0  0
 18 17  1  0  0  0  0
 19 18  2  0  0  0  0
 20 21  2  0  0  0  0
 20 19  1  0  0  0  0
 21 22  1  0  0  0  0
 22 23  2  0  0  0  0
 23 27  1  0  0  0  0
 24 20  1  0  0  0  0
 25 21  1  0  0  0  0
 26 22  1  0  0  0  0
 27 28  1  0  0  0  0
 27 34  2  0  0  0  0
 28 30  2  0  0  0  0
 29 28  1  0  0  0  0
 30 31  1  0  0  0  0
 30 32  1  0  0  0  0
 32 33  1  0  0  0  0
 34 32  1  0  0  0  0
 35 36  2  0  0  0  0
 35 40  1  0  0  0  0
 36 37  1  0  0  0  0
 37 38  2  0  0  0  0
 37 42  1  0  0  0  0
 39 43  1  0  0  0  0
 39 38  1  0  0  0  0
 40 39  2  0  0  0  0
 41 36  1  0  0  0  0
M  END
>  <minimizedAffinity>
-5.73834896

$$$$

 OpenBabel03272506003D

 43 46  0  0  1  0  0  0  0  0999 V2000
   39.9770   22.1670   36.6250 C   0  0  2  0  0  0  0  0  0  0  0  0
   39.3180   22.6810   35.4010 C   0  0  0  0  0  0  0  0  0  0  0  0
   38.7820   24.1170   35.5680 C   0  0  2  0  0  0  0  0  0  0  0  0
   37.8710   24.2850   36.7020 C   0  0  0  0  0  0  0  0  0  0  0  0
   38.2640   23.4680   37.9290 C   0  0  0  0  0  0  0  0  0  0  0  0
   39.6940   23.0080   37.8490 C   0  0  0  0  0  0  0  0  0  0  0  0
   39.5800   21.1420   36.8900 H   0  0  0  0  0  0  0  0  0  0  0  0
   39.8150   22.7200   34.4640 H   0  0  0  0  0  0  0  0  0  0  0  0
   38.3640   22.0840   35.2230 H   0  0  0  0  0  0  0  0  0  0  0  0
   39.6510   24.7880   35.6070 H   0  0  0  0  0  0  0  0  0  0  0  0
   36.8520   23.9470   36.4460 H   0  0  0  0  0  0  0  0  0  0  0  0
   37.7950   25.3650   36.9490 H   0  0  0  0  0  0  0  0  0  0  0  0
   37.5760   22.6360   38.1310 H   0  0  0  0  0  0  0  0  0  0  0  0
   38.1930   24.1500   38.8010 H   0  0  0  0  0  0  0  0  0  0  0  0
   40.3840   23.8670   37.9070 H   0  0  0  0  0  0  0  0  0  0  0  0
   39.8900   22.3850   38.7410 H   0  0  0  0  0  0  0  0  0  0  0  0
   38.4340   26.9590   34.9080 Cl  0  0  0  0  0  0  0  0  0  0  0  0
   37.8200   25.6800   33.8780 C   0  0  0  0  0  0  0  0  0  0  0  0
   38.0630   24.3720   34.2860 C   0  0  0  0  0  0  0  0  0  0  0  0
   37.5490   23.4390   33.4180 C   0  0  0  0  0  0  0  0  0  0  0  0
   36.8660   23.7680   32.2690 C   0  0  0  0  0  0  0  0  0  0  0  0
   36.6630   25.0970   31.9300 C   0  0  0  0  0  0  0  0  0  0  0  0
   37.1660   26.0840   32.7780 C   0  0  0  0  0  0  0  0  0  0  0  0
   37.6990   22.3950   33.6570 H   0  0  0  0  0  0  0  0  0  0  0  0
   36.5000   22.9530   31.6520 H   0  0  0  0  0  0  0  0  0  0  0  0
   36.1210   25.2250   31.0170 H   0  0  0  0  0  0  0  0  0  0  0  0
   36.8870   27.4290   32.3150 C   0  0  0  0  0  0  0  0  0  0  0  0
   37.4690   28.2470   31.3770 C   0  0  0  0  0  0  0  0  0  0  0  0
   38.3180   28.0030   30.7640 H   0  0  0  0  0  0  0  0  0  0  0  0
   36.8660   29.4700   31.2620 C   0  0  0  0  0  0  0  0  0  0  0  0
   37.1160   30.2940   30.6110 H   0  0  0  0  0  0  0  0  0  0  0  0
   35.8800   29.3800   32.1690 N   0  0  0  0  0  0  0  0  0  0  0  0
   35.1620   30.1230   32.4070 H   0  0  0  0  0  0  0  0  0  0  0  0
   35.8920   28.2100   32.7730 N   0  0  0  0  0  0  0  0  0  0  0  0
   41.4380   22.0630   36.4910 C   0  0  0  0  0  0  0  0  0  0  0  0
   42.1190   23.2800   36.4430 C   0  0  0  0  0  0  0  0  0  0  0  0
   43.5160   23.2340   36.3310 C   0  0  0  0  0  0  0  0  0  0  0  0
   44.1480   22.0020   36.2760 N   0  0  0  0  0  0  0  0  0  0  0  0
   43.4470   20.8450   36.3250 C   0  0  0  0  0  0  0  0  0  0  0  0
   42.1180   20.9150   36.4310 N   0  0  0  0  0  0  0  0  0  0  0  0
   41.9220   24.3360   36.4570 H   0  0  0  0  0  0  0  0  0  0  0  0
   44.2640   23.9860   36.2770 H   0  0  0  0  0  0  0  0  0  0  0  0
   43.9180   19.8820   36.2820 H   0  0  0  0  0  0  0  0  0  0  0  0
  1  7  1  1  0  0  0
  1  6  1  0  0  0  0
  2  3  1  0  0  0  0
  2  1  1  0  0  0  0
  3 10  1  1  0  0  0
  3  4  1  0  0  0  0
  4 12  1  0  0  0  0
  4  5  1  0  0  0  0
  5 13  1  0  0  0  0
  5 14  1  0  0  0  0
  6 15  1  0  0  0  0
  6  5  1  0  0  0  0
  6 16  1  0  0  0  0
  8  2  1  0  0  0  0
  9  2  1  0  0  0  0
 11  4  1  0  0  0  0
 18 19  1  0  0  0  0
 18 17  1  0  0  0  0
 19  3  1  0  0  0  0
 20 24  1  0  0  0  0
 20 19  2  0  0  0  0
 21 20  1  0  0  0  0
 22 21  2  0  0  0  0
 22 23  1  0  0  0  0
 23 18  2  0  0  0  0
 25 21  1  0  0  0  0
 26 22  1  0  0  0  0
 27 34  2  0  0  0  0
 27 23  1  0  0  0  0
 28 27  1  0  0  0  0
 29 28  1  0  0  0  0
 30 28  2  0  0  0  0
 30 32  1  0  0  0  0
 31 30  1  0  0  0  0
 32 33  1  0  0  0  0
 32 34  1  0  0  0  0
 35  1  1  0  0  0  0
 36 41  1  0  0  0  0
 36 35  1  0  0  0  0
 37 36  2  0  0  0  0
 38 39  2  0  0  0  0
 38 37  1  0  0  0  0
 39 40  1  0  0  0  0
 40 35  2  0  0  0  0
 42 37  1  0  0  0  0
 43 39  1  0  0  0  0
M  END
>  <minimizedAffinity>
-5.63503504

$$$$

 OpenBabel03272506003D

 43 46  0  0  1  0  0  0  0  0999 V2000
   36.1100   28.0150   33.0060 C   0  0  2  0  0  0  0  0  0  0  0  0
   37.4110   27.5860   33.5720 C   0  0  0  0  0  0  0  0  0  0  0  0
   38.4570   27.2600   32.4880 C   0  0  2  0  0  0  0  0  0  0  0  0
   38.0140   26.2620   31.5140 C   0  0  0  0  0  0  0  0  0  0  0  0
   36.5400   26.3820   31.1410 C   0  0  0  0  0  0  0  0  0  0  0  0
   35.9820   27.7240   31.5280 C   0  0  0  0  0  0  0  0  0  0  0  0
   35.2600   27.4380   33.4800 H   0  0  0  0  0  0  0  0  0  0  0  0
   37.9560   28.1880   34.2570 H   0  0  0  0  0  0  0  0  0  0  0  0
   37.2700   26.5790   34.0870 H   0  0  0  0  0  0  0  0  0  0  0  0
   38.7590   28.2110   32.0290 H   0  0  0  0  0  0  0  0  0  0  0  0
   38.1270   25.2390   31.9140 H   0  0  0  0  0  0  0  0  0  0  0  0
   38.6600   26.3230   30.6130 H   0  0  0  0  0  0  0  0  0  0  0  0
   35.9280   25.5560   31.5300 H   0  0  0  0  0  0  0  0  0  0  0  0
   36.4860   26.3160   30.0350 H   0  0  0  0  0  0  0  0  0  0  0  0
   36.4440   28.5270   30.9260 H   0  0  0  0  0  0  0  0  0  0  0  0
   34.9060   27.7200   31.2740 H   0  0  0  0  0  0  0  0  0  0  0  0
   37.9020   24.8150   34.0210 Cl  0  0  0  0  0  0  0  0  0  0  0  0
   39.4700   25.6000   34.0510 C   0  0  0  0  0  0  0  0  0  0  0  0
   39.6180   26.7400   33.2690 C   0  0  0  0  0  0  0  0  0  0  0  0
   40.8770   27.2840   33.3540 C   0  0  0  0  0  0  0  0  0  0  0  0
   41.8810   26.7540   34.1310 C   0  0  0  0  0  0  0  0  0  0  0  0
   41.6560   25.6120   34.8840 C   0  0  0  0  0  0  0  0  0  0  0  0
   40.3930   25.0200   34.8340 C   0  0  0  0  0  0  0  0  0  0  0  0
   41.0800   28.1730   32.7710 H   0  0  0  0  0  0  0  0  0  0  0  0
   42.8410   27.2620   34.1270 H   0  0  0  0  0  0  0  0  0  0  0  0
   42.5100   25.2970   35.4450 H   0  0  0  0  0  0  0  0  0  0  0  0
   40.2860   23.8380   35.6650 C   0  0  0  0  0  0  0  0  0  0  0  0
   40.9930   22.6610   35.7350 C   0  0  0  0  0  0  0  0  0  0  0  0
   41.8340   22.3920   35.1210 H   0  0  0  0  0  0  0  0  0  0  0  0
   40.5340   21.7990   36.6920 C   0  0  0  0  0  0  0  0  0  0  0  0
   40.9010   20.8180   36.9570 H   0  0  0  0  0  0  0  0  0  0  0  0
   39.5090   22.4870   37.2180 N   0  0  0  0  0  0  0  0  0  0  0  0
   38.8680   22.1760   38.0040 H   0  0  0  0  0  0  0  0  0  0  0  0
   39.3660   23.6560   36.6290 N   0  0  0  0  0  0  0  0  0  0  0  0
   35.8430   29.4480   33.1980 C   0  0  0  0  0  0  0  0  0  0  0  0
   35.6370   29.8420   34.5210 C   0  0  0  0  0  0  0  0  0  0  0  0
   35.3930   31.2020   34.7590 C   0  0  0  0  0  0  0  0  0  0  0  0
   35.3690   32.0800   33.6870 N   0  0  0  0  0  0  0  0  0  0  0  0
   35.5730   31.6540   32.4180 C   0  0  0  0  0  0  0  0  0  0  0  0
   35.8030   30.3550   32.2180 N   0  0  0  0  0  0  0  0  0  0  0  0
   35.5900   29.4210   35.5080 H   0  0  0  0  0  0  0  0  0  0  0  0
   35.2090   31.7610   35.6430 H   0  0  0  0  0  0  0  0  0  0  0  0
   35.5570   32.3180   31.5760 H   0  0  0  0  0  0  0  0  0  0  0  0
  1 35  1  0  0  0  0
  1  7  1  1  0  0  0
  1  2  1  0  0  0  0
  2  9  1  0  0  0  0
  2  8  1  0  0  0  0
  3 10  1  6  0  0  0
  3 19  1  0  0  0  0
  3  2  1  0  0  0  0
  4 11  1  0  0  0  0
  4  3  1  0  0  0  0
  5  4  1  0  0  0  0
  5  6  1  0  0  0  0
  5 13  1  0  0  0  0
  6  1  1  0  0  0  0
 12  4  1  0  0  0  0
 14  5  1  0  0  0  0
 15  6  1  0  0  0  0
 16  6  1  0  0  0  0
 17 18  1  0  0  0  0
 18 23  1  0  0  0  0
 19 20  1  0  0  0  0
 19 18  2  0  0  0  0
 20 21  2  0  0  0  0
 21 22  1  0  0  0  0
 22 26  1  0  0  0  0
 23 22  2  0  0  0  0
 23 27  1  0  0  0  0
 24 20  1  0  0  0  0
 25 21  1  0  0  0  0
 27 28  1  0  0  0  0
 27 34  2  0  0  0  0
 28 30  2  0  0  0  0
 29 28  1  0  0  0  0
 30 31  1  0  0  0  0
 30 32  1  0  0  0  0
 32 33  1  0  0  0  0
 34 32  1  0  0  0  0
 35 36  1  0  0  0  0
 36 37  2  0  0  0  0
 36 41  1  0  0  0  0
 37 42  1  0  0  0  0
 38 37  1  0  0  0  0
 39 38  2  0  0  0  0
 40 39  1  0  0  0  0
 40 35  2  0  0  0  0
 43 39  1  0  0  0  0
M  END
>  <minimizedAffinity>
-5.58248949

$$$$

 OpenBabel03272506003D

 43 46  0  0  1  0  0  0  0  0999 V2000
   39.2480   27.3220   31.4310 C   0  0  2  0  0  0  0  0  0  0  0  0
   39.0630   25.9870   32.0480 C   0  0  0  0  0  0  0  0  0  0  0  0
   37.5850   25.5560   32.1100 C   0  0  2  0  0  0  0  0  0  0  0  0
   36.7130   26.5150   32.7890 C   0  0  0  0  0  0  0  0  0  0  0  0
   37.0730   27.9720   32.5140 C   0  0  0  0  0  0  0  0  0  0  0  0
   37.9590   28.1010   31.3060 C   0  0  0  0  0  0  0  0  0  0  0  0
   39.9080   27.9720   32.0810 H   0  0  0  0  0  0  0  0  0  0  0  0
   39.5490   25.1190   31.6760 H   0  0  0  0  0  0  0  0  0  0  0  0
   39.3450   26.0530   33.1510 H   0  0  0  0  0  0  0  0  0  0  0  0
   37.2660   25.3320   31.0830 H   0  0  0  0  0  0  0  0  0  0  0  0
   36.7780   26.4050   33.8860 H   0  0  0  0  0  0  0  0  0  0  0  0
   35.6580   26.3060   32.5120 H   0  0  0  0  0  0  0  0  0  0  0  0
   37.4960   28.4830   33.3900 H   0  0  0  0  0  0  0  0  0  0  0  0
   36.1240   28.4940   32.2770 H   0  0  0  0  0  0  0  0  0  0  0  0
   37.4130   27.8170   30.3890 H   0  0  0  0  0  0  0  0  0  0  0  0
   38.2180   29.1700   31.1990 H   0  0  0  0  0  0  0  0  0  0  0  0
   38.3980   25.8200   34.9210 Cl  0  0  0  0  0  0  0  0  0  0  0  0
   38.0190   24.2660   34.2010 C   0  0  0  0  0  0  0  0  0  0  0  0
   37.6270   24.2710   32.8660 C   0  0  0  0  0  0  0  0  0  0  0  0
   37.3480   23.0120   32.3890 C   0  0  0  0  0  0  0  0  0  0  0  0
   37.4490   21.8720   33.1540 C   0  0  0  0  0  0  0  0  0  0  0  0
   37.8480   21.9500   34.4790 C   0  0  0  0  0  0  0  0  0  0  0  0
   38.1430   23.2050   35.0130 C   0  0  0  0  0  0  0  0  0  0  0  0
   37.0300   22.9260   31.3590 H   0  0  0  0  0  0  0  0  0  0  0  0
   37.2060   20.9260   32.6790 H   0  0  0  0  0  0  0  0  0  0  0  0
   37.8880   20.9990   34.9680 H   0  0  0  0  0  0  0  0  0  0  0  0
   38.5480   23.1510   36.4040 C   0  0  0  0  0  0  0  0  0  0  0  0
   38.0170   23.6570   37.5650 C   0  0  0  0  0  0  0  0  0  0  0  0
   37.1150   24.2380   37.6480 H   0  0  0  0  0  0  0  0  0  0  0  0
   38.7480   23.3590   38.6820 C   0  0  0  0  0  0  0  0  0  0  0  0
   38.5610   23.6270   39.7110 H   0  0  0  0  0  0  0  0  0  0  0  0
   39.7610   22.6430   38.1680 N   0  0  0  0  0  0  0  0  0  0  0  0
   40.5700   22.2100   38.6980 H   0  0  0  0  0  0  0  0  0  0  0  0
   39.6460   22.5240   36.8610 N   0  0  0  0  0  0  0  0  0  0  0  0
   39.8570   27.2590   30.0940 C   0  0  0  0  0  0  0  0  0  0  0  0
   39.0470   27.7120   29.0510 C   0  0  0  0  0  0  0  0  0  0  0  0
   39.5870   27.6880   27.7570 C   0  0  0  0  0  0  0  0  0  0  0  0
   40.8800   27.2220   27.5750 N   0  0  0  0  0  0  0  0  0  0  0  0
   41.6290   26.7900   28.6160 C   0  0  0  0  0  0  0  0  0  0  0  0
   41.0930   26.8240   29.8380 N   0  0  0  0  0  0  0  0  0  0  0  0
   38.0610   28.1040   28.8830 H   0  0  0  0  0  0  0  0  0  0  0  0
   39.2050   27.9680   26.8070 H   0  0  0  0  0  0  0  0  0  0  0  0
   42.6310   26.4260   28.4950 H   0  0  0  0  0  0  0  0  0  0  0  0
  1  2  1  0  0  0  0
  1  7  1  1  0  0  0
  2  3  1  0  0  0  0
  2  9  1  0  0  0  0
  3 10  1  6  0  0  0
  3  4  1  0  0  0  0
  3 19  1  0  0  0  0
  4 11  1  0  0  0  0
  5  4  1  0  0  0  0
  5 13  1  0  0  0  0
  6  1  1  0  0  0  0
  6  5  1  0  0  0  0
  8  2  1  0  0  0  0
 12  4  1  0  0  0  0
 14  5  1  0  0  0  0
 15  6  1  0  0  0  0
 16  6  1  0  0  0  0
 18 17  1  0  0  0  0
 18 23  1  0  0  0  0
 19 18  2  0  0  0  0
 20 19  1  0  0  0  0
 20 21  2  0  0  0  0
 21 22  1  0  0  0  0
 22 26  1  0  0  0  0
 22 23  2  0  0  0  0
 23 27  1  0  0  0  0
 24 20  1  0  0  0  0
 25 21  1  0  0  0  0
 27 34  2  0  0  0  0
 27 28  1  0  0  0  0
 28 29  1  0  0  0  0
 28 30  2  0  0  0  0
 30 31  1  0  0  0  0
 32 30  1  0  0  0  0
 32 33  1  0  0  0  0
 34 32  1  0  0  0  0
 35  1  1  0  0  0  0
 36 35  2  0  0  0  0
 37 36  1  0  0  0  0
 38 37  2  0  0  0  0
 38 39  1  0  0  0  0
 39 40  2  0  0  0  0
 40 35  1  0  0  0  0
 41 36  1  0  0  0  0
 42 37  1  0  0  0  0
 43 39  1  0  0  0  0
M  END
>  <minimizedAffinity>
-5.55280685

$$$$
