
 OpenBabel03272500343D

 20 21  0  0  0  0  0  0  0  0999 V2000
   37.3680   30.2830   50.0460 C   0  0  0  0  0  0  0  0  0  0  0  0
   38.2940   31.3290   50.1260 C   0  0  0  0  0  0  0  0  0  0  0  0
   38.5060   32.1040   48.9720 C   0  0  0  0  0  0  0  0  0  0  0  0
   37.8030   31.7950   47.8490 N   0  0  0  0  0  0  0  0  0  0  0  0
   36.9220   30.7790   47.8160 C   0  0  0  0  0  0  0  0  0  0  0  0
   36.7090   30.0350   48.9040 N   0  0  0  0  0  0  0  0  0  0  0  0
   38.8540   31.5740   51.0280 H   0  0  0  0  0  0  0  0  0  0  0  0
   39.2070   32.9270   48.9620 H   0  0  0  0  0  0  0  0  0  0  0  0
   36.1470   30.4100   46.6390 C   0  0  0  0  0  0  0  0  0  0  0  0
   34.8680   29.8800   46.5500 C   0  0  0  0  0  0  0  0  0  0  0  0
   34.2400   29.6610   47.4200 H   0  0  0  0  0  0  0  0  0  0  0  0
   34.6380   29.7270   45.1860 C   0  0  0  0  0  0  0  0  0  0  0  0
   33.7160   29.3310   44.7860 H   0  0  0  0  0  0  0  0  0  0  0  0
   35.7240   30.1450   44.5050 N   0  0  0  0  0  0  0  0  0  0  0  0
   35.8450   30.1490   43.4600 H   0  0  0  0  0  0  0  0  0  0  0  0
   36.6180   30.5510   45.3910 N   0  0  0  0  0  0  0  0  0  0  0  0
   37.1320   29.4490   51.2720 C   0  0  0  0  0  0  0  0  0  0  0  0
   35.7730   29.1890   51.4030 F   0  0  0  0  0  0  0  0  0  0  0  0
   37.8890   28.3100   51.1340 F   0  0  0  0  0  0  0  0  0  0  0  0
   37.5240   30.1960   52.3660 F   0  0  0  0  0  0  0  0  0  0  0  0
  1  2  1  0  0  0  0
  1 17  1  0  0  0  0
  2  7  1  0  0  0  0
  3  2  2  0  0  0  0
  4  3  1  0  0  0  0
  5  4  2  0  0  0  0
  5  6  1  0  0  0  0
  6  1  2  0  0  0  0
  8  3  1  0  0  0  0
  9  5  1  0  0  0  0
 10  9  1  0  0  0  0
 10 11  1  0  0  0  0
 12 10  2  0  0  0  0
 13 12  1  0  0  0  0
 14 12  1  0  0  0  0
 14 16  1  0  0  0  0
 15 14  1  0  0  0  0
 16  9  2  0  0  0  0
 17 18  1  0  0  0  0
 17 20  1  0  0  0  0
 19 17  1  0  0  0  0
M  END
>  <minimizedAffinity>
-5.08574057

>  <minimizedRMSD>
0.10221862

$$$$
