
 OpenBabel03272510183D

 35 38  0  0  0  0  0  0  0  0999 V2000
   37.4050   29.1690   50.7930 Br  0  0  0  0  0  0  0  0  0  0  0  0
   35.9950   29.2860   49.5160 C   0  0  0  0  0  0  0  0  0  0  0  0
   35.9930   30.2980   48.5580 C   0  0  0  0  0  0  0  0  0  0  0  0
   34.9510   30.3290   47.6660 C   0  0  0  0  0  0  0  0  0  0  0  0
   33.9190   29.4060   47.6840 C   0  0  0  0  0  0  0  0  0  0  0  0
   33.9440   28.4260   48.6300 C   0  0  0  0  0  0  0  0  0  0  0  0
   34.9820   28.3810   49.5320 C   0  0  0  0  0  0  0  0  0  0  0  0
   34.8920   31.0890   46.9000 H   0  0  0  0  0  0  0  0  0  0  0  0
   33.1560   27.6850   48.6760 H   0  0  0  0  0  0  0  0  0  0  0  0
   34.9700   27.5780   50.2780 H   0  0  0  0  0  0  0  0  0  0  0  0
   38.0200   33.1890   49.4840 C   0  0  0  0  0  0  0  0  0  0  0  0
   39.0540   33.1950   48.4970 C   0  0  0  0  0  0  0  0  0  0  0  0
   39.0300   32.2080   47.5390 C   0  0  0  0  0  0  0  0  0  0  0  0
   38.0300   31.2720   47.5680 N   0  0  0  0  0  0  0  0  0  0  0  0
   37.0600   31.2830   48.5110 C   0  0  0  0  0  0  0  0  0  0  0  0
   37.0620   32.2540   49.4750 N   0  0  0  0  0  0  0  0  0  0  0  0
   38.0120   33.9550   50.2540 H   0  0  0  0  0  0  0  0  0  0  0  0
   39.8030   33.9490   48.5270 H   0  0  0  0  0  0  0  0  0  0  0  0
   39.7930   32.1670   46.7640 H   0  0  0  0  0  0  0  0  0  0  0  0
   32.8090   29.4330   46.7370 C   0  0  0  0  0  0  0  0  0  0  0  0
   31.9000   28.4180   46.5520 C   0  0  0  0  0  0  0  0  0  0  0  0
   30.8640   28.5020   45.6370 C   0  0  0  0  0  0  0  0  0  0  0  0
   30.7270   29.6020   44.8970 N   0  0  0  0  0  0  0  0  0  0  0  0
   31.5990   30.6030   45.0600 C   0  0  0  0  0  0  0  0  0  0  0  0
   32.6040   30.5160   45.9510 N   0  0  0  0  0  0  0  0  0  0  0  0
   32.0150   27.5240   47.1560 H   0  0  0  0  0  0  0  0  0  0  0  0
   30.1800   27.6600   45.5410 H   0  0  0  0  0  0  0  0  0  0  0  0
   31.5780   31.8650   44.3250 C   0  0  0  0  0  0  0  0  0  0  0  0
   31.5890   33.0750   45.0150 C   0  0  0  0  0  0  0  0  0  0  0  0
   31.6110   33.2480   46.0710 H   0  0  0  0  0  0  0  0  0  0  0  0
   31.5650   34.1210   44.0820 C   0  0  0  0  0  0  0  0  0  0  0  0
   31.5660   35.1730   44.3330 H   0  0  0  0  0  0  0  0  0  0  0  0
   31.5400   33.4980   42.8670 N   0  0  0  0  0  0  0  0  0  0  0  0
   31.5190   34.0300   41.9710 H   0  0  0  0  0  0  0  0  0  0  0  0
   31.5480   32.1950   43.0010 N   0  0  0  0  0  0  0  0  0  0  0  0
  2  7  1  0  0  0  0
  2  1  1  0  0  0  0
  3  2  2  0  0  0  0
  4  5  2  0  0  0  0
  4  3  1  0  0  0  0
  5  6  1  0  0  0  0
  6  9  1  0  0  0  0
  6  7  2  0  0  0  0
  7 10  1  0  0  0  0
  8  4  1  0  0  0  0
 11 17  1  0  0  0  0
 12 18  1  0  0  0  0
 12 11  2  0  0  0  0
 13 14  2  0  0  0  0
 13 12  1  0  0  0  0
 14 15  1  0  0  0  0
 15  3  1  0  0  0  0
 15 16  2  0  0  0  0
 16 11  1  0  0  0  0
 19 13  1  0  0  0  0
 20  5  1  0  0  0  0
 21 20  1  0  0  0  0
 21 26  1  0  0  0  0
 22 21  2  0  0  0  0
 23 24  2  0  0  0  0
 23 22  1  0  0  0  0
 24 25  1  0  0  0  0
 25 20  2  0  0  0  0
 27 22  1  0  0  0  0
 28 29  1  0  0  0  0
 28 24  1  0  0  0  0
 29 30  1  0  0  0  0
 31 32  1  0  0  0  0
 31 29  2  0  0  0  0
 33 35  1  0  0  0  0
 33 31  1  0  0  0  0
 34 33  1  0  0  0  0
 35 28  2  0  0  0  0
M  END
>  <minimizedAffinity>
-6.39516878

>  <minimizedRMSD>
0.458699167

$$$$
