
 OpenBabel03272504313D

 31 33  0  0  0  0  0  0  0  0999 V2000
   38.6700   25.0760   35.0770 C   0  0  0  0  0  0  0  0  0  0  0  0
   39.6680   26.0570   35.1480 C   0  0  0  0  0  0  0  0  0  0  0  0
   39.7340   27.0290   34.1630 C   0  0  0  0  0  0  0  0  0  0  0  0
   38.8170   26.9890   33.1580 N   0  0  0  0  0  0  0  0  0  0  0  0
   37.8620   26.0280   33.1160 C   0  0  0  0  0  0  0  0  0  0  0  0
   37.7890   25.0880   34.0560 N   0  0  0  0  0  0  0  0  0  0  0  0
   40.3660   26.0230   35.9830 H   0  0  0  0  0  0  0  0  0  0  0  0
   40.4990   27.7840   34.2160 H   0  0  0  0  0  0  0  0  0  0  0  0
   38.5340   24.0400   36.0520 N   0  0  0  0  0  0  0  0  0  0  0  0
   37.6840   24.1840   37.2250 C   0  0  0  0  0  0  0  0  0  0  0  0
   38.3300   23.7200   38.4880 C   0  0  0  0  0  0  0  0  0  0  0  0
   39.2050   22.6120   38.3810 N   0  0  0  0  0  0  0  0  0  0  0  0
   40.1170   22.7540   37.2260 C   0  0  0  0  0  0  0  0  0  0  0  0
   39.1720   22.7730   36.0290 C   0  0  0  0  0  0  0  0  0  0  0  0
   37.4370   25.2710   37.3200 H   0  0  0  0  0  0  0  0  0  0  0  0
   36.7320   23.6590   37.0010 H   0  0  0  0  0  0  0  0  0  0  0  0
   37.5600   23.5130   39.2310 H   0  0  0  0  0  0  0  0  0  0  0  0
   38.9150   24.5960   38.8990 H   0  0  0  0  0  0  0  0  0  0  0  0
   38.6560   21.7330   38.1530 H   0  0  0  0  0  0  0  0  0  0  0  0
   40.5580   23.7550   37.3330 H   0  0  0  0  0  0  0  0  0  0  0  0
   40.8200   21.9170   37.1860 H   0  0  0  0  0  0  0  0  0  0  0  0
   38.4300   21.9370   36.1790 H   0  0  0  0  0  0  0  0  0  0  0  0
   39.7720   22.5440   35.1470 H   0  0  0  0  0  0  0  0  0  0  0  0
   36.8610   25.9560   32.0480 C   0  0  0  0  0  0  0  0  0  0  0  0
   36.2450   24.7110   31.9420 C   0  0  0  0  0  0  0  0  0  0  0  0
   36.3010   23.7410   32.4480 H   0  0  0  0  0  0  0  0  0  0  0  0
   35.3280   24.7880   30.8990 C   0  0  0  0  0  0  0  0  0  0  0  0
   34.6350   24.0510   30.4740 H   0  0  0  0  0  0  0  0  0  0  0  0
   35.4260   26.0540   30.4260 N   0  0  0  0  0  0  0  0  0  0  0  0
   34.8840   26.4580   29.6460 H   0  0  0  0  0  0  0  0  0  0  0  0
   36.3360   26.7580   31.1040 N   0  0  0  0  0  0  0  0  0  0  0  0
  1  2  1  0  0  0  0
  1  9  1  0  0  0  0
  2  7  1  0  0  0  0
  3  8  1  0  0  0  0
  3  2  2  0  0  0  0
  4  3  1  0  0  0  0
  5  4  2  0  0  0  0
  5  6  1  0  0  0  0
  6  1  2  0  0  0  0
  9 10  1  0  0  0  0
 10 15  1  0  0  0  0
 10 11  1  0  0  0  0
 11 18  1  0  0  0  0
 11 17  1  0  0  0  0
 12 11  1  0  0  0  0
 13 20  1  0  0  0  0
 13 12  1  0  0  0  0
 14  9  1  0  0  0  0
 14 22  1  0  0  0  0
 14 13  1  0  0  0  0
 16 10  1  0  0  0  0
 19 12  1  0  0  0  0
 21 13  1  0  0  0  0
 23 14  1  0  0  0  0
 24  5  1  0  0  0  0
 25 24  1  0  0  0  0
 25 26  1  0  0  0  0
 27 25  2  0  0  0  0
 28 27  1  0  0  0  0
 29 27  1  0  0  0  0
 29 31  1  0  0  0  0
 30 29  1  0  0  0  0
 31 24  2  0  0  0  0
M  END
>  <minimizedAffinity>
-5.34855175

$$$$

 OpenBabel03272504313D

 31 33  0  0  0  0  0  0  0  0999 V2000
   37.5510   25.7420   33.9010 C   0  0  0  0  0  0  0  0  0  0  0  0
   37.5260   27.1030   34.2330 C   0  0  0  0  0  0  0  0  0  0  0  0
   37.9280   27.4990   35.4990 C   0  0  0  0  0  0  0  0  0  0  0  0
   38.3340   26.5380   36.3740 N   0  0  0  0  0  0  0  0  0  0  0  0
   38.3480   25.2290   36.0240 C   0  0  0  0  0  0  0  0  0  0  0  0
   37.9630   24.8360   34.8110 N   0  0  0  0  0  0  0  0  0  0  0  0
   37.1890   27.8120   33.4790 H   0  0  0  0  0  0  0  0  0  0  0  0
   37.9110   28.5440   35.7560 H   0  0  0  0  0  0  0  0  0  0  0  0
   37.1530   25.2520   32.6190 N   0  0  0  0  0  0  0  0  0  0  0  0
   36.2550   25.9970   31.7470 C   0  0  0  0  0  0  0  0  0  0  0  0
   35.1870   25.1550   31.1340 C   0  0  0  0  0  0  0  0  0  0  0  0
   35.5390   23.8220   30.8130 N   0  0  0  0  0  0  0  0  0  0  0  0
   36.2870   23.1800   31.9150 C   0  0  0  0  0  0  0  0  0  0  0  0
   37.5510   24.0280   32.0240 C   0  0  0  0  0  0  0  0  0  0  0  0
   35.7790   26.7940   32.3710 H   0  0  0  0  0  0  0  0  0  0  0  0
   36.8890   26.5160   30.9980 H   0  0  0  0  0  0  0  0  0  0  0  0
   34.7960   25.6580   30.2500 H   0  0  0  0  0  0  0  0  0  0  0  0
   34.3270   25.1290   31.8680 H   0  0  0  0  0  0  0  0  0  0  0  0
   36.2300   23.8090   30.0070 H   0  0  0  0  0  0  0  0  0  0  0  0
   35.6770   23.3540   32.8120 H   0  0  0  0  0  0  0  0  0  0  0  0
   36.5070   22.1370   31.6740 H   0  0  0  0  0  0  0  0  0  0  0  0
   37.9360   24.1860   30.9760 H   0  0  0  0  0  0  0  0  0  0  0  0
   38.2840   23.4350   32.5720 H   0  0  0  0  0  0  0  0  0  0  0  0
   38.7780   24.1710   36.9420 C   0  0  0  0  0  0  0  0  0  0  0  0
   39.8450   23.4150   36.4610 C   0  0  0  0  0  0  0  0  0  0  0  0
   40.4710   23.3890   35.5630 H   0  0  0  0  0  0  0  0  0  0  0  0
   40.1440   22.4580   37.4260 C   0  0  0  0  0  0  0  0  0  0  0  0
   40.9010   21.6640   37.4640 H   0  0  0  0  0  0  0  0  0  0  0  0
   39.2610   22.6710   38.4320 N   0  0  0  0  0  0  0  0  0  0  0  0
   39.1990   22.1380   39.3130 H   0  0  0  0  0  0  0  0  0  0  0  0
   38.4430   23.6900   38.1530 N   0  0  0  0  0  0  0  0  0  0  0  0
  1  2  2  0  0  0  0
  1  6  1  0  0  0  0
  2  3  1  0  0  0  0
  3  8  1  0  0  0  0
  3  4  2  0  0  0  0
  5  4  1  0  0  0  0
  5 24  1  0  0  0  0
  6  5  2  0  0  0  0
  7  2  1  0  0  0  0
  9  1  1  0  0  0  0
 10 15  1  0  0  0  0
 10  9  1  0  0  0  0
 11 10  1  0  0  0  0
 11 18  1  0  0  0  0
 12 11  1  0  0  0  0
 12 13  1  0  0  0  0
 13 14  1  0  0  0  0
 13 20  1  0  0  0  0
 14 23  1  0  0  0  0
 14  9  1  0  0  0  0
 16 10  1  0  0  0  0
 17 11  1  0  0  0  0
 19 12  1  0  0  0  0
 21 13  1  0  0  0  0
 22 14  1  0  0  0  0
 24 31  2  0  0  0  0
 25 24  1  0  0  0  0
 25 27  2  0  0  0  0
 26 25  1  0  0  0  0
 27 28  1  0  0  0  0
 27 29  1  0  0  0  0
 29 30  1  0  0  0  0
 31 29  1  0  0  0  0
M  END
>  <minimizedAffinity>
-5.19034195

$$$$

 OpenBabel03272504313D

 31 33  0  0  0  0  0  0  0  0999 V2000
   37.0460   22.4220   33.0460 C   0  0  0  0  0  0  0  0  0  0  0  0
   37.5010   23.4720   32.2360 C   0  0  0  0  0  0  0  0  0  0  0  0
   38.3870   24.3980   32.7620 C   0  0  0  0  0  0  0  0  0  0  0  0
   38.7820   24.2470   34.0560 N   0  0  0  0  0  0  0  0  0  0  0  0
   38.3250   23.2210   34.8150 C   0  0  0  0  0  0  0  0  0  0  0  0
   37.4740   22.3250   34.3210 N   0  0  0  0  0  0  0  0  0  0  0  0
   37.1400   23.5260   31.2100 H   0  0  0  0  0  0  0  0  0  0  0  0
   38.7380   25.2050   32.1420 H   0  0  0  0  0  0  0  0  0  0  0  0
   36.1330   21.4270   32.5790 N   0  0  0  0  0  0  0  0  0  0  0  0
   35.5110   20.4630   33.4760 C   0  0  0  0  0  0  0  0  0  0  0  0
   35.5240   19.0660   32.9500 C   0  0  0  0  0  0  0  0  0  0  0  0
   35.3890   18.9170   31.5480 N   0  0  0  0  0  0  0  0  0  0  0  0
   36.2520   19.8700   30.8190 C   0  0  0  0  0  0  0  0  0  0  0  0
   35.7110   21.2330   31.2390 C   0  0  0  0  0  0  0  0  0  0  0  0
   36.0800   20.4950   34.4390 H   0  0  0  0  0  0  0  0  0  0  0  0
   34.4900   20.8390   33.6970 H   0  0  0  0  0  0  0  0  0  0  0  0
   34.7570   18.4830   33.4600 H   0  0  0  0  0  0  0  0  0  0  0  0
   36.5080   18.6060   33.2630 H   0  0  0  0  0  0  0  0  0  0  0  0
   34.4100   19.1910   31.2440 H   0  0  0  0  0  0  0  0  0  0  0  0
   37.2510   19.7450   31.2600 H   0  0  0  0  0  0  0  0  0  0  0  0
   36.1760   19.7090   29.7400 H   0  0  0  0  0  0  0  0  0  0  0  0
   34.5860   21.1790   31.1670 H   0  0  0  0  0  0  0  0  0  0  0  0
   36.0670   21.9560   30.5050 H   0  0  0  0  0  0  0  0  0  0  0  0
   38.7300   23.0310   36.2100 C   0  0  0  0  0  0  0  0  0  0  0  0
   37.9090   23.6860   37.1250 C   0  0  0  0  0  0  0  0  0  0  0  0
   37.0190   24.3230   37.0930 H   0  0  0  0  0  0  0  0  0  0  0  0
   38.4080   23.4200   38.3960 C   0  0  0  0  0  0  0  0  0  0  0  0
   38.0770   23.7300   39.3960 H   0  0  0  0  0  0  0  0  0  0  0  0
   39.4910   22.6290   38.2010 N   0  0  0  0  0  0  0  0  0  0  0  0
   40.1040   22.2410   38.9350 H   0  0  0  0  0  0  0  0  0  0  0  0
   39.6910   22.3910   36.9010 N   0  0  0  0  0  0  0  0  0  0  0  0
  1  6  1  0  0  0  0
  2  3  1  0  0  0  0
  2  1  2  0  0  0  0
  3  4  2  0  0  0  0
  4  5  1  0  0  0  0
  5 24  1  0  0  0  0
  6  5  2  0  0  0  0
  7  2  1  0  0  0  0
  8  3  1  0  0  0  0
  9  1  1  0  0  0  0
  9 10  1  0  0  0  0
 10 16  1  0  0  0  0
 10 15  1  0  0  0  0
 11 18  1  0  0  0  0
 11 17  1  0  0  0  0
 11 10  1  0  0  0  0
 12 11  1  0  0  0  0
 13 14  1  0  0  0  0
 13 20  1  0  0  0  0
 13 12  1  0  0  0  0
 14  9  1  0  0  0  0
 19 12  1  0  0  0  0
 21 13  1  0  0  0  0
 22 14  1  0  0  0  0
 23 14  1  0  0  0  0
 24 31  2  0  0  0  0
 24 25  1  0  0  0  0
 25 27  2  0  0  0  0
 26 25  1  0  0  0  0
 27 28  1  0  0  0  0
 29 27  1  0  0  0  0
 29 30  1  0  0  0  0
 31 29  1  0  0  0  0
M  END
>  <minimizedAffinity>
-5.07215023

$$$$

 OpenBabel03272504313D

 31 33  0  0  0  0  0  0  0  0999 V2000
   37.5730   25.5020   33.6630 C   0  0  0  0  0  0  0  0  0  0  0  0
   37.3390   24.5920   32.6240 C   0  0  0  0  0  0  0  0  0  0  0  0
   37.5570   23.2410   32.8440 C   0  0  0  0  0  0  0  0  0  0  0  0
   37.9940   22.8540   34.0740 N   0  0  0  0  0  0  0  0  0  0  0  0
   38.2110   23.7580   35.0600 C   0  0  0  0  0  0  0  0  0  0  0  0
   38.0050   25.0580   34.8600 N   0  0  0  0  0  0  0  0  0  0  0  0
   36.9890   24.9790   31.6670 H   0  0  0  0  0  0  0  0  0  0  0  0
   37.3780   22.5400   32.0480 H   0  0  0  0  0  0  0  0  0  0  0  0
   37.3720   26.9100   33.5160 N   0  0  0  0  0  0  0  0  0  0  0  0
   36.9920   27.7610   34.6350 C   0  0  0  0  0  0  0  0  0  0  0  0
   35.9010   28.7240   34.3070 C   0  0  0  0  0  0  0  0  0  0  0  0
   35.8910   29.2440   32.9890 N   0  0  0  0  0  0  0  0  0  0  0  0
   36.1090   28.1780   31.9880 C   0  0  0  0  0  0  0  0  0  0  0  0
   37.5050   27.6600   32.3200 C   0  0  0  0  0  0  0  0  0  0  0  0
   36.6470   27.0860   35.4580 H   0  0  0  0  0  0  0  0  0  0  0  0
   37.9200   28.2540   34.9960 H   0  0  0  0  0  0  0  0  0  0  0  0
   35.9150   29.5420   35.0270 H   0  0  0  0  0  0  0  0  0  0  0  0
   34.9230   28.1870   34.4840 H   0  0  0  0  0  0  0  0  0  0  0  0
   36.7210   29.8900   32.8440 H   0  0  0  0  0  0  0  0  0  0  0  0
   35.3820   27.3950   32.2430 H   0  0  0  0  0  0  0  0  0  0  0  0
   36.0480   28.5850   30.9750 H   0  0  0  0  0  0  0  0  0  0  0  0
   38.1660   28.5620   32.4720 H   0  0  0  0  0  0  0  0  0  0  0  0
   37.8600   27.1200   31.4420 H   0  0  0  0  0  0  0  0  0  0  0  0
   38.6810   23.3730   36.3930 C   0  0  0  0  0  0  0  0  0  0  0  0
   37.9850   23.9900   37.4310 C   0  0  0  0  0  0  0  0  0  0  0  0
   37.1600   24.7030   37.5320 H   0  0  0  0  0  0  0  0  0  0  0  0
   38.5330   23.5370   38.6270 C   0  0  0  0  0  0  0  0  0  0  0  0
   38.2950   23.7600   39.6750 H   0  0  0  0  0  0  0  0  0  0  0  0
   39.5200   22.6800   38.2690 N   0  0  0  0  0  0  0  0  0  0  0  0
   40.1370   22.1580   38.9110 H   0  0  0  0  0  0  0  0  0  0  0  0
   39.6160   22.5760   36.9410 N   0  0  0  0  0  0  0  0  0  0  0  0
  1  6  1  0  0  0  0
  2  3  1  0  0  0  0
  2  1  2  0  0  0  0
  3  4  2  0  0  0  0
  4  5  1  0  0  0  0
  5 24  1  0  0  0  0
  6  5  2  0  0  0  0
  7  2  1  0  0  0  0
  8  3  1  0  0  0  0
  9  1  1  0  0  0  0
  9 10  1  0  0  0  0
 10 16  1  0  0  0  0
 10 15  1  0  0  0  0
 11 18  1  0  0  0  0
 11 10  1  0  0  0  0
 11 17  1  0  0  0  0
 12 11  1  0  0  0  0
 13 20  1  0  0  0  0
 13 14  1  0  0  0  0
 13 12  1  0  0  0  0
 14 22  1  0  0  0  0
 14  9  1  0  0  0  0
 19 12  1  0  0  0  0
 21 13  1  0  0  0  0
 23 14  1  0  0  0  0
 24 31  2  0  0  0  0
 24 25  1  0  0  0  0
 25 26  1  0  0  0  0
 25 27  2  0  0  0  0
 27 28  1  0  0  0  0
 29 27  1  0  0  0  0
 29 30  1  0  0  0  0
 31 29  1  0  0  0  0
M  END
>  <minimizedAffinity>
-4.92041492

$$$$

 OpenBabel03272504313D

 31 33  0  0  0  0  0  0  0  0999 V2000
   39.0130   24.8650   35.1070 C   0  0  0  0  0  0  0  0  0  0  0  0
   40.2680   24.9450   34.4890 C   0  0  0  0  0  0  0  0  0  0  0  0
   40.4730   25.8850   33.4910 C   0  0  0  0  0  0  0  0  0  0  0  0
   39.4360   26.6980   33.1510 N   0  0  0  0  0  0  0  0  0  0  0  0
   38.2330   26.5970   33.7670 C   0  0  0  0  0  0  0  0  0  0  0  0
   38.0230   25.6990   34.7260 N   0  0  0  0  0  0  0  0  0  0  0  0
   41.0490   24.2610   34.8170 H   0  0  0  0  0  0  0  0  0  0  0  0
   41.4370   25.9480   33.0160 H   0  0  0  0  0  0  0  0  0  0  0  0
   38.7210   23.9260   36.1440 N   0  0  0  0  0  0  0  0  0  0  0  0
   37.7450   24.2010   37.1890 C   0  0  0  0  0  0  0  0  0  0  0  0
   38.2180   23.8340   38.5560 C   0  0  0  0  0  0  0  0  0  0  0  0
   39.0530   22.6940   38.6510 N   0  0  0  0  0  0  0  0  0  0  0  0
   40.1000   22.7040   37.6070 C   0  0  0  0  0  0  0  0  0  0  0  0
   39.3040   22.6430   36.3070 C   0  0  0  0  0  0  0  0  0  0  0  0
   37.5330   25.2990   37.1590 H   0  0  0  0  0  0  0  0  0  0  0  0
   36.8050   23.6870   36.8960 H   0  0  0  0  0  0  0  0  0  0  0  0
   37.3570   23.7180   39.2140 H   0  0  0  0  0  0  0  0  0  0  0  0
   38.7850   24.7250   38.9580 H   0  0  0  0  0  0  0  0  0  0  0  0
   38.4990   21.8150   38.4340 H   0  0  0  0  0  0  0  0  0  0  0  0
   40.5660   23.6960   37.6800 H   0  0  0  0  0  0  0  0  0  0  0  0
   40.7670   21.8460   37.7250 H   0  0  0  0  0  0  0  0  0  0  0  0
   38.5160   21.8470   36.4370 H   0  0  0  0  0  0  0  0  0  0  0  0
   39.9940   22.3180   35.5280 H   0  0  0  0  0  0  0  0  0  0  0  0
   37.0970   27.4560   33.4240 C   0  0  0  0  0  0  0  0  0  0  0  0
   36.6060   28.1910   34.5010 C   0  0  0  0  0  0  0  0  0  0  0  0
   36.8390   28.3100   35.5650 H   0  0  0  0  0  0  0  0  0  0  0  0
   35.5400   28.9530   34.0340 C   0  0  0  0  0  0  0  0  0  0  0  0
   34.8720   29.6660   34.5340 H   0  0  0  0  0  0  0  0  0  0  0  0
   35.4320   28.6530   32.7170 N   0  0  0  0  0  0  0  0  0  0  0  0
   34.7410   29.0420   32.0570 H   0  0  0  0  0  0  0  0  0  0  0  0
   36.3550   27.7620   32.3430 N   0  0  0  0  0  0  0  0  0  0  0  0
  1  9  1  0  0  0  0
  2  7  1  0  0  0  0
  2  1  2  0  0  0  0
  3  2  1  0  0  0  0
  4  3  2  0  0  0  0
  4  5  1  0  0  0  0
  5  6  2  0  0  0  0
  6  1  1  0  0  0  0
  8  3  1  0  0  0  0
  9 14  1  0  0  0  0
  9 10  1  0  0  0  0
 10 11  1  0  0  0  0
 11 12  1  0  0  0  0
 11 18  1  0  0  0  0
 11 17  1  0  0  0  0
 13 20  1  0  0  0  0
 13 21  1  0  0  0  0
 13 12  1  0  0  0  0
 14 22  1  0  0  0  0
 14 13  1  0  0  0  0
 15 10  1  0  0  0  0
 16 10  1  0  0  0  0
 19 12  1  0  0  0  0
 23 14  1  0  0  0  0
 24  5  1  0  0  0  0
 24 25  1  0  0  0  0
 25 26  1  0  0  0  0
 27 25  2  0  0  0  0
 27 28  1  0  0  0  0
 29 27  1  0  0  0  0
 30 29  1  0  0  0  0
 31 29  1  0  0  0  0
 31 24  2  0  0  0  0
M  END
>  <minimizedAffinity>
-4.86609793

$$$$

 OpenBabel03272504313D

 31 33  0  0  0  0  0  0  0  0999 V2000
   38.1810   25.0400   35.3230 C   0  0  0  0  0  0  0  0  0  0  0  0
   37.8980   26.3450   35.7480 C   0  0  0  0  0  0  0  0  0  0  0  0
   37.7600   27.3500   34.8030 C   0  0  0  0  0  0  0  0  0  0  0  0
   37.9060   27.0220   33.4900 N   0  0  0  0  0  0  0  0  0  0  0  0
   38.1790   25.7500   33.1090 C   0  0  0  0  0  0  0  0  0  0  0  0
   38.3140   24.7770   34.0070 N   0  0  0  0  0  0  0  0  0  0  0  0
   37.7950   26.5300   36.8160 H   0  0  0  0  0  0  0  0  0  0  0  0
   37.5430   28.3530   35.1270 H   0  0  0  0  0  0  0  0  0  0  0  0
   38.3380   23.9490   36.2330 N   0  0  0  0  0  0  0  0  0  0  0  0
   37.7370   23.9500   37.5590 C   0  0  0  0  0  0  0  0  0  0  0  0
   38.6660   23.4910   38.6330 C   0  0  0  0  0  0  0  0  0  0  0  0
   39.5930   22.4810   38.2780 N   0  0  0  0  0  0  0  0  0  0  0  0
   40.2340   22.7700   36.9770 C   0  0  0  0  0  0  0  0  0  0  0  0
   39.0650   22.7540   35.9960 C   0  0  0  0  0  0  0  0  0  0  0  0
   37.4210   25.0010   37.7750 H   0  0  0  0  0  0  0  0  0  0  0  0
   36.8080   23.3450   37.4930 H   0  0  0  0  0  0  0  0  0  0  0  0
   38.0850   23.1720   39.4980 H   0  0  0  0  0  0  0  0  0  0  0  0
   39.2430   24.3990   38.9790 H   0  0  0  0  0  0  0  0  0  0  0  0
   39.0880   21.5640   38.1040 H   0  0  0  0  0  0  0  0  0  0  0  0
   40.5980   23.8040   37.0620 H   0  0  0  0  0  0  0  0  0  0  0  0
   40.9830   22.0100   36.7410 H   0  0  0  0  0  0  0  0  0  0  0  0
   38.4450   21.8420   36.2340 H   0  0  0  0  0  0  0  0  0  0  0  0
   39.4900   22.6300   35.0000 H   0  0  0  0  0  0  0  0  0  0  0  0
   38.3410   25.3650   31.7050 C   0  0  0  0  0  0  0  0  0  0  0  0
   38.1160   24.0100   31.4680 C   0  0  0  0  0  0  0  0  0  0  0  0
   37.8430   23.1270   32.0540 H   0  0  0  0  0  0  0  0  0  0  0  0
   38.3050   23.7900   30.1070 C   0  0  0  0  0  0  0  0  0  0  0  0
   38.2320   22.8830   29.4930 H   0  0  0  0  0  0  0  0  0  0  0  0
   38.6300   24.9980   29.5870 N   0  0  0  0  0  0  0  0  0  0  0  0
   38.8380   25.2010   28.5970 H   0  0  0  0  0  0  0  0  0  0  0  0
   38.6550   25.9430   30.5320 N   0  0  0  0  0  0  0  0  0  0  0  0
  1  2  1  0  0  0  0
  1  9  1  0  0  0  0
  2  7  1  0  0  0  0
  3  8  1  0  0  0  0
  3  2  2  0  0  0  0
  4  3  1  0  0  0  0
  5  4  2  0  0  0  0
  5  6  1  0  0  0  0
  6  1  2  0  0  0  0
  9 10  1  0  0  0  0
 10 15  1  0  0  0  0
 10 11  1  0  0  0  0
 11 18  1  0  0  0  0
 11 17  1  0  0  0  0
 12 11  1  0  0  0  0
 13 20  1  0  0  0  0
 13 12  1  0  0  0  0
 14  9  1  0  0  0  0
 14 22  1  0  0  0  0
 14 13  1  0  0  0  0
 16 10  1  0  0  0  0
 19 12  1  0  0  0  0
 21 13  1  0  0  0  0
 23 14  1  0  0  0  0
 24  5  1  0  0  0  0
 25 24  1  0  0  0  0
 25 26  1  0  0  0  0
 27 25  2  0  0  0  0
 28 27  1  0  0  0  0
 29 27  1  0  0  0  0
 29 31  1  0  0  0  0
 30 29  1  0  0  0  0
 31 24  2  0  0  0  0
M  END
>  <minimizedAffinity>
-4.84322119

$$$$

 OpenBabel03272504313D

 31 33  0  0  0  0  0  0  0  0999 V2000
   38.1710   23.8100   34.5580 C   0  0  0  0  0  0  0  0  0  0  0  0
   38.0880   24.9410   33.7340 C   0  0  0  0  0  0  0  0  0  0  0  0
   37.5000   24.8270   32.4840 C   0  0  0  0  0  0  0  0  0  0  0  0
   37.0240   23.6090   32.1070 N   0  0  0  0  0  0  0  0  0  0  0  0
   37.1180   22.5330   32.9250 C   0  0  0  0  0  0  0  0  0  0  0  0
   37.6800   22.6290   34.1280 N   0  0  0  0  0  0  0  0  0  0  0  0
   38.4910   25.8810   34.1070 H   0  0  0  0  0  0  0  0  0  0  0  0
   37.4350   25.6940   31.8500 H   0  0  0  0  0  0  0  0  0  0  0  0
   38.7610   23.8440   35.8590 N   0  0  0  0  0  0  0  0  0  0  0  0
   40.0700   23.2680   36.1340 C   0  0  0  0  0  0  0  0  0  0  0  0
   40.1110   22.4530   37.3830 C   0  0  0  0  0  0  0  0  0  0  0  0
   39.2940   22.8950   38.4530 N   0  0  0  0  0  0  0  0  0  0  0  0
   37.9390   23.2550   37.9840 C   0  0  0  0  0  0  0  0  0  0  0  0
   38.1930   24.4150   37.0260 C   0  0  0  0  0  0  0  0  0  0  0  0
   40.3290   22.6140   35.2640 H   0  0  0  0  0  0  0  0  0  0  0  0
   40.7980   24.1060   36.1310 H   0  0  0  0  0  0  0  0  0  0  0  0
   41.1440   22.3630   37.7190 H   0  0  0  0  0  0  0  0  0  0  0  0
   39.7940   21.4050   37.1030 H   0  0  0  0  0  0  0  0  0  0  0  0
   39.6680   23.8070   38.8470 H   0  0  0  0  0  0  0  0  0  0  0  0
   37.6020   22.3900   37.3960 H   0  0  0  0  0  0  0  0  0  0  0  0
   37.3060   23.5450   38.8270 H   0  0  0  0  0  0  0  0  0  0  0  0
   38.9180   25.1130   37.5360 H   0  0  0  0  0  0  0  0  0  0  0  0
   37.2440   24.9370   36.9030 H   0  0  0  0  0  0  0  0  0  0  0  0
   36.6150   21.2090   32.5490 C   0  0  0  0  0  0  0  0  0  0  0  0
   35.2270   21.1460   32.4470 C   0  0  0  0  0  0  0  0  0  0  0  0
   34.3810   21.8300   32.5730 H   0  0  0  0  0  0  0  0  0  0  0  0
   34.8950   19.8440   32.0880 C   0  0  0  0  0  0  0  0  0  0  0  0
   33.9290   19.3570   31.9020 H   0  0  0  0  0  0  0  0  0  0  0  0
   36.0750   19.1850   31.9890 N   0  0  0  0  0  0  0  0  0  0  0  0
   36.2000   18.1920   31.7380 H   0  0  0  0  0  0  0  0  0  0  0  0
   37.1060   19.9900   32.2620 N   0  0  0  0  0  0  0  0  0  0  0  0
  1  9  1  0  0  0  0
  2  7  1  0  0  0  0
  2  1  2  0  0  0  0
  3  2  1  0  0  0  0
  4  3  2  0  0  0  0
  4  5  1  0  0  0  0
  5  6  2  0  0  0  0
  6  1  1  0  0  0  0
  8  3  1  0  0  0  0
  9 10  1  0  0  0  0
  9 14  1  0  0  0  0
 10 11  1  0  0  0  0
 11 17  1  0  0  0  0
 11 12  1  0  0  0  0
 12 19  1  0  0  0  0
 13 12  1  0  0  0  0
 13 21  1  0  0  0  0
 14 22  1  0  0  0  0
 14 13  1  0  0  0  0
 15 10  1  0  0  0  0
 16 10  1  0  0  0  0
 18 11  1  0  0  0  0
 20 13  1  0  0  0  0
 23 14  1  0  0  0  0
 24  5  1  0  0  0  0
 25 24  1  0  0  0  0
 25 26  1  0  0  0  0
 27 25  2  0  0  0  0
 28 27  1  0  0  0  0
 29 27  1  0  0  0  0
 29 31  1  0  0  0  0
 30 29  1  0  0  0  0
 31 24  2  0  0  0  0
M  END
>  <minimizedAffinity>
-4.81302881

$$$$

 OpenBabel03272504313D

 31 33  0  0  0  0  0  0  0  0999 V2000
   38.1640   23.7050   34.6310 C   0  0  0  0  0  0  0  0  0  0  0  0
   38.0040   22.4700   33.9900 C   0  0  0  0  0  0  0  0  0  0  0  0
   37.4580   22.4330   32.7170 C   0  0  0  0  0  0  0  0  0  0  0  0
   37.0980   23.6120   32.1380 N   0  0  0  0  0  0  0  0  0  0  0  0
   37.2650   24.7920   32.7830 C   0  0  0  0  0  0  0  0  0  0  0  0
   37.7880   24.8400   34.0060 N   0  0  0  0  0  0  0  0  0  0  0  0
   38.3160   21.5700   34.5180 H   0  0  0  0  0  0  0  0  0  0  0  0
   37.3350   21.4860   32.2220 H   0  0  0  0  0  0  0  0  0  0  0  0
   38.7180   23.8290   35.9430 N   0  0  0  0  0  0  0  0  0  0  0  0
   40.0430   23.3260   36.2780 C   0  0  0  0  0  0  0  0  0  0  0  0
   40.0870   22.5770   37.5670 C   0  0  0  0  0  0  0  0  0  0  0  0
   39.2250   23.0340   38.5940 N   0  0  0  0  0  0  0  0  0  0  0  0
   37.8680   23.3110   38.0760 C   0  0  0  0  0  0  0  0  0  0  0  0
   38.0960   24.4320   37.0660 C   0  0  0  0  0  0  0  0  0  0  0  0
   40.3530   22.6420   35.4480 H   0  0  0  0  0  0  0  0  0  0  0  0
   40.7350   24.1940   36.2500 H   0  0  0  0  0  0  0  0  0  0  0  0
   41.1130   22.5490   37.9320 H   0  0  0  0  0  0  0  0  0  0  0  0
   39.8230   21.5030   37.3330 H   0  0  0  0  0  0  0  0  0  0  0  0
   39.5490   23.9800   38.9500 H   0  0  0  0  0  0  0  0  0  0  0  0
   37.5830   22.4040   37.5240 H   0  0  0  0  0  0  0  0  0  0  0  0
   37.2010   23.6130   38.8870 H   0  0  0  0  0  0  0  0  0  0  0  0
   38.7770   25.1860   37.5570 H   0  0  0  0  0  0  0  0  0  0  0  0
   37.1290   24.9050   36.8940 H   0  0  0  0  0  0  0  0  0  0  0  0
   36.8880   26.0760   32.1880 C   0  0  0  0  0  0  0  0  0  0  0  0
   37.7200   27.1300   32.5600 C   0  0  0  0  0  0  0  0  0  0  0  0
   38.6040   27.2720   33.1910 H   0  0  0  0  0  0  0  0  0  0  0  0
   37.2470   28.2760   31.9280 C   0  0  0  0  0  0  0  0  0  0  0  0
   37.5950   29.3170   31.9380 H   0  0  0  0  0  0  0  0  0  0  0  0
   36.1680   27.8750   31.2130 N   0  0  0  0  0  0  0  0  0  0  0  0
   35.5720   28.4730   30.6200 H   0  0  0  0  0  0  0  0  0  0  0  0
   35.9460   26.5660   31.3620 N   0  0  0  0  0  0  0  0  0  0  0  0
  1  9  1  0  0  0  0
  2  7  1  0  0  0  0
  2  1  2  0  0  0  0
  3  2  1  0  0  0  0
  4  3  2  0  0  0  0
  4  5  1  0  0  0  0
  5  6  2  0  0  0  0
  6  1  1  0  0  0  0
  8  3  1  0  0  0  0
  9 10  1  0  0  0  0
  9 14  1  0  0  0  0
 10 11  1  0  0  0  0
 11 17  1  0  0  0  0
 11 12  1  0  0  0  0
 12 19  1  0  0  0  0
 13 12  1  0  0  0  0
 13 21  1  0  0  0  0
 14 22  1  0  0  0  0
 14 13  1  0  0  0  0
 15 10  1  0  0  0  0
 16 10  1  0  0  0  0
 18 11  1  0  0  0  0
 20 13  1  0  0  0  0
 23 14  1  0  0  0  0
 24 25  1  0  0  0  0
 24  5  1  0  0  0  0
 25 26  1  0  0  0  0
 27 28  1  0  0  0  0
 27 25  2  0  0  0  0
 29 31  1  0  0  0  0
 29 27  1  0  0  0  0
 30 29  1  0  0  0  0
 31 24  2  0  0  0  0
M  END
>  <minimizedAffinity>
-4.76416111

$$$$

 OpenBabel03272504313D

 31 33  0  0  0  0  0  0  0  0999 V2000
   37.6010   23.9230   33.1510 C   0  0  0  0  0  0  0  0  0  0  0  0
   37.3470   25.2960   33.0470 C   0  0  0  0  0  0  0  0  0  0  0  0
   37.6030   26.1170   34.1340 C   0  0  0  0  0  0  0  0  0  0  0  0
   38.0960   25.5470   35.2680 N   0  0  0  0  0  0  0  0  0  0  0  0
   38.3310   24.2140   35.3390 C   0  0  0  0  0  0  0  0  0  0  0  0
   38.0900   23.4150   34.3010 N   0  0  0  0  0  0  0  0  0  0  0  0
   36.9540   25.6790   32.1060 H   0  0  0  0  0  0  0  0  0  0  0  0
   37.4100   27.1730   34.0560 H   0  0  0  0  0  0  0  0  0  0  0  0
   37.3650   23.0090   32.0770 N   0  0  0  0  0  0  0  0  0  0  0  0
   36.1020   22.9710   31.3530 C   0  0  0  0  0  0  0  0  0  0  0  0
   35.5860   21.5890   31.1300 C   0  0  0  0  0  0  0  0  0  0  0  0
   36.5550   20.5800   30.9140 N   0  0  0  0  0  0  0  0  0  0  0  0
   37.6680   20.6840   31.8810 C   0  0  0  0  0  0  0  0  0  0  0  0
   38.2780   22.0480   31.5730 C   0  0  0  0  0  0  0  0  0  0  0  0
   35.3590   23.5450   31.9610 H   0  0  0  0  0  0  0  0  0  0  0  0
   36.2520   23.5420   30.4120 H   0  0  0  0  0  0  0  0  0  0  0  0
   34.8730   21.6010   30.3050 H   0  0  0  0  0  0  0  0  0  0  0  0
   34.9810   21.3130   32.0440 H   0  0  0  0  0  0  0  0  0  0  0  0
   37.0310   20.7230   29.9760 H   0  0  0  0  0  0  0  0  0  0  0  0
   37.1850   20.7380   32.8670 H   0  0  0  0  0  0  0  0  0  0  0  0
   38.3810   19.8690   31.7350 H   0  0  0  0  0  0  0  0  0  0  0  0
   38.3750   22.1220   30.4510 H   0  0  0  0  0  0  0  0  0  0  0  0
   39.2790   22.0520   32.0040 H   0  0  0  0  0  0  0  0  0  0  0  0
   38.8600   23.5690   36.5430 C   0  0  0  0  0  0  0  0  0  0  0  0
   40.1210   23.0020   36.3660 C   0  0  0  0  0  0  0  0  0  0  0  0
   40.8490   22.9010   35.5550 H   0  0  0  0  0  0  0  0  0  0  0  0
   40.4940   22.4310   37.5790 C   0  0  0  0  0  0  0  0  0  0  0  0
   41.3950   21.8870   37.8880 H   0  0  0  0  0  0  0  0  0  0  0  0
   39.4620   22.6730   38.4240 N   0  0  0  0  0  0  0  0  0  0  0  0
   39.4040   22.3870   39.4140 H   0  0  0  0  0  0  0  0  0  0  0  0
   38.4840   23.3500   37.8160 N   0  0  0  0  0  0  0  0  0  0  0  0
  1  6  1  0  0  0  0
  2  1  2  0  0  0  0
  2  3  1  0  0  0  0
  3  4  2  0  0  0  0
  4  5  1  0  0  0  0
  5 24  1  0  0  0  0
  6  5  2  0  0  0  0
  7  2  1  0  0  0  0
  8  3  1  0  0  0  0
  9  1  1  0  0  0  0
 10 15  1  0  0  0  0
 10  9  1  0  0  0  0
 11 10  1  0  0  0  0
 11 18  1  0  0  0  0
 12 11  1  0  0  0  0
 12 13  1  0  0  0  0
 13 20  1  0  0  0  0
 14 13  1  0  0  0  0
 14 23  1  0  0  0  0
 14  9  1  0  0  0  0
 16 10  1  0  0  0  0
 17 11  1  0  0  0  0
 19 12  1  0  0  0  0
 21 13  1  0  0  0  0
 22 14  1  0  0  0  0
 24 31  2  0  0  0  0
 25 24  1  0  0  0  0
 25 27  2  0  0  0  0
 26 25  1  0  0  0  0
 27 28  1  0  0  0  0
 27 29  1  0  0  0  0
 29 30  1  0  0  0  0
 31 29  1  0  0  0  0
M  END
>  <minimizedAffinity>
-4.6926322

$$$$
