
 OpenBabel03272503383D

 18 19  0  0  0  0  0  0  0  0999 V2000
   37.8050   26.9620   35.2020 C   0  0  0  0  0  0  0  0  0  0  0  0
   38.4100   26.0750   36.1020 C   0  0  0  0  0  0  0  0  0  0  0  0
   38.5950   24.7560   35.7010 C   0  0  0  0  0  0  0  0  0  0  0  0
   38.1780   24.4010   34.4600 N   0  0  0  0  0  0  0  0  0  0  0  0
   37.5940   25.2850   33.6060 C   0  0  0  0  0  0  0  0  0  0  0  0
   37.4110   26.5580   33.9810 N   0  0  0  0  0  0  0  0  0  0  0  0
   38.7560   26.2860   37.0790 H   0  0  0  0  0  0  0  0  0  0  0  0
   37.2590   25.0270   32.6240 H   0  0  0  0  0  0  0  0  0  0  0  0
   39.2150   23.7680   36.5760 C   0  0  0  0  0  0  0  0  0  0  0  0
   40.3460   23.0440   36.2570 C   0  0  0  0  0  0  0  0  0  0  0  0
   40.9280   23.0810   35.3670 H   0  0  0  0  0  0  0  0  0  0  0  0
   40.5390   22.2520   37.3940 C   0  0  0  0  0  0  0  0  0  0  0  0
   41.3490   21.5450   37.5020 H   0  0  0  0  0  0  0  0  0  0  0  0
   39.5780   22.4980   38.3210 N   0  0  0  0  0  0  0  0  0  0  0  0
   39.5000   22.0360   39.2550 H   0  0  0  0  0  0  0  0  0  0  0  0
   38.7840   23.4250   37.7980 N   0  0  0  0  0  0  0  0  0  0  0  0
   37.6940   28.2400   35.7540 O   0  0  0  0  0  0  0  0  0  0  0  0
   38.5570   28.7580   35.8590 H   0  0  0  0  0  0  0  0  0  0  0  0
  1 17  1  0  0  0  0
  1  2  1  0  0  0  0
  2  7  1  0  0  0  0
  3  2  2  0  0  0  0
  3  9  1  0  0  0  0
  4  3  1  0  0  0  0
  5  6  1  0  0  0  0
  5  4  2  0  0  0  0
  6  1  2  0  0  0  0
  8  5  1  0  0  0  0
  9 16  2  0  0  0  0
 10  9  1  0  0  0  0
 10 12  2  0  0  0  0
 11 10  1  0  0  0  0
 12 13  1  0  0  0  0
 12 14  1  0  0  0  0
 14 15  1  0  0  0  0
 16 14  1  0  0  0  0
 17 18  1  0  0  0  0
M  END
>  <minimizedAffinity>
-4.24752235

$$$$

 OpenBabel03272503383D

 18 19  0  0  0  0  0  0  0  0999 V2000
   39.1250   23.0570   37.8240 C   0  0  0  0  0  0  0  0  0  0  0  0
   38.4050   24.1110   37.2470 C   0  0  0  0  0  0  0  0  0  0  0  0
   38.8790   24.6600   36.0600 C   0  0  0  0  0  0  0  0  0  0  0  0
   40.0150   24.1420   35.5280 N   0  0  0  0  0  0  0  0  0  0  0  0
   40.6940   23.1180   36.1100 C   0  0  0  0  0  0  0  0  0  0  0  0
   40.2460   22.5810   37.2540 N   0  0  0  0  0  0  0  0  0  0  0  0
   37.5170   24.5580   37.6090 H   0  0  0  0  0  0  0  0  0  0  0  0
   41.5890   22.6950   35.7080 H   0  0  0  0  0  0  0  0  0  0  0  0
   38.1920   25.7590   35.3940 C   0  0  0  0  0  0  0  0  0  0  0  0
   38.1250   27.0470   35.8830 C   0  0  0  0  0  0  0  0  0  0  0  0
   38.5410   27.4400   36.7810 H   0  0  0  0  0  0  0  0  0  0  0  0
   37.3760   27.7120   34.9060 C   0  0  0  0  0  0  0  0  0  0  0  0
   37.1200   28.7610   34.9580 H   0  0  0  0  0  0  0  0  0  0  0  0
   37.0260   26.8630   33.9070 N   0  0  0  0  0  0  0  0  0  0  0  0
   36.4660   27.1140   33.0610 H   0  0  0  0  0  0  0  0  0  0  0  0
   37.5350   25.6790   34.2290 N   0  0  0  0  0  0  0  0  0  0  0  0
   38.5180   22.6220   39.0050 O   0  0  0  0  0  0  0  0  0  0  0  0
   37.6470   22.1180   38.9010 H   0  0  0  0  0  0  0  0  0  0  0  0
  1 17  1  0  0  0  0
  2  7  1  0  0  0  0
  2  1  2  0  0  0  0
  3  2  1  0  0  0  0
  4  3  2  0  0  0  0
  4  5  1  0  0  0  0
  5  6  2  0  0  0  0
  6  1  1  0  0  0  0
  8  5  1  0  0  0  0
  9 10  1  0  0  0  0
  9  3  1  0  0  0  0
 10 11  1  0  0  0  0
 12 13  1  0  0  0  0
 12 10  2  0  0  0  0
 14 16  1  0  0  0  0
 14 12  1  0  0  0  0
 15 14  1  0  0  0  0
 16  9  2  0  0  0  0
 18 17  1  0  0  0  0
M  END
>  <minimizedAffinity>
-4.20433044

$$$$

 OpenBabel03272503383D

 18 19  0  0  0  0  0  0  0  0999 V2000
   37.2720   26.4670   34.2280 C   0  0  0  0  0  0  0  0  0  0  0  0
   37.6580   25.9270   35.4610 C   0  0  0  0  0  0  0  0  0  0  0  0
   38.0890   24.6040   35.4940 C   0  0  0  0  0  0  0  0  0  0  0  0
   38.1100   23.9110   34.3280 N   0  0  0  0  0  0  0  0  0  0  0  0
   37.7280   24.4610   33.1440 C   0  0  0  0  0  0  0  0  0  0  0  0
   37.3120   25.7350   33.1010 N   0  0  0  0  0  0  0  0  0  0  0  0
   37.6650   26.4110   36.4020 H   0  0  0  0  0  0  0  0  0  0  0  0
   37.7370   23.9340   32.2150 H   0  0  0  0  0  0  0  0  0  0  0  0
   38.5080   23.9650   36.7350 C   0  0  0  0  0  0  0  0  0  0  0  0
   37.9910   24.2630   37.9800 C   0  0  0  0  0  0  0  0  0  0  0  0
   37.2390   24.9720   38.2340 H   0  0  0  0  0  0  0  0  0  0  0  0
   38.6990   23.4020   38.8250 C   0  0  0  0  0  0  0  0  0  0  0  0
   38.5530   23.3590   39.8950 H   0  0  0  0  0  0  0  0  0  0  0  0
   39.5770   22.6470   38.1170 N   0  0  0  0  0  0  0  0  0  0  0  0
   40.2220   21.9280   38.5150 H   0  0  0  0  0  0  0  0  0  0  0  0
   39.4410   23.0090   36.8470 N   0  0  0  0  0  0  0  0  0  0  0  0
   36.8680   27.7970   34.3660 O   0  0  0  0  0  0  0  0  0  0  0  0
   37.6000   28.4690   34.5570 H   0  0  0  0  0  0  0  0  0  0  0  0
  1 17  1  0  0  0  0
  1  2  1  0  0  0  0
  2  3  2  0  0  0  0
  2  7  1  0  0  0  0
  3  9  1  0  0  0  0
  4  3  1  0  0  0  0
  5  4  2  0  0  0  0
  6  5  1  0  0  0  0
  6  1  2  0  0  0  0
  8  5  1  0  0  0  0
  9 16  2  0  0  0  0
  9 10  1  0  0  0  0
 10 11  1  0  0  0  0
 10 12  2  0  0  0  0
 12 13  1  0  0  0  0
 14 15  1  0  0  0  0
 14 12  1  0  0  0  0
 16 14  1  0  0  0  0
 17 18  1  0  0  0  0
M  END
>  <minimizedAffinity>
-4.16456842

$$$$

 OpenBabel03272503383D

 18 19  0  0  0  0  0  0  0  0999 V2000
   39.6000   22.7450   37.7900 C   0  0  0  0  0  0  0  0  0  0  0  0
   39.3860   23.0490   36.4390 C   0  0  0  0  0  0  0  0  0  0  0  0
   38.4450   24.0240   36.1250 C   0  0  0  0  0  0  0  0  0  0  0  0
   37.7850   24.6260   37.1460 N   0  0  0  0  0  0  0  0  0  0  0  0
   38.0130   24.3110   38.4490 C   0  0  0  0  0  0  0  0  0  0  0  0
   38.9180   23.3740   38.7630 N   0  0  0  0  0  0  0  0  0  0  0  0
   39.8650   22.6180   35.5990 H   0  0  0  0  0  0  0  0  0  0  0  0
   37.5050   24.7730   39.2680 H   0  0  0  0  0  0  0  0  0  0  0  0
   38.1610   24.3990   34.7450 C   0  0  0  0  0  0  0  0  0  0  0  0
   37.8000   25.6680   34.3410 C   0  0  0  0  0  0  0  0  0  0  0  0
   37.6730   26.5430   34.9340 H   0  0  0  0  0  0  0  0  0  0  0  0
   37.6420   25.5210   32.9590 C   0  0  0  0  0  0  0  0  0  0  0  0
   37.3560   26.3280   32.2990 H   0  0  0  0  0  0  0  0  0  0  0  0
   37.8970   24.2430   32.5780 N   0  0  0  0  0  0  0  0  0  0  0  0
   37.8480   23.8780   31.6010 H   0  0  0  0  0  0  0  0  0  0  0  0
   38.2100   23.5800   33.6850 N   0  0  0  0  0  0  0  0  0  0  0  0
   40.5700   21.7520   37.9340 O   0  0  0  0  0  0  0  0  0  0  0  0
   41.5230   22.0240   37.7290 H   0  0  0  0  0  0  0  0  0  0  0  0
  1 17  1  0  0  0  0
  1  6  1  0  0  0  0
  2  1  2  0  0  0  0
  3  2  1  0  0  0  0
  3  4  2  0  0  0  0
  4  5  1  0  0  0  0
  5  6  2  0  0  0  0
  5  8  1  0  0  0  0
  7  2  1  0  0  0  0
  9  3  1  0  0  0  0
 10  9  1  0  0  0  0
 10 11  1  0  0  0  0
 12 10  2  0  0  0  0
 13 12  1  0  0  0  0
 14 12  1  0  0  0  0
 14 16  1  0  0  0  0
 15 14  1  0  0  0  0
 16  9  2  0  0  0  0
 18 17  1  0  0  0  0
M  END
>  <minimizedAffinity>
-4.07419348

$$$$

 OpenBabel03272503383D

 18 19  0  0  0  0  0  0  0  0999 V2000
   37.4140   25.9350   33.8290 C   0  0  0  0  0  0  0  0  0  0  0  0
   37.9410   24.8580   34.5530 C   0  0  0  0  0  0  0  0  0  0  0  0
   38.4620   25.1080   35.8180 C   0  0  0  0  0  0  0  0  0  0  0  0
   38.4310   26.3830   36.2810 N   0  0  0  0  0  0  0  0  0  0  0  0
   37.9130   27.4110   35.5550 C   0  0  0  0  0  0  0  0  0  0  0  0
   37.4080   27.1810   34.3350 N   0  0  0  0  0  0  0  0  0  0  0  0
   37.9950   23.8450   34.2520 H   0  0  0  0  0  0  0  0  0  0  0  0
   37.8780   28.4220   35.9000 H   0  0  0  0  0  0  0  0  0  0  0  0
   39.0290   24.0450   36.6380 C   0  0  0  0  0  0  0  0  0  0  0  0
   40.1370   23.2980   36.2900 C   0  0  0  0  0  0  0  0  0  0  0  0
   40.7340   23.3670   35.4120 H   0  0  0  0  0  0  0  0  0  0  0  0
   40.2810   22.4300   37.3780 C   0  0  0  0  0  0  0  0  0  0  0  0
   41.0620   21.6870   37.4520 H   0  0  0  0  0  0  0  0  0  0  0  0
   39.3160   22.6560   38.3050 N   0  0  0  0  0  0  0  0  0  0  0  0
   39.2050   22.1400   39.2070 H   0  0  0  0  0  0  0  0  0  0  0  0
   38.5660   23.6440   37.8300 N   0  0  0  0  0  0  0  0  0  0  0  0
   36.9340   25.5180   32.5860 O   0  0  0  0  0  0  0  0  0  0  0  0
   36.0860   24.9660   32.5950 H   0  0  0  0  0  0  0  0  0  0  0  0
  1  6  2  0  0  0  0
  1  2  1  0  0  0  0
  2  3  2  0  0  0  0
  3  4  1  0  0  0  0
  3  9  1  0  0  0  0
  5  8  1  0  0  0  0
  5  4  2  0  0  0  0
  6  5  1  0  0  0  0
  7  2  1  0  0  0  0
  9 16  2  0  0  0  0
 10  9  1  0  0  0  0
 10 12  2  0  0  0  0
 11 10  1  0  0  0  0
 12 13  1  0  0  0  0
 12 14  1  0  0  0  0
 14 15  1  0  0  0  0
 16 14  1  0  0  0  0
 17 18  1  0  0  0  0
 17  1  1  0  0  0  0
M  END
>  <minimizedAffinity>
-3.96237922

$$$$

 OpenBabel03272503383D

 18 19  0  0  0  0  0  0  0  0999 V2000
   37.0840   21.8840   33.2110 C   0  0  0  0  0  0  0  0  0  0  0  0
   37.4960   21.8360   34.5490 C   0  0  0  0  0  0  0  0  0  0  0  0
   38.0620   22.9790   35.1040 C   0  0  0  0  0  0  0  0  0  0  0  0
   38.1830   24.0780   34.3180 N   0  0  0  0  0  0  0  0  0  0  0  0
   37.7740   24.0960   33.0200 C   0  0  0  0  0  0  0  0  0  0  0  0
   37.2270   23.0000   32.4750 N   0  0  0  0  0  0  0  0  0  0  0  0
   37.4310   21.0150   35.2140 H   0  0  0  0  0  0  0  0  0  0  0  0
   37.8590   24.9500   32.3840 H   0  0  0  0  0  0  0  0  0  0  0  0
   38.5180   23.0140   36.4880 C   0  0  0  0  0  0  0  0  0  0  0  0
   37.8320   23.6200   37.5210 C   0  0  0  0  0  0  0  0  0  0  0  0
   36.9020   24.1380   37.4860 H   0  0  0  0  0  0  0  0  0  0  0  0
   38.6590   23.3850   38.6240 C   0  0  0  0  0  0  0  0  0  0  0  0
   38.4330   23.7240   39.6250 H   0  0  0  0  0  0  0  0  0  0  0  0
   39.7620   22.6840   38.2590 N   0  0  0  0  0  0  0  0  0  0  0  0
   40.5320   22.3830   38.8970 H   0  0  0  0  0  0  0  0  0  0  0  0
   39.6520   22.4710   36.9520 N   0  0  0  0  0  0  0  0  0  0  0  0
   36.5410   20.6610   32.8090 O   0  0  0  0  0  0  0  0  0  0  0  0
   35.6360   20.4250   33.1960 H   0  0  0  0  0  0  0  0  0  0  0  0
  1  2  1  0  0  0  0
  2  3  2  0  0  0  0
  2  7  1  0  0  0  0
  3  9  1  0  0  0  0
  4  3  1  0  0  0  0
  5  4  2  0  0  0  0
  6  5  1  0  0  0  0
  6  1  2  0  0  0  0
  8  5  1  0  0  0  0
  9 16  2  0  0  0  0
  9 10  1  0  0  0  0
 10 12  2  0  0  0  0
 11 10  1  0  0  0  0
 12 13  1  0  0  0  0
 14 12  1  0  0  0  0
 14 15  1  0  0  0  0
 16 14  1  0  0  0  0
 17 18  1  0  0  0  0
 17  1  1  0  0  0  0
M  END
>  <minimizedAffinity>
-3.90108347

$$$$

 OpenBabel03272503383D

 18 19  0  0  0  0  0  0  0  0999 V2000
   35.9760   24.3890   31.3780 C   0  0  0  0  0  0  0  0  0  0  0  0
   35.5230   23.0660   31.2980 C   0  0  0  0  0  0  0  0  0  0  0  0
   36.1450   22.1090   32.0930 C   0  0  0  0  0  0  0  0  0  0  0  0
   37.1570   22.5120   32.9030 N   0  0  0  0  0  0  0  0  0  0  0  0
   37.5750   23.8050   32.9600 C   0  0  0  0  0  0  0  0  0  0  0  0
   36.9830   24.7350   32.1990 N   0  0  0  0  0  0  0  0  0  0  0  0
   34.7440   22.6880   30.6900 H   0  0  0  0  0  0  0  0  0  0  0  0
   38.3690   24.1430   33.5910 H   0  0  0  0  0  0  0  0  0  0  0  0
   35.7370   20.7100   32.0700 C   0  0  0  0  0  0  0  0  0  0  0  0
   36.6050   19.6420   32.1690 C   0  0  0  0  0  0  0  0  0  0  0  0
   37.6650   19.6550   32.2730 H   0  0  0  0  0  0  0  0  0  0  0  0
   35.7500   18.5380   32.1000 C   0  0  0  0  0  0  0  0  0  0  0  0
   36.0890   17.5130   32.1460 H   0  0  0  0  0  0  0  0  0  0  0  0
   34.4590   18.9360   31.9680 N   0  0  0  0  0  0  0  0  0  0  0  0
   33.6300   18.3040   31.8950 H   0  0  0  0  0  0  0  0  0  0  0  0
   34.4790   20.2640   31.9530 N   0  0  0  0  0  0  0  0  0  0  0  0
   35.2510   25.2200   30.5210 O   0  0  0  0  0  0  0  0  0  0  0  0
   34.2950   25.4140   30.7880 H   0  0  0  0  0  0  0  0  0  0  0  0
  1  6  1  0  0  0  0
  2  1  2  0  0  0  0
  2  3  1  0  0  0  0
  3  4  2  0  0  0  0
  4  5  1  0  0  0  0
  5  8  1  0  0  0  0
  6  5  2  0  0  0  0
  7  2  1  0  0  0  0
  9  3  1  0  0  0  0
  9 10  1  0  0  0  0
 10 11  1  0  0  0  0
 12 13  1  0  0  0  0
 12 10  2  0  0  0  0
 14 12  1  0  0  0  0
 15 14  1  0  0  0  0
 16 14  1  0  0  0  0
 16  9  2  0  0  0  0
 17 18  1  0  0  0  0
 17  1  1  0  0  0  0
M  END
>  <minimizedAffinity>
-3.87881207

$$$$

 OpenBabel03272503383D

 18 19  0  0  0  0  0  0  0  0999 V2000
   37.7940   24.4010   33.0300 C   0  0  0  0  0  0  0  0  0  0  0  0
   38.2090   24.4150   34.3680 C   0  0  0  0  0  0  0  0  0  0  0  0
   38.1710   23.2210   35.0810 C   0  0  0  0  0  0  0  0  0  0  0  0
   37.7330   22.1080   34.4390 N   0  0  0  0  0  0  0  0  0  0  0  0
   37.3360   22.1240   33.1380 C   0  0  0  0  0  0  0  0  0  0  0  0
   37.3690   23.2690   32.4420 N   0  0  0  0  0  0  0  0  0  0  0  0
   38.5600   25.2440   34.9250 H   0  0  0  0  0  0  0  0  0  0  0  0
   36.9890   21.2610   32.6140 H   0  0  0  0  0  0  0  0  0  0  0  0
   38.5850   23.1470   36.4770 C   0  0  0  0  0  0  0  0  0  0  0  0
   37.9250   23.7670   37.5190 C   0  0  0  0  0  0  0  0  0  0  0  0
   37.0500   24.3710   37.4850 H   0  0  0  0  0  0  0  0  0  0  0  0
   38.6910   23.4020   38.6310 C   0  0  0  0  0  0  0  0  0  0  0  0
   38.4670   23.7130   39.6410 H   0  0  0  0  0  0  0  0  0  0  0  0
   39.7360   22.6180   38.2610 N   0  0  0  0  0  0  0  0  0  0  0  0
   40.4530   22.2150   38.9050 H   0  0  0  0  0  0  0  0  0  0  0  0
   39.6470   22.4780   36.9430 N   0  0  0  0  0  0  0  0  0  0  0  0
   37.8930   25.6730   32.4610 O   0  0  0  0  0  0  0  0  0  0  0  0
   38.8300   26.0110   32.2830 H   0  0  0  0  0  0  0  0  0  0  0  0
  1  2  1  0  0  0  0
  2  7  1  0  0  0  0
  2  3  2  0  0  0  0
  3  9  1  0  0  0  0
  4  3  1  0  0  0  0
  5  4  2  0  0  0  0
  6  1  2  0  0  0  0
  6  5  1  0  0  0  0
  8  5  1  0  0  0  0
  9 16  2  0  0  0  0
  9 10  1  0  0  0  0
 10 12  2  0  0  0  0
 11 10  1  0  0  0  0
 12 13  1  0  0  0  0
 14 12  1  0  0  0  0
 14 15  1  0  0  0  0
 16 14  1  0  0  0  0
 17  1  1  0  0  0  0
 18 17  1  0  0  0  0
M  END
>  <minimizedAffinity>
-3.87395835

$$$$

 OpenBabel03272503383D

 18 19  0  0  0  0  0  0  0  0999 V2000
   35.3670   19.5700   31.8440 C   0  0  0  0  0  0  0  0  0  0  0  0
   35.6510   20.0470   33.1300 C   0  0  0  0  0  0  0  0  0  0  0  0
   36.6420   21.0130   33.2690 C   0  0  0  0  0  0  0  0  0  0  0  0
   37.2790   21.4400   32.1500 N   0  0  0  0  0  0  0  0  0  0  0  0
   36.9820   20.9580   30.9130 C   0  0  0  0  0  0  0  0  0  0  0  0
   36.0290   20.0270   30.7670 N   0  0  0  0  0  0  0  0  0  0  0  0
   35.1940   19.7580   34.0400 H   0  0  0  0  0  0  0  0  0  0  0  0
   37.4710   21.2800   30.0190 H   0  0  0  0  0  0  0  0  0  0  0  0
   37.0000   21.5630   34.5710 C   0  0  0  0  0  0  0  0  0  0  0  0
   38.0380   22.4460   34.7860 C   0  0  0  0  0  0  0  0  0  0  0  0
   38.7180   22.8570   34.0770 H   0  0  0  0  0  0  0  0  0  0  0  0
   37.9750   22.6710   36.1650 C   0  0  0  0  0  0  0  0  0  0  0  0
   38.6500   23.3250   36.6980 H   0  0  0  0  0  0  0  0  0  0  0  0
   36.9600   21.9610   36.7230 N   0  0  0  0  0  0  0  0  0  0  0  0
   36.7050   21.9570   37.7360 H   0  0  0  0  0  0  0  0  0  0  0  0
   36.3830   21.2940   35.7300 N   0  0  0  0  0  0  0  0  0  0  0  0
   34.3530   18.6100   31.8780 O   0  0  0  0  0  0  0  0  0  0  0  0
   33.4210   18.9500   32.0780 H   0  0  0  0  0  0  0  0  0  0  0  0
  1 17  1  0  0  0  0
  1  2  1  0  0  0  0
  2  3  2  0  0  0  0
  2  7  1  0  0  0  0
  3  9  1  0  0  0  0
  4  3  1  0  0  0  0
  5  4  2  0  0  0  0
  6  5  1  0  0  0  0
  6  1  2  0  0  0  0
  8  5  1  0  0  0  0
  9 10  1  0  0  0  0
  9 16  2  0  0  0  0
 10 12  2  0  0  0  0
 11 10  1  0  0  0  0
 12 13  1  0  0  0  0
 12 14  1  0  0  0  0
 14 15  1  0  0  0  0
 16 14  1  0  0  0  0
 17 18  1  0  0  0  0
M  END
>  <minimizedAffinity>
-3.81985235

$$$$
