
 OpenBabel03272500143D

 30 32  0  0  0  0  0  0  0  0999 V2000
   32.8940   31.0020   46.5120 Cl  0  0  0  0  0  0  0  0  0  0  0  0
   32.9900   29.3290   47.0520 C   0  0  0  0  0  0  0  0  0  0  0  0
   34.0720   28.9040   47.7990 C   0  0  0  0  0  0  0  0  0  0  0  0
   34.1650   27.5860   48.2340 C   0  0  0  0  0  0  0  0  0  0  0  0
   33.1480   26.7050   47.9020 C   0  0  0  0  0  0  0  0  0  0  0  0
   32.0640   27.1110   47.1590 C   0  0  0  0  0  0  0  0  0  0  0  0
   30.7940   25.9720   46.7560 Cl  0  0  0  0  0  0  0  0  0  0  0  0
   31.9840   28.4370   46.7290 C   0  0  0  0  0  0  0  0  0  0  0  0
   34.9870   27.2140   48.8160 H   0  0  0  0  0  0  0  0  0  0  0  0
   33.2280   25.6810   48.2450 H   0  0  0  0  0  0  0  0  0  0  0  0
   36.2350   31.1770   49.7180 C   0  0  0  0  0  0  0  0  0  0  0  0
   37.2030   31.5330   48.7500 C   0  0  0  0  0  0  0  0  0  0  0  0
   37.0880   30.9850   47.4660 C   0  0  0  0  0  0  0  0  0  0  0  0
   36.0500   30.1400   47.2220 N   0  0  0  0  0  0  0  0  0  0  0  0
   35.1490   29.8190   48.1550 C   0  0  0  0  0  0  0  0  0  0  0  0
   35.2290   30.3240   49.3910 N   0  0  0  0  0  0  0  0  0  0  0  0
   36.2990   31.5900   50.7280 H   0  0  0  0  0  0  0  0  0  0  0  0
   37.8230   31.2570   46.7360 H   0  0  0  0  0  0  0  0  0  0  0  0
   38.2900   32.4720   49.1530 C   0  0  0  0  0  0  0  0  0  0  0  0
   39.2140   32.6090   48.0950 F   0  0  0  0  0  0  0  0  0  0  0  0
   37.7430   33.7010   49.3790 F   0  0  0  0  0  0  0  0  0  0  0  0
   38.9900   32.0330   50.2480 F   0  0  0  0  0  0  0  0  0  0  0  0
   30.8540   28.9140   45.9400 C   0  0  0  0  0  0  0  0  0  0  0  0
   30.6250   28.9690   44.5790 C   0  0  0  0  0  0  0  0  0  0  0  0
   31.3600   28.6170   43.8540 H   0  0  0  0  0  0  0  0  0  0  0  0
   29.3820   29.5140   44.3250 C   0  0  0  0  0  0  0  0  0  0  0  0
   28.9570   29.6700   43.3610 H   0  0  0  0  0  0  0  0  0  0  0  0
   28.8830   29.7780   45.5590 N   0  0  0  0  0  0  0  0  0  0  0  0
   27.9150   30.2110   45.6160 H   0  0  0  0  0  0  0  0  0  0  0  0
   29.7340   29.4320   46.5210 N   0  0  0  0  0  0  0  0  0  0  0  0
  1  2  1  0  0  0  0
  2  3  1  0  0  0  0
  3 15  1  0  0  0  0
  3  4  2  0  0  0  0
  4  9  1  0  0  0  0
  5  4  1  0  0  0  0
  5 10  1  0  0  0  0
  6  5  2  0  0  0  0
  7  6  1  0  0  0  0
  8  2  2  0  0  0  0
  8  6  1  0  0  0  0
 11 17  1  0  0  0  0
 12 19  1  0  0  0  0
 12 11  2  0  0  0  0
 13 12  1  0  0  0  0
 14 13  2  0  0  0  0
 14 15  1  0  0  0  0
 15 16  2  0  0  0  0
 16 11  1  0  0  0  0
 18 13  1  0  0  0  0
 19 21  1  0  0  0  0
 19 22  1  0  0  0  0
 20 19  1  0  0  0  0
 23 30  2  0  0  0  0
 23  8  1  0  0  0  0
 24 23  1  0  0  0  0
 25 24  1  0  0  0  0
 26 24  2  0  0  0  0
 26 28  1  0  0  0  0
 27 26  1  0  0  0  0
 28 29  1  0  0  0  0
 28 30  1  0  0  0  0
M  END
>  <minimizedAffinity>
-5.63052988

>  <minimizedRMSD>
1.75458324

$$$$
