
 OpenBabel03272501553D

 23 24  0  0  0  0  0  0  0  0999 V2000
   37.8470   25.9780   35.6710 C   0  0  0  0  0  0  0  0  0  0  0  0
   37.1490   25.9610   36.5150 H   0  0  0  0  0  0  0  0  0  0  0  0
   38.7520   26.6020   35.8650 H   0  0  0  0  0  0  0  0  0  0  0  0
   36.5850   26.5130   32.2300 C   0  0  0  0  0  0  0  0  0  0  0  0
   36.0770   27.8240   32.2970 C   0  0  0  0  0  0  0  0  0  0  0  0
   36.1730   28.5080   33.5220 C   0  0  0  0  0  0  0  0  0  0  0  0
   36.7500   27.8770   34.5800 N   0  0  0  0  0  0  0  0  0  0  0  0
   37.2250   26.6090   34.4630 C   0  0  0  0  0  0  0  0  0  0  0  0
   37.1370   25.9560   33.3060 N   0  0  0  0  0  0  0  0  0  0  0  0
   36.4650   26.0740   31.2570 H   0  0  0  0  0  0  0  0  0  0  0  0
   35.6110   28.3840   31.5100 H   0  0  0  0  0  0  0  0  0  0  0  0
   35.8330   29.5010   33.7140 H   0  0  0  0  0  0  0  0  0  0  0  0
   38.3180   24.5940   35.3310 C   0  0  0  0  0  0  0  0  0  0  0  0
   37.4980   23.9840   34.8810 H   0  0  0  0  0  0  0  0  0  0  0  0
   39.2010   24.6110   34.6830 H   0  0  0  0  0  0  0  0  0  0  0  0
   38.6400   23.9270   36.6370 C   0  0  0  0  0  0  0  0  0  0  0  0
   38.0680   24.1980   37.8590 C   0  0  0  0  0  0  0  0  0  0  0  0
   37.2870   24.9480   38.0580 H   0  0  0  0  0  0  0  0  0  0  0  0
   38.6010   23.3960   38.8470 C   0  0  0  0  0  0  0  0  0  0  0  0
   38.3940   23.3350   39.9050 H   0  0  0  0  0  0  0  0  0  0  0  0
   39.5070   22.6400   38.1800 N   0  0  0  0  0  0  0  0  0  0  0  0
   40.1360   21.9050   38.5220 H   0  0  0  0  0  0  0  0  0  0  0  0
   39.5300   22.9500   36.8860 N   0  0  0  0  0  0  0  0  0  0  0  0
  1  3  1  0  0  0  0
  1  2  1  0  0  0  0
  4  5  2  0  0  0  0
  4  9  1  0  0  0  0
  5  6  1  0  0  0  0
  6 12  1  0  0  0  0
  6  7  2  0  0  0  0
  8  7  1  0  0  0  0
  8  1  1  0  0  0  0
  9  8  2  0  0  0  0
 10  4  1  0  0  0  0
 11  5  1  0  0  0  0
 13  1  1  0  0  0  0
 13 16  1  0  0  0  0
 14 13  1  0  0  0  0
 15 13  1  0  0  0  0
 16 23  2  0  0  0  0
 16 17  1  0  0  0  0
 17 18  1  0  0  0  0
 17 19  2  0  0  0  0
 19 20  1  0  0  0  0
 21 22  1  0  0  0  0
 21 19  1  0  0  0  0
 23 21  1  0  0  0  0
M  END
>  <minimizedAffinity>
-4.1535306

$$$$

 OpenBabel03272501553D

 23 24  0  0  0  0  0  0  0  0999 V2000
   38.4310   26.4160   36.1750 C   0  0  0  0  0  0  0  0  0  0  0  0
   37.7170   27.2190   36.3870 H   0  0  0  0  0  0  0  0  0  0  0  0
   39.2150   26.3080   36.9620 H   0  0  0  0  0  0  0  0  0  0  0  0
   41.2370   26.9920   33.8250 C   0  0  0  0  0  0  0  0  0  0  0  0
   40.5670   27.2130   32.6060 C   0  0  0  0  0  0  0  0  0  0  0  0
   39.1610   27.1620   32.6070 C   0  0  0  0  0  0  0  0  0  0  0  0
   38.5160   26.9030   33.7760 N   0  0  0  0  0  0  0  0  0  0  0  0
   39.2100   26.6960   34.9260 C   0  0  0  0  0  0  0  0  0  0  0  0
   40.5410   26.7440   34.9320 N   0  0  0  0  0  0  0  0  0  0  0  0
   42.3040   27.0510   33.7240 H   0  0  0  0  0  0  0  0  0  0  0  0
   41.0040   27.4220   31.6510 H   0  0  0  0  0  0  0  0  0  0  0  0
   38.5280   27.3110   31.7600 H   0  0  0  0  0  0  0  0  0  0  0  0
   37.7340   25.0930   36.0470 C   0  0  0  0  0  0  0  0  0  0  0  0
   36.7030   25.1330   36.4740 H   0  0  0  0  0  0  0  0  0  0  0  0
   37.7220   24.7360   35.0120 H   0  0  0  0  0  0  0  0  0  0  0  0
   38.4890   24.1350   36.9230 C   0  0  0  0  0  0  0  0  0  0  0  0
   39.6090   23.4150   36.5750 C   0  0  0  0  0  0  0  0  0  0  0  0
   40.1180   23.4360   35.6000 H   0  0  0  0  0  0  0  0  0  0  0  0
   40.0430   22.6310   37.6250 C   0  0  0  0  0  0  0  0  0  0  0  0
   40.8760   21.9500   37.7100 H   0  0  0  0  0  0  0  0  0  0  0  0
   39.1490   22.9040   38.6070 N   0  0  0  0  0  0  0  0  0  0  0  0
   39.0890   22.5430   39.5660 H   0  0  0  0  0  0  0  0  0  0  0  0
   38.2400   23.7840   38.1970 N   0  0  0  0  0  0  0  0  0  0  0  0
  1  2  1  0  0  0  0
  1  3  1  0  0  0  0
  4  9  1  0  0  0  0
  5  6  1  0  0  0  0
  5  4  2  0  0  0  0
  6  7  2  0  0  0  0
  7  8  1  0  0  0  0
  8  9  2  0  0  0  0
  8  1  1  0  0  0  0
 10  4  1  0  0  0  0
 11  5  1  0  0  0  0
 12  6  1  0  0  0  0
 13  1  1  0  0  0  0
 13 14  1  0  0  0  0
 13 16  1  0  0  0  0
 15 13  1  0  0  0  0
 16 23  2  0  0  0  0
 17 16  1  0  0  0  0
 17 19  2  0  0  0  0
 18 17  1  0  0  0  0
 19 20  1  0  0  0  0
 19 21  1  0  0  0  0
 21 22  1  0  0  0  0
 23 21  1  0  0  0  0
M  END
>  <minimizedAffinity>
-4.0936532

$$$$

 OpenBabel03272501553D

 23 24  0  0  0  0  0  0  0  0999 V2000
   38.6620   22.5510   34.2080 C   0  0  0  0  0  0  0  0  0  0  0  0
   39.4630   22.6840   33.4730 H   0  0  0  0  0  0  0  0  0  0  0  0
   38.8780   21.7480   34.9510 H   0  0  0  0  0  0  0  0  0  0  0  0
   35.5050   20.7440   33.5040 C   0  0  0  0  0  0  0  0  0  0  0  0
   35.0850   21.3330   32.2960 C   0  0  0  0  0  0  0  0  0  0  0  0
   35.8890   22.3430   31.7390 C   0  0  0  0  0  0  0  0  0  0  0  0
   37.0300   22.7030   32.3870 N   0  0  0  0  0  0  0  0  0  0  0  0
   37.3920   22.1020   33.5510 C   0  0  0  0  0  0  0  0  0  0  0  0
   36.6340   21.1450   34.0840 N   0  0  0  0  0  0  0  0  0  0  0  0
   34.8270   19.9860   33.8490 H   0  0  0  0  0  0  0  0  0  0  0  0
   34.2040   21.1040   31.7310 H   0  0  0  0  0  0  0  0  0  0  0  0
   35.6940   22.8730   30.8330 H   0  0  0  0  0  0  0  0  0  0  0  0
   38.4130   23.8190   34.9720 C   0  0  0  0  0  0  0  0  0  0  0  0
   39.1550   24.6090   34.7020 H   0  0  0  0  0  0  0  0  0  0  0  0
   37.3860   24.1790   34.8420 H   0  0  0  0  0  0  0  0  0  0  0  0
   38.6780   23.4990   36.4140 C   0  0  0  0  0  0  0  0  0  0  0  0
   38.0280   24.0290   37.5050 C   0  0  0  0  0  0  0  0  0  0  0  0
   37.2140   24.7700   37.4790 H   0  0  0  0  0  0  0  0  0  0  0  0
   38.5270   23.5110   38.6820 C   0  0  0  0  0  0  0  0  0  0  0  0
   38.2610   23.6960   39.7120 H   0  0  0  0  0  0  0  0  0  0  0  0
   39.4930   22.6580   38.2620 N   0  0  0  0  0  0  0  0  0  0  0  0
   40.1240   22.0550   38.8020 H   0  0  0  0  0  0  0  0  0  0  0  0
   39.5820   22.6500   36.9350 N   0  0  0  0  0  0  0  0  0  0  0  0
  1  3  1  0  0  0  0
  1 13  1  0  0  0  0
  2  1  1  0  0  0  0
  4 10  1  0  0  0  0
  4  9  1  0  0  0  0
  5  4  2  0  0  0  0
  6  5  1  0  0  0  0
  6  7  2  0  0  0  0
  7  8  1  0  0  0  0
  8  9  2  0  0  0  0
  8  1  1  0  0  0  0
 11  5  1  0  0  0  0
 12  6  1  0  0  0  0
 13 16  1  0  0  0  0
 14 13  1  0  0  0  0
 15 13  1  0  0  0  0
 16 23  2  0  0  0  0
 16 17  1  0  0  0  0
 17 19  2  0  0  0  0
 18 17  1  0  0  0  0
 19 20  1  0  0  0  0
 21 19  1  0  0  0  0
 21 22  1  0  0  0  0
 23 21  1  0  0  0  0
M  END
>  <minimizedAffinity>
-4.07892561

$$$$

 OpenBabel03272501553D

 23 24  0  0  0  0  0  0  0  0999 V2000
   38.8090   23.4560   34.1350 C   0  0  0  0  0  0  0  0  0  0  0  0
   39.7760   23.4020   33.6230 H   0  0  0  0  0  0  0  0  0  0  0  0
   38.5460   22.5150   34.6740 H   0  0  0  0  0  0  0  0  0  0  0  0
   36.0390   22.7560   31.7770 C   0  0  0  0  0  0  0  0  0  0  0  0
   35.6470   24.0500   31.3820 C   0  0  0  0  0  0  0  0  0  0  0  0
   36.3390   25.1450   31.9300 C   0  0  0  0  0  0  0  0  0  0  0  0
   37.3480   24.9080   32.8100 N   0  0  0  0  0  0  0  0  0  0  0  0
   37.6870   23.6390   33.1590 C   0  0  0  0  0  0  0  0  0  0  0  0
   37.0360   22.5970   32.6440 N   0  0  0  0  0  0  0  0  0  0  0  0
   35.4540   21.9880   31.3080 H   0  0  0  0  0  0  0  0  0  0  0  0
   34.8660   24.3130   30.6970 H   0  0  0  0  0  0  0  0  0  0  0  0
   36.1500   26.1740   31.7190 H   0  0  0  0  0  0  0  0  0  0  0  0
   38.7910   24.5720   35.1390 C   0  0  0  0  0  0  0  0  0  0  0  0
   39.7090   25.2020   35.0640 H   0  0  0  0  0  0  0  0  0  0  0  0
   37.8830   25.1800   35.0570 H   0  0  0  0  0  0  0  0  0  0  0  0
   38.8640   23.9210   36.4900 C   0  0  0  0  0  0  0  0  0  0  0  0
   38.0630   24.1930   37.5760 C   0  0  0  0  0  0  0  0  0  0  0  0
   37.2470   24.9300   37.6130 H   0  0  0  0  0  0  0  0  0  0  0  0
   38.4080   23.4080   38.6580 C   0  0  0  0  0  0  0  0  0  0  0  0
   38.0020   23.3520   39.6560 H   0  0  0  0  0  0  0  0  0  0  0  0
   39.4380   22.6630   38.1860 N   0  0  0  0  0  0  0  0  0  0  0  0
   40.0010   21.9420   38.6510 H   0  0  0  0  0  0  0  0  0  0  0  0
   39.7050   22.9620   36.9180 N   0  0  0  0  0  0  0  0  0  0  0  0
  1  3  1  0  0  0  0
  1 13  1  0  0  0  0
  2  1  1  0  0  0  0
  4  9  1  0  0  0  0
  5  4  2  0  0  0  0
  5  6  1  0  0  0  0
  6  7  2  0  0  0  0
  7  8  1  0  0  0  0
  8  1  1  0  0  0  0
  9  8  2  0  0  0  0
 10  4  1  0  0  0  0
 11  5  1  0  0  0  0
 12  6  1  0  0  0  0
 13 16  1  0  0  0  0
 14 13  1  0  0  0  0
 15 13  1  0  0  0  0
 16 23  2  0  0  0  0
 16 17  1  0  0  0  0
 17 18  1  0  0  0  0
 17 19  2  0  0  0  0
 19 20  1  0  0  0  0
 21 22  1  0  0  0  0
 21 19  1  0  0  0  0
 23 21  1  0  0  0  0
M  END
>  <minimizedAffinity>
-3.9751637

$$$$

 OpenBabel03272501553D

 23 24  0  0  0  0  0  0  0  0999 V2000
   38.6630   25.4900   35.2030 C   0  0  0  0  0  0  0  0  0  0  0  0
   39.0440   26.4660   35.5210 H   0  0  0  0  0  0  0  0  0  0  0  0
   39.4720   24.7740   34.9250 H   0  0  0  0  0  0  0  0  0  0  0  0
   36.5950   26.8790   32.4610 C   0  0  0  0  0  0  0  0  0  0  0  0
   36.3490   25.7440   31.6660 C   0  0  0  0  0  0  0  0  0  0  0  0
   36.8950   24.5160   32.0810 C   0  0  0  0  0  0  0  0  0  0  0  0
   37.6320   24.4800   33.2230 N   0  0  0  0  0  0  0  0  0  0  0  0
   37.8410   25.6060   33.9560 C   0  0  0  0  0  0  0  0  0  0  0  0
   37.3260   26.7720   33.5690 N   0  0  0  0  0  0  0  0  0  0  0  0
   36.1390   27.7660   32.0640 H   0  0  0  0  0  0  0  0  0  0  0  0
   35.7810   25.6950   30.7580 H   0  0  0  0  0  0  0  0  0  0  0  0
   36.7880   23.5810   31.5780 H   0  0  0  0  0  0  0  0  0  0  0  0
   37.8450   24.8490   36.2870 C   0  0  0  0  0  0  0  0  0  0  0  0
   37.5780   25.5850   37.0840 H   0  0  0  0  0  0  0  0  0  0  0  0
   36.9530   24.3550   35.8880 H   0  0  0  0  0  0  0  0  0  0  0  0
   38.7440   23.8490   36.9550 C   0  0  0  0  0  0  0  0  0  0  0  0
   39.8440   23.2360   36.4000 C   0  0  0  0  0  0  0  0  0  0  0  0
   40.2280   23.3900   35.3810 H   0  0  0  0  0  0  0  0  0  0  0  0
   40.4380   22.3720   37.2970 C   0  0  0  0  0  0  0  0  0  0  0  0
   41.3040   21.7350   37.2070 H   0  0  0  0  0  0  0  0  0  0  0  0
   39.6600   22.4870   38.4020 N   0  0  0  0  0  0  0  0  0  0  0  0
   39.7330   22.0240   39.3140 H   0  0  0  0  0  0  0  0  0  0  0  0
   38.6680   23.3510   38.2020 N   0  0  0  0  0  0  0  0  0  0  0  0
  1  2  1  0  0  0  0
  1 13  1  0  0  0  0
  3  1  1  0  0  0  0
  4  9  1  0  0  0  0
  5  6  1  0  0  0  0
  5  4  2  0  0  0  0
  6  7  2  0  0  0  0
  7  8  1  0  0  0  0
  8  1  1  0  0  0  0
  9  8  2  0  0  0  0
 10  4  1  0  0  0  0
 11  5  1  0  0  0  0
 12  6  1  0  0  0  0
 13 16  1  0  0  0  0
 13 14  1  0  0  0  0
 15 13  1  0  0  0  0
 16 23  2  0  0  0  0
 17 16  1  0  0  0  0
 17 19  2  0  0  0  0
 18 17  1  0  0  0  0
 19 21  1  0  0  0  0
 20 19  1  0  0  0  0
 21 22  1  0  0  0  0
 23 21  1  0  0  0  0
M  END
>  <minimizedAffinity>
-3.88622618

$$$$

 OpenBabel03272501553D

 23 24  0  0  0  0  0  0  0  0999 V2000
   37.7490   25.7790   35.6770 C   0  0  0  0  0  0  0  0  0  0  0  0
   36.7390   25.9520   36.0630 H   0  0  0  0  0  0  0  0  0  0  0  0
   37.7580   25.4040   34.6260 H   0  0  0  0  0  0  0  0  0  0  0  0
   40.0870   23.0600   36.6070 C   0  0  0  0  0  0  0  0  0  0  0  0
   39.6830   22.7530   37.9200 C   0  0  0  0  0  0  0  0  0  0  0  0
   38.6130   23.4830   38.4700 C   0  0  0  0  0  0  0  0  0  0  0  0
   38.0210   24.4460   37.7140 N   0  0  0  0  0  0  0  0  0  0  0  0
   38.4500   24.7030   36.4500 C   0  0  0  0  0  0  0  0  0  0  0  0
   39.4620   24.0160   35.9240 N   0  0  0  0  0  0  0  0  0  0  0  0
   40.9080   22.4530   36.2770 H   0  0  0  0  0  0  0  0  0  0  0  0
   40.0990   22.0130   38.5740 H   0  0  0  0  0  0  0  0  0  0  0  0
   38.2050   23.3560   39.4480 H   0  0  0  0  0  0  0  0  0  0  0  0
   38.5650   27.0390   35.7140 C   0  0  0  0  0  0  0  0  0  0  0  0
   37.9130   27.9460   35.7020 H   0  0  0  0  0  0  0  0  0  0  0  0
   39.2530   27.0550   36.5660 H   0  0  0  0  0  0  0  0  0  0  0  0
   39.3290   27.0820   34.4230 C   0  0  0  0  0  0  0  0  0  0  0  0
   38.7970   27.0600   33.1540 C   0  0  0  0  0  0  0  0  0  0  0  0
   37.7280   27.0080   32.8980 H   0  0  0  0  0  0  0  0  0  0  0  0
   39.7890   27.1140   32.1960 C   0  0  0  0  0  0  0  0  0  0  0  0
   39.7410   27.1150   31.1180 H   0  0  0  0  0  0  0  0  0  0  0  0
   40.9280   27.1660   32.9310 N   0  0  0  0  0  0  0  0  0  0  0  0
   41.9080   27.2170   32.6310 H   0  0  0  0  0  0  0  0  0  0  0  0
   40.6590   27.1480   34.2340 N   0  0  0  0  0  0  0  0  0  0  0  0
  1 13  1  0  0  0  0
  1  2  1  0  0  0  0
  1  8  1  0  0  0  0
  3  1  1  0  0  0  0
  4  5  1  0  0  0  0
  5  6  2  0  0  0  0
  5 11  1  0  0  0  0
  6 12  1  0  0  0  0
  7  6  1  0  0  0  0
  8  7  2  0  0  0  0
  9  8  1  0  0  0  0
  9  4  2  0  0  0  0
 10  4  1  0  0  0  0
 13 15  1  0  0  0  0
 14 13  1  0  0  0  0
 16 13  1  0  0  0  0
 17 16  1  0  0  0  0
 18 17  1  0  0  0  0
 19 21  1  0  0  0  0
 19 17  2  0  0  0  0
 20 19  1  0  0  0  0
 21 23  1  0  0  0  0
 22 21  1  0  0  0  0
 23 16  2  0  0  0  0
M  END
>  <minimizedAffinity>
-3.80210304

$$$$

 OpenBabel03272501553D

 23 24  0  0  0  0  0  0  0  0999 V2000
   34.9400   29.6290   33.6350 C   0  0  0  0  0  0  0  0  0  0  0  0
   34.2660   29.2920   34.4300 H   0  0  0  0  0  0  0  0  0  0  0  0
   34.4720   29.6030   32.6240 H   0  0  0  0  0  0  0  0  0  0  0  0
   37.7590   27.6920   32.2110 C   0  0  0  0  0  0  0  0  0  0  0  0
   38.2890   27.0530   33.3480 C   0  0  0  0  0  0  0  0  0  0  0  0
   37.6730   27.2950   34.5890 C   0  0  0  0  0  0  0  0  0  0  0  0
   36.6000   28.1300   34.6350 N   0  0  0  0  0  0  0  0  0  0  0  0
   36.1260   28.7220   33.5070 C   0  0  0  0  0  0  0  0  0  0  0  0
   36.7050   28.4970   32.3290 N   0  0  0  0  0  0  0  0  0  0  0  0
   38.2950   27.4460   31.3140 H   0  0  0  0  0  0  0  0  0  0  0  0
   39.1270   26.3870   33.3900 H   0  0  0  0  0  0  0  0  0  0  0  0
   37.9680   26.8800   35.5270 H   0  0  0  0  0  0  0  0  0  0  0  0
   35.4060   31.0350   33.8820 C   0  0  0  0  0  0  0  0  0  0  0  0
   36.5210   31.0960   33.9050 H   0  0  0  0  0  0  0  0  0  0  0  0
   34.9850   31.7380   33.1550 H   0  0  0  0  0  0  0  0  0  0  0  0
   34.9600   31.3870   35.2710 C   0  0  0  0  0  0  0  0  0  0  0  0
   33.6810   31.2900   35.7710 C   0  0  0  0  0  0  0  0  0  0  0  0
   32.7940   30.9390   35.2230 H   0  0  0  0  0  0  0  0  0  0  0  0
   33.6290   31.6990   37.0880 C   0  0  0  0  0  0  0  0  0  0  0  0
   32.8070   31.7560   37.7860 H   0  0  0  0  0  0  0  0  0  0  0  0
   34.9130   32.0430   37.3580 N   0  0  0  0  0  0  0  0  0  0  0  0
   35.3340   32.4010   38.2220 H   0  0  0  0  0  0  0  0  0  0  0  0
   35.6920   31.8600   36.2950 N   0  0  0  0  0  0  0  0  0  0  0  0
  1 13  1  0  0  0  0
  1  2  1  0  0  0  0
  3  1  1  0  0  0  0
  4  9  2  0  0  0  0
  4  5  1  0  0  0  0
  5 11  1  0  0  0  0
  5  6  2  0  0  0  0
  6  7  1  0  0  0  0
  6 12  1  0  0  0  0
  8  1  1  0  0  0  0
  8  7  2  0  0  0  0
  9  8  1  0  0  0  0
 10  4  1  0  0  0  0
 13 14  1  0  0  0  0
 13 16  1  0  0  0  0
 15 13  1  0  0  0  0
 16 17  1  0  0  0  0
 16 23  2  0  0  0  0
 17 19  2  0  0  0  0
 18 17  1  0  0  0  0
 19 21  1  0  0  0  0
 19 20  1  0  0  0  0
 21 22  1  0  0  0  0
 23 21  1  0  0  0  0
M  END
>  <minimizedAffinity>
-3.69305229

$$$$

 OpenBabel03272501553D

 23 24  0  0  0  0  0  0  0  0999 V2000
   37.7660   25.8600   35.7700 C   0  0  0  0  0  0  0  0  0  0  0  0
   37.0230   26.3470   36.4120 H   0  0  0  0  0  0  0  0  0  0  0  0
   37.3160   25.3600   34.8810 H   0  0  0  0  0  0  0  0  0  0  0  0
   38.7020   23.3770   38.3550 C   0  0  0  0  0  0  0  0  0  0  0  0
   39.7910   22.7150   37.7550 C   0  0  0  0  0  0  0  0  0  0  0  0
   40.1900   23.1290   36.4710 C   0  0  0  0  0  0  0  0  0  0  0  0
   39.5110   24.1430   35.8710 N   0  0  0  0  0  0  0  0  0  0  0  0
   38.4660   24.7500   36.4940 C   0  0  0  0  0  0  0  0  0  0  0  0
   38.0840   24.3630   37.7090 N   0  0  0  0  0  0  0  0  0  0  0  0
   38.4730   22.9910   39.3300 H   0  0  0  0  0  0  0  0  0  0  0  0
   40.3710   21.9120   38.1640 H   0  0  0  0  0  0  0  0  0  0  0  0
   40.9940   22.7190   35.9020 H   0  0  0  0  0  0  0  0  0  0  0  0
   38.7780   26.8500   35.2680 C   0  0  0  0  0  0  0  0  0  0  0  0
   38.7290   27.8080   35.8400 H   0  0  0  0  0  0  0  0  0  0  0  0
   39.7920   26.4350   35.2730 H   0  0  0  0  0  0  0  0  0  0  0  0
   38.3620   27.2010   33.8690 C   0  0  0  0  0  0  0  0  0  0  0  0
   37.1060   27.5860   33.4590 C   0  0  0  0  0  0  0  0  0  0  0  0
   36.2180   27.6940   34.1000 H   0  0  0  0  0  0  0  0  0  0  0  0
   37.0790   27.8330   32.1020 C   0  0  0  0  0  0  0  0  0  0  0  0
   36.2790   28.1480   31.4490 H   0  0  0  0  0  0  0  0  0  0  0  0
   38.3550   27.5830   31.7140 N   0  0  0  0  0  0  0  0  0  0  0  0
   38.7880   27.6400   30.7860 H   0  0  0  0  0  0  0  0  0  0  0  0
   39.1060   27.2130   32.7480 N   0  0  0  0  0  0  0  0  0  0  0  0
  1  2  1  0  0  0  0
  1  8  1  0  0  0  0
  3  1  1  0  0  0  0
  4 10  1  0  0  0  0
  5 11  1  0  0  0  0
  5  4  1  0  0  0  0
  6  5  2  0  0  0  0
  7  6  1  0  0  0  0
  7  8  2  0  0  0  0
  8  9  1  0  0  0  0
  9  4  2  0  0  0  0
 12  6  1  0  0  0  0
 13 15  1  0  0  0  0
 13  1  1  0  0  0  0
 13 14  1  0  0  0  0
 16 13  1  0  0  0  0
 17 16  1  0  0  0  0
 17 18  1  0  0  0  0
 19 17  2  0  0  0  0
 20 19  1  0  0  0  0
 21 19  1  0  0  0  0
 21 23  1  0  0  0  0
 22 21  1  0  0  0  0
 23 16  2  0  0  0  0
M  END
>  <minimizedAffinity>
-3.6773715

$$$$

 OpenBabel03272501553D

 23 24  0  0  0  0  0  0  0  0999 V2000
   35.7560   29.5750   34.0090 C   0  0  0  0  0  0  0  0  0  0  0  0
   35.4270   28.5330   34.0790 H   0  0  0  0  0  0  0  0  0  0  0  0
   36.8400   29.7090   34.2380 H   0  0  0  0  0  0  0  0  0  0  0  0
   35.1310   32.0420   36.7010 C   0  0  0  0  0  0  0  0  0  0  0  0
   33.7330   31.9700   36.8560 C   0  0  0  0  0  0  0  0  0  0  0  0
   33.0230   31.0750   36.0350 C   0  0  0  0  0  0  0  0  0  0  0  0
   33.7130   30.3250   35.1340 N   0  0  0  0  0  0  0  0  0  0  0  0
   35.0640   30.4330   35.0240 C   0  0  0  0  0  0  0  0  0  0  0  0
   35.7420   31.2780   35.7980 N   0  0  0  0  0  0  0  0  0  0  0  0
   35.5820   32.7510   37.3680 H   0  0  0  0  0  0  0  0  0  0  0  0
   33.1230   32.5250   37.5390 H   0  0  0  0  0  0  0  0  0  0  0  0
   31.9680   30.9170   36.0450 H   0  0  0  0  0  0  0  0  0  0  0  0
   35.5140   30.1270   32.6340 C   0  0  0  0  0  0  0  0  0  0  0  0
   34.4300   30.3360   32.4640 H   0  0  0  0  0  0  0  0  0  0  0  0
   36.1250   31.0140   32.4360 H   0  0  0  0  0  0  0  0  0  0  0  0
   35.8620   29.0270   31.6730 C   0  0  0  0  0  0  0  0  0  0  0  0
   35.7780   27.6740   31.9100 C   0  0  0  0  0  0  0  0  0  0  0  0
   35.4420   27.1980   32.8440 H   0  0  0  0  0  0  0  0  0  0  0  0
   36.1770   26.9490   30.8060 C   0  0  0  0  0  0  0  0  0  0  0  0
   36.2400   25.8850   30.6360 H   0  0  0  0  0  0  0  0  0  0  0  0
   36.5030   27.9090   29.9050 N   0  0  0  0  0  0  0  0  0  0  0  0
   36.8490   27.8230   28.9430 H   0  0  0  0  0  0  0  0  0  0  0  0
   36.3180   29.1250   30.4110 N   0  0  0  0  0  0  0  0  0  0  0  0
  1  2  1  0  0  0  0
  1  3  1  0  0  0  0
  1  8  1  0  0  0  0
  4  5  1  0  0  0  0
  4 10  1  0  0  0  0
  5 11  1  0  0  0  0
  6 12  1  0  0  0  0
  6  5  2  0  0  0  0
  7  6  1  0  0  0  0
  8  7  2  0  0  0  0
  8  9  1  0  0  0  0
  9  4  2  0  0  0  0
 13  1  1  0  0  0  0
 14 13  1  0  0  0  0
 15 13  1  0  0  0  0
 16 17  1  0  0  0  0
 16 13  1  0  0  0  0
 17 18  1  0  0  0  0
 19 17  2  0  0  0  0
 20 19  1  0  0  0  0
 21 23  1  0  0  0  0
 21 19  1  0  0  0  0
 22 21  1  0  0  0  0
 23 16  2  0  0  0  0
M  END
>  <minimizedAffinity>
-3.6502068

$$$$
