
 OpenBabel03272506113D

 43 46  0  0  1  0  0  0  0  0999 V2000
   36.8190   30.8010   47.2220 C   0  0  1  0  0  0  0  0  0  0  0  0
   35.7390   29.8260   47.8560 C   0  0  0  0  0  0  0  0  0  0  0  0
   35.2820   30.3530   49.2140 C   0  0  0  0  0  0  0  0  0  0  0  0
   36.4570   30.7900   50.0340 C   0  0  0  0  0  0  0  0  0  0  0  0
   37.6760   30.1290   49.4880 C   0  0  0  0  0  0  0  0  0  0  0  0
   37.9980   30.7500   48.1420 C   0  0  2  0  0  0  0  0  0  0  0  0
   36.3380   31.6730   47.5190 H   0  0  0  0  0  0  0  0  0  0  0  0
   36.1730   28.8400   47.9440 H   0  0  0  0  0  0  0  0  0  0  0  0
   34.9060   29.8220   47.1580 H   0  0  0  0  0  0  0  0  0  0  0  0
   34.4750   31.0890   49.1190 H   0  0  0  0  0  0  0  0  0  0  0  0
   34.8410   29.4740   49.7270 H   0  0  0  0  0  0  0  0  0  0  0  0
   36.3000   30.5560   51.1240 H   0  0  0  0  0  0  0  0  0  0  0  0
   36.4930   31.8810   49.9850 H   0  0  0  0  0  0  0  0  0  0  0  0
   38.5230   30.4260   50.1540 H   0  0  0  0  0  0  0  0  0  0  0  0
   37.5710   29.0520   49.4100 H   0  0  0  0  0  0  0  0  0  0  0  0
   38.8800   30.1940   47.8010 H   0  0  0  0  0  0  0  0  0  0  0  0
   35.9700   29.9360   45.0830 C   0  0  0  0  0  0  0  0  0  0  0  0
   36.2640   29.5400   43.7930 C   0  0  0  0  0  0  0  0  0  0  0  0
   37.5200   29.4790   43.2510 C   0  0  0  0  0  0  0  0  0  0  0  0
   38.6060   29.8380   44.0480 C   0  0  0  0  0  0  0  0  0  0  0  0
   38.3180   30.2340   45.3500 C   0  0  0  0  0  0  0  0  0  0  0  0
   37.0400   30.2980   45.8950 C   0  0  0  0  0  0  0  0  0  0  0  0
   35.4720   29.2410   43.0830 H   0  0  0  0  0  0  0  0  0  0  0  0
   37.6720   29.1630   42.2290 H   0  0  0  0  0  0  0  0  0  0  0  0
   39.5840   29.7840   43.6040 H   0  0  0  0  0  0  0  0  0  0  0  0
   39.2490   30.4660   45.8500 H   0  0  0  0  0  0  0  0  0  0  0  0
   34.0500   28.6240   45.8220 C   0  0  0  0  0  0  0  0  0  0  0  0
   34.5940   29.9030   45.4440 C   0  0  0  0  0  0  0  0  0  0  0  0
   33.7470   30.9990   45.4870 C   0  0  0  0  0  0  0  0  0  0  0  0
   32.4600   30.8450   45.8790 N   0  0  0  0  0  0  0  0  0  0  0  0
   31.9590   29.6200   46.2360 C   0  0  0  0  0  0  0  0  0  0  0  0
   32.7600   28.5300   46.2010 N   0  0  0  0  0  0  0  0  0  0  0  0
   34.5840   27.6920   45.8380 H   0  0  0  0  0  0  0  0  0  0  0  0
   33.8790   31.9930   45.1950 H   0  0  0  0  0  0  0  0  0  0  0  0
   30.9340   29.4630   46.5550 H   0  0  0  0  0  0  0  0  0  0  0  0
   38.5720   32.1430   48.3550 C   0  0  0  0  0  0  0  0  0  0  0  0
   38.5990   32.8380   49.5580 C   0  0  0  0  0  0  0  0  0  0  0  0
   38.2230   32.5060   50.5210 H   0  0  0  0  0  0  0  0  0  0  0  0
   39.1980   34.0740   49.3790 C   0  0  0  0  0  0  0  0  0  0  0  0
   39.3480   34.8140   50.1500 H   0  0  0  0  0  0  0  0  0  0  0  0
   39.5150   34.0900   48.0720 N   0  0  0  0  0  0  0  0  0  0  0  0
   39.9900   34.9140   47.6310 H   0  0  0  0  0  0  0  0  0  0  0  0
   39.1490   32.9700   47.4910 N   0  0  0  0  0  0  0  0  0  0  0  0
  1  7  1  6  0  0  0
  1  2  1  0  0  0  0
  1  6  1  0  0  0  0
  2  8  1  0  0  0  0
  2  3  1  0  0  0  0
  3 11  1  0  0  0  0
  3  4  1  0  0  0  0
  4 12  1  0  0  0  0
  5  4  1  0  0  0  0
  5 14  1  0  0  0  0
  6 16  1  6  0  0  0
  6 36  1  0  0  0  0
  6  5  1  0  0  0  0
  9  2  1  0  0  0  0
 10  3  1  0  0  0  0
 13  4  1  0  0  0  0
 15  5  1  0  0  0  0
 17 28  1  0  0  0  0
 17 22  1  0  0  0  0
 18 17  2  0  0  0  0
 19 18  1  0  0  0  0
 19 20  2  0  0  0  0
 20 21  1  0  0  0  0
 21 26  1  0  0  0  0
 21 22  2  0  0  0  0
 22  1  1  0  0  0  0
 23 18  1  0  0  0  0
 24 19  1  0  0  0  0
 25 20  1  0  0  0  0
 27 33  1  0  0  0  0
 27 32  1  0  0  0  0
 28 29  1  0  0  0  0
 28 27  2  0  0  0  0
 29 30  2  0  0  0  0
 30 31  1  0  0  0  0
 31 35  1  0  0  0  0
 32 31  2  0  0  0  0
 34 29  1  0  0  0  0
 36 37  1  0  0  0  0
 37 38  1  0  0  0  0
 39 37  2  0  0  0  0
 39 40  1  0  0  0  0
 41 39  1  0  0  0  0
 42 41  1  0  0  0  0
 43 41  1  0  0  0  0
 43 36  2  0  0  0  0
M  END
>  <minimizedAffinity>
-6.07079554

>  <minimizedRMSD>
3.47699904

$$$$
