
 OpenBabel03272508383D

 31 33  0  0  1  0  0  0  0  0999 V2000
   33.2740   28.5120   47.5310 N   0  0  0  0  0  0  0  0  0  0  0  0
   34.2090   28.8380   48.5850 C   0  0  0  0  0  0  0  0  0  0  0  0
   34.9920   30.0960   48.3400 C   0  0  2  0  0  0  0  0  0  0  0  0
   35.3720   30.3310   47.0020 N   0  0  0  0  0  0  0  0  0  0  0  0
   34.2620   30.0950   46.0830 C   0  0  0  0  0  0  0  0  0  0  0  0
   33.9170   28.6320   46.2670 C   0  0  0  0  0  0  0  0  0  0  0  0
   33.6850   28.9050   49.5600 H   0  0  0  0  0  0  0  0  0  0  0  0
   34.9620   28.0030   48.5720 H   0  0  0  0  0  0  0  0  0  0  0  0
   34.3090   30.9410   48.6400 H   0  0  0  0  0  0  0  0  0  0  0  0
   36.1370   29.6850   46.7330 H   0  0  0  0  0  0  0  0  0  0  0  0
   33.4360   30.7360   46.4530 H   0  0  0  0  0  0  0  0  0  0  0  0
   34.5300   30.3630   45.0460 H   0  0  0  0  0  0  0  0  0  0  0  0
   33.2060   28.3740   45.4350 H   0  0  0  0  0  0  0  0  0  0  0  0
   34.8090   28.0010   46.1820 H   0  0  0  0  0  0  0  0  0  0  0  0
   31.9230   28.1350   47.7520 C   0  0  0  0  0  0  0  0  0  0  0  0
   30.9440   28.1580   46.7660 C   0  0  0  0  0  0  0  0  0  0  0  0
   29.6480   27.7710   47.0710 C   0  0  0  0  0  0  0  0  0  0  0  0
   29.3900   27.3760   48.3580 N   0  0  0  0  0  0  0  0  0  0  0  0
   30.3560   27.3600   49.3020 C   0  0  0  0  0  0  0  0  0  0  0  0
   31.6110   27.7360   49.0070 N   0  0  0  0  0  0  0  0  0  0  0  0
   31.2050   28.4740   45.7850 H   0  0  0  0  0  0  0  0  0  0  0  0
   28.8500   27.7700   46.3440 H   0  0  0  0  0  0  0  0  0  0  0  0
   30.0950   27.0390   50.3030 H   0  0  0  0  0  0  0  0  0  0  0  0
   36.1510   30.1360   49.2460 C   0  0  0  0  0  0  0  0  0  0  0  0
   36.8520   31.2720   49.6670 C   0  0  0  0  0  0  0  0  0  0  0  0
   36.5620   32.2570   49.3240 H   0  0  0  0  0  0  0  0  0  0  0  0
   37.8540   30.8030   50.5090 C   0  0  0  0  0  0  0  0  0  0  0  0
   38.5120   31.5660   50.9380 H   0  0  0  0  0  0  0  0  0  0  0  0
   37.7540   29.4700   50.5860 N   0  0  0  0  0  0  0  0  0  0  0  0
   38.4310   28.9430   51.1780 H   0  0  0  0  0  0  0  0  0  0  0  0
   36.7410   29.0720   49.8340 N   0  0  0  0  0  0  0  0  0  0  0  0
  1 15  1  0  0  0  0
  1  2  1  0  0  0  0
  2  7  1  0  0  0  0
  3  2  1  0  0  0  0
  3  9  1  1  0  0  0
  3 24  1  0  0  0  0
  4  3  1  0  0  0  0
  5  6  1  0  0  0  0
  5 11  1  0  0  0  0
  5  4  1  0  0  0  0
  6  1  1  0  0  0  0
  8  2  1  0  0  0  0
 10  4  1  0  0  0  0
 12  5  1  0  0  0  0
 13  6  1  0  0  0  0
 14  6  1  0  0  0  0
 15 20  1  0  0  0  0
 16 17  1  0  0  0  0
 16 15  2  0  0  0  0
 17 18  2  0  0  0  0
 18 19  1  0  0  0  0
 19 23  1  0  0  0  0
 20 19  2  0  0  0  0
 21 16  1  0  0  0  0
 22 17  1  0  0  0  0
 24 25  1  0  0  0  0
 24 31  2  0  0  0  0
 25 27  2  0  0  0  0
 26 25  1  0  0  0  0
 27 29  1  0  0  0  0
 27 28  1  0  0  0  0
 29 30  1  0  0  0  0
 31 29  1  0  0  0  0
M  END
>  <minimizedAffinity>
-4.71187258

>  <minimizedRMSD>
4.03518581

$$$$
