
 OpenBabel03272509243D

 23 24  0  0  0  0  0  0  0  0999 V2000
   38.0840   30.6470   47.6910 C   0  0  0  0  0  0  0  0  0  0  0  0
   38.8540   29.8880   47.4500 H   0  0  0  0  0  0  0  0  0  0  0  0
   37.2890   30.7260   46.9350 H   0  0  0  0  0  0  0  0  0  0  0  0
   37.3440   30.2120   51.3780 C   0  0  0  0  0  0  0  0  0  0  0  0
   38.0130   30.6550   50.2140 C   0  0  0  0  0  0  0  0  0  0  0  0
   37.4900   30.2620   48.9930 C   0  0  0  0  0  0  0  0  0  0  0  0
   36.3670   29.4770   48.9840 N   0  0  0  0  0  0  0  0  0  0  0  0
   35.7550   29.0730   50.1130 C   0  0  0  0  0  0  0  0  0  0  0  0
   36.2480   29.4440   51.3190 N   0  0  0  0  0  0  0  0  0  0  0  0
   37.8070   30.5560   52.3070 H   0  0  0  0  0  0  0  0  0  0  0  0
   38.8840   31.2640   50.2430 H   0  0  0  0  0  0  0  0  0  0  0  0
   34.8690   28.4520   50.0870 H   0  0  0  0  0  0  0  0  0  0  0  0
   38.8380   31.9620   47.8260 C   0  0  0  0  0  0  0  0  0  0  0  0
   38.2580   32.7170   48.3750 H   0  0  0  0  0  0  0  0  0  0  0  0
   39.8460   31.7710   48.2270 H   0  0  0  0  0  0  0  0  0  0  0  0
   39.0140   32.4720   46.4180 C   0  0  0  0  0  0  0  0  0  0  0  0
   40.1330   33.0860   45.8710 C   0  0  0  0  0  0  0  0  0  0  0  0
   41.0610   33.2880   46.4010 H   0  0  0  0  0  0  0  0  0  0  0  0
   39.8340   33.3790   44.5560 C   0  0  0  0  0  0  0  0  0  0  0  0
   40.4740   33.8600   43.8230 H   0  0  0  0  0  0  0  0  0  0  0  0
   38.5700   32.9530   44.3140 N   0  0  0  0  0  0  0  0  0  0  0  0
   37.9960   33.0050   43.4220 H   0  0  0  0  0  0  0  0  0  0  0  0
   38.0890   32.4100   45.4440 N   0  0  0  0  0  0  0  0  0  0  0  0
  1 13  1  0  0  0  0
  1  6  1  0  0  0  0
  2  1  1  0  0  0  0
  3  1  1  0  0  0  0
  4 10  1  0  0  0  0
  5 11  1  0  0  0  0
  5  4  2  0  0  0  0
  6  5  1  0  0  0  0
  7  6  2  0  0  0  0
  7  8  1  0  0  0  0
  8  9  2  0  0  0  0
  9  4  1  0  0  0  0
 12  8  1  0  0  0  0
 13 15  1  0  0  0  0
 13 14  1  0  0  0  0
 16 13  1  0  0  0  0
 17 18  1  0  0  0  0
 17 16  1  0  0  0  0
 19 17  2  0  0  0  0
 20 19  1  0  0  0  0
 21 19  1  0  0  0  0
 21 23  1  0  0  0  0
 22 21  1  0  0  0  0
 23 16  2  0  0  0  0
M  END
>  <minimizedAffinity>
-5.04310417

>  <minimizedRMSD>
0.879639685

$$$$
