
 OpenBabel03272502383D

 39 42  0  0  1  0  0  0  0  0999 V2000
   32.5220   27.9500   48.7830 N   0  0  0  0  0  0  0  0  0  0  0  0
   33.4100   27.3110   47.8250 C   0  0  0  0  0  0  0  0  0  0  0  0
   34.6990   28.0560   48.0070 C   0  0  0  0  0  0  0  0  0  0  0  0
   34.3340   29.2750   48.9680 C   0  0  1  0  0  0  0  0  0  0  0  0
   33.3490   28.6010   49.8190 C   0  0  0  0  0  0  0  0  0  0  0  0
   33.4970   26.2340   47.9840 H   0  0  0  0  0  0  0  0  0  0  0  0
   33.0300   27.5760   46.8100 H   0  0  0  0  0  0  0  0  0  0  0  0
   35.1190   28.5300   47.1230 H   0  0  0  0  0  0  0  0  0  0  0  0
   35.4450   27.5140   48.6120 H   0  0  0  0  0  0  0  0  0  0  0  0
   33.9550   29.9520   48.2030 H   0  0  0  0  0  0  0  0  0  0  0  0
   33.8420   27.7530   50.3350 H   0  0  0  0  0  0  0  0  0  0  0  0
   32.7450   29.2280   50.4710 H   0  0  0  0  0  0  0  0  0  0  0  0
   36.0600   31.1850   47.7760 F   0  0  0  0  0  0  0  0  0  0  0  0
   36.2990   30.6740   49.0000 C   0  0  0  0  0  0  0  0  0  0  0  0
   35.5710   29.7030   49.6360 C   0  0  0  0  0  0  0  0  0  0  0  0
   35.9970   29.2780   50.9070 C   0  0  0  0  0  0  0  0  0  0  0  0
   37.1110   29.8100   51.5170 C   0  0  0  0  0  0  0  0  0  0  0  0
   37.8340   30.7960   50.8480 C   0  0  0  0  0  0  0  0  0  0  0  0
   37.4160   31.2240   49.5760 C   0  0  0  0  0  0  0  0  0  0  0  0
   35.3740   28.5120   51.3430 H   0  0  0  0  0  0  0  0  0  0  0  0
   37.4070   29.4590   52.4940 H   0  0  0  0  0  0  0  0  0  0  0  0
   38.6850   31.1570   51.3830 H   0  0  0  0  0  0  0  0  0  0  0  0
   38.2510   32.2580   48.9790 C   0  0  0  0  0  0  0  0  0  0  0  0
   38.7490   33.4320   49.4740 C   0  0  0  0  0  0  0  0  0  0  0  0
   38.5890   33.8100   50.4710 H   0  0  0  0  0  0  0  0  0  0  0  0
   39.5040   34.1060   48.5410 C   0  0  0  0  0  0  0  0  0  0  0  0
   40.0100   35.0520   48.6710 H   0  0  0  0  0  0  0  0  0  0  0  0
   39.4380   33.2960   47.4740 N   0  0  0  0  0  0  0  0  0  0  0  0
   39.9040   33.4770   46.5370 H   0  0  0  0  0  0  0  0  0  0  0  0
   38.7150   32.2230   47.7200 N   0  0  0  0  0  0  0  0  0  0  0  0
   31.1150   27.9730   48.7620 C   0  0  0  0  0  0  0  0  0  0  0  0
   30.5260   28.0520   47.4920 C   0  0  0  0  0  0  0  0  0  0  0  0
   29.1240   28.0890   47.3990 C   0  0  0  0  0  0  0  0  0  0  0  0
   28.4280   28.0430   48.5930 N   0  0  0  0  0  0  0  0  0  0  0  0
   29.0230   27.9680   49.7830 C   0  0  0  0  0  0  0  0  0  0  0  0
   30.3780   27.9330   49.8700 N   0  0  0  0  0  0  0  0  0  0  0  0
   31.0490   28.0880   46.5580 H   0  0  0  0  0  0  0  0  0  0  0  0
   28.6510   28.1480   46.4460 H   0  0  0  0  0  0  0  0  0  0  0  0
   28.3820   27.9370   50.6520 H   0  0  0  0  0  0  0  0  0  0  0  0
  1  5  1  0  0  0  0
  2  6  1  0  0  0  0
  2  3  1  0  0  0  0
  2  1  1  0  0  0  0
  3  9  1  0  0  0  0
  3  4  1  0  0  0  0
  4 10  1  6  0  0  0
  4 15  1  0  0  0  0
  4  5  1  0  0  0  0
  5 11  1  0  0  0  0
  5 12  1  0  0  0  0
  7  2  1  0  0  0  0
  8  3  1  0  0  0  0
 13 14  1  0  0  0  0
 14 19  2  0  0  0  0
 14 15  1  0  0  0  0
 15 16  2  0  0  0  0
 16 20  1  0  0  0  0
 16 17  1  0  0  0  0
 17 21  1  0  0  0  0
 18 22  1  0  0  0  0
 18 17  2  0  0  0  0
 19 18  1  0  0  0  0
 23 24  1  0  0  0  0
 23 19  1  0  0  0  0
 24 25  1  0  0  0  0
 26 27  1  0  0  0  0
 26 24  2  0  0  0  0
 28 30  1  0  0  0  0
 28 26  1  0  0  0  0
 29 28  1  0  0  0  0
 30 23  2  0  0  0  0
 31  1  1  0  0  0  0
 31 36  1  0  0  0  0
 32 31  2  0  0  0  0
 33 32  1  0  0  0  0
 33 34  2  0  0  0  0
 34 35  1  0  0  0  0
 35 36  2  0  0  0  0
 35 39  1  0  0  0  0
 37 32  1  0  0  0  0
 38 33  1  0  0  0  0
M  END
>  <minimizedAffinity>
-7.18004131

>  <minimizedRMSD>
2.93853784

$$$$
