
 OpenBabel03272510193D

 35 38  0  0  0  0  0  0  0  0999 V2000
   37.4510   29.1760   50.8130 Br  0  0  0  0  0  0  0  0  0  0  0  0
   36.0280   29.2820   49.5490 C   0  0  0  0  0  0  0  0  0  0  0  0
   36.0130   30.2920   48.5870 C   0  0  0  0  0  0  0  0  0  0  0  0
   34.9620   30.3140   47.7050 C   0  0  0  0  0  0  0  0  0  0  0  0
   33.9340   29.3880   47.7360 C   0  0  0  0  0  0  0  0  0  0  0  0
   33.9720   28.4110   48.6850 C   0  0  0  0  0  0  0  0  0  0  0  0
   35.0190   28.3740   49.5780 C   0  0  0  0  0  0  0  0  0  0  0  0
   34.8930   31.0720   46.9370 H   0  0  0  0  0  0  0  0  0  0  0  0
   33.1880   27.6670   48.7430 H   0  0  0  0  0  0  0  0  0  0  0  0
   35.0170   27.5730   50.3270 H   0  0  0  0  0  0  0  0  0  0  0  0
   38.0320   33.1980   49.4780 C   0  0  0  0  0  0  0  0  0  0  0  0
   39.0610   33.2010   48.4860 C   0  0  0  0  0  0  0  0  0  0  0  0
   39.0360   32.2050   47.5360 C   0  0  0  0  0  0  0  0  0  0  0  0
   38.0410   31.2650   47.5780 N   0  0  0  0  0  0  0  0  0  0  0  0
   37.0750   31.2810   48.5270 C   0  0  0  0  0  0  0  0  0  0  0  0
   37.0790   32.2600   49.4810 N   0  0  0  0  0  0  0  0  0  0  0  0
   38.0250   33.9710   50.2410 H   0  0  0  0  0  0  0  0  0  0  0  0
   39.8070   33.9580   48.5060 H   0  0  0  0  0  0  0  0  0  0  0  0
   39.7960   32.1600   46.7580 H   0  0  0  0  0  0  0  0  0  0  0  0
   32.8150   29.4080   46.8000 C   0  0  0  0  0  0  0  0  0  0  0  0
   31.8840   28.4050   46.6570 C   0  0  0  0  0  0  0  0  0  0  0  0
   30.8410   28.4810   45.7500 C   0  0  0  0  0  0  0  0  0  0  0  0
   30.7170   29.5590   44.9770 N   0  0  0  0  0  0  0  0  0  0  0  0
   31.6100   30.5470   45.0990 C   0  0  0  0  0  0  0  0  0  0  0  0
   32.6230   30.4690   45.9820 N   0  0  0  0  0  0  0  0  0  0  0  0
   31.9880   27.5280   47.2880 H   0  0  0  0  0  0  0  0  0  0  0  0
   30.1390   27.6500   45.6880 H   0  0  0  0  0  0  0  0  0  0  0  0
   31.6070   31.7860   44.3250 C   0  0  0  0  0  0  0  0  0  0  0  0
   30.5410   32.6760   44.4350 C   0  0  0  0  0  0  0  0  0  0  0  0
   29.6590   32.5990   45.0370 H   0  0  0  0  0  0  0  0  0  0  0  0
   30.7850   33.7710   43.5960 C   0  0  0  0  0  0  0  0  0  0  0  0
   30.1240   34.6200   43.4790 H   0  0  0  0  0  0  0  0  0  0  0  0
   31.9890   33.4970   43.0140 N   0  0  0  0  0  0  0  0  0  0  0  0
   32.4350   34.1450   42.3290 H   0  0  0  0  0  0  0  0  0  0  0  0
   32.4690   32.3510   43.4310 N   0  0  0  0  0  0  0  0  0  0  0  0
  2  7  1  0  0  0  0
  2  1  1  0  0  0  0
  3  2  2  0  0  0  0
  4  5  2  0  0  0  0
  4  3  1  0  0  0  0
  5  6  1  0  0  0  0
  6  9  1  0  0  0  0
  6  7  2  0  0  0  0
  7 10  1  0  0  0  0
  8  4  1  0  0  0  0
 11 16  1  0  0  0  0
 11 17  1  0  0  0  0
 12 18  1  0  0  0  0
 12 11  2  0  0  0  0
 13 14  2  0  0  0  0
 13 12  1  0  0  0  0
 14 15  1  0  0  0  0
 15  3  1  0  0  0  0
 15 16  2  0  0  0  0
 19 13  1  0  0  0  0
 20  5  1  0  0  0  0
 21 20  1  0  0  0  0
 21 26  1  0  0  0  0
 22 21  2  0  0  0  0
 23 24  2  0  0  0  0
 23 22  1  0  0  0  0
 24 25  1  0  0  0  0
 25 20  2  0  0  0  0
 27 22  1  0  0  0  0
 28 29  1  0  0  0  0
 28 24  1  0  0  0  0
 29 30  1  0  0  0  0
 31 29  2  0  0  0  0
 32 31  1  0  0  0  0
 33 35  1  0  0  0  0
 33 31  1  0  0  0  0
 34 33  1  0  0  0  0
 35 28  2  0  0  0  0
M  END
>  <minimizedAffinity>
-6.29780579

>  <minimizedRMSD>
0.485552788

$$$$
