
 OpenBabel03272510193D

 35 38  0  0  0  0  0  0  0  0999 V2000
   37.3120   29.3380   51.0230 Br  0  0  0  0  0  0  0  0  0  0  0  0
   35.9520   29.3320   49.6870 C   0  0  0  0  0  0  0  0  0  0  0  0
   35.9780   30.2640   48.6500 C   0  0  0  0  0  0  0  0  0  0  0  0
   34.9720   30.2070   47.7180 C   0  0  0  0  0  0  0  0  0  0  0  0
   33.9510   29.2750   47.7710 C   0  0  0  0  0  0  0  0  0  0  0  0
   33.9480   28.3740   48.7930 C   0  0  0  0  0  0  0  0  0  0  0  0
   34.9500   28.4170   49.7360 C   0  0  0  0  0  0  0  0  0  0  0  0
   34.9360   30.9030   46.8910 H   0  0  0  0  0  0  0  0  0  0  0  0
   33.1670   27.6280   48.8690 H   0  0  0  0  0  0  0  0  0  0  0  0
   34.9160   27.6770   50.5440 H   0  0  0  0  0  0  0  0  0  0  0  0
   37.9800   33.2030   49.4690 C   0  0  0  0  0  0  0  0  0  0  0  0
   39.0110   33.1860   48.4780 C   0  0  0  0  0  0  0  0  0  0  0  0
   38.9930   32.1660   47.5540 C   0  0  0  0  0  0  0  0  0  0  0  0
   38.0020   31.2220   47.6190 N   0  0  0  0  0  0  0  0  0  0  0  0
   37.0350   31.2570   48.5660 C   0  0  0  0  0  0  0  0  0  0  0  0
   37.0320   32.2600   49.4950 N   0  0  0  0  0  0  0  0  0  0  0  0
   37.9680   33.9950   50.2120 H   0  0  0  0  0  0  0  0  0  0  0  0
   39.7520   33.9480   48.4790 H   0  0  0  0  0  0  0  0  0  0  0  0
   39.7530   32.1060   46.7790 H   0  0  0  0  0  0  0  0  0  0  0  0
   32.8800   29.2100   46.7820 C   0  0  0  0  0  0  0  0  0  0  0  0
   32.2320   28.0620   46.3890 C   0  0  0  0  0  0  0  0  0  0  0  0
   31.2200   28.0630   45.4440 C   0  0  0  0  0  0  0  0  0  0  0  0
   30.8430   29.2120   44.8830 N   0  0  0  0  0  0  0  0  0  0  0  0
   31.4580   30.3420   45.2510 C   0  0  0  0  0  0  0  0  0  0  0  0
   32.4420   30.3350   46.1700 N   0  0  0  0  0  0  0  0  0  0  0  0
   32.5420   27.1280   46.8470 H   0  0  0  0  0  0  0  0  0  0  0  0
   30.7500   27.1170   45.1780 H   0  0  0  0  0  0  0  0  0  0  0  0
   31.1580   31.6720   44.7280 C   0  0  0  0  0  0  0  0  0  0  0  0
   30.1180   31.8480   43.8180 C   0  0  0  0  0  0  0  0  0  0  0  0
   29.4540   31.1160   43.4070 H   0  0  0  0  0  0  0  0  0  0  0  0
   30.0450   33.2050   43.4800 C   0  0  0  0  0  0  0  0  0  0  0  0
   29.3290   33.6330   42.7910 H   0  0  0  0  0  0  0  0  0  0  0  0
   31.0440   33.7940   44.2010 N   0  0  0  0  0  0  0  0  0  0  0  0
   31.2330   34.8170   44.1530 H   0  0  0  0  0  0  0  0  0  0  0  0
   31.6900   32.9130   44.9240 N   0  0  0  0  0  0  0  0  0  0  0  0
  2  7  1  0  0  0  0
  2  1  1  0  0  0  0
  3  2  2  0  0  0  0
  4  5  2  0  0  0  0
  4  3  1  0  0  0  0
  5  6  1  0  0  0  0
  6  9  1  0  0  0  0
  6  7  2  0  0  0  0
  7 10  1  0  0  0  0
  8  4  1  0  0  0  0
 11 16  1  0  0  0  0
 11 17  1  0  0  0  0
 12 18  1  0  0  0  0
 12 11  2  0  0  0  0
 13 14  2  0  0  0  0
 13 12  1  0  0  0  0
 14 15  1  0  0  0  0
 15  3  1  0  0  0  0
 15 16  2  0  0  0  0
 19 13  1  0  0  0  0
 20  5  1  0  0  0  0
 21 20  1  0  0  0  0
 21 26  1  0  0  0  0
 22 21  2  0  0  0  0
 23 24  2  0  0  0  0
 23 22  1  0  0  0  0
 24 25  1  0  0  0  0
 25 20  2  0  0  0  0
 27 22  1  0  0  0  0
 28 35  2  0  0  0  0
 28 24  1  0  0  0  0
 29 28  1  0  0  0  0
 30 29  1  0  0  0  0
 31 29  2  0  0  0  0
 31 33  1  0  0  0  0
 32 31  1  0  0  0  0
 33 35  1  0  0  0  0
 34 33  1  0  0  0  0
M  END
>  <minimizedAffinity>
-6.46884203

>  <minimizedRMSD>
0.0452909321

$$$$
