
 OpenBabel03272507363D

 18 19  0  0  0  0  0  0  0  0999 V2000
   36.9800   30.1220   50.8250 C   0  0  0  0  0  0  0  0  0  0  0  0
   36.6710   30.9460   49.7470 C   0  0  0  0  0  0  0  0  0  0  0  0
   35.3810   30.8570   49.2500 C   0  0  0  0  0  0  0  0  0  0  0  0
   34.4970   29.9960   49.8190 N   0  0  0  0  0  0  0  0  0  0  0  0
   34.8220   29.2060   50.8670 C   0  0  0  0  0  0  0  0  0  0  0  0
   36.0690   29.2720   51.3690 N   0  0  0  0  0  0  0  0  0  0  0  0
   35.0610   31.4730   48.4010 H   0  0  0  0  0  0  0  0  0  0  0  0
   34.1160   28.5220   51.3180 H   0  0  0  0  0  0  0  0  0  0  0  0
   37.6430   31.8590   49.1570 C   0  0  0  0  0  0  0  0  0  0  0  0
   37.8040   33.1750   49.5360 C   0  0  0  0  0  0  0  0  0  0  0  0
   37.2620   33.7050   50.2890 H   0  0  0  0  0  0  0  0  0  0  0  0
   38.8180   33.6690   48.7350 C   0  0  0  0  0  0  0  0  0  0  0  0
   39.2380   34.6690   48.7270 H   0  0  0  0  0  0  0  0  0  0  0  0
   39.2500   32.7000   47.9100 N   0  0  0  0  0  0  0  0  0  0  0  0
   40.0150   32.8020   47.1960 H   0  0  0  0  0  0  0  0  0  0  0  0
   38.5350   31.6160   48.1750 N   0  0  0  0  0  0  0  0  0  0  0  0
   38.2790   30.2590   51.2720 O   0  0  0  0  0  0  0  0  0  0  0  0
   38.6000   29.6780   52.0170 H   0  0  0  0  0  0  0  0  0  0  0  0
  1 17  1  0  0  0  0
  1  6  1  0  0  0  0
  2  1  2  0  0  0  0
  3  2  1  0  0  0  0
  3  4  2  0  0  0  0
  4  5  1  0  0  0  0
  5  8  1  0  0  0  0
  5  6  2  0  0  0  0
  7  3  1  0  0  0  0
  9 10  1  0  0  0  0
  9  2  1  0  0  0  0
 10 11  1  0  0  0  0
 12 10  2  0  0  0  0
 13 12  1  0  0  0  0
 14 16  1  0  0  0  0
 14 12  1  0  0  0  0
 15 14  1  0  0  0  0
 16  9  2  0  0  0  0
 17 18  1  0  0  0  0
M  END
>  <minimizedAffinity>
-4.61920977

>  <minimizedRMSD>
2.3311224

$$$$
