
 OpenBabel03272510193D

 35 38  0  0  0  0  0  0  0  0999 V2000
   37.4150   29.1690   50.7910 Br  0  0  0  0  0  0  0  0  0  0  0  0
   36.0010   29.2860   49.5170 C   0  0  0  0  0  0  0  0  0  0  0  0
   35.9970   30.3000   48.5600 C   0  0  0  0  0  0  0  0  0  0  0  0
   34.9520   30.3300   47.6700 C   0  0  0  0  0  0  0  0  0  0  0  0
   33.9210   29.4070   47.6900 C   0  0  0  0  0  0  0  0  0  0  0  0
   33.9480   28.4260   48.6350 C   0  0  0  0  0  0  0  0  0  0  0  0
   34.9890   28.3810   49.5340 C   0  0  0  0  0  0  0  0  0  0  0  0
   34.8910   31.0920   46.9050 H   0  0  0  0  0  0  0  0  0  0  0  0
   33.1610   27.6850   48.6830 H   0  0  0  0  0  0  0  0  0  0  0  0
   34.9790   27.5770   50.2800 H   0  0  0  0  0  0  0  0  0  0  0  0
   38.0240   33.1900   49.4840 C   0  0  0  0  0  0  0  0  0  0  0  0
   39.0560   33.1980   48.4940 C   0  0  0  0  0  0  0  0  0  0  0  0
   39.0300   32.2120   47.5350 C   0  0  0  0  0  0  0  0  0  0  0  0
   38.0310   31.2750   47.5660 N   0  0  0  0  0  0  0  0  0  0  0  0
   37.0630   31.2850   48.5120 C   0  0  0  0  0  0  0  0  0  0  0  0
   37.0670   32.2550   49.4760 N   0  0  0  0  0  0  0  0  0  0  0  0
   38.0180   33.9560   50.2550 H   0  0  0  0  0  0  0  0  0  0  0  0
   39.8040   33.9530   48.5230 H   0  0  0  0  0  0  0  0  0  0  0  0
   39.7910   32.1720   46.7590 H   0  0  0  0  0  0  0  0  0  0  0  0
   32.8090   29.4350   46.7460 C   0  0  0  0  0  0  0  0  0  0  0  0
   31.8930   28.4230   46.5690 C   0  0  0  0  0  0  0  0  0  0  0  0
   30.8560   28.5080   45.6560 C   0  0  0  0  0  0  0  0  0  0  0  0
   30.7220   29.6040   44.9110 N   0  0  0  0  0  0  0  0  0  0  0  0
   31.5990   30.6020   45.0660 C   0  0  0  0  0  0  0  0  0  0  0  0
   32.6070   30.5150   45.9550 N   0  0  0  0  0  0  0  0  0  0  0  0
   32.0060   27.5320   47.1780 H   0  0  0  0  0  0  0  0  0  0  0  0
   30.1670   27.6690   45.5670 H   0  0  0  0  0  0  0  0  0  0  0  0
   31.5830   31.8600   44.3250 C   0  0  0  0  0  0  0  0  0  0  0  0
   31.5810   33.0740   45.0080 C   0  0  0  0  0  0  0  0  0  0  0  0
   31.5890   33.2520   46.0630 H   0  0  0  0  0  0  0  0  0  0  0  0
   31.5650   34.1150   44.0710 C   0  0  0  0  0  0  0  0  0  0  0  0
   31.5590   35.1680   44.3160 H   0  0  0  0  0  0  0  0  0  0  0  0
   31.5580   33.4860   42.8590 N   0  0  0  0  0  0  0  0  0  0  0  0
   31.5460   34.0130   41.9590 H   0  0  0  0  0  0  0  0  0  0  0  0
   31.5700   32.1830   42.9990 N   0  0  0  0  0  0  0  0  0  0  0  0
  2  7  1  0  0  0  0
  2  1  1  0  0  0  0
  3  2  2  0  0  0  0
  4  5  2  0  0  0  0
  4  3  1  0  0  0  0
  5  6  1  0  0  0  0
  6  9  1  0  0  0  0
  6  7  2  0  0  0  0
  7 10  1  0  0  0  0
  8  4  1  0  0  0  0
 11 17  1  0  0  0  0
 12 18  1  0  0  0  0
 12 11  2  0  0  0  0
 13 14  2  0  0  0  0
 13 12  1  0  0  0  0
 14 15  1  0  0  0  0
 15  3  1  0  0  0  0
 15 16  2  0  0  0  0
 16 11  1  0  0  0  0
 19 13  1  0  0  0  0
 20  5  1  0  0  0  0
 21 20  1  0  0  0  0
 21 26  1  0  0  0  0
 22 21  2  0  0  0  0
 23 24  2  0  0  0  0
 23 22  1  0  0  0  0
 24 25  1  0  0  0  0
 25 20  2  0  0  0  0
 27 22  1  0  0  0  0
 28 29  1  0  0  0  0
 28 24  1  0  0  0  0
 29 30  1  0  0  0  0
 31 32  1  0  0  0  0
 31 29  2  0  0  0  0
 33 35  1  0  0  0  0
 33 31  1  0  0  0  0
 34 33  1  0  0  0  0
 35 28  2  0  0  0  0
M  END
>  <minimizedAffinity>
-6.39332676

>  <minimizedRMSD>
0.515721798

$$$$
