
 OpenBabel03272505393D

 30 32  0  0  0  0  0  0  0  0999 V2000
   37.0830   21.8800   33.7790 C   0  0  0  0  0  0  0  0  0  0  0  0
   36.3050   20.7540   33.9220 C   0  0  0  0  0  0  0  0  0  0  0  0
   35.3450   20.4400   32.9770 C   0  0  0  0  0  0  0  0  0  0  0  0
   35.1190   21.2330   31.8540 C   0  0  0  0  0  0  0  0  0  0  0  0
   35.8920   22.3590   31.7060 C   0  0  0  0  0  0  0  0  0  0  0  0
   36.8340   22.6420   32.6610 C   0  0  0  0  0  0  0  0  0  0  0  0
   36.4740   20.1330   34.7880 H   0  0  0  0  0  0  0  0  0  0  0  0
   34.7760   19.5350   33.1660 H   0  0  0  0  0  0  0  0  0  0  0  0
   34.3640   20.9410   31.1600 H   0  0  0  0  0  0  0  0  0  0  0  0
   35.7410   22.9970   30.8450 H   0  0  0  0  0  0  0  0  0  0  0  0
   38.6970   23.0320   36.8610 C   0  0  0  0  0  0  0  0  0  0  0  0
   40.0510   22.8170   36.5990 C   0  0  0  0  0  0  0  0  0  0  0  0
   40.4050   22.2690   35.3490 C   0  0  0  0  0  0  0  0  0  0  0  0
   39.3910   21.9880   34.4800 N   0  0  0  0  0  0  0  0  0  0  0  0
   38.0930   22.2120   34.7720 C   0  0  0  0  0  0  0  0  0  0  0  0
   37.7610   22.7250   35.9440 N   0  0  0  0  0  0  0  0  0  0  0  0
   40.8340   23.0450   37.2960 H   0  0  0  0  0  0  0  0  0  0  0  0
   41.4450   22.0870   35.1100 H   0  0  0  0  0  0  0  0  0  0  0  0
   38.3200   23.6160   38.1860 C   0  0  0  0  0  0  0  0  0  0  0  0
   38.0480   24.9690   38.0390 F   0  0  0  0  0  0  0  0  0  0  0  0
   37.2640   22.9050   38.6740 F   0  0  0  0  0  0  0  0  0  0  0  0
   39.4340   23.5180   39.0150 F   0  0  0  0  0  0  0  0  0  0  0  0
   37.6190   23.8540   32.4400 C   0  0  0  0  0  0  0  0  0  0  0  0
   38.7160   23.9340   31.5750 C   0  0  0  0  0  0  0  0  0  0  0  0
   39.1190   23.1320   30.9680 H   0  0  0  0  0  0  0  0  0  0  0  0
   39.1220   25.2590   31.7020 C   0  0  0  0  0  0  0  0  0  0  0  0
   39.9580   25.6880   31.1700 H   0  0  0  0  0  0  0  0  0  0  0  0
   38.3210   25.8880   32.5730 N   0  0  0  0  0  0  0  0  0  0  0  0
   38.3480   26.8950   32.9010 H   0  0  0  0  0  0  0  0  0  0  0  0
   37.3900   25.0470   33.0410 N   0  0  0  0  0  0  0  0  0  0  0  0
  1  2  1  0  0  0  0
  1 15  1  0  0  0  0
  2  7  1  0  0  0  0
  3  8  1  0  0  0  0
  3  2  2  0  0  0  0
  4  3  1  0  0  0  0
  5  4  2  0  0  0  0
  5  6  1  0  0  0  0
  6  1  2  0  0  0  0
  9  4  1  0  0  0  0
 10  5  1  0  0  0  0
 11 19  1  0  0  0  0
 12 11  1  0  0  0  0
 12 17  1  0  0  0  0
 13 12  2  0  0  0  0
 14 15  2  0  0  0  0
 14 13  1  0  0  0  0
 15 16  1  0  0  0  0
 16 11  2  0  0  0  0
 18 13  1  0  0  0  0
 19 21  1  0  0  0  0
 19 22  1  0  0  0  0
 20 19  1  0  0  0  0
 23  6  1  0  0  0  0
 23 30  2  0  0  0  0
 24 26  2  0  0  0  0
 24 23  1  0  0  0  0
 25 24  1  0  0  0  0
 26 28  1  0  0  0  0
 27 26  1  0  0  0  0
 28 29  1  0  0  0  0
 28 30  1  0  0  0  0
M  END
>  <minimizedAffinity>
-5.66266775

$$$$

 OpenBabel03272505393D

 30 32  0  0  0  0  0  0  0  0999 V2000
   37.8950   23.2170   33.6970 C   0  0  0  0  0  0  0  0  0  0  0  0
   37.4230   22.1480   32.9700 C   0  0  0  0  0  0  0  0  0  0  0  0
   36.7160   22.3540   31.8000 C   0  0  0  0  0  0  0  0  0  0  0  0
   36.4500   23.6280   31.3050 C   0  0  0  0  0  0  0  0  0  0  0  0
   36.9180   24.7000   32.0260 C   0  0  0  0  0  0  0  0  0  0  0  0
   37.6150   24.4620   33.1820 C   0  0  0  0  0  0  0  0  0  0  0  0
   37.6250   21.1570   33.3460 H   0  0  0  0  0  0  0  0  0  0  0  0
   36.3800   21.4560   31.2880 H   0  0  0  0  0  0  0  0  0  0  0  0
   35.8990   23.7240   30.3960 H   0  0  0  0  0  0  0  0  0  0  0  0
   36.7280   25.7040   31.6690 H   0  0  0  0  0  0  0  0  0  0  0  0
   38.8480   23.1970   37.2360 C   0  0  0  0  0  0  0  0  0  0  0  0
   40.0950   22.5690   37.2150 C   0  0  0  0  0  0  0  0  0  0  0  0
   40.6060   22.1510   35.9700 C   0  0  0  0  0  0  0  0  0  0  0  0
   39.8400   22.3930   34.8670 N   0  0  0  0  0  0  0  0  0  0  0  0
   38.6380   23.0030   34.9300 C   0  0  0  0  0  0  0  0  0  0  0  0
   38.1590   23.3950   36.0970 N   0  0  0  0  0  0  0  0  0  0  0  0
   40.6820   22.3890   38.0940 H   0  0  0  0  0  0  0  0  0  0  0  0
   41.5690   21.6600   35.9150 H   0  0  0  0  0  0  0  0  0  0  0  0
   38.3060   23.6440   38.5560 C   0  0  0  0  0  0  0  0  0  0  0  0
   37.8620   24.9550   38.4590 F   0  0  0  0  0  0  0  0  0  0  0  0
   37.3270   22.7700   38.9260 F   0  0  0  0  0  0  0  0  0  0  0  0
   39.3640   23.6450   39.4620 F   0  0  0  0  0  0  0  0  0  0  0  0
   38.0830   25.6460   33.8980 C   0  0  0  0  0  0  0  0  0  0  0  0
   37.2690   26.4530   34.7010 C   0  0  0  0  0  0  0  0  0  0  0  0
   36.2120   26.3120   34.8960 H   0  0  0  0  0  0  0  0  0  0  0  0
   38.1460   27.4320   35.1560 C   0  0  0  0  0  0  0  0  0  0  0  0
   37.8600   28.2410   35.8120 H   0  0  0  0  0  0  0  0  0  0  0  0
   39.3670   27.2050   34.6520 N   0  0  0  0  0  0  0  0  0  0  0  0
   40.2620   27.7540   34.7930 H   0  0  0  0  0  0  0  0  0  0  0  0
   39.3550   26.1140   33.8760 N   0  0  0  0  0  0  0  0  0  0  0  0
  1 15  1  0  0  0  0
  2  7  1  0  0  0  0
  2  1  2  0  0  0  0
  3  2  1  0  0  0  0
  4  3  2  0  0  0  0
  4  5  1  0  0  0  0
  5  6  2  0  0  0  0
  6  1  1  0  0  0  0
  6 23  1  0  0  0  0
  8  3  1  0  0  0  0
  9  4  1  0  0  0  0
 10  5  1  0  0  0  0
 11 19  1  0  0  0  0
 12 11  1  0  0  0  0
 12 17  1  0  0  0  0
 13 12  2  0  0  0  0
 14 15  2  0  0  0  0
 14 13  1  0  0  0  0
 15 16  1  0  0  0  0
 16 11  2  0  0  0  0
 18 13  1  0  0  0  0
 19 21  1  0  0  0  0
 19 22  1  0  0  0  0
 20 19  1  0  0  0  0
 23 24  1  0  0  0  0
 24 25  1  0  0  0  0
 24 26  2  0  0  0  0
 26 27  1  0  0  0  0
 28 29  1  0  0  0  0
 28 26  1  0  0  0  0
 30 23  2  0  0  0  0
 30 28  1  0  0  0  0
M  END
>  <minimizedAffinity>
-5.64262438

$$$$

 OpenBabel03272505393D

 30 32  0  0  0  0  0  0  0  0999 V2000
   40.5880   25.2890   34.6930 C   0  0  0  0  0  0  0  0  0  0  0  0
   41.9220   24.9520   34.6610 C   0  0  0  0  0  0  0  0  0  0  0  0
   42.8520   25.8210   34.1190 C   0  0  0  0  0  0  0  0  0  0  0  0
   42.4940   27.0570   33.5870 C   0  0  0  0  0  0  0  0  0  0  0  0
   41.1630   27.3990   33.6150 C   0  0  0  0  0  0  0  0  0  0  0  0
   40.2670   26.5160   34.1590 C   0  0  0  0  0  0  0  0  0  0  0  0
   42.2090   23.9970   35.0710 H   0  0  0  0  0  0  0  0  0  0  0  0
   43.8820   25.4780   34.1340 H   0  0  0  0  0  0  0  0  0  0  0  0
   43.2550   27.6850   33.1820 H   0  0  0  0  0  0  0  0  0  0  0  0
   40.8510   28.3530   33.2090 H   0  0  0  0  0  0  0  0  0  0  0  0
   38.3960   23.5650   37.0710 C   0  0  0  0  0  0  0  0  0  0  0  0
   37.7520   22.6210   36.2680 C   0  0  0  0  0  0  0  0  0  0  0  0
   38.0790   22.5840   34.8970 C   0  0  0  0  0  0  0  0  0  0  0  0
   39.0080   23.4790   34.4520 N   0  0  0  0  0  0  0  0  0  0  0  0
   39.6080   24.3760   35.2610 C   0  0  0  0  0  0  0  0  0  0  0  0
   39.3020   24.4110   36.5470 N   0  0  0  0  0  0  0  0  0  0  0  0
   37.0240   21.9270   36.6380 H   0  0  0  0  0  0  0  0  0  0  0  0
   37.6000   21.8670   34.2440 H   0  0  0  0  0  0  0  0  0  0  0  0
   38.0520   23.6040   38.5260 C   0  0  0  0  0  0  0  0  0  0  0  0
   37.5630   24.8610   38.8560 F   0  0  0  0  0  0  0  0  0  0  0  0
   37.1650   22.6000   38.7750 F   0  0  0  0  0  0  0  0  0  0  0  0
   39.2370   23.4340   39.2380 F   0  0  0  0  0  0  0  0  0  0  0  0
   38.8700   26.9430   34.1560 C   0  0  0  0  0  0  0  0  0  0  0  0
   38.2290   27.5440   35.2440 C   0  0  0  0  0  0  0  0  0  0  0  0
   38.6690   27.7670   36.2100 H   0  0  0  0  0  0  0  0  0  0  0  0
   36.9400   27.7630   34.7700 C   0  0  0  0  0  0  0  0  0  0  0  0
   36.1520   28.2200   35.3510 H   0  0  0  0  0  0  0  0  0  0  0  0
   36.8490   27.3220   33.5080 N   0  0  0  0  0  0  0  0  0  0  0  0
   36.0170   27.3340   32.8520 H   0  0  0  0  0  0  0  0  0  0  0  0
   38.0210   26.8140   33.1070 N   0  0  0  0  0  0  0  0  0  0  0  0
  1 15  1  0  0  0  0
  2  1  1  0  0  0  0
  2  7  1  0  0  0  0
  3  8  1  0  0  0  0
  3  2  2  0  0  0  0
  4  5  2  0  0  0  0
  4  3  1  0  0  0  0
  5  6  1  0  0  0  0
  6  1  2  0  0  0  0
  9  4  1  0  0  0  0
 10  5  1  0  0  0  0
 11 19  1  0  0  0  0
 12 17  1  0  0  0  0
 12 11  2  0  0  0  0
 13 12  1  0  0  0  0
 14 13  2  0  0  0  0
 14 15  1  0  0  0  0
 15 16  2  0  0  0  0
 16 11  1  0  0  0  0
 18 13  1  0  0  0  0
 19 21  1  0  0  0  0
 19 20  1  0  0  0  0
 19 22  1  0  0  0  0
 23  6  1  0  0  0  0
 23 24  1  0  0  0  0
 24 25  1  0  0  0  0
 26 24  2  0  0  0  0
 26 27  1  0  0  0  0
 28 26  1  0  0  0  0
 29 28  1  0  0  0  0
 30 28  1  0  0  0  0
 30 23  2  0  0  0  0
M  END
>  <minimizedAffinity>
-5.5882926

$$$$

 OpenBabel03272505393D

 30 32  0  0  0  0  0  0  0  0999 V2000
   38.0930   24.7590   34.3160 C   0  0  0  0  0  0  0  0  0  0  0  0
   37.6210   25.8210   33.5790 C   0  0  0  0  0  0  0  0  0  0  0  0
   37.6040   27.0950   34.1160 C   0  0  0  0  0  0  0  0  0  0  0  0
   38.0560   27.3650   35.4060 C   0  0  0  0  0  0  0  0  0  0  0  0
   38.5270   26.3090   36.1480 C   0  0  0  0  0  0  0  0  0  0  0  0
   38.5290   25.0590   35.5860 C   0  0  0  0  0  0  0  0  0  0  0  0
   37.2700   25.6220   32.5790 H   0  0  0  0  0  0  0  0  0  0  0  0
   37.2170   27.8760   33.4680 H   0  0  0  0  0  0  0  0  0  0  0  0
   38.0180   28.3680   35.7670 H   0  0  0  0  0  0  0  0  0  0  0  0
   38.8850   26.4850   37.1540 H   0  0  0  0  0  0  0  0  0  0  0  0
   37.0760   21.3810   33.3220 C   0  0  0  0  0  0  0  0  0  0  0  0
   38.2120   20.8970   32.6700 C   0  0  0  0  0  0  0  0  0  0  0  0
   39.3330   21.7460   32.5750 C   0  0  0  0  0  0  0  0  0  0  0  0
   39.2270   22.9880   33.1310 N   0  0  0  0  0  0  0  0  0  0  0  0
   38.1100   23.4180   33.7530 C   0  0  0  0  0  0  0  0  0  0  0  0
   37.0580   22.6220   33.8430 N   0  0  0  0  0  0  0  0  0  0  0  0
   38.2760   19.9170   32.2400 H   0  0  0  0  0  0  0  0  0  0  0  0
   40.2320   21.4060   32.0760 H   0  0  0  0  0  0  0  0  0  0  0  0
   35.8870   20.4810   33.4270 C   0  0  0  0  0  0  0  0  0  0  0  0
   34.7990   21.0680   32.7960 F   0  0  0  0  0  0  0  0  0  0  0  0
   36.2270   19.2710   32.8970 F   0  0  0  0  0  0  0  0  0  0  0  0
   35.5600   20.3780   34.7770 F   0  0  0  0  0  0  0  0  0  0  0  0
   39.0440   23.9830   36.4300 C   0  0  0  0  0  0  0  0  0  0  0  0
   40.3350   23.4530   36.3290 C   0  0  0  0  0  0  0  0  0  0  0  0
   41.1060   23.7600   35.6320 H   0  0  0  0  0  0  0  0  0  0  0  0
   40.3540   22.4760   37.3190 C   0  0  0  0  0  0  0  0  0  0  0  0
   41.2070   21.8500   37.5340 H   0  0  0  0  0  0  0  0  0  0  0  0
   39.1660   22.4480   37.9390 N   0  0  0  0  0  0  0  0  0  0  0  0
   38.8400   21.8280   38.7340 H   0  0  0  0  0  0  0  0  0  0  0  0
   38.3440   23.3640   37.4120 N   0  0  0  0  0  0  0  0  0  0  0  0
  1  6  1  0  0  0  0
  2  3  1  0  0  0  0
  2  1  2  0  0  0  0
  3  4  2  0  0  0  0
  4  9  1  0  0  0  0
  4  5  1  0  0  0  0
  5 10  1  0  0  0  0
  6  5  2  0  0  0  0
  6 23  1  0  0  0  0
  7  2  1  0  0  0  0
  8  3  1  0  0  0  0
 11 19  1  0  0  0  0
 11 16  1  0  0  0  0
 12 11  2  0  0  0  0
 13 12  1  0  0  0  0
 13 14  2  0  0  0  0
 14 15  1  0  0  0  0
 15 16  2  0  0  0  0
 15  1  1  0  0  0  0
 17 12  1  0  0  0  0
 18 13  1  0  0  0  0
 19 22  1  0  0  0  0
 20 19  1  0  0  0  0
 21 19  1  0  0  0  0
 23 30  2  0  0  0  0
 24 23  1  0  0  0  0
 24 26  2  0  0  0  0
 25 24  1  0  0  0  0
 26 27  1  0  0  0  0
 26 28  1  0  0  0  0
 28 29  1  0  0  0  0
 30 28  1  0  0  0  0
M  END
>  <minimizedAffinity>
-5.5756011

$$$$

 OpenBabel03272505393D

 30 32  0  0  0  0  0  0  0  0999 V2000
   37.0930   27.1000   33.8440 C   0  0  0  0  0  0  0  0  0  0  0  0
   36.7360   28.2290   34.5450 C   0  0  0  0  0  0  0  0  0  0  0  0
   35.8850   29.1630   33.9830 C   0  0  0  0  0  0  0  0  0  0  0  0
   35.3530   29.0120   32.7050 C   0  0  0  0  0  0  0  0  0  0  0  0
   35.7060   27.8860   32.0000 C   0  0  0  0  0  0  0  0  0  0  0  0
   36.5530   26.9810   32.5850 C   0  0  0  0  0  0  0  0  0  0  0  0
   37.1420   28.3540   35.5370 H   0  0  0  0  0  0  0  0  0  0  0  0
   35.6540   30.0240   34.6030 H   0  0  0  0  0  0  0  0  0  0  0  0
   34.7020   29.7650   32.3240 H   0  0  0  0  0  0  0  0  0  0  0  0
   35.3110   27.7390   31.0030 H   0  0  0  0  0  0  0  0  0  0  0  0
   38.4690   24.5080   36.0400 C   0  0  0  0  0  0  0  0  0  0  0  0
   39.7340   24.2800   35.4930 C   0  0  0  0  0  0  0  0  0  0  0  0
   40.1080   25.0280   34.3580 C   0  0  0  0  0  0  0  0  0  0  0  0
   39.2030   25.9270   33.8740 N   0  0  0  0  0  0  0  0  0  0  0  0
   37.9900   26.1170   34.4330 C   0  0  0  0  0  0  0  0  0  0  0  0
   37.6380   25.4160   35.4970 N   0  0  0  0  0  0  0  0  0  0  0  0
   40.4310   23.5690   35.8890 H   0  0  0  0  0  0  0  0  0  0  0  0
   41.0810   24.8780   33.9060 H   0  0  0  0  0  0  0  0  0  0  0  0
   38.0710   23.7180   37.2460 C   0  0  0  0  0  0  0  0  0  0  0  0
   37.7740   24.5810   38.2920 F   0  0  0  0  0  0  0  0  0  0  0  0
   37.0250   22.9160   36.8970 F   0  0  0  0  0  0  0  0  0  0  0  0
   39.1800   22.9750   37.6410 F   0  0  0  0  0  0  0  0  0  0  0  0
   36.8850   25.8080   31.7790 C   0  0  0  0  0  0  0  0  0  0  0  0
   36.2740   24.5580   31.9200 C   0  0  0  0  0  0  0  0  0  0  0  0
   35.4920   24.2970   32.6250 H   0  0  0  0  0  0  0  0  0  0  0  0
   36.9110   23.7840   30.9560 C   0  0  0  0  0  0  0  0  0  0  0  0
   36.6910   22.7430   30.7750 H   0  0  0  0  0  0  0  0  0  0  0  0
   37.8180   24.5330   30.3130 N   0  0  0  0  0  0  0  0  0  0  0  0
   38.4750   24.2610   29.5270 H   0  0  0  0  0  0  0  0  0  0  0  0
   37.8220   25.7800   30.8000 N   0  0  0  0  0  0  0  0  0  0  0  0
  1 15  1  0  0  0  0
  1  2  1  0  0  0  0
  2  7  1  0  0  0  0
  3  2  2  0  0  0  0
  3  8  1  0  0  0  0
  4  3  1  0  0  0  0
  5  6  1  0  0  0  0
  5  4  2  0  0  0  0
  6  1  2  0  0  0  0
  9  4  1  0  0  0  0
 10  5  1  0  0  0  0
 11 19  1  0  0  0  0
 12 17  1  0  0  0  0
 12 11  2  0  0  0  0
 13 12  1  0  0  0  0
 14 13  2  0  0  0  0
 14 15  1  0  0  0  0
 15 16  2  0  0  0  0
 16 11  1  0  0  0  0
 18 13  1  0  0  0  0
 19 22  1  0  0  0  0
 19 20  1  0  0  0  0
 21 19  1  0  0  0  0
 23 24  1  0  0  0  0
 23  6  1  0  0  0  0
 24 25  1  0  0  0  0
 26 24  2  0  0  0  0
 27 26  1  0  0  0  0
 28 30  1  0  0  0  0
 28 26  1  0  0  0  0
 29 28  1  0  0  0  0
 30 23  2  0  0  0  0
M  END
>  <minimizedAffinity>
-5.55774546

$$$$

 OpenBabel03272505393D

 30 32  0  0  0  0  0  0  0  0999 V2000
   37.0670   23.2730   32.4890 C   0  0  0  0  0  0  0  0  0  0  0  0
   36.1910   23.1890   31.4310 C   0  0  0  0  0  0  0  0  0  0  0  0
   35.5050   22.0150   31.1800 C   0  0  0  0  0  0  0  0  0  0  0  0
   35.6600   20.8790   31.9700 C   0  0  0  0  0  0  0  0  0  0  0  0
   36.5340   20.9560   33.0280 C   0  0  0  0  0  0  0  0  0  0  0  0
   37.1990   22.1330   33.2490 C   0  0  0  0  0  0  0  0  0  0  0  0
   36.0640   24.0650   30.8140 H   0  0  0  0  0  0  0  0  0  0  0  0
   34.8340   22.0350   30.3260 H   0  0  0  0  0  0  0  0  0  0  0  0
   35.1040   20.0020   31.7280 H   0  0  0  0  0  0  0  0  0  0  0  0
   36.6780   20.0890   33.6610 H   0  0  0  0  0  0  0  0  0  0  0  0
   38.3420   26.2800   34.1520 C   0  0  0  0  0  0  0  0  0  0  0  0
   39.1860   26.8320   33.1850 C   0  0  0  0  0  0  0  0  0  0  0  0
   39.3120   26.1580   31.9540 C   0  0  0  0  0  0  0  0  0  0  0  0
   38.5960   25.0070   31.7940 N   0  0  0  0  0  0  0  0  0  0  0  0
   37.7910   24.5070   32.7540 C   0  0  0  0  0  0  0  0  0  0  0  0
   37.6720   25.1380   33.9090 N   0  0  0  0  0  0  0  0  0  0  0  0
   39.7400   27.7380   33.3310 H   0  0  0  0  0  0  0  0  0  0  0  0
   39.9580   26.5550   31.1810 H   0  0  0  0  0  0  0  0  0  0  0  0
   38.2050   26.9950   35.4580 C   0  0  0  0  0  0  0  0  0  0  0  0
   39.4480   27.4480   35.8760 F   0  0  0  0  0  0  0  0  0  0  0  0
   37.2950   27.9980   35.2940 F   0  0  0  0  0  0  0  0  0  0  0  0
   37.7790   26.0630   36.4000 F   0  0  0  0  0  0  0  0  0  0  0  0
   38.1110   22.1440   34.3900 C   0  0  0  0  0  0  0  0  0  0  0  0
   39.5060   22.1190   34.2820 C   0  0  0  0  0  0  0  0  0  0  0  0
   40.0820   22.0900   33.3650 H   0  0  0  0  0  0  0  0  0  0  0  0
   39.9250   22.1420   35.6090 C   0  0  0  0  0  0  0  0  0  0  0  0
   40.9610   22.1320   35.9140 H   0  0  0  0  0  0  0  0  0  0  0  0
   38.8540   22.1760   36.4130 N   0  0  0  0  0  0  0  0  0  0  0  0
   38.8130   22.2000   37.4720 H   0  0  0  0  0  0  0  0  0  0  0  0
   37.7280   22.1780   35.6900 N   0  0  0  0  0  0  0  0  0  0  0  0
  1 15  1  0  0  0  0
  1  6  1  0  0  0  0
  2  1  2  0  0  0  0
  3  2  1  0  0  0  0
  3  4  2  0  0  0  0
  4  5  1  0  0  0  0
  5  6  2  0  0  0  0
  5 10  1  0  0  0  0
  6 23  1  0  0  0  0
  7  2  1  0  0  0  0
  8  3  1  0  0  0  0
  9  4  1  0  0  0  0
 11 19  1  0  0  0  0
 12 17  1  0  0  0  0
 12 11  2  0  0  0  0
 13 12  1  0  0  0  0
 14 13  2  0  0  0  0
 14 15  1  0  0  0  0
 15 16  2  0  0  0  0
 16 11  1  0  0  0  0
 18 13  1  0  0  0  0
 19 20  1  0  0  0  0
 19 22  1  0  0  0  0
 21 19  1  0  0  0  0
 23 30  2  0  0  0  0
 24 23  1  0  0  0  0
 24 26  2  0  0  0  0
 25 24  1  0  0  0  0
 26 27  1  0  0  0  0
 26 28  1  0  0  0  0
 28 29  1  0  0  0  0
 30 28  1  0  0  0  0
M  END
>  <minimizedAffinity>
-5.37950659

$$$$

 OpenBabel03272505393D

 30 32  0  0  0  0  0  0  0  0999 V2000
   38.1020   23.2370   34.3430 C   0  0  0  0  0  0  0  0  0  0  0  0
   37.6170   22.1670   33.6250 C   0  0  0  0  0  0  0  0  0  0  0  0
   36.9700   22.3680   32.4200 C   0  0  0  0  0  0  0  0  0  0  0  0
   36.7780   23.6370   31.8790 C   0  0  0  0  0  0  0  0  0  0  0  0
   37.2590   24.7090   32.5910 C   0  0  0  0  0  0  0  0  0  0  0  0
   37.8950   24.4770   33.7830 C   0  0  0  0  0  0  0  0  0  0  0  0
   37.7620   21.1800   34.0360 H   0  0  0  0  0  0  0  0  0  0  0  0
   36.6190   21.4700   31.9180 H   0  0  0  0  0  0  0  0  0  0  0  0
   36.2710   23.7290   30.9460 H   0  0  0  0  0  0  0  0  0  0  0  0
   37.1260   25.7090   32.1990 H   0  0  0  0  0  0  0  0  0  0  0  0
   40.6100   22.2870   36.8400 C   0  0  0  0  0  0  0  0  0  0  0  0
   40.0070   22.6640   38.0420 C   0  0  0  0  0  0  0  0  0  0  0  0
   38.7260   23.2500   37.9840 C   0  0  0  0  0  0  0  0  0  0  0  0
   38.1650   23.4070   36.7500 N   0  0  0  0  0  0  0  0  0  0  0  0
   38.7820   23.0290   35.6120 C   0  0  0  0  0  0  0  0  0  0  0  0
   39.9830   22.4790   35.6650 N   0  0  0  0  0  0  0  0  0  0  0  0
   40.4650   22.5310   39.0020 H   0  0  0  0  0  0  0  0  0  0  0  0
   38.2270   23.5550   38.8950 H   0  0  0  0  0  0  0  0  0  0  0  0
   41.9680   21.6620   36.8990 C   0  0  0  0  0  0  0  0  0  0  0  0
   42.9390   22.6530   36.8840 F   0  0  0  0  0  0  0  0  0  0  0  0
   42.0210   20.8750   38.0110 F   0  0  0  0  0  0  0  0  0  0  0  0
   42.1350   20.9190   35.7330 F   0  0  0  0  0  0  0  0  0  0  0  0
   38.3810   25.6620   34.4860 C   0  0  0  0  0  0  0  0  0  0  0  0
   37.5670   26.5280   35.2230 C   0  0  0  0  0  0  0  0  0  0  0  0
   36.4960   26.4410   35.3680 H   0  0  0  0  0  0  0  0  0  0  0  0
   38.4630   27.4820   35.6920 C   0  0  0  0  0  0  0  0  0  0  0  0
   38.1830   28.3230   36.3100 H   0  0  0  0  0  0  0  0  0  0  0  0
   39.6960   27.1860   35.2580 N   0  0  0  0  0  0  0  0  0  0  0  0
   40.6080   27.6980   35.4280 H   0  0  0  0  0  0  0  0  0  0  0  0
   39.6730   26.0720   34.5150 N   0  0  0  0  0  0  0  0  0  0  0  0
  1 15  1  0  0  0  0
  2  7  1  0  0  0  0
  2  1  2  0  0  0  0
  3  2  1  0  0  0  0
  4  3  2  0  0  0  0
  4  5  1  0  0  0  0
  5  6  2  0  0  0  0
  6  1  1  0  0  0  0
  6 23  1  0  0  0  0
  8  3  1  0  0  0  0
  9  4  1  0  0  0  0
 10  5  1  0  0  0  0
 11 19  1  0  0  0  0
 11 12  1  0  0  0  0
 12 17  1  0  0  0  0
 13 12  2  0  0  0  0
 13 18  1  0  0  0  0
 14 13  1  0  0  0  0
 15 16  1  0  0  0  0
 15 14  2  0  0  0  0
 16 11  2  0  0  0  0
 19 21  1  0  0  0  0
 20 19  1  0  0  0  0
 22 19  1  0  0  0  0
 23 30  2  0  0  0  0
 23 24  1  0  0  0  0
 24 25  1  0  0  0  0
 24 26  2  0  0  0  0
 26 27  1  0  0  0  0
 28 29  1  0  0  0  0
 28 26  1  0  0  0  0
 30 28  1  0  0  0  0
M  END
>  <minimizedAffinity>
-5.36818123

$$$$

 OpenBabel03272505393D

 30 32  0  0  0  0  0  0  0  0999 V2000
   37.8730   22.4770   34.0870 C   0  0  0  0  0  0  0  0  0  0  0  0
   37.1350   22.0340   33.0130 C   0  0  0  0  0  0  0  0  0  0  0  0
   36.0770   21.1650   33.2000 C   0  0  0  0  0  0  0  0  0  0  0  0
   35.7090   20.7010   34.4610 C   0  0  0  0  0  0  0  0  0  0  0  0
   36.4420   21.1380   35.5370 C   0  0  0  0  0  0  0  0  0  0  0  0
   37.4860   21.9990   35.3170 C   0  0  0  0  0  0  0  0  0  0  0  0
   37.4130   22.3890   32.0320 H   0  0  0  0  0  0  0  0  0  0  0  0
   35.5470   20.8650   32.3000 H   0  0  0  0  0  0  0  0  0  0  0  0
   34.8830   20.0310   34.5440 H   0  0  0  0  0  0  0  0  0  0  0  0
   36.1830   20.7950   36.5310 H   0  0  0  0  0  0  0  0  0  0  0  0
   39.8920   25.5320   33.9260 C   0  0  0  0  0  0  0  0  0  0  0  0
   41.1350   25.0580   33.5000 C   0  0  0  0  0  0  0  0  0  0  0  0
   41.2720   23.6740   33.2700 C   0  0  0  0  0  0  0  0  0  0  0  0
   40.1730   22.8930   33.4800 N   0  0  0  0  0  0  0  0  0  0  0  0
   38.9890   23.3910   33.8910 C   0  0  0  0  0  0  0  0  0  0  0  0
   38.8590   24.6880   34.1080 N   0  0  0  0  0  0  0  0  0  0  0  0
   41.9870   25.6890   33.3410 H   0  0  0  0  0  0  0  0  0  0  0  0
   42.2210   23.2700   32.9400 H   0  0  0  0  0  0  0  0  0  0  0  0
   39.7430   27.0000   34.1680 C   0  0  0  0  0  0  0  0  0  0  0  0
   40.8550   27.6690   33.6770 F   0  0  0  0  0  0  0  0  0  0  0  0
   38.5750   27.4050   33.5940 F   0  0  0  0  0  0  0  0  0  0  0  0
   39.7340   27.1950   35.5470 F   0  0  0  0  0  0  0  0  0  0  0  0
   38.2220   22.4230   36.5060 C   0  0  0  0  0  0  0  0  0  0  0  0
   37.7280   23.3220   37.4580 C   0  0  0  0  0  0  0  0  0  0  0  0
   36.7600   23.8100   37.4440 H   0  0  0  0  0  0  0  0  0  0  0  0
   38.7670   23.4090   38.3790 C   0  0  0  0  0  0  0  0  0  0  0  0
   38.7370   24.0250   39.2660 H   0  0  0  0  0  0  0  0  0  0  0  0
   39.7780   22.6230   37.9840 N   0  0  0  0  0  0  0  0  0  0  0  0
   40.7150   22.4550   38.4490 H   0  0  0  0  0  0  0  0  0  0  0  0
   39.4680   22.0070   36.8370 N   0  0  0  0  0  0  0  0  0  0  0  0
  1  6  1  0  0  0  0
  2  3  1  0  0  0  0
  2  1  2  0  0  0  0
  3  4  2  0  0  0  0
  4  9  1  0  0  0  0
  4  5  1  0  0  0  0
  5 10  1  0  0  0  0
  6  5  2  0  0  0  0
  6 23  1  0  0  0  0
  7  2  1  0  0  0  0
  8  3  1  0  0  0  0
 11 16  1  0  0  0  0
 11 19  1  0  0  0  0
 12 11  2  0  0  0  0
 13 14  2  0  0  0  0
 13 12  1  0  0  0  0
 14 15  1  0  0  0  0
 15  1  1  0  0  0  0
 15 16  2  0  0  0  0
 17 12  1  0  0  0  0
 18 13  1  0  0  0  0
 19 22  1  0  0  0  0
 20 19  1  0  0  0  0
 21 19  1  0  0  0  0
 23 30  2  0  0  0  0
 23 24  1  0  0  0  0
 24 26  2  0  0  0  0
 25 24  1  0  0  0  0
 26 27  1  0  0  0  0
 28 26  1  0  0  0  0
 28 29  1  0  0  0  0
 30 28  1  0  0  0  0
M  END
>  <minimizedAffinity>
-5.3574419

$$$$

 OpenBabel03272505393D

 30 32  0  0  0  0  0  0  0  0999 V2000
   37.1690   21.8860   34.5690 C   0  0  0  0  0  0  0  0  0  0  0  0
   36.2880   20.8330   34.6750 C   0  0  0  0  0  0  0  0  0  0  0  0
   35.5220   20.4500   33.5890 C   0  0  0  0  0  0  0  0  0  0  0  0
   35.5990   21.0950   32.3580 C   0  0  0  0  0  0  0  0  0  0  0  0
   36.4760   22.1470   32.2460 C   0  0  0  0  0  0  0  0  0  0  0  0
   37.2210   22.5030   33.3410 C   0  0  0  0  0  0  0  0  0  0  0  0
   36.2220   20.3270   35.6250 H   0  0  0  0  0  0  0  0  0  0  0  0
   34.8530   19.6110   33.7580 H   0  0  0  0  0  0  0  0  0  0  0  0
   34.9830   20.7550   31.5570 H   0  0  0  0  0  0  0  0  0  0  0  0
   36.5600   22.6710   31.3030 H   0  0  0  0  0  0  0  0  0  0  0  0
   39.9940   22.3280   36.8630 C   0  0  0  0  0  0  0  0  0  0  0  0
   39.4380   23.0900   37.8920 C   0  0  0  0  0  0  0  0  0  0  0  0
   38.0790   23.4520   37.7890 C   0  0  0  0  0  0  0  0  0  0  0  0
   37.4010   23.0280   36.6840 N   0  0  0  0  0  0  0  0  0  0  0  0
   37.9760   22.2920   35.7100 C   0  0  0  0  0  0  0  0  0  0  0  0
   39.2490   21.9520   35.8060 N   0  0  0  0  0  0  0  0  0  0  0  0
   39.9890   23.4140   38.7540 H   0  0  0  0  0  0  0  0  0  0  0  0
   37.6150   24.0440   38.5680 H   0  0  0  0  0  0  0  0  0  0  0  0
   41.4340   21.9400   36.9720 C   0  0  0  0  0  0  0  0  0  0  0  0
   42.2210   23.0810   37.0350 F   0  0  0  0  0  0  0  0  0  0  0  0
   41.5710   21.1320   38.0610 F   0  0  0  0  0  0  0  0  0  0  0  0
   41.7770   21.2800   35.7940 F   0  0  0  0  0  0  0  0  0  0  0  0
   38.1320   23.6290   33.1520 C   0  0  0  0  0  0  0  0  0  0  0  0
   39.4010   23.5250   32.5720 C   0  0  0  0  0  0  0  0  0  0  0  0
   39.8670   22.6220   32.1950 H   0  0  0  0  0  0  0  0  0  0  0  0
   39.8740   24.8330   32.6110 C   0  0  0  0  0  0  0  0  0  0  0  0
   40.8430   25.1360   32.2410 H   0  0  0  0  0  0  0  0  0  0  0  0
   38.9490   25.6240   33.1700 N   0  0  0  0  0  0  0  0  0  0  0  0
   38.9820   26.6670   33.3540 H   0  0  0  0  0  0  0  0  0  0  0  0
   37.8690   24.9090   33.5110 N   0  0  0  0  0  0  0  0  0  0  0  0
  1  2  1  0  0  0  0
  1 15  1  0  0  0  0
  2  7  1  0  0  0  0
  3  8  1  0  0  0  0
  3  2  2  0  0  0  0
  4  3  1  0  0  0  0
  5  4  2  0  0  0  0
  5  6  1  0  0  0  0
  6  1  2  0  0  0  0
  9  4  1  0  0  0  0
 10  5  1  0  0  0  0
 11 19  1  0  0  0  0
 11 12  1  0  0  0  0
 12 17  1  0  0  0  0
 13 12  2  0  0  0  0
 13 18  1  0  0  0  0
 14 13  1  0  0  0  0
 15 16  1  0  0  0  0
 15 14  2  0  0  0  0
 16 11  2  0  0  0  0
 19 20  1  0  0  0  0
 19 21  1  0  0  0  0
 22 19  1  0  0  0  0
 23  6  1  0  0  0  0
 23 30  2  0  0  0  0
 24 26  2  0  0  0  0
 24 23  1  0  0  0  0
 25 24  1  0  0  0  0
 26 28  1  0  0  0  0
 27 26  1  0  0  0  0
 28 29  1  0  0  0  0
 28 30  1  0  0  0  0
M  END
>  <minimizedAffinity>
-5.27058029

$$$$
