
 OpenBabel03272506133D

 43 46  0  0  1  0  0  0  0  0999 V2000
   38.3300   25.5650   33.3340 C   0  0  1  0  0  0  0  0  0  0  0  0
   39.0730   26.9100   32.9370 C   0  0  0  0  0  0  0  0  0  0  0  0
   40.3830   27.0390   33.7100 C   0  0  0  0  0  0  0  0  0  0  0  0
   40.1790   26.7040   35.1550 C   0  0  0  0  0  0  0  0  0  0  0  0
   38.7280   26.8400   35.4640 C   0  0  0  0  0  0  0  0  0  0  0  0
   37.9840   25.7080   34.7820 C   0  0  2  0  0  0  0  0  0  0  0  0
   39.1950   24.9890   33.3640 H   0  0  0  0  0  0  0  0  0  0  0  0
   38.4140   27.7420   33.1410 H   0  0  0  0  0  0  0  0  0  0  0  0
   39.2750   26.8260   31.8720 H   0  0  0  0  0  0  0  0  0  0  0  0
   41.2060   26.5080   33.2150 H   0  0  0  0  0  0  0  0  0  0  0  0
   40.6370   28.1170   33.6620 H   0  0  0  0  0  0  0  0  0  0  0  0
   40.8160   27.3560   35.8160 H   0  0  0  0  0  0  0  0  0  0  0  0
   40.5660   25.6930   35.3070 H   0  0  0  0  0  0  0  0  0  0  0  0
   38.6160   26.6430   36.5580 H   0  0  0  0  0  0  0  0  0  0  0  0
   38.3260   27.8050   35.1750 H   0  0  0  0  0  0  0  0  0  0  0  0
   36.9320   25.8960   35.0340 H   0  0  0  0  0  0  0  0  0  0  0  0
   36.8550   24.2580   31.8640 C   0  0  0  0  0  0  0  0  0  0  0  0
   35.7230   24.2420   31.0720 C   0  0  0  0  0  0  0  0  0  0  0  0
   34.9300   25.3270   30.8070 C   0  0  0  0  0  0  0  0  0  0  0  0
   35.2730   26.5560   31.3660 C   0  0  0  0  0  0  0  0  0  0  0  0
   36.4140   26.5790   32.1620 C   0  0  0  0  0  0  0  0  0  0  0  0
   37.2160   25.4750   32.4310 C   0  0  0  0  0  0  0  0  0  0  0  0
   35.3660   23.3160   30.5880 H   0  0  0  0  0  0  0  0  0  0  0  0
   34.0540   25.2360   30.1800 H   0  0  0  0  0  0  0  0  0  0  0  0
   34.6370   27.3940   31.1470 H   0  0  0  0  0  0  0  0  0  0  0  0
   36.5650   27.5920   32.5120 H   0  0  0  0  0  0  0  0  0  0  0  0
   36.8770   21.9730   32.7210 C   0  0  0  0  0  0  0  0  0  0  0  0
   37.5430   23.0180   31.9870 C   0  0  0  0  0  0  0  0  0  0  0  0
   38.7840   22.7300   31.4410 C   0  0  0  0  0  0  0  0  0  0  0  0
   39.3230   21.4970   31.6020 N   0  0  0  0  0  0  0  0  0  0  0  0
   38.6740   20.5140   32.3020 C   0  0  0  0  0  0  0  0  0  0  0  0
   37.4640   20.7660   32.8510 N   0  0  0  0  0  0  0  0  0  0  0  0
   35.9170   22.0510   33.1960 H   0  0  0  0  0  0  0  0  0  0  0  0
   39.4820   23.3260   30.9440 H   0  0  0  0  0  0  0  0  0  0  0  0
   39.0780   19.5170   32.4480 H   0  0  0  0  0  0  0  0  0  0  0  0
   38.2520   24.4090   35.5290 C   0  0  0  0  0  0  0  0  0  0  0  0
   39.1210   23.4020   35.1250 C   0  0  0  0  0  0  0  0  0  0  0  0
   39.7370   23.3800   34.2310 H   0  0  0  0  0  0  0  0  0  0  0  0
   39.1130   22.3700   36.0490 C   0  0  0  0  0  0  0  0  0  0  0  0
   39.6980   21.4650   35.9800 H   0  0  0  0  0  0  0  0  0  0  0  0
   38.2390   22.7830   36.9840 N   0  0  0  0  0  0  0  0  0  0  0  0
   38.0180   22.1990   37.8260 H   0  0  0  0  0  0  0  0  0  0  0  0
   37.7480   23.9610   36.6730 N   0  0  0  0  0  0  0  0  0  0  0  0
  1  7  1  6  0  0  0
  1  6  1  0  0  0  0
  2  8  1  0  0  0  0
  2  1  1  0  0  0  0
  2  3  1  0  0  0  0
  3  4  1  0  0  0  0
  4 13  1  0  0  0  0
  4  5  1  0  0  0  0
  4 12  1  0  0  0  0
  5 14  1  0  0  0  0
  6 16  1  1  0  0  0
  6  5  1  0  0  0  0
  6 36  1  0  0  0  0
  9  2  1  0  0  0  0
 10  3  1  0  0  0  0
 11  3  1  0  0  0  0
 15  5  1  0  0  0  0
 17 28  1  0  0  0  0
 17 22  1  0  0  0  0
 18 17  2  0  0  0  0
 19 18  1  0  0  0  0
 19 20  2  0  0  0  0
 20 21  1  0  0  0  0
 21 22  2  0  0  0  0
 21 26  1  0  0  0  0
 22  1  1  0  0  0  0
 23 18  1  0  0  0  0
 24 19  1  0  0  0  0
 25 20  1  0  0  0  0
 27 32  1  0  0  0  0
 27 33  1  0  0  0  0
 28 27  2  0  0  0  0
 29 30  2  0  0  0  0
 29 28  1  0  0  0  0
 30 31  1  0  0  0  0
 31 35  1  0  0  0  0
 31 32  2  0  0  0  0
 34 29  1  0  0  0  0
 36 43  2  0  0  0  0
 37 36  1  0  0  0  0
 37 39  2  0  0  0  0
 38 37  1  0  0  0  0
 39 41  1  0  0  0  0
 40 39  1  0  0  0  0
 41 42  1  0  0  0  0
 43 41  1  0  0  0  0
M  END
>  <minimizedAffinity>
-5.73906374

$$$$

 OpenBabel03272506133D

 43 46  0  0  1  0  0  0  0  0999 V2000
   39.4210   24.7330   34.6890 C   0  0  1  0  0  0  0  0  0  0  0  0
   38.0970   24.4420   33.8630 C   0  0  0  0  0  0  0  0  0  0  0  0
   38.3060   24.7850   32.3900 C   0  0  0  0  0  0  0  0  0  0  0  0
   38.9910   26.1090   32.2490 C   0  0  0  0  0  0  0  0  0  0  0  0
   38.8020   26.8690   33.5170 C   0  0  0  0  0  0  0  0  0  0  0  0
   39.6350   26.2110   34.6000 C   0  0  2  0  0  0  0  0  0  0  0  0
   40.0650   24.3670   33.9610 H   0  0  0  0  0  0  0  0  0  0  0  0
   37.2890   25.0190   34.2900 H   0  0  0  0  0  0  0  0  0  0  0  0
   37.9140   23.3760   33.9750 H   0  0  0  0  0  0  0  0  0  0  0  0
   38.7630   23.9570   31.8360 H   0  0  0  0  0  0  0  0  0  0  0  0
   37.2840   24.9070   31.9780 H   0  0  0  0  0  0  0  0  0  0  0  0
   38.6030   26.6730   31.3550 H   0  0  0  0  0  0  0  0  0  0  0  0
   40.0390   25.9040   32.0140 H   0  0  0  0  0  0  0  0  0  0  0  0
   39.2710   27.8710   33.3590 H   0  0  0  0  0  0  0  0  0  0  0  0
   37.7600   26.9420   33.8110 H   0  0  0  0  0  0  0  0  0  0  0  0
   39.4190   26.8080   35.4950 H   0  0  0  0  0  0  0  0  0  0  0  0
   39.9700   23.2340   36.5590 C   0  0  0  0  0  0  0  0  0  0  0  0
   39.6990   22.8530   37.8590 C   0  0  0  0  0  0  0  0  0  0  0  0
   38.7020   23.3690   38.6420 C   0  0  0  0  0  0  0  0  0  0  0  0
   37.8780   24.3570   38.1060 C   0  0  0  0  0  0  0  0  0  0  0  0
   38.1420   24.7430   36.7960 C   0  0  0  0  0  0  0  0  0  0  0  0
   39.1580   24.2190   36.0040 C   0  0  0  0  0  0  0  0  0  0  0  0
   40.2980   22.0810   38.3740 H   0  0  0  0  0  0  0  0  0  0  0  0
   38.5530   23.0230   39.6550 H   0  0  0  0  0  0  0  0  0  0  0  0
   37.1020   24.7500   38.7380 H   0  0  0  0  0  0  0  0  0  0  0  0
   37.4220   25.4990   36.5120 H   0  0  0  0  0  0  0  0  0  0  0  0
   42.3180   22.5700   36.5900 C   0  0  0  0  0  0  0  0  0  0  0  0
   41.0420   22.5490   35.9210 C   0  0  0  0  0  0  0  0  0  0  0  0
   40.9520   21.8470   34.7300 C   0  0  0  0  0  0  0  0  0  0  0  0
   42.0400   21.2070   34.2390 N   0  0  0  0  0  0  0  0  0  0  0  0
   43.2470   21.2370   34.8890 C   0  0  0  0  0  0  0  0  0  0  0  0
   43.3670   21.9180   36.0520 N   0  0  0  0  0  0  0  0  0  0  0  0
   42.5350   23.0700   37.5150 H   0  0  0  0  0  0  0  0  0  0  0  0
   40.1780   21.7480   34.0360 H   0  0  0  0  0  0  0  0  0  0  0  0
   44.1370   20.7350   34.5220 H   0  0  0  0  0  0  0  0  0  0  0  0
   41.1050   26.5270   34.3650 C   0  0  0  0  0  0  0  0  0  0  0  0
   42.1760   25.6950   34.6720 C   0  0  0  0  0  0  0  0  0  0  0  0
   42.1370   24.7060   35.1190 H   0  0  0  0  0  0  0  0  0  0  0  0
   43.3670   26.3070   34.3200 C   0  0  0  0  0  0  0  0  0  0  0  0
   44.3510   25.8810   34.4490 H   0  0  0  0  0  0  0  0  0  0  0  0
   42.9830   27.4900   33.8120 N   0  0  0  0  0  0  0  0  0  0  0  0
   43.6790   28.1880   33.4530 H   0  0  0  0  0  0  0  0  0  0  0  0
   41.6740   27.6070   33.8430 N   0  0  0  0  0  0  0  0  0  0  0  0
  1  7  1  6  0  0  0
  1 22  1  0  0  0  0
  2  9  1  0  0  0  0
  2  8  1  0  0  0  0
  2  1  1  0  0  0  0
  3  2  1  0  0  0  0
  4  3  1  0  0  0  0
  4  5  1  0  0  0  0
  5 15  1  0  0  0  0
  5  6  1  0  0  0  0
  6  1  1  0  0  0  0
  6 16  1  1  0  0  0
 10  3  1  0  0  0  0
 11  3  1  0  0  0  0
 12  4  1  0  0  0  0
 13  4  1  0  0  0  0
 14  5  1  0  0  0  0
 17 18  1  0  0  0  0
 18 23  1  0  0  0  0
 18 19  2  0  0  0  0
 19 24  1  0  0  0  0
 20 19  1  0  0  0  0
 20 25  1  0  0  0  0
 21 20  2  0  0  0  0
 22 17  2  0  0  0  0
 22 21  1  0  0  0  0
 26 21  1  0  0  0  0
 27 33  1  0  0  0  0
 28 17  1  0  0  0  0
 28 27  2  0  0  0  0
 29 28  1  0  0  0  0
 30 29  2  0  0  0  0
 30 31  1  0  0  0  0
 31 32  2  0  0  0  0
 32 27  1  0  0  0  0
 34 29  1  0  0  0  0
 35 31  1  0  0  0  0
 36  6  1  0  0  0  0
 36 37  1  0  0  0  0
 37 38  1  0  0  0  0
 39 40  1  0  0  0  0
 39 37  2  0  0  0  0
 41 43  1  0  0  0  0
 41 39  1  0  0  0  0
 42 41  1  0  0  0  0
 43 36  2  0  0  0  0
M  END
>  <minimizedAffinity>
-5.65420866

$$$$

 OpenBabel03272506133D

 43 46  0  0  1  0  0  0  0  0999 V2000
   38.2680   23.5770   33.2080 C   0  0  1  0  0  0  0  0  0  0  0  0
   39.5300   23.5520   32.2460 C   0  0  0  0  0  0  0  0  0  0  0  0
   40.7090   22.8730   32.9370 C   0  0  0  0  0  0  0  0  0  0  0  0
   40.8580   23.3720   34.3410 C   0  0  0  0  0  0  0  0  0  0  0  0
   40.1560   24.6820   34.4460 C   0  0  0  0  0  0  0  0  0  0  0  0
   38.6620   24.4350   34.3690 C   0  0  2  0  0  0  0  0  0  0  0  0
   38.4160   22.6160   33.5760 H   0  0  0  0  0  0  0  0  0  0  0  0
   39.7720   24.5680   31.9670 H   0  0  0  0  0  0  0  0  0  0  0  0
   39.2220   22.9740   31.3790 H   0  0  0  0  0  0  0  0  0  0  0  0
   40.6770   21.7820   32.8260 H   0  0  0  0  0  0  0  0  0  0  0  0
   41.6040   23.2150   32.3780 H   0  0  0  0  0  0  0  0  0  0  0  0
   41.9430   23.4470   34.6320 H   0  0  0  0  0  0  0  0  0  0  0  0
   40.4470   22.6020   35.0000 H   0  0  0  0  0  0  0  0  0  0  0  0
   40.3350   25.0560   35.4840 H   0  0  0  0  0  0  0  0  0  0  0  0
   40.4780   25.3920   33.6910 H   0  0  0  0  0  0  0  0  0  0  0  0
   38.2260   25.4410   34.4240 H   0  0  0  0  0  0  0  0  0  0  0  0
   36.2030   23.2250   31.9210 C   0  0  0  0  0  0  0  0  0  0  0  0
   35.1610   23.8000   31.2190 C   0  0  0  0  0  0  0  0  0  0  0  0
   35.0250   25.1380   30.9590 C   0  0  0  0  0  0  0  0  0  0  0  0
   36.0060   26.0090   31.4280 C   0  0  0  0  0  0  0  0  0  0  0  0
   37.0600   25.4370   32.1330 C   0  0  0  0  0  0  0  0  0  0  0  0
   37.1930   24.0780   32.3970 C   0  0  0  0  0  0  0  0  0  0  0  0
   34.3330   23.1940   30.8110 H   0  0  0  0  0  0  0  0  0  0  0  0
   34.1780   25.5140   30.4050 H   0  0  0  0  0  0  0  0  0  0  0  0
   35.8810   27.0550   31.2150 H   0  0  0  0  0  0  0  0  0  0  0  0
   37.7460   26.2240   32.4190 H   0  0  0  0  0  0  0  0  0  0  0  0
   36.7900   21.0350   31.0190 C   0  0  0  0  0  0  0  0  0  0  0  0
   36.1550   21.8100   32.0550 C   0  0  0  0  0  0  0  0  0  0  0  0
   35.5740   21.1210   33.1070 C   0  0  0  0  0  0  0  0  0  0  0  0
   35.6220   19.7670   33.1380 N   0  0  0  0  0  0  0  0  0  0  0  0
   36.2310   19.0460   32.1440 C   0  0  0  0  0  0  0  0  0  0  0  0
   36.8040   19.6900   31.1010 N   0  0  0  0  0  0  0  0  0  0  0  0
   37.2790   21.4300   30.1480 H   0  0  0  0  0  0  0  0  0  0  0  0
   35.0020   21.4420   33.9200 H   0  0  0  0  0  0  0  0  0  0  0  0
   36.2860   17.9620   32.1390 H   0  0  0  0  0  0  0  0  0  0  0  0
   38.1860   23.8190   35.6760 C   0  0  0  0  0  0  0  0  0  0  0  0
   38.1850   24.4430   36.9180 C   0  0  0  0  0  0  0  0  0  0  0  0
   38.5180   25.4500   37.1510 H   0  0  0  0  0  0  0  0  0  0  0  0
   37.6810   23.5850   37.8810 C   0  0  0  0  0  0  0  0  0  0  0  0
   37.5700   23.8160   38.9290 H   0  0  0  0  0  0  0  0  0  0  0  0
   37.3920   22.4660   37.1930 N   0  0  0  0  0  0  0  0  0  0  0  0
   36.9870   21.6210   37.6620 H   0  0  0  0  0  0  0  0  0  0  0  0
   37.6870   22.6130   35.9210 N   0  0  0  0  0  0  0  0  0  0  0  0
  1  7  1  1  0  0  0
  1  6  1  0  0  0  0
  2  3  1  0  0  0  0
  2  1  1  0  0  0  0
  3  4  1  0  0  0  0
  4  5  1  0  0  0  0
  4 12  1  0  0  0  0
  4 13  1  0  0  0  0
  5 14  1  0  0  0  0
  6 16  1  6  0  0  0
  6  5  1  0  0  0  0
  6 36  1  0  0  0  0
  8  2  1  0  0  0  0
  9  2  1  0  0  0  0
 10  3  1  0  0  0  0
 11  3  1  0  0  0  0
 15  5  1  0  0  0  0
 17 28  1  0  0  0  0
 17 22  1  0  0  0  0
 18 17  2  0  0  0  0
 19 18  1  0  0  0  0
 19 20  2  0  0  0  0
 20 21  1  0  0  0  0
 21 22  2  0  0  0  0
 21 26  1  0  0  0  0
 22  1  1  0  0  0  0
 23 18  1  0  0  0  0
 24 19  1  0  0  0  0
 25 20  1  0  0  0  0
 27 32  2  0  0  0  0
 27 28  1  0  0  0  0
 28 29  2  0  0  0  0
 29 30  1  0  0  0  0
 29 34  1  0  0  0  0
 31 30  2  0  0  0  0
 32 31  1  0  0  0  0
 33 27  1  0  0  0  0
 35 31  1  0  0  0  0
 36 43  2  0  0  0  0
 36 37  1  0  0  0  0
 37 38  1  0  0  0  0
 37 39  2  0  0  0  0
 39 40  1  0  0  0  0
 41 42  1  0  0  0  0
 41 39  1  0  0  0  0
 43 41  1  0  0  0  0
M  END
>  <minimizedAffinity>
-5.6435833

$$$$

 OpenBabel03272506133D

 43 46  0  0  1  0  0  0  0  0999 V2000
   37.7670   24.0280   32.2800 C   0  0  1  0  0  0  0  0  0  0  0  0
   37.8380   24.0600   30.6950 C   0  0  0  0  0  0  0  0  0  0  0  0
   38.7540   25.1880   30.2290 C   0  0  0  0  0  0  0  0  0  0  0  0
   38.4650   26.4500   30.9820 C   0  0  0  0  0  0  0  0  0  0  0  0
   37.0950   26.3420   31.5610 C   0  0  0  0  0  0  0  0  0  0  0  0
   37.1260   25.3200   32.6810 C   0  0  2  0  0  0  0  0  0  0  0  0
   38.7780   24.2240   32.4200 H   0  0  0  0  0  0  0  0  0  0  0  0
   36.8370   24.1810   30.3060 H   0  0  0  0  0  0  0  0  0  0  0  0
   38.2530   23.0980   30.4040 H   0  0  0  0  0  0  0  0  0  0  0  0
   39.8070   24.8820   30.2110 H   0  0  0  0  0  0  0  0  0  0  0  0
   38.4670   25.3720   29.1730 H   0  0  0  0  0  0  0  0  0  0  0  0
   38.5750   27.3530   30.3190 H   0  0  0  0  0  0  0  0  0  0  0  0
   39.2490   26.5600   31.7350 H   0  0  0  0  0  0  0  0  0  0  0  0
   36.8860   27.3170   32.0640 H   0  0  0  0  0  0  0  0  0  0  0  0
   36.3450   26.0910   30.8190 H   0  0  0  0  0  0  0  0  0  0  0  0
   36.0860   25.2800   33.0290 H   0  0  0  0  0  0  0  0  0  0  0  0
   37.2840   22.1250   33.7600 C   0  0  0  0  0  0  0  0  0  0  0  0
   36.4710   21.0410   34.0290 C   0  0  0  0  0  0  0  0  0  0  0  0
   35.4320   20.6180   33.2430 C   0  0  0  0  0  0  0  0  0  0  0  0
   35.1550   21.3200   32.0710 C   0  0  0  0  0  0  0  0  0  0  0  0
   35.9720   22.4110   31.7920 C   0  0  0  0  0  0  0  0  0  0  0  0
   37.0240   22.8390   32.5940 C   0  0  0  0  0  0  0  0  0  0  0  0
   36.6070   20.4240   34.9340 H   0  0  0  0  0  0  0  0  0  0  0  0
   34.8350   19.7620   33.5210 H   0  0  0  0  0  0  0  0  0  0  0  0
   34.3350   20.9730   31.4690 H   0  0  0  0  0  0  0  0  0  0  0  0
   35.6530   22.8450   30.8540 H   0  0  0  0  0  0  0  0  0  0  0  0
   37.9220   22.8940   35.9860 C   0  0  0  0  0  0  0  0  0  0  0  0
   38.3200   22.3730   34.7030 C   0  0  0  0  0  0  0  0  0  0  0  0
   39.6690   22.1330   34.4970 C   0  0  0  0  0  0  0  0  0  0  0  0
   40.5580   22.3810   35.4880 N   0  0  0  0  0  0  0  0  0  0  0  0
   40.1620   22.8750   36.7040 C   0  0  0  0  0  0  0  0  0  0  0  0
   38.8530   23.1250   36.9330 N   0  0  0  0  0  0  0  0  0  0  0  0
   36.9170   23.1270   36.2870 H   0  0  0  0  0  0  0  0  0  0  0  0
   40.2020   21.8360   33.6510 H   0  0  0  0  0  0  0  0  0  0  0  0
   40.8490   23.0850   37.5180 H   0  0  0  0  0  0  0  0  0  0  0  0
   37.8340   25.9170   33.8880 C   0  0  0  0  0  0  0  0  0  0  0  0
   37.2500   26.7200   34.8600 C   0  0  0  0  0  0  0  0  0  0  0  0
   36.2150   27.0430   34.9150 H   0  0  0  0  0  0  0  0  0  0  0  0
   38.1930   27.0800   35.8080 C   0  0  0  0  0  0  0  0  0  0  0  0
   38.0070   27.6990   36.6720 H   0  0  0  0  0  0  0  0  0  0  0  0
   39.3210   26.4840   35.3810 N   0  0  0  0  0  0  0  0  0  0  0  0
   40.2250   26.5770   35.9040 H   0  0  0  0  0  0  0  0  0  0  0  0
   39.1020   25.8160   34.2710 N   0  0  0  0  0  0  0  0  0  0  0  0
  1  7  1  1  0  0  0
  1 22  1  0  0  0  0
  1  6  1  0  0  0  0
  2  1  1  0  0  0  0
  3  2  1  0  0  0  0
  3  4  1  0  0  0  0
  4  5  1  0  0  0  0
  4 13  1  0  0  0  0
  5 14  1  0  0  0  0
  5  6  1  0  0  0  0
  6 16  1  1  0  0  0
  6 36  1  0  0  0  0
  8  2  1  0  0  0  0
  9  2  1  0  0  0  0
 10  3  1  0  0  0  0
 11  3  1  0  0  0  0
 12  4  1  0  0  0  0
 15  5  1  0  0  0  0
 17 18  1  0  0  0  0
 17 28  1  0  0  0  0
 18 23  1  0  0  0  0
 19 24  1  0  0  0  0
 19 18  2  0  0  0  0
 20 19  1  0  0  0  0
 21 20  2  0  0  0  0
 21 22  1  0  0  0  0
 22 17  2  0  0  0  0
 25 20  1  0  0  0  0
 26 21  1  0  0  0  0
 27 33  1  0  0  0  0
 27 32  1  0  0  0  0
 28 27  2  0  0  0  0
 29 28  1  0  0  0  0
 29 30  2  0  0  0  0
 30 31  1  0  0  0  0
 31 32  2  0  0  0  0
 31 35  1  0  0  0  0
 34 29  1  0  0  0  0
 36 43  2  0  0  0  0
 36 37  1  0  0  0  0
 37 38  1  0  0  0  0
 37 39  2  0  0  0  0
 39 40  1  0  0  0  0
 41 39  1  0  0  0  0
 41 42  1  0  0  0  0
 43 41  1  0  0  0  0
M  END
>  <minimizedAffinity>
-5.52353811

$$$$

 OpenBabel03272506133D

 43 46  0  0  1  0  0  0  0  0999 V2000
   38.0760   26.7510   34.0310 C   0  0  1  0  0  0  0  0  0  0  0  0
   37.8470   28.0120   34.9680 C   0  0  0  0  0  0  0  0  0  0  0  0
   36.3690   28.3930   34.9910 C   0  0  0  0  0  0  0  0  0  0  0  0
   35.8010   28.3870   33.6060 C   0  0  0  0  0  0  0  0  0  0  0  0
   36.9290   28.5020   32.6390 C   0  0  0  0  0  0  0  0  0  0  0  0
   37.7080   27.2010   32.6530 C   0  0  2  0  0  0  0  0  0  0  0  0
   37.2200   26.2510   34.3420 H   0  0  0  0  0  0  0  0  0  0  0  0
   38.4570   28.8270   34.6050 H   0  0  0  0  0  0  0  0  0  0  0  0
   38.1670   27.6990   35.9590 H   0  0  0  0  0  0  0  0  0  0  0  0
   35.8070   27.8140   35.7330 H   0  0  0  0  0  0  0  0  0  0  0  0
   36.3520   29.4450   35.3410 H   0  0  0  0  0  0  0  0  0  0  0  0
   35.0440   29.2110   33.4740 H   0  0  0  0  0  0  0  0  0  0  0  0
   35.2270   27.4630   33.4990 H   0  0  0  0  0  0  0  0  0  0  0  0
   36.4710   28.5550   31.6210 H   0  0  0  0  0  0  0  0  0  0  0  0
   37.5740   29.3500   32.8460 H   0  0  0  0  0  0  0  0  0  0  0  0
   38.5270   27.3780   31.9440 H   0  0  0  0  0  0  0  0  0  0  0  0
   39.7950   25.2080   34.8720 C   0  0  0  0  0  0  0  0  0  0  0  0
   41.1390   24.8940   34.9430 C   0  0  0  0  0  0  0  0  0  0  0  0
   42.1550   25.6520   34.4240 C   0  0  0  0  0  0  0  0  0  0  0  0
   41.8340   26.8400   33.7710 C   0  0  0  0  0  0  0  0  0  0  0  0
   40.4830   27.1630   33.6990 C   0  0  0  0  0  0  0  0  0  0  0  0
   39.4530   26.3900   34.2240 C   0  0  0  0  0  0  0  0  0  0  0  0
   41.4940   23.9720   35.4360 H   0  0  0  0  0  0  0  0  0  0  0  0
   43.1860   25.3390   34.5150 H   0  0  0  0  0  0  0  0  0  0  0  0
   42.6460   27.4200   33.3710 H   0  0  0  0  0  0  0  0  0  0  0  0
   40.3860   28.1100   33.1830 H   0  0  0  0  0  0  0  0  0  0  0  0
   38.3410   24.6870   36.7610 C   0  0  0  0  0  0  0  0  0  0  0  0
   38.9090   24.2880   35.4990 C   0  0  0  0  0  0  0  0  0  0  0  0
   38.5320   23.0570   34.9850 C   0  0  0  0  0  0  0  0  0  0  0  0
   37.6530   22.2820   35.6640 N   0  0  0  0  0  0  0  0  0  0  0  0
   37.1200   22.6790   36.8630 C   0  0  0  0  0  0  0  0  0  0  0  0
   37.4730   23.8720   37.3930 N   0  0  0  0  0  0  0  0  0  0  0  0
   38.5390   25.6080   37.2770 H   0  0  0  0  0  0  0  0  0  0  0  0
   38.8540   22.5230   34.1470 H   0  0  0  0  0  0  0  0  0  0  0  0
   36.4140   22.0810   37.4310 H   0  0  0  0  0  0  0  0  0  0  0  0
   36.9050   26.1260   31.9350 C   0  0  0  0  0  0  0  0  0  0  0  0
   36.8940   24.7720   32.2470 C   0  0  0  0  0  0  0  0  0  0  0  0
   37.4450   24.2720   33.0380 H   0  0  0  0  0  0  0  0  0  0  0  0
   36.0490   24.0930   31.3850 C   0  0  0  0  0  0  0  0  0  0  0  0
   35.8550   23.0310   31.4060 H   0  0  0  0  0  0  0  0  0  0  0  0
   35.5740   25.0560   30.5760 N   0  0  0  0  0  0  0  0  0  0  0  0
   34.8960   24.8430   29.8050 H   0  0  0  0  0  0  0  0  0  0  0  0
   36.0750   26.2260   30.9030 N   0  0  0  0  0  0  0  0  0  0  0  0
  1 22  1  0  0  0  0
  1  7  1  1  0  0  0
  1  2  1  0  0  0  0
  2  3  1  0  0  0  0
  2  9  1  0  0  0  0
  3 11  1  0  0  0  0
  3 10  1  0  0  0  0
  4  3  1  0  0  0  0
  5  6  1  0  0  0  0
  5 15  1  0  0  0  0
  5  4  1  0  0  0  0
  6 16  1  6  0  0  0
  6  1  1  0  0  0  0
  8  2  1  0  0  0  0
 12  4  1  0  0  0  0
 13  4  1  0  0  0  0
 14  5  1  0  0  0  0
 17 18  1  0  0  0  0
 17 28  1  0  0  0  0
 18 23  1  0  0  0  0
 19 24  1  0  0  0  0
 19 18  2  0  0  0  0
 20 19  1  0  0  0  0
 21 20  2  0  0  0  0
 21 22  1  0  0  0  0
 22 17  2  0  0  0  0
 25 20  1  0  0  0  0
 26 21  1  0  0  0  0
 27 33  1  0  0  0  0
 27 32  1  0  0  0  0
 28 27  2  0  0  0  0
 29 28  1  0  0  0  0
 29 30  2  0  0  0  0
 30 31  1  0  0  0  0
 31 32  2  0  0  0  0
 31 35  1  0  0  0  0
 34 29  1  0  0  0  0
 36 37  1  0  0  0  0
 36  6  1  0  0  0  0
 37 38  1  0  0  0  0
 39 40  1  0  0  0  0
 39 37  2  0  0  0  0
 41 43  1  0  0  0  0
 41 39  1  0  0  0  0
 42 41  1  0  0  0  0
 43 36  2  0  0  0  0
M  END
>  <minimizedAffinity>
-5.51470232

$$$$

 OpenBabel03272506133D

 43 46  0  0  1  0  0  0  0  0999 V2000
   38.9950   25.1070   33.8630 C   0  0  1  0  0  0  0  0  0  0  0  0
   40.5620   24.8730   33.9620 C   0  0  0  0  0  0  0  0  0  0  0  0
   41.2630   26.1580   34.3940 C   0  0  0  0  0  0  0  0  0  0  0  0
   40.7370   27.3300   33.6250 C   0  0  0  0  0  0  0  0  0  0  0  0
   40.0890   26.8200   32.3830 C   0  0  0  0  0  0  0  0  0  0  0  0
   38.8060   26.1090   32.7690 C   0  0  2  0  0  0  0  0  0  0  0  0
   38.9370   25.6920   34.7190 H   0  0  0  0  0  0  0  0  0  0  0  0
   40.9220   24.5330   33.0020 H   0  0  0  0  0  0  0  0  0  0  0  0
   40.6930   24.1040   34.7190 H   0  0  0  0  0  0  0  0  0  0  0  0
   41.2710   26.2750   35.4840 H   0  0  0  0  0  0  0  0  0  0  0  0
   42.3200   26.0220   34.0890 H   0  0  0  0  0  0  0  0  0  0  0  0
   41.5560   28.0700   33.4020 H   0  0  0  0  0  0  0  0  0  0  0  0
   40.0510   27.8660   34.2870 H   0  0  0  0  0  0  0  0  0  0  0  0
   39.7610   27.7180   31.8050 H   0  0  0  0  0  0  0  0  0  0  0  0
   40.7400   26.1720   31.8060 H   0  0  0  0  0  0  0  0  0  0  0  0
   38.4110   25.7440   31.8120 H   0  0  0  0  0  0  0  0  0  0  0  0
   38.0800   22.9750   34.6770 C   0  0  0  0  0  0  0  0  0  0  0  0
   37.4770   21.7740   34.3580 C   0  0  0  0  0  0  0  0  0  0  0  0
   37.2030   21.3390   33.0880 C   0  0  0  0  0  0  0  0  0  0  0  0
   37.5560   22.1550   32.0150 C   0  0  0  0  0  0  0  0  0  0  0  0
   38.1660   23.3650   32.3290 C   0  0  0  0  0  0  0  0  0  0  0  0
   38.4400   23.8040   33.6200 C   0  0  0  0  0  0  0  0  0  0  0  0
   37.1570   21.0600   35.1380 H   0  0  0  0  0  0  0  0  0  0  0  0
   36.7240   20.3860   32.9170 H   0  0  0  0  0  0  0  0  0  0  0  0
   37.3320   21.7960   31.0270 H   0  0  0  0  0  0  0  0  0  0  0  0
   38.3950   23.8810   31.4050 H   0  0  0  0  0  0  0  0  0  0  0  0
   39.4710   22.6420   36.6540 C   0  0  0  0  0  0  0  0  0  0  0  0
   38.2890   23.2160   36.0630 C   0  0  0  0  0  0  0  0  0  0  0  0
   37.4660   23.9750   36.8810 C   0  0  0  0  0  0  0  0  0  0  0  0
   37.7900   24.1580   38.1830 N   0  0  0  0  0  0  0  0  0  0  0  0
   38.9200   23.6060   38.7280 C   0  0  0  0  0  0  0  0  0  0  0  0
   39.7410   22.8570   37.9570 N   0  0  0  0  0  0  0  0  0  0  0  0
   40.1970   22.0360   36.1460 H   0  0  0  0  0  0  0  0  0  0  0  0
   36.5370   24.4210   36.7130 H   0  0  0  0  0  0  0  0  0  0  0  0
   39.2070   23.7340   39.7670 H   0  0  0  0  0  0  0  0  0  0  0  0
   37.7580   27.1400   33.1620 C   0  0  0  0  0  0  0  0  0  0  0  0
   37.1930   27.2880   34.4230 C   0  0  0  0  0  0  0  0  0  0  0  0
   37.4040   26.7040   35.3130 H   0  0  0  0  0  0  0  0  0  0  0  0
   36.2780   28.3280   34.4150 C   0  0  0  0  0  0  0  0  0  0  0  0
   35.6960   28.6560   35.2630 H   0  0  0  0  0  0  0  0  0  0  0  0
   36.3160   28.7780   33.1480 N   0  0  0  0  0  0  0  0  0  0  0  0
   35.7180   29.5780   32.8310 H   0  0  0  0  0  0  0  0  0  0  0  0
   37.1740   28.0850   32.4340 N   0  0  0  0  0  0  0  0  0  0  0  0
  1  2  1  0  0  0  0
  1  7  1  1  0  0  0
  2  3  1  0  0  0  0
  2  9  1  0  0  0  0
  3 10  1  0  0  0  0
  4 13  1  0  0  0  0
  4  3  1  0  0  0  0
  5  6  1  0  0  0  0
  5  4  1  0  0  0  0
  6 16  1  6  0  0  0
  6 36  1  0  0  0  0
  6  1  1  0  0  0  0
  8  2  1  0  0  0  0
 11  3  1  0  0  0  0
 12  4  1  0  0  0  0
 14  5  1  0  0  0  0
 15  5  1  0  0  0  0
 17 28  1  0  0  0  0
 18 17  1  0  0  0  0
 18 23  1  0  0  0  0
 19 18  2  0  0  0  0
 20 21  2  0  0  0  0
 20 19  1  0  0  0  0
 21 22  1  0  0  0  0
 22  1  1  0  0  0  0
 22 17  2  0  0  0  0
 24 19  1  0  0  0  0
 25 20  1  0  0  0  0
 26 21  1  0  0  0  0
 27 32  1  0  0  0  0
 28 27  2  0  0  0  0
 28 29  1  0  0  0  0
 29 30  2  0  0  0  0
 30 31  1  0  0  0  0
 31 35  1  0  0  0  0
 32 31  2  0  0  0  0
 33 27  1  0  0  0  0
 34 29  1  0  0  0  0
 36 37  1  0  0  0  0
 37 38  1  0  0  0  0
 39 37  2  0  0  0  0
 39 40  1  0  0  0  0
 41 39  1  0  0  0  0
 42 41  1  0  0  0  0
 43 41  1  0  0  0  0
 43 36  2  0  0  0  0
M  END
>  <minimizedAffinity>
-5.47676754

$$$$

 OpenBabel03272506133D

 43 46  0  0  1  0  0  0  0  0999 V2000
   38.6800   23.9900   35.2960 C   0  0  1  0  0  0  0  0  0  0  0  0
   40.2260   24.2230   35.5720 C   0  0  0  0  0  0  0  0  0  0  0  0
   40.9030   22.9050   35.9370 C   0  0  0  0  0  0  0  0  0  0  0  0
   40.0800   22.1460   36.9310 C   0  0  0  0  0  0  0  0  0  0  0  0
   39.1570   23.1060   37.6010 C   0  0  0  0  0  0  0  0  0  0  0  0
   38.1020   23.5360   36.5990 C   0  0  2  0  0  0  0  0  0  0  0  0
   38.8140   23.0960   34.7830 H   0  0  0  0  0  0  0  0  0  0  0  0
   40.3300   24.9500   36.3640 H   0  0  0  0  0  0  0  0  0  0  0  0
   40.6330   24.6050   34.6390 H   0  0  0  0  0  0  0  0  0  0  0  0
   41.2070   22.3390   35.0480 H   0  0  0  0  0  0  0  0  0  0  0  0
   41.8400   23.1990   36.4530 H   0  0  0  0  0  0  0  0  0  0  0  0
   40.7340   21.6030   37.6690 H   0  0  0  0  0  0  0  0  0  0  0  0
   39.5640   21.3540   36.3820 H   0  0  0  0  0  0  0  0  0  0  0  0
   38.6010   22.5240   38.3750 H   0  0  0  0  0  0  0  0  0  0  0  0
   39.6740   23.9620   38.0200 H   0  0  0  0  0  0  0  0  0  0  0  0
   37.4890   24.2550   37.1570 H   0  0  0  0  0  0  0  0  0  0  0  0
   37.7760   25.3850   33.4850 C   0  0  0  0  0  0  0  0  0  0  0  0
   37.2480   26.6070   33.1140 C   0  0  0  0  0  0  0  0  0  0  0  0
   37.1040   27.6890   33.9410 C   0  0  0  0  0  0  0  0  0  0  0  0
   37.5200   27.5750   35.2660 C   0  0  0  0  0  0  0  0  0  0  0  0
   38.0550   26.3480   35.6450 C   0  0  0  0  0  0  0  0  0  0  0  0
   38.1970   25.2500   34.8040 C   0  0  0  0  0  0  0  0  0  0  0  0
   36.8870   26.7950   32.0870 H   0  0  0  0  0  0  0  0  0  0  0  0
   36.6770   28.6140   33.5790 H   0  0  0  0  0  0  0  0  0  0  0  0
   37.3980   28.4350   35.8980 H   0  0  0  0  0  0  0  0  0  0  0  0
   38.3450   26.4110   36.6860 H   0  0  0  0  0  0  0  0  0  0  0  0
   39.1180   24.2620   31.7840 C   0  0  0  0  0  0  0  0  0  0  0  0
   37.8520   24.4040   32.4570 C   0  0  0  0  0  0  0  0  0  0  0  0
   36.8210   23.5620   32.0710 C   0  0  0  0  0  0  0  0  0  0  0  0
   37.0280   22.6440   31.0970 N   0  0  0  0  0  0  0  0  0  0  0  0
   38.2390   22.5210   30.4690 C   0  0  0  0  0  0  0  0  0  0  0  0
   39.2640   23.3310   30.8200 N   0  0  0  0  0  0  0  0  0  0  0  0
   40.0020   24.8410   31.9780 H   0  0  0  0  0  0  0  0  0  0  0  0
   35.8150   23.5210   32.3460 H   0  0  0  0  0  0  0  0  0  0  0  0
   38.4370   21.7960   29.6850 H   0  0  0  0  0  0  0  0  0  0  0  0
   37.1210   22.3940   36.3810 C   0  0  0  0  0  0  0  0  0  0  0  0
   36.9560   21.6750   35.2030 C   0  0  0  0  0  0  0  0  0  0  0  0
   37.4910   21.8070   34.2680 H   0  0  0  0  0  0  0  0  0  0  0  0
   35.9760   20.7100   35.3690 C   0  0  0  0  0  0  0  0  0  0  0  0
   35.6500   20.0130   34.6120 H   0  0  0  0  0  0  0  0  0  0  0  0
   35.5760   20.8750   36.6420 N   0  0  0  0  0  0  0  0  0  0  0  0
   34.8260   20.2770   37.0660 H   0  0  0  0  0  0  0  0  0  0  0  0
   36.2430   21.8510   37.2170 N   0  0  0  0  0  0  0  0  0  0  0  0
  1  7  1  6  0  0  0
  1  2  1  0  0  0  0
  1  6  1  0  0  0  0
  2  3  1  0  0  0  0
  2  8  1  0  0  0  0
  3 11  1  0  0  0  0
  3  4  1  0  0  0  0
  4  5  1  0  0  0  0
  4 12  1  0  0  0  0
  5 15  1  0  0  0  0
  5 14  1  0  0  0  0
  6 16  1  1  0  0  0
  6  5  1  0  0  0  0
  9  2  1  0  0  0  0
 10  3  1  0  0  0  0
 13  4  1  0  0  0  0
 17 22  1  0  0  0  0
 18 17  2  0  0  0  0
 18 19  1  0  0  0  0
 19 20  2  0  0  0  0
 20 21  1  0  0  0  0
 20 25  1  0  0  0  0
 21 26  1  0  0  0  0
 22  1  1  0  0  0  0
 22 21  2  0  0  0  0
 23 18  1  0  0  0  0
 24 19  1  0  0  0  0
 27 33  1  0  0  0  0
 27 28  1  0  0  0  0
 28 17  1  0  0  0  0
 29 34  1  0  0  0  0
 29 28  2  0  0  0  0
 30 29  1  0  0  0  0
 31 32  1  0  0  0  0
 31 30  2  0  0  0  0
 32 27  2  0  0  0  0
 35 31  1  0  0  0  0
 36  6  1  0  0  0  0
 36 43  2  0  0  0  0
 37 39  2  0  0  0  0
 37 36  1  0  0  0  0
 38 37  1  0  0  0  0
 39 41  1  0  0  0  0
 40 39  1  0  0  0  0
 41 42  1  0  0  0  0
 41 43  1  0  0  0  0
M  END
>  <minimizedAffinity>
-5.47155094

$$$$

 OpenBabel03272506133D

 43 46  0  0  1  0  0  0  0  0999 V2000
   36.6510   27.5210   31.8550 C   0  0  1  0  0  0  0  0  0  0  0  0
   35.9480   26.4850   30.8790 C   0  0  0  0  0  0  0  0  0  0  0  0
   35.7590   25.1420   31.5800 C   0  0  0  0  0  0  0  0  0  0  0  0
   37.0070   24.7450   32.3070 C   0  0  0  0  0  0  0  0  0  0  0  0
   38.1480   25.5050   31.7230 C   0  0  0  0  0  0  0  0  0  0  0  0
   38.0120   26.9610   32.1260 C   0  0  2  0  0  0  0  0  0  0  0  0
   36.1150   27.2300   32.6970 H   0  0  0  0  0  0  0  0  0  0  0  0
   36.5540   26.3820   29.9910 H   0  0  0  0  0  0  0  0  0  0  0  0
   34.9820   26.9210   30.6410 H   0  0  0  0  0  0  0  0  0  0  0  0
   34.8390   25.1150   32.1750 H   0  0  0  0  0  0  0  0  0  0  0  0
   35.6190   24.4090   30.7600 H   0  0  0  0  0  0  0  0  0  0  0  0
   37.1690   23.6320   32.2570 H   0  0  0  0  0  0  0  0  0  0  0  0
   36.8400   24.9540   33.3670 H   0  0  0  0  0  0  0  0  0  0  0  0
   39.0690   25.1450   32.2430 H   0  0  0  0  0  0  0  0  0  0  0  0
   38.2150   25.3990   30.6450 H   0  0  0  0  0  0  0  0  0  0  0  0
   38.8650   27.4490   31.6370 H   0  0  0  0  0  0  0  0  0  0  0  0
   35.8660   29.8400   31.6320 C   0  0  0  0  0  0  0  0  0  0  0  0
   35.9550   31.0340   30.9440 C   0  0  0  0  0  0  0  0  0  0  0  0
   36.7260   31.2500   29.8320 C   0  0  0  0  0  0  0  0  0  0  0  0
   37.4880   30.1940   29.3360 C   0  0  0  0  0  0  0  0  0  0  0  0
   37.4010   28.9880   30.0220 C   0  0  0  0  0  0  0  0  0  0  0  0
   36.6190   28.7730   31.1530 C   0  0  0  0  0  0  0  0  0  0  0  0
   35.3930   31.9300   31.2610 H   0  0  0  0  0  0  0  0  0  0  0  0
   36.7480   32.2160   29.3480 H   0  0  0  0  0  0  0  0  0  0  0  0
   38.0870   30.3850   28.4630 H   0  0  0  0  0  0  0  0  0  0  0  0
   38.0280   28.2630   29.5200 H   0  0  0  0  0  0  0  0  0  0  0  0
   35.4660   30.4430   33.9630 C   0  0  0  0  0  0  0  0  0  0  0  0
   34.9850   29.8320   32.7500 C   0  0  0  0  0  0  0  0  0  0  0  0
   33.7020   29.3090   32.7580 C   0  0  0  0  0  0  0  0  0  0  0  0
   32.9460   29.3910   33.8790 N   0  0  0  0  0  0  0  0  0  0  0  0
   33.4190   29.9770   35.0240 C   0  0  0  0  0  0  0  0  0  0  0  0
   34.6690   30.4920   35.0490 N   0  0  0  0  0  0  0  0  0  0  0  0
   36.4330   30.8880   34.1030 H   0  0  0  0  0  0  0  0  0  0  0  0
   33.1680   28.7630   32.0470 H   0  0  0  0  0  0  0  0  0  0  0  0
   32.8390   30.0580   35.9390 H   0  0  0  0  0  0  0  0  0  0  0  0
   38.3710   27.1120   33.5960 C   0  0  0  0  0  0  0  0  0  0  0  0
   37.4830   27.3980   34.6270 C   0  0  0  0  0  0  0  0  0  0  0  0
   36.4120   27.5560   34.5500 H   0  0  0  0  0  0  0  0  0  0  0  0
   38.1600   27.4590   35.8340 C   0  0  0  0  0  0  0  0  0  0  0  0
   37.7110   27.6650   36.7930 H   0  0  0  0  0  0  0  0  0  0  0  0
   39.4380   27.2090   35.4980 N   0  0  0  0  0  0  0  0  0  0  0  0
   40.2020   27.1890   36.2150 H   0  0  0  0  0  0  0  0  0  0  0  0
   39.5480   27.0100   34.2030 N   0  0  0  0  0  0  0  0  0  0  0  0
  1  6  1  0  0  0  0
  1  7  1  1  0  0  0
  2  3  1  0  0  0  0
  2  1  1  0  0  0  0
  3 10  1  0  0  0  0
  3  4  1  0  0  0  0
  4 13  1  0  0  0  0
  5  6  1  0  0  0  0
  5 14  1  0  0  0  0
  5  4  1  0  0  0  0
  6 16  1  6  0  0  0
  6 36  1  0  0  0  0
  8  2  1  0  0  0  0
  9  2  1  0  0  0  0
 11  3  1  0  0  0  0
 12  4  1  0  0  0  0
 15  5  1  0  0  0  0
 17 28  1  0  0  0  0
 18 23  1  0  0  0  0
 18 17  2  0  0  0  0
 19 18  1  0  0  0  0
 20 19  2  0  0  0  0
 20 21  1  0  0  0  0
 21 22  2  0  0  0  0
 22 17  1  0  0  0  0
 22  1  1  0  0  0  0
 24 19  1  0  0  0  0
 25 20  1  0  0  0  0
 26 21  1  0  0  0  0
 27 33  1  0  0  0  0
 27 32  1  0  0  0  0
 28 29  1  0  0  0  0
 28 27  2  0  0  0  0
 29 30  2  0  0  0  0
 30 31  1  0  0  0  0
 31 32  2  0  0  0  0
 31 35  1  0  0  0  0
 34 29  1  0  0  0  0
 36 43  2  0  0  0  0
 36 37  1  0  0  0  0
 37 39  2  0  0  0  0
 38 37  1  0  0  0  0
 39 40  1  0  0  0  0
 41 39  1  0  0  0  0
 41 42  1  0  0  0  0
 43 41  1  0  0  0  0
M  END
>  <minimizedAffinity>
-5.43419647

$$$$

 OpenBabel03272506133D

 43 46  0  0  1  0  0  0  0  0999 V2000
   38.0040   26.3020   33.1610 C   0  0  1  0  0  0  0  0  0  0  0  0
   37.4370   26.4250   34.6390 C   0  0  0  0  0  0  0  0  0  0  0  0
   38.3480   27.3130   35.4830 C   0  0  0  0  0  0  0  0  0  0  0  0
   39.7850   26.9500   35.2690 C   0  0  0  0  0  0  0  0  0  0  0  0
   39.8390   25.5680   34.7150 C   0  0  0  0  0  0  0  0  0  0  0  0
   39.3190   25.6000   33.2910 C   0  0  2  0  0  0  0  0  0  0  0  0
   38.2860   27.3000   33.0890 H   0  0  0  0  0  0  0  0  0  0  0  0
   37.3540   25.4340   35.0600 H   0  0  0  0  0  0  0  0  0  0  0  0
   36.4580   26.8850   34.5360 H   0  0  0  0  0  0  0  0  0  0  0  0
   38.1080   28.3760   35.3660 H   0  0  0  0  0  0  0  0  0  0  0  0
   38.1040   27.0540   36.5330 H   0  0  0  0  0  0  0  0  0  0  0  0
   40.3740   27.0480   36.2230 H   0  0  0  0  0  0  0  0  0  0  0  0
   40.2090   27.7050   34.6020 H   0  0  0  0  0  0  0  0  0  0  0  0
   40.9200   25.3050   34.6230 H   0  0  0  0  0  0  0  0  0  0  0  0
   39.2900   24.8520   35.3180 H   0  0  0  0  0  0  0  0  0  0  0  0
   39.3640   24.5520   32.9710 H   0  0  0  0  0  0  0  0  0  0  0  0
   36.0920   26.2790   31.6150 C   0  0  0  0  0  0  0  0  0  0  0  0
   35.2000   25.5190   30.8840 C   0  0  0  0  0  0  0  0  0  0  0  0
   35.1310   24.1510   30.8970 C   0  0  0  0  0  0  0  0  0  0  0  0
   36.0200   23.4480   31.7070 C   0  0  0  0  0  0  0  0  0  0  0  0
   36.9190   24.2070   32.4490 C   0  0  0  0  0  0  0  0  0  0  0  0
   36.9880   25.5960   32.4310 C   0  0  0  0  0  0  0  0  0  0  0  0
   34.4580   25.9830   30.2100 H   0  0  0  0  0  0  0  0  0  0  0  0
   34.4070   23.6240   30.2930 H   0  0  0  0  0  0  0  0  0  0  0  0
   35.9510   22.3750   31.7020 H   0  0  0  0  0  0  0  0  0  0  0  0
   37.5310   23.5340   33.0360 H   0  0  0  0  0  0  0  0  0  0  0  0
   36.6660   28.2890   30.3560 C   0  0  0  0  0  0  0  0  0  0  0  0
   35.9730   27.6890   31.4680 C   0  0  0  0  0  0  0  0  0  0  0  0
   35.2290   28.5240   32.2870 C   0  0  0  0  0  0  0  0  0  0  0  0
   35.1680   29.8510   32.0230 N   0  0  0  0  0  0  0  0  0  0  0  0
   35.8320   30.4050   30.9600 C   0  0  0  0  0  0  0  0  0  0  0  0
   36.5710   29.6170   30.1450 N   0  0  0  0  0  0  0  0  0  0  0  0
   37.2760   27.7700   29.6410 H   0  0  0  0  0  0  0  0  0  0  0  0
   34.7120   28.3470   33.1760 H   0  0  0  0  0  0  0  0  0  0  0  0
   35.8040   31.4630   30.7220 H   0  0  0  0  0  0  0  0  0  0  0  0
   40.3610   26.2450   32.3890 C   0  0  0  0  0  0  0  0  0  0  0  0
   40.1380   27.2950   31.5060 C   0  0  0  0  0  0  0  0  0  0  0  0
   39.2030   27.8150   31.3210 H   0  0  0  0  0  0  0  0  0  0  0  0
   41.3140   27.6240   30.8520 C   0  0  0  0  0  0  0  0  0  0  0  0
   41.4220   28.4040   30.1140 H   0  0  0  0  0  0  0  0  0  0  0  0
   42.2140   26.7620   31.3580 N   0  0  0  0  0  0  0  0  0  0  0  0
   43.2160   26.7680   31.0490 H   0  0  0  0  0  0  0  0  0  0  0  0
   41.6530   25.9710   32.2450 N   0  0  0  0  0  0  0  0  0  0  0  0
  1  7  1  6  0  0  0
  1  6  1  0  0  0  0
  1  2  1  0  0  0  0
  2  8  1  0  0  0  0
  2  3  1  0  0  0  0
  3 11  1  0  0  0  0
  4  3  1  0  0  0  0
  4 12  1  0  0  0  0
  5  4  1  0  0  0  0
  5 15  1  0  0  0  0
  6 16  1  6  0  0  0
  6  5  1  0  0  0  0
  9  2  1  0  0  0  0
 10  3  1  0  0  0  0
 13  4  1  0  0  0  0
 14  5  1  0  0  0  0
 17 22  1  0  0  0  0
 18 19  1  0  0  0  0
 18 17  2  0  0  0  0
 19 20  2  0  0  0  0
 20 21  1  0  0  0  0
 21 26  1  0  0  0  0
 22 21  2  0  0  0  0
 22  1  1  0  0  0  0
 23 18  1  0  0  0  0
 24 19  1  0  0  0  0
 25 20  1  0  0  0  0
 27 28  1  0  0  0  0
 28 17  1  0  0  0  0
 28 29  2  0  0  0  0
 29 34  1  0  0  0  0
 30 29  1  0  0  0  0
 31 30  2  0  0  0  0
 32 27  2  0  0  0  0
 32 31  1  0  0  0  0
 33 27  1  0  0  0  0
 35 31  1  0  0  0  0
 36  6  1  0  0  0  0
 37 36  1  0  0  0  0
 38 37  1  0  0  0  0
 39 41  1  0  0  0  0
 39 37  2  0  0  0  0
 40 39  1  0  0  0  0
 41 43  1  0  0  0  0
 42 41  1  0  0  0  0
 43 36  2  0  0  0  0
M  END
>  <minimizedAffinity>
-5.31834412

$$$$
