
 OpenBabel03272505373D

 30 32  0  0  0  0  0  0  0  0999 V2000
   36.5460   30.6150   46.5300 C   0  0  0  0  0  0  0  0  0  0  0  0
   35.2720   30.1070   46.4160 C   0  0  0  0  0  0  0  0  0  0  0  0
   34.7320   29.8420   45.1710 C   0  0  0  0  0  0  0  0  0  0  0  0
   35.4350   30.0690   43.9910 C   0  0  0  0  0  0  0  0  0  0  0  0
   36.7080   30.5760   44.0980 C   0  0  0  0  0  0  0  0  0  0  0  0
   37.2130   30.8290   45.3460 C   0  0  0  0  0  0  0  0  0  0  0  0
   34.7200   29.9270   47.3250 H   0  0  0  0  0  0  0  0  0  0  0  0
   33.7220   29.4430   45.1700 H   0  0  0  0  0  0  0  0  0  0  0  0
   34.9670   29.8450   43.0590 H   0  0  0  0  0  0  0  0  0  0  0  0
   37.2820   30.7650   43.1990 H   0  0  0  0  0  0  0  0  0  0  0  0
   37.4560   30.3390   50.0700 C   0  0  0  0  0  0  0  0  0  0  0  0
   38.2180   31.4900   50.2820 C   0  0  0  0  0  0  0  0  0  0  0  0
   38.4160   32.3630   49.1930 C   0  0  0  0  0  0  0  0  0  0  0  0
   37.8460   32.0190   48.0030 N   0  0  0  0  0  0  0  0  0  0  0  0
   37.1160   30.8960   47.8390 C   0  0  0  0  0  0  0  0  0  0  0  0
   36.9290   30.0770   48.8590 N   0  0  0  0  0  0  0  0  0  0  0  0
   38.6580   31.7430   51.2270 H   0  0  0  0  0  0  0  0  0  0  0  0
   39.0020   33.2650   49.3200 H   0  0  0  0  0  0  0  0  0  0  0  0
   37.2420   29.4130   51.2240 C   0  0  0  0  0  0  0  0  0  0  0  0
   35.8850   29.1660   51.3790 F   0  0  0  0  0  0  0  0  0  0  0  0
   37.9710   28.2840   50.9990 F   0  0  0  0  0  0  0  0  0  0  0  0
   37.6630   30.0770   52.3740 F   0  0  0  0  0  0  0  0  0  0  0  0
   38.5720   31.3670   45.3860 C   0  0  0  0  0  0  0  0  0  0  0  0
   39.7180   30.5920   45.5900 C   0  0  0  0  0  0  0  0  0  0  0  0
   39.7550   29.5190   45.7410 H   0  0  0  0  0  0  0  0  0  0  0  0
   40.7450   31.5300   45.5470 C   0  0  0  0  0  0  0  0  0  0  0  0
   41.7900   31.2870   45.6680 H   0  0  0  0  0  0  0  0  0  0  0  0
   40.2260   32.7470   45.3350 N   0  0  0  0  0  0  0  0  0  0  0  0
   40.7210   33.6800   45.2470 H   0  0  0  0  0  0  0  0  0  0  0  0
   38.8930   32.6740   45.2330 N   0  0  0  0  0  0  0  0  0  0  0  0
  1 15  1  0  0  0  0
  2  1  1  0  0  0  0
  2  7  1  0  0  0  0
  3  2  2  0  0  0  0
  4  5  2  0  0  0  0
  4  3  1  0  0  0  0
  5  6  1  0  0  0  0
  6 23  1  0  0  0  0
  6  1  2  0  0  0  0
  8  3  1  0  0  0  0
  9  4  1  0  0  0  0
 10  5  1  0  0  0  0
 11 12  1  0  0  0  0
 11 19  1  0  0  0  0
 12 17  1  0  0  0  0
 13 18  1  0  0  0  0
 13 12  2  0  0  0  0
 14 13  1  0  0  0  0
 15 14  2  0  0  0  0
 15 16  1  0  0  0  0
 16 11  2  0  0  0  0
 19 20  1  0  0  0  0
 19 22  1  0  0  0  0
 21 19  1  0  0  0  0
 23 24  1  0  0  0  0
 24 25  1  0  0  0  0
 26 24  2  0  0  0  0
 26 27  1  0  0  0  0
 28 26  1  0  0  0  0
 29 28  1  0  0  0  0
 30 28  1  0  0  0  0
 30 23  2  0  0  0  0
M  END
>  <minimizedAffinity>
-6.54212379

>  <minimizedRMSD>
0.590971768

$$$$
