
 OpenBabel03272504303D

 31 33  0  0  0  0  0  0  0  0999 V2000
   36.9710   30.8900   48.6830 C   0  0  0  0  0  0  0  0  0  0  0  0
   37.5040   31.5480   49.7990 C   0  0  0  0  0  0  0  0  0  0  0  0
   38.4470   32.5460   49.6110 C   0  0  0  0  0  0  0  0  0  0  0  0
   38.8170   32.8480   48.3360 N   0  0  0  0  0  0  0  0  0  0  0  0
   38.2830   32.1950   47.2760 C   0  0  0  0  0  0  0  0  0  0  0  0
   37.3770   31.2340   47.4440 N   0  0  0  0  0  0  0  0  0  0  0  0
   37.1570   31.2500   50.7880 H   0  0  0  0  0  0  0  0  0  0  0  0
   38.8570   33.0530   50.4670 H   0  0  0  0  0  0  0  0  0  0  0  0
   35.9950   29.8510   48.7920 N   0  0  0  0  0  0  0  0  0  0  0  0
   35.1780   29.4310   47.6620 C   0  0  0  0  0  0  0  0  0  0  0  0
   33.7360   29.2590   48.0030 C   0  0  0  0  0  0  0  0  0  0  0  0
   33.4470   28.7750   49.3020 N   0  0  0  0  0  0  0  0  0  0  0  0
   34.2540   29.4690   50.3280 C   0  0  0  0  0  0  0  0  0  0  0  0
   35.6880   29.1030   49.9570 C   0  0  0  0  0  0  0  0  0  0  0  0
   35.2750   30.2220   46.8760 H   0  0  0  0  0  0  0  0  0  0  0  0
   35.6450   28.5130   47.2480 H   0  0  0  0  0  0  0  0  0  0  0  0
   33.2650   28.6190   47.2570 H   0  0  0  0  0  0  0  0  0  0  0  0
   33.2450   30.2700   47.8820 H   0  0  0  0  0  0  0  0  0  0  0  0
   33.7520   27.7630   49.3920 H   0  0  0  0  0  0  0  0  0  0  0  0
   34.1090   30.5400   50.1280 H   0  0  0  0  0  0  0  0  0  0  0  0
   33.9840   29.1220   51.3290 H   0  0  0  0  0  0  0  0  0  0  0  0
   35.7040   27.9940   49.7490 H   0  0  0  0  0  0  0  0  0  0  0  0
   36.3020   29.2950   50.8370 H   0  0  0  0  0  0  0  0  0  0  0  0
   38.6600   32.4950   45.8930 C   0  0  0  0  0  0  0  0  0  0  0  0
   39.9670   32.9590   45.7580 C   0  0  0  0  0  0  0  0  0  0  0  0
   40.8170   33.1680   46.4160 H   0  0  0  0  0  0  0  0  0  0  0  0
   40.1850   33.2020   44.4050 C   0  0  0  0  0  0  0  0  0  0  0  0
   41.0610   33.5710   43.8570 H   0  0  0  0  0  0  0  0  0  0  0  0
   39.0210   32.8810   43.7890 N   0  0  0  0  0  0  0  0  0  0  0  0
   38.8300   32.9410   42.7770 H   0  0  0  0  0  0  0  0  0  0  0  0
   38.1070   32.4580   44.6670 N   0  0  0  0  0  0  0  0  0  0  0  0
  1  9  1  0  0  0  0
  1  2  1  0  0  0  0
  2  7  1  0  0  0  0
  3  2  2  0  0  0  0
  3  8  1  0  0  0  0
  4  3  1  0  0  0  0
  5  6  1  0  0  0  0
  5  4  2  0  0  0  0
  6  1  2  0  0  0  0
  9 14  1  0  0  0  0
 10 11  1  0  0  0  0
 10  9  1  0  0  0  0
 11 12  1  0  0  0  0
 12 19  1  0  0  0  0
 12 13  1  0  0  0  0
 13 21  1  0  0  0  0
 14 13  1  0  0  0  0
 14 23  1  0  0  0  0
 15 10  1  0  0  0  0
 16 10  1  0  0  0  0
 17 11  1  0  0  0  0
 18 11  1  0  0  0  0
 20 13  1  0  0  0  0
 22 14  1  0  0  0  0
 24  5  1  0  0  0  0
 25 24  1  0  0  0  0
 25 26  1  0  0  0  0
 27 25  2  0  0  0  0
 28 27  1  0  0  0  0
 29 27  1  0  0  0  0
 29 31  1  0  0  0  0
 30 29  1  0  0  0  0
 31 24  2  0  0  0  0
M  END
>  <minimizedAffinity>
-5.50641537

>  <minimizedRMSD>
7.21037483

$$$$
