
 OpenBabel03272505423D

 44 47  0  0  0  0  0  0  0  0999 V2000
   37.9280   23.4270   33.6700 C   0  0  0  0  0  0  0  0  0  0  0  0
   37.3970   22.3810   32.9170 C   0  0  0  0  0  0  0  0  0  0  0  0
   36.7060   22.6660   31.7530 C   0  0  0  0  0  0  0  0  0  0  0  0
   36.5060   23.9430   31.2800 C   0  0  0  0  0  0  0  0  0  0  0  0
   37.0330   24.9940   32.0280 C   0  0  0  0  0  0  0  0  0  0  0  0
   37.7200   24.6820   33.1900 C   0  0  0  0  0  0  0  0  0  0  0  0
   37.5520   21.3710   33.2840 H   0  0  0  0  0  0  0  0  0  0  0  0
   36.3230   21.8000   31.2200 H   0  0  0  0  0  0  0  0  0  0  0  0
   35.9550   24.1030   30.3600 H   0  0  0  0  0  0  0  0  0  0  0  0
   36.8500   25.9590   31.6210 H   0  0  0  0  0  0  0  0  0  0  0  0
   38.1850   25.8720   33.8200 N   0  0  0  0  0  0  0  0  0  0  0  0
   39.4050   26.6140   33.9370 C   0  0  0  0  0  0  0  0  0  0  0  0
   39.6920   26.7890   35.4070 C   0  0  0  0  0  0  0  0  0  0  0  0
   38.7160   27.7080   35.9370 N   0  0  0  0  0  0  0  0  0  0  0  0
   37.4960   27.7540   35.2170 C   0  0  0  0  0  0  0  0  0  0  0  0
   37.1020   26.4910   34.5350 C   0  0  0  0  0  0  0  0  0  0  0  0
   40.2620   26.1330   33.4290 H   0  0  0  0  0  0  0  0  0  0  0  0
   39.3140   27.6220   33.4870 H   0  0  0  0  0  0  0  0  0  0  0  0
   40.0860   26.0170   35.9810 H   0  0  0  0  0  0  0  0  0  0  0  0
   40.5920   27.4990   35.3370 H   0  0  0  0  0  0  0  0  0  0  0  0
   38.6870   27.8090   36.9500 H   0  0  0  0  0  0  0  0  0  0  0  0
   37.5300   28.6120   34.4960 H   0  0  0  0  0  0  0  0  0  0  0  0
   36.6660   28.0290   35.9270 H   0  0  0  0  0  0  0  0  0  0  0  0
   36.4230   26.8350   33.6890 H   0  0  0  0  0  0  0  0  0  0  0  0
   36.4460   25.8460   35.1090 H   0  0  0  0  0  0  0  0  0  0  0  0
   38.8250   23.2720   37.2030 C   0  0  0  0  0  0  0  0  0  0  0  0
   40.0680   22.6090   37.1730 C   0  0  0  0  0  0  0  0  0  0  0  0
   40.5700   22.2270   35.9230 C   0  0  0  0  0  0  0  0  0  0  0  0
   39.8160   22.5260   34.8370 N   0  0  0  0  0  0  0  0  0  0  0  0
   38.6470   23.1510   34.8860 C   0  0  0  0  0  0  0  0  0  0  0  0
   38.1430   23.5290   36.0810 N   0  0  0  0  0  0  0  0  0  0  0  0
   40.6300   22.3940   38.0630 H   0  0  0  0  0  0  0  0  0  0  0  0
   41.8410   21.5470   35.8310 C   0  0  0  0  0  0  0  0  0  0  0  0
   42.4430   20.8280   36.8190 C   0  0  0  0  0  0  0  0  0  0  0  0
   42.0690   20.6500   37.8260 H   0  0  0  0  0  0  0  0  0  0  0  0
   43.6580   20.3100   36.3880 C   0  0  0  0  0  0  0  0  0  0  0  0
   44.3880   19.7010   36.9030 H   0  0  0  0  0  0  0  0  0  0  0  0
   43.7490   20.7480   35.1200 N   0  0  0  0  0  0  0  0  0  0  0  0
   44.4980   20.6010   34.4070 H   0  0  0  0  0  0  0  0  0  0  0  0
   42.6840   21.4670   34.8090 N   0  0  0  0  0  0  0  0  0  0  0  0
   38.3130   23.6740   38.5590 C   0  0  0  0  0  0  0  0  0  0  0  0
   37.8900   25.0130   38.4760 F   0  0  0  0  0  0  0  0  0  0  0  0
   37.3070   22.8610   38.9020 F   0  0  0  0  0  0  0  0  0  0  0  0
   39.3630   23.6650   39.4430 F   0  0  0  0  0  0  0  0  0  0  0  0
  1 30  1  0  0  0  0
  2  7  1  0  0  0  0
  2  1  2  0  0  0  0
  3  2  1  0  0  0  0
  4  3  2  0  0  0  0
  4  5  1  0  0  0  0
  5  6  2  0  0  0  0
  6  1  1  0  0  0  0
  6 11  1  0  0  0  0
  8  3  1  0  0  0  0
  9  4  1  0  0  0  0
 10  5  1  0  0  0  0
 11 12  1  0  0  0  0
 11 16  1  0  0  0  0
 12 13  1  0  0  0  0
 13 14  1  0  0  0  0
 13 19  1  0  0  0  0
 14 21  1  0  0  0  0
 15 23  1  0  0  0  0
 15 14  1  0  0  0  0
 16 25  1  0  0  0  0
 16 15  1  0  0  0  0
 17 12  1  0  0  0  0
 18 12  1  0  0  0  0
 20 13  1  0  0  0  0
 22 15  1  0  0  0  0
 24 16  1  0  0  0  0
 26 41  1  0  0  0  0
 27 26  1  0  0  0  0
 27 32  1  0  0  0  0
 28 27  2  0  0  0  0
 29 30  2  0  0  0  0
 29 28  1  0  0  0  0
 30 31  1  0  0  0  0
 31 26  2  0  0  0  0
 33 28  1  0  0  0  0
 33 34  1  0  0  0  0
 34 35  1  0  0  0  0
 36 34  2  0  0  0  0
 36 37  1  0  0  0  0
 38 36  1  0  0  0  0
 39 38  1  0  0  0  0
 40 38  1  0  0  0  0
 40 33  2  0  0  0  0
 41 43  1  0  0  0  0
 41 44  1  0  0  0  0
 42 41  1  0  0  0  0
M  END
>  <minimizedAffinity>
-6.67652416

$$$$

 OpenBabel03272505423D

 44 47  0  0  0  0  0  0  0  0999 V2000
   39.5540   22.1800   33.8850 C   0  0  0  0  0  0  0  0  0  0  0  0
   40.9380   22.0180   33.8460 C   0  0  0  0  0  0  0  0  0  0  0  0
   41.4830   21.0380   33.0370 C   0  0  0  0  0  0  0  0  0  0  0  0
   40.7310   20.1950   32.2510 C   0  0  0  0  0  0  0  0  0  0  0  0
   39.3470   20.3500   32.2850 C   0  0  0  0  0  0  0  0  0  0  0  0
   38.8260   21.3390   33.1040 C   0  0  0  0  0  0  0  0  0  0  0  0
   41.5380   22.6800   34.4630 H   0  0  0  0  0  0  0  0  0  0  0  0
   42.5670   20.9720   33.0570 H   0  0  0  0  0  0  0  0  0  0  0  0
   41.2160   19.4450   31.6360 H   0  0  0  0  0  0  0  0  0  0  0  0
   38.8120   19.6760   31.6610 H   0  0  0  0  0  0  0  0  0  0  0  0
   37.4040   21.3540   33.0130 N   0  0  0  0  0  0  0  0  0  0  0  0
   36.2760   21.0420   33.8410 C   0  0  0  0  0  0  0  0  0  0  0  0
   35.4210   20.0530   33.0900 C   0  0  0  0  0  0  0  0  0  0  0  0
   34.8140   20.7500   31.9830 N   0  0  0  0  0  0  0  0  0  0  0  0
   35.5350   21.8840   31.5330 C   0  0  0  0  0  0  0  0  0  0  0  0
   37.0110   21.8230   31.7130 C   0  0  0  0  0  0  0  0  0  0  0  0
   36.5560   20.6400   34.8320 H   0  0  0  0  0  0  0  0  0  0  0  0
   35.6580   21.9400   34.0420 H   0  0  0  0  0  0  0  0  0  0  0  0
   35.6780   19.0460   33.0290 H   0  0  0  0  0  0  0  0  0  0  0  0
   34.5190   20.0130   33.7970 H   0  0  0  0  0  0  0  0  0  0  0  0
   34.3280   20.1770   31.2950 H   0  0  0  0  0  0  0  0  0  0  0  0
   35.1050   22.8020   32.0110 H   0  0  0  0  0  0  0  0  0  0  0  0
   35.3330   22.0290   30.4340 H   0  0  0  0  0  0  0  0  0  0  0  0
   37.3300   22.9150   31.7470 H   0  0  0  0  0  0  0  0  0  0  0  0
   37.5620   21.4480   30.8560 H   0  0  0  0  0  0  0  0  0  0  0  0
   38.3600   23.9720   36.8310 C   0  0  0  0  0  0  0  0  0  0  0  0
   37.8280   25.1520   36.2740 C   0  0  0  0  0  0  0  0  0  0  0  0
   37.8940   25.3020   34.8840 C   0  0  0  0  0  0  0  0  0  0  0  0
   38.4710   24.2960   34.1810 N   0  0  0  0  0  0  0  0  0  0  0  0
   38.9680   23.1930   34.7240 C   0  0  0  0  0  0  0  0  0  0  0  0
   38.9140   23.0260   36.0630 N   0  0  0  0  0  0  0  0  0  0  0  0
   37.3790   25.9230   36.8740 H   0  0  0  0  0  0  0  0  0  0  0  0
   37.3600   26.4890   34.2580 C   0  0  0  0  0  0  0  0  0  0  0  0
   37.4000   26.7890   32.9300 C   0  0  0  0  0  0  0  0  0  0  0  0
   37.8370   26.1890   32.1330 H   0  0  0  0  0  0  0  0  0  0  0  0
   36.7920   28.0120   32.6760 C   0  0  0  0  0  0  0  0  0  0  0  0
   36.6460   28.5480   31.7490 H   0  0  0  0  0  0  0  0  0  0  0  0
   36.3950   28.4180   33.8940 N   0  0  0  0  0  0  0  0  0  0  0  0
   35.8920   29.2860   34.1850 H   0  0  0  0  0  0  0  0  0  0  0  0
   36.7320   27.5220   34.8070 N   0  0  0  0  0  0  0  0  0  0  0  0
   38.2700   23.8370   38.3260 C   0  0  0  0  0  0  0  0  0  0  0  0
   39.4970   23.3220   38.7830 F   0  0  0  0  0  0  0  0  0  0  0  0
   38.0120   25.0390   38.8570 F   0  0  0  0  0  0  0  0  0  0  0  0
   37.3280   22.8840   38.6220 F   0  0  0  0  0  0  0  0  0  0  0  0
  1 30  1  0  0  0  0
  2  1  1  0  0  0  0
  2  7  1  0  0  0  0
  3  8  1  0  0  0  0
  3  2  2  0  0  0  0
  4  5  2  0  0  0  0
  4  3  1  0  0  0  0
  5  6  1  0  0  0  0
  6  1  2  0  0  0  0
  9  4  1  0  0  0  0
 10  5  1  0  0  0  0
 11  6  1  0  0  0  0
 11 12  1  0  0  0  0
 12 18  1  0  0  0  0
 12 17  1  0  0  0  0
 13 20  1  0  0  0  0
 13 12  1  0  0  0  0
 14 13  1  0  0  0  0
 15 16  1  0  0  0  0
 15 14  1  0  0  0  0
 15 22  1  0  0  0  0
 16 24  1  0  0  0  0
 16 11  1  0  0  0  0
 19 13  1  0  0  0  0
 21 14  1  0  0  0  0
 23 15  1  0  0  0  0
 25 16  1  0  0  0  0
 26 41  1  0  0  0  0
 27 26  1  0  0  0  0
 27 32  1  0  0  0  0
 28 27  2  0  0  0  0
 29 30  2  0  0  0  0
 29 28  1  0  0  0  0
 30 31  1  0  0  0  0
 31 26  2  0  0  0  0
 33 40  2  0  0  0  0
 33 28  1  0  0  0  0
 34 33  1  0  0  0  0
 35 34  1  0  0  0  0
 36 34  2  0  0  0  0
 36 38  1  0  0  0  0
 37 36  1  0  0  0  0
 38 39  1  0  0  0  0
 38 40  1  0  0  0  0
 41 44  1  0  0  0  0
 41 42  1  0  0  0  0
 41 43  1  0  0  0  0
M  END
>  <minimizedAffinity>
-6.26289558

$$$$

 OpenBabel03272505423D

 44 47  0  0  0  0  0  0  0  0999 V2000
   36.8520   21.5900   33.7570 C   0  0  0  0  0  0  0  0  0  0  0  0
   36.1320   20.4310   34.0430 C   0  0  0  0  0  0  0  0  0  0  0  0
   35.1390   20.0180   33.1740 C   0  0  0  0  0  0  0  0  0  0  0  0
   34.8080   20.6920   32.0210 C   0  0  0  0  0  0  0  0  0  0  0  0
   35.5220   21.8520   31.7290 C   0  0  0  0  0  0  0  0  0  0  0  0
   36.5120   22.2440   32.6160 C   0  0  0  0  0  0  0  0  0  0  0  0
   36.3880   19.8930   34.9510 H   0  0  0  0  0  0  0  0  0  0  0  0
   34.6230   19.1060   33.4620 H   0  0  0  0  0  0  0  0  0  0  0  0
   34.0180   20.3190   31.3780 H   0  0  0  0  0  0  0  0  0  0  0  0
   35.2290   22.3360   30.8290 H   0  0  0  0  0  0  0  0  0  0  0  0
   37.1330   23.4430   32.1600 N   0  0  0  0  0  0  0  0  0  0  0  0
   37.2920   24.7980   32.5970 C   0  0  0  0  0  0  0  0  0  0  0  0
   36.7950   25.6940   31.4900 C   0  0  0  0  0  0  0  0  0  0  0  0
   37.7340   25.6050   30.4000 N   0  0  0  0  0  0  0  0  0  0  0  0
   38.4750   24.3980   30.3560 C   0  0  0  0  0  0  0  0  0  0  0  0
   37.7850   23.1970   30.9020 C   0  0  0  0  0  0  0  0  0  0  0  0
   36.7630   25.0200   33.5420 H   0  0  0  0  0  0  0  0  0  0  0  0
   38.3560   25.0460   32.7800 H   0  0  0  0  0  0  0  0  0  0  0  0
   35.7790   25.8470   31.3270 H   0  0  0  0  0  0  0  0  0  0  0  0
   37.1090   26.7110   31.9190 H   0  0  0  0  0  0  0  0  0  0  0  0
   37.4550   26.0370   29.5210 H   0  0  0  0  0  0  0  0  0  0  0  0
   39.4660   24.5590   30.8550 H   0  0  0  0  0  0  0  0  0  0  0  0
   38.7430   24.1750   29.2850 H   0  0  0  0  0  0  0  0  0  0  0  0
   38.6350   22.5050   31.2060 H   0  0  0  0  0  0  0  0  0  0  0  0
   37.2520   22.6010   30.1690 H   0  0  0  0  0  0  0  0  0  0  0  0
   38.5460   22.9850   36.6730 C   0  0  0  0  0  0  0  0  0  0  0  0
   39.9040   22.8860   36.3120 C   0  0  0  0  0  0  0  0  0  0  0  0
   40.2050   22.3340   35.0610 C   0  0  0  0  0  0  0  0  0  0  0  0
   39.1610   21.9360   34.2940 N   0  0  0  0  0  0  0  0  0  0  0  0
   37.8880   22.0370   34.6510 C   0  0  0  0  0  0  0  0  0  0  0  0
   37.5730   22.5670   35.8530 N   0  0  0  0  0  0  0  0  0  0  0  0
   40.6990   23.2160   36.9560 H   0  0  0  0  0  0  0  0  0  0  0  0
   41.5800   22.2110   34.6370 C   0  0  0  0  0  0  0  0  0  0  0  0
   42.5180   23.1990   34.6460 C   0  0  0  0  0  0  0  0  0  0  0  0
   42.3850   24.2300   34.9700 H   0  0  0  0  0  0  0  0  0  0  0  0
   43.7380   22.7320   34.1720 C   0  0  0  0  0  0  0  0  0  0  0  0
   44.6850   23.2370   34.0440 H   0  0  0  0  0  0  0  0  0  0  0  0
   43.4860   21.4430   33.8850 N   0  0  0  0  0  0  0  0  0  0  0  0
   44.1140   20.7020   33.5020 H   0  0  0  0  0  0  0  0  0  0  0  0
   42.2260   21.1520   34.1610 N   0  0  0  0  0  0  0  0  0  0  0  0
   38.2530   23.5860   38.0190 C   0  0  0  0  0  0  0  0  0  0  0  0
   39.4000   23.4260   38.8180 F   0  0  0  0  0  0  0  0  0  0  0  0
   37.9400   24.8790   37.8600 F   0  0  0  0  0  0  0  0  0  0  0  0
   37.2670   22.8450   38.6230 F   0  0  0  0  0  0  0  0  0  0  0  0
  1  2  1  0  0  0  0
  1 30  1  0  0  0  0
  2  7  1  0  0  0  0
  3  8  1  0  0  0  0
  3  2  2  0  0  0  0
  4  3  1  0  0  0  0
  5  4  2  0  0  0  0
  5  6  1  0  0  0  0
  6  1  2  0  0  0  0
  9  4  1  0  0  0  0
 10  5  1  0  0  0  0
 11 12  1  0  0  0  0
 11  6  1  0  0  0  0
 12 18  1  0  0  0  0
 12 17  1  0  0  0  0
 13 20  1  0  0  0  0
 13 12  1  0  0  0  0
 14 13  1  0  0  0  0
 15 14  1  0  0  0  0
 15 22  1  0  0  0  0
 15 16  1  0  0  0  0
 16 24  1  0  0  0  0
 16 11  1  0  0  0  0
 19 13  1  0  0  0  0
 21 14  1  0  0  0  0
 23 15  1  0  0  0  0
 25 16  1  0  0  0  0
 26 41  1  0  0  0  0
 27 26  1  0  0  0  0
 27 32  1  0  0  0  0
 28 27  2  0  0  0  0
 29 30  2  0  0  0  0
 29 28  1  0  0  0  0
 30 31  1  0  0  0  0
 31 26  2  0  0  0  0
 33 34  1  0  0  0  0
 33 28  1  0  0  0  0
 34 35  1  0  0  0  0
 36 34  2  0  0  0  0
 37 36  1  0  0  0  0
 38 40  1  0  0  0  0
 38 36  1  0  0  0  0
 39 38  1  0  0  0  0
 40 33  2  0  0  0  0
 41 44  1  0  0  0  0
 41 42  1  0  0  0  0
 43 41  1  0  0  0  0
M  END
>  <minimizedAffinity>
-6.20468092

$$$$

 OpenBabel03272505423D

 44 47  0  0  0  0  0  0  0  0999 V2000
   40.7960   25.0590   34.7640 C   0  0  0  0  0  0  0  0  0  0  0  0
   42.1090   24.5900   34.7470 C   0  0  0  0  0  0  0  0  0  0  0  0
   43.1090   25.3900   34.2260 C   0  0  0  0  0  0  0  0  0  0  0  0
   42.8870   26.6470   33.7120 C   0  0  0  0  0  0  0  0  0  0  0  0
   41.5780   27.1240   33.7240 C   0  0  0  0  0  0  0  0  0  0  0  0
   40.5940   26.3020   34.2510 C   0  0  0  0  0  0  0  0  0  0  0  0
   42.2920   23.5990   35.1520 H   0  0  0  0  0  0  0  0  0  0  0  0
   44.1050   24.9580   34.2480 H   0  0  0  0  0  0  0  0  0  0  0  0
   43.7120   27.2290   33.3170 H   0  0  0  0  0  0  0  0  0  0  0  0
   41.4580   28.0980   33.3160 H   0  0  0  0  0  0  0  0  0  0  0  0
   39.3260   26.9470   34.1830 N   0  0  0  0  0  0  0  0  0  0  0  0
   38.3700   27.5260   35.0800 C   0  0  0  0  0  0  0  0  0  0  0  0
   37.0430   26.8560   34.8240 C   0  0  0  0  0  0  0  0  0  0  0  0
   36.5700   27.2990   33.5360 N   0  0  0  0  0  0  0  0  0  0  0  0
   37.5900   27.7110   32.6420 C   0  0  0  0  0  0  0  0  0  0  0  0
   38.9060   27.0350   32.8100 C   0  0  0  0  0  0  0  0  0  0  0  0
   38.6530   27.4310   36.1450 H   0  0  0  0  0  0  0  0  0  0  0  0
   38.2430   28.6110   34.8950 H   0  0  0  0  0  0  0  0  0  0  0  0
   36.8340   25.9040   35.1870 H   0  0  0  0  0  0  0  0  0  0  0  0
   36.3750   27.5040   35.4960 H   0  0  0  0  0  0  0  0  0  0  0  0
   35.7580   26.8150   33.1570 H   0  0  0  0  0  0  0  0  0  0  0  0
   37.6950   28.8260   32.6980 H   0  0  0  0  0  0  0  0  0  0  0  0
   37.2460   27.5220   31.5870 H   0  0  0  0  0  0  0  0  0  0  0  0
   39.6540   27.7780   32.3800 H   0  0  0  0  0  0  0  0  0  0  0  0
   39.0580   26.1640   32.1820 H   0  0  0  0  0  0  0  0  0  0  0  0
   38.4460   23.5290   37.0980 C   0  0  0  0  0  0  0  0  0  0  0  0
   37.7290   22.6430   36.2700 C   0  0  0  0  0  0  0  0  0  0  0  0
   38.0760   22.5950   34.9140 C   0  0  0  0  0  0  0  0  0  0  0  0
   39.0780   23.4100   34.5050 N   0  0  0  0  0  0  0  0  0  0  0  0
   39.7420   24.2390   35.2990 C   0  0  0  0  0  0  0  0  0  0  0  0
   39.4240   24.3020   36.6110 N   0  0  0  0  0  0  0  0  0  0  0  0
   36.9400   22.0140   36.6430 H   0  0  0  0  0  0  0  0  0  0  0  0
   37.3770   21.7010   34.0210 C   0  0  0  0  0  0  0  0  0  0  0  0
   36.1850   21.0870   34.2640 C   0  0  0  0  0  0  0  0  0  0  0  0
   35.5740   21.1690   35.1610 H   0  0  0  0  0  0  0  0  0  0  0  0
   35.8030   20.2970   33.1870 C   0  0  0  0  0  0  0  0  0  0  0  0
   34.9290   19.6790   33.0400 H   0  0  0  0  0  0  0  0  0  0  0  0
   36.8060   20.4670   32.3070 N   0  0  0  0  0  0  0  0  0  0  0  0
   36.9430   20.0630   31.3550 H   0  0  0  0  0  0  0  0  0  0  0  0
   37.7160   21.2870   32.8060 N   0  0  0  0  0  0  0  0  0  0  0  0
   38.0540   23.5560   38.5490 C   0  0  0  0  0  0  0  0  0  0  0  0
   37.5330   24.8330   38.8280 F   0  0  0  0  0  0  0  0  0  0  0  0
   37.1480   22.5960   38.7730 F   0  0  0  0  0  0  0  0  0  0  0  0
   39.1900   23.4390   39.3100 F   0  0  0  0  0  0  0  0  0  0  0  0
  1 30  1  0  0  0  0
  2  1  1  0  0  0  0
  2  7  1  0  0  0  0
  3  8  1  0  0  0  0
  3  2  2  0  0  0  0
  4  5  2  0  0  0  0
  4  3  1  0  0  0  0
  5  6  1  0  0  0  0
  6  1  2  0  0  0  0
  9  4  1  0  0  0  0
 10  5  1  0  0  0  0
 11  6  1  0  0  0  0
 11 12  1  0  0  0  0
 12 17  1  0  0  0  0
 13 12  1  0  0  0  0
 13 19  1  0  0  0  0
 13 20  1  0  0  0  0
 14 13  1  0  0  0  0
 15 22  1  0  0  0  0
 15 16  1  0  0  0  0
 15 14  1  0  0  0  0
 16 11  1  0  0  0  0
 18 12  1  0  0  0  0
 21 14  1  0  0  0  0
 23 15  1  0  0  0  0
 24 16  1  0  0  0  0
 25 16  1  0  0  0  0
 26 41  1  0  0  0  0
 27 32  1  0  0  0  0
 27 26  2  0  0  0  0
 28 27  1  0  0  0  0
 29 28  2  0  0  0  0
 29 30  1  0  0  0  0
 30 31  2  0  0  0  0
 31 26  1  0  0  0  0
 33 34  1  0  0  0  0
 33 28  1  0  0  0  0
 34 35  1  0  0  0  0
 36 34  2  0  0  0  0
 37 36  1  0  0  0  0
 38 40  1  0  0  0  0
 38 36  1  0  0  0  0
 39 38  1  0  0  0  0
 40 33  2  0  0  0  0
 41 43  1  0  0  0  0
 41 42  1  0  0  0  0
 41 44  1  0  0  0  0
M  END
>  <minimizedAffinity>
-6.10186529

$$$$

 OpenBabel03272505423D

 44 47  0  0  0  0  0  0  0  0999 V2000
   36.0850   29.2080   31.8520 C   0  0  0  0  0  0  0  0  0  0  0  0
   36.1600   29.8320   30.6080 C   0  0  0  0  0  0  0  0  0  0  0  0
   37.1920   29.5080   29.7470 C   0  0  0  0  0  0  0  0  0  0  0  0
   38.1720   28.5890   30.0470 C   0  0  0  0  0  0  0  0  0  0  0  0
   38.1050   27.9610   31.2880 C   0  0  0  0  0  0  0  0  0  0  0  0
   37.0610   28.3040   32.1320 C   0  0  0  0  0  0  0  0  0  0  0  0
   35.3890   30.5590   30.3650 H   0  0  0  0  0  0  0  0  0  0  0  0
   37.1840   30.0340   28.7970 H   0  0  0  0  0  0  0  0  0  0  0  0
   38.9580   28.3770   29.3300 H   0  0  0  0  0  0  0  0  0  0  0  0
   38.8840   27.2610   31.4710 H   0  0  0  0  0  0  0  0  0  0  0  0
   37.1500   27.5680   33.3490 N   0  0  0  0  0  0  0  0  0  0  0  0
   36.9980   27.8020   34.7540 C   0  0  0  0  0  0  0  0  0  0  0  0
   38.2680   27.3520   35.4310 C   0  0  0  0  0  0  0  0  0  0  0  0
   38.3160   25.9130   35.3580 N   0  0  0  0  0  0  0  0  0  0  0  0
   37.5900   25.3520   34.2780 C   0  0  0  0  0  0  0  0  0  0  0  0
   37.4880   26.2010   33.0590 C   0  0  0  0  0  0  0  0  0  0  0  0
   36.7790   28.8580   35.0030 H   0  0  0  0  0  0  0  0  0  0  0  0
   36.1610   27.2120   35.1770 H   0  0  0  0  0  0  0  0  0  0  0  0
   39.1320   27.9310   35.4100 H   0  0  0  0  0  0  0  0  0  0  0  0
   37.9460   27.4680   36.5270 H   0  0  0  0  0  0  0  0  0  0  0  0
   39.1900   25.4710   35.6380 H   0  0  0  0  0  0  0  0  0  0  0  0
   36.5770   25.0400   34.6420 H   0  0  0  0  0  0  0  0  0  0  0  0
   38.0800   24.3840   33.9750 H   0  0  0  0  0  0  0  0  0  0  0  0
   36.5460   25.8270   32.5410 H   0  0  0  0  0  0  0  0  0  0  0  0
   38.2510   26.0200   32.3090 H   0  0  0  0  0  0  0  0  0  0  0  0
   32.8270   29.2560   33.4940 C   0  0  0  0  0  0  0  0  0  0  0  0
   33.0170   30.2030   34.5190 C   0  0  0  0  0  0  0  0  0  0  0  0
   34.2760   30.8070   34.6210 C   0  0  0  0  0  0  0  0  0  0  0  0
   35.2170   30.4290   33.7210 N   0  0  0  0  0  0  0  0  0  0  0  0
   35.0190   29.5340   32.7630 C   0  0  0  0  0  0  0  0  0  0  0  0
   33.8120   28.9390   32.6450 N   0  0  0  0  0  0  0  0  0  0  0  0
   32.2380   30.4720   35.2110 H   0  0  0  0  0  0  0  0  0  0  0  0
   34.5270   31.7880   35.6510 C   0  0  0  0  0  0  0  0  0  0  0  0
   34.8870   33.0880   35.4570 C   0  0  0  0  0  0  0  0  0  0  0  0
   35.0430   33.5920   34.5040 H   0  0  0  0  0  0  0  0  0  0  0  0
   35.0450   33.7480   36.6690 C   0  0  0  0  0  0  0  0  0  0  0  0
   35.3210   34.7700   36.8840 H   0  0  0  0  0  0  0  0  0  0  0  0
   34.7670   32.7970   37.5770 N   0  0  0  0  0  0  0  0  0  0  0  0
   34.7590   32.8420   38.6200 H   0  0  0  0  0  0  0  0  0  0  0  0
   34.4660   31.6610   36.9710 N   0  0  0  0  0  0  0  0  0  0  0  0
   31.4640   28.6280   33.4060 C   0  0  0  0  0  0  0  0  0  0  0  0
   31.1490   28.1110   34.6760 F   0  0  0  0  0  0  0  0  0  0  0  0
   30.5800   29.5580   33.0210 F   0  0  0  0  0  0  0  0  0  0  0  0
   31.5350   27.5460   32.5660 F   0  0  0  0  0  0  0  0  0  0  0  0
  1  6  1  0  0  0  0
  1 30  1  0  0  0  0
  2  1  2  0  0  0  0
  3  4  2  0  0  0  0
  3  2  1  0  0  0  0
  4  5  1  0  0  0  0
  5 10  1  0  0  0  0
  5  6  2  0  0  0  0
  6 11  1  0  0  0  0
  7  2  1  0  0  0  0
  8  3  1  0  0  0  0
  9  4  1  0  0  0  0
 11 12  1  0  0  0  0
 12 17  1  0  0  0  0
 12 18  1  0  0  0  0
 12 13  1  0  0  0  0
 13 20  1  0  0  0  0
 14 13  1  0  0  0  0
 14 21  1  0  0  0  0
 15 22  1  0  0  0  0
 15 14  1  0  0  0  0
 16 11  1  0  0  0  0
 16 15  1  0  0  0  0
 19 13  1  0  0  0  0
 23 15  1  0  0  0  0
 24 16  1  0  0  0  0
 25 16  1  0  0  0  0
 26 27  1  0  0  0  0
 27 28  2  0  0  0  0
 27 32  1  0  0  0  0
 28 33  1  0  0  0  0
 29 28  1  0  0  0  0
 30 29  2  0  0  0  0
 31 30  1  0  0  0  0
 31 26  2  0  0  0  0
 33 40  2  0  0  0  0
 34 33  1  0  0  0  0
 34 36  2  0  0  0  0
 35 34  1  0  0  0  0
 36 37  1  0  0  0  0
 36 38  1  0  0  0  0
 38 39  1  0  0  0  0
 40 38  1  0  0  0  0
 41 26  1  0  0  0  0
 41 42  1  0  0  0  0
 43 41  1  0  0  0  0
 44 41  1  0  0  0  0
M  END
>  <minimizedAffinity>
-6.04747581

$$$$

 OpenBabel03272505423D

 44 47  0  0  0  0  0  0  0  0999 V2000
   40.2000   25.2570   34.3900 C   0  0  0  0  0  0  0  0  0  0  0  0
   39.7230   26.4560   33.8630 C   0  0  0  0  0  0  0  0  0  0  0  0
   40.6030   27.3180   33.2340 C   0  0  0  0  0  0  0  0  0  0  0  0
   41.9470   27.0620   33.0920 C   0  0  0  0  0  0  0  0  0  0  0  0
   42.4320   25.8670   33.6170 C   0  0  0  0  0  0  0  0  0  0  0  0
   41.5310   25.0210   34.2420 C   0  0  0  0  0  0  0  0  0  0  0  0
   38.6630   26.6640   33.9710 H   0  0  0  0  0  0  0  0  0  0  0  0
   40.1590   28.2310   32.8470 H   0  0  0  0  0  0  0  0  0  0  0  0
   42.5890   27.7780   32.5880 H   0  0  0  0  0  0  0  0  0  0  0  0
   43.4760   25.7170   33.4820 H   0  0  0  0  0  0  0  0  0  0  0  0
   42.1970   23.8540   34.7150 N   0  0  0  0  0  0  0  0  0  0  0  0
   42.3000   22.4670   34.3700 C   0  0  0  0  0  0  0  0  0  0  0  0
   41.9340   21.6650   35.5940 C   0  0  0  0  0  0  0  0  0  0  0  0
   42.9940   21.8270   36.5570 N   0  0  0  0  0  0  0  0  0  0  0  0
   43.7380   23.0250   36.4200 C   0  0  0  0  0  0  0  0  0  0  0  0
   42.9920   24.1880   35.8650 C   0  0  0  0  0  0  0  0  0  0  0  0
   41.6640   22.1790   33.5130 H   0  0  0  0  0  0  0  0  0  0  0  0
   43.3350   22.1940   34.0840 H   0  0  0  0  0  0  0  0  0  0  0  0
   40.9430   21.5380   35.8850 H   0  0  0  0  0  0  0  0  0  0  0  0
   42.1930   20.6150   35.2120 H   0  0  0  0  0  0  0  0  0  0  0  0
   42.8180   21.4680   37.4940 H   0  0  0  0  0  0  0  0  0  0  0  0
   44.6640   22.8140   35.8240 H   0  0  0  0  0  0  0  0  0  0  0  0
   44.1300   23.3270   37.4320 H   0  0  0  0  0  0  0  0  0  0  0  0
   43.8030   24.8450   35.4120 H   0  0  0  0  0  0  0  0  0  0  0  0
   42.5510   24.8450   36.6070 H   0  0  0  0  0  0  0  0  0  0  0  0
   38.2970   23.5480   36.9930 C   0  0  0  0  0  0  0  0  0  0  0  0
   37.5800   22.5830   36.2600 C   0  0  0  0  0  0  0  0  0  0  0  0
   37.7710   22.5440   34.8740 C   0  0  0  0  0  0  0  0  0  0  0  0
   38.6340   23.4450   34.3440 N   0  0  0  0  0  0  0  0  0  0  0  0
   39.3000   24.3480   35.0510 C   0  0  0  0  0  0  0  0  0  0  0  0
   39.1320   24.4040   36.3900 N   0  0  0  0  0  0  0  0  0  0  0  0
   36.9050   21.8870   36.7270 H   0  0  0  0  0  0  0  0  0  0  0  0
   37.0640   21.5720   34.0730 C   0  0  0  0  0  0  0  0  0  0  0  0
   35.9350   20.8990   34.4330 C   0  0  0  0  0  0  0  0  0  0  0  0
   35.3890   20.9840   35.3710 H   0  0  0  0  0  0  0  0  0  0  0  0
   35.5240   20.0400   33.4210 C   0  0  0  0  0  0  0  0  0  0  0  0
   34.6810   19.3650   33.3680 H   0  0  0  0  0  0  0  0  0  0  0  0
   36.4440   20.2300   32.4600 N   0  0  0  0  0  0  0  0  0  0  0  0
   36.5340   19.7930   31.5160 H   0  0  0  0  0  0  0  0  0  0  0  0
   37.3350   21.1250   32.8530 N   0  0  0  0  0  0  0  0  0  0  0  0
   38.0760   23.5630   38.4800 C   0  0  0  0  0  0  0  0  0  0  0  0
   37.6440   24.8540   38.8350 F   0  0  0  0  0  0  0  0  0  0  0  0
   37.1620   22.6350   38.7920 F   0  0  0  0  0  0  0  0  0  0  0  0
   39.2850   23.3850   39.1040 F   0  0  0  0  0  0  0  0  0  0  0  0
  1 30  1  0  0  0  0
  2  7  1  0  0  0  0
  2  1  2  0  0  0  0
  3  2  1  0  0  0  0
  4  3  2  0  0  0  0
  4  5  1  0  0  0  0
  5  6  2  0  0  0  0
  6  1  1  0  0  0  0
  6 11  1  0  0  0  0
  8  3  1  0  0  0  0
  9  4  1  0  0  0  0
 10  5  1  0  0  0  0
 11 16  1  0  0  0  0
 12 11  1  0  0  0  0
 12 13  1  0  0  0  0
 13 19  1  0  0  0  0
 13 14  1  0  0  0  0
 14 21  1  0  0  0  0
 15 14  1  0  0  0  0
 15 23  1  0  0  0  0
 16 15  1  0  0  0  0
 16 25  1  0  0  0  0
 17 12  1  0  0  0  0
 18 12  1  0  0  0  0
 20 13  1  0  0  0  0
 22 15  1  0  0  0  0
 24 16  1  0  0  0  0
 26 41  1  0  0  0  0
 27 32  1  0  0  0  0
 27 26  2  0  0  0  0
 28 27  1  0  0  0  0
 29 28  2  0  0  0  0
 29 30  1  0  0  0  0
 30 31  2  0  0  0  0
 31 26  1  0  0  0  0
 33 34  1  0  0  0  0
 33 28  1  0  0  0  0
 34 35  1  0  0  0  0
 36 34  2  0  0  0  0
 37 36  1  0  0  0  0
 38 40  1  0  0  0  0
 38 36  1  0  0  0  0
 39 38  1  0  0  0  0
 40 33  2  0  0  0  0
 41 43  1  0  0  0  0
 41 42  1  0  0  0  0
 41 44  1  0  0  0  0
M  END
>  <minimizedAffinity>
-5.98813105

$$$$

 OpenBabel03272505423D

 44 47  0  0  0  0  0  0  0  0999 V2000
   37.5750   25.5770   32.4100 C   0  0  0  0  0  0  0  0  0  0  0  0
   36.3420   26.0320   31.9440 C   0  0  0  0  0  0  0  0  0  0  0  0
   36.2700   27.2500   31.2950 C   0  0  0  0  0  0  0  0  0  0  0  0
   37.3600   28.0600   31.0730 C   0  0  0  0  0  0  0  0  0  0  0  0
   38.5960   27.6130   31.5360 C   0  0  0  0  0  0  0  0  0  0  0  0
   38.6410   26.3890   32.1840 C   0  0  0  0  0  0  0  0  0  0  0  0
   35.4770   25.3980   32.1150 H   0  0  0  0  0  0  0  0  0  0  0  0
   35.2770   27.5380   30.9600 H   0  0  0  0  0  0  0  0  0  0  0  0
   37.2410   29.0060   30.5570 H   0  0  0  0  0  0  0  0  0  0  0  0
   39.4060   28.2740   31.3410 H   0  0  0  0  0  0  0  0  0  0  0  0
   39.9760   26.0940   32.5860 N   0  0  0  0  0  0  0  0  0  0  0  0
   41.0220   25.1810   32.2330 C   0  0  0  0  0  0  0  0  0  0  0  0
   41.4350   24.4550   33.4890 C   0  0  0  0  0  0  0  0  0  0  0  0
   42.1180   25.4000   34.3370 N   0  0  0  0  0  0  0  0  0  0  0  0
   41.7570   26.7540   34.1220 C   0  0  0  0  0  0  0  0  0  0  0  0
   40.3650   26.9830   33.6470 C   0  0  0  0  0  0  0  0  0  0  0  0
   40.7290   24.4600   31.4470 H   0  0  0  0  0  0  0  0  0  0  0  0
   41.9120   25.7120   31.8410 H   0  0  0  0  0  0  0  0  0  0  0  0
   40.8650   23.6790   33.8830 H   0  0  0  0  0  0  0  0  0  0  0  0
   42.3430   23.8840   33.0840 H   0  0  0  0  0  0  0  0  0  0  0  0
   42.3230   25.0960   35.2870 H   0  0  0  0  0  0  0  0  0  0  0  0
   42.5050   27.2260   33.4330 H   0  0  0  0  0  0  0  0  0  0  0  0
   41.8820   27.3200   35.0880 H   0  0  0  0  0  0  0  0  0  0  0  0
   40.4180   27.9850   33.1110 H   0  0  0  0  0  0  0  0  0  0  0  0
   39.6400   27.1780   34.4300 H   0  0  0  0  0  0  0  0  0  0  0  0
   37.4640   21.9940   33.0910 C   0  0  0  0  0  0  0  0  0  0  0  0
   37.8530   21.9290   34.4430 C   0  0  0  0  0  0  0  0  0  0  0  0
   38.1480   23.1340   35.0930 C   0  0  0  0  0  0  0  0  0  0  0  0
   38.0360   24.2710   34.3650 N   0  0  0  0  0  0  0  0  0  0  0  0
   37.6690   24.3120   33.0910 C   0  0  0  0  0  0  0  0  0  0  0  0
   37.3790   23.1630   32.4440 N   0  0  0  0  0  0  0  0  0  0  0  0
   37.9270   21.0000   34.9800 H   0  0  0  0  0  0  0  0  0  0  0  0
   38.5480   23.1270   36.4810 C   0  0  0  0  0  0  0  0  0  0  0  0
   37.8950   23.7340   37.5110 C   0  0  0  0  0  0  0  0  0  0  0  0
   36.9760   24.3160   37.4570 H   0  0  0  0  0  0  0  0  0  0  0  0
   38.5580   23.5240   38.7140 C   0  0  0  0  0  0  0  0  0  0  0  0
   38.3240   23.8560   39.7160 H   0  0  0  0  0  0  0  0  0  0  0  0
   39.6170   22.7770   38.3570 N   0  0  0  0  0  0  0  0  0  0  0  0
   40.3910   22.3830   38.9370 H   0  0  0  0  0  0  0  0  0  0  0  0
   39.5990   22.5530   37.0540 N   0  0  0  0  0  0  0  0  0  0  0  0
   37.1500   20.6850   32.4200 C   0  0  0  0  0  0  0  0  0  0  0  0
   36.5850   20.9730   31.1650 F   0  0  0  0  0  0  0  0  0  0  0  0
   38.2800   19.9760   32.3000 F   0  0  0  0  0  0  0  0  0  0  0  0
   36.1690   20.0510   33.1390 F   0  0  0  0  0  0  0  0  0  0  0  0
  1 30  1  0  0  0  0
  2  7  1  0  0  0  0
  2  1  2  0  0  0  0
  3  2  1  0  0  0  0
  4  3  2  0  0  0  0
  4  5  1  0  0  0  0
  5  6  2  0  0  0  0
  6  1  1  0  0  0  0
  6 11  1  0  0  0  0
  8  3  1  0  0  0  0
  9  4  1  0  0  0  0
 10  5  1  0  0  0  0
 11 16  1  0  0  0  0
 12 11  1  0  0  0  0
 12 13  1  0  0  0  0
 13 19  1  0  0  0  0
 13 14  1  0  0  0  0
 14 21  1  0  0  0  0
 15 14  1  0  0  0  0
 15 23  1  0  0  0  0
 16 15  1  0  0  0  0
 16 25  1  0  0  0  0
 17 12  1  0  0  0  0
 18 12  1  0  0  0  0
 20 13  1  0  0  0  0
 22 15  1  0  0  0  0
 24 16  1  0  0  0  0
 26 27  1  0  0  0  0
 27 32  1  0  0  0  0
 27 28  2  0  0  0  0
 28 33  1  0  0  0  0
 29 28  1  0  0  0  0
 30 29  2  0  0  0  0
 31 30  1  0  0  0  0
 31 26  2  0  0  0  0
 33 40  2  0  0  0  0
 33 34  1  0  0  0  0
 34 36  2  0  0  0  0
 35 34  1  0  0  0  0
 36 37  1  0  0  0  0
 38 36  1  0  0  0  0
 38 39  1  0  0  0  0
 40 38  1  0  0  0  0
 41 26  1  0  0  0  0
 41 44  1  0  0  0  0
 42 41  1  0  0  0  0
 43 41  1  0  0  0  0
M  END
>  <minimizedAffinity>
-5.94944143

$$$$

 OpenBabel03272505423D

 44 47  0  0  0  0  0  0  0  0999 V2000
   39.6780   26.2580   33.6270 C   0  0  0  0  0  0  0  0  0  0  0  0
   40.7580   26.9730   33.1120 C   0  0  0  0  0  0  0  0  0  0  0  0
   42.0220   26.7590   33.6300 C   0  0  0  0  0  0  0  0  0  0  0  0
   42.2870   25.8660   34.6430 C   0  0  0  0  0  0  0  0  0  0  0  0
   41.2130   25.1480   35.1630 C   0  0  0  0  0  0  0  0  0  0  0  0
   39.9570   25.3820   34.6270 C   0  0  0  0  0  0  0  0  0  0  0  0
   40.5560   27.6800   32.3120 H   0  0  0  0  0  0  0  0  0  0  0  0
   42.8130   27.3510   33.1780 H   0  0  0  0  0  0  0  0  0  0  0  0
   43.3010   25.7410   35.0080 H   0  0  0  0  0  0  0  0  0  0  0  0
   41.4700   24.4720   35.9430 H   0  0  0  0  0  0  0  0  0  0  0  0
   38.9860   24.5650   35.2760 N   0  0  0  0  0  0  0  0  0  0  0  0
   37.9160   24.7190   36.2160 C   0  0  0  0  0  0  0  0  0  0  0  0
   38.1720   23.7650   37.3560 C   0  0  0  0  0  0  0  0  0  0  0  0
   37.9640   22.4270   36.8620 N   0  0  0  0  0  0  0  0  0  0  0  0
   38.1530   22.2770   35.4660 C   0  0  0  0  0  0  0  0  0  0  0  0
   39.1400   23.2020   34.8450 C   0  0  0  0  0  0  0  0  0  0  0  0
   37.8060   25.7530   36.5920 H   0  0  0  0  0  0  0  0  0  0  0  0
   36.9380   24.4550   35.7670 H   0  0  0  0  0  0  0  0  0  0  0  0
   38.8740   23.9740   38.0940 H   0  0  0  0  0  0  0  0  0  0  0  0
   37.1900   23.9000   37.9350 H   0  0  0  0  0  0  0  0  0  0  0  0
   38.2480   21.6650   37.4770 H   0  0  0  0  0  0  0  0  0  0  0  0
   37.1580   22.3410   34.9540 H   0  0  0  0  0  0  0  0  0  0  0  0
   38.4980   21.2250   35.2570 H   0  0  0  0  0  0  0  0  0  0  0  0
   38.8180   23.2590   33.7550 H   0  0  0  0  0  0  0  0  0  0  0  0
   40.1490   22.8110   34.7680 H   0  0  0  0  0  0  0  0  0  0  0  0
   36.5250   25.7310   31.8670 C   0  0  0  0  0  0  0  0  0  0  0  0
   35.8330   26.9320   32.1160 C   0  0  0  0  0  0  0  0  0  0  0  0
   36.4760   27.9040   32.8920 C   0  0  0  0  0  0  0  0  0  0  0  0
   37.7190   27.6090   33.3460 N   0  0  0  0  0  0  0  0  0  0  0  0
   38.3540   26.4700   33.1020 C   0  0  0  0  0  0  0  0  0  0  0  0
   37.7530   25.5180   32.3550 N   0  0  0  0  0  0  0  0  0  0  0  0
   34.8460   27.1210   31.7330 H   0  0  0  0  0  0  0  0  0  0  0  0
   35.8160   29.1570   33.1750 C   0  0  0  0  0  0  0  0  0  0  0  0
   35.5760   29.6810   34.4100 C   0  0  0  0  0  0  0  0  0  0  0  0
   35.8410   29.2460   35.3720 H   0  0  0  0  0  0  0  0  0  0  0  0
   34.9200   30.9020   34.3140 C   0  0  0  0  0  0  0  0  0  0  0  0
   34.5820   31.5830   35.0820 H   0  0  0  0  0  0  0  0  0  0  0  0
   34.7830   31.0760   32.9880 N   0  0  0  0  0  0  0  0  0  0  0  0
   34.3470   31.8590   32.4520 H   0  0  0  0  0  0  0  0  0  0  0  0
   35.3090   30.0520   32.3370 N   0  0  0  0  0  0  0  0  0  0  0  0
   35.8110   24.7080   31.0270 C   0  0  0  0  0  0  0  0  0  0  0  0
   34.8650   25.3870   30.2390 F   0  0  0  0  0  0  0  0  0  0  0  0
   36.7090   24.0630   30.2710 F   0  0  0  0  0  0  0  0  0  0  0  0
   35.0910   23.8870   31.8580 F   0  0  0  0  0  0  0  0  0  0  0  0
  1  6  1  0  0  0  0
  2  1  2  0  0  0  0
  2  3  1  0  0  0  0
  3  4  2  0  0  0  0
  4  9  1  0  0  0  0
  4  5  1  0  0  0  0
  5 10  1  0  0  0  0
  6  5  2  0  0  0  0
  6 11  1  0  0  0  0
  7  2  1  0  0  0  0
  8  3  1  0  0  0  0
 11 12  1  0  0  0  0
 12 17  1  0  0  0  0
 12 13  1  0  0  0  0
 13 20  1  0  0  0  0
 13 19  1  0  0  0  0
 14 13  1  0  0  0  0
 14 21  1  0  0  0  0
 15 14  1  0  0  0  0
 16 11  1  0  0  0  0
 16 15  1  0  0  0  0
 18 12  1  0  0  0  0
 22 15  1  0  0  0  0
 23 15  1  0  0  0  0
 24 16  1  0  0  0  0
 25 16  1  0  0  0  0
 26 27  2  0  0  0  0
 26 31  1  0  0  0  0
 27 28  1  0  0  0  0
 28 33  1  0  0  0  0
 28 29  2  0  0  0  0
 30 29  1  0  0  0  0
 30  1  1  0  0  0  0
 31 30  2  0  0  0  0
 32 27  1  0  0  0  0
 33 34  1  0  0  0  0
 34 35  1  0  0  0  0
 36 34  2  0  0  0  0
 36 37  1  0  0  0  0
 38 36  1  0  0  0  0
 39 38  1  0  0  0  0
 40 38  1  0  0  0  0
 40 33  2  0  0  0  0
 41 44  1  0  0  0  0
 41 26  1  0  0  0  0
 42 41  1  0  0  0  0
 43 41  1  0  0  0  0
M  END
>  <minimizedAffinity>
-5.94203424

$$$$

 OpenBabel03272505423D

 44 47  0  0  0  0  0  0  0  0999 V2000
   37.1070   24.5890   32.2870 C   0  0  0  0  0  0  0  0  0  0  0  0
   36.7660   25.9290   32.1120 C   0  0  0  0  0  0  0  0  0  0  0  0
   35.6500   26.2530   31.3630 C   0  0  0  0  0  0  0  0  0  0  0  0
   34.8360   25.3170   30.7670 C   0  0  0  0  0  0  0  0  0  0  0  0
   35.1700   23.9750   30.9370 C   0  0  0  0  0  0  0  0  0  0  0  0
   36.2930   23.6770   31.6910 C   0  0  0  0  0  0  0  0  0  0  0  0
   37.4040   26.6740   32.5800 H   0  0  0  0  0  0  0  0  0  0  0  0
   35.4470   27.3160   31.2710 H   0  0  0  0  0  0  0  0  0  0  0  0
   33.9730   25.6320   30.1910 H   0  0  0  0  0  0  0  0  0  0  0  0
   34.5110   23.2920   30.4570 H   0  0  0  0  0  0  0  0  0  0  0  0
   36.4810   22.2670   31.7590 N   0  0  0  0  0  0  0  0  0  0  0  0
   37.3680   21.2790   31.2200 C   0  0  0  0  0  0  0  0  0  0  0  0
   36.5240   20.2340   30.5350 C   0  0  0  0  0  0  0  0  0  0  0  0
   35.8210   19.4990   31.5570 N   0  0  0  0  0  0  0  0  0  0  0  0
   35.6150   20.2150   32.7620 C   0  0  0  0  0  0  0  0  0  0  0  0
   35.4860   21.6910   32.6230 C   0  0  0  0  0  0  0  0  0  0  0  0
   38.1160   21.6950   30.5200 H   0  0  0  0  0  0  0  0  0  0  0  0
   37.9490   20.7740   32.0180 H   0  0  0  0  0  0  0  0  0  0  0  0
   36.1090   20.3990   29.5950 H   0  0  0  0  0  0  0  0  0  0  0  0
   37.3410   19.4670   30.2880 H   0  0  0  0  0  0  0  0  0  0  0  0
   35.0940   18.8600   31.2400 H   0  0  0  0  0  0  0  0  0  0  0  0
   36.4250   19.9440   33.4900 H   0  0  0  0  0  0  0  0  0  0  0  0
   34.6730   19.8380   33.2520 H   0  0  0  0  0  0  0  0  0  0  0  0
   35.7950   22.0920   33.6420 H   0  0  0  0  0  0  0  0  0  0  0  0
   34.4680   22.0550   32.5290 H   0  0  0  0  0  0  0  0  0  0  0  0
   40.5420   23.7600   33.1960 C   0  0  0  0  0  0  0  0  0  0  0  0
   40.4440   23.5390   34.5840 C   0  0  0  0  0  0  0  0  0  0  0  0
   39.1850   23.6830   35.1790 C   0  0  0  0  0  0  0  0  0  0  0  0
   38.1550   24.0270   34.3670 N   0  0  0  0  0  0  0  0  0  0  0  0
   38.2670   24.2330   33.0610 C   0  0  0  0  0  0  0  0  0  0  0  0
   39.4720   24.0980   32.4660 N   0  0  0  0  0  0  0  0  0  0  0  0
   41.2920   23.2660   35.1870 H   0  0  0  0  0  0  0  0  0  0  0  0
   39.0250   23.4650   36.5970 C   0  0  0  0  0  0  0  0  0  0  0  0
   38.0470   23.9870   37.3890 C   0  0  0  0  0  0  0  0  0  0  0  0
   37.2370   24.6480   37.0840 H   0  0  0  0  0  0  0  0  0  0  0  0
   38.1960   23.5700   38.7050 C   0  0  0  0  0  0  0  0  0  0  0  0
   37.6080   23.7890   39.5850 H   0  0  0  0  0  0  0  0  0  0  0  0
   39.2880   22.7880   38.6600 N   0  0  0  0  0  0  0  0  0  0  0  0
   39.7700   22.2580   39.4200 H   0  0  0  0  0  0  0  0  0  0  0  0
   39.7610   22.7350   37.4270 N   0  0  0  0  0  0  0  0  0  0  0  0
   41.9060   23.5930   32.5860 C   0  0  0  0  0  0  0  0  0  0  0  0
   42.8300   23.4500   33.6360 F   0  0  0  0  0  0  0  0  0  0  0  0
   41.8960   22.5180   31.7880 F   0  0  0  0  0  0  0  0  0  0  0  0
   42.2420   24.7590   31.9440 F   0  0  0  0  0  0  0  0  0  0  0  0
  1 30  1  0  0  0  0
  2  1  1  0  0  0  0
  2  7  1  0  0  0  0
  3  2  2  0  0  0  0
  4  5  2  0  0  0  0
  4  3  1  0  0  0  0
  5  6  1  0  0  0  0
  6 11  1  0  0  0  0
  6  1  2  0  0  0  0
  8  3  1  0  0  0  0
  9  4  1  0  0  0  0
 10  5  1  0  0  0  0
 11 16  1  0  0  0  0
 12 11  1  0  0  0  0
 12 18  1  0  0  0  0
 13 12  1  0  0  0  0
 13 14  1  0  0  0  0
 14 15  1  0  0  0  0
 15 23  1  0  0  0  0
 15 22  1  0  0  0  0
 16 15  1  0  0  0  0
 16 24  1  0  0  0  0
 17 12  1  0  0  0  0
 19 13  1  0  0  0  0
 20 13  1  0  0  0  0
 21 14  1  0  0  0  0
 25 16  1  0  0  0  0
 26 27  1  0  0  0  0
 27 28  2  0  0  0  0
 27 32  1  0  0  0  0
 28 33  1  0  0  0  0
 29 28  1  0  0  0  0
 30 29  2  0  0  0  0
 31 30  1  0  0  0  0
 31 26  2  0  0  0  0
 33 34  1  0  0  0  0
 33 40  2  0  0  0  0
 34 36  2  0  0  0  0
 35 34  1  0  0  0  0
 36 37  1  0  0  0  0
 38 36  1  0  0  0  0
 38 39  1  0  0  0  0
 40 38  1  0  0  0  0
 41 26  1  0  0  0  0
 41 42  1  0  0  0  0
 43 41  1  0  0  0  0
 44 41  1  0  0  0  0
M  END
>  <minimizedAffinity>
-5.91985989

$$$$
