
 OpenBabel03272510183D

 35 38  0  0  0  0  0  0  0  0999 V2000
   37.4090   29.1690   50.7920 Br  0  0  0  0  0  0  0  0  0  0  0  0
   35.9970   29.2860   49.5170 C   0  0  0  0  0  0  0  0  0  0  0  0
   35.9950   30.2990   48.5590 C   0  0  0  0  0  0  0  0  0  0  0  0
   34.9510   30.3290   47.6680 C   0  0  0  0  0  0  0  0  0  0  0  0
   33.9200   29.4070   47.6870 C   0  0  0  0  0  0  0  0  0  0  0  0
   33.9460   28.4260   48.6320 C   0  0  0  0  0  0  0  0  0  0  0  0
   34.9850   28.3810   49.5330 C   0  0  0  0  0  0  0  0  0  0  0  0
   34.8920   31.0900   46.9020 H   0  0  0  0  0  0  0  0  0  0  0  0
   33.1580   27.6850   48.6800 H   0  0  0  0  0  0  0  0  0  0  0  0
   34.9730   27.5780   50.2790 H   0  0  0  0  0  0  0  0  0  0  0  0
   38.0220   33.1900   49.4840 C   0  0  0  0  0  0  0  0  0  0  0  0
   39.0550   33.1960   48.4960 C   0  0  0  0  0  0  0  0  0  0  0  0
   39.0300   32.2090   47.5370 C   0  0  0  0  0  0  0  0  0  0  0  0
   38.0310   31.2730   47.5670 N   0  0  0  0  0  0  0  0  0  0  0  0
   37.0610   31.2840   48.5110 C   0  0  0  0  0  0  0  0  0  0  0  0
   37.0650   32.2550   49.4750 N   0  0  0  0  0  0  0  0  0  0  0  0
   38.0140   33.9560   50.2540 H   0  0  0  0  0  0  0  0  0  0  0  0
   39.8040   33.9510   48.5250 H   0  0  0  0  0  0  0  0  0  0  0  0
   39.7930   32.1680   46.7620 H   0  0  0  0  0  0  0  0  0  0  0  0
   32.8090   29.4350   46.7410 C   0  0  0  0  0  0  0  0  0  0  0  0
   31.8970   28.4210   46.5600 C   0  0  0  0  0  0  0  0  0  0  0  0
   30.8610   28.5050   45.6460 C   0  0  0  0  0  0  0  0  0  0  0  0
   30.7240   29.6030   44.9030 N   0  0  0  0  0  0  0  0  0  0  0  0
   31.5990   30.6030   45.0630 C   0  0  0  0  0  0  0  0  0  0  0  0
   32.6050   30.5160   45.9530 N   0  0  0  0  0  0  0  0  0  0  0  0
   32.0110   27.5280   47.1660 H   0  0  0  0  0  0  0  0  0  0  0  0
   30.1740   27.6640   45.5520 H   0  0  0  0  0  0  0  0  0  0  0  0
   31.5800   31.8630   44.3260 C   0  0  0  0  0  0  0  0  0  0  0  0
   31.5870   33.0750   45.0130 C   0  0  0  0  0  0  0  0  0  0  0  0
   31.6050   33.2500   46.0690 H   0  0  0  0  0  0  0  0  0  0  0  0
   31.5650   34.1180   44.0780 C   0  0  0  0  0  0  0  0  0  0  0  0
   31.5650   35.1720   44.3270 H   0  0  0  0  0  0  0  0  0  0  0  0
   31.5460   33.4940   42.8640 N   0  0  0  0  0  0  0  0  0  0  0  0
   31.5290   34.0230   41.9670 H   0  0  0  0  0  0  0  0  0  0  0  0
   31.5550   32.1910   43.0010 N   0  0  0  0  0  0  0  0  0  0  0  0
  2  7  1  0  0  0  0
  2  1  1  0  0  0  0
  3  2  2  0  0  0  0
  4  5  2  0  0  0  0
  4  3  1  0  0  0  0
  5  6  1  0  0  0  0
  6  9  1  0  0  0  0
  6  7  2  0  0  0  0
  7 10  1  0  0  0  0
  8  4  1  0  0  0  0
 11 17  1  0  0  0  0
 12 18  1  0  0  0  0
 12 11  2  0  0  0  0
 13 14  2  0  0  0  0
 13 12  1  0  0  0  0
 14 15  1  0  0  0  0
 15  3  1  0  0  0  0
 15 16  2  0  0  0  0
 16 11  1  0  0  0  0
 19 13  1  0  0  0  0
 20  5  1  0  0  0  0
 21 20  1  0  0  0  0
 21 26  1  0  0  0  0
 22 21  2  0  0  0  0
 23 24  2  0  0  0  0
 23 22  1  0  0  0  0
 24 25  1  0  0  0  0
 25 20  2  0  0  0  0
 27 22  1  0  0  0  0
 28 29  1  0  0  0  0
 28 24  1  0  0  0  0
 29 30  1  0  0  0  0
 31 32  1  0  0  0  0
 31 29  2  0  0  0  0
 33 35  1  0  0  0  0
 33 31  1  0  0  0  0
 34 33  1  0  0  0  0
 35 28  2  0  0  0  0
M  END
>  <minimizedAffinity>
-6.39345932

>  <minimizedRMSD>
0.460640281

$$$$
