
 OpenBabel03272509123D

 39 42  0  0  1  0  0  0  0  0999 V2000
   36.9710   31.5220   48.2780 N   0  0  0  0  0  0  0  0  0  0  0  0
   38.0850   32.4030   48.6820 C   0  0  0  0  0  0  0  0  0  0  0  0
   38.6980   31.6190   49.8350 C   0  0  0  0  0  0  0  0  0  0  0  0
   37.4980   31.0120   50.5100 C   0  0  0  0  0  0  0  0  0  0  0  0
   36.3420   31.2950   49.5750 C   0  0  2  0  0  0  0  0  0  0  0  0
   38.8100   32.4520   47.8730 H   0  0  0  0  0  0  0  0  0  0  0  0
   37.7130   33.3810   49.0170 H   0  0  0  0  0  0  0  0  0  0  0  0
   39.2820   30.7760   49.4110 H   0  0  0  0  0  0  0  0  0  0  0  0
   39.3100   32.2560   50.5010 H   0  0  0  0  0  0  0  0  0  0  0  0
   37.3230   31.6290   51.4380 H   0  0  0  0  0  0  0  0  0  0  0  0
   37.6380   29.9670   50.7730 H   0  0  0  0  0  0  0  0  0  0  0  0
   35.7180   32.1430   49.8870 H   0  0  0  0  0  0  0  0  0  0  0  0
   35.1490   30.4120   47.1990 C   0  0  0  0  0  0  0  0  0  0  0  0
   36.4680   30.9400   47.0870 C   0  0  0  0  0  0  0  0  0  0  0  0
   37.1150   30.8190   45.8560 C   0  0  0  0  0  0  0  0  0  0  0  0
   36.4580   30.2060   44.8320 N   0  0  0  0  0  0  0  0  0  0  0  0
   35.2110   29.7190   44.9760 C   0  0  0  0  0  0  0  0  0  0  0  0
   34.5650   29.8230   46.1490 N   0  0  0  0  0  0  0  0  0  0  0  0
   34.5900   30.4770   48.1230 H   0  0  0  0  0  0  0  0  0  0  0  0
   34.7000   29.2330   44.1500 H   0  0  0  0  0  0  0  0  0  0  0  0
   38.4440   31.3240   45.6480 C   0  0  0  0  0  0  0  0  0  0  0  0
   38.5880   32.6080   45.1730 C   0  0  0  0  0  0  0  0  0  0  0  0
   39.8270   33.1790   44.9430 C   0  0  0  0  0  0  0  0  0  0  0  0
   40.9450   32.4030   45.2120 C   0  0  0  0  0  0  0  0  0  0  0  0
   40.8630   31.1000   45.6930 C   0  0  0  0  0  0  0  0  0  0  0  0
   39.5760   30.5910   45.9000 C   0  0  0  0  0  0  0  0  0  0  0  0
   37.7120   33.2090   44.9640 H   0  0  0  0  0  0  0  0  0  0  0  0
   39.9150   34.1860   44.5710 H   0  0  0  0  0  0  0  0  0  0  0  0
   41.8980   32.8800   45.0210 H   0  0  0  0  0  0  0  0  0  0  0  0
   41.7450   30.5260   45.8910 H   0  0  0  0  0  0  0  0  0  0  0  0
   39.4670   29.5710   46.2780 H   0  0  0  0  0  0  0  0  0  0  0  0
   35.5730   30.0090   49.5450 C   0  0  0  0  0  0  0  0  0  0  0  0
   35.8110   28.6940   49.3280 C   0  0  0  0  0  0  0  0  0  0  0  0
   36.8400   28.4100   49.1020 H   0  0  0  0  0  0  0  0  0  0  0  0
   34.6400   27.9720   49.4460 C   0  0  0  0  0  0  0  0  0  0  0  0
   34.5930   26.9090   49.3140 H   0  0  0  0  0  0  0  0  0  0  0  0
   33.7060   28.8960   49.7400 N   0  0  0  0  0  0  0  0  0  0  0  0
   32.6980   28.6470   49.8920 H   0  0  0  0  0  0  0  0  0  0  0  0
   34.2350   30.1060   49.8040 N   0  0  0  0  0  0  0  0  0  0  0  0
  1  2  1  0  0  0  0
  1  5  1  0  0  0  0
  2  7  1  0  0  0  0
  2  3  1  0  0  0  0
  3  9  1  0  0  0  0
  3  4  1  0  0  0  0
  4 11  1  0  0  0  0
  4 10  1  0  0  0  0
  5 12  1  1  0  0  0
  5  4  1  0  0  0  0
  6  2  1  0  0  0  0
  8  3  1  0  0  0  0
 13 19  1  0  0  0  0
 14 13  1  0  0  0  0
 14  1  1  0  0  0  0
 15 14  2  0  0  0  0
 16 17  2  0  0  0  0
 16 15  1  0  0  0  0
 17 18  1  0  0  0  0
 18 13  2  0  0  0  0
 20 17  1  0  0  0  0
 21 15  1  0  0  0  0
 21 26  1  0  0  0  0
 22 21  2  0  0  0  0
 23 22  1  0  0  0  0
 23 24  2  0  0  0  0
 24 25  1  0  0  0  0
 25 30  1  0  0  0  0
 25 26  2  0  0  0  0
 26 31  1  0  0  0  0
 27 22  1  0  0  0  0
 28 23  1  0  0  0  0
 29 24  1  0  0  0  0
 32  5  1  0  0  0  0
 32 39  2  0  0  0  0
 33 35  2  0  0  0  0
 33 32  1  0  0  0  0
 34 33  1  0  0  0  0
 35 37  1  0  0  0  0
 36 35  1  0  0  0  0
 37 39  1  0  0  0  0
 37 38  1  0  0  0  0
M  END
>  <minimizedAffinity>
-6.46016693

>  <minimizedRMSD>
1.10025454

$$$$
