
 OpenBabel03272510333D

 27 29  0  0  0  0  0  0  0  0999 V2000
   35.9640   30.1580   48.3330 C   0  0  0  0  0  0  0  0  0  0  0  0
   35.1560   30.0850   47.2270 C   0  0  0  0  0  0  0  0  0  0  0  0
   34.1270   29.1660   47.1610 C   0  0  0  0  0  0  0  0  0  0  0  0
   33.9280   28.3240   48.2220 C   0  0  0  0  0  0  0  0  0  0  0  0
   34.7320   28.3720   49.3660 C   0  0  0  0  0  0  0  0  0  0  0  0
   35.7610   29.3030   49.4120 C   0  0  0  0  0  0  0  0  0  0  0  0
   35.2890   30.7340   46.3760 H   0  0  0  0  0  0  0  0  0  0  0  0
   33.4590   29.0510   46.3350 H   0  0  0  0  0  0  0  0  0  0  0  0
   33.1500   27.5740   48.2620 H   0  0  0  0  0  0  0  0  0  0  0  0
   34.5790   27.7110   50.2060 H   0  0  0  0  0  0  0  0  0  0  0  0
   37.9400   33.0610   49.3050 C   0  0  0  0  0  0  0  0  0  0  0  0
   39.0000   33.0780   48.4030 C   0  0  0  0  0  0  0  0  0  0  0  0
   39.0320   32.0470   47.4210 C   0  0  0  0  0  0  0  0  0  0  0  0
   38.0370   31.1310   47.4360 N   0  0  0  0  0  0  0  0  0  0  0  0
   37.0250   31.1460   48.3280 C   0  0  0  0  0  0  0  0  0  0  0  0
   37.0000   32.1200   49.2500 N   0  0  0  0  0  0  0  0  0  0  0  0
   37.9720   33.8680   50.0240 H   0  0  0  0  0  0  0  0  0  0  0  0
   39.8200   33.7730   48.3330 H   0  0  0  0  0  0  0  0  0  0  0  0
   39.7800   31.9150   46.6500 H   0  0  0  0  0  0  0  0  0  0  0  0
   36.6150   29.3760   50.5930 C   0  0  0  0  0  0  0  0  0  0  0  0
   37.6820   28.4710   50.6100 C   0  0  0  0  0  0  0  0  0  0  0  0
   38.0710   27.6980   49.9670 H   0  0  0  0  0  0  0  0  0  0  0  0
   38.3780   28.6830   51.7970 C   0  0  0  0  0  0  0  0  0  0  0  0
   39.2720   28.2200   52.2420 H   0  0  0  0  0  0  0  0  0  0  0  0
   37.7290   29.6810   52.4440 N   0  0  0  0  0  0  0  0  0  0  0  0
   37.9580   30.1170   53.3730 H   0  0  0  0  0  0  0  0  0  0  0  0
   36.6790   30.0930   51.7260 N   0  0  0  0  0  0  0  0  0  0  0  0
  1  6  1  0  0  0  0
  2  1  2  0  0  0  0
  3  2  1  0  0  0  0
  3  4  2  0  0  0  0
  4  9  1  0  0  0  0
  4  5  1  0  0  0  0
  5  6  2  0  0  0  0
  5 10  1  0  0  0  0
  6 20  1  0  0  0  0
  7  2  1  0  0  0  0
  8  3  1  0  0  0  0
 11 17  1  0  0  0  0
 12 11  2  0  0  0  0
 13 14  2  0  0  0  0
 13 12  1  0  0  0  0
 14 15  1  0  0  0  0
 15  1  1  0  0  0  0
 15 16  2  0  0  0  0
 16 11  1  0  0  0  0
 18 12  1  0  0  0  0
 19 13  1  0  0  0  0
 20 21  1  0  0  0  0
 20 27  2  0  0  0  0
 21 23  2  0  0  0  0
 22 21  1  0  0  0  0
 23 24  1  0  0  0  0
 23 25  1  0  0  0  0
 25 26  1  0  0  0  0
 27 25  1  0  0  0  0
M  END
>  <minimizedAffinity>
-4.66502905

>  <minimizedRMSD>
0.370462865

$$$$
