
 OpenBabel03262522053D

 39 42  0  0  1  0  0  0  0  0999 V2000
   34.5170   29.0790   48.6830 C   0  0  2  0  0  0  0  0  0  0  0  0
   35.1290   28.3490   49.8280 C   0  0  0  0  0  0  0  0  0  0  0  0
   36.2570   29.1260   50.3460 N   0  0  0  0  0  0  0  0  0  0  0  0
   37.1910   29.8560   51.1580 C   0  0  0  0  0  0  0  0  0  0  0  0
   37.3810   30.0350   52.3720 O   0  0  0  0  0  0  0  0  0  0  0  0
   37.9300   30.3850   50.0480 C   0  0  1  0  0  0  0  0  0  0  0  0
   37.1200   29.3810   49.2330 C   0  0  2  0  0  0  0  0  0  0  0  0
   35.9230   30.0960   48.0800 S   0  0  0  0  0  0  0  0  0  0  0  0
   35.4670   27.3440   49.5750 H   0  0  0  0  0  0  0  0  0  0  0  0
   34.3780   28.2480   50.6590 H   0  0  0  0  0  0  0  0  0  0  0  0
   38.9950   30.0970   49.9370 H   0  0  0  0  0  0  0  0  0  0  0  0
   37.6760   28.5150   48.8420 H   0  0  0  0  0  0  0  0  0  0  0  0
   33.3010   29.8850   48.9960 C   0  0  0  0  0  0  0  0  0  0  0  0
   32.5480   29.2000   49.3740 H   0  0  0  0  0  0  0  0  0  0  0  0
   33.5660   30.5700   49.8150 H   0  0  0  0  0  0  0  0  0  0  0  0
   33.0210   30.4780   48.1310 H   0  0  0  0  0  0  0  0  0  0  0  0
   34.2570   28.0740   47.5490 C   0  0  0  0  0  0  0  0  0  0  0  0
   35.1190   27.3540   47.5640 H   0  0  0  0  0  0  0  0  0  0  0  0
   33.2900   27.5890   47.7180 H   0  0  0  0  0  0  0  0  0  0  0  0
   34.2830   28.7610   46.3360 O   0  0  0  0  0  0  0  0  0  0  0  0
   35.0400   28.4430   45.7650 H   0  0  0  0  0  0  0  0  0  0  0  0
   37.7190   31.8050   49.7110 C   0  0  0  0  0  0  0  0  0  0  0  0
   36.6880   32.3020   50.2730 O   0  0  0  0  0  0  0  0  0  0  0  0
   38.5720   32.5640   48.8480 C   0  0  0  0  0  0  0  0  0  0  0  0
   39.0100   33.7950   49.2800 C   0  0  0  0  0  0  0  0  0  0  0  0
   39.8530   34.5340   48.4110 C   0  0  0  0  0  0  0  0  0  0  0  0
   40.1780   33.9870   47.2070 N   0  0  0  0  0  0  0  0  0  0  0  0
   39.7370   32.7970   46.8220 C   0  0  0  0  0  0  0  0  0  0  0  0
   38.9310   32.0740   47.6380 N   0  0  0  0  0  0  0  0  0  0  0  0
   38.7770   34.2590   50.2180 H   0  0  0  0  0  0  0  0  0  0  0  0
   40.2220   35.5100   48.7120 H   0  0  0  0  0  0  0  0  0  0  0  0
   40.0550   32.1640   45.5420 C   0  0  0  0  0  0  0  0  0  0  0  0
   39.7240   32.6330   44.2860 C   0  0  0  0  0  0  0  0  0  0  0  0
   39.1760   33.5530   44.1430 H   0  0  0  0  0  0  0  0  0  0  0  0
   40.1980   31.7600   43.3270 C   0  0  0  0  0  0  0  0  0  0  0  0
   40.0510   31.9320   42.2770 H   0  0  0  0  0  0  0  0  0  0  0  0
   40.8040   30.7820   44.0150 N   0  0  0  0  0  0  0  0  0  0  0  0
   41.2540   29.9810   43.4990 H   0  0  0  0  0  0  0  0  0  0  0  0
   40.7190   31.0220   45.3220 N   0  0  0  0  0  0  0  0  0  0  0  0
  1 17  1  6  0  0  0
  1 13  1  0  0  0  0
  1  2  1  0  0  0  0
  2  3  1  0  0  0  0
  2 10  1  0  0  0  0
  3  4  1  0  0  0  0
  4  5  2  0  0  0  0
  6 11  1  1  0  0  0
  6  4  1  0  0  0  0
  7 12  1  6  0  0  0
  7  6  1  0  0  0  0
  7  3  1  0  0  0  0
  8  1  1  0  0  0  0
  8  7  1  0  0  0  0
  9  2  1  0  0  0  0
 13 14  1  0  0  0  0
 13 15  1  0  0  0  0
 16 13  1  0  0  0  0
 17 18  1  0  0  0  0
 17 19  1  0  0  0  0
 20 17  1  0  0  0  0
 21 20  1  0  0  0  0
 22  6  1  0  0  0  0
 22 23  2  0  0  0  0
 24 25  1  0  0  0  0
 24 22  1  0  0  0  0
 25 30  1  0  0  0  0
 26 31  1  0  0  0  0
 26 25  2  0  0  0  0
 27 26  1  0  0  0  0
 28 27  2  0  0  0  0
 28 29  1  0  0  0  0
 29 24  2  0  0  0  0
 32 28  1  0  0  0  0
 33 32  1  0  0  0  0
 34 33  1  0  0  0  0
 35 37  1  0  0  0  0
 35 33  2  0  0  0  0
 36 35  1  0  0  0  0
 37 39  1  0  0  0  0
 38 37  1  0  0  0  0
 39 32  2  0  0  0  0
M  END
>  <minimizedAffinity>
-5.79657459

>  <minimizedRMSD>
0.322226793

$$$$
