
 OpenBabel03272500483D

 38 42  0  0  1  0  0  0  0  0999 V2000
   32.3580   27.7130   48.3120 C   0  0  1  0  0  0  0  0  0  0  0  0
   33.3190   26.6540   47.6700 C   0  0  0  0  0  0  0  0  0  0  0  0
   33.1840   28.0320   47.1340 C   0  0  2  0  0  0  0  0  0  0  0  0
   32.6370   27.9830   49.3450 H   0  0  0  0  0  0  0  0  0  0  0  0
   32.8260   25.8070   47.1600 H   0  0  0  0  0  0  0  0  0  0  0  0
   34.2540   26.4490   48.2350 H   0  0  0  0  0  0  0  0  0  0  0  0
   32.6460   28.1380   46.1930 H   0  0  0  0  0  0  0  0  0  0  0  0
   28.7510   27.6530   48.4190 C   0  0  0  0  0  0  0  0  0  0  0  0
   28.9880   26.6740   47.4820 C   0  0  0  0  0  0  0  0  0  0  0  0
   30.3780   26.5590   47.3110 C   0  0  0  0  0  0  0  0  0  0  0  0
   30.9380   27.4620   48.1400 N   0  0  0  0  0  0  0  0  0  0  0  0
   29.9630   28.0700   48.7580 N   0  0  0  0  0  0  0  0  0  0  0  0
   28.2820   26.0550   46.9300 H   0  0  0  0  0  0  0  0  0  0  0  0
   30.8560   25.8690   46.6380 H   0  0  0  0  0  0  0  0  0  0  0  0
   27.0140   27.9720   50.2000 C   0  0  0  0  0  0  0  0  0  0  0  0
   27.4420   28.0550   48.8570 C   0  0  0  0  0  0  0  0  0  0  0  0
   26.5300   28.5540   47.9320 C   0  0  0  0  0  0  0  0  0  0  0  0
   25.2990   28.9280   48.3670 N   0  0  0  0  0  0  0  0  0  0  0  0
   24.9290   28.8330   49.6580 C   0  0  0  0  0  0  0  0  0  0  0  0
   25.7990   28.3490   50.5870 N   0  0  0  0  0  0  0  0  0  0  0  0
   27.7870   27.5730   50.8440 H   0  0  0  0  0  0  0  0  0  0  0  0
   26.8530   28.6190   46.9040 H   0  0  0  0  0  0  0  0  0  0  0  0
   23.9430   29.1350   49.9910 H   0  0  0  0  0  0  0  0  0  0  0  0
   34.3280   28.9950   47.2820 C   0  0  0  0  0  0  0  0  0  0  0  0
   34.7380   29.8700   46.2630 C   0  0  0  0  0  0  0  0  0  0  0  0
   35.7930   30.5820   46.7440 N   0  0  0  0  0  0  0  0  0  0  0  0
   36.0330   30.1690   48.0180 C   0  0  0  0  0  0  0  0  0  0  0  0
   35.1390   29.1980   48.3510 N   0  0  0  0  0  0  0  0  0  0  0  0
   34.3060   29.9650   45.2800 H   0  0  0  0  0  0  0  0  0  0  0  0
   36.2800   31.3020   46.1740 H   0  0  0  0  0  0  0  0  0  0  0  0
   37.1010   30.7230   48.8440 C   0  0  0  0  0  0  0  0  0  0  0  0
   37.6440   31.9840   48.7850 C   0  0  0  0  0  0  0  0  0  0  0  0
   37.2840   32.7060   48.0660 H   0  0  0  0  0  0  0  0  0  0  0  0
   38.6170   32.0420   49.7540 C   0  0  0  0  0  0  0  0  0  0  0  0
   39.1730   32.9540   49.8810 H   0  0  0  0  0  0  0  0  0  0  0  0
   38.6400   30.8250   50.3700 N   0  0  0  0  0  0  0  0  0  0  0  0
   39.3650   30.7640   51.1420 H   0  0  0  0  0  0  0  0  0  0  0  0
   37.7190   30.0380   49.8080 N   0  0  0  0  0  0  0  0  0  0  0  0
  1  4  1  1  0  0  0
  2  6  1  0  0  0  0
  2  1  1  0  0  0  0
  3  7  1  6  0  0  0
  3 24  1  0  0  0  0
  3  2  1  0  0  0  0
  3  1  1  0  0  0  0
  5  2  1  0  0  0  0
  8 12  2  0  0  0  0
  8 16  1  0  0  0  0
  9  8  1  0  0  0  0
 10  9  2  0  0  0  0
 10 11  1  0  0  0  0
 11  1  1  0  0  0  0
 11 12  1  0  0  0  0
 13  9  1  0  0  0  0
 14 10  1  0  0  0  0
 15 20  1  0  0  0  0
 15 21  1  0  0  0  0
 16 15  2  0  0  0  0
 17 18  2  0  0  0  0
 17 16  1  0  0  0  0
 18 19  1  0  0  0  0
 19 23  1  0  0  0  0
 19 20  2  0  0  0  0
 22 17  1  0  0  0  0
 24 28  1  0  0  0  0
 25 26  1  0  0  0  0
 25 24  2  0  0  0  0
 26 27  1  0  0  0  0
 27 28  2  0  0  0  0
 27 31  1  0  0  0  0
 29 25  1  0  0  0  0
 30 26  1  0  0  0  0
 31 38  2  0  0  0  0
 32 31  1  0  0  0  0
 32 34  2  0  0  0  0
 33 32  1  0  0  0  0
 34 35  1  0  0  0  0
 34 36  1  0  0  0  0
 36 37  1  0  0  0  0
 38 36  1  0  0  0  0
M  END
>  <minimizedAffinity>
-6.4004221

>  <minimizedRMSD>
5.36580276

$$$$
