
 OpenBabel03272510323D

 27 29  0  0  0  0  0  0  0  0999 V2000
   36.0050   30.1560   48.0530 C   0  0  0  0  0  0  0  0  0  0  0  0
   35.3350   30.0750   46.8590 C   0  0  0  0  0  0  0  0  0  0  0  0
   34.3410   29.1350   46.6660 C   0  0  0  0  0  0  0  0  0  0  0  0
   34.0370   28.2810   47.6920 C   0  0  0  0  0  0  0  0  0  0  0  0
   34.6990   28.3360   48.9230 C   0  0  0  0  0  0  0  0  0  0  0  0
   35.6940   29.2890   49.0960 C   0  0  0  0  0  0  0  0  0  0  0  0
   35.5530   30.7340   46.0330 H   0  0  0  0  0  0  0  0  0  0  0  0
   33.7780   29.0130   45.7660 H   0  0  0  0  0  0  0  0  0  0  0  0
   33.2760   27.5140   47.6350 H   0  0  0  0  0  0  0  0  0  0  0  0
   34.4620   27.6660   49.7350 H   0  0  0  0  0  0  0  0  0  0  0  0
   37.8580   33.0110   49.3560 C   0  0  0  0  0  0  0  0  0  0  0  0
   38.9520   33.1330   48.5050 C   0  0  0  0  0  0  0  0  0  0  0  0
   39.0530   32.1930   47.4400 C   0  0  0  0  0  0  0  0  0  0  0  0
   38.0840   31.2560   47.3330 N   0  0  0  0  0  0  0  0  0  0  0  0
   37.0370   31.1670   48.1780 C   0  0  0  0  0  0  0  0  0  0  0  0
   36.9470   32.0550   49.1800 N   0  0  0  0  0  0  0  0  0  0  0  0
   37.8370   33.7520   50.1430 H   0  0  0  0  0  0  0  0  0  0  0  0
   39.7550   33.8510   48.5310 H   0  0  0  0  0  0  0  0  0  0  0  0
   39.8350   32.1470   46.6940 H   0  0  0  0  0  0  0  0  0  0  0  0
   36.4010   29.3710   50.3700 C   0  0  0  0  0  0  0  0  0  0  0  0
   37.6750   28.7930   50.3810 C   0  0  0  0  0  0  0  0  0  0  0  0
   38.3130   28.2800   49.6790 H   0  0  0  0  0  0  0  0  0  0  0  0
   38.1910   28.9630   51.6620 C   0  0  0  0  0  0  0  0  0  0  0  0
   39.1420   28.6800   52.1380 H   0  0  0  0  0  0  0  0  0  0  0  0
   37.2380   29.6200   52.3680 N   0  0  0  0  0  0  0  0  0  0  0  0
   37.2650   29.9260   53.3730 H   0  0  0  0  0  0  0  0  0  0  0  0
   36.1740   29.8620   51.5980 N   0  0  0  0  0  0  0  0  0  0  0  0
  1 15  1  0  0  0  0
  1  6  1  0  0  0  0
  2  1  2  0  0  0  0
  3  2  1  0  0  0  0
  3  4  2  0  0  0  0
  4  5  1  0  0  0  0
  5  6  2  0  0  0  0
  5 10  1  0  0  0  0
  6 20  1  0  0  0  0
  7  2  1  0  0  0  0
  8  3  1  0  0  0  0
  9  4  1  0  0  0  0
 11 17  1  0  0  0  0
 12 18  1  0  0  0  0
 12 11  2  0  0  0  0
 13 12  1  0  0  0  0
 14 13  2  0  0  0  0
 14 15  1  0  0  0  0
 15 16  2  0  0  0  0
 16 11  1  0  0  0  0
 19 13  1  0  0  0  0
 20 21  1  0  0  0  0
 20 27  2  0  0  0  0
 21 23  2  0  0  0  0
 22 21  1  0  0  0  0
 23 24  1  0  0  0  0
 23 25  1  0  0  0  0
 25 26  1  0  0  0  0
 27 25  1  0  0  0  0
M  END
>  <minimizedAffinity>
-4.73652792

>  <minimizedRMSD>
0.692353547

$$$$
