
 OpenBabel03272510333D

 27 29  0  0  0  0  0  0  0  0999 V2000
   35.9220   30.0490   47.9650 C   0  0  0  0  0  0  0  0  0  0  0  0
   35.0660   30.0580   46.8940 C   0  0  0  0  0  0  0  0  0  0  0  0
   33.9920   29.1910   46.8380 C   0  0  0  0  0  0  0  0  0  0  0  0
   33.7970   28.3180   47.8750 C   0  0  0  0  0  0  0  0  0  0  0  0
   34.6500   28.2830   48.9830 C   0  0  0  0  0  0  0  0  0  0  0  0
   35.7240   29.1630   49.0190 C   0  0  0  0  0  0  0  0  0  0  0  0
   35.1930   30.7330   46.0630 H   0  0  0  0  0  0  0  0  0  0  0  0
   33.2840   29.1410   46.0400 H   0  0  0  0  0  0  0  0  0  0  0  0
   32.9860   27.6040   47.9210 H   0  0  0  0  0  0  0  0  0  0  0  0
   34.5010   27.5970   49.8040 H   0  0  0  0  0  0  0  0  0  0  0  0
   38.0620   32.8320   48.9410 C   0  0  0  0  0  0  0  0  0  0  0  0
   39.0950   32.8210   48.0090 C   0  0  0  0  0  0  0  0  0  0  0  0
   39.0500   31.8130   47.0040 C   0  0  0  0  0  0  0  0  0  0  0  0
   38.0130   30.9450   47.0290 N   0  0  0  0  0  0  0  0  0  0  0  0
   37.0290   30.9860   47.9500 C   0  0  0  0  0  0  0  0  0  0  0  0
   37.0770   31.9380   48.8940 N   0  0  0  0  0  0  0  0  0  0  0  0
   38.1530   33.6200   49.6770 H   0  0  0  0  0  0  0  0  0  0  0  0
   39.9460   33.4780   47.9310 H   0  0  0  0  0  0  0  0  0  0  0  0
   39.7680   31.6630   46.2090 H   0  0  0  0  0  0  0  0  0  0  0  0
   36.6300   29.1490   50.1630 C   0  0  0  0  0  0  0  0  0  0  0  0
   36.1260   29.7420   51.3270 C   0  0  0  0  0  0  0  0  0  0  0  0
   35.2130   30.2300   51.6300 H   0  0  0  0  0  0  0  0  0  0  0  0
   37.1160   29.6370   52.2990 C   0  0  0  0  0  0  0  0  0  0  0  0
   37.1760   29.9530   53.3530 H   0  0  0  0  0  0  0  0  0  0  0  0
   38.1590   29.0020   51.7120 N   0  0  0  0  0  0  0  0  0  0  0  0
   39.0860   28.7430   52.1320 H   0  0  0  0  0  0  0  0  0  0  0  0
   37.8680   28.7120   50.4400 N   0  0  0  0  0  0  0  0  0  0  0  0
  1  6  1  0  0  0  0
  2  1  2  0  0  0  0
  3  2  1  0  0  0  0
  3  4  2  0  0  0  0
  4  9  1  0  0  0  0
  4  5  1  0  0  0  0
  5  6  2  0  0  0  0
  5 10  1  0  0  0  0
  6 20  1  0  0  0  0
  7  2  1  0  0  0  0
  8  3  1  0  0  0  0
 11 17  1  0  0  0  0
 12 11  2  0  0  0  0
 13 14  2  0  0  0  0
 13 12  1  0  0  0  0
 14 15  1  0  0  0  0
 15  1  1  0  0  0  0
 15 16  2  0  0  0  0
 16 11  1  0  0  0  0
 18 12  1  0  0  0  0
 19 13  1  0  0  0  0
 20 27  2  0  0  0  0
 20 21  1  0  0  0  0
 21 22  1  0  0  0  0
 21 23  2  0  0  0  0
 23 24  1  0  0  0  0
 25 26  1  0  0  0  0
 25 23  1  0  0  0  0
 27 25  1  0  0  0  0
M  END
>  <minimizedAffinity>
-5.37282085

>  <minimizedRMSD>
0.780875385

$$$$
