
 OpenBabel03262521383D

 27 29  0  0  0  0  0  0  0  0999 V2000
   37.7710   23.5010   34.4490 F   0  0  0  0  0  0  0  0  0  0  0  0
   38.5620   24.6230   34.3140 C   0  0  0  0  0  0  0  0  0  0  0  0
   38.3160   25.5670   33.3340 C   0  0  0  0  0  0  0  0  0  0  0  0
   39.1430   26.6760   33.2450 C   0  0  0  0  0  0  0  0  0  0  0  0
   40.2070   26.8420   34.1280 C   0  0  0  0  0  0  0  0  0  0  0  0
   40.4010   25.8620   35.0880 C   0  0  0  0  0  0  0  0  0  0  0  0
   39.6060   24.7560   35.2050 C   0  0  0  0  0  0  0  0  0  0  0  0
   38.9360   27.4000   32.4730 H   0  0  0  0  0  0  0  0  0  0  0  0
   40.8560   27.6980   34.0710 H   0  0  0  0  0  0  0  0  0  0  0  0
   41.2110   25.9430   35.7980 H   0  0  0  0  0  0  0  0  0  0  0  0
   36.4390   26.4600   32.1530 C   0  0  0  0  0  0  0  0  0  0  0  0
   37.1990   25.3170   32.4660 C   0  0  0  0  0  0  0  0  0  0  0  0
   36.8140   24.0910   31.9250 C   0  0  0  0  0  0  0  0  0  0  0  0
   35.7070   24.0580   31.1100 N   0  0  0  0  0  0  0  0  0  0  0  0
   35.0080   25.1610   30.8330 C   0  0  0  0  0  0  0  0  0  0  0  0
   35.3630   26.3430   31.3430 N   0  0  0  0  0  0  0  0  0  0  0  0
   36.6320   27.4630   32.5060 H   0  0  0  0  0  0  0  0  0  0  0  0
   37.4340   23.2630   32.2010 H   0  0  0  0  0  0  0  0  0  0  0  0
   34.1380   25.1090   30.1870 H   0  0  0  0  0  0  0  0  0  0  0  0
   39.8250   23.7290   36.2270 C   0  0  0  0  0  0  0  0  0  0  0  0
   40.8920   22.8280   36.1850 C   0  0  0  0  0  0  0  0  0  0  0  0
   41.6820   22.7330   35.4520 H   0  0  0  0  0  0  0  0  0  0  0  0
   40.6910   22.0730   37.3270 C   0  0  0  0  0  0  0  0  0  0  0  0
   41.3340   21.2410   37.6570 H   0  0  0  0  0  0  0  0  0  0  0  0
   39.6020   22.4740   38.0070 N   0  0  0  0  0  0  0  0  0  0  0  0
   39.2500   22.0530   38.9020 H   0  0  0  0  0  0  0  0  0  0  0  0
   39.0730   23.4980   37.3200 N   0  0  0  0  0  0  0  0  0  0  0  0
  2  1  1  0  0  0  0
  2  7  1  0  0  0  0
  3  2  2  0  0  0  0
  4  3  1  0  0  0  0
  4  5  2  0  0  0  0
  5  6  1  0  0  0  0
  6  7  2  0  0  0  0
  6 10  1  0  0  0  0
  7 20  1  0  0  0  0
  8  4  1  0  0  0  0
  9  5  1  0  0  0  0
 11 12  1  0  0  0  0
 11 17  1  0  0  0  0
 12  3  1  0  0  0  0
 13 18  1  0  0  0  0
 13 12  2  0  0  0  0
 14 13  1  0  0  0  0
 15 14  2  0  0  0  0
 15 16  1  0  0  0  0
 16 11  2  0  0  0  0
 19 15  1  0  0  0  0
 20 27  2  0  0  0  0
 21 20  1  0  0  0  0
 21 23  2  0  0  0  0
 22 21  1  0  0  0  0
 23 24  1  0  0  0  0
 23 25  1  0  0  0  0
 25 26  1  0  0  0  0
 27 25  1  0  0  0  0
M  END
>  <minimizedAffinity>
-5.21842718

$$$$

 OpenBabel03262521383D

 27 29  0  0  0  0  0  0  0  0999 V2000
   35.4720   28.6250   34.7640 F   0  0  0  0  0  0  0  0  0  0  0  0
   35.7390   29.4940   33.7260 C   0  0  0  0  0  0  0  0  0  0  0  0
   36.2120   29.0410   32.5080 C   0  0  0  0  0  0  0  0  0  0  0  0
   36.4620   29.9590   31.5000 C   0  0  0  0  0  0  0  0  0  0  0  0
   36.2410   31.3190   31.7060 C   0  0  0  0  0  0  0  0  0  0  0  0
   35.7660   31.7090   32.9470 C   0  0  0  0  0  0  0  0  0  0  0  0
   35.5090   30.8320   33.9640 C   0  0  0  0  0  0  0  0  0  0  0  0
   36.8310   29.5880   30.5580 H   0  0  0  0  0  0  0  0  0  0  0  0
   36.4300   32.0430   30.9320 H   0  0  0  0  0  0  0  0  0  0  0  0
   35.5780   32.7520   33.1590 H   0  0  0  0  0  0  0  0  0  0  0  0
   35.5290   26.9910   31.4850 C   0  0  0  0  0  0  0  0  0  0  0  0
   36.4110   27.6250   32.3820 C   0  0  0  0  0  0  0  0  0  0  0  0
   37.3630   26.8480   33.0410 C   0  0  0  0  0  0  0  0  0  0  0  0
   37.3940   25.4980   32.7830 N   0  0  0  0  0  0  0  0  0  0  0  0
   36.5440   24.9280   31.9270 C   0  0  0  0  0  0  0  0  0  0  0  0
   35.6250   25.6570   31.2870 N   0  0  0  0  0  0  0  0  0  0  0  0
   34.7510   27.4780   30.9150 H   0  0  0  0  0  0  0  0  0  0  0  0
   38.0020   27.3910   33.7070 H   0  0  0  0  0  0  0  0  0  0  0  0
   36.5880   23.8610   31.7410 H   0  0  0  0  0  0  0  0  0  0  0  0
   35.0060   31.2630   35.2710 C   0  0  0  0  0  0  0  0  0  0  0  0
   33.6590   31.1780   35.6350 C   0  0  0  0  0  0  0  0  0  0  0  0
   32.8160   30.8110   35.0650 H   0  0  0  0  0  0  0  0  0  0  0  0
   33.6640   31.6870   36.9210 C   0  0  0  0  0  0  0  0  0  0  0  0
   32.7760   31.7890   37.5650 H   0  0  0  0  0  0  0  0  0  0  0  0
   34.8990   32.0500   37.3120 N   0  0  0  0  0  0  0  0  0  0  0  0
   35.1510   32.4600   38.2440 H   0  0  0  0  0  0  0  0  0  0  0  0
   35.7220   31.7840   36.2860 N   0  0  0  0  0  0  0  0  0  0  0  0
  2  7  1  0  0  0  0
  2  1  1  0  0  0  0
  3  2  2  0  0  0  0
  4  5  2  0  0  0  0
  4  3  1  0  0  0  0
  5  6  1  0  0  0  0
  6 10  1  0  0  0  0
  6  7  2  0  0  0  0
  7 20  1  0  0  0  0
  8  4  1  0  0  0  0
  9  5  1  0  0  0  0
 11 12  1  0  0  0  0
 12  3  1  0  0  0  0
 12 13  2  0  0  0  0
 13 18  1  0  0  0  0
 14 13  1  0  0  0  0
 15 14  2  0  0  0  0
 16 11  2  0  0  0  0
 16 15  1  0  0  0  0
 17 11  1  0  0  0  0
 19 15  1  0  0  0  0
 20 21  1  0  0  0  0
 20 27  2  0  0  0  0
 21 23  2  0  0  0  0
 22 21  1  0  0  0  0
 23 25  1  0  0  0  0
 23 24  1  0  0  0  0
 25 26  1  0  0  0  0
 27 25  1  0  0  0  0
M  END
>  <minimizedAffinity>
-5.11622047

$$$$

 OpenBabel03262521383D

 27 29  0  0  0  0  0  0  0  0999 V2000
   38.6140   23.3880   34.4800 F   0  0  0  0  0  0  0  0  0  0  0  0
   38.4650   24.7470   34.6690 C   0  0  0  0  0  0  0  0  0  0  0  0
   38.3150   25.6130   33.6010 C   0  0  0  0  0  0  0  0  0  0  0  0
   38.1690   26.9680   33.8500 C   0  0  0  0  0  0  0  0  0  0  0  0
   38.1700   27.4560   35.1550 C   0  0  0  0  0  0  0  0  0  0  0  0
   38.3230   26.5390   36.1810 C   0  0  0  0  0  0  0  0  0  0  0  0
   38.4710   25.1950   35.9730 C   0  0  0  0  0  0  0  0  0  0  0  0
   38.0550   27.6280   33.0050 H   0  0  0  0  0  0  0  0  0  0  0  0
   38.0570   28.5060   35.3620 H   0  0  0  0  0  0  0  0  0  0  0  0
   38.3310   26.8640   37.2110 H   0  0  0  0  0  0  0  0  0  0  0  0
   39.5670   25.1000   31.6310 C   0  0  0  0  0  0  0  0  0  0  0  0
   38.3260   25.0250   32.2910 C   0  0  0  0  0  0  0  0  0  0  0  0
   37.2580   24.4110   31.6370 C   0  0  0  0  0  0  0  0  0  0  0  0
   37.4710   23.9070   30.3760 N   0  0  0  0  0  0  0  0  0  0  0  0
   38.6610   23.9930   29.7780 C   0  0  0  0  0  0  0  0  0  0  0  0
   39.6940   24.5790   30.3900 N   0  0  0  0  0  0  0  0  0  0  0  0
   40.4670   25.5480   32.0270 H   0  0  0  0  0  0  0  0  0  0  0  0
   36.3440   24.3880   32.1940 H   0  0  0  0  0  0  0  0  0  0  0  0
   38.8040   23.5870   28.7820 H   0  0  0  0  0  0  0  0  0  0  0  0
   38.6310   24.2380   37.0710 C   0  0  0  0  0  0  0  0  0  0  0  0
   37.7870   24.2090   38.1850 C   0  0  0  0  0  0  0  0  0  0  0  0
   36.9360   24.8340   38.4180 H   0  0  0  0  0  0  0  0  0  0  0  0
   38.3130   23.1690   38.9300 C   0  0  0  0  0  0  0  0  0  0  0  0
   37.9190   22.8230   39.9000 H   0  0  0  0  0  0  0  0  0  0  0  0
   39.3800   22.6110   38.3300 N   0  0  0  0  0  0  0  0  0  0  0  0
   39.9420   21.8080   38.7040 H   0  0  0  0  0  0  0  0  0  0  0  0
   39.5690   23.2780   37.1820 N   0  0  0  0  0  0  0  0  0  0  0  0
  1  2  1  0  0  0  0
  2  7  1  0  0  0  0
  3  4  1  0  0  0  0
  3  2  2  0  0  0  0
  4  5  2  0  0  0  0
  5  9  1  0  0  0  0
  5  6  1  0  0  0  0
  6 10  1  0  0  0  0
  7  6  2  0  0  0  0
  7 20  1  0  0  0  0
  8  4  1  0  0  0  0
 11 17  1  0  0  0  0
 11 12  1  0  0  0  0
 12  3  1  0  0  0  0
 13 18  1  0  0  0  0
 13 12  2  0  0  0  0
 14 13  1  0  0  0  0
 15 14  2  0  0  0  0
 15 16  1  0  0  0  0
 16 11  2  0  0  0  0
 19 15  1  0  0  0  0
 20 27  2  0  0  0  0
 20 21  1  0  0  0  0
 21 22  1  0  0  0  0
 21 23  2  0  0  0  0
 23 24  1  0  0  0  0
 25 26  1  0  0  0  0
 25 23  1  0  0  0  0
 27 25  1  0  0  0  0
M  END
>  <minimizedAffinity>
-4.96412134

$$$$

 OpenBabel03262521383D

 27 29  0  0  0  0  0  0  0  0999 V2000
   35.5120   28.7170   34.6450 F   0  0  0  0  0  0  0  0  0  0  0  0
   35.7540   29.6290   33.6380 C   0  0  0  0  0  0  0  0  0  0  0  0
   36.2250   29.2300   32.4000 C   0  0  0  0  0  0  0  0  0  0  0  0
   36.4510   30.1890   31.4250 C   0  0  0  0  0  0  0  0  0  0  0  0
   36.2080   31.5360   31.6830 C   0  0  0  0  0  0  0  0  0  0  0  0
   35.7370   31.8720   32.9420 C   0  0  0  0  0  0  0  0  0  0  0  0
   35.5030   30.9530   33.9280 C   0  0  0  0  0  0  0  0  0  0  0  0
   36.8190   29.8590   30.4680 H   0  0  0  0  0  0  0  0  0  0  0  0
   36.3790   32.2910   30.9360 H   0  0  0  0  0  0  0  0  0  0  0  0
   35.5320   32.9020   33.1930 H   0  0  0  0  0  0  0  0  0  0  0  0
   37.6770   27.3590   32.7310 C   0  0  0  0  0  0  0  0  0  0  0  0
   36.4480   27.8220   32.2200 C   0  0  0  0  0  0  0  0  0  0  0  0
   35.5920   26.9070   31.6090 C   0  0  0  0  0  0  0  0  0  0  0  0
   35.9900   25.5930   31.5350 N   0  0  0  0  0  0  0  0  0  0  0  0
   37.1610   25.1860   32.0290 C   0  0  0  0  0  0  0  0  0  0  0  0
   37.9930   26.0500   32.6170 N   0  0  0  0  0  0  0  0  0  0  0  0
   38.4240   27.9640   33.2240 H   0  0  0  0  0  0  0  0  0  0  0  0
   34.6760   27.3240   31.2440 H   0  0  0  0  0  0  0  0  0  0  0  0
   37.4530   24.1440   31.9580 H   0  0  0  0  0  0  0  0  0  0  0  0
   35.0040   31.3260   35.2530 C   0  0  0  0  0  0  0  0  0  0  0  0
   33.6570   31.2280   35.6160 C   0  0  0  0  0  0  0  0  0  0  0  0
   32.8130   30.8890   35.0320 H   0  0  0  0  0  0  0  0  0  0  0  0
   33.6660   31.6790   36.9230 C   0  0  0  0  0  0  0  0  0  0  0  0
   32.7790   31.7540   37.5720 H   0  0  0  0  0  0  0  0  0  0  0  0
   34.9030   32.0210   37.3270 N   0  0  0  0  0  0  0  0  0  0  0  0
   35.1570   32.3880   38.2770 H   0  0  0  0  0  0  0  0  0  0  0  0
   35.7230   31.8000   36.2890 N   0  0  0  0  0  0  0  0  0  0  0  0
  2  7  1  0  0  0  0
  2  1  1  0  0  0  0
  3  2  2  0  0  0  0
  4  5  2  0  0  0  0
  4  3  1  0  0  0  0
  5  6  1  0  0  0  0
  6 10  1  0  0  0  0
  6  7  2  0  0  0  0
  7 20  1  0  0  0  0
  8  4  1  0  0  0  0
  9  5  1  0  0  0  0
 11 17  1  0  0  0  0
 12  3  1  0  0  0  0
 12 11  2  0  0  0  0
 13 12  1  0  0  0  0
 14 13  2  0  0  0  0
 14 15  1  0  0  0  0
 15 16  2  0  0  0  0
 16 11  1  0  0  0  0
 18 13  1  0  0  0  0
 19 15  1  0  0  0  0
 20 21  1  0  0  0  0
 20 27  2  0  0  0  0
 21 23  2  0  0  0  0
 22 21  1  0  0  0  0
 23 25  1  0  0  0  0
 23 24  1  0  0  0  0
 25 26  1  0  0  0  0
 27 25  1  0  0  0  0
M  END
>  <minimizedAffinity>
-4.9562397

$$$$

 OpenBabel03262521383D

 27 29  0  0  0  0  0  0  0  0999 V2000
   37.5860   21.6210   34.9500 F   0  0  0  0  0  0  0  0  0  0  0  0
   37.8570   22.8400   34.3640 C   0  0  0  0  0  0  0  0  0  0  0  0
   37.5610   23.0850   33.0360 C   0  0  0  0  0  0  0  0  0  0  0  0
   37.8540   24.3290   32.5000 C   0  0  0  0  0  0  0  0  0  0  0  0
   38.4370   25.3220   33.2840 C   0  0  0  0  0  0  0  0  0  0  0  0
   38.7080   25.0150   34.6070 C   0  0  0  0  0  0  0  0  0  0  0  0
   38.4330   23.8000   35.1700 C   0  0  0  0  0  0  0  0  0  0  0  0
   37.6180   24.5010   31.4620 H   0  0  0  0  0  0  0  0  0  0  0  0
   38.6690   26.2920   32.8810 H   0  0  0  0  0  0  0  0  0  0  0  0
   39.1590   25.7490   35.2580 H   0  0  0  0  0  0  0  0  0  0  0  0
   37.8680   21.2590   31.5240 C   0  0  0  0  0  0  0  0  0  0  0  0
   36.9620   22.0060   32.3010 C   0  0  0  0  0  0  0  0  0  0  0  0
   35.6150   21.6450   32.2870 C   0  0  0  0  0  0  0  0  0  0  0  0
   35.2370   20.5740   31.5130 N   0  0  0  0  0  0  0  0  0  0  0  0
   36.1210   19.8850   30.7880 C   0  0  0  0  0  0  0  0  0  0  0  0
   37.4140   20.2180   30.7900 N   0  0  0  0  0  0  0  0  0  0  0  0
   38.9310   21.4360   31.4500 H   0  0  0  0  0  0  0  0  0  0  0  0
   34.9810   22.2530   32.8990 H   0  0  0  0  0  0  0  0  0  0  0  0
   35.7970   19.0440   30.1860 H   0  0  0  0  0  0  0  0  0  0  0  0
   38.7270   23.4930   36.5720 C   0  0  0  0  0  0  0  0  0  0  0  0
   37.9790   24.0040   37.6360 C   0  0  0  0  0  0  0  0  0  0  0  0
   37.1210   24.6630   37.6180 H   0  0  0  0  0  0  0  0  0  0  0  0
   38.6110   23.4540   38.7370 C   0  0  0  0  0  0  0  0  0  0  0  0
   38.3140   23.6200   39.7850 H   0  0  0  0  0  0  0  0  0  0  0  0
   39.6500   22.6770   38.3820 N   0  0  0  0  0  0  0  0  0  0  0  0
   40.2780   22.1560   39.0410 H   0  0  0  0  0  0  0  0  0  0  0  0
   39.7150   22.7070   37.0420 N   0  0  0  0  0  0  0  0  0  0  0  0
  2  1  1  0  0  0  0
  2  7  1  0  0  0  0
  3  2  2  0  0  0  0
  4  3  1  0  0  0  0
  4  5  2  0  0  0  0
  5  6  1  0  0  0  0
  6  7  2  0  0  0  0
  6 10  1  0  0  0  0
  7 20  1  0  0  0  0
  8  4  1  0  0  0  0
  9  5  1  0  0  0  0
 11 12  1  0  0  0  0
 12  3  1  0  0  0  0
 13 12  2  0  0  0  0
 13 18  1  0  0  0  0
 14 13  1  0  0  0  0
 15 16  1  0  0  0  0
 15 14  2  0  0  0  0
 16 11  2  0  0  0  0
 17 11  1  0  0  0  0
 19 15  1  0  0  0  0
 20 27  2  0  0  0  0
 20 21  1  0  0  0  0
 21 23  2  0  0  0  0
 22 21  1  0  0  0  0
 23 24  1  0  0  0  0
 25 23  1  0  0  0  0
 25 26  1  0  0  0  0
 27 25  1  0  0  0  0
M  END
>  <minimizedAffinity>
-4.94714069

$$$$

 OpenBabel03262521383D

 27 29  0  0  0  0  0  0  0  0999 V2000
   39.4530   25.7760   32.2430 F   0  0  0  0  0  0  0  0  0  0  0  0
   38.9250   26.3500   33.3810 C   0  0  0  0  0  0  0  0  0  0  0  0
   39.7280   26.7130   34.4470 C   0  0  0  0  0  0  0  0  0  0  0  0
   39.1440   27.2860   35.5650 C   0  0  0  0  0  0  0  0  0  0  0  0
   37.7680   27.4960   35.6200 C   0  0  0  0  0  0  0  0  0  0  0  0
   37.0180   27.1120   34.5200 C   0  0  0  0  0  0  0  0  0  0  0  0
   37.5600   26.5440   33.4010 C   0  0  0  0  0  0  0  0  0  0  0  0
   39.7860   27.5600   36.3860 H   0  0  0  0  0  0  0  0  0  0  0  0
   37.3010   27.9400   36.4820 H   0  0  0  0  0  0  0  0  0  0  0  0
   35.9470   27.2530   34.5110 H   0  0  0  0  0  0  0  0  0  0  0  0
   41.5700   25.2560   34.8940 C   0  0  0  0  0  0  0  0  0  0  0  0
   41.1350   26.4600   34.3070 C   0  0  0  0  0  0  0  0  0  0  0  0
   42.0740   27.2670   33.6660 C   0  0  0  0  0  0  0  0  0  0  0  0
   43.3830   26.8470   33.6390 N   0  0  0  0  0  0  0  0  0  0  0  0
   43.7630   25.6990   34.2060 C   0  0  0  0  0  0  0  0  0  0  0  0
   42.8760   24.9150   34.8230 N   0  0  0  0  0  0  0  0  0  0  0  0
   40.9450   24.5460   35.4160 H   0  0  0  0  0  0  0  0  0  0  0  0
   41.6780   28.1660   33.2410 H   0  0  0  0  0  0  0  0  0  0  0  0
   44.8020   25.3900   34.1710 H   0  0  0  0  0  0  0  0  0  0  0  0
   36.7510   26.1440   32.2470 C   0  0  0  0  0  0  0  0  0  0  0  0
   36.3040   24.8350   32.0460 C   0  0  0  0  0  0  0  0  0  0  0  0
   36.4620   23.9550   32.6550 H   0  0  0  0  0  0  0  0  0  0  0  0
   35.6000   24.9380   30.8600 C   0  0  0  0  0  0  0  0  0  0  0  0
   35.0840   24.1050   30.3560 H   0  0  0  0  0  0  0  0  0  0  0  0
   35.6130   26.1940   30.3770 N   0  0  0  0  0  0  0  0  0  0  0  0
   35.1470   26.5140   29.4930 H   0  0  0  0  0  0  0  0  0  0  0  0
   36.3260   26.9320   31.2400 N   0  0  0  0  0  0  0  0  0  0  0  0
  1  2  1  0  0  0  0
  2  7  2  0  0  0  0
  2  3  1  0  0  0  0
  3  4  2  0  0  0  0
  4  5  1  0  0  0  0
  4  8  1  0  0  0  0
  5  9  1  0  0  0  0
  6  5  2  0  0  0  0
  7  6  1  0  0  0  0
 10  6  1  0  0  0  0
 11 17  1  0  0  0  0
 12  3  1  0  0  0  0
 12 11  2  0  0  0  0
 13 12  1  0  0  0  0
 14 13  2  0  0  0  0
 14 15  1  0  0  0  0
 15 16  2  0  0  0  0
 16 11  1  0  0  0  0
 18 13  1  0  0  0  0
 19 15  1  0  0  0  0
 20  7  1  0  0  0  0
 21 20  1  0  0  0  0
 21 22  1  0  0  0  0
 23 21  2  0  0  0  0
 24 23  1  0  0  0  0
 25 23  1  0  0  0  0
 25 27  1  0  0  0  0
 26 25  1  0  0  0  0
 27 20  2  0  0  0  0
M  END
>  <minimizedAffinity>
-4.89207363

$$$$

 OpenBabel03262521383D

 27 29  0  0  0  0  0  0  0  0999 V2000
   38.6930   25.3680   35.0490 F   0  0  0  0  0  0  0  0  0  0  0  0
   38.1980   24.2650   34.3840 C   0  0  0  0  0  0  0  0  0  0  0  0
   37.7900   24.3390   33.0650 C   0  0  0  0  0  0  0  0  0  0  0  0
   37.3020   23.2000   32.4460 C   0  0  0  0  0  0  0  0  0  0  0  0
   37.2220   21.9930   33.1390 C   0  0  0  0  0  0  0  0  0  0  0  0
   37.6470   21.9830   34.4570 C   0  0  0  0  0  0  0  0  0  0  0  0
   38.1330   23.0880   35.1000 C   0  0  0  0  0  0  0  0  0  0  0  0
   36.9870   23.2770   31.4190 H   0  0  0  0  0  0  0  0  0  0  0  0
   36.8450   21.1010   32.6710 H   0  0  0  0  0  0  0  0  0  0  0  0
   37.6060   21.0740   35.0390 H   0  0  0  0  0  0  0  0  0  0  0  0
   36.7360   26.4020   32.4760 C   0  0  0  0  0  0  0  0  0  0  0  0
   37.9060   25.6210   32.4280 C   0  0  0  0  0  0  0  0  0  0  0  0
   39.0310   26.1430   31.7890 C   0  0  0  0  0  0  0  0  0  0  0  0
   38.9410   27.3990   31.2370 N   0  0  0  0  0  0  0  0  0  0  0  0
   37.8160   28.1140   31.3000 C   0  0  0  0  0  0  0  0  0  0  0  0
   36.7300   27.6290   31.9070 N   0  0  0  0  0  0  0  0  0  0  0  0
   35.8030   26.1140   32.9390 H   0  0  0  0  0  0  0  0  0  0  0  0
   39.8860   25.4990   31.7890 H   0  0  0  0  0  0  0  0  0  0  0  0
   37.7700   29.1020   30.8560 H   0  0  0  0  0  0  0  0  0  0  0  0
   38.5790   23.0590   36.4950 C   0  0  0  0  0  0  0  0  0  0  0  0
   37.8380   23.6120   37.5430 C   0  0  0  0  0  0  0  0  0  0  0  0
   36.8830   24.1190   37.5150 H   0  0  0  0  0  0  0  0  0  0  0  0
   38.6350   23.3510   38.6430 C   0  0  0  0  0  0  0  0  0  0  0  0
   38.3940   23.6340   39.6800 H   0  0  0  0  0  0  0  0  0  0  0  0
   39.7600   22.6970   38.3030 N   0  0  0  0  0  0  0  0  0  0  0  0
   40.5150   22.3920   38.9650 H   0  0  0  0  0  0  0  0  0  0  0  0
   39.7180   22.5210   36.9730 N   0  0  0  0  0  0  0  0  0  0  0  0
  2  1  1  0  0  0  0
  2  7  1  0  0  0  0
  3  2  2  0  0  0  0
  4  3  1  0  0  0  0
  4  5  2  0  0  0  0
  5  6  1  0  0  0  0
  6 10  1  0  0  0  0
  6  7  2  0  0  0  0
  7 20  1  0  0  0  0
  8  4  1  0  0  0  0
  9  5  1  0  0  0  0
 11 17  1  0  0  0  0
 12 11  1  0  0  0  0
 12  3  1  0  0  0  0
 13 12  2  0  0  0  0
 14 15  2  0  0  0  0
 14 13  1  0  0  0  0
 15 16  1  0  0  0  0
 16 11  2  0  0  0  0
 18 13  1  0  0  0  0
 19 15  1  0  0  0  0
 20 27  2  0  0  0  0
 20 21  1  0  0  0  0
 21 23  2  0  0  0  0
 22 21  1  0  0  0  0
 23 24  1  0  0  0  0
 25 23  1  0  0  0  0
 25 26  1  0  0  0  0
 27 25  1  0  0  0  0
M  END
>  <minimizedAffinity>
-4.87252998

$$$$

 OpenBabel03262521383D

 27 29  0  0  0  0  0  0  0  0999 V2000
   36.9530   25.7130   33.4200 F   0  0  0  0  0  0  0  0  0  0  0  0
   38.2840   26.0680   33.5020 C   0  0  0  0  0  0  0  0  0  0  0  0
   39.1250   25.5050   34.4440 C   0  0  0  0  0  0  0  0  0  0  0  0
   40.4530   25.8990   34.4810 C   0  0  0  0  0  0  0  0  0  0  0  0
   40.9390   26.8460   33.5830 C   0  0  0  0  0  0  0  0  0  0  0  0
   40.0470   27.3720   32.6630 C   0  0  0  0  0  0  0  0  0  0  0  0
   38.7310   27.0080   32.5980 C   0  0  0  0  0  0  0  0  0  0  0  0
   41.0930   25.4500   35.2230 H   0  0  0  0  0  0  0  0  0  0  0  0
   41.9680   27.1610   33.6000 H   0  0  0  0  0  0  0  0  0  0  0  0
   40.3720   28.1100   31.9440 H   0  0  0  0  0  0  0  0  0  0  0  0
   38.1630   25.0520   36.5850 C   0  0  0  0  0  0  0  0  0  0  0  0
   38.5420   24.5370   35.3300 C   0  0  0  0  0  0  0  0  0  0  0  0
   38.3240   23.1840   35.0710 C   0  0  0  0  0  0  0  0  0  0  0  0
   37.7480   22.4170   36.0560 N   0  0  0  0  0  0  0  0  0  0  0  0
   37.4010   22.9360   37.2360 C   0  0  0  0  0  0  0  0  0  0  0  0
   37.6030   24.2300   37.5010 N   0  0  0  0  0  0  0  0  0  0  0  0
   38.2780   26.0770   36.9080 H   0  0  0  0  0  0  0  0  0  0  0  0
   38.6330   22.8580   34.0990 H   0  0  0  0  0  0  0  0  0  0  0  0
   36.9490   22.3100   37.9970 H   0  0  0  0  0  0  0  0  0  0  0  0
   37.8010   27.5740   31.6170 C   0  0  0  0  0  0  0  0  0  0  0  0
   36.9940   28.6840   31.8840 C   0  0  0  0  0  0  0  0  0  0  0  0
   36.9170   29.2740   32.7870 H   0  0  0  0  0  0  0  0  0  0  0  0
   36.3070   28.8470   30.6950 C   0  0  0  0  0  0  0  0  0  0  0  0
   35.5590   29.6320   30.5000 H   0  0  0  0  0  0  0  0  0  0  0  0
   36.6590   27.9240   29.7820 N   0  0  0  0  0  0  0  0  0  0  0  0
   36.2730   27.8470   28.8100 H   0  0  0  0  0  0  0  0  0  0  0  0
   37.5830   27.1410   30.3600 N   0  0  0  0  0  0  0  0  0  0  0  0
  1  2  1  0  0  0  0
  2  3  1  0  0  0  0
  3  4  2  0  0  0  0
  3 12  1  0  0  0  0
  4  8  1  0  0  0  0
  5  9  1  0  0  0  0
  5  4  1  0  0  0  0
  6  5  2  0  0  0  0
  7  6  1  0  0  0  0
  7  2  2  0  0  0  0
 10  6  1  0  0  0  0
 11 17  1  0  0  0  0
 11 16  1  0  0  0  0
 12 11  2  0  0  0  0
 13 12  1  0  0  0  0
 13 14  2  0  0  0  0
 14 15  1  0  0  0  0
 15 16  2  0  0  0  0
 15 19  1  0  0  0  0
 18 13  1  0  0  0  0
 20 21  1  0  0  0  0
 20  7  1  0  0  0  0
 21 22  1  0  0  0  0
 23 21  2  0  0  0  0
 24 23  1  0  0  0  0
 25 27  1  0  0  0  0
 25 23  1  0  0  0  0
 26 25  1  0  0  0  0
 27 20  2  0  0  0  0
M  END
>  <minimizedAffinity>
-4.77161598

$$$$

 OpenBabel03262521383D

 27 29  0  0  0  0  0  0  0  0999 V2000
   38.9250   25.1940   34.9160 F   0  0  0  0  0  0  0  0  0  0  0  0
   38.3000   24.1550   34.2580 C   0  0  0  0  0  0  0  0  0  0  0  0
   37.6560   24.3480   33.0500 C   0  0  0  0  0  0  0  0  0  0  0  0
   37.0450   23.2680   32.4330 C   0  0  0  0  0  0  0  0  0  0  0  0
   37.0780   22.0040   33.0170 C   0  0  0  0  0  0  0  0  0  0  0  0
   37.7400   21.8750   34.2270 C   0  0  0  0  0  0  0  0  0  0  0  0
   38.3530   22.9170   34.8640 C   0  0  0  0  0  0  0  0  0  0  0  0
   36.5470   23.4380   31.4920 H   0  0  0  0  0  0  0  0  0  0  0  0
   36.6080   21.1560   32.5480 H   0  0  0  0  0  0  0  0  0  0  0  0
   37.7950   20.9160   34.7210 H   0  0  0  0  0  0  0  0  0  0  0  0
   38.6420   25.9030   31.5250 C   0  0  0  0  0  0  0  0  0  0  0  0
   37.6700   25.6830   32.5200 C   0  0  0  0  0  0  0  0  0  0  0  0
   36.8410   26.7420   32.8870 C   0  0  0  0  0  0  0  0  0  0  0  0
   37.0130   27.9520   32.2570 N   0  0  0  0  0  0  0  0  0  0  0  0
   37.9440   28.1270   31.3170 C   0  0  0  0  0  0  0  0  0  0  0  0
   38.7470   27.1240   30.9550 N   0  0  0  0  0  0  0  0  0  0  0  0
   39.3430   25.1680   31.1540 H   0  0  0  0  0  0  0  0  0  0  0  0
   36.1240   26.5080   33.6470 H   0  0  0  0  0  0  0  0  0  0  0  0
   38.0600   29.0920   30.8360 H   0  0  0  0  0  0  0  0  0  0  0  0
   39.0480   22.7630   36.1440 C   0  0  0  0  0  0  0  0  0  0  0  0
   40.3620   22.2950   36.2460 C   0  0  0  0  0  0  0  0  0  0  0  0
   41.0430   21.9890   35.4630 H   0  0  0  0  0  0  0  0  0  0  0  0
   40.5830   22.3190   37.6110 C   0  0  0  0  0  0  0  0  0  0  0  0
   41.5210   22.0180   38.1050 H   0  0  0  0  0  0  0  0  0  0  0  0
   39.5060   22.7600   38.2850 N   0  0  0  0  0  0  0  0  0  0  0  0
   39.4370   22.8640   39.3270 H   0  0  0  0  0  0  0  0  0  0  0  0
   38.5620   23.0320   37.3710 N   0  0  0  0  0  0  0  0  0  0  0  0
  2  7  1  0  0  0  0
  2  1  1  0  0  0  0
  3  2  2  0  0  0  0
  4  5  2  0  0  0  0
  4  3  1  0  0  0  0
  5  6  1  0  0  0  0
  6 10  1  0  0  0  0
  6  7  2  0  0  0  0
  7 20  1  0  0  0  0
  8  4  1  0  0  0  0
  9  5  1  0  0  0  0
 11 12  1  0  0  0  0
 12 13  2  0  0  0  0
 12  3  1  0  0  0  0
 13 18  1  0  0  0  0
 14 13  1  0  0  0  0
 15 14  2  0  0  0  0
 16 15  1  0  0  0  0
 16 11  2  0  0  0  0
 17 11  1  0  0  0  0
 19 15  1  0  0  0  0
 20 21  1  0  0  0  0
 20 27  2  0  0  0  0
 21 23  2  0  0  0  0
 22 21  1  0  0  0  0
 23 24  1  0  0  0  0
 23 25  1  0  0  0  0
 25 26  1  0  0  0  0
 27 25  1  0  0  0  0
M  END
>  <minimizedAffinity>
-4.6960187

$$$$
