
 OpenBabel03272508173D

 24 26  0  0  0  0  0  0  0  0999 V2000
   37.7190   31.5590   47.4570 C   0  0  0  0  0  0  0  0  0  0  0  0
   36.9410   31.3410   48.5890 C   0  0  0  0  0  0  0  0  0  0  0  0
   37.2880   32.1440   49.6870 C   0  0  0  0  0  0  0  0  0  0  0  0
   38.2950   33.0380   49.6130 N   0  0  0  0  0  0  0  0  0  0  0  0
   39.0240   33.2160   48.4900 C   0  0  0  0  0  0  0  0  0  0  0  0
   38.7280   32.4690   47.4150 N   0  0  0  0  0  0  0  0  0  0  0  0
   36.7880   32.1040   50.6450 H   0  0  0  0  0  0  0  0  0  0  0  0
   39.8430   33.8960   48.3220 H   0  0  0  0  0  0  0  0  0  0  0  0
   37.3180   30.8060   46.2050 C   0  0  0  0  0  0  0  0  0  0  0  0
   37.6050   31.3200   44.8900 C   0  0  0  0  0  0  0  0  0  0  0  0
   38.5780   30.3130   45.4580 C   0  0  0  0  0  0  0  0  0  0  0  0
   36.6260   29.9510   46.3750 H   0  0  0  0  0  0  0  0  0  0  0  0
   37.9750   32.3740   44.7490 H   0  0  0  0  0  0  0  0  0  0  0  0
   37.0340   30.9970   44.0030 H   0  0  0  0  0  0  0  0  0  0  0  0
   38.5460   29.2770   45.1460 H   0  0  0  0  0  0  0  0  0  0  0  0
   39.5460   30.7000   45.8050 H   0  0  0  0  0  0  0  0  0  0  0  0
   35.8640   30.3940   48.7270 C   0  0  0  0  0  0  0  0  0  0  0  0
   36.0420   29.1420   49.2850 C   0  0  0  0  0  0  0  0  0  0  0  0
   36.9450   28.6860   49.6830 H   0  0  0  0  0  0  0  0  0  0  0  0
   34.8600   28.4430   49.2970 C   0  0  0  0  0  0  0  0  0  0  0  0
   34.6740   27.4440   49.6650 H   0  0  0  0  0  0  0  0  0  0  0  0
   33.9590   29.2690   48.7460 N   0  0  0  0  0  0  0  0  0  0  0  0
   32.9470   29.0780   48.5880 H   0  0  0  0  0  0  0  0  0  0  0  0
   34.5730   30.3770   48.4320 N   0  0  0  0  0  0  0  0  0  0  0  0
  1  2  1  0  0  0  0
  2 17  1  0  0  0  0
  2  3  2  0  0  0  0
  3  7  1  0  0  0  0
  4  3  1  0  0  0  0
  5  4  2  0  0  0  0
  6  1  2  0  0  0  0
  6  5  1  0  0  0  0
  8  5  1  0  0  0  0
  9 12  1  0  0  0  0
  9  1  1  0  0  0  0
 10 11  1  0  0  0  0
 10  9  1  0  0  0  0
 11 16  1  0  0  0  0
 11  9  1  0  0  0  0
 13 10  1  0  0  0  0
 14 10  1  0  0  0  0
 15 11  1  0  0  0  0
 17 18  1  0  0  0  0
 18 20  2  0  0  0  0
 18 19  1  0  0  0  0
 20 21  1  0  0  0  0
 22 20  1  0  0  0  0
 23 22  1  0  0  0  0
 24 17  2  0  0  0  0
 24 22  1  0  0  0  0
M  END
>  <minimizedAffinity>
-4.77559376

>  <minimizedRMSD>
4.30822849

$$$$
