
 OpenBabel03272508353D

 30 32  0  0  0  0  0  0  0  0999 V2000
   37.6960   31.0930   48.0920 C   0  0  0  0  0  0  0  0  0  0  0  0
   37.0690   30.9320   46.8830 C   0  0  0  0  0  0  0  0  0  0  0  0
   37.7980   31.6010   45.9080 C   0  0  0  0  0  0  0  0  0  0  0  0
   38.8480   32.1480   46.5640 N   0  0  0  0  0  0  0  0  0  0  0  0
   38.7930   31.8480   47.8680 N   0  0  0  0  0  0  0  0  0  0  0  0
   36.1470   30.3860   46.6290 H   0  0  0  0  0  0  0  0  0  0  0  0
   37.5640   31.6650   44.8520 H   0  0  0  0  0  0  0  0  0  0  0  0
   37.2770   30.0390   51.6880 C   0  0  0  0  0  0  0  0  0  0  0  0
   37.8390   30.6270   50.5630 C   0  0  0  0  0  0  0  0  0  0  0  0
   37.1880   30.5150   49.3230 C   0  0  0  0  0  0  0  0  0  0  0  0
   36.0170   29.8190   49.3050 N   0  0  0  0  0  0  0  0  0  0  0  0
   35.4920   29.2580   50.4190 C   0  0  0  0  0  0  0  0  0  0  0  0
   36.1260   29.3740   51.5900 N   0  0  0  0  0  0  0  0  0  0  0  0
   37.8600   30.1860   52.5870 H   0  0  0  0  0  0  0  0  0  0  0  0
   38.7670   31.1930   50.5010 H   0  0  0  0  0  0  0  0  0  0  0  0
   34.5640   28.7210   50.3340 H   0  0  0  0  0  0  0  0  0  0  0  0
   39.8730   32.9460   45.8970 C   0  0  0  0  0  0  0  0  0  0  0  0
   40.3740   33.5740   46.6460 H   0  0  0  0  0  0  0  0  0  0  0  0
   39.4120   33.5390   45.0790 H   0  0  0  0  0  0  0  0  0  0  0  0
   40.8950   32.0330   45.2550 C   0  0  0  0  0  0  0  0  0  0  0  0
   41.8960   32.4960   45.1830 H   0  0  0  0  0  0  0  0  0  0  0  0
   40.8640   31.0870   45.8180 H   0  0  0  0  0  0  0  0  0  0  0  0
   40.4290   31.7500   43.8720 C   0  0  0  0  0  0  0  0  0  0  0  0
   40.6160   30.5210   43.2290 C   0  0  0  0  0  0  0  0  0  0  0  0
   41.0960   29.6150   43.5880 H   0  0  0  0  0  0  0  0  0  0  0  0
   40.0510   30.6310   41.9530 C   0  0  0  0  0  0  0  0  0  0  0  0
   40.0230   29.8580   41.1990 H   0  0  0  0  0  0  0  0  0  0  0  0
   39.5500   31.8860   41.8550 N   0  0  0  0  0  0  0  0  0  0  0  0
   39.0740   32.2090   40.9880 H   0  0  0  0  0  0  0  0  0  0  0  0
   39.7710   32.5560   42.9900 N   0  0  0  0  0  0  0  0  0  0  0  0
  1 10  1  0  0  0  0
  2  1  1  0  0  0  0
  3  4  1  0  0  0  0
  3  2  2  0  0  0  0
  4  5  1  0  0  0  0
  5  1  2  0  0  0  0
  6  2  1  0  0  0  0
  7  3  1  0  0  0  0
  8 14  1  0  0  0  0
  9  8  2  0  0  0  0
 10  9  1  0  0  0  0
 11 10  2  0  0  0  0
 11 12  1  0  0  0  0
 12 13  2  0  0  0  0
 13  8  1  0  0  0  0
 15  9  1  0  0  0  0
 16 12  1  0  0  0  0
 17  4  1  0  0  0  0
 17 18  1  0  0  0  0
 19 17  1  0  0  0  0
 20 22  1  0  0  0  0
 20 17  1  0  0  0  0
 21 20  1  0  0  0  0
 23 20  1  0  0  0  0
 24 25  1  0  0  0  0
 24 23  1  0  0  0  0
 26 24  2  0  0  0  0
 27 26  1  0  0  0  0
 28 26  1  0  0  0  0
 28 30  1  0  0  0  0
 29 28  1  0  0  0  0
 30 23  2  0  0  0  0
M  END
>  <minimizedAffinity>
-5.39877272

>  <minimizedRMSD>
2.33100915

$$$$
