
 OpenBabel03272502193D

 27 29  0  0  0  0  0  0  0  0999 V2000
   37.8290   31.9440   47.1240 C   0  0  0  0  0  0  0  0  0  0  0  0
   38.1240   31.8590   45.7480 C   0  0  0  0  0  0  0  0  0  0  0  0
   37.3710   30.9550   45.0000 C   0  0  0  0  0  0  0  0  0  0  0  0
   36.4010   30.2070   45.6170 N   0  0  0  0  0  0  0  0  0  0  0  0
   36.1550   30.3230   46.9390 C   0  0  0  0  0  0  0  0  0  0  0  0
   36.8740   31.1970   47.6950 N   0  0  0  0  0  0  0  0  0  0  0  0
   38.8860   32.4500   45.2740 H   0  0  0  0  0  0  0  0  0  0  0  0
   37.5250   30.8220   43.9430 H   0  0  0  0  0  0  0  0  0  0  0  0
   36.9630   29.4270   49.8350 Br  0  0  0  0  0  0  0  0  0  0  0  0
   35.3400   29.0730   48.9060 C   0  0  0  0  0  0  0  0  0  0  0  0
   35.1340   29.5440   47.6170 C   0  0  0  0  0  0  0  0  0  0  0  0
   33.9250   29.2460   47.0020 C   0  0  0  0  0  0  0  0  0  0  0  0
   32.9350   28.5050   47.6270 C   0  0  0  0  0  0  0  0  0  0  0  0
   33.1730   28.0540   48.9040 C   0  0  0  0  0  0  0  0  0  0  0  0
   34.3800   28.3430   49.5360 C   0  0  0  0  0  0  0  0  0  0  0  0
   33.7880   29.6220   46.0020 H   0  0  0  0  0  0  0  0  0  0  0  0
   31.9980   28.2800   47.1380 H   0  0  0  0  0  0  0  0  0  0  0  0
   32.4520   27.4660   49.4700 H   0  0  0  0  0  0  0  0  0  0  0  0
   34.5440   27.9830   50.5290 H   0  0  0  0  0  0  0  0  0  0  0  0
   38.5970   32.8820   47.9510 C   0  0  0  0  0  0  0  0  0  0  0  0
   38.4590   33.0680   49.3150 C   0  0  0  0  0  0  0  0  0  0  0  0
   37.7830   32.5710   49.9950 H   0  0  0  0  0  0  0  0  0  0  0  0
   39.3930   34.0440   49.6130 C   0  0  0  0  0  0  0  0  0  0  0  0
   39.5910   34.4640   50.5930 H   0  0  0  0  0  0  0  0  0  0  0  0
   40.0530   34.4270   48.5150 N   0  0  0  0  0  0  0  0  0  0  0  0
   40.8090   35.1160   48.3280 H   0  0  0  0  0  0  0  0  0  0  0  0
   39.5620   33.7190   47.5260 N   0  0  0  0  0  0  0  0  0  0  0  0
  1  6  1  0  0  0  0
  1 20  1  0  0  0  0
  2  1  2  0  0  0  0
  3  4  2  0  0  0  0
  3  2  1  0  0  0  0
  4  5  1  0  0  0  0
  5 11  1  0  0  0  0
  5  6  2  0  0  0  0
  7  2  1  0  0  0  0
  8  3  1  0  0  0  0
 10 15  1  0  0  0  0
 10  9  1  0  0  0  0
 11 10  2  0  0  0  0
 12 11  1  0  0  0  0
 12 13  2  0  0  0  0
 13 14  1  0  0  0  0
 14 18  1  0  0  0  0
 14 15  2  0  0  0  0
 15 19  1  0  0  0  0
 16 12  1  0  0  0  0
 17 13  1  0  0  0  0
 20 21  1  0  0  0  0
 21 23  2  0  0  0  0
 21 22  1  0  0  0  0
 23 24  1  0  0  0  0
 25 23  1  0  0  0  0
 26 25  1  0  0  0  0
 27 20  2  0  0  0  0
 27 25  1  0  0  0  0
M  END
>  <minimizedAffinity>
-5.42562342

>  <minimizedRMSD>
2.47643685

$$$$
