
 OpenBabel03262521363D

 27 29  0  0  0  0  0  0  0  0999 V2000
   38.1370   31.0220   47.9590 F   0  0  0  0  0  0  0  0  0  0  0  0
   37.2380   30.7310   46.9540 C   0  0  0  0  0  0  0  0  0  0  0  0
   36.0050   30.1670   47.2260 C   0  0  0  0  0  0  0  0  0  0  0  0
   35.1420   29.8970   46.1770 C   0  0  0  0  0  0  0  0  0  0  0  0
   35.5060   30.1880   44.8640 C   0  0  0  0  0  0  0  0  0  0  0  0
   36.7530   30.7530   44.6560 C   0  0  0  0  0  0  0  0  0  0  0  0
   37.6310   31.0330   45.6670 C   0  0  0  0  0  0  0  0  0  0  0  0
   34.1860   29.4560   46.4090 H   0  0  0  0  0  0  0  0  0  0  0  0
   34.8450   29.9840   44.0390 H   0  0  0  0  0  0  0  0  0  0  0  0
   37.0840   30.9990   43.6570 H   0  0  0  0  0  0  0  0  0  0  0  0
   36.8070   29.4180   49.3500 C   0  0  0  0  0  0  0  0  0  0  0  0
   35.7120   29.8990   48.6070 C   0  0  0  0  0  0  0  0  0  0  0  0
   34.4880   30.0650   49.2530 C   0  0  0  0  0  0  0  0  0  0  0  0
   34.4100   29.7510   50.5890 N   0  0  0  0  0  0  0  0  0  0  0  0
   35.4680   29.2970   51.2660 C   0  0  0  0  0  0  0  0  0  0  0  0
   36.6470   29.1320   50.6620 N   0  0  0  0  0  0  0  0  0  0  0  0
   37.8030   29.2470   48.9680 H   0  0  0  0  0  0  0  0  0  0  0  0
   33.6980   30.4340   48.6320 H   0  0  0  0  0  0  0  0  0  0  0  0
   35.3800   29.0560   52.3200 H   0  0  0  0  0  0  0  0  0  0  0  0
   38.9460   31.6310   45.4280 C   0  0  0  0  0  0  0  0  0  0  0  0
   39.1160   32.9300   44.9400 C   0  0  0  0  0  0  0  0  0  0  0  0
   38.3690   33.6650   44.6730 H   0  0  0  0  0  0  0  0  0  0  0  0
   40.4930   33.0490   44.8800 C   0  0  0  0  0  0  0  0  0  0  0  0
   41.0350   33.9460   44.5400 H   0  0  0  0  0  0  0  0  0  0  0  0
   41.1110   31.9290   45.2940 N   0  0  0  0  0  0  0  0  0  0  0  0
   42.1500   31.7840   45.3380 H   0  0  0  0  0  0  0  0  0  0  0  0
   40.1480   31.0570   45.6300 N   0  0  0  0  0  0  0  0  0  0  0  0
  2  3  1  0  0  0  0
  2  1  1  0  0  0  0
  3 12  1  0  0  0  0
  4  8  1  0  0  0  0
  4  3  2  0  0  0  0
  5  4  1  0  0  0  0
  6  5  2  0  0  0  0
  6  7  1  0  0  0  0
  7  2  2  0  0  0  0
  9  5  1  0  0  0  0
 10  6  1  0  0  0  0
 11 16  1  0  0  0  0
 12 13  1  0  0  0  0
 12 11  2  0  0  0  0
 13 14  2  0  0  0  0
 14 15  1  0  0  0  0
 15 19  1  0  0  0  0
 16 15  2  0  0  0  0
 17 11  1  0  0  0  0
 18 13  1  0  0  0  0
 20 27  2  0  0  0  0
 20  7  1  0  0  0  0
 21 20  1  0  0  0  0
 22 21  1  0  0  0  0
 23 21  2  0  0  0  0
 23 25  1  0  0  0  0
 24 23  1  0  0  0  0
 25 26  1  0  0  0  0
 25 27  1  0  0  0  0
M  END
>  <minimizedAffinity>
-5.23042011

>  <minimizedRMSD>
4.3737421

$$$$
