
 OpenBabel03272510323D

 27 29  0  0  0  0  0  0  0  0999 V2000
   35.8140   29.9850   47.7950 C   0  0  0  0  0  0  0  0  0  0  0  0
   34.9390   29.9930   46.7390 C   0  0  0  0  0  0  0  0  0  0  0  0
   33.7980   29.2150   46.7590 C   0  0  0  0  0  0  0  0  0  0  0  0
   33.5550   28.4330   47.8560 C   0  0  0  0  0  0  0  0  0  0  0  0
   34.4250   28.4010   48.9510 C   0  0  0  0  0  0  0  0  0  0  0  0
   35.5670   29.1910   48.9100 C   0  0  0  0  0  0  0  0  0  0  0  0
   35.1040   30.5980   45.8620 H   0  0  0  0  0  0  0  0  0  0  0  0
   33.0720   29.1700   45.9770 H   0  0  0  0  0  0  0  0  0  0  0  0
   32.6900   27.7920   47.9630 H   0  0  0  0  0  0  0  0  0  0  0  0
   34.2380   27.7870   49.8190 H   0  0  0  0  0  0  0  0  0  0  0  0
   38.1940   32.6390   48.5500 C   0  0  0  0  0  0  0  0  0  0  0  0
   39.2010   32.4840   47.6020 C   0  0  0  0  0  0  0  0  0  0  0  0
   39.0510   31.4220   46.6650 C   0  0  0  0  0  0  0  0  0  0  0  0
   37.9480   30.6450   46.7650 N   0  0  0  0  0  0  0  0  0  0  0  0
   36.9920   30.8260   47.6990 C   0  0  0  0  0  0  0  0  0  0  0  0
   37.1390   31.8280   48.5780 N   0  0  0  0  0  0  0  0  0  0  0  0
   38.3650   33.4620   49.2310 H   0  0  0  0  0  0  0  0  0  0  0  0
   40.1000   33.0630   47.4650 H   0  0  0  0  0  0  0  0  0  0  0  0
   39.7360   31.1640   45.8690 H   0  0  0  0  0  0  0  0  0  0  0  0
   36.4920   29.1790   50.0390 C   0  0  0  0  0  0  0  0  0  0  0  0
   36.0120   29.7850   51.2050 C   0  0  0  0  0  0  0  0  0  0  0  0
   35.1090   30.2820   51.5210 H   0  0  0  0  0  0  0  0  0  0  0  0
   37.0170   29.6820   52.1630 C   0  0  0  0  0  0  0  0  0  0  0  0
   37.0990   30.0050   53.2110 H   0  0  0  0  0  0  0  0  0  0  0  0
   38.0460   29.0330   51.5630 N   0  0  0  0  0  0  0  0  0  0  0  0
   38.9800   28.7720   51.9680 H   0  0  0  0  0  0  0  0  0  0  0  0
   37.7320   28.7360   50.2980 N   0  0  0  0  0  0  0  0  0  0  0  0
  1  6  1  0  0  0  0
  2  3  1  0  0  0  0
  2  1  2  0  0  0  0
  3  4  2  0  0  0  0
  4  9  1  0  0  0  0
  4  5  1  0  0  0  0
  5 10  1  0  0  0  0
  6  5  2  0  0  0  0
  6 20  1  0  0  0  0
  7  2  1  0  0  0  0
  8  3  1  0  0  0  0
 11 16  1  0  0  0  0
 11 17  1  0  0  0  0
 12 11  2  0  0  0  0
 13 14  2  0  0  0  0
 13 12  1  0  0  0  0
 14 15  1  0  0  0  0
 15  1  1  0  0  0  0
 15 16  2  0  0  0  0
 18 12  1  0  0  0  0
 19 13  1  0  0  0  0
 20 27  2  0  0  0  0
 20 21  1  0  0  0  0
 21 22  1  0  0  0  0
 21 23  2  0  0  0  0
 23 24  1  0  0  0  0
 25 26  1  0  0  0  0
 25 23  1  0  0  0  0
 27 25  1  0  0  0  0
M  END
>  <minimizedAffinity>
-5.38117361

>  <minimizedRMSD>
1.02590144

$$$$
