
 OpenBabel03272510323D

 27 29  0  0  0  0  0  0  0  0999 V2000
   35.9640   30.1580   48.3320 C   0  0  0  0  0  0  0  0  0  0  0  0
   35.1560   30.0860   47.2260 C   0  0  0  0  0  0  0  0  0  0  0  0
   34.1270   29.1670   47.1580 C   0  0  0  0  0  0  0  0  0  0  0  0
   33.9270   28.3250   48.2200 C   0  0  0  0  0  0  0  0  0  0  0  0
   34.7310   28.3720   49.3630 C   0  0  0  0  0  0  0  0  0  0  0  0
   35.7600   29.3030   49.4100 C   0  0  0  0  0  0  0  0  0  0  0  0
   35.2890   30.7350   46.3750 H   0  0  0  0  0  0  0  0  0  0  0  0
   33.4590   29.0520   46.3330 H   0  0  0  0  0  0  0  0  0  0  0  0
   33.1490   27.5750   48.2590 H   0  0  0  0  0  0  0  0  0  0  0  0
   34.5780   27.7110   50.2030 H   0  0  0  0  0  0  0  0  0  0  0  0
   37.9400   33.0610   49.3050 C   0  0  0  0  0  0  0  0  0  0  0  0
   39.0000   33.0780   48.4030 C   0  0  0  0  0  0  0  0  0  0  0  0
   39.0320   32.0470   47.4210 C   0  0  0  0  0  0  0  0  0  0  0  0
   38.0370   31.1320   47.4360 N   0  0  0  0  0  0  0  0  0  0  0  0
   37.0250   31.1460   48.3270 C   0  0  0  0  0  0  0  0  0  0  0  0
   36.9990   32.1200   49.2490 N   0  0  0  0  0  0  0  0  0  0  0  0
   37.9710   33.8680   50.0240 H   0  0  0  0  0  0  0  0  0  0  0  0
   39.8200   33.7730   48.3340 H   0  0  0  0  0  0  0  0  0  0  0  0
   39.7800   31.9150   46.6510 H   0  0  0  0  0  0  0  0  0  0  0  0
   36.6130   29.3760   50.5920 C   0  0  0  0  0  0  0  0  0  0  0  0
   37.6820   28.4730   50.6090 C   0  0  0  0  0  0  0  0  0  0  0  0
   38.0710   27.7010   49.9640 H   0  0  0  0  0  0  0  0  0  0  0  0
   38.3780   28.6840   51.7960 C   0  0  0  0  0  0  0  0  0  0  0  0
   39.2720   28.2220   52.2410 H   0  0  0  0  0  0  0  0  0  0  0  0
   37.7270   29.6810   52.4430 N   0  0  0  0  0  0  0  0  0  0  0  0
   37.9560   30.1170   53.3710 H   0  0  0  0  0  0  0  0  0  0  0  0
   36.6770   30.0920   51.7250 N   0  0  0  0  0  0  0  0  0  0  0  0
  1  6  1  0  0  0  0
  2  1  2  0  0  0  0
  3  2  1  0  0  0  0
  3  4  2  0  0  0  0
  4  9  1  0  0  0  0
  4  5  1  0  0  0  0
  5  6  2  0  0  0  0
  5 10  1  0  0  0  0
  6 20  1  0  0  0  0
  7  2  1  0  0  0  0
  8  3  1  0  0  0  0
 11 17  1  0  0  0  0
 12 11  2  0  0  0  0
 13 14  2  0  0  0  0
 13 12  1  0  0  0  0
 14 15  1  0  0  0  0
 15  1  1  0  0  0  0
 15 16  2  0  0  0  0
 16 11  1  0  0  0  0
 18 12  1  0  0  0  0
 19 13  1  0  0  0  0
 20 21  1  0  0  0  0
 20 27  2  0  0  0  0
 21 23  2  0  0  0  0
 22 21  1  0  0  0  0
 23 24  1  0  0  0  0
 23 25  1  0  0  0  0
 25 26  1  0  0  0  0
 27 25  1  0  0  0  0
M  END
>  <minimizedAffinity>
-4.6639576

>  <minimizedRMSD>
0.627771676

$$$$
