
 OpenBabel03262521043D

 27 29  0  0  0  0  0  0  0  0999 V2000
   38.4440   31.2430   47.7640 Br  0  0  0  0  0  0  0  0  0  0  0  0
   37.0450   30.7180   46.5970 C   0  0  0  0  0  0  0  0  0  0  0  0
   35.9640   30.1230   47.1970 C   0  0  0  0  0  0  0  0  0  0  0  0
   34.8960   29.7110   46.3890 C   0  0  0  0  0  0  0  0  0  0  0  0
   34.9420   29.9060   45.0150 C   0  0  0  0  0  0  0  0  0  0  0  0
   36.0500   30.5050   44.5020 C   0  0  0  0  0  0  0  0  0  0  0  0
   37.1250   30.9250   45.2580 C   0  0  0  0  0  0  0  0  0  0  0  0
   34.0090   29.2350   46.7880 H   0  0  0  0  0  0  0  0  0  0  0  0
   34.1140   29.5880   44.3900 H   0  0  0  0  0  0  0  0  0  0  0  0
   36.0890   30.6590   43.4270 H   0  0  0  0  0  0  0  0  0  0  0  0
   36.7700   29.4440   49.5010 C   0  0  0  0  0  0  0  0  0  0  0  0
   35.7630   29.8470   48.6210 C   0  0  0  0  0  0  0  0  0  0  0  0
   34.4440   30.0040   49.1270 C   0  0  0  0  0  0  0  0  0  0  0  0
   34.2650   29.7410   50.4700 N   0  0  0  0  0  0  0  0  0  0  0  0
   35.2650   29.3580   51.2670 C   0  0  0  0  0  0  0  0  0  0  0  0
   36.5100   29.2080   50.7920 N   0  0  0  0  0  0  0  0  0  0  0  0
   37.7250   29.3670   48.9700 H   0  0  0  0  0  0  0  0  0  0  0  0
   33.6470   30.3130   48.4720 H   0  0  0  0  0  0  0  0  0  0  0  0
   35.0850   29.1600   52.3190 H   0  0  0  0  0  0  0  0  0  0  0  0
   38.3060   31.5630   44.7050 C   0  0  0  0  0  0  0  0  0  0  0  0
   39.4100   30.8920   44.1760 C   0  0  0  0  0  0  0  0  0  0  0  0
   39.5990   29.8420   44.0760 H   0  0  0  0  0  0  0  0  0  0  0  0
   40.2890   31.8740   43.7690 C   0  0  0  0  0  0  0  0  0  0  0  0
   41.2630   31.8320   43.3070 H   0  0  0  0  0  0  0  0  0  0  0  0
   39.7470   33.0590   44.0360 N   0  0  0  0  0  0  0  0  0  0  0  0
   39.9930   34.0760   43.9290 H   0  0  0  0  0  0  0  0  0  0  0  0
   38.5470   32.9010   44.6020 N   0  0  0  0  0  0  0  0  0  0  0  0
  2  3  1  0  0  0  0
  2  1  1  0  0  0  0
  3 12  1  0  0  0  0
  4  8  1  0  0  0  0
  4  3  2  0  0  0  0
  5  4  1  0  0  0  0
  6  5  2  0  0  0  0
  6  7  1  0  0  0  0
  7  2  2  0  0  0  0
  9  5  1  0  0  0  0
 10  6  1  0  0  0  0
 11 16  1  0  0  0  0
 12 13  1  0  0  0  0
 12 11  2  0  0  0  0
 13 14  2  0  0  0  0
 14 15  1  0  0  0  0
 15 19  1  0  0  0  0
 16 15  2  0  0  0  0
 17 11  1  0  0  0  0
 18 13  1  0  0  0  0
 20  7  1  0  0  0  0
 21 20  1  0  0  0  0
 22 21  1  0  0  0  0
 23 25  1  0  0  0  0
 23 21  2  0  0  0  0
 24 23  1  0  0  0  0
 25 27  1  0  0  0  0
 26 25  1  0  0  0  0
 27 20  2  0  0  0  0
M  END
>  <minimizedAffinity>
-5.03223085

>  <minimizedRMSD>
3.30564332

$$$$
