
 OpenBabel03272510323D

 27 29  0  0  0  0  0  0  0  0999 V2000
   35.9640   30.1580   48.3320 C   0  0  0  0  0  0  0  0  0  0  0  0
   35.1570   30.0860   47.2260 C   0  0  0  0  0  0  0  0  0  0  0  0
   34.1270   29.1670   47.1590 C   0  0  0  0  0  0  0  0  0  0  0  0
   33.9280   28.3250   48.2210 C   0  0  0  0  0  0  0  0  0  0  0  0
   34.7320   28.3720   49.3640 C   0  0  0  0  0  0  0  0  0  0  0  0
   35.7610   29.3040   49.4110 C   0  0  0  0  0  0  0  0  0  0  0  0
   35.2890   30.7340   46.3750 H   0  0  0  0  0  0  0  0  0  0  0  0
   33.4590   29.0520   46.3340 H   0  0  0  0  0  0  0  0  0  0  0  0
   33.1500   27.5750   48.2600 H   0  0  0  0  0  0  0  0  0  0  0  0
   34.5790   27.7110   50.2040 H   0  0  0  0  0  0  0  0  0  0  0  0
   37.9410   33.0610   49.3050 C   0  0  0  0  0  0  0  0  0  0  0  0
   39.0000   33.0790   48.4030 C   0  0  0  0  0  0  0  0  0  0  0  0
   39.0320   32.0480   47.4200 C   0  0  0  0  0  0  0  0  0  0  0  0
   38.0370   31.1320   47.4360 N   0  0  0  0  0  0  0  0  0  0  0  0
   37.0260   31.1470   48.3270 C   0  0  0  0  0  0  0  0  0  0  0  0
   37.0000   32.1200   49.2490 N   0  0  0  0  0  0  0  0  0  0  0  0
   37.9720   33.8680   50.0240 H   0  0  0  0  0  0  0  0  0  0  0  0
   39.8210   33.7730   48.3330 H   0  0  0  0  0  0  0  0  0  0  0  0
   39.7800   31.9150   46.6500 H   0  0  0  0  0  0  0  0  0  0  0  0
   36.6150   29.3770   50.5930 C   0  0  0  0  0  0  0  0  0  0  0  0
   37.6830   28.4720   50.6090 C   0  0  0  0  0  0  0  0  0  0  0  0
   38.0720   27.7000   49.9650 H   0  0  0  0  0  0  0  0  0  0  0  0
   38.3780   28.6820   51.7960 C   0  0  0  0  0  0  0  0  0  0  0  0
   39.2720   28.2200   52.2420 H   0  0  0  0  0  0  0  0  0  0  0  0
   37.7280   29.6810   52.4430 N   0  0  0  0  0  0  0  0  0  0  0  0
   37.9580   30.1170   53.3720 H   0  0  0  0  0  0  0  0  0  0  0  0
   36.6780   30.0920   51.7250 N   0  0  0  0  0  0  0  0  0  0  0  0
  1  6  1  0  0  0  0
  2  1  2  0  0  0  0
  3  2  1  0  0  0  0
  3  4  2  0  0  0  0
  4  9  1  0  0  0  0
  4  5  1  0  0  0  0
  5  6  2  0  0  0  0
  5 10  1  0  0  0  0
  6 20  1  0  0  0  0
  7  2  1  0  0  0  0
  8  3  1  0  0  0  0
 11 17  1  0  0  0  0
 12 11  2  0  0  0  0
 13 14  2  0  0  0  0
 13 12  1  0  0  0  0
 14 15  1  0  0  0  0
 15  1  1  0  0  0  0
 15 16  2  0  0  0  0
 16 11  1  0  0  0  0
 18 12  1  0  0  0  0
 19 13  1  0  0  0  0
 20 21  1  0  0  0  0
 20 27  2  0  0  0  0
 21 23  2  0  0  0  0
 22 21  1  0  0  0  0
 23 24  1  0  0  0  0
 23 25  1  0  0  0  0
 25 26  1  0  0  0  0
 27 25  1  0  0  0  0
M  END
>  <minimizedAffinity>
-4.66683722

>  <minimizedRMSD>
0.416458011

$$$$
