
 OpenBabel03272510333D

 27 29  0  0  0  0  0  0  0  0999 V2000
   35.9030   30.2510   48.5930 C   0  0  0  0  0  0  0  0  0  0  0  0
   35.0000   30.2410   47.5610 C   0  0  0  0  0  0  0  0  0  0  0  0
   33.9440   29.3490   47.5510 C   0  0  0  0  0  0  0  0  0  0  0  0
   33.8170   28.4710   48.5930 C   0  0  0  0  0  0  0  0  0  0  0  0
   34.7190   28.4540   49.6620 C   0  0  0  0  0  0  0  0  0  0  0  0
   35.7720   29.3590   49.6520 C   0  0  0  0  0  0  0  0  0  0  0  0
   35.0740   30.9200   46.7260 H   0  0  0  0  0  0  0  0  0  0  0  0
   33.2040   29.2840   46.7840 H   0  0  0  0  0  0  0  0  0  0  0  0
   33.0260   27.7380   48.6730 H   0  0  0  0  0  0  0  0  0  0  0  0
   34.6230   27.7640   50.4860 H   0  0  0  0  0  0  0  0  0  0  0  0
   37.9450   33.1590   49.3990 C   0  0  0  0  0  0  0  0  0  0  0  0
   39.0020   33.1040   48.4950 C   0  0  0  0  0  0  0  0  0  0  0  0
   39.0080   32.0200   47.5720 C   0  0  0  0  0  0  0  0  0  0  0  0
   37.9930   31.1280   47.6390 N   0  0  0  0  0  0  0  0  0  0  0  0
   36.9850   31.2140   48.5300 C   0  0  0  0  0  0  0  0  0  0  0  0
   36.9840   32.2380   49.3970 N   0  0  0  0  0  0  0  0  0  0  0  0
   37.9960   34.0040   50.0720 H   0  0  0  0  0  0  0  0  0  0  0  0
   39.8370   33.7760   48.3860 H   0  0  0  0  0  0  0  0  0  0  0  0
   39.7510   31.8290   46.8080 H   0  0  0  0  0  0  0  0  0  0  0  0
   36.7280   29.3650   50.7550 C   0  0  0  0  0  0  0  0  0  0  0  0
   37.6520   28.3130   50.7460 C   0  0  0  0  0  0  0  0  0  0  0  0
   37.8670   27.4600   50.1230 H   0  0  0  0  0  0  0  0  0  0  0  0
   38.4720   28.4800   51.8570 C   0  0  0  0  0  0  0  0  0  0  0  0
   39.3260   27.9130   52.2590 H   0  0  0  0  0  0  0  0  0  0  0  0
   38.0320   29.5960   52.4880 N   0  0  0  0  0  0  0  0  0  0  0  0
   38.4030   30.0410   53.3650 H   0  0  0  0  0  0  0  0  0  0  0  0
   36.9940   30.1220   51.8310 N   0  0  0  0  0  0  0  0  0  0  0  0
  1  6  1  0  0  0  0
  2  1  2  0  0  0  0
  3  2  1  0  0  0  0
  3  4  2  0  0  0  0
  4  9  1  0  0  0  0
  4  5  1  0  0  0  0
  5 10  1  0  0  0  0
  6  5  2  0  0  0  0
  6 20  1  0  0  0  0
  7  2  1  0  0  0  0
  8  3  1  0  0  0  0
 11 17  1  0  0  0  0
 12 11  2  0  0  0  0
 13 14  2  0  0  0  0
 13 12  1  0  0  0  0
 14 15  1  0  0  0  0
 15  1  1  0  0  0  0
 15 16  2  0  0  0  0
 16 11  1  0  0  0  0
 18 12  1  0  0  0  0
 19 13  1  0  0  0  0
 20 27  2  0  0  0  0
 21 20  1  0  0  0  0
 21 23  2  0  0  0  0
 22 21  1  0  0  0  0
 23 24  1  0  0  0  0
 23 25  1  0  0  0  0
 25 26  1  0  0  0  0
 27 25  1  0  0  0  0
M  END
>  <minimizedAffinity>
-4.59902

>  <minimizedRMSD>
0.487675995

$$$$
