
 OpenBabel03272509033D

 32 34  0  0  0  0  0  0  0  0999 V2000
   34.9930   28.3860   49.4680 C   0  0  0  0  0  0  0  0  0  0  0  0
   34.2860   28.7510   48.4430 C   0  0  0  0  0  0  0  0  0  0  0  0
   37.3940   30.1630   51.5750 C   0  0  0  0  0  0  0  0  0  0  0  0
   38.0970   30.9350   50.6260 C   0  0  0  0  0  0  0  0  0  0  0  0
   37.7180   30.8190   49.2700 C   0  0  0  0  0  0  0  0  0  0  0  0
   36.6890   29.9640   48.9430 N   0  0  0  0  0  0  0  0  0  0  0  0
   36.0680   29.2610   49.9170 C   0  0  0  0  0  0  0  0  0  0  0  0
   36.4080   29.3530   51.2060 N   0  0  0  0  0  0  0  0  0  0  0  0
   37.7480   30.3150   52.5710 H   0  0  0  0  0  0  0  0  0  0  0  0
   38.9000   31.6070   50.8520 H   0  0  0  0  0  0  0  0  0  0  0  0
   38.3770   31.5700   48.2040 C   0  0  0  0  0  0  0  0  0  0  0  0
   38.5960   31.0350   46.9500 C   0  0  0  0  0  0  0  0  0  0  0  0
   38.3590   30.0660   46.5380 H   0  0  0  0  0  0  0  0  0  0  0  0
   39.2400   32.0140   46.1840 C   0  0  0  0  0  0  0  0  0  0  0  0
   39.5530   31.9170   45.1550 H   0  0  0  0  0  0  0  0  0  0  0  0
   39.3840   33.0980   47.0010 N   0  0  0  0  0  0  0  0  0  0  0  0
   39.8450   33.9830   46.6660 H   0  0  0  0  0  0  0  0  0  0  0  0
   38.8690   32.8220   48.1960 N   0  0  0  0  0  0  0  0  0  0  0  0
   33.1660   28.0560   47.7920 C   0  0  0  0  0  0  0  0  0  0  0  0
   32.5250   27.6070   48.5930 H   0  0  0  0  0  0  0  0  0  0  0  0
   32.5980   28.7960   47.1950 H   0  0  0  0  0  0  0  0  0  0  0  0
   33.6010   26.9320   46.9120 C   0  0  0  0  0  0  0  0  0  0  0  0
   33.7780   25.6250   47.3260 C   0  0  0  0  0  0  0  0  0  0  0  0
   34.1850   24.6510   46.4390 C   0  0  0  0  0  0  0  0  0  0  0  0
   34.4270   24.9530   45.1040 C   0  0  0  0  0  0  0  0  0  0  0  0
   34.2520   26.2410   44.6910 C   0  0  0  0  0  0  0  0  0  0  0  0
   33.8470   27.2130   45.5730 C   0  0  0  0  0  0  0  0  0  0  0  0
   33.5840   25.4170   48.3730 H   0  0  0  0  0  0  0  0  0  0  0  0
   34.3220   23.6280   46.7700 H   0  0  0  0  0  0  0  0  0  0  0  0
   34.7470   24.2260   44.3650 H   0  0  0  0  0  0  0  0  0  0  0  0
   34.4250   26.5420   43.6600 H   0  0  0  0  0  0  0  0  0  0  0  0
   33.7140   28.2400   45.2170 H   0  0  0  0  0  0  0  0  0  0  0  0
  1  7  1  0  0  0  0
  2  1  2  0  0  0  0
  3  9  1  0  0  0  0
  4 10  1  0  0  0  0
  4  3  2  0  0  0  0
  5  4  1  0  0  0  0
  6  5  2  0  0  0  0
  6  7  1  0  0  0  0
  7  8  2  0  0  0  0
  8  3  1  0  0  0  0
 11  5  1  0  0  0  0
 12 11  1  0  0  0  0
 13 12  1  0  0  0  0
 14 12  2  0  0  0  0
 14 16  1  0  0  0  0
 15 14  1  0  0  0  0
 16 18  1  0  0  0  0
 17 16  1  0  0  0  0
 18 11  2  0  0  0  0
 19  2  1  0  0  0  0
 19 20  1  0  0  0  0
 21 19  1  0  0  0  0
 22 23  1  0  0  0  0
 22 19  1  0  0  0  0
 23 28  1  0  0  0  0
 24 29  1  0  0  0  0
 24 23  2  0  0  0  0
 25 24  1  0  0  0  0
 26 25  2  0  0  0  0
 26 27  1  0  0  0  0
 27 22  2  0  0  0  0
 30 25  1  0  0  0  0
 31 26  1  0  0  0  0
 32 27  1  0  0  0  0
M  END
>  <minimizedAffinity>
-6.01076698

>  <minimizedRMSD>
0.869180858

$$$$
