
 OpenBabel03262523003D

 25 27  0  0  0  0  0  0  0  0999 V2000
   35.9940   30.2650   48.6060 C   0  0  0  0  0  0  0  0  0  0  0  0
   36.0120   29.2460   49.5040 C   0  0  0  0  0  0  0  0  0  0  0  0
   35.0010   28.3220   49.5000 C   0  0  0  0  0  0  0  0  0  0  0  0
   33.9880   28.4240   48.6060 N   0  0  0  0  0  0  0  0  0  0  0  0
   33.9940   29.4390   47.7330 C   0  0  0  0  0  0  0  0  0  0  0  0
   34.9820   30.3560   47.7230 N   0  0  0  0  0  0  0  0  0  0  0  0
   36.8160   29.1430   50.2300 H   0  0  0  0  0  0  0  0  0  0  0  0
   34.9790   27.4830   50.2080 H   0  0  0  0  0  0  0  0  0  0  0  0
   38.1060   33.1370   49.4860 C   0  0  0  0  0  0  0  0  0  0  0  0
   39.0070   33.2000   48.4180 C   0  0  0  0  0  0  0  0  0  0  0  0
   38.8730   32.2290   47.3860 C   0  0  0  0  0  0  0  0  0  0  0  0
   37.8780   31.3050   47.5040 N   0  0  0  0  0  0  0  0  0  0  0  0
   37.0310   31.2820   48.5500 C   0  0  0  0  0  0  0  0  0  0  0  0
   37.1570   32.2020   49.5310 N   0  0  0  0  0  0  0  0  0  0  0  0
   38.1840   33.8610   50.2840 H   0  0  0  0  0  0  0  0  0  0  0  0
   39.7610   33.9510   48.3940 H   0  0  0  0  0  0  0  0  0  0  0  0
   39.5530   32.2560   46.5560 H   0  0  0  0  0  0  0  0  0  0  0  0
   32.9120   29.5670   46.7630 C   0  0  0  0  0  0  0  0  0  0  0  0
   32.6250   30.6510   45.9610 C   0  0  0  0  0  0  0  0  0  0  0  0
   33.2440   31.5550   46.0100 H   0  0  0  0  0  0  0  0  0  0  0  0
   31.5040   30.3440   45.1820 C   0  0  0  0  0  0  0  0  0  0  0  0
   31.1780   31.1370   44.4990 H   0  0  0  0  0  0  0  0  0  0  0  0
   31.1520   29.0810   45.5410 N   0  0  0  0  0  0  0  0  0  0  0  0
   30.3220   28.6880   45.0490 H   0  0  0  0  0  0  0  0  0  0  0  0
   31.9790   28.6530   46.4540 N   0  0  0  0  0  0  0  0  0  0  0  0
  1  2  1  0  0  0  0
  2  7  1  0  0  0  0
  3  2  2  0  0  0  0
  3  8  1  0  0  0  0
  4  3  1  0  0  0  0
  5  4  2  0  0  0  0
  6  5  1  0  0  0  0
  6  1  2  0  0  0  0
  9 14  1  0  0  0  0
  9 15  1  0  0  0  0
 10  9  2  0  0  0  0
 11 12  2  0  0  0  0
 11 10  1  0  0  0  0
 12 13  1  0  0  0  0
 13  1  1  0  0  0  0
 13 14  2  0  0  0  0
 16 10  1  0  0  0  0
 17 11  1  0  0  0  0
 18  5  1  0  0  0  0
 19 20  1  0  0  0  0
 19 18  1  0  0  0  0
 21 23  1  0  0  0  0
 21 19  2  0  0  0  0
 22 21  1  0  0  0  0
 23 25  1  0  0  0  0
 24 23  1  0  0  0  0
 25 18  2  0  0  0  0
M  END
>  <minimizedAffinity>
-4.88254881

>  <minimizedRMSD>
0.353912145

$$$$
