
 OpenBabel03272510153D

 27 29  0  0  0  0  0  0  0  0999 V2000
   37.3330   29.3640   51.0730 Br  0  0  0  0  0  0  0  0  0  0  0  0
   35.9730   29.3470   49.7220 C   0  0  0  0  0  0  0  0  0  0  0  0
   35.9880   30.2530   48.6760 C   0  0  0  0  0  0  0  0  0  0  0  0
   34.9830   30.1780   47.7510 C   0  0  0  0  0  0  0  0  0  0  0  0
   33.9640   29.2530   47.8060 C   0  0  0  0  0  0  0  0  0  0  0  0
   33.9680   28.3650   48.8500 C   0  0  0  0  0  0  0  0  0  0  0  0
   34.9690   28.4130   49.8030 C   0  0  0  0  0  0  0  0  0  0  0  0
   35.0150   30.8960   46.9420 H   0  0  0  0  0  0  0  0  0  0  0  0
   33.2010   27.6150   48.9560 H   0  0  0  0  0  0  0  0  0  0  0  0
   34.9860   27.7130   50.6420 H   0  0  0  0  0  0  0  0  0  0  0  0
   37.9990   33.2070   49.4420 C   0  0  0  0  0  0  0  0  0  0  0  0
   39.0350   33.1780   48.4590 C   0  0  0  0  0  0  0  0  0  0  0  0
   39.0100   32.1250   47.5460 C   0  0  0  0  0  0  0  0  0  0  0  0
   38.0180   31.1890   47.6330 N   0  0  0  0  0  0  0  0  0  0  0  0
   37.0530   31.2520   48.5790 C   0  0  0  0  0  0  0  0  0  0  0  0
   37.0480   32.2660   49.4850 N   0  0  0  0  0  0  0  0  0  0  0  0
   37.9620   34.0080   50.1890 H   0  0  0  0  0  0  0  0  0  0  0  0
   39.7880   33.9550   48.4540 H   0  0  0  0  0  0  0  0  0  0  0  0
   39.7740   32.0700   46.7920 H   0  0  0  0  0  0  0  0  0  0  0  0
   32.9260   29.2310   46.7870 C   0  0  0  0  0  0  0  0  0  0  0  0
   32.9780   29.8830   45.5750 C   0  0  0  0  0  0  0  0  0  0  0  0
   33.7900   30.5010   45.2060 H   0  0  0  0  0  0  0  0  0  0  0  0
   31.7930   29.6150   44.8800 C   0  0  0  0  0  0  0  0  0  0  0  0
   31.5830   30.0110   43.8960 H   0  0  0  0  0  0  0  0  0  0  0  0
   31.0700   28.8110   45.6980 N   0  0  0  0  0  0  0  0  0  0  0  0
   30.1400   28.5060   45.3380 H   0  0  0  0  0  0  0  0  0  0  0  0
   31.7480   28.5890   46.8240 N   0  0  0  0  0  0  0  0  0  0  0  0
  2  7  1  0  0  0  0
  2  1  1  0  0  0  0
  3  2  2  0  0  0  0
  4  5  2  0  0  0  0
  4  3  1  0  0  0  0
  5  6  1  0  0  0  0
  6  9  1  0  0  0  0
  6  7  2  0  0  0  0
  7 10  1  0  0  0  0
  8  4  1  0  0  0  0
 11 16  1  0  0  0  0
 11 17  1  0  0  0  0
 12 11  2  0  0  0  0
 13 14  2  0  0  0  0
 13 12  1  0  0  0  0
 14 15  1  0  0  0  0
 15  3  1  0  0  0  0
 15 16  2  0  0  0  0
 18 12  1  0  0  0  0
 19 13  1  0  0  0  0
 20 27  2  0  0  0  0
 20  5  1  0  0  0  0
 21 20  1  0  0  0  0
 22 21  1  0  0  0  0
 23 21  2  0  0  0  0
 23 25  1  0  0  0  0
 24 23  1  0  0  0  0
 25 27  1  0  0  0  0
 26 25  1  0  0  0  0
M  END
>  <minimizedAffinity>
-5.75003386

>  <minimizedRMSD>
0.266053766

$$$$
