
 OpenBabel03272510153D

 27 29  0  0  0  0  0  0  0  0999 V2000
   37.3210   29.3700   51.0740 Br  0  0  0  0  0  0  0  0  0  0  0  0
   35.9720   29.3430   49.7120 C   0  0  0  0  0  0  0  0  0  0  0  0
   35.9930   30.2450   48.6630 C   0  0  0  0  0  0  0  0  0  0  0  0
   34.9960   30.1630   47.7290 C   0  0  0  0  0  0  0  0  0  0  0  0
   33.9800   29.2340   47.7790 C   0  0  0  0  0  0  0  0  0  0  0  0
   33.9790   28.3510   48.8270 C   0  0  0  0  0  0  0  0  0  0  0  0
   34.9710   28.4060   49.7890 C   0  0  0  0  0  0  0  0  0  0  0  0
   35.0330   30.8780   46.9180 H   0  0  0  0  0  0  0  0  0  0  0  0
   33.2130   27.5980   48.9300 H   0  0  0  0  0  0  0  0  0  0  0  0
   34.9840   27.7090   50.6300 H   0  0  0  0  0  0  0  0  0  0  0  0
   37.9960   33.2010   49.4430 C   0  0  0  0  0  0  0  0  0  0  0  0
   39.0320   33.1790   48.4600 C   0  0  0  0  0  0  0  0  0  0  0  0
   39.0100   32.1300   47.5430 C   0  0  0  0  0  0  0  0  0  0  0  0
   38.0220   31.1910   47.6250 N   0  0  0  0  0  0  0  0  0  0  0  0
   37.0550   31.2470   48.5710 C   0  0  0  0  0  0  0  0  0  0  0  0
   37.0470   32.2570   49.4810 N   0  0  0  0  0  0  0  0  0  0  0  0
   37.9550   33.9980   50.1930 H   0  0  0  0  0  0  0  0  0  0  0  0
   39.7840   33.9590   48.4590 H   0  0  0  0  0  0  0  0  0  0  0  0
   39.7750   32.0800   46.7900 H   0  0  0  0  0  0  0  0  0  0  0  0
   32.9510   29.2040   46.7510 C   0  0  0  0  0  0  0  0  0  0  0  0
   32.3290   28.0730   46.2710 C   0  0  0  0  0  0  0  0  0  0  0  0
   32.5120   27.0510   46.5840 H   0  0  0  0  0  0  0  0  0  0  0  0
   31.4050   28.4620   45.2940 C   0  0  0  0  0  0  0  0  0  0  0  0
   30.7820   27.7590   44.7590 H   0  0  0  0  0  0  0  0  0  0  0  0
   31.5040   29.8110   45.2210 N   0  0  0  0  0  0  0  0  0  0  0  0
   30.8770   30.2810   44.5320 H   0  0  0  0  0  0  0  0  0  0  0  0
   32.4210   30.2420   46.0870 N   0  0  0  0  0  0  0  0  0  0  0  0
  2  7  1  0  0  0  0
  2  1  1  0  0  0  0
  3  2  2  0  0  0  0
  4  5  2  0  0  0  0
  4  3  1  0  0  0  0
  5  6  1  0  0  0  0
  6  9  1  0  0  0  0
  6  7  2  0  0  0  0
  7 10  1  0  0  0  0
  8  4  1  0  0  0  0
 11 16  1  0  0  0  0
 11 17  1  0  0  0  0
 12 11  2  0  0  0  0
 13 14  2  0  0  0  0
 13 12  1  0  0  0  0
 14 15  1  0  0  0  0
 15  3  1  0  0  0  0
 15 16  2  0  0  0  0
 18 12  1  0  0  0  0
 19 13  1  0  0  0  0
 20  5  1  0  0  0  0
 21 22  1  0  0  0  0
 21 20  1  0  0  0  0
 23 21  2  0  0  0  0
 24 23  1  0  0  0  0
 25 23  1  0  0  0  0
 25 27  1  0  0  0  0
 26 25  1  0  0  0  0
 27 20  2  0  0  0  0
M  END
>  <minimizedAffinity>
-5.77683496

>  <minimizedRMSD>
0.102036476

$$$$
