
 OpenBabel03272501123D

 27 29  0  0  1  0  0  0  0  0999 V2000
   36.2210   31.0000   49.9450 C   0  0  1  0  0  0  0  0  0  0  0  0
   35.6820   29.6650   49.8340 C   0  0  1  0  0  0  0  0  0  0  0  0
   36.7350   29.9140   50.8900 C   0  0  0  0  0  0  0  0  0  0  0  0
   35.6700   31.8270   50.4130 H   0  0  0  0  0  0  0  0  0  0  0  0
   36.0480   28.9410   49.0430 H   0  0  0  0  0  0  0  0  0  0  0  0
   36.4000   30.0490   51.9360 H   0  0  0  0  0  0  0  0  0  0  0  0
   37.7570   29.5210   50.7470 H   0  0  0  0  0  0  0  0  0  0  0  0
   37.3130   31.4800   49.0040 C   0  0  0  0  0  0  0  0  0  0  0  0
   37.9160   32.6930   49.3420 C   0  0  0  0  0  0  0  0  0  0  0  0
   38.8980   33.1200   48.4480 C   0  0  0  0  0  0  0  0  0  0  0  0
   39.2210   32.3780   47.3300 N   0  0  0  0  0  0  0  0  0  0  0  0
   38.5890   31.2030   47.0620 C   0  0  0  0  0  0  0  0  0  0  0  0
   37.6220   30.7560   47.9190 N   0  0  0  0  0  0  0  0  0  0  0  0
   37.6560   33.2610   50.2140 H   0  0  0  0  0  0  0  0  0  0  0  0
   39.4330   34.0530   48.6170 H   0  0  0  0  0  0  0  0  0  0  0  0
   38.8360   30.6190   46.1880 H   0  0  0  0  0  0  0  0  0  0  0  0
   34.2490   29.4440   50.2370 C   0  0  0  0  0  0  0  0  0  0  0  0
   33.7040   30.4060   50.0700 H   0  0  0  0  0  0  0  0  0  0  0  0
   34.1510   29.0930   51.2840 H   0  0  0  0  0  0  0  0  0  0  0  0
   33.6610   28.4510   49.3000 C   0  0  0  0  0  0  0  0  0  0  0  0
   34.4570   27.7220   48.4140 C   0  0  0  0  0  0  0  0  0  0  0  0
   35.5350   27.7860   48.3060 H   0  0  0  0  0  0  0  0  0  0  0  0
   33.6040   26.8930   47.6920 C   0  0  0  0  0  0  0  0  0  0  0  0
   33.9770   26.2220   46.9340 H   0  0  0  0  0  0  0  0  0  0  0  0
   32.3540   27.1270   48.1370 N   0  0  0  0  0  0  0  0  0  0  0  0
   31.5420   26.6270   47.7490 H   0  0  0  0  0  0  0  0  0  0  0  0
   32.3880   28.0480   49.0890 N   0  0  0  0  0  0  0  0  0  0  0  0
  1  4  1  1  0  0  0
  1  3  1  0  0  0  0
  2  5  1  6  0  0  0
  2  1  1  0  0  0  0
  2 17  1  0  0  0  0
  2  3  1  0  0  0  0
  3  6  1  0  0  0  0
  7  3  1  0  0  0  0
  8  9  1  0  0  0  0
  8  1  1  0  0  0  0
  9 14  1  0  0  0  0
 10 15  1  0  0  0  0
 10  9  2  0  0  0  0
 11 10  1  0  0  0  0
 12 11  2  0  0  0  0
 12 13  1  0  0  0  0
 13  8  2  0  0  0  0
 16 12  1  0  0  0  0
 17 19  1  0  0  0  0
 18 17  1  0  0  0  0
 20 17  1  0  0  0  0
 21 20  1  0  0  0  0
 22 21  1  0  0  0  0
 23 25  1  0  0  0  0
 23 21  2  0  0  0  0
 24 23  1  0  0  0  0
 25 27  1  0  0  0  0
 26 25  1  0  0  0  0
 27 20  2  0  0  0  0
M  END
>  <minimizedAffinity>
-5.18419409

>  <minimizedRMSD>
1.8435787

$$$$
