
 OpenBabel03272509113D

 27 29  0  0  0  0  0  0  0  0999 V2000
   35.3670   30.0240   47.4070 C   0  0  0  0  0  0  0  0  0  0  0  0
   36.6740   30.5610   47.2250 C   0  0  0  0  0  0  0  0  0  0  0  0
   37.1020   30.7990   45.9140 C   0  0  0  0  0  0  0  0  0  0  0  0
   36.2620   30.5090   44.8730 N   0  0  0  0  0  0  0  0  0  0  0  0
   35.0260   29.9970   45.0900 C   0  0  0  0  0  0  0  0  0  0  0  0
   34.5880   29.7590   46.3470 N   0  0  0  0  0  0  0  0  0  0  0  0
   34.9640   29.8140   48.3830 H   0  0  0  0  0  0  0  0  0  0  0  0
   34.3590   29.7670   44.2690 H   0  0  0  0  0  0  0  0  0  0  0  0
   38.4080   31.3430   45.6230 C   0  0  0  0  0  0  0  0  0  0  0  0
   38.4800   32.6260   45.1510 C   0  0  0  0  0  0  0  0  0  0  0  0
   39.6930   33.2320   44.8540 C   0  0  0  0  0  0  0  0  0  0  0  0
   40.8470   32.4750   45.0560 C   0  0  0  0  0  0  0  0  0  0  0  0
   40.8360   31.1590   45.5350 C   0  0  0  0  0  0  0  0  0  0  0  0
   39.5770   30.6280   45.8070 C   0  0  0  0  0  0  0  0  0  0  0  0
   37.6990   33.3290   44.9240 H   0  0  0  0  0  0  0  0  0  0  0  0
   39.8540   34.2280   44.4830 H   0  0  0  0  0  0  0  0  0  0  0  0
   41.8540   32.8550   44.8540 H   0  0  0  0  0  0  0  0  0  0  0  0
   41.7250   30.5970   45.6810 H   0  0  0  0  0  0  0  0  0  0  0  0
   39.5270   29.6140   46.1790 H   0  0  0  0  0  0  0  0  0  0  0  0
   37.4020   30.7620   48.4390 C   0  0  0  0  0  0  0  0  0  0  0  0
   37.7030   32.0860   48.7820 C   0  0  0  0  0  0  0  0  0  0  0  0
   37.5140   33.0570   48.3520 H   0  0  0  0  0  0  0  0  0  0  0  0
   38.4210   32.0410   49.9830 C   0  0  0  0  0  0  0  0  0  0  0  0
   38.8450   32.8400   50.5940 H   0  0  0  0  0  0  0  0  0  0  0  0
   38.5320   30.7460   50.3230 N   0  0  0  0  0  0  0  0  0  0  0  0
   39.0180   30.3660   51.1770 H   0  0  0  0  0  0  0  0  0  0  0  0
   37.9340   29.9740   49.4200 N   0  0  0  0  0  0  0  0  0  0  0  0
  1  7  1  0  0  0  0
  2  1  1  0  0  0  0
  2 20  1  0  0  0  0
  3  2  2  0  0  0  0
  4  5  2  0  0  0  0
  4  3  1  0  0  0  0
  5  6  1  0  0  0  0
  6  1  2  0  0  0  0
  8  5  1  0  0  0  0
  9 14  1  0  0  0  0
  9  3  1  0  0  0  0
 10  9  2  0  0  0  0
 11 12  2  0  0  0  0
 11 10  1  0  0  0  0
 12 13  1  0  0  0  0
 13 18  1  0  0  0  0
 13 14  2  0  0  0  0
 14 19  1  0  0  0  0
 15 10  1  0  0  0  0
 16 11  1  0  0  0  0
 17 12  1  0  0  0  0
 20 21  1  0  0  0  0
 20 27  2  0  0  0  0
 21 23  2  0  0  0  0
 22 21  1  0  0  0  0
 23 25  1  0  0  0  0
 23 24  1  0  0  0  0
 25 26  1  0  0  0  0
 27 25  1  0  0  0  0
M  END
>  <minimizedAffinity>
-5.83795071

>  <minimizedRMSD>
3.45678067

$$$$
