
 OpenBabel03272510153D

 27 29  0  0  0  0  0  0  0  0999 V2000
   37.3270   29.3590   51.0700 Br  0  0  0  0  0  0  0  0  0  0  0  0
   35.9700   29.3390   49.7160 C   0  0  0  0  0  0  0  0  0  0  0  0
   35.9870   30.2450   48.6700 C   0  0  0  0  0  0  0  0  0  0  0  0
   34.9840   30.1670   47.7420 C   0  0  0  0  0  0  0  0  0  0  0  0
   33.9650   29.2410   47.7960 C   0  0  0  0  0  0  0  0  0  0  0  0
   33.9690   28.3550   48.8410 C   0  0  0  0  0  0  0  0  0  0  0  0
   34.9670   28.4050   49.7970 C   0  0  0  0  0  0  0  0  0  0  0  0
   35.0160   30.8850   46.9330 H   0  0  0  0  0  0  0  0  0  0  0  0
   33.2020   27.6030   48.9460 H   0  0  0  0  0  0  0  0  0  0  0  0
   34.9830   27.7050   50.6350 H   0  0  0  0  0  0  0  0  0  0  0  0
   37.9940   33.2000   49.4390 C   0  0  0  0  0  0  0  0  0  0  0  0
   39.0300   33.1730   48.4570 C   0  0  0  0  0  0  0  0  0  0  0  0
   39.0070   32.1200   47.5440 C   0  0  0  0  0  0  0  0  0  0  0  0
   38.0170   31.1830   47.6290 N   0  0  0  0  0  0  0  0  0  0  0  0
   37.0510   31.2450   48.5750 C   0  0  0  0  0  0  0  0  0  0  0  0
   37.0430   32.2580   49.4810 N   0  0  0  0  0  0  0  0  0  0  0  0
   37.9550   34.0000   50.1860 H   0  0  0  0  0  0  0  0  0  0  0  0
   39.7840   33.9510   48.4530 H   0  0  0  0  0  0  0  0  0  0  0  0
   39.7720   32.0660   46.7900 H   0  0  0  0  0  0  0  0  0  0  0  0
   32.9300   29.2170   46.7740 C   0  0  0  0  0  0  0  0  0  0  0  0
   32.5130   30.2970   46.0290 C   0  0  0  0  0  0  0  0  0  0  0  0
   32.8880   31.3120   46.0940 H   0  0  0  0  0  0  0  0  0  0  0  0
   31.5040   29.8670   45.1590 C   0  0  0  0  0  0  0  0  0  0  0  0
   31.0050   30.5260   44.4610 H   0  0  0  0  0  0  0  0  0  0  0  0
   31.3510   28.5430   45.4090 N   0  0  0  0  0  0  0  0  0  0  0  0
   30.6300   28.0490   44.8430 H   0  0  0  0  0  0  0  0  0  0  0  0
   32.2000   28.1670   46.3680 N   0  0  0  0  0  0  0  0  0  0  0  0
  2  7  1  0  0  0  0
  2  1  1  0  0  0  0
  3  2  2  0  0  0  0
  4  5  2  0  0  0  0
  4  3  1  0  0  0  0
  5  6  1  0  0  0  0
  6  9  1  0  0  0  0
  6  7  2  0  0  0  0
  7 10  1  0  0  0  0
  8  4  1  0  0  0  0
 11 16  1  0  0  0  0
 11 17  1  0  0  0  0
 12 11  2  0  0  0  0
 13 14  2  0  0  0  0
 13 12  1  0  0  0  0
 14 15  1  0  0  0  0
 15  3  1  0  0  0  0
 15 16  2  0  0  0  0
 18 12  1  0  0  0  0
 19 13  1  0  0  0  0
 20  5  1  0  0  0  0
 21 22  1  0  0  0  0
 21 20  1  0  0  0  0
 23 25  1  0  0  0  0
 23 21  2  0  0  0  0
 24 23  1  0  0  0  0
 25 27  1  0  0  0  0
 26 25  1  0  0  0  0
 27 20  2  0  0  0  0
M  END
>  <minimizedAffinity>
-5.7951932

>  <minimizedRMSD>
0.12116842

$$$$
