
 OpenBabel03272505493D

 39 43  0  0  0  0  0  0  0  0999 V2000
   35.8420   29.3550   33.3390 C   0  0  0  0  0  0  0  0  0  0  0  0
   36.1650   29.7130   32.0770 C   0  0  0  0  0  0  0  0  0  0  0  0
   36.9650   28.8920   31.2990 C   0  0  0  0  0  0  0  0  0  0  0  0
   37.4200   27.7030   31.8490 C   0  0  0  0  0  0  0  0  0  0  0  0
   37.0870   27.3280   33.1610 C   0  0  0  0  0  0  0  0  0  0  0  0
   36.3050   28.1840   33.8470 N   0  0  0  0  0  0  0  0  0  0  0  0
   35.8060   30.6450   31.6540 H   0  0  0  0  0  0  0  0  0  0  0  0
   37.2110   29.1890   30.3060 H   0  0  0  0  0  0  0  0  0  0  0  0
   38.0480   27.0400   31.2640 H   0  0  0  0  0  0  0  0  0  0  0  0
   37.5500   26.0930   33.7620 C   0  0  0  0  0  0  0  0  0  0  0  0
   38.0070   24.9460   33.1560 N   0  0  0  0  0  0  0  0  0  0  0  0
   38.3310   24.0490   34.1310 C   0  0  0  0  0  0  0  0  0  0  0  0
   38.0750   24.6400   35.3170 N   0  0  0  0  0  0  0  0  0  0  0  0
   37.6010   25.8810   35.1140 N   0  0  0  0  0  0  0  0  0  0  0  0
   38.7200   23.0520   33.9810 H   0  0  0  0  0  0  0  0  0  0  0  0
   38.2950   23.9990   36.5640 C   0  0  0  0  0  0  0  0  0  0  0  0
   38.0490   24.7440   37.7040 C   0  0  0  0  0  0  0  0  0  0  0  0
   37.7050   25.7770   37.8680 H   0  0  0  0  0  0  0  0  0  0  0  0
   38.3280   23.9240   38.8000 C   0  0  0  0  0  0  0  0  0  0  0  0
   38.2470   24.1760   39.8530 H   0  0  0  0  0  0  0  0  0  0  0  0
   38.7220   22.7390   38.3010 N   0  0  0  0  0  0  0  0  0  0  0  0
   39.0000   21.9120   38.8720 H   0  0  0  0  0  0  0  0  0  0  0  0
   38.7010   22.7880   36.9650 N   0  0  0  0  0  0  0  0  0  0  0  0
   34.9710   30.2280   34.2110 C   0  0  0  0  0  0  0  0  0  0  0  0
   35.6110   30.9130   35.3710 C   0  0  0  0  0  0  0  0  0  0  0  0
   35.1690   31.7020   34.1570 C   0  0  0  0  0  0  0  0  0  0  0  0
   36.7010   30.7370   35.4780 H   0  0  0  0  0  0  0  0  0  0  0  0
   35.0520   30.9770   36.3070 H   0  0  0  0  0  0  0  0  0  0  0  0
   34.2550   32.3010   34.3590 H   0  0  0  0  0  0  0  0  0  0  0  0
   35.9750   32.1510   33.5650 H   0  0  0  0  0  0  0  0  0  0  0  0
   31.7440   29.1620   35.6360 C   0  0  0  0  0  0  0  0  0  0  0  0
   31.0360   28.7160   34.5120 C   0  0  0  0  0  0  0  0  0  0  0  0
   31.6760   28.7830   33.2550 C   0  0  0  0  0  0  0  0  0  0  0  0
   32.9370   29.2710   33.1830 N   0  0  0  0  0  0  0  0  0  0  0  0
   33.5980   29.6980   34.3010 C   0  0  0  0  0  0  0  0  0  0  0  0
   33.0090   29.6430   35.5120 N   0  0  0  0  0  0  0  0  0  0  0  0
   31.2390   29.1040   36.5910 H   0  0  0  0  0  0  0  0  0  0  0  0
   30.0460   28.3270   34.5310 H   0  0  0  0  0  0  0  0  0  0  0  0
   31.2090   28.4630   32.3320 H   0  0  0  0  0  0  0  0  0  0  0  0
  1  6  1  0  0  0  0
  1 24  1  0  0  0  0
  2  1  2  0  0  0  0
  3  4  2  0  0  0  0
  3  2  1  0  0  0  0
  4  5  1  0  0  0  0
  5 10  1  0  0  0  0
  5  6  2  0  0  0  0
  7  2  1  0  0  0  0
  8  3  1  0  0  0  0
  9  4  1  0  0  0  0
 10 14  2  0  0  0  0
 11 10  1  0  0  0  0
 11 12  2  0  0  0  0
 12 13  1  0  0  0  0
 13 16  1  0  0  0  0
 14 13  1  0  0  0  0
 15 12  1  0  0  0  0
 16 23  2  0  0  0  0
 16 17  1  0  0  0  0
 17 18  1  0  0  0  0
 17 19  2  0  0  0  0
 19 20  1  0  0  0  0
 21 19  1  0  0  0  0
 21 22  1  0  0  0  0
 23 21  1  0  0  0  0
 24 35  1  0  0  0  0
 24 25  1  0  0  0  0
 25 27  1  0  0  0  0
 25 28  1  0  0  0  0
 26 24  1  0  0  0  0
 26 29  1  0  0  0  0
 26 25  1  0  0  0  0
 30 26  1  0  0  0  0
 31 37  1  0  0  0  0
 32 38  1  0  0  0  0
 32 31  2  0  0  0  0
 33 32  1  0  0  0  0
 34 33  2  0  0  0  0
 34 35  1  0  0  0  0
 35 36  2  0  0  0  0
 36 31  1  0  0  0  0
 39 33  1  0  0  0  0
M  END
>  <minimizedAffinity>
-6.5392952

$$$$

 OpenBabel03272505493D

 39 43  0  0  0  0  0  0  0  0999 V2000
   35.3480   29.3040   32.6150 C   0  0  0  0  0  0  0  0  0  0  0  0
   35.9830   29.8970   31.5810 C   0  0  0  0  0  0  0  0  0  0  0  0
   37.1170   29.3200   31.0310 C   0  0  0  0  0  0  0  0  0  0  0  0
   37.5750   28.1270   31.5700 C   0  0  0  0  0  0  0  0  0  0  0  0
   36.9170   27.5070   32.6450 C   0  0  0  0  0  0  0  0  0  0  0  0
   35.8230   28.1360   33.1190 N   0  0  0  0  0  0  0  0  0  0  0  0
   35.6190   30.8300   31.1650 H   0  0  0  0  0  0  0  0  0  0  0  0
   37.6060   29.7990   30.2160 H   0  0  0  0  0  0  0  0  0  0  0  0
   38.4600   27.6500   31.1610 H   0  0  0  0  0  0  0  0  0  0  0  0
   37.3750   26.2620   33.2300 C   0  0  0  0  0  0  0  0  0  0  0  0
   37.8200   25.1200   32.6080 N   0  0  0  0  0  0  0  0  0  0  0  0
   38.1430   24.2090   33.5710 C   0  0  0  0  0  0  0  0  0  0  0  0
   37.8990   24.7880   34.7650 N   0  0  0  0  0  0  0  0  0  0  0  0
   37.4330   26.0350   34.5790 N   0  0  0  0  0  0  0  0  0  0  0  0
   38.5240   23.2110   33.4070 H   0  0  0  0  0  0  0  0  0  0  0  0
   38.1210   24.1310   36.0030 C   0  0  0  0  0  0  0  0  0  0  0  0
   37.8880   24.8650   37.1530 C   0  0  0  0  0  0  0  0  0  0  0  0
   37.5520   25.8990   37.3310 H   0  0  0  0  0  0  0  0  0  0  0  0
   38.1670   24.0300   38.2380 C   0  0  0  0  0  0  0  0  0  0  0  0
   38.0940   24.2710   39.2950 H   0  0  0  0  0  0  0  0  0  0  0  0
   38.5490   22.8480   37.7230 N   0  0  0  0  0  0  0  0  0  0  0  0
   38.8250   22.0130   38.2830 H   0  0  0  0  0  0  0  0  0  0  0  0
   38.5210   22.9130   36.3880 N   0  0  0  0  0  0  0  0  0  0  0  0
   34.1090   29.9080   33.2340 C   0  0  0  0  0  0  0  0  0  0  0  0
   33.0410   30.3990   32.3170 C   0  0  0  0  0  0  0  0  0  0  0  0
   32.8330   29.1490   33.1440 C   0  0  0  0  0  0  0  0  0  0  0  0
   33.2440   30.2490   31.2360 H   0  0  0  0  0  0  0  0  0  0  0  0
   32.5240   31.3260   32.5730 H   0  0  0  0  0  0  0  0  0  0  0  0
   32.1310   29.3200   33.9890 H   0  0  0  0  0  0  0  0  0  0  0  0
   32.7610   28.2130   32.5790 H   0  0  0  0  0  0  0  0  0  0  0  0
   33.6850   31.5060   36.5280 C   0  0  0  0  0  0  0  0  0  0  0  0
   34.9800   31.9460   36.8320 C   0  0  0  0  0  0  0  0  0  0  0  0
   36.0050   31.6910   35.8960 C   0  0  0  0  0  0  0  0  0  0  0  0
   35.7020   31.0360   34.7500 N   0  0  0  0  0  0  0  0  0  0  0  0
   34.4270   30.6210   34.4850 C   0  0  0  0  0  0  0  0  0  0  0  0
   33.4310   30.8530   35.3630 N   0  0  0  0  0  0  0  0  0  0  0  0
   32.9110   31.7090   37.2560 H   0  0  0  0  0  0  0  0  0  0  0  0
   35.2530   32.4620   37.7220 H   0  0  0  0  0  0  0  0  0  0  0  0
   37.0340   31.9920   36.0450 H   0  0  0  0  0  0  0  0  0  0  0  0
  1  6  1  0  0  0  0
  1 24  1  0  0  0  0
  2  1  2  0  0  0  0
  3  4  2  0  0  0  0
  3  2  1  0  0  0  0
  4  5  1  0  0  0  0
  5  6  2  0  0  0  0
  5 10  1  0  0  0  0
  7  2  1  0  0  0  0
  8  3  1  0  0  0  0
  9  4  1  0  0  0  0
 10 14  2  0  0  0  0
 11 10  1  0  0  0  0
 11 12  2  0  0  0  0
 12 13  1  0  0  0  0
 13 16  1  0  0  0  0
 14 13  1  0  0  0  0
 15 12  1  0  0  0  0
 16 23  2  0  0  0  0
 16 17  1  0  0  0  0
 17 18  1  0  0  0  0
 17 19  2  0  0  0  0
 19 20  1  0  0  0  0
 21 19  1  0  0  0  0
 21 22  1  0  0  0  0
 23 21  1  0  0  0  0
 24 35  1  0  0  0  0
 25 28  1  0  0  0  0
 25 26  1  0  0  0  0
 25 24  1  0  0  0  0
 26 24  1  0  0  0  0
 26 29  1  0  0  0  0
 27 25  1  0  0  0  0
 30 26  1  0  0  0  0
 31 32  1  0  0  0  0
 31 37  1  0  0  0  0
 32 38  1  0  0  0  0
 33 39  1  0  0  0  0
 33 32  2  0  0  0  0
 34 33  1  0  0  0  0
 35 34  2  0  0  0  0
 35 36  1  0  0  0  0
 36 31  2  0  0  0  0
M  END
>  <minimizedAffinity>
-6.24974394

$$$$

 OpenBabel03272505493D

 39 43  0  0  0  0  0  0  0  0999 V2000
   37.2770   26.3660   33.2040 C   0  0  0  0  0  0  0  0  0  0  0  0
   37.0330   27.6100   33.6710 C   0  0  0  0  0  0  0  0  0  0  0  0
   37.3160   27.9330   34.9890 C   0  0  0  0  0  0  0  0  0  0  0  0
   37.8520   26.9490   35.8060 C   0  0  0  0  0  0  0  0  0  0  0  0
   38.1070   25.6540   35.3250 C   0  0  0  0  0  0  0  0  0  0  0  0
   37.8030   25.4260   34.0320 N   0  0  0  0  0  0  0  0  0  0  0  0
   36.6130   28.3740   33.0250 H   0  0  0  0  0  0  0  0  0  0  0  0
   37.1170   28.9170   35.3400 H   0  0  0  0  0  0  0  0  0  0  0  0
   38.0850   27.1710   36.8420 H   0  0  0  0  0  0  0  0  0  0  0  0
   38.6640   24.6060   36.1570 C   0  0  0  0  0  0  0  0  0  0  0  0
   38.2580   24.1690   37.3960 N   0  0  0  0  0  0  0  0  0  0  0  0
   39.0900   23.1610   37.7850 C   0  0  0  0  0  0  0  0  0  0  0  0
   39.9920   22.9840   36.7980 N   0  0  0  0  0  0  0  0  0  0  0  0
   39.7500   23.8520   35.8000 N   0  0  0  0  0  0  0  0  0  0  0  0
   39.0350   22.6070   38.7120 H   0  0  0  0  0  0  0  0  0  0  0  0
   41.0220   22.0100   36.8560 C   0  0  0  0  0  0  0  0  0  0  0  0
   41.8400   21.8950   35.7450 C   0  0  0  0  0  0  0  0  0  0  0  0
   41.8700   22.4170   34.7760 H   0  0  0  0  0  0  0  0  0  0  0  0
   42.7700   20.8890   36.0210 C   0  0  0  0  0  0  0  0  0  0  0  0
   43.5660   20.5290   35.3760 H   0  0  0  0  0  0  0  0  0  0  0  0
   42.4930   20.4410   37.2580 N   0  0  0  0  0  0  0  0  0  0  0  0
   43.0150   19.6850   37.7510 H   0  0  0  0  0  0  0  0  0  0  0  0
   41.4480   21.1120   37.7530 N   0  0  0  0  0  0  0  0  0  0  0  0
   36.9810   25.9850   31.7730 C   0  0  0  0  0  0  0  0  0  0  0  0
   36.0910   26.8840   30.9830 C   0  0  0  0  0  0  0  0  0  0  0  0
   37.5740   26.8100   30.6860 C   0  0  0  0  0  0  0  0  0  0  0  0
   35.7390   27.7880   31.5210 H   0  0  0  0  0  0  0  0  0  0  0  0
   35.3660   26.4300   30.3040 H   0  0  0  0  0  0  0  0  0  0  0  0
   37.7830   26.2560   29.7440 H   0  0  0  0  0  0  0  0  0  0  0  0
   38.1460   27.7190   30.9020 H   0  0  0  0  0  0  0  0  0  0  0  0
   35.6400   22.5590   31.5530 C   0  0  0  0  0  0  0  0  0  0  0  0
   36.7840   21.7900   31.3020 C   0  0  0  0  0  0  0  0  0  0  0  0
   38.0250   22.4570   31.2080 C   0  0  0  0  0  0  0  0  0  0  0  0
   38.0630   23.8010   31.3620 N   0  0  0  0  0  0  0  0  0  0  0  0
   36.9270   24.5210   31.6070 C   0  0  0  0  0  0  0  0  0  0  0  0
   35.7310   23.9070   31.7010 N   0  0  0  0  0  0  0  0  0  0  0  0
   34.6970   22.0330   31.6220 H   0  0  0  0  0  0  0  0  0  0  0  0
   36.7900   20.7340   31.1750 H   0  0  0  0  0  0  0  0  0  0  0  0
   38.9600   21.9460   31.0160 H   0  0  0  0  0  0  0  0  0  0  0  0
  1  2  2  0  0  0  0
  1  6  1  0  0  0  0
  2  3  1  0  0  0  0
  3  8  1  0  0  0  0
  3  4  2  0  0  0  0
  4  9  1  0  0  0  0
  5  4  1  0  0  0  0
  5 10  1  0  0  0  0
  6  5  2  0  0  0  0
  7  2  1  0  0  0  0
 10 11  1  0  0  0  0
 11 12  2  0  0  0  0
 12 15  1  0  0  0  0
 13 16  1  0  0  0  0
 13 12  1  0  0  0  0
 14 10  2  0  0  0  0
 14 13  1  0  0  0  0
 16 23  2  0  0  0  0
 17 19  2  0  0  0  0
 17 16  1  0  0  0  0
 18 17  1  0  0  0  0
 19 21  1  0  0  0  0
 20 19  1  0  0  0  0
 21 22  1  0  0  0  0
 21 23  1  0  0  0  0
 24  1  1  0  0  0  0
 25 27  1  0  0  0  0
 25 24  1  0  0  0  0
 26 30  1  0  0  0  0
 26 25  1  0  0  0  0
 26 24  1  0  0  0  0
 28 25  1  0  0  0  0
 29 26  1  0  0  0  0
 31 37  1  0  0  0  0
 31 36  1  0  0  0  0
 32 31  2  0  0  0  0
 33 32  1  0  0  0  0
 33 34  2  0  0  0  0
 34 35  1  0  0  0  0
 35 36  2  0  0  0  0
 35 24  1  0  0  0  0
 38 32  1  0  0  0  0
 39 33  1  0  0  0  0
M  END
>  <minimizedAffinity>
-5.97904825

$$$$

 OpenBabel03272505493D

 39 43  0  0  0  0  0  0  0  0999 V2000
   36.9890   25.9690   32.9360 C   0  0  0  0  0  0  0  0  0  0  0  0
   36.7570   27.2530   33.2840 C   0  0  0  0  0  0  0  0  0  0  0  0
   37.1030   27.7110   34.5460 C   0  0  0  0  0  0  0  0  0  0  0  0
   37.6890   26.8190   35.4320 C   0  0  0  0  0  0  0  0  0  0  0  0
   37.9310   25.4830   35.0740 C   0  0  0  0  0  0  0  0  0  0  0  0
   37.5640   25.1220   33.8290 N   0  0  0  0  0  0  0  0  0  0  0  0
   36.2990   27.9450   32.5860 H   0  0  0  0  0  0  0  0  0  0  0  0
   36.9140   28.7270   34.8040 H   0  0  0  0  0  0  0  0  0  0  0  0
   37.9710   27.1480   36.4260 H   0  0  0  0  0  0  0  0  0  0  0  0
   38.5380   24.5280   35.9800 C   0  0  0  0  0  0  0  0  0  0  0  0
   38.1940   24.2150   37.2740 N   0  0  0  0  0  0  0  0  0  0  0  0
   39.0560   23.2570   37.7230 C   0  0  0  0  0  0  0  0  0  0  0  0
   39.9140   22.9900   36.7180 N   0  0  0  0  0  0  0  0  0  0  0  0
   39.6160   23.7510   35.6510 N   0  0  0  0  0  0  0  0  0  0  0  0
   39.0500   22.7990   38.7020 H   0  0  0  0  0  0  0  0  0  0  0  0
   40.9590   22.0350   36.8250 C   0  0  0  0  0  0  0  0  0  0  0  0
   41.7260   21.8150   35.6940 C   0  0  0  0  0  0  0  0  0  0  0  0
   41.7060   22.2370   34.6770 H   0  0  0  0  0  0  0  0  0  0  0  0
   42.6800   20.8500   36.0260 C   0  0  0  0  0  0  0  0  0  0  0  0
   43.4510   20.4330   35.3840 H   0  0  0  0  0  0  0  0  0  0  0  0
   42.4660   20.5260   37.3130 N   0  0  0  0  0  0  0  0  0  0  0  0
   43.0190   19.8280   37.8550 H   0  0  0  0  0  0  0  0  0  0  0  0
   41.4370   21.2350   37.7870 N   0  0  0  0  0  0  0  0  0  0  0  0
   36.6240   25.4410   31.5690 C   0  0  0  0  0  0  0  0  0  0  0  0
   35.4450   24.5340   31.4640 C   0  0  0  0  0  0  0  0  0  0  0  0
   35.3820   25.9470   30.9250 C   0  0  0  0  0  0  0  0  0  0  0  0
   34.9120   24.3440   32.4190 H   0  0  0  0  0  0  0  0  0  0  0  0
   35.5050   23.6820   30.7830 H   0  0  0  0  0  0  0  0  0  0  0  0
   35.4110   25.9710   29.8140 H   0  0  0  0  0  0  0  0  0  0  0  0
   34.6990   26.6240   31.4500 H   0  0  0  0  0  0  0  0  0  0  0  0
   39.6820   26.1530   29.6390 C   0  0  0  0  0  0  0  0  0  0  0  0
   40.0700   24.8860   29.1860 C   0  0  0  0  0  0  0  0  0  0  0  0
   39.2710   23.7790   29.5470 C   0  0  0  0  0  0  0  0  0  0  0  0
   38.1720   23.9810   30.3110 N   0  0  0  0  0  0  0  0  0  0  0  0
   37.8230   25.2320   30.7360 C   0  0  0  0  0  0  0  0  0  0  0  0
   38.5690   26.3050   30.4040 N   0  0  0  0  0  0  0  0  0  0  0  0
   40.3040   26.9910   29.3530 H   0  0  0  0  0  0  0  0  0  0  0  0
   40.9260   24.6900   28.5850 H   0  0  0  0  0  0  0  0  0  0  0  0
   39.4920   22.7630   29.2440 H   0  0  0  0  0  0  0  0  0  0  0  0
  1  2  2  0  0  0  0
  1  6  1  0  0  0  0
  2  3  1  0  0  0  0
  3  8  1  0  0  0  0
  3  4  2  0  0  0  0
  4  9  1  0  0  0  0
  5  4  1  0  0  0  0
  5 10  1  0  0  0  0
  6  5  2  0  0  0  0
  7  2  1  0  0  0  0
 10 11  1  0  0  0  0
 11 12  2  0  0  0  0
 12 15  1  0  0  0  0
 13 16  1  0  0  0  0
 13 12  1  0  0  0  0
 14 10  2  0  0  0  0
 14 13  1  0  0  0  0
 16 23  2  0  0  0  0
 17 19  2  0  0  0  0
 17 16  1  0  0  0  0
 18 17  1  0  0  0  0
 19 21  1  0  0  0  0
 20 19  1  0  0  0  0
 21 23  1  0  0  0  0
 21 22  1  0  0  0  0
 24  1  1  0  0  0  0
 25 24  1  0  0  0  0
 25 27  1  0  0  0  0
 26 30  1  0  0  0  0
 26 25  1  0  0  0  0
 26 24  1  0  0  0  0
 28 25  1  0  0  0  0
 29 26  1  0  0  0  0
 31 36  1  0  0  0  0
 32 33  1  0  0  0  0
 32 31  2  0  0  0  0
 33 34  2  0  0  0  0
 34 35  1  0  0  0  0
 35 24  1  0  0  0  0
 36 35  2  0  0  0  0
 37 31  1  0  0  0  0
 38 32  1  0  0  0  0
 39 33  1  0  0  0  0
M  END
>  <minimizedAffinity>
-5.92988586

$$$$

 OpenBabel03272505493D

 39 43  0  0  0  0  0  0  0  0999 V2000
   38.5870   25.2230   33.7280 C   0  0  0  0  0  0  0  0  0  0  0  0
   38.1570   24.1900   32.9710 C   0  0  0  0  0  0  0  0  0  0  0  0
   37.0650   24.3420   32.1320 C   0  0  0  0  0  0  0  0  0  0  0  0
   36.4310   25.5760   32.0950 C   0  0  0  0  0  0  0  0  0  0  0  0
   36.8750   26.6520   32.8820 C   0  0  0  0  0  0  0  0  0  0  0  0
   37.9430   26.4170   33.6680 N   0  0  0  0  0  0  0  0  0  0  0  0
   38.6580   23.2280   33.0060 H   0  0  0  0  0  0  0  0  0  0  0  0
   36.7390   23.5190   31.5420 H   0  0  0  0  0  0  0  0  0  0  0  0
   35.5740   25.7260   31.4480 H   0  0  0  0  0  0  0  0  0  0  0  0
   36.2300   27.9500   32.8650 C   0  0  0  0  0  0  0  0  0  0  0  0
   35.4930   28.5440   31.8670 N   0  0  0  0  0  0  0  0  0  0  0  0
   35.0900   29.7700   32.3090 C   0  0  0  0  0  0  0  0  0  0  0  0
   35.5730   29.9230   33.5590 N   0  0  0  0  0  0  0  0  0  0  0  0
   36.2680   28.8280   33.9150 N   0  0  0  0  0  0  0  0  0  0  0  0
   34.4940   30.4850   31.7590 H   0  0  0  0  0  0  0  0  0  0  0  0
   35.3500   31.0880   34.3380 C   0  0  0  0  0  0  0  0  0  0  0  0
   35.8510   31.0850   35.6290 C   0  0  0  0  0  0  0  0  0  0  0  0
   36.4130   30.3410   36.2160 H   0  0  0  0  0  0  0  0  0  0  0  0
   35.5190   32.3140   36.2020 C   0  0  0  0  0  0  0  0  0  0  0  0
   35.7510   32.6620   37.2050 H   0  0  0  0  0  0  0  0  0  0  0  0
   34.8460   33.0040   35.2650 N   0  0  0  0  0  0  0  0  0  0  0  0
   34.4620   33.9660   35.3900 H   0  0  0  0  0  0  0  0  0  0  0  0
   34.7470   32.2680   34.1530 N   0  0  0  0  0  0  0  0  0  0  0  0
   39.7760   25.0870   34.6510 C   0  0  0  0  0  0  0  0  0  0  0  0
   41.1140   24.8610   34.0330 C   0  0  0  0  0  0  0  0  0  0  0  0
   40.7760   26.1880   34.6790 C   0  0  0  0  0  0  0  0  0  0  0  0
   41.1220   24.8380   32.9230 H   0  0  0  0  0  0  0  0  0  0  0  0
   41.7990   24.1650   34.5210 H   0  0  0  0  0  0  0  0  0  0  0  0
   41.2930   26.3200   35.6540 H   0  0  0  0  0  0  0  0  0  0  0  0
   40.7080   27.0430   33.9970 H   0  0  0  0  0  0  0  0  0  0  0  0
   39.8410   22.7790   37.5230 C   0  0  0  0  0  0  0  0  0  0  0  0
   38.7350   23.1880   38.2790 C   0  0  0  0  0  0  0  0  0  0  0  0
   37.9620   24.2660   37.7960 C   0  0  0  0  0  0  0  0  0  0  0  0
   38.3140   24.8590   36.6310 N   0  0  0  0  0  0  0  0  0  0  0  0
   39.4000   24.4330   35.9180 C   0  0  0  0  0  0  0  0  0  0  0  0
   40.1530   23.4060   36.3580 N   0  0  0  0  0  0  0  0  0  0  0  0
   40.4220   21.9510   37.9070 H   0  0  0  0  0  0  0  0  0  0  0  0
   38.4290   22.7460   39.1980 H   0  0  0  0  0  0  0  0  0  0  0  0
   37.0910   24.6510   38.3120 H   0  0  0  0  0  0  0  0  0  0  0  0
  1 24  1  0  0  0  0
  2  7  1  0  0  0  0
  2  1  2  0  0  0  0
  3  2  1  0  0  0  0
  4  3  2  0  0  0  0
  4  5  1  0  0  0  0
  5  6  2  0  0  0  0
  6  1  1  0  0  0  0
  8  3  1  0  0  0  0
  9  4  1  0  0  0  0
 10  5  1  0  0  0  0
 10 14  2  0  0  0  0
 11 12  2  0  0  0  0
 11 10  1  0  0  0  0
 12 13  1  0  0  0  0
 13 14  1  0  0  0  0
 13 16  1  0  0  0  0
 15 12  1  0  0  0  0
 16 17  1  0  0  0  0
 17 19  2  0  0  0  0
 17 18  1  0  0  0  0
 19 20  1  0  0  0  0
 21 22  1  0  0  0  0
 21 19  1  0  0  0  0
 23 16  2  0  0  0  0
 23 21  1  0  0  0  0
 24 26  1  0  0  0  0
 24 35  1  0  0  0  0
 25 28  1  0  0  0  0
 25 24  1  0  0  0  0
 25 26  1  0  0  0  0
 26 29  1  0  0  0  0
 27 25  1  0  0  0  0
 30 26  1  0  0  0  0
 31 37  1  0  0  0  0
 31 32  1  0  0  0  0
 32 38  1  0  0  0  0
 33 32  2  0  0  0  0
 33 39  1  0  0  0  0
 34 33  1  0  0  0  0
 35 36  1  0  0  0  0
 35 34  2  0  0  0  0
 36 31  2  0  0  0  0
M  END
>  <minimizedAffinity>
-5.88611555

$$$$

 OpenBabel03272505493D

 39 43  0  0  0  0  0  0  0  0999 V2000
   36.8440   28.2190   32.1540 C   0  0  0  0  0  0  0  0  0  0  0  0
   37.1870   28.8910   31.0330 C   0  0  0  0  0  0  0  0  0  0  0  0
   36.4490   29.9890   30.6210 C   0  0  0  0  0  0  0  0  0  0  0  0
   35.3570   30.3730   31.3870 C   0  0  0  0  0  0  0  0  0  0  0  0
   34.9980   29.6760   32.5520 C   0  0  0  0  0  0  0  0  0  0  0  0
   35.7700   28.6210   32.8800 N   0  0  0  0  0  0  0  0  0  0  0  0
   38.0410   28.5840   30.4400 H   0  0  0  0  0  0  0  0  0  0  0  0
   36.7320   30.5080   29.7360 H   0  0  0  0  0  0  0  0  0  0  0  0
   34.7610   31.2290   31.0910 H   0  0  0  0  0  0  0  0  0  0  0  0
   33.8610   30.0540   33.3690 C   0  0  0  0  0  0  0  0  0  0  0  0
   33.1070   31.2030   33.3350 N   0  0  0  0  0  0  0  0  0  0  0  0
   32.1440   31.1070   34.2960 C   0  0  0  0  0  0  0  0  0  0  0  0
   32.3060   29.9170   34.9080 N   0  0  0  0  0  0  0  0  0  0  0  0
   33.3440   29.2620   34.3590 N   0  0  0  0  0  0  0  0  0  0  0  0
   31.3900   31.8490   34.5230 H   0  0  0  0  0  0  0  0  0  0  0  0
   31.4750   29.4710   35.9680 C   0  0  0  0  0  0  0  0  0  0  0  0
   31.7150   28.2000   36.4630 C   0  0  0  0  0  0  0  0  0  0  0  0
   32.4450   27.4180   36.2020 H   0  0  0  0  0  0  0  0  0  0  0  0
   30.7920   27.9760   37.4860 C   0  0  0  0  0  0  0  0  0  0  0  0
   30.6860   27.0850   38.0990 H   0  0  0  0  0  0  0  0  0  0  0  0
   30.0430   29.0880   37.5770 N   0  0  0  0  0  0  0  0  0  0  0  0
   29.2620   29.2300   38.2530 H   0  0  0  0  0  0  0  0  0  0  0  0
   30.4540   29.9790   36.6690 N   0  0  0  0  0  0  0  0  0  0  0  0
   37.6300   27.0190   32.6290 C   0  0  0  0  0  0  0  0  0  0  0  0
   39.1150   27.1380   32.6850 C   0  0  0  0  0  0  0  0  0  0  0  0
   38.2960   27.0920   33.9570 C   0  0  0  0  0  0  0  0  0  0  0  0
   39.5200   28.1290   32.3910 H   0  0  0  0  0  0  0  0  0  0  0  0
   39.7160   26.2780   32.3810 H   0  0  0  0  0  0  0  0  0  0  0  0
   38.3950   26.1170   34.4820 H   0  0  0  0  0  0  0  0  0  0  0  0
   38.2920   28.0140   34.5510 H   0  0  0  0  0  0  0  0  0  0  0  0
   36.9480   23.4130   32.2980 C   0  0  0  0  0  0  0  0  0  0  0  0
   35.7970   23.3820   31.5000 C   0  0  0  0  0  0  0  0  0  0  0  0
   35.2530   24.6140   31.0740 C   0  0  0  0  0  0  0  0  0  0  0  0
   35.8570   25.7660   31.4470 N   0  0  0  0  0  0  0  0  0  0  0  0
   36.9800   25.7580   32.2270 C   0  0  0  0  0  0  0  0  0  0  0  0
   37.5190   24.5960   32.6460 N   0  0  0  0  0  0  0  0  0  0  0  0
   37.3520   22.4610   32.6160 H   0  0  0  0  0  0  0  0  0  0  0  0
   35.2960   22.4970   31.1880 H   0  0  0  0  0  0  0  0  0  0  0  0
   34.3660   24.6890   30.4560 H   0  0  0  0  0  0  0  0  0  0  0  0
  1 24  1  0  0  0  0
  1  6  1  0  0  0  0
  2  1  2  0  0  0  0
  3  2  1  0  0  0  0
  3  4  2  0  0  0  0
  4  5  1  0  0  0  0
  5  6  2  0  0  0  0
  5 10  1  0  0  0  0
  7  2  1  0  0  0  0
  8  3  1  0  0  0  0
  9  4  1  0  0  0  0
 10 14  2  0  0  0  0
 11 10  1  0  0  0  0
 11 12  2  0  0  0  0
 12 15  1  0  0  0  0
 12 13  1  0  0  0  0
 13 16  1  0  0  0  0
 14 13  1  0  0  0  0
 16 17  1  0  0  0  0
 16 23  2  0  0  0  0
 17 19  2  0  0  0  0
 18 17  1  0  0  0  0
 19 21  1  0  0  0  0
 19 20  1  0  0  0  0
 21 22  1  0  0  0  0
 23 21  1  0  0  0  0
 24 25  1  0  0  0  0
 24 26  1  0  0  0  0
 25 26  1  0  0  0  0
 26 29  1  0  0  0  0
 26 30  1  0  0  0  0
 27 25  1  0  0  0  0
 28 25  1  0  0  0  0
 31 37  1  0  0  0  0
 31 36  1  0  0  0  0
 32 31  2  0  0  0  0
 33 34  2  0  0  0  0
 33 32  1  0  0  0  0
 34 35  1  0  0  0  0
 35 24  1  0  0  0  0
 35 36  2  0  0  0  0
 38 32  1  0  0  0  0
 39 33  1  0  0  0  0
M  END
>  <minimizedAffinity>
-5.82059288

$$$$

 OpenBabel03272505493D

 39 43  0  0  0  0  0  0  0  0999 V2000
   35.5750   29.6360   32.1160 C   0  0  0  0  0  0  0  0  0  0  0  0
   36.0420   29.4110   30.8680 C   0  0  0  0  0  0  0  0  0  0  0  0
   37.0130   28.4480   30.6460 C   0  0  0  0  0  0  0  0  0  0  0  0
   37.4880   27.7290   31.7330 C   0  0  0  0  0  0  0  0  0  0  0  0
   37.0060   27.9610   33.0320 C   0  0  0  0  0  0  0  0  0  0  0  0
   36.0620   28.9150   33.1580 N   0  0  0  0  0  0  0  0  0  0  0  0
   35.6650   29.9770   30.0230 H   0  0  0  0  0  0  0  0  0  0  0  0
   37.3700   28.2830   29.6560 H   0  0  0  0  0  0  0  0  0  0  0  0
   38.2480   26.9690   31.5910 H   0  0  0  0  0  0  0  0  0  0  0  0
   37.4860   27.2270   34.1860 C   0  0  0  0  0  0  0  0  0  0  0  0
   37.8580   27.6970   35.4240 N   0  0  0  0  0  0  0  0  0  0  0  0
   38.2420   26.6320   36.1850 C   0  0  0  0  0  0  0  0  0  0  0  0
   38.1050   25.5270   35.4230 N   0  0  0  0  0  0  0  0  0  0  0  0
   37.6470   25.8680   34.2060 N   0  0  0  0  0  0  0  0  0  0  0  0
   38.5890   26.6680   37.2080 H   0  0  0  0  0  0  0  0  0  0  0  0
   38.4130   24.2220   35.8890 C   0  0  0  0  0  0  0  0  0  0  0  0
   38.1670   23.1720   35.0220 C   0  0  0  0  0  0  0  0  0  0  0  0
   37.7630   23.1200   33.9990 H   0  0  0  0  0  0  0  0  0  0  0  0
   38.5400   21.9980   35.6810 C   0  0  0  0  0  0  0  0  0  0  0  0
   38.4850   20.9810   35.3040 H   0  0  0  0  0  0  0  0  0  0  0  0
   38.9890   22.3660   36.8940 N   0  0  0  0  0  0  0  0  0  0  0  0
   39.3430   21.7120   37.6240 H   0  0  0  0  0  0  0  0  0  0  0  0
   38.9120   23.6950   37.0140 N   0  0  0  0  0  0  0  0  0  0  0  0
   34.5160   30.6780   32.3890 C   0  0  0  0  0  0  0  0  0  0  0  0
   34.9470   32.1030   32.4760 C   0  0  0  0  0  0  0  0  0  0  0  0
   34.1440   31.6100   31.2910 C   0  0  0  0  0  0  0  0  0  0  0  0
   36.0290   32.2780   32.3020 H   0  0  0  0  0  0  0  0  0  0  0  0
   34.4850   32.7390   33.2340 H   0  0  0  0  0  0  0  0  0  0  0  0
   33.0910   31.9690   31.3240 H   0  0  0  0  0  0  0  0  0  0  0  0
   34.6710   31.6050   30.3310 H   0  0  0  0  0  0  0  0  0  0  0  0
   31.5470   28.8020   33.5050 C   0  0  0  0  0  0  0  0  0  0  0  0
   31.4580   29.1340   34.8630 C   0  0  0  0  0  0  0  0  0  0  0  0
   32.4270   30.0100   35.3970 C   0  0  0  0  0  0  0  0  0  0  0  0
   33.3980   30.4920   34.5850 N   0  0  0  0  0  0  0  0  0  0  0  0
   33.4540   30.1470   33.2640 C   0  0  0  0  0  0  0  0  0  0  0  0
   32.5400   29.3130   32.7300 N   0  0  0  0  0  0  0  0  0  0  0  0
   30.7960   28.1300   33.1110 H   0  0  0  0  0  0  0  0  0  0  0  0
   30.7100   28.7740   35.5290 H   0  0  0  0  0  0  0  0  0  0  0  0
   32.4390   30.3220   36.4340 H   0  0  0  0  0  0  0  0  0  0  0  0
  1 24  1  0  0  0  0
  1  6  1  0  0  0  0
  2  1  2  0  0  0  0
  3  2  1  0  0  0  0
  3  4  2  0  0  0  0
  4  5  1  0  0  0  0
  5  6  2  0  0  0  0
  5 10  1  0  0  0  0
  7  2  1  0  0  0  0
  8  3  1  0  0  0  0
  9  4  1  0  0  0  0
 10 14  2  0  0  0  0
 10 11  1  0  0  0  0
 11 12  2  0  0  0  0
 12 15  1  0  0  0  0
 13 16  1  0  0  0  0
 13 12  1  0  0  0  0
 14 13  1  0  0  0  0
 16 23  2  0  0  0  0
 17 19  2  0  0  0  0
 17 16  1  0  0  0  0
 18 17  1  0  0  0  0
 19 21  1  0  0  0  0
 20 19  1  0  0  0  0
 21 23  1  0  0  0  0
 21 22  1  0  0  0  0
 24 25  1  0  0  0  0
 24 35  1  0  0  0  0
 25 28  1  0  0  0  0
 26 29  1  0  0  0  0
 26 24  1  0  0  0  0
 26 25  1  0  0  0  0
 27 25  1  0  0  0  0
 30 26  1  0  0  0  0
 31 32  1  0  0  0  0
 32 33  2  0  0  0  0
 32 38  1  0  0  0  0
 33 39  1  0  0  0  0
 34 33  1  0  0  0  0
 35 34  2  0  0  0  0
 36 35  1  0  0  0  0
 36 31  2  0  0  0  0
 37 31  1  0  0  0  0
M  END
>  <minimizedAffinity>
-5.79768181

$$$$

 OpenBabel03272505493D

 39 43  0  0  0  0  0  0  0  0999 V2000
   38.6250   24.5640   35.1690 C   0  0  0  0  0  0  0  0  0  0  0  0
   38.2430   25.4710   36.0940 C   0  0  0  0  0  0  0  0  0  0  0  0
   38.0050   26.7870   35.7290 C   0  0  0  0  0  0  0  0  0  0  0  0
   38.1710   27.1410   34.3990 C   0  0  0  0  0  0  0  0  0  0  0  0
   38.5680   26.2000   33.4340 C   0  0  0  0  0  0  0  0  0  0  0  0
   38.7770   24.9440   33.8740 N   0  0  0  0  0  0  0  0  0  0  0  0
   38.1160   25.1860   37.1330 H   0  0  0  0  0  0  0  0  0  0  0  0
   37.7050   27.4890   36.4710 H   0  0  0  0  0  0  0  0  0  0  0  0
   37.9910   28.1620   34.0820 H   0  0  0  0  0  0  0  0  0  0  0  0
   38.7510   26.5430   32.0370 C   0  0  0  0  0  0  0  0  0  0  0  0
   39.3830   25.8360   31.0420 N   0  0  0  0  0  0  0  0  0  0  0  0
   39.3030   26.5590   29.8890 C   0  0  0  0  0  0  0  0  0  0  0  0
   38.6300   27.6930   30.1750 N   0  0  0  0  0  0  0  0  0  0  0  0
   38.2860   27.7010   31.4740 N   0  0  0  0  0  0  0  0  0  0  0  0
   39.7030   26.2750   28.9250 H   0  0  0  0  0  0  0  0  0  0  0  0
   38.3530   28.6940   29.2080 C   0  0  0  0  0  0  0  0  0  0  0  0
   37.5980   29.7770   29.6240 C   0  0  0  0  0  0  0  0  0  0  0  0
   37.1410   30.0490   30.5880 H   0  0  0  0  0  0  0  0  0  0  0  0
   37.4520   30.6240   28.5230 C   0  0  0  0  0  0  0  0  0  0  0  0
   36.9190   31.5700   28.4820 H   0  0  0  0  0  0  0  0  0  0  0  0
   38.1060   30.0420   27.5030 N   0  0  0  0  0  0  0  0  0  0  0  0
   38.1810   30.4340   26.5390 H   0  0  0  0  0  0  0  0  0  0  0  0
   38.6430   28.8900   27.9150 N   0  0  0  0  0  0  0  0  0  0  0  0
   38.8900   23.1220   35.5350 C   0  0  0  0  0  0  0  0  0  0  0  0
   40.2970   22.6350   35.4690 C   0  0  0  0  0  0  0  0  0  0  0  0
   39.6130   22.8380   36.8040 C   0  0  0  0  0  0  0  0  0  0  0  0
   41.0470   23.3990   35.1750 H   0  0  0  0  0  0  0  0  0  0  0  0
   40.4800   21.6280   35.0870 H   0  0  0  0  0  0  0  0  0  0  0  0
   39.3440   21.8730   37.2860 H   0  0  0  0  0  0  0  0  0  0  0  0
   40.0180   23.6440   37.4260 H   0  0  0  0  0  0  0  0  0  0  0  0
   35.8980   20.9870   35.8000 C   0  0  0  0  0  0  0  0  0  0  0  0
   35.6470   20.6320   34.4680 C   0  0  0  0  0  0  0  0  0  0  0  0
   36.5140   21.1320   33.4730 C   0  0  0  0  0  0  0  0  0  0  0  0
   37.5470   21.9280   33.8380 N   0  0  0  0  0  0  0  0  0  0  0  0
   37.7630   22.2540   35.1480 C   0  0  0  0  0  0  0  0  0  0  0  0
   36.9490   21.7890   36.1170 N   0  0  0  0  0  0  0  0  0  0  0  0
   35.2240   20.5950   36.5500 H   0  0  0  0  0  0  0  0  0  0  0  0
   34.8460   20.0100   34.1450 H   0  0  0  0  0  0  0  0  0  0  0  0
   36.3990   20.9130   32.4190 H   0  0  0  0  0  0  0  0  0  0  0  0
  1 24  1  0  0  0  0
  1  2  1  0  0  0  0
  2  7  1  0  0  0  0
  3  2  2  0  0  0  0
  3  8  1  0  0  0  0
  4  3  1  0  0  0  0
  5  6  1  0  0  0  0
  5  4  2  0  0  0  0
  6  1  2  0  0  0  0
  9  4  1  0  0  0  0
 10  5  1  0  0  0  0
 11 10  1  0  0  0  0
 12 13  1  0  0  0  0
 12 11  2  0  0  0  0
 13 14  1  0  0  0  0
 14 10  2  0  0  0  0
 15 12  1  0  0  0  0
 16 17  1  0  0  0  0
 16 13  1  0  0  0  0
 17 18  1  0  0  0  0
 19 17  2  0  0  0  0
 20 19  1  0  0  0  0
 21 23  1  0  0  0  0
 21 19  1  0  0  0  0
 22 21  1  0  0  0  0
 23 16  2  0  0  0  0
 24 26  1  0  0  0  0
 25 24  1  0  0  0  0
 25 26  1  0  0  0  0
 26 29  1  0  0  0  0
 26 30  1  0  0  0  0
 27 25  1  0  0  0  0
 28 25  1  0  0  0  0
 31 36  1  0  0  0  0
 31 37  1  0  0  0  0
 32 31  2  0  0  0  0
 33 34  2  0  0  0  0
 33 32  1  0  0  0  0
 34 35  1  0  0  0  0
 35 24  1  0  0  0  0
 35 36  2  0  0  0  0
 38 32  1  0  0  0  0
 39 33  1  0  0  0  0
M  END
>  <minimizedAffinity>
-5.79640627

$$$$

 OpenBabel03272505493D

 39 43  0  0  0  0  0  0  0  0999 V2000
   38.1300   23.4520   34.7940 C   0  0  0  0  0  0  0  0  0  0  0  0
   37.7620   22.2470   34.3070 C   0  0  0  0  0  0  0  0  0  0  0  0
   37.3030   22.1270   33.0050 C   0  0  0  0  0  0  0  0  0  0  0  0
   37.2330   23.2710   32.2240 C   0  0  0  0  0  0  0  0  0  0  0  0
   37.6140   24.5260   32.7270 C   0  0  0  0  0  0  0  0  0  0  0  0
   38.0480   24.5530   34.0020 N   0  0  0  0  0  0  0  0  0  0  0  0
   37.8190   21.3560   34.9240 H   0  0  0  0  0  0  0  0  0  0  0  0
   37.0180   21.1700   32.6370 H   0  0  0  0  0  0  0  0  0  0  0  0
   36.8790   23.2100   31.2010 H   0  0  0  0  0  0  0  0  0  0  0  0
   37.5490   25.7390   31.9350 C   0  0  0  0  0  0  0  0  0  0  0  0
   38.3040   26.1100   30.8470 N   0  0  0  0  0  0  0  0  0  0  0  0
   37.8800   27.3390   30.4350 C   0  0  0  0  0  0  0  0  0  0  0  0
   36.8790   27.7130   31.2590 N   0  0  0  0  0  0  0  0  0  0  0  0
   36.6630   26.7540   32.1760 N   0  0  0  0  0  0  0  0  0  0  0  0
   38.2720   27.9070   29.6030 H   0  0  0  0  0  0  0  0  0  0  0  0
   36.1910   28.9470   31.1300 C   0  0  0  0  0  0  0  0  0  0  0  0
   35.1420   29.1760   32.0050 C   0  0  0  0  0  0  0  0  0  0  0  0
   34.7010   28.5820   32.8210 H   0  0  0  0  0  0  0  0  0  0  0  0
   34.6180   30.4340   31.7010 C   0  0  0  0  0  0  0  0  0  0  0  0
   33.7870   30.9400   32.1840 H   0  0  0  0  0  0  0  0  0  0  0  0
   35.3470   30.9150   30.6790 N   0  0  0  0  0  0  0  0  0  0  0  0
   35.2000   31.8410   30.2230 H   0  0  0  0  0  0  0  0  0  0  0  0
   36.2850   30.0240   30.3410 N   0  0  0  0  0  0  0  0  0  0  0  0
   38.6350   23.6140   36.2090 C   0  0  0  0  0  0  0  0  0  0  0  0
   38.1420   24.7810   36.9940 C   0  0  0  0  0  0  0  0  0  0  0  0
   37.6850   23.3780   37.3280 C   0  0  0  0  0  0  0  0  0  0  0  0
   37.4100   25.4280   36.4670 H   0  0  0  0  0  0  0  0  0  0  0  0
   38.8470   25.3040   37.6440 H   0  0  0  0  0  0  0  0  0  0  0  0
   38.1530   22.9980   38.2630 H   0  0  0  0  0  0  0  0  0  0  0  0
   36.6240   23.1690   37.1470 H   0  0  0  0  0  0  0  0  0  0  0  0
   41.5350   21.6190   37.2980 C   0  0  0  0  0  0  0  0  0  0  0  0
   42.6020   22.2160   36.6130 C   0  0  0  0  0  0  0  0  0  0  0  0
   42.3190   23.3130   35.7710 C   0  0  0  0  0  0  0  0  0  0  0  0
   41.0410   23.7430   35.6570 N   0  0  0  0  0  0  0  0  0  0  0  0
   40.0240   23.1370   36.3410 C   0  0  0  0  0  0  0  0  0  0  0  0
   40.2680   22.0890   37.1510 N   0  0  0  0  0  0  0  0  0  0  0  0
   41.7690   20.7800   37.9390 H   0  0  0  0  0  0  0  0  0  0  0  0
   43.6170   21.9040   36.6790 H   0  0  0  0  0  0  0  0  0  0  0  0
   43.0770   23.8370   35.2030 H   0  0  0  0  0  0  0  0  0  0  0  0
  1 24  1  0  0  0  0
  2  1  1  0  0  0  0
  2  7  1  0  0  0  0
  3  2  2  0  0  0  0
  4  5  2  0  0  0  0
  4  3  1  0  0  0  0
  5  6  1  0  0  0  0
  6  1  2  0  0  0  0
  8  3  1  0  0  0  0
  9  4  1  0  0  0  0
 10 14  2  0  0  0  0
 10  5  1  0  0  0  0
 11 10  1  0  0  0  0
 12 11  2  0  0  0  0
 12 13  1  0  0  0  0
 13 14  1  0  0  0  0
 15 12  1  0  0  0  0
 16 13  1  0  0  0  0
 16 17  1  0  0  0  0
 17 18  1  0  0  0  0
 19 17  2  0  0  0  0
 19 20  1  0  0  0  0
 21 19  1  0  0  0  0
 22 21  1  0  0  0  0
 23 21  1  0  0  0  0
 23 16  2  0  0  0  0
 24 35  1  0  0  0  0
 24 25  1  0  0  0  0
 24 26  1  0  0  0  0
 25 26  1  0  0  0  0
 25 28  1  0  0  0  0
 26 29  1  0  0  0  0
 27 25  1  0  0  0  0
 30 26  1  0  0  0  0
 31 37  1  0  0  0  0
 32 38  1  0  0  0  0
 32 31  2  0  0  0  0
 33 32  1  0  0  0  0
 34 33  2  0  0  0  0
 34 35  1  0  0  0  0
 35 36  2  0  0  0  0
 36 31  1  0  0  0  0
 39 33  1  0  0  0  0
M  END
>  <minimizedAffinity>
-5.76467419

$$$$
