
 OpenBabel03262521053D

 35 37  0  0  0  0  0  0  0  0999 V2000
   38.4650   32.0880   48.3180 Br  0  0  0  0  0  0  0  0  0  0  0  0
   37.3860   31.3390   46.9730 C   0  0  0  0  0  0  0  0  0  0  0  0
   36.4270   30.4750   47.4010 C   0  0  0  0  0  0  0  0  0  0  0  0
   35.5720   29.8660   46.4660 C   0  0  0  0  0  0  0  0  0  0  0  0
   35.7250   30.1600   45.1180 C   0  0  0  0  0  0  0  0  0  0  0  0
   36.7050   31.0320   44.7660 C   0  0  0  0  0  0  0  0  0  0  0  0
   37.5490   31.6370   45.6640 C   0  0  0  0  0  0  0  0  0  0  0  0
   34.7890   29.1710   46.7330 H   0  0  0  0  0  0  0  0  0  0  0  0
   35.0720   29.6970   44.3760 H   0  0  0  0  0  0  0  0  0  0  0  0
   36.8170   31.2560   43.7120 H   0  0  0  0  0  0  0  0  0  0  0  0
   37.0960   29.6140   49.6960 C   0  0  0  0  0  0  0  0  0  0  0  0
   36.1320   30.0570   48.7860 C   0  0  0  0  0  0  0  0  0  0  0  0
   34.7830   30.1080   49.2250 C   0  0  0  0  0  0  0  0  0  0  0  0
   34.5300   29.7150   50.5130 N   0  0  0  0  0  0  0  0  0  0  0  0
   35.4960   29.3010   51.3350 C   0  0  0  0  0  0  0  0  0  0  0  0
   36.7700   29.2470   50.9410 N   0  0  0  0  0  0  0  0  0  0  0  0
   38.1230   29.5840   49.3350 H   0  0  0  0  0  0  0  0  0  0  0  0
   34.0480   30.4490   48.5210 H   0  0  0  0  0  0  0  0  0  0  0  0
   35.0850   29.0390   52.3040 H   0  0  0  0  0  0  0  0  0  0  0  0
   38.5740   32.5470   45.3040 N   0  0  0  0  0  0  0  0  0  0  0  0
   38.3190   33.5080   45.6610 H   0  0  0  0  0  0  0  0  0  0  0  0
   40.0370   32.3730   44.4570 S   0  0  0  0  0  0  0  0  0  0  0  0
   40.3220   30.9450   44.1380 O   0  0  0  0  0  0  0  0  0  0  0  0
   39.6840   30.1910   44.1430 H   0  0  0  0  0  0  0  0  0  0  0  0
   41.1780   32.8960   45.3060 O   0  0  0  0  0  0  0  0  0  0  0  0
   42.0570   32.4600   45.4270 H   0  0  0  0  0  0  0  0  0  0  0  0
   39.9340   33.2690   43.0140 O   0  0  0  0  0  0  0  0  0  0  0  0
   38.9630   32.8540   42.1100 C   0  0  0  0  0  0  0  0  0  0  0  0
   39.2120   32.0630   40.9830 C   0  0  0  0  0  0  0  0  0  0  0  0
   40.1410   31.6490   40.6170 H   0  0  0  0  0  0  0  0  0  0  0  0
   37.9830   31.9140   40.4080 N   0  0  0  0  0  0  0  0  0  0  0  0
   37.8620   31.3480   39.5170 H   0  0  0  0  0  0  0  0  0  0  0  0
   37.0220   32.5510   41.1010 C   0  0  0  0  0  0  0  0  0  0  0  0
   35.9800   32.5560   40.8120 H   0  0  0  0  0  0  0  0  0  0  0  0
   37.6470   33.1290   42.1540 N   0  0  0  0  0  0  0  0  0  0  0  0
  2  3  1  0  0  0  0
  2  1  1  0  0  0  0
  3 12  1  0  0  0  0
  4  8  1  0  0  0  0
  4  3  2  0  0  0  0
  5  4  1  0  0  0  0
  6  5  2  0  0  0  0
  6  7  1  0  0  0  0
  7  2  2  0  0  0  0
  9  5  1  0  0  0  0
 10  6  1  0  0  0  0
 11 16  1  0  0  0  0
 12 13  1  0  0  0  0
 12 11  2  0  0  0  0
 13 14  2  0  0  0  0
 14 15  1  0  0  0  0
 15 19  1  0  0  0  0
 16 15  2  0  0  0  0
 17 11  1  0  0  0  0
 18 13  1  0  0  0  0
 20 21  1  0  0  0  0
 20  7  1  0  0  0  0
 22 20  1  0  0  0  0
 22 25  1  0  0  0  0
 23 24  1  0  0  0  0
 23 22  1  0  0  0  0
 25 26  1  0  0  0  0
 27 22  1  0  0  0  0
 28 35  1  0  0  0  0
 28 27  1  0  0  0  0
 29 28  2  0  0  0  0
 30 29  1  0  0  0  0
 31 29  1  0  0  0  0
 31 33  1  0  0  0  0
 32 31  1  0  0  0  0
 33 35  2  0  0  0  0
 34 33  1  0  0  0  0
M  END
>  <minimizedAffinity>
-5.05064774

>  <minimizedRMSD>
1.62018538

$$$$
