
 OpenBabel03272510113D

 34 37  0  0  0  0  0  0  0  0999 V2000
   33.2650   28.5080   48.1560 C   0  0  0  0  0  0  0  0  0  0  0  0
   33.9870   27.9260   49.1370 C   0  0  0  0  0  0  0  0  0  0  0  0
   35.2320   28.3390   49.5560 C   0  0  0  0  0  0  0  0  0  0  0  0
   35.8230   29.4190   48.9590 C   0  0  0  0  0  0  0  0  0  0  0  0
   35.0800   30.0240   47.9440 C   0  0  0  0  0  0  0  0  0  0  0  0
   33.8690   29.5830   47.5730 N   0  0  0  0  0  0  0  0  0  0  0  0
   33.6020   27.0670   49.6670 H   0  0  0  0  0  0  0  0  0  0  0  0
   35.8010   27.8630   50.3450 H   0  0  0  0  0  0  0  0  0  0  0  0
   35.5050   30.8910   47.4330 H   0  0  0  0  0  0  0  0  0  0  0  0
   31.2100   27.0780   48.3790 C   0  0  0  0  0  0  0  0  0  0  0  0
   31.9710   28.0730   47.7270 C   0  0  0  0  0  0  0  0  0  0  0  0
   31.3910   28.6350   46.6080 C   0  0  0  0  0  0  0  0  0  0  0  0
   30.1570   28.2300   46.1870 N   0  0  0  0  0  0  0  0  0  0  0  0
   29.4830   27.2750   46.8550 C   0  0  0  0  0  0  0  0  0  0  0  0
   29.9990   26.6950   47.9470 N   0  0  0  0  0  0  0  0  0  0  0  0
   31.6360   26.6190   49.2580 H   0  0  0  0  0  0  0  0  0  0  0  0
   31.9540   29.4040   46.0850 H   0  0  0  0  0  0  0  0  0  0  0  0
   28.5300   27.0940   46.3680 H   0  0  0  0  0  0  0  0  0  0  0  0
   37.0700   29.9660   49.2570 O   0  0  0  0  0  0  0  0  0  0  0  0
   37.6860   30.8660   48.3900 C   0  0  0  0  0  0  0  0  0  0  0  0
   38.3200   31.9360   49.0380 C   0  0  0  0  0  0  0  0  0  0  0  0
   38.8900   32.7540   48.0790 C   0  0  0  0  0  0  0  0  0  0  0  0
   38.5930   32.1720   46.9080 N   0  0  0  0  0  0  0  0  0  0  0  0
   37.8950   31.0760   47.0780 N   0  0  0  0  0  0  0  0  0  0  0  0
   38.4470   32.2350   50.0920 H   0  0  0  0  0  0  0  0  0  0  0  0
   39.4610   33.6630   48.0830 H   0  0  0  0  0  0  0  0  0  0  0  0
   38.9330   32.5900   45.5820 C   0  0  0  0  0  0  0  0  0  0  0  0
   38.4660   32.4480   44.2950 C   0  0  0  0  0  0  0  0  0  0  0  0
   37.5700   31.8450   44.1930 H   0  0  0  0  0  0  0  0  0  0  0  0
   39.3010   33.1330   43.5070 N   0  0  0  0  0  0  0  0  0  0  0  0
   39.1170   33.1490   42.4810 H   0  0  0  0  0  0  0  0  0  0  0  0
   40.2730   33.7000   44.2400 C   0  0  0  0  0  0  0  0  0  0  0  0
   41.0820   34.3150   43.8150 H   0  0  0  0  0  0  0  0  0  0  0  0
   40.0530   33.3690   45.5220 N   0  0  0  0  0  0  0  0  0  0  0  0
  1  2  1  0  0  0  0
  2  3  2  0  0  0  0
  2  7  1  0  0  0  0
  3  8  1  0  0  0  0
  4 19  1  0  0  0  0
  4  3  1  0  0  0  0
  5  4  2  0  0  0  0
  6  5  1  0  0  0  0
  6  1  2  0  0  0  0
  9  5  1  0  0  0  0
 10 16  1  0  0  0  0
 11  1  1  0  0  0  0
 11 10  2  0  0  0  0
 12 11  1  0  0  0  0
 13 12  2  0  0  0  0
 13 14  1  0  0  0  0
 14 15  2  0  0  0  0
 15 10  1  0  0  0  0
 17 12  1  0  0  0  0
 18 14  1  0  0  0  0
 20 21  1  0  0  0  0
 20 19  1  0  0  0  0
 21 25  1  0  0  0  0
 22 26  1  0  0  0  0
 22 21  2  0  0  0  0
 23 24  1  0  0  0  0
 23 22  1  0  0  0  0
 24 20  2  0  0  0  0
 27 23  1  0  0  0  0
 28 27  2  0  0  0  0
 29 28  1  0  0  0  0
 30 32  1  0  0  0  0
 30 28  1  0  0  0  0
 31 30  1  0  0  0  0
 32 34  2  0  0  0  0
 33 32  1  0  0  0  0
 34 27  1  0  0  0  0
M  END
>  <minimizedAffinity>
-5.67413425

>  <minimizedRMSD>
1.41686416

$$$$
