
 OpenBabel03272510303D

 27 29  0  0  0  0  0  0  0  0999 V2000
   37.2630   31.3430   49.2050 C   0  0  0  0  0  0  0  0  0  0  0  0
   37.5690   32.6010   49.7230 C   0  0  0  0  0  0  0  0  0  0  0  0
   38.5070   33.3310   49.0100 C   0  0  0  0  0  0  0  0  0  0  0  0
   39.0660   32.8080   47.8790 N   0  0  0  0  0  0  0  0  0  0  0  0
   38.7400   31.5720   47.4030 C   0  0  0  0  0  0  0  0  0  0  0  0
   37.8150   30.8280   48.0900 N   0  0  0  0  0  0  0  0  0  0  0  0
   37.1180   32.9910   50.6120 H   0  0  0  0  0  0  0  0  0  0  0  0
   38.8250   34.3030   49.3030 H   0  0  0  0  0  0  0  0  0  0  0  0
   36.2240   30.5280   49.9280 C   0  0  0  0  0  0  0  0  0  0  0  0
   36.1650   29.0900   49.8390 C   0  0  0  0  0  0  0  0  0  0  0  0
   36.8090   29.6880   51.0680 C   0  0  0  0  0  0  0  0  0  0  0  0
   35.2830   31.0840   50.2140 H   0  0  0  0  0  0  0  0  0  0  0  0
   35.2300   28.5380   49.9160 H   0  0  0  0  0  0  0  0  0  0  0  0
   36.8810   28.6040   49.1250 H   0  0  0  0  0  0  0  0  0  0  0  0
   37.8900   29.6820   51.2040 H   0  0  0  0  0  0  0  0  0  0  0  0
   36.1660   29.5900   51.9650 H   0  0  0  0  0  0  0  0  0  0  0  0
   39.3050   30.9730   46.1990 C   0  0  0  0  0  0  0  0  0  0  0  0
   40.3490   31.3830   46.0930 H   0  0  0  0  0  0  0  0  0  0  0  0
   39.4080   29.8970   46.3510 H   0  0  0  0  0  0  0  0  0  0  0  0
   38.5010   31.2810   44.9730 C   0  0  0  0  0  0  0  0  0  0  0  0
   37.9320   32.4490   44.5150 C   0  0  0  0  0  0  0  0  0  0  0  0
   38.0100   33.3850   45.0530 H   0  0  0  0  0  0  0  0  0  0  0  0
   37.3260   32.1250   43.3490 N   0  0  0  0  0  0  0  0  0  0  0  0
   36.8010   32.8270   42.7670 H   0  0  0  0  0  0  0  0  0  0  0  0
   37.4890   30.8290   43.0640 C   0  0  0  0  0  0  0  0  0  0  0  0
   37.1240   30.2900   42.2120 H   0  0  0  0  0  0  0  0  0  0  0  0
   38.2230   30.3060   44.0790 N   0  0  0  0  0  0  0  0  0  0  0  0
  1  2  1  0  0  0  0
  1  9  1  0  0  0  0
  2  7  1  0  0  0  0
  3  8  1  0  0  0  0
  3  2  2  0  0  0  0
  4  3  1  0  0  0  0
  5  4  2  0  0  0  0
  5  6  1  0  0  0  0
  6  1  2  0  0  0  0
  9 12  1  0  0  0  0
  9 11  1  0  0  0  0
 10 13  1  0  0  0  0
 10  9  1  0  0  0  0
 10 11  1  0  0  0  0
 11 15  1  0  0  0  0
 11 16  1  0  0  0  0
 14 10  1  0  0  0  0
 17 19  1  0  0  0  0
 17  5  1  0  0  0  0
 18 17  1  0  0  0  0
 20 17  1  0  0  0  0
 21 20  2  0  0  0  0
 21 22  1  0  0  0  0
 23 21  1  0  0  0  0
 24 23  1  0  0  0  0
 25 23  1  0  0  0  0
 25 27  2  0  0  0  0
 26 25  1  0  0  0  0
 27 20  1  0  0  0  0
M  END
>  <minimizedAffinity>
-5.00209904

>  <minimizedRMSD>
0.310126424

$$$$
