
 OpenBabel03272510123D

 34 37  0  0  0  0  0  0  0  0999 V2000
   34.0030   28.4220   48.7110 C   0  0  0  0  0  0  0  0  0  0  0  0
   34.8450   28.2680   49.7550 C   0  0  0  0  0  0  0  0  0  0  0  0
   35.7430   29.2140   50.1940 C   0  0  0  0  0  0  0  0  0  0  0  0
   35.8230   30.4200   49.5530 C   0  0  0  0  0  0  0  0  0  0  0  0
   34.9550   30.5840   48.4730 C   0  0  0  0  0  0  0  0  0  0  0  0
   34.0970   29.6290   48.0830 N   0  0  0  0  0  0  0  0  0  0  0  0
   34.8530   27.3490   50.3230 H   0  0  0  0  0  0  0  0  0  0  0  0
   36.4130   29.0780   51.0350 H   0  0  0  0  0  0  0  0  0  0  0  0
   34.9780   31.5280   47.9240 H   0  0  0  0  0  0  0  0  0  0  0  0
   31.6880   27.4550   48.5440 C   0  0  0  0  0  0  0  0  0  0  0  0
   33.0720   27.4330   48.2600 C   0  0  0  0  0  0  0  0  0  0  0  0
   33.5110   26.3720   47.4960 C   0  0  0  0  0  0  0  0  0  0  0  0
   32.6340   25.4200   47.0590 N   0  0  0  0  0  0  0  0  0  0  0  0
   31.3250   25.5010   47.3660 C   0  0  0  0  0  0  0  0  0  0  0  0
   30.8450   26.5090   48.1040 N   0  0  0  0  0  0  0  0  0  0  0  0
   31.3140   28.2740   49.1400 H   0  0  0  0  0  0  0  0  0  0  0  0
   34.5700   26.3280   47.2620 H   0  0  0  0  0  0  0  0  0  0  0  0
   30.7970   24.6570   46.9300 H   0  0  0  0  0  0  0  0  0  0  0  0
   36.6710   31.4830   49.8630 O   0  0  0  0  0  0  0  0  0  0  0  0
   37.5790   31.9740   48.9290 C   0  0  0  0  0  0  0  0  0  0  0  0
   38.3510   33.0480   49.3960 C   0  0  0  0  0  0  0  0  0  0  0  0
   39.2090   33.4440   48.3860 C   0  0  0  0  0  0  0  0  0  0  0  0
   38.9410   32.6210   47.3620 N   0  0  0  0  0  0  0  0  0  0  0  0
   37.9970   31.7640   47.6670 N   0  0  0  0  0  0  0  0  0  0  0  0
   38.4060   33.6030   50.3480 H   0  0  0  0  0  0  0  0  0  0  0  0
   39.9650   34.1970   48.2690 H   0  0  0  0  0  0  0  0  0  0  0  0
   39.5340   32.5800   46.0600 C   0  0  0  0  0  0  0  0  0  0  0  0
   40.7720   32.4090   45.4870 C   0  0  0  0  0  0  0  0  0  0  0  0
   41.5870   32.2540   46.1860 H   0  0  0  0  0  0  0  0  0  0  0  0
   40.5980   32.4890   44.1640 N   0  0  0  0  0  0  0  0  0  0  0  0
   41.4280   32.3830   43.5450 H   0  0  0  0  0  0  0  0  0  0  0  0
   39.3030   32.7020   43.8780 C   0  0  0  0  0  0  0  0  0  0  0  0
   38.9110   32.8050   42.8540 H   0  0  0  0  0  0  0  0  0  0  0  0
   38.6380   32.7600   45.0440 N   0  0  0  0  0  0  0  0  0  0  0  0
  1  2  1  0  0  0  0
  2  3  2  0  0  0  0
  2  7  1  0  0  0  0
  3  8  1  0  0  0  0
  4 19  1  0  0  0  0
  4  3  1  0  0  0  0
  5  4  2  0  0  0  0
  6  5  1  0  0  0  0
  6  1  2  0  0  0  0
  9  5  1  0  0  0  0
 10 16  1  0  0  0  0
 11 10  1  0  0  0  0
 11  1  1  0  0  0  0
 12 11  2  0  0  0  0
 13 14  2  0  0  0  0
 13 12  1  0  0  0  0
 14 15  1  0  0  0  0
 15 10  2  0  0  0  0
 17 12  1  0  0  0  0
 18 14  1  0  0  0  0
 20 21  1  0  0  0  0
 20 19  1  0  0  0  0
 21 25  1  0  0  0  0
 22 21  2  0  0  0  0
 23 24  1  0  0  0  0
 23 22  1  0  0  0  0
 24 20  2  0  0  0  0
 26 22  1  0  0  0  0
 27 23  1  0  0  0  0
 28 27  2  0  0  0  0
 28 29  1  0  0  0  0
 30 28  1  0  0  0  0
 31 30  1  0  0  0  0
 32 30  1  0  0  0  0
 32 34  2  0  0  0  0
 33 32  1  0  0  0  0
 34 27  1  0  0  0  0
M  END
>  <minimizedAffinity>
-6.14849234

>  <minimizedRMSD>
1.77912068

$$$$
