
 OpenBabel03272504203D

 26 27  0  0  0  0  0  0  0  0999 V2000
   36.2880   31.5780   49.2800 O   0  0  0  0  0  0  0  0  0  0  0  0
   36.9210   31.3960   50.4820 C   0  0  0  0  0  0  0  0  0  0  0  0
   36.8430   32.3550   51.0720 H   0  0  0  0  0  0  0  0  0  0  0  0
   38.0140   31.2110   50.4010 H   0  0  0  0  0  0  0  0  0  0  0  0
   36.3820   30.2540   51.2620 C   0  0  0  0  0  0  0  0  0  0  0  0
   35.3510   29.5180   50.6860 C   0  0  0  0  0  0  0  0  0  0  0  0
   34.8320   28.4360   51.4150 C   0  0  0  0  0  0  0  0  0  0  0  0
   35.3700   28.1780   52.6340 N   0  0  0  0  0  0  0  0  0  0  0  0
   36.3610   28.9020   53.1680 C   0  0  0  0  0  0  0  0  0  0  0  0
   36.8610   29.9340   52.4800 N   0  0  0  0  0  0  0  0  0  0  0  0
   34.9090   29.7080   49.7140 H   0  0  0  0  0  0  0  0  0  0  0  0
   34.0340   27.8220   51.0280 H   0  0  0  0  0  0  0  0  0  0  0  0
   36.7870   28.6930   54.1410 H   0  0  0  0  0  0  0  0  0  0  0  0
   38.6700   30.7360   48.5620 O   0  0  0  0  0  0  0  0  0  0  0  0
   37.4510   31.4630   48.0580 P   0  0  2  0  0  0  0  0  0  0  0  0
   37.9510   33.0330   47.6000 O   0  0  0  0  0  0  0  0  0  0  0  0
   37.2000   33.4120   47.0780 H   0  0  0  0  0  0  0  0  0  0  0  0
   36.8330   30.6400   46.7120 O   0  0  0  0  0  0  0  0  0  0  0  0
   35.5050   30.8320   46.3300 C   0  0  0  0  0  0  0  0  0  0  0  0
   35.1650   31.5270   45.1860 C   0  0  0  0  0  0  0  0  0  0  0  0
   35.7650   32.0260   44.4150 H   0  0  0  0  0  0  0  0  0  0  0  0
   33.8160   31.5640   45.0510 N   0  0  0  0  0  0  0  0  0  0  0  0
   33.1550   31.9720   44.3550 H   0  0  0  0  0  0  0  0  0  0  0  0
   33.3090   30.8880   46.1140 C   0  0  0  0  0  0  0  0  0  0  0  0
   32.3030   30.6310   46.4720 H   0  0  0  0  0  0  0  0  0  0  0  0
   34.3320   30.4600   46.8620 N   0  0  0  0  0  0  0  0  0  0  0  0
  1  2  1  0  0  0  0
  2  3  1  0  0  0  0
  2  5  1  0  0  0  0
  4  2  1  0  0  0  0
  5 10  1  0  0  0  0
  6  5  2  0  0  0  0
  6  7  1  0  0  0  0
  7  8  2  0  0  0  0
  8  9  1  0  0  0  0
  9 13  1  0  0  0  0
 10  9  2  0  0  0  0
 11  6  1  0  0  0  0
 12  7  1  0  0  0  0
 15 14  2  1  0  0  0
 15  1  1  0  0  0  0
 16 15  1  0  0  0  0
 17 16  1  0  0  0  0
 18 15  1  0  0  0  0
 19 18  1  0  0  0  0
 19 26  1  0  0  0  0
 20 19  2  0  0  0  0
 21 20  1  0  0  0  0
 22 20  1  0  0  0  0
 22 24  1  0  0  0  0
 23 22  1  0  0  0  0
 24 25  1  0  0  0  0
 24 26  2  0  0  0  0
M  END
>  <minimizedAffinity>
6.62148046

>  <minimizedRMSD>
5.18953419

$$$$
