
 OpenBabel03272504203D

 26 27  0  0  0  0  0  0  0  0999 V2000
   36.9950   26.9740   34.3970 O   0  0  0  0  0  0  0  0  0  0  0  0
   37.4090   26.8580   33.0960 C   0  0  0  0  0  0  0  0  0  0  0  0
   38.5280   26.7080   33.0920 H   0  0  0  0  0  0  0  0  0  0  0  0
   37.2520   27.7700   32.4810 H   0  0  0  0  0  0  0  0  0  0  0  0
   36.7290   25.7620   32.3600 C   0  0  0  0  0  0  0  0  0  0  0  0
   35.6810   26.1140   31.5170 C   0  0  0  0  0  0  0  0  0  0  0  0
   35.0290   25.0860   30.8160 C   0  0  0  0  0  0  0  0  0  0  0  0
   35.4650   23.8150   31.0070 N   0  0  0  0  0  0  0  0  0  0  0  0
   36.4770   23.5010   31.8260 C   0  0  0  0  0  0  0  0  0  0  0  0
   37.1020   24.4740   32.4970 N   0  0  0  0  0  0  0  0  0  0  0  0
   35.3180   27.1230   31.3500 H   0  0  0  0  0  0  0  0  0  0  0  0
   34.2100   25.2880   30.1440 H   0  0  0  0  0  0  0  0  0  0  0  0
   36.8210   22.4850   31.9760 H   0  0  0  0  0  0  0  0  0  0  0  0
   38.7440   27.2940   36.3310 O   0  0  0  0  0  0  0  0  0  0  0  0
   38.1760   26.2710   35.3820 P   0  0  2  0  0  0  0  0  0  0  0  0
   39.4660   25.7100   34.4090 O   0  0  0  0  0  0  0  0  0  0  0  0
   39.1260   24.8990   33.9550 H   0  0  0  0  0  0  0  0  0  0  0  0
   37.5280   24.9860   36.2760 O   0  0  0  0  0  0  0  0  0  0  0  0
   38.3780   24.1040   36.9430 C   0  0  0  0  0  0  0  0  0  0  0  0
   38.1620   23.7260   38.2530 C   0  0  0  0  0  0  0  0  0  0  0  0
   37.3830   23.9870   38.9820 H   0  0  0  0  0  0  0  0  0  0  0  0
   39.1320   22.8680   38.6540 N   0  0  0  0  0  0  0  0  0  0  0  0
   39.3460   22.3550   39.5370 H   0  0  0  0  0  0  0  0  0  0  0  0
   39.9610   22.7060   37.5900 C   0  0  0  0  0  0  0  0  0  0  0  0
   40.8750   22.1330   37.3880 H   0  0  0  0  0  0  0  0  0  0  0  0
   39.4940   23.4520   36.5820 N   0  0  0  0  0  0  0  0  0  0  0  0
  1 15  1  0  0  0  0
  2  1  1  0  0  0  0
  3  2  1  0  0  0  0
  4  2  1  0  0  0  0
  5 10  1  0  0  0  0
  5  2  1  0  0  0  0
  6  5  2  0  0  0  0
  7  8  2  0  0  0  0
  7  6  1  0  0  0  0
  8  9  1  0  0  0  0
  9 13  1  0  0  0  0
  9 10  2  0  0  0  0
 11  6  1  0  0  0  0
 12  7  1  0  0  0  0
 15 18  1  0  0  0  0
 15 14  2  1  0  0  0
 16 15  1  0  0  0  0
 17 16  1  0  0  0  0
 18 19  1  0  0  0  0
 19 20  2  0  0  0  0
 20 22  1  0  0  0  0
 20 21  1  0  0  0  0
 22 23  1  0  0  0  0
 24 22  1  0  0  0  0
 25 24  1  0  0  0  0
 26 19  1  0  0  0  0
 26 24  2  0  0  0  0
M  END
>  <minimizedAffinity>
-4.60948944

$$$$

 OpenBabel03272504203D

 26 27  0  0  0  0  0  0  0  0999 V2000
   37.6080   26.7570   33.9750 O   0  0  0  0  0  0  0  0  0  0  0  0
   38.1330   26.1030   32.8910 C   0  0  0  0  0  0  0  0  0  0  0  0
   39.0870   25.5920   33.2130 H   0  0  0  0  0  0  0  0  0  0  0  0
   38.4450   26.7710   32.0600 H   0  0  0  0  0  0  0  0  0  0  0  0
   37.1930   25.1260   32.2840 C   0  0  0  0  0  0  0  0  0  0  0  0
   37.5500   23.7830   32.3340 C   0  0  0  0  0  0  0  0  0  0  0  0
   36.6700   22.8490   31.7620 C   0  0  0  0  0  0  0  0  0  0  0  0
   35.5280   23.3190   31.1980 N   0  0  0  0  0  0  0  0  0  0  0  0
   35.2070   24.6180   31.1620 C   0  0  0  0  0  0  0  0  0  0  0  0
   36.0400   25.5140   31.7040 N   0  0  0  0  0  0  0  0  0  0  0  0
   38.4570   23.3880   32.7800 H   0  0  0  0  0  0  0  0  0  0  0  0
   36.8830   21.7920   31.7670 H   0  0  0  0  0  0  0  0  0  0  0  0
   34.2960   24.9890   30.7100 H   0  0  0  0  0  0  0  0  0  0  0  0
   38.5150   27.3720   36.3630 O   0  0  0  0  0  0  0  0  0  0  0  0
   38.4680   26.2630   35.3450 P   0  0  2  0  0  0  0  0  0  0  0  0
   40.0830   25.9090   34.9050 O   0  0  0  0  0  0  0  0  0  0  0  0
   40.0450   25.0500   34.4150 H   0  0  0  0  0  0  0  0  0  0  0  0
   37.7510   24.8970   36.0480 O   0  0  0  0  0  0  0  0  0  0  0  0
   38.5170   24.0350   36.8320 C   0  0  0  0  0  0  0  0  0  0  0  0
   38.1760   23.7330   38.1360 C   0  0  0  0  0  0  0  0  0  0  0  0
   37.3440   24.0480   38.7780 H   0  0  0  0  0  0  0  0  0  0  0  0
   39.0860   22.8780   38.6650 N   0  0  0  0  0  0  0  0  0  0  0  0
   39.2080   22.4080   39.5890 H   0  0  0  0  0  0  0  0  0  0  0  0
   40.0000   22.6420   37.6890 C   0  0  0  0  0  0  0  0  0  0  0  0
   40.9140   22.0400   37.5990 H   0  0  0  0  0  0  0  0  0  0  0  0
   39.6420   23.3420   36.6060 N   0  0  0  0  0  0  0  0  0  0  0  0
  1 15  1  0  0  0  0
  2  3  1  0  0  0  0
  2  1  1  0  0  0  0
  4  2  1  0  0  0  0
  5  6  1  0  0  0  0
  5  2  1  0  0  0  0
  6 11  1  0  0  0  0
  7 12  1  0  0  0  0
  7  6  2  0  0  0  0
  8  7  1  0  0  0  0
  9  8  2  0  0  0  0
  9 10  1  0  0  0  0
 10  5  2  0  0  0  0
 13  9  1  0  0  0  0
 15 18  1  0  0  0  0
 15 14  2  1  0  0  0
 16 15  1  0  0  0  0
 17 16  1  0  0  0  0
 18 19  1  0  0  0  0
 19 20  2  0  0  0  0
 20 22  1  0  0  0  0
 20 21  1  0  0  0  0
 22 23  1  0  0  0  0
 24 22  1  0  0  0  0
 25 24  1  0  0  0  0
 26 19  1  0  0  0  0
 26 24  2  0  0  0  0
M  END
>  <minimizedAffinity>
-4.42857504

$$$$

 OpenBabel03272504203D

 26 27  0  0  0  0  0  0  0  0999 V2000
   37.5100   26.1520   33.7760 O   0  0  0  0  0  0  0  0  0  0  0  0
   38.1820   27.0110   32.9460 C   0  0  0  0  0  0  0  0  0  0  0  0
   38.7710   26.3990   32.2030 H   0  0  0  0  0  0  0  0  0  0  0  0
   38.9470   27.6360   33.4550 H   0  0  0  0  0  0  0  0  0  0  0  0
   37.2890   27.9690   32.2470 C   0  0  0  0  0  0  0  0  0  0  0  0
   36.1290   28.3600   32.9090 C   0  0  0  0  0  0  0  0  0  0  0  0
   35.2760   29.2660   32.2580 C   0  0  0  0  0  0  0  0  0  0  0  0
   35.6390   29.7010   31.0240 N   0  0  0  0  0  0  0  0  0  0  0  0
   36.7600   29.3090   30.4060 C   0  0  0  0  0  0  0  0  0  0  0  0
   37.5770   28.4470   31.0200 N   0  0  0  0  0  0  0  0  0  0  0  0
   35.8230   28.0240   33.8940 H   0  0  0  0  0  0  0  0  0  0  0  0
   34.3620   29.6120   32.7130 H   0  0  0  0  0  0  0  0  0  0  0  0
   37.0450   29.6580   29.4220 H   0  0  0  0  0  0  0  0  0  0  0  0
   38.2250   27.4950   35.9170 O   0  0  0  0  0  0  0  0  0  0  0  0
   38.3080   26.1390   35.2670 P   0  0  2  0  0  0  0  0  0  0  0  0
   39.9660   25.7960   35.0200 O   0  0  0  0  0  0  0  0  0  0  0  0
   40.0100   24.8320   34.8010 H   0  0  0  0  0  0  0  0  0  0  0  0
   37.6300   24.9850   36.3050 O   0  0  0  0  0  0  0  0  0  0  0  0
   38.4540   24.0780   36.9700 C   0  0  0  0  0  0  0  0  0  0  0  0
   38.1970   23.6650   38.2620 C   0  0  0  0  0  0  0  0  0  0  0  0
   37.4010   23.9110   38.9750 H   0  0  0  0  0  0  0  0  0  0  0  0
   39.1500   22.7870   38.6650 N   0  0  0  0  0  0  0  0  0  0  0  0
   39.3340   22.2480   39.5380 H   0  0  0  0  0  0  0  0  0  0  0  0
   40.0070   22.6490   37.6210 C   0  0  0  0  0  0  0  0  0  0  0  0
   40.9230   22.0740   37.4290 H   0  0  0  0  0  0  0  0  0  0  0  0
   39.5740   23.4270   36.6220 N   0  0  0  0  0  0  0  0  0  0  0  0
  1 15  1  0  0  0  0
  2  4  1  0  0  0  0
  2  1  1  0  0  0  0
  3  2  1  0  0  0  0
  5  6  1  0  0  0  0
  5  2  1  0  0  0  0
  6 11  1  0  0  0  0
  7 12  1  0  0  0  0
  7  6  2  0  0  0  0
  8  7  1  0  0  0  0
  9 10  1  0  0  0  0
  9  8  2  0  0  0  0
 10  5  2  0  0  0  0
 13  9  1  0  0  0  0
 15 14  2  1  0  0  0
 15 18  1  0  0  0  0
 16 15  1  0  0  0  0
 17 16  1  0  0  0  0
 18 19  1  0  0  0  0
 19 20  2  0  0  0  0
 20 22  1  0  0  0  0
 20 21  1  0  0  0  0
 22 23  1  0  0  0  0
 24 22  1  0  0  0  0
 25 24  1  0  0  0  0
 26 19  1  0  0  0  0
 26 24  2  0  0  0  0
M  END
>  <minimizedAffinity>
-4.41732645

$$$$

 OpenBabel03272504203D

 26 27  0  0  0  0  0  0  0  0999 V2000
   37.3240   26.6040   33.9290 O   0  0  0  0  0  0  0  0  0  0  0  0
   36.6860   27.7380   34.3590 C   0  0  0  0  0  0  0  0  0  0  0  0
   37.4030   28.3270   35.0020 H   0  0  0  0  0  0  0  0  0  0  0  0
   35.8130   27.5510   35.0210 H   0  0  0  0  0  0  0  0  0  0  0  0
   36.1680   28.5770   33.2480 C   0  0  0  0  0  0  0  0  0  0  0  0
   36.8820   28.5650   32.0540 C   0  0  0  0  0  0  0  0  0  0  0  0
   36.4020   29.3540   30.9960 C   0  0  0  0  0  0  0  0  0  0  0  0
   35.2730   30.0780   31.2080 N   0  0  0  0  0  0  0  0  0  0  0  0
   34.6040   30.0730   32.3670 C   0  0  0  0  0  0  0  0  0  0  0  0
   35.0550   29.3240   33.3800 N   0  0  0  0  0  0  0  0  0  0  0  0
   37.7850   27.9940   31.8660 H   0  0  0  0  0  0  0  0  0  0  0  0
   36.9050   29.3920   30.0430 H   0  0  0  0  0  0  0  0  0  0  0  0
   33.7040   30.6520   32.5320 H   0  0  0  0  0  0  0  0  0  0  0  0
   38.8400   27.3000   35.9590 O   0  0  0  0  0  0  0  0  0  0  0  0
   38.3870   26.1130   35.1500 P   0  0  2  0  0  0  0  0  0  0  0  0
   39.7810   25.4180   34.4430 O   0  0  0  0  0  0  0  0  0  0  0  0
   39.4980   24.5330   34.1050 H   0  0  0  0  0  0  0  0  0  0  0  0
   37.6440   24.9920   36.1800 O   0  0  0  0  0  0  0  0  0  0  0  0
   38.4240   24.1000   36.9160 C   0  0  0  0  0  0  0  0  0  0  0  0
   38.0540   23.6670   38.1730 C   0  0  0  0  0  0  0  0  0  0  0  0
   37.1840   23.8840   38.8070 H   0  0  0  0  0  0  0  0  0  0  0  0
   38.9860   22.8120   38.6620 N   0  0  0  0  0  0  0  0  0  0  0  0
   39.0990   22.2680   39.5450 H   0  0  0  0  0  0  0  0  0  0  0  0
   39.9450   22.7070   37.7060 C   0  0  0  0  0  0  0  0  0  0  0  0
   40.8910   22.1590   37.6000 H   0  0  0  0  0  0  0  0  0  0  0  0
   39.5910   23.4830   36.6750 N   0  0  0  0  0  0  0  0  0  0  0  0
  1  2  1  0  0  0  0
  1 15  1  0  0  0  0
  2  3  1  0  0  0  0
  2  4  1  0  0  0  0
  5 10  1  0  0  0  0
  5  2  1  0  0  0  0
  6  5  2  0  0  0  0
  7  8  2  0  0  0  0
  7  6  1  0  0  0  0
  8  9  1  0  0  0  0
  9 13  1  0  0  0  0
  9 10  2  0  0  0  0
 11  6  1  0  0  0  0
 12  7  1  0  0  0  0
 15 14  2  1  0  0  0
 15 18  1  0  0  0  0
 16 15  1  0  0  0  0
 17 16  1  0  0  0  0
 18 19  1  0  0  0  0
 19 20  2  0  0  0  0
 20 22  1  0  0  0  0
 20 21  1  0  0  0  0
 22 23  1  0  0  0  0
 24 22  1  0  0  0  0
 25 24  1  0  0  0  0
 26 19  1  0  0  0  0
 26 24  2  0  0  0  0
M  END
>  <minimizedAffinity>
-4.41413403

$$$$

 OpenBabel03272504203D

 26 27  0  0  0  0  0  0  0  0999 V2000
   38.9000   27.1780   33.6160 O   0  0  0  0  0  0  0  0  0  0  0  0
   37.9830   27.4090   32.6240 C   0  0  0  0  0  0  0  0  0  0  0  0
   38.4340   28.1340   31.8850 H   0  0  0  0  0  0  0  0  0  0  0  0
   37.0520   27.9090   32.9670 H   0  0  0  0  0  0  0  0  0  0  0  0
   37.5380   26.1690   31.9380 C   0  0  0  0  0  0  0  0  0  0  0  0
   38.5080   25.4200   31.2810 C   0  0  0  0  0  0  0  0  0  0  0  0
   38.0990   24.2460   30.6280 C   0  0  0  0  0  0  0  0  0  0  0  0
   36.7830   23.9190   30.6800 N   0  0  0  0  0  0  0  0  0  0  0  0
   35.8670   24.6570   31.3180 C   0  0  0  0  0  0  0  0  0  0  0  0
   36.2490   25.7770   31.9430 N   0  0  0  0  0  0  0  0  0  0  0  0
   39.5640   25.6640   31.2280 H   0  0  0  0  0  0  0  0  0  0  0  0
   38.7980   23.6170   30.1000 H   0  0  0  0  0  0  0  0  0  0  0  0
   34.8180   24.3930   31.3570 H   0  0  0  0  0  0  0  0  0  0  0  0
   36.6860   27.4220   35.0090 O   0  0  0  0  0  0  0  0  0  0  0  0
   38.0520   26.7870   35.0260 P   0  0  2  0  0  0  0  0  0  0  0  0
   38.8850   27.4120   36.3820 O   0  0  0  0  0  0  0  0  0  0  0  0
   39.6780   26.8310   36.5000 H   0  0  0  0  0  0  0  0  0  0  0  0
   37.8790   25.1080   35.1790 O   0  0  0  0  0  0  0  0  0  0  0  0
   38.1210   24.4930   36.4070 C   0  0  0  0  0  0  0  0  0  0  0  0
   38.7340   23.2600   36.5010 C   0  0  0  0  0  0  0  0  0  0  0  0
   39.1240   22.5650   35.7470 H   0  0  0  0  0  0  0  0  0  0  0  0
   38.8450   22.8970   37.8030 N   0  0  0  0  0  0  0  0  0  0  0  0
   39.2320   22.0700   38.3090 H   0  0  0  0  0  0  0  0  0  0  0  0
   38.2990   23.9070   38.5290 C   0  0  0  0  0  0  0  0  0  0  0  0
   38.1400   24.1090   39.5960 H   0  0  0  0  0  0  0  0  0  0  0  0
   37.8740   24.8480   37.6770 N   0  0  0  0  0  0  0  0  0  0  0  0
  1 15  1  0  0  0  0
  2  4  1  0  0  0  0
  2  1  1  0  0  0  0
  3  2  1  0  0  0  0
  5 10  1  0  0  0  0
  5  2  1  0  0  0  0
  6  5  2  0  0  0  0
  7  8  2  0  0  0  0
  7  6  1  0  0  0  0
  8  9  1  0  0  0  0
  9 13  1  0  0  0  0
  9 10  2  0  0  0  0
 11  6  1  0  0  0  0
 12  7  1  0  0  0  0
 15 14  2  6  0  0  0
 15 18  1  0  0  0  0
 15 16  1  0  0  0  0
 16 17  1  0  0  0  0
 18 19  1  0  0  0  0
 19 20  2  0  0  0  0
 19 26  1  0  0  0  0
 20 22  1  0  0  0  0
 21 20  1  0  0  0  0
 22 23  1  0  0  0  0
 22 24  1  0  0  0  0
 24 25  1  0  0  0  0
 26 24  2  0  0  0  0
M  END
>  <minimizedAffinity>
-4.27717733

$$$$

 OpenBabel03272504203D

 26 27  0  0  0  0  0  0  0  0999 V2000
   37.9730   22.1340   35.9420 O   0  0  0  0  0  0  0  0  0  0  0  0
   38.4360   22.0120   34.6580 C   0  0  0  0  0  0  0  0  0  0  0  0
   39.0620   21.0750   34.5950 H   0  0  0  0  0  0  0  0  0  0  0  0
   39.1240   22.8240   34.3390 H   0  0  0  0  0  0  0  0  0  0  0  0
   37.3520   21.9880   33.6440 C   0  0  0  0  0  0  0  0  0  0  0  0
   36.3410   21.0470   33.8120 C   0  0  0  0  0  0  0  0  0  0  0  0
   35.3110   21.0150   32.8580 C   0  0  0  0  0  0  0  0  0  0  0  0
   35.3680   21.9040   31.8340 N   0  0  0  0  0  0  0  0  0  0  0  0
   36.3520   22.8010   31.6940 C   0  0  0  0  0  0  0  0  0  0  0  0
   37.3380   22.8370   32.5980 N   0  0  0  0  0  0  0  0  0  0  0  0
   36.2780   20.3290   34.6230 H   0  0  0  0  0  0  0  0  0  0  0  0
   34.4950   20.3130   32.9270 H   0  0  0  0  0  0  0  0  0  0  0  0
   36.3940   23.5080   30.8750 H   0  0  0  0  0  0  0  0  0  0  0  0
   40.2290   23.4790   35.9410 O   0  0  0  0  0  0  0  0  0  0  0  0
   39.0020   23.1950   36.7660 P   0  0  2  0  0  0  0  0  0  0  0  0
   39.5270   22.4620   38.2200 O   0  0  0  0  0  0  0  0  0  0  0  0
   38.7460   22.4840   38.8280 H   0  0  0  0  0  0  0  0  0  0  0  0
   38.2140   24.6550   37.1080 O   0  0  0  0  0  0  0  0  0  0  0  0
   38.0570   25.6130   36.1060 C   0  0  0  0  0  0  0  0  0  0  0  0
   38.4010   26.9360   36.2970 C   0  0  0  0  0  0  0  0  0  0  0  0
   38.8200   27.4780   37.1540 H   0  0  0  0  0  0  0  0  0  0  0  0
   38.1470   27.6470   35.1700 N   0  0  0  0  0  0  0  0  0  0  0  0
   38.2550   28.6450   34.8860 H   0  0  0  0  0  0  0  0  0  0  0  0
   37.6420   26.7650   34.2690 C   0  0  0  0  0  0  0  0  0  0  0  0
   37.2840   26.8210   33.2320 H   0  0  0  0  0  0  0  0  0  0  0  0
   37.5970   25.5590   34.8470 N   0  0  0  0  0  0  0  0  0  0  0  0
  1 15  1  0  0  0  0
  2  1  1  0  0  0  0
  3  2  1  0  0  0  0
  4  2  1  0  0  0  0
  5  6  1  0  0  0  0
  5  2  1  0  0  0  0
  6 11  1  0  0  0  0
  7 12  1  0  0  0  0
  7  6  2  0  0  0  0
  8  7  1  0  0  0  0
  9  8  2  0  0  0  0
  9 10  1  0  0  0  0
 10  5  2  0  0  0  0
 13  9  1  0  0  0  0
 15 14  2  6  0  0  0
 15 18  1  0  0  0  0
 15 16  1  0  0  0  0
 16 17  1  0  0  0  0
 19 20  2  0  0  0  0
 19 18  1  0  0  0  0
 20 21  1  0  0  0  0
 22 20  1  0  0  0  0
 23 22  1  0  0  0  0
 24 26  2  0  0  0  0
 24 22  1  0  0  0  0
 25 24  1  0  0  0  0
 26 19  1  0  0  0  0
M  END
>  <minimizedAffinity>
-4.25722218

$$$$

 OpenBabel03272504203D

 26 27  0  0  0  0  0  0  0  0999 V2000
   38.8050   27.2460   33.4300 O   0  0  0  0  0  0  0  0  0  0  0  0
   37.7170   27.5580   32.6570 C   0  0  0  0  0  0  0  0  0  0  0  0
   37.1810   28.4280   33.1350 H   0  0  0  0  0  0  0  0  0  0  0  0
   36.9480   26.7570   32.6020 H   0  0  0  0  0  0  0  0  0  0  0  0
   38.0690   27.8670   31.2480 C   0  0  0  0  0  0  0  0  0  0  0  0
   37.0970   28.4860   30.4690 C   0  0  0  0  0  0  0  0  0  0  0  0
   37.4170   28.7830   29.1340 C   0  0  0  0  0  0  0  0  0  0  0  0
   38.6540   28.4450   28.6900 N   0  0  0  0  0  0  0  0  0  0  0  0
   39.5730   27.8480   29.4590 C   0  0  0  0  0  0  0  0  0  0  0  0
   39.2760   27.5620   30.7310 N   0  0  0  0  0  0  0  0  0  0  0  0
   36.1030   28.7640   30.8050 H   0  0  0  0  0  0  0  0  0  0  0  0
   36.7120   29.2640   28.4750 H   0  0  0  0  0  0  0  0  0  0  0  0
   40.5590   27.5800   29.1010 H   0  0  0  0  0  0  0  0  0  0  0  0
   36.7450   26.8050   34.9980 O   0  0  0  0  0  0  0  0  0  0  0  0
   38.2380   26.6350   34.9010 P   0  0  2  0  0  0  0  0  0  0  0  0
   38.9330   27.5200   36.1900 O   0  0  0  0  0  0  0  0  0  0  0  0
   39.8760   27.2230   36.2400 H   0  0  0  0  0  0  0  0  0  0  0  0
   38.6200   24.9920   35.0590 O   0  0  0  0  0  0  0  0  0  0  0  0
   38.5770   24.3850   36.3150 C   0  0  0  0  0  0  0  0  0  0  0  0
   39.2160   23.1890   36.5730 C   0  0  0  0  0  0  0  0  0  0  0  0
   39.8220   22.5210   35.9480 H   0  0  0  0  0  0  0  0  0  0  0  0
   39.0140   22.8260   37.8640 N   0  0  0  0  0  0  0  0  0  0  0  0
   39.3060   22.0200   38.4590 H   0  0  0  0  0  0  0  0  0  0  0  0
   38.2460   23.8000   38.4180 C   0  0  0  0  0  0  0  0  0  0  0  0
   37.8110   23.9860   39.4090 H   0  0  0  0  0  0  0  0  0  0  0  0
   37.9980   24.7190   37.4780 N   0  0  0  0  0  0  0  0  0  0  0  0
  1 15  1  0  0  0  0
  2  3  1  0  0  0  0
  2  1  1  0  0  0  0
  4  2  1  0  0  0  0
  5  2  1  0  0  0  0
  6 11  1  0  0  0  0
  6  5  2  0  0  0  0
  7  6  1  0  0  0  0
  8  7  2  0  0  0  0
  8  9  1  0  0  0  0
  9 10  2  0  0  0  0
 10  5  1  0  0  0  0
 12  7  1  0  0  0  0
 13  9  1  0  0  0  0
 15 14  2  1  0  0  0
 15 18  1  0  0  0  0
 15 16  1  0  0  0  0
 16 17  1  0  0  0  0
 18 19  1  0  0  0  0
 19 20  2  0  0  0  0
 19 26  1  0  0  0  0
 20 22  1  0  0  0  0
 21 20  1  0  0  0  0
 22 24  1  0  0  0  0
 22 23  1  0  0  0  0
 24 25  1  0  0  0  0
 26 24  2  0  0  0  0
M  END
>  <minimizedAffinity>
-4.25233936

$$$$

 OpenBabel03272504203D

 26 27  0  0  0  0  0  0  0  0999 V2000
   39.4450   27.0640   34.2700 O   0  0  0  0  0  0  0  0  0  0  0  0
   40.6440   26.6390   34.7790 C   0  0  0  0  0  0  0  0  0  0  0  0
   40.5720   25.5290   34.9750 H   0  0  0  0  0  0  0  0  0  0  0  0
   40.9030   27.0760   35.7680 H   0  0  0  0  0  0  0  0  0  0  0  0
   41.7970   26.9430   33.8960 C   0  0  0  0  0  0  0  0  0  0  0  0
   41.5320   27.6240   32.7120 C   0  0  0  0  0  0  0  0  0  0  0  0
   42.6140   27.9170   31.8670 C   0  0  0  0  0  0  0  0  0  0  0  0
   43.8500   27.5160   32.2610 N   0  0  0  0  0  0  0  0  0  0  0  0
   44.0810   26.8610   33.4050 C   0  0  0  0  0  0  0  0  0  0  0  0
   43.0550   26.5780   34.2150 N   0  0  0  0  0  0  0  0  0  0  0  0
   40.5520   27.9520   32.3800 H   0  0  0  0  0  0  0  0  0  0  0  0
   42.4810   28.4430   30.9350 H   0  0  0  0  0  0  0  0  0  0  0  0
   45.0680   26.5430   33.7150 H   0  0  0  0  0  0  0  0  0  0  0  0
   36.8650   26.8320   34.7100 O   0  0  0  0  0  0  0  0  0  0  0  0
   38.2160   26.4610   35.2630 P   0  0  2  0  0  0  0  0  0  0  0  0
   38.3400   27.1700   36.8150 O   0  0  0  0  0  0  0  0  0  0  0  0
   39.1230   26.7430   37.2430 H   0  0  0  0  0  0  0  0  0  0  0  0
   38.3180   24.7750   35.3910 O   0  0  0  0  0  0  0  0  0  0  0  0
   38.5120   24.1820   36.6390 C   0  0  0  0  0  0  0  0  0  0  0  0
   39.3560   23.1040   36.8160 C   0  0  0  0  0  0  0  0  0  0  0  0
   39.9870   22.5340   36.1220 H   0  0  0  0  0  0  0  0  0  0  0  0
   39.3590   22.7270   38.1180 N   0  0  0  0  0  0  0  0  0  0  0  0
   39.8390   21.9840   38.6710 H   0  0  0  0  0  0  0  0  0  0  0  0
   38.5130   23.5740   38.7620 C   0  0  0  0  0  0  0  0  0  0  0  0
   38.1670   23.6990   39.7960 H   0  0  0  0  0  0  0  0  0  0  0  0
   38.0200   24.4320   37.8620 N   0  0  0  0  0  0  0  0  0  0  0  0
  1  2  1  0  0  0  0
  1 15  1  0  0  0  0
  2  3  1  0  0  0  0
  2  4  1  0  0  0  0
  5 10  1  0  0  0  0
  5  2  1  0  0  0  0
  6  5  2  0  0  0  0
  7  8  2  0  0  0  0
  7  6  1  0  0  0  0
  8  9  1  0  0  0  0
  9 13  1  0  0  0  0
  9 10  2  0  0  0  0
 11  6  1  0  0  0  0
 12  7  1  0  0  0  0
 15 14  2  6  0  0  0
 15 18  1  0  0  0  0
 15 16  1  0  0  0  0
 16 17  1  0  0  0  0
 18 19  1  0  0  0  0
 19 20  2  0  0  0  0
 19 26  1  0  0  0  0
 20 22  1  0  0  0  0
 21 20  1  0  0  0  0
 22 23  1  0  0  0  0
 22 24  1  0  0  0  0
 24 25  1  0  0  0  0
 26 24  2  0  0  0  0
M  END
>  <minimizedAffinity>
-4.21450424

$$$$

 OpenBabel03272504203D

 26 27  0  0  0  0  0  0  0  0999 V2000
   39.2420   23.8280   32.7570 O   0  0  0  0  0  0  0  0  0  0  0  0
   37.9140   23.5570   32.9610 C   0  0  0  0  0  0  0  0  0  0  0  0
   37.7330   23.4880   34.0740 H   0  0  0  0  0  0  0  0  0  0  0  0
   37.5810   22.5730   32.5680 H   0  0  0  0  0  0  0  0  0  0  0  0
   37.0090   24.5590   32.3430 C   0  0  0  0  0  0  0  0  0  0  0  0
   35.9790   24.0790   31.5420 C   0  0  0  0  0  0  0  0  0  0  0  0
   35.1170   25.0170   30.9510 C   0  0  0  0  0  0  0  0  0  0  0  0
   35.3450   26.3310   31.2000 N   0  0  0  0  0  0  0  0  0  0  0  0
   36.3450   26.7690   31.9740 C   0  0  0  0  0  0  0  0  0  0  0  0
   37.1710   25.8820   32.5410 N   0  0  0  0  0  0  0  0  0  0  0  0
   35.7790   23.0330   31.3310 H   0  0  0  0  0  0  0  0  0  0  0  0
   34.2960   24.7150   30.3200 H   0  0  0  0  0  0  0  0  0  0  0  0
   36.5250   27.8190   32.1700 H   0  0  0  0  0  0  0  0  0  0  0  0
   39.7620   25.1450   34.9700 O   0  0  0  0  0  0  0  0  0  0  0  0
   40.0080   23.8370   34.2650 P   0  0  2  0  0  0  0  0  0  0  0  0
   41.6980   23.6890   34.0450 O   0  0  0  0  0  0  0  0  0  0  0  0
   41.8530   22.7470   33.7860 H   0  0  0  0  0  0  0  0  0  0  0  0
   39.4410   22.5690   35.2360 O   0  0  0  0  0  0  0  0  0  0  0  0
   39.0030   22.8300   36.5340 C   0  0  0  0  0  0  0  0  0  0  0  0
   39.8320   22.6900   37.6300 C   0  0  0  0  0  0  0  0  0  0  0  0
   40.8810   22.3850   37.7320 H   0  0  0  0  0  0  0  0  0  0  0  0
   39.1570   23.0040   38.7630 N   0  0  0  0  0  0  0  0  0  0  0  0
   39.3930   23.0340   39.7790 H   0  0  0  0  0  0  0  0  0  0  0  0
   37.9000   23.3440   38.3770 C   0  0  0  0  0  0  0  0  0  0  0  0
   36.9840   23.6700   38.8880 H   0  0  0  0  0  0  0  0  0  0  0  0
   37.8300   23.2330   37.0460 N   0  0  0  0  0  0  0  0  0  0  0  0
  1  2  1  0  0  0  0
  1 15  1  0  0  0  0
  2  3  1  0  0  0  0
  4  2  1  0  0  0  0
  5 10  1  0  0  0  0
  5  2  1  0  0  0  0
  6  5  2  0  0  0  0
  7  8  2  0  0  0  0
  7  6  1  0  0  0  0
  8  9  1  0  0  0  0
  9 13  1  0  0  0  0
  9 10  2  0  0  0  0
 11  6  1  0  0  0  0
 12  7  1  0  0  0  0
 15 14  2  1  0  0  0
 15 18  1  0  0  0  0
 16 15  1  0  0  0  0
 17 16  1  0  0  0  0
 18 19  1  0  0  0  0
 19 26  1  0  0  0  0
 19 20  2  0  0  0  0
 20 21  1  0  0  0  0
 20 22  1  0  0  0  0
 22 23  1  0  0  0  0
 24 22  1  0  0  0  0
 24 25  1  0  0  0  0
 26 24  2  0  0  0  0
M  END
>  <minimizedAffinity>
-4.16795111

$$$$
