
 OpenBabel03272510113D

 34 37  0  0  0  0  0  0  0  0999 V2000
   33.7480   28.5040   48.8310 C   0  0  0  0  0  0  0  0  0  0  0  0
   33.9010   28.8430   50.1290 C   0  0  0  0  0  0  0  0  0  0  0  0
   34.9710   29.5410   50.6430 C   0  0  0  0  0  0  0  0  0  0  0  0
   35.9800   29.9440   49.8120 C   0  0  0  0  0  0  0  0  0  0  0  0
   35.8250   29.5950   48.4690 C   0  0  0  0  0  0  0  0  0  0  0  0
   34.7630   28.9120   48.0170 N   0  0  0  0  0  0  0  0  0  0  0  0
   33.1550   28.5690   50.8600 H   0  0  0  0  0  0  0  0  0  0  0  0
   35.0810   29.8080   51.6880 H   0  0  0  0  0  0  0  0  0  0  0  0
   36.6030   29.8910   47.7610 H   0  0  0  0  0  0  0  0  0  0  0  0
   31.3780   27.6720   48.9430 C   0  0  0  0  0  0  0  0  0  0  0  0
   32.6330   27.7770   48.3030 C   0  0  0  0  0  0  0  0  0  0  0  0
   32.7480   27.1230   47.0950 C   0  0  0  0  0  0  0  0  0  0  0  0
   31.6920   26.4250   46.5790 N   0  0  0  0  0  0  0  0  0  0  0  0
   30.5210   26.3640   47.2410 C   0  0  0  0  0  0  0  0  0  0  0  0
   30.3550   26.9810   48.4180 N   0  0  0  0  0  0  0  0  0  0  0  0
   31.2570   28.1740   49.8910 H   0  0  0  0  0  0  0  0  0  0  0  0
   33.7020   27.1850   46.5790 H   0  0  0  0  0  0  0  0  0  0  0  0
   29.8130   25.7680   46.6730 H   0  0  0  0  0  0  0  0  0  0  0  0
   37.1270   30.6530   50.1640 O   0  0  0  0  0  0  0  0  0  0  0  0
   37.8600   31.3540   49.2100 C   0  0  0  0  0  0  0  0  0  0  0  0
   38.1560   32.6750   49.5770 C   0  0  0  0  0  0  0  0  0  0  0  0
   38.8820   33.2620   48.5560 C   0  0  0  0  0  0  0  0  0  0  0  0
   39.0010   32.3070   47.6230 N   0  0  0  0  0  0  0  0  0  0  0  0
   38.4120   31.1960   47.9930 N   0  0  0  0  0  0  0  0  0  0  0  0
   37.9400   33.2970   50.4620 H   0  0  0  0  0  0  0  0  0  0  0  0
   39.3210   34.2250   48.3800 H   0  0  0  0  0  0  0  0  0  0  0  0
   39.6590   32.3650   46.3530 C   0  0  0  0  0  0  0  0  0  0  0  0
   39.9790   33.2940   45.3910 C   0  0  0  0  0  0  0  0  0  0  0  0
   39.6640   34.3090   45.6060 H   0  0  0  0  0  0  0  0  0  0  0  0
   40.6230   32.6370   44.4210 N   0  0  0  0  0  0  0  0  0  0  0  0
   40.9540   33.1720   43.5910 H   0  0  0  0  0  0  0  0  0  0  0  0
   40.7210   31.3330   44.7300 C   0  0  0  0  0  0  0  0  0  0  0  0
   41.2100   30.5860   44.0850 H   0  0  0  0  0  0  0  0  0  0  0  0
   40.1280   31.1570   45.9220 N   0  0  0  0  0  0  0  0  0  0  0  0
  1  2  1  0  0  0  0
  2  3  2  0  0  0  0
  2  7  1  0  0  0  0
  3  8  1  0  0  0  0
  4 19  1  0  0  0  0
  4  3  1  0  0  0  0
  5  4  2  0  0  0  0
  6  5  1  0  0  0  0
  6  1  2  0  0  0  0
  9  5  1  0  0  0  0
 10 16  1  0  0  0  0
 11  1  1  0  0  0  0
 11 10  2  0  0  0  0
 12 11  1  0  0  0  0
 13 12  2  0  0  0  0
 13 14  1  0  0  0  0
 14 15  2  0  0  0  0
 15 10  1  0  0  0  0
 17 12  1  0  0  0  0
 18 14  1  0  0  0  0
 20 21  1  0  0  0  0
 20 19  1  0  0  0  0
 21 25  1  0  0  0  0
 22 21  2  0  0  0  0
 23 24  1  0  0  0  0
 23 22  1  0  0  0  0
 24 20  2  0  0  0  0
 26 22  1  0  0  0  0
 27 23  1  0  0  0  0
 28 29  1  0  0  0  0
 28 27  2  0  0  0  0
 30 32  1  0  0  0  0
 30 28  1  0  0  0  0
 31 30  1  0  0  0  0
 32 34  2  0  0  0  0
 33 32  1  0  0  0  0
 34 27  1  0  0  0  0
M  END
>  <minimizedAffinity>
-6.05196095

>  <minimizedRMSD>
1.51011097

$$$$
