
 OpenBabel03272508083D

 23 24  0  0  0  0  0  0  0  0999 V2000
   38.6310   32.9420   48.0300 O   0  0  0  0  0  0  0  0  0  0  0  0
   38.4400   31.6800   47.2590 P   0  0  2  0  0  0  0  0  0  0  0  0
   37.2700   31.8990   46.0500 O   0  0  0  0  0  0  0  0  0  0  0  0
   37.4840   31.3560   45.2610 H   0  0  0  0  0  0  0  0  0  0  0  0
   38.1010   30.3270   48.1890 O   0  0  0  0  0  0  0  0  0  0  0  0
   35.5900   29.2540   50.6980 C   0  0  0  0  0  0  0  0  0  0  0  0
   36.8800   29.4180   50.1490 C   0  0  0  0  0  0  0  0  0  0  0  0
   36.9840   30.0550   48.9130 C   0  0  0  0  0  0  0  0  0  0  0  0
   35.8390   30.4830   48.3100 N   0  0  0  0  0  0  0  0  0  0  0  0
   34.6360   30.3080   48.8650 C   0  0  0  0  0  0  0  0  0  0  0  0
   34.5080   29.6960   50.0540 N   0  0  0  0  0  0  0  0  0  0  0  0
   35.5840   28.7470   51.6650 H   0  0  0  0  0  0  0  0  0  0  0  0
   37.8080   29.1130   50.5580 H   0  0  0  0  0  0  0  0  0  0  0  0
   33.7230   30.6450   48.3910 H   0  0  0  0  0  0  0  0  0  0  0  0
   39.9260   31.4210   46.4380 O   0  0  0  0  0  0  0  0  0  0  0  0
   39.9030   31.7770   45.0750 C   0  0  0  0  0  0  0  0  0  0  0  0
   40.2410   31.0660   43.9330 C   0  0  0  0  0  0  0  0  0  0  0  0
   40.5960   30.0530   43.9700 H   0  0  0  0  0  0  0  0  0  0  0  0
   40.0440   31.8560   42.8610 N   0  0  0  0  0  0  0  0  0  0  0  0
   40.2260   31.5540   41.8790 H   0  0  0  0  0  0  0  0  0  0  0  0
   39.5900   33.0350   43.3480 C   0  0  0  0  0  0  0  0  0  0  0  0
   39.3680   33.8200   42.6210 H   0  0  0  0  0  0  0  0  0  0  0  0
   39.5000   33.0010   44.6910 N   0  0  0  0  0  0  0  0  0  0  0  0
  2  1  2  1  0  0  0
  2  5  1  0  0  0  0
  3  2  1  0  0  0  0
  4  3  1  0  0  0  0
  5  8  1  0  0  0  0
  6 12  1  0  0  0  0
  7 13  1  0  0  0  0
  7  6  1  0  0  0  0
  8  7  2  0  0  0  0
  9 10  2  0  0  0  0
  9  8  1  0  0  0  0
 10 11  1  0  0  0  0
 11  6  2  0  0  0  0
 14 10  1  0  0  0  0
 15  2  1  0  0  0  0
 16 15  1  0  0  0  0
 17 18  1  0  0  0  0
 17 16  2  0  0  0  0
 19 21  1  0  0  0  0
 19 17  1  0  0  0  0
 20 19  1  0  0  0  0
 21 23  2  0  0  0  0
 22 21  1  0  0  0  0
 23 16  1  0  0  0  0
M  END
>  <minimizedAffinity>
-4.71025467

>  <minimizedRMSD>
1.83832169

$$$$
