
 OpenBabel03272500453D

 24 26  0  0  0  0  0  0  0  0999 V2000
   37.5050   26.1310   34.1410 C   0  0  0  0  0  0  0  0  0  0  0  0
   37.9030   25.0830   33.2980 C   0  0  0  0  0  0  0  0  0  0  0  0
   38.3860   24.0560   34.1120 C   0  0  0  0  0  0  0  0  0  0  0  0
   38.2730   24.4890   35.3870 N   0  0  0  0  0  0  0  0  0  0  0  0
   37.7540   25.7070   35.3760 N   0  0  0  0  0  0  0  0  0  0  0  0
   37.8850   24.9880   32.2230 H   0  0  0  0  0  0  0  0  0  0  0  0
   38.7860   23.0820   33.8690 H   0  0  0  0  0  0  0  0  0  0  0  0
   36.3060   28.3060   34.4470 C   0  0  0  0  0  0  0  0  0  0  0  0
   36.9510   27.3690   33.6430 C   0  0  0  0  0  0  0  0  0  0  0  0
   37.0610   27.6560   32.2740 C   0  0  0  0  0  0  0  0  0  0  0  0
   36.5380   28.8220   31.8080 N   0  0  0  0  0  0  0  0  0  0  0  0
   35.9180   29.7050   32.6370 C   0  0  0  0  0  0  0  0  0  0  0  0
   35.8020   29.4440   33.9640 N   0  0  0  0  0  0  0  0  0  0  0  0
   36.2180   28.0910   35.5030 H   0  0  0  0  0  0  0  0  0  0  0  0
   37.5520   26.9470   31.6440 H   0  0  0  0  0  0  0  0  0  0  0  0
   35.5820   30.5550   32.0600 H   0  0  0  0  0  0  0  0  0  0  0  0
   38.5960   23.8890   36.6380 C   0  0  0  0  0  0  0  0  0  0  0  0
   39.5270   22.9070   36.8760 C   0  0  0  0  0  0  0  0  0  0  0  0
   40.1690   22.4270   36.1500 H   0  0  0  0  0  0  0  0  0  0  0  0
   39.4630   22.6740   38.2160 N   0  0  0  0  0  0  0  0  0  0  0  0
   40.0510   21.9690   38.7530 H   0  0  0  0  0  0  0  0  0  0  0  0
   38.5320   23.4790   38.7820 C   0  0  0  0  0  0  0  0  0  0  0  0
   38.2280   23.5520   39.8210 H   0  0  0  0  0  0  0  0  0  0  0  0
   37.9970   24.2310   37.7950 N   0  0  0  0  0  0  0  0  0  0  0  0
  1  5  2  0  0  0  0
  2  3  2  0  0  0  0
  2  1  1  0  0  0  0
  3  4  1  0  0  0  0
  4 17  1  0  0  0  0
  5  4  1  0  0  0  0
  6  2  1  0  0  0  0
  7  3  1  0  0  0  0
  8 14  1  0  0  0  0
  9  1  1  0  0  0  0
  9  8  2  0  0  0  0
 10  9  1  0  0  0  0
 11 10  2  0  0  0  0
 11 12  1  0  0  0  0
 12 13  2  0  0  0  0
 13  8  1  0  0  0  0
 15 10  1  0  0  0  0
 16 12  1  0  0  0  0
 17 18  2  0  0  0  0
 17 24  1  0  0  0  0
 18 20  1  0  0  0  0
 19 18  1  0  0  0  0
 20 21  1  0  0  0  0
 20 22  1  0  0  0  0
 22 23  1  0  0  0  0
 24 22  2  0  0  0  0
M  END
>  <minimizedAffinity>
-4.68535757

$$$$

 OpenBabel03272500453D

 24 26  0  0  0  0  0  0  0  0999 V2000
   37.6650   24.8390   33.4510 C   0  0  0  0  0  0  0  0  0  0  0  0
   37.7600   23.5250   32.9710 C   0  0  0  0  0  0  0  0  0  0  0  0
   38.1760   22.7240   34.0370 C   0  0  0  0  0  0  0  0  0  0  0  0
   38.3180   23.5420   35.1030 N   0  0  0  0  0  0  0  0  0  0  0  0
   38.0120   24.7760   34.7320 N   0  0  0  0  0  0  0  0  0  0  0  0
   37.5750   23.1090   31.9930 H   0  0  0  0  0  0  0  0  0  0  0  0
   38.3710   21.6630   34.0980 H   0  0  0  0  0  0  0  0  0  0  0  0
   37.7880   27.2330   32.7300 C   0  0  0  0  0  0  0  0  0  0  0  0
   37.2590   25.9490   32.6190 C   0  0  0  0  0  0  0  0  0  0  0  0
   36.2770   25.7350   31.6400 C   0  0  0  0  0  0  0  0  0  0  0  0
   35.8970   26.7810   30.8570 N   0  0  0  0  0  0  0  0  0  0  0  0
   36.4460   28.0170   31.0070 C   0  0  0  0  0  0  0  0  0  0  0  0
   37.3970   28.2430   31.9490 N   0  0  0  0  0  0  0  0  0  0  0  0
   38.5440   27.4050   33.4830 H   0  0  0  0  0  0  0  0  0  0  0  0
   35.8620   24.7560   31.5420 H   0  0  0  0  0  0  0  0  0  0  0  0
   36.0010   28.6910   30.2880 H   0  0  0  0  0  0  0  0  0  0  0  0
   38.7110   23.3050   36.4510 C   0  0  0  0  0  0  0  0  0  0  0  0
   39.7670   22.5450   36.8910 C   0  0  0  0  0  0  0  0  0  0  0  0
   40.4770   22.0000   36.2820 H   0  0  0  0  0  0  0  0  0  0  0  0
   39.7250   22.6290   38.2490 N   0  0  0  0  0  0  0  0  0  0  0  0
   40.4010   22.1580   38.9220 H   0  0  0  0  0  0  0  0  0  0  0  0
   38.6860   23.4080   38.6330 C   0  0  0  0  0  0  0  0  0  0  0  0
   38.3650   23.6820   39.6330 H   0  0  0  0  0  0  0  0  0  0  0  0
   38.0600   23.8250   37.5100 N   0  0  0  0  0  0  0  0  0  0  0  0
  1  5  2  0  0  0  0
  2  1  1  0  0  0  0
  2  3  2  0  0  0  0
  3  7  1  0  0  0  0
  3  4  1  0  0  0  0
  4 17  1  0  0  0  0
  5  4  1  0  0  0  0
  6  2  1  0  0  0  0
  8 14  1  0  0  0  0
  9  8  1  0  0  0  0
  9  1  1  0  0  0  0
 10  9  2  0  0  0  0
 11 12  2  0  0  0  0
 11 10  1  0  0  0  0
 12 13  1  0  0  0  0
 13  8  2  0  0  0  0
 15 10  1  0  0  0  0
 16 12  1  0  0  0  0
 17 18  2  0  0  0  0
 17 24  1  0  0  0  0
 18 20  1  0  0  0  0
 19 18  1  0  0  0  0
 20 22  1  0  0  0  0
 20 21  1  0  0  0  0
 22 23  1  0  0  0  0
 24 22  2  0  0  0  0
M  END
>  <minimizedAffinity>
-4.59675264

$$$$

 OpenBabel03272500453D

 24 26  0  0  0  0  0  0  0  0999 V2000
   38.2790   25.5940   35.2150 C   0  0  0  0  0  0  0  0  0  0  0  0
   37.9050   26.8310   35.7610 C   0  0  0  0  0  0  0  0  0  0  0  0
   37.3230   27.5780   34.7340 C   0  0  0  0  0  0  0  0  0  0  0  0
   37.3560   26.8040   33.6260 N   0  0  0  0  0  0  0  0  0  0  0  0
   37.9220   25.6480   33.9360 N   0  0  0  0  0  0  0  0  0  0  0  0
   38.0010   27.2260   36.7600 H   0  0  0  0  0  0  0  0  0  0  0  0
   36.9040   28.5740   34.7260 H   0  0  0  0  0  0  0  0  0  0  0  0
   40.0950   23.9180   35.6100 C   0  0  0  0  0  0  0  0  0  0  0  0
   38.9180   24.5570   35.9930 C   0  0  0  0  0  0  0  0  0  0  0  0
   38.3280   24.1600   37.2020 C   0  0  0  0  0  0  0  0  0  0  0  0
   38.9310   23.1830   37.9320 N   0  0  0  0  0  0  0  0  0  0  0  0
   40.0820   22.5910   37.5140 C   0  0  0  0  0  0  0  0  0  0  0  0
   40.6670   22.9620   36.3460 N   0  0  0  0  0  0  0  0  0  0  0  0
   40.5550   24.2190   34.6790 H   0  0  0  0  0  0  0  0  0  0  0  0
   37.4250   24.6410   37.5090 H   0  0  0  0  0  0  0  0  0  0  0  0
   40.3830   21.8500   38.2410 H   0  0  0  0  0  0  0  0  0  0  0  0
   36.9150   27.0190   32.2890 C   0  0  0  0  0  0  0  0  0  0  0  0
   36.1630   26.1710   31.5130 C   0  0  0  0  0  0  0  0  0  0  0  0
   35.7820   25.1970   31.7900 H   0  0  0  0  0  0  0  0  0  0  0  0
   36.0050   26.8210   30.3260 N   0  0  0  0  0  0  0  0  0  0  0  0
   35.4710   26.4540   29.4840 H   0  0  0  0  0  0  0  0  0  0  0  0
   36.6330   28.0200   30.3690 C   0  0  0  0  0  0  0  0  0  0  0  0
   36.7060   28.7850   29.6020 H   0  0  0  0  0  0  0  0  0  0  0  0
   37.1960   28.1360   31.5920 N   0  0  0  0  0  0  0  0  0  0  0  0
  1  2  1  0  0  0  0
  1  9  1  0  0  0  0
  2  6  1  0  0  0  0
  3  2  2  0  0  0  0
  4  5  1  0  0  0  0
  4  3  1  0  0  0  0
  5  1  2  0  0  0  0
  7  3  1  0  0  0  0
  8  9  2  0  0  0  0
  8 13  1  0  0  0  0
  9 10  1  0  0  0  0
 10 15  1  0  0  0  0
 10 11  2  0  0  0  0
 12 11  1  0  0  0  0
 12 16  1  0  0  0  0
 13 12  2  0  0  0  0
 14  8  1  0  0  0  0
 17  4  1  0  0  0  0
 18 19  1  0  0  0  0
 18 17  2  0  0  0  0
 20 22  1  0  0  0  0
 20 18  1  0  0  0  0
 21 20  1  0  0  0  0
 22 24  2  0  0  0  0
 23 22  1  0  0  0  0
 24 17  1  0  0  0  0
M  END
>  <minimizedAffinity>
-4.58206272

$$$$

 OpenBabel03272500453D

 24 26  0  0  0  0  0  0  0  0999 V2000
   37.6810   26.3600   34.3780 C   0  0  0  0  0  0  0  0  0  0  0  0
   37.8130   27.3050   35.4060 C   0  0  0  0  0  0  0  0  0  0  0  0
   38.2970   26.6310   36.5300 C   0  0  0  0  0  0  0  0  0  0  0  0
   38.4430   25.3360   36.1690 N   0  0  0  0  0  0  0  0  0  0  0  0
   38.0760   25.2060   34.9040 N   0  0  0  0  0  0  0  0  0  0  0  0
   37.6080   28.3640   35.4300 H   0  0  0  0  0  0  0  0  0  0  0  0
   38.5360   26.9810   37.5230 H   0  0  0  0  0  0  0  0  0  0  0  0
   37.3280   27.9690   32.4940 C   0  0  0  0  0  0  0  0  0  0  0  0
   37.2020   26.7020   33.0580 C   0  0  0  0  0  0  0  0  0  0  0  0
   36.5720   25.7100   32.2910 C   0  0  0  0  0  0  0  0  0  0  0  0
   36.1220   26.0340   31.0490 N   0  0  0  0  0  0  0  0  0  0  0  0
   36.2710   27.2890   30.5440 C   0  0  0  0  0  0  0  0  0  0  0  0
   36.8780   28.2610   31.2710 N   0  0  0  0  0  0  0  0  0  0  0  0
   37.8130   28.7380   33.0790 H   0  0  0  0  0  0  0  0  0  0  0  0
   36.4670   24.7340   32.7100 H   0  0  0  0  0  0  0  0  0  0  0  0
   35.8450   27.3220   29.5500 H   0  0  0  0  0  0  0  0  0  0  0  0
   38.8950   24.1870   36.8780 C   0  0  0  0  0  0  0  0  0  0  0  0
   38.4050   23.6910   38.0620 C   0  0  0  0  0  0  0  0  0  0  0  0
   37.5930   24.0950   38.6530 H   0  0  0  0  0  0  0  0  0  0  0  0
   39.1600   22.5900   38.3270 N   0  0  0  0  0  0  0  0  0  0  0  0
   39.0560   21.9540   39.1730 H   0  0  0  0  0  0  0  0  0  0  0  0
   40.0780   22.4120   37.3480 C   0  0  0  0  0  0  0  0  0  0  0  0
   40.8330   21.6390   37.2450 H   0  0  0  0  0  0  0  0  0  0  0  0
   39.9070   23.4080   36.4510 N   0  0  0  0  0  0  0  0  0  0  0  0
  1  5  2  0  0  0  0
  1  2  1  0  0  0  0
  2  6  1  0  0  0  0
  2  3  2  0  0  0  0
  3  7  1  0  0  0  0
  4  3  1  0  0  0  0
  4 17  1  0  0  0  0
  5  4  1  0  0  0  0
  8  9  1  0  0  0  0
  8 14  1  0  0  0  0
  9  1  1  0  0  0  0
 10 15  1  0  0  0  0
 10  9  2  0  0  0  0
 11 10  1  0  0  0  0
 12 11  2  0  0  0  0
 12 13  1  0  0  0  0
 13  8  2  0  0  0  0
 16 12  1  0  0  0  0
 17 18  2  0  0  0  0
 18 20  1  0  0  0  0
 18 19  1  0  0  0  0
 20 21  1  0  0  0  0
 22 20  1  0  0  0  0
 23 22  1  0  0  0  0
 24 17  1  0  0  0  0
 24 22  2  0  0  0  0
M  END
>  <minimizedAffinity>
-4.55965042

$$$$

 OpenBabel03272500453D

 24 26  0  0  0  0  0  0  0  0999 V2000
   37.1470   27.3820   34.6270 C   0  0  0  0  0  0  0  0  0  0  0  0
   37.9820   27.8660   35.6450 C   0  0  0  0  0  0  0  0  0  0  0  0
   38.5210   26.7570   36.3020 C   0  0  0  0  0  0  0  0  0  0  0  0
   38.0190   25.6630   35.6870 N   0  0  0  0  0  0  0  0  0  0  0  0
   37.2180   26.0580   34.7100 N   0  0  0  0  0  0  0  0  0  0  0  0
   38.2270   28.8730   35.9470 H   0  0  0  0  0  0  0  0  0  0  0  0
   39.2050   26.6840   37.1350 H   0  0  0  0  0  0  0  0  0  0  0  0
   35.5260   29.2330   34.1710 C   0  0  0  0  0  0  0  0  0  0  0  0
   36.4150   28.2530   33.7360 C   0  0  0  0  0  0  0  0  0  0  0  0
   36.6000   28.1130   32.3520 C   0  0  0  0  0  0  0  0  0  0  0  0
   35.9090   28.9330   31.5160 N   0  0  0  0  0  0  0  0  0  0  0  0
   35.0520   29.8760   31.9920 C   0  0  0  0  0  0  0  0  0  0  0  0
   34.8600   30.0270   33.3280 N   0  0  0  0  0  0  0  0  0  0  0  0
   35.3790   29.3460   35.2360 H   0  0  0  0  0  0  0  0  0  0  0  0
   37.2780   27.3650   32.0040 H   0  0  0  0  0  0  0  0  0  0  0  0
   34.6160   30.4100   31.1590 H   0  0  0  0  0  0  0  0  0  0  0  0
   38.2030   24.2680   35.9060 C   0  0  0  0  0  0  0  0  0  0  0  0
   38.4300   23.6350   37.1040 C   0  0  0  0  0  0  0  0  0  0  0  0
   38.5080   24.0940   38.0810 H   0  0  0  0  0  0  0  0  0  0  0  0
   38.5370   22.3130   36.7940 N   0  0  0  0  0  0  0  0  0  0  0  0
   38.7140   21.5250   37.4850 H   0  0  0  0  0  0  0  0  0  0  0  0
   38.3800   22.1370   35.4600 C   0  0  0  0  0  0  0  0  0  0  0  0
   38.4060   21.2200   34.8800 H   0  0  0  0  0  0  0  0  0  0  0  0
   38.1740   23.3570   34.9150 N   0  0  0  0  0  0  0  0  0  0  0  0
  1  5  2  0  0  0  0
  1  2  1  0  0  0  0
  2  6  1  0  0  0  0
  2  3  2  0  0  0  0
  3  7  1  0  0  0  0
  4 17  1  0  0  0  0
  4  3  1  0  0  0  0
  5  4  1  0  0  0  0
  8 14  1  0  0  0  0
  9  8  1  0  0  0  0
  9  1  1  0  0  0  0
 10  9  2  0  0  0  0
 11 12  2  0  0  0  0
 11 10  1  0  0  0  0
 12 13  1  0  0  0  0
 13  8  2  0  0  0  0
 15 10  1  0  0  0  0
 16 12  1  0  0  0  0
 17 18  2  0  0  0  0
 18 19  1  0  0  0  0
 20 18  1  0  0  0  0
 20 21  1  0  0  0  0
 22 20  1  0  0  0  0
 23 22  1  0  0  0  0
 24 22  2  0  0  0  0
 24 17  1  0  0  0  0
M  END
>  <minimizedAffinity>
-4.47866583

$$$$

 OpenBabel03272500453D

 24 26  0  0  0  0  0  0  0  0999 V2000
   37.4130   21.8630   33.8090 C   0  0  0  0  0  0  0  0  0  0  0  0
   37.8930   23.0710   33.2820 C   0  0  0  0  0  0  0  0  0  0  0  0
   38.3520   23.8390   34.3560 C   0  0  0  0  0  0  0  0  0  0  0  0
   38.1460   23.1030   35.4710 N   0  0  0  0  0  0  0  0  0  0  0  0
   37.5960   21.9510   35.1220 N   0  0  0  0  0  0  0  0  0  0  0  0
   37.9440   23.4350   32.2680 H   0  0  0  0  0  0  0  0  0  0  0  0
   38.7930   24.8240   34.3900 H   0  0  0  0  0  0  0  0  0  0  0  0
   35.5700   20.3070   33.1430 C   0  0  0  0  0  0  0  0  0  0  0  0
   36.8570   20.8150   32.9830 C   0  0  0  0  0  0  0  0  0  0  0  0
   37.6470   20.2710   31.9600 C   0  0  0  0  0  0  0  0  0  0  0  0
   37.1210   19.2850   31.1850 N   0  0  0  0  0  0  0  0  0  0  0  0
   35.8560   18.8230   31.3830 C   0  0  0  0  0  0  0  0  0  0  0  0
   35.0770   19.3380   32.3680 N   0  0  0  0  0  0  0  0  0  0  0  0
   34.9550   20.7220   33.9310 H   0  0  0  0  0  0  0  0  0  0  0  0
   38.6360   20.6510   31.8250 H   0  0  0  0  0  0  0  0  0  0  0  0
   35.6460   18.0470   30.6590 H   0  0  0  0  0  0  0  0  0  0  0  0
   38.4090   23.3530   36.8490 C   0  0  0  0  0  0  0  0  0  0  0  0
   39.4370   22.8470   37.6070 C   0  0  0  0  0  0  0  0  0  0  0  0
   40.2180   22.1740   37.2800 H   0  0  0  0  0  0  0  0  0  0  0  0
   39.2560   23.3760   38.8490 N   0  0  0  0  0  0  0  0  0  0  0  0
   39.8750   23.1970   39.6950 H   0  0  0  0  0  0  0  0  0  0  0  0
   38.1630   24.1750   38.8570 C   0  0  0  0  0  0  0  0  0  0  0  0
   37.7360   24.7470   39.6750 H   0  0  0  0  0  0  0  0  0  0  0  0
   37.6410   24.1560   37.6110 N   0  0  0  0  0  0  0  0  0  0  0  0
  1  5  2  0  0  0  0
  2  1  1  0  0  0  0
  2  3  2  0  0  0  0
  3  7  1  0  0  0  0
  3  4  1  0  0  0  0
  4 17  1  0  0  0  0
  5  4  1  0  0  0  0
  6  2  1  0  0  0  0
  8 14  1  0  0  0  0
  9  8  1  0  0  0  0
  9  1  1  0  0  0  0
 10  9  2  0  0  0  0
 11 12  2  0  0  0  0
 11 10  1  0  0  0  0
 12 13  1  0  0  0  0
 13  8  2  0  0  0  0
 15 10  1  0  0  0  0
 16 12  1  0  0  0  0
 17 18  2  0  0  0  0
 17 24  1  0  0  0  0
 18 20  1  0  0  0  0
 19 18  1  0  0  0  0
 20 22  1  0  0  0  0
 20 21  1  0  0  0  0
 22 23  1  0  0  0  0
 24 22  2  0  0  0  0
M  END
>  <minimizedAffinity>
-4.37020445

$$$$

 OpenBabel03272500453D

 24 26  0  0  0  0  0  0  0  0999 V2000
   38.0470   25.8560   34.7320 C   0  0  0  0  0  0  0  0  0  0  0  0
   37.3110   26.9270   35.2590 C   0  0  0  0  0  0  0  0  0  0  0  0
   36.9140   27.7260   34.1840 C   0  0  0  0  0  0  0  0  0  0  0  0
   37.4020   27.1410   33.0670 N   0  0  0  0  0  0  0  0  0  0  0  0
   38.0610   26.0480   33.4170 N   0  0  0  0  0  0  0  0  0  0  0  0
   37.0470   27.1780   36.2740 H   0  0  0  0  0  0  0  0  0  0  0  0
   36.3380   28.6390   34.1490 H   0  0  0  0  0  0  0  0  0  0  0  0
   38.0070   24.3130   36.7020 C   0  0  0  0  0  0  0  0  0  0  0  0
   38.6220   24.8190   35.5590 C   0  0  0  0  0  0  0  0  0  0  0  0
   39.8680   24.2830   35.2010 C   0  0  0  0  0  0  0  0  0  0  0  0
   40.4060   23.3070   35.9810 N   0  0  0  0  0  0  0  0  0  0  0  0
   39.7630   22.8470   37.0890 C   0  0  0  0  0  0  0  0  0  0  0  0
   38.5570   23.3540   37.4500 N   0  0  0  0  0  0  0  0  0  0  0  0
   37.0460   24.7220   36.9830 H   0  0  0  0  0  0  0  0  0  0  0  0
   40.3510   24.6610   34.3270 H   0  0  0  0  0  0  0  0  0  0  0  0
   40.3670   22.0790   37.5540 H   0  0  0  0  0  0  0  0  0  0  0  0
   37.3240   27.4880   31.6880 C   0  0  0  0  0  0  0  0  0  0  0  0
   36.2330   27.3740   30.8610 C   0  0  0  0  0  0  0  0  0  0  0  0
   35.2510   27.0010   31.1220 H   0  0  0  0  0  0  0  0  0  0  0  0
   36.6560   27.8300   29.6490 N   0  0  0  0  0  0  0  0  0  0  0  0
   36.0670   27.8860   28.7660 H   0  0  0  0  0  0  0  0  0  0  0  0
   37.9540   28.2100   29.7260 C   0  0  0  0  0  0  0  0  0  0  0  0
   38.5980   28.6150   28.9520 H   0  0  0  0  0  0  0  0  0  0  0  0
   38.3620   27.9940   30.9960 N   0  0  0  0  0  0  0  0  0  0  0  0
  1  2  1  0  0  0  0
  1  9  1  0  0  0  0
  2  6  1  0  0  0  0
  3  2  2  0  0  0  0
  4  5  1  0  0  0  0
  4  3  1  0  0  0  0
  5  1  2  0  0  0  0
  7  3  1  0  0  0  0
  8 14  1  0  0  0  0
  8 13  1  0  0  0  0
  9  8  2  0  0  0  0
 10  9  1  0  0  0  0
 10 11  2  0  0  0  0
 11 12  1  0  0  0  0
 12 13  2  0  0  0  0
 12 16  1  0  0  0  0
 15 10  1  0  0  0  0
 17  4  1  0  0  0  0
 18 19  1  0  0  0  0
 18 17  2  0  0  0  0
 20 22  1  0  0  0  0
 20 18  1  0  0  0  0
 21 20  1  0  0  0  0
 22 24  2  0  0  0  0
 23 22  1  0  0  0  0
 24 17  1  0  0  0  0
M  END
>  <minimizedAffinity>
-4.31802464

$$$$

 OpenBabel03272500453D

 24 26  0  0  0  0  0  0  0  0999 V2000
   38.7180   24.3490   34.5370 C   0  0  0  0  0  0  0  0  0  0  0  0
   39.6140   23.8240   33.5940 C   0  0  0  0  0  0  0  0  0  0  0  0
   39.2840   24.3780   32.3550 C   0  0  0  0  0  0  0  0  0  0  0  0
   38.2310   25.1990   32.5670 N   0  0  0  0  0  0  0  0  0  0  0  0
   37.9200   25.1630   33.8530 N   0  0  0  0  0  0  0  0  0  0  0  0
   40.4290   23.1250   33.7000 H   0  0  0  0  0  0  0  0  0  0  0  0
   39.7180   24.2420   31.3750 H   0  0  0  0  0  0  0  0  0  0  0  0
   39.7320   23.1730   36.4990 C   0  0  0  0  0  0  0  0  0  0  0  0
   38.7590   23.9960   35.9380 C   0  0  0  0  0  0  0  0  0  0  0  0
   37.7680   24.5040   36.7910 C   0  0  0  0  0  0  0  0  0  0  0  0
   37.8090   24.1700   38.1090 N   0  0  0  0  0  0  0  0  0  0  0  0
   38.7830   23.3610   38.6080 C   0  0  0  0  0  0  0  0  0  0  0  0
   39.7500   22.8610   37.7970 N   0  0  0  0  0  0  0  0  0  0  0  0
   40.4990   22.7780   35.8460 H   0  0  0  0  0  0  0  0  0  0  0  0
   37.0140   25.1360   36.3750 H   0  0  0  0  0  0  0  0  0  0  0  0
   38.6240   23.2300   39.6690 H   0  0  0  0  0  0  0  0  0  0  0  0
   37.4690   26.0280   31.6960 C   0  0  0  0  0  0  0  0  0  0  0  0
   36.2440   25.7490   31.1400 C   0  0  0  0  0  0  0  0  0  0  0  0
   35.6550   24.8510   31.2730 H   0  0  0  0  0  0  0  0  0  0  0  0
   35.9360   26.8440   30.3900 N   0  0  0  0  0  0  0  0  0  0  0  0
   35.0510   26.9740   29.8150 H   0  0  0  0  0  0  0  0  0  0  0  0
   36.9300   27.7600   30.4790 C   0  0  0  0  0  0  0  0  0  0  0  0
   37.0080   28.7360   30.0120 H   0  0  0  0  0  0  0  0  0  0  0  0
   37.8790   27.2450   31.2920 N   0  0  0  0  0  0  0  0  0  0  0  0
  1  9  1  0  0  0  0
  2  6  1  0  0  0  0
  2  1  1  0  0  0  0
  3  4  1  0  0  0  0
  3  2  2  0  0  0  0
  4  5  1  0  0  0  0
  5  1  2  0  0  0  0
  7  3  1  0  0  0  0
  8 13  1  0  0  0  0
  9  8  2  0  0  0  0
  9 10  1  0  0  0  0
 10 11  2  0  0  0  0
 11 12  1  0  0  0  0
 12 16  1  0  0  0  0
 13 12  2  0  0  0  0
 14  8  1  0  0  0  0
 15 10  1  0  0  0  0
 17  4  1  0  0  0  0
 18 19  1  0  0  0  0
 18 17  2  0  0  0  0
 20 22  1  0  0  0  0
 20 18  1  0  0  0  0
 21 20  1  0  0  0  0
 22 24  2  0  0  0  0
 23 22  1  0  0  0  0
 24 17  1  0  0  0  0
M  END
>  <minimizedAffinity>
-4.2748704

$$$$

 OpenBabel03272500453D

 24 26  0  0  0  0  0  0  0  0999 V2000
   36.0390   28.5550   32.9580 C   0  0  0  0  0  0  0  0  0  0  0  0
   35.9600   29.6480   32.0830 C   0  0  0  0  0  0  0  0  0  0  0  0
   35.5550   30.7530   32.8360 C   0  0  0  0  0  0  0  0  0  0  0  0
   35.4030   30.3190   34.1070 N   0  0  0  0  0  0  0  0  0  0  0  0
   35.6930   29.0280   34.1500 N   0  0  0  0  0  0  0  0  0  0  0  0
   36.1520   29.7270   31.0250 H   0  0  0  0  0  0  0  0  0  0  0  0
   35.3730   31.7790   32.5540 H   0  0  0  0  0  0  0  0  0  0  0  0
   37.4350   26.4850   33.1370 C   0  0  0  0  0  0  0  0  0  0  0  0
   36.4310   27.2320   32.5250 C   0  0  0  0  0  0  0  0  0  0  0  0
   35.7730   26.6590   31.4270 C   0  0  0  0  0  0  0  0  0  0  0  0
   36.1440   25.4140   31.0220 N   0  0  0  0  0  0  0  0  0  0  0  0
   37.1320   24.7250   31.6560 C   0  0  0  0  0  0  0  0  0  0  0  0
   37.7800   25.2640   32.7200 N   0  0  0  0  0  0  0  0  0  0  0  0
   37.9460   26.9210   33.9840 H   0  0  0  0  0  0  0  0  0  0  0  0
   35.0020   27.2200   30.9470 H   0  0  0  0  0  0  0  0  0  0  0  0
   37.2600   23.7670   31.1710 H   0  0  0  0  0  0  0  0  0  0  0  0
   35.0120   30.9780   35.3070 C   0  0  0  0  0  0  0  0  0  0  0  0
   35.8180   31.6730   36.1770 C   0  0  0  0  0  0  0  0  0  0  0  0
   36.8840   31.8330   36.0930 H   0  0  0  0  0  0  0  0  0  0  0  0
   34.9840   32.1110   37.1610 N   0  0  0  0  0  0  0  0  0  0  0  0
   35.2710   32.6880   38.0070 H   0  0  0  0  0  0  0  0  0  0  0  0
   33.7170   31.7050   36.9090 C   0  0  0  0  0  0  0  0  0  0  0  0
   32.8130   31.8770   37.4840 H   0  0  0  0  0  0  0  0  0  0  0  0
   33.7420   31.0010   35.7550 N   0  0  0  0  0  0  0  0  0  0  0  0
  1  5  2  0  0  0  0
  2  3  2  0  0  0  0
  2  1  1  0  0  0  0
  3  4  1  0  0  0  0
  4  5  1  0  0  0  0
  4 17  1  0  0  0  0
  6  2  1  0  0  0  0
  7  3  1  0  0  0  0
  8 14  1  0  0  0  0
  9  1  1  0  0  0  0
  9  8  2  0  0  0  0
 10  9  1  0  0  0  0
 11 10  2  0  0  0  0
 11 12  1  0  0  0  0
 12 13  2  0  0  0  0
 13  8  1  0  0  0  0
 15 10  1  0  0  0  0
 16 12  1  0  0  0  0
 17 24  1  0  0  0  0
 17 18  2  0  0  0  0
 18 20  1  0  0  0  0
 19 18  1  0  0  0  0
 20 21  1  0  0  0  0
 22 20  1  0  0  0  0
 22 23  1  0  0  0  0
 24 22  2  0  0  0  0
M  END
>  <minimizedAffinity>
-4.25390196

$$$$
