
 OpenBabel03272505433D

 23 24  0  0  0  0  0  0  0  0999 V2000
   32.4620   28.0170   49.0440 O   0  0  0  0  0  0  0  0  0  0  0  0
   33.8390   28.3440   48.4830 P   0  0  2  0  0  0  0  0  0  0  0  0
   34.0720   27.2700   47.2020 O   0  0  0  0  0  0  0  0  0  0  0  0
   33.6820   26.3800   47.4390 H   0  0  0  0  0  0  0  0  0  0  0  0
   34.9770   28.1200   49.7260 O   0  0  0  0  0  0  0  0  0  0  0  0
   37.3310   30.3430   51.3920 C   0  0  0  0  0  0  0  0  0  0  0  0
   38.0580   30.8280   50.2720 C   0  0  0  0  0  0  0  0  0  0  0  0
   37.6800   30.3470   48.9970 C   0  0  0  0  0  0  0  0  0  0  0  0
   36.6540   29.4590   48.9280 N   0  0  0  0  0  0  0  0  0  0  0  0
   35.9880   29.0230   50.0160 C   0  0  0  0  0  0  0  0  0  0  0  0
   36.3210   29.4610   51.2520 N   0  0  0  0  0  0  0  0  0  0  0  0
   37.5810   30.6800   52.3950 H   0  0  0  0  0  0  0  0  0  0  0  0
   38.8670   31.5380   50.4060 H   0  0  0  0  0  0  0  0  0  0  0  0
   38.2120   30.6950   48.1220 H   0  0  0  0  0  0  0  0  0  0  0  0
   33.7720   29.9000   47.8860 O   0  0  0  0  0  0  0  0  0  0  0  0
   33.5760   30.1710   46.5380 C   0  0  0  0  0  0  0  0  0  0  0  0
   32.4830   30.7160   45.9010 C   0  0  0  0  0  0  0  0  0  0  0  0
   31.5700   31.0290   46.3760 H   0  0  0  0  0  0  0  0  0  0  0  0
   32.8150   30.7590   44.6130 N   0  0  0  0  0  0  0  0  0  0  0  0
   32.2350   31.1140   43.8120 H   0  0  0  0  0  0  0  0  0  0  0  0
   34.0660   30.2710   44.3860 C   0  0  0  0  0  0  0  0  0  0  0  0
   34.6010   30.1800   43.4520 H   0  0  0  0  0  0  0  0  0  0  0  0
   34.5320   29.9040   45.6100 N   0  0  0  0  0  0  0  0  0  0  0  0
  2  1  2  1  0  0  0
  2  5  1  0  0  0  0
  3  4  1  0  0  0  0
  3  2  1  0  0  0  0
  5 10  1  0  0  0  0
  6 12  1  0  0  0  0
  7 13  1  0  0  0  0
  7  6  2  0  0  0  0
  8  7  1  0  0  0  0
  9  8  2  0  0  0  0
  9 10  1  0  0  0  0
 10 11  2  0  0  0  0
 11  6  1  0  0  0  0
 14  8  1  0  0  0  0
 15  2  1  0  0  0  0
 16 15  1  0  0  0  0
 17 18  1  0  0  0  0
 17 16  2  0  0  0  0
 19 17  1  0  0  0  0
 20 19  1  0  0  0  0
 21 19  1  0  0  0  0
 21 23  2  0  0  0  0
 22 21  1  0  0  0  0
 23 16  1  0  0  0  0
M  END
>  <minimizedAffinity>
-4.16344357

>  <minimizedRMSD>
1.14452088

$$$$
