
 OpenBabel03272510293D

 27 29  0  0  0  0  0  0  0  0999 V2000
   37.2670   31.3860   49.2760 C   0  0  0  0  0  0  0  0  0  0  0  0
   37.5490   32.6260   49.8490 C   0  0  0  0  0  0  0  0  0  0  0  0
   38.5000   33.3880   49.1910 C   0  0  0  0  0  0  0  0  0  0  0  0
   39.0950   32.9110   48.0570 N   0  0  0  0  0  0  0  0  0  0  0  0
   38.7920   31.6920   47.5260 C   0  0  0  0  0  0  0  0  0  0  0  0
   37.8540   30.9160   48.1590 N   0  0  0  0  0  0  0  0  0  0  0  0
   37.0700   32.9800   50.7390 H   0  0  0  0  0  0  0  0  0  0  0  0
   38.8020   34.3500   49.5270 H   0  0  0  0  0  0  0  0  0  0  0  0
   36.2150   30.5380   49.9400 C   0  0  0  0  0  0  0  0  0  0  0  0
   36.1720   29.1030   49.8000 C   0  0  0  0  0  0  0  0  0  0  0  0
   36.7720   29.6660   51.0680 C   0  0  0  0  0  0  0  0  0  0  0  0
   35.2590   31.0760   50.2150 H   0  0  0  0  0  0  0  0  0  0  0  0
   35.2410   28.5410   49.8300 H   0  0  0  0  0  0  0  0  0  0  0  0
   36.9140   28.6480   49.0930 H   0  0  0  0  0  0  0  0  0  0  0  0
   37.8490   29.6640   51.2370 H   0  0  0  0  0  0  0  0  0  0  0  0
   36.1030   29.5310   51.9410 H   0  0  0  0  0  0  0  0  0  0  0  0
   39.3940   31.1420   46.3170 C   0  0  0  0  0  0  0  0  0  0  0  0
   40.3540   31.7070   46.1480 H   0  0  0  0  0  0  0  0  0  0  0  0
   39.6750   30.1020   46.5010 H   0  0  0  0  0  0  0  0  0  0  0  0
   38.5010   31.2680   45.1220 C   0  0  0  0  0  0  0  0  0  0  0  0
   38.1220   30.3610   44.1560 C   0  0  0  0  0  0  0  0  0  0  0  0
   38.4680   29.3360   44.1530 H   0  0  0  0  0  0  0  0  0  0  0  0
   37.2990   31.0410   43.3230 N   0  0  0  0  0  0  0  0  0  0  0  0
   36.8510   30.5970   42.4820 H   0  0  0  0  0  0  0  0  0  0  0  0
   37.1510   32.3090   43.7190 C   0  0  0  0  0  0  0  0  0  0  0  0
   36.5620   33.0770   43.2600 H   0  0  0  0  0  0  0  0  0  0  0  0
   37.9020   32.4470   44.8420 N   0  0  0  0  0  0  0  0  0  0  0  0
  1  2  1  0  0  0  0
  1  9  1  0  0  0  0
  2  7  1  0  0  0  0
  3  8  1  0  0  0  0
  3  2  2  0  0  0  0
  4  3  1  0  0  0  0
  5  4  2  0  0  0  0
  5  6  1  0  0  0  0
  6  1  2  0  0  0  0
  9 12  1  0  0  0  0
  9 11  1  0  0  0  0
 10 13  1  0  0  0  0
 10  9  1  0  0  0  0
 10 11  1  0  0  0  0
 11 15  1  0  0  0  0
 11 16  1  0  0  0  0
 14 10  1  0  0  0  0
 17 19  1  0  0  0  0
 17  5  1  0  0  0  0
 18 17  1  0  0  0  0
 20 17  1  0  0  0  0
 21 20  2  0  0  0  0
 22 21  1  0  0  0  0
 23 25  1  0  0  0  0
 23 21  1  0  0  0  0
 24 23  1  0  0  0  0
 25 27  2  0  0  0  0
 26 25  1  0  0  0  0
 27 20  1  0  0  0  0
M  END
>  <minimizedAffinity>
-5.05007744

>  <minimizedRMSD>
0.335193098

$$$$
