
 OpenBabel03272508093D

 23 24  0  0  0  0  0  0  0  0999 V2000
   39.5020   27.2330   33.7290 O   0  0  0  0  0  0  0  0  0  0  0  0
   38.4870   26.8330   34.7450 P   0  0  2  0  0  0  0  0  0  0  0  0
   38.7680   27.6430   36.2090 O   0  0  0  0  0  0  0  0  0  0  0  0
   37.9200   27.8280   36.6680 H   0  0  0  0  0  0  0  0  0  0  0  0
   38.3410   25.1800   34.9880 O   0  0  0  0  0  0  0  0  0  0  0  0
   39.7460   22.8570   37.5130 C   0  0  0  0  0  0  0  0  0  0  0  0
   39.6200   23.4650   36.2450 C   0  0  0  0  0  0  0  0  0  0  0  0
   38.6510   24.4570   36.0950 C   0  0  0  0  0  0  0  0  0  0  0  0
   37.8870   24.7810   37.1760 N   0  0  0  0  0  0  0  0  0  0  0  0
   38.0400   24.1790   38.3600 C   0  0  0  0  0  0  0  0  0  0  0  0
   38.9640   23.2210   38.5310 N   0  0  0  0  0  0  0  0  0  0  0  0
   40.5230   22.0900   37.5570 H   0  0  0  0  0  0  0  0  0  0  0  0
   40.1740   23.2660   35.3660 H   0  0  0  0  0  0  0  0  0  0  0  0
   37.4360   24.4320   39.2220 H   0  0  0  0  0  0  0  0  0  0  0  0
   36.9900   27.4330   34.1520 O   0  0  0  0  0  0  0  0  0  0  0  0
   36.7950   27.2370   32.7710 C   0  0  0  0  0  0  0  0  0  0  0  0
   36.5690   26.0880   32.0280 C   0  0  0  0  0  0  0  0  0  0  0  0
   36.5110   25.1160   32.4780 H   0  0  0  0  0  0  0  0  0  0  0  0
   36.4470   26.4310   30.7320 N   0  0  0  0  0  0  0  0  0  0  0  0
   36.2720   25.7450   29.9660 H   0  0  0  0  0  0  0  0  0  0  0  0
   36.6000   27.7760   30.6890 C   0  0  0  0  0  0  0  0  0  0  0  0
   36.5330   28.2520   29.7060 H   0  0  0  0  0  0  0  0  0  0  0  0
   36.8120   28.2780   31.9200 N   0  0  0  0  0  0  0  0  0  0  0  0
  2  1  2  6  0  0  0
  2  5  1  0  0  0  0
  2  3  1  0  0  0  0
  3  4  1  0  0  0  0
  5  8  1  0  0  0  0
  6 12  1  0  0  0  0
  6 11  1  0  0  0  0
  7  6  2  0  0  0  0
  8  7  1  0  0  0  0
  8  9  2  0  0  0  0
  9 10  1  0  0  0  0
 10 11  2  0  0  0  0
 10 14  1  0  0  0  0
 13  7  1  0  0  0  0
 15  2  1  0  0  0  0
 16 15  1  0  0  0  0
 17 18  1  0  0  0  0
 17 16  2  0  0  0  0
 19 17  1  0  0  0  0
 20 19  1  0  0  0  0
 21 19  1  0  0  0  0
 21 23  2  0  0  0  0
 22 21  1  0  0  0  0
 23 16  1  0  0  0  0
M  END
>  <minimizedAffinity>
-4.57825994

$$$$

 OpenBabel03272508093D

 23 24  0  0  0  0  0  0  0  0999 V2000
   39.4860   26.9050   33.9810 O   0  0  0  0  0  0  0  0  0  0  0  0
   38.3410   26.9030   34.9360 P   0  0  2  0  0  0  0  0  0  0  0  0
   38.6940   27.8760   36.2810 O   0  0  0  0  0  0  0  0  0  0  0  0
   37.8790   28.3080   36.6160 H   0  0  0  0  0  0  0  0  0  0  0  0
   37.8180   25.3820   35.4120 O   0  0  0  0  0  0  0  0  0  0  0  0
   38.7100   23.3410   38.3760 C   0  0  0  0  0  0  0  0  0  0  0  0
   37.9500   24.2610   37.6220 C   0  0  0  0  0  0  0  0  0  0  0  0
   38.3750   24.5430   36.3230 C   0  0  0  0  0  0  0  0  0  0  0  0
   39.4920   23.9150   35.8600 N   0  0  0  0  0  0  0  0  0  0  0  0
   40.1820   23.0500   36.6090 C   0  0  0  0  0  0  0  0  0  0  0  0
   39.7960   22.7620   37.8620 N   0  0  0  0  0  0  0  0  0  0  0  0
   38.3200   23.1700   39.3820 H   0  0  0  0  0  0  0  0  0  0  0  0
   37.0770   24.7840   37.9140 H   0  0  0  0  0  0  0  0  0  0  0  0
   41.0710   22.5480   36.2470 H   0  0  0  0  0  0  0  0  0  0  0  0
   37.0570   27.6890   34.1080 O   0  0  0  0  0  0  0  0  0  0  0  0
   36.9290   27.3170   32.7550 C   0  0  0  0  0  0  0  0  0  0  0  0
   36.5900   26.1100   32.1620 C   0  0  0  0  0  0  0  0  0  0  0  0
   36.3640   25.2320   32.7340 H   0  0  0  0  0  0  0  0  0  0  0  0
   36.6060   26.2690   30.8240 N   0  0  0  0  0  0  0  0  0  0  0  0
   36.3860   25.5060   30.1480 H   0  0  0  0  0  0  0  0  0  0  0  0
   36.9520   27.5610   30.6100 C   0  0  0  0  0  0  0  0  0  0  0  0
   37.0200   27.8900   29.5690 H   0  0  0  0  0  0  0  0  0  0  0  0
   37.1510   28.2080   31.7730 N   0  0  0  0  0  0  0  0  0  0  0  0
  2  1  2  6  0  0  0
  2  5  1  0  0  0  0
  2  3  1  0  0  0  0
  3  4  1  0  0  0  0
  5  8  1  0  0  0  0
  6 12  1  0  0  0  0
  7 13  1  0  0  0  0
  7  6  2  0  0  0  0
  8  7  1  0  0  0  0
  9  8  2  0  0  0  0
  9 10  1  0  0  0  0
 10 11  2  0  0  0  0
 11  6  1  0  0  0  0
 14 10  1  0  0  0  0
 15  2  1  0  0  0  0
 16 15  1  0  0  0  0
 17 18  1  0  0  0  0
 17 16  2  0  0  0  0
 19 17  1  0  0  0  0
 20 19  1  0  0  0  0
 21 19  1  0  0  0  0
 21 23  2  0  0  0  0
 22 21  1  0  0  0  0
 23 16  1  0  0  0  0
M  END
>  <minimizedAffinity>
-4.57415104

$$$$

 OpenBabel03272508093D

 23 24  0  0  0  0  0  0  0  0999 V2000
   38.5160   27.0290   36.4550 O   0  0  0  0  0  0  0  0  0  0  0  0
   38.4790   26.0320   35.3480 P   0  0  2  0  0  0  0  0  0  0  0  0
   40.0470   25.4980   34.9840 O   0  0  0  0  0  0  0  0  0  0  0  0
   40.0340   24.5580   34.6990 H   0  0  0  0  0  0  0  0  0  0  0  0
   37.6760   26.5370   33.9650 O   0  0  0  0  0  0  0  0  0  0  0  0
   36.7060   23.8770   31.5720 C   0  0  0  0  0  0  0  0  0  0  0  0
   37.3910   24.4400   32.6700 C   0  0  0  0  0  0  0  0  0  0  0  0
   37.1460   25.7800   32.9700 C   0  0  0  0  0  0  0  0  0  0  0  0
   36.2610   26.4640   32.1910 N   0  0  0  0  0  0  0  0  0  0  0  0
   35.6330   25.8910   31.1600 C   0  0  0  0  0  0  0  0  0  0  0  0
   35.8530   24.6030   30.8480 N   0  0  0  0  0  0  0  0  0  0  0  0
   36.9470   22.8260   31.3950 H   0  0  0  0  0  0  0  0  0  0  0  0
   38.0880   23.9730   33.3160 H   0  0  0  0  0  0  0  0  0  0  0  0
   34.9300   26.4290   30.5360 H   0  0  0  0  0  0  0  0  0  0  0  0
   37.6530   24.6700   35.9920 O   0  0  0  0  0  0  0  0  0  0  0  0
   38.3960   23.9370   36.9380 C   0  0  0  0  0  0  0  0  0  0  0  0
   38.2310   23.7680   38.3050 C   0  0  0  0  0  0  0  0  0  0  0  0
   37.4290   24.2280   38.8480 H   0  0  0  0  0  0  0  0  0  0  0  0
   39.2140   22.9670   38.7600 N   0  0  0  0  0  0  0  0  0  0  0  0
   39.3140   22.6860   39.7600 H   0  0  0  0  0  0  0  0  0  0  0  0
   39.9680   22.6550   37.6800 C   0  0  0  0  0  0  0  0  0  0  0  0
   40.8290   22.0020   37.8470 H   0  0  0  0  0  0  0  0  0  0  0  0
   39.4830   23.2380   36.5670 N   0  0  0  0  0  0  0  0  0  0  0  0
  2 15  1  0  0  0  0
  2  1  2  1  0  0  0
  3  2  1  0  0  0  0
  4  3  1  0  0  0  0
  5  2  1  0  0  0  0
  6  7  1  0  0  0  0
  7  8  2  0  0  0  0
  7 13  1  0  0  0  0
  8  5  1  0  0  0  0
  9  8  1  0  0  0  0
 10  9  2  0  0  0  0
 11 10  1  0  0  0  0
 11  6  2  0  0  0  0
 12  6  1  0  0  0  0
 14 10  1  0  0  0  0
 15 16  1  0  0  0  0
 16 17  2  0  0  0  0
 17 19  1  0  0  0  0
 17 18  1  0  0  0  0
 19 20  1  0  0  0  0
 21 22  1  0  0  0  0
 21 19  1  0  0  0  0
 23 16  1  0  0  0  0
 23 21  2  0  0  0  0
M  END
>  <minimizedAffinity>
-4.41356421

$$$$

 OpenBabel03272508093D

 23 24  0  0  0  0  0  0  0  0999 V2000
   39.8090   23.0670   32.9840 O   0  0  0  0  0  0  0  0  0  0  0  0
   38.9120   23.6430   34.0260 P   0  0  2  0  0  0  0  0  0  0  0  0
   37.8100   22.4720   34.5680 O   0  0  0  0  0  0  0  0  0  0  0  0
   37.6040   22.6070   35.5180 H   0  0  0  0  0  0  0  0  0  0  0  0
   38.1240   25.0540   33.5810 O   0  0  0  0  0  0  0  0  0  0  0  0
   35.5710   26.3060   31.2000 C   0  0  0  0  0  0  0  0  0  0  0  0
   36.6050   26.4040   32.1560 C   0  0  0  0  0  0  0  0  0  0  0  0
   37.1360   25.2180   32.6630 C   0  0  0  0  0  0  0  0  0  0  0  0
   36.6290   24.0380   32.2060 N   0  0  0  0  0  0  0  0  0  0  0  0
   35.6490   23.9900   31.2980 C   0  0  0  0  0  0  0  0  0  0  0  0
   35.1200   25.1170   30.7950 N   0  0  0  0  0  0  0  0  0  0  0  0
   35.2040   27.2720   30.8480 H   0  0  0  0  0  0  0  0  0  0  0  0
   37.0460   27.2800   32.5550 H   0  0  0  0  0  0  0  0  0  0  0  0
   35.2420   23.0560   30.9320 H   0  0  0  0  0  0  0  0  0  0  0  0
   39.9330   23.9870   35.3650 O   0  0  0  0  0  0  0  0  0  0  0  0
   39.4020   23.6010   36.6110 C   0  0  0  0  0  0  0  0  0  0  0  0
   39.8910   22.7570   37.5970 C   0  0  0  0  0  0  0  0  0  0  0  0
   40.8320   22.2520   37.5050 H   0  0  0  0  0  0  0  0  0  0  0  0
   39.0020   22.7160   38.6070 N   0  0  0  0  0  0  0  0  0  0  0  0
   39.1350   22.1500   39.4730 H   0  0  0  0  0  0  0  0  0  0  0  0
   37.9830   23.5270   38.2370 C   0  0  0  0  0  0  0  0  0  0  0  0
   37.1480   23.6280   38.9370 H   0  0  0  0  0  0  0  0  0  0  0  0
   38.2120   24.0710   37.0270 N   0  0  0  0  0  0  0  0  0  0  0  0
  2  1  2  6  0  0  0
  2  3  1  0  0  0  0
  2 15  1  0  0  0  0
  3  4  1  0  0  0  0
  5  2  1  0  0  0  0
  6  7  1  0  0  0  0
  7 13  1  0  0  0  0
  7  8  2  0  0  0  0
  8  5  1  0  0  0  0
  9  8  1  0  0  0  0
 10  9  2  0  0  0  0
 11  6  2  0  0  0  0
 11 10  1  0  0  0  0
 12  6  1  0  0  0  0
 14 10  1  0  0  0  0
 15 16  1  0  0  0  0
 16 23  1  0  0  0  0
 16 17  2  0  0  0  0
 17 19  1  0  0  0  0
 18 17  1  0  0  0  0
 19 20  1  0  0  0  0
 21 19  1  0  0  0  0
 21 22  1  0  0  0  0
 23 21  2  0  0  0  0
M  END
>  <minimizedAffinity>
-4.26917362

$$$$

 OpenBabel03272508093D

 23 24  0  0  0  0  0  0  0  0999 V2000
   38.8530   26.8580   36.3780 O   0  0  0  0  0  0  0  0  0  0  0  0
   38.0350   26.0940   35.3930 P   0  0  2  0  0  0  0  0  0  0  0  0
   39.0390   25.3470   34.2470 O   0  0  0  0  0  0  0  0  0  0  0  0
   38.6540   24.4910   33.9590 H   0  0  0  0  0  0  0  0  0  0  0  0
   36.8180   26.9740   34.6480 O   0  0  0  0  0  0  0  0  0  0  0  0
   36.3360   28.5350   31.3190 C   0  0  0  0  0  0  0  0  0  0  0  0
   36.4630   28.5020   32.7250 C   0  0  0  0  0  0  0  0  0  0  0  0
   36.6680   27.2610   33.3290 C   0  0  0  0  0  0  0  0  0  0  0  0
   36.7350   26.1590   32.5310 N   0  0  0  0  0  0  0  0  0  0  0  0
   36.6100   26.2360   31.2020 C   0  0  0  0  0  0  0  0  0  0  0  0
   36.4110   27.4170   30.5960 N   0  0  0  0  0  0  0  0  0  0  0  0
   36.1770   29.5370   30.9160 H   0  0  0  0  0  0  0  0  0  0  0  0
   36.4210   29.3120   33.4050 H   0  0  0  0  0  0  0  0  0  0  0  0
   36.6620   25.3630   30.5620 H   0  0  0  0  0  0  0  0  0  0  0  0
   37.3150   24.8200   36.2930 O   0  0  0  0  0  0  0  0  0  0  0  0
   38.2340   24.0210   37.0020 C   0  0  0  0  0  0  0  0  0  0  0  0
   38.3060   23.6730   38.3430 C   0  0  0  0  0  0  0  0  0  0  0  0
   37.5880   24.0110   39.0630 H   0  0  0  0  0  0  0  0  0  0  0  0
   39.3820   22.8830   38.5240 N   0  0  0  0  0  0  0  0  0  0  0  0
   39.6580   22.4850   39.4480 H   0  0  0  0  0  0  0  0  0  0  0  0
   39.9570   22.7550   37.3050 C   0  0  0  0  0  0  0  0  0  0  0  0
   40.8600   22.1400   37.2430 H   0  0  0  0  0  0  0  0  0  0  0  0
   39.2700   23.4420   36.3720 N   0  0  0  0  0  0  0  0  0  0  0  0
  2 15  1  0  0  0  0
  2  1  2  1  0  0  0
  3  2  1  0  0  0  0
  4  3  1  0  0  0  0
  5  2  1  0  0  0  0
  6  7  1  0  0  0  0
  7  8  2  0  0  0  0
  7 13  1  0  0  0  0
  8  5  1  0  0  0  0
  9  8  1  0  0  0  0
 10  9  2  0  0  0  0
 11 10  1  0  0  0  0
 11  6  2  0  0  0  0
 12  6  1  0  0  0  0
 14 10  1  0  0  0  0
 15 16  1  0  0  0  0
 16 17  2  0  0  0  0
 17 19  1  0  0  0  0
 17 18  1  0  0  0  0
 19 20  1  0  0  0  0
 21 19  1  0  0  0  0
 22 21  1  0  0  0  0
 23 16  1  0  0  0  0
 23 21  2  0  0  0  0
M  END
>  <minimizedAffinity>
-4.25659275

$$$$

 OpenBabel03272508093D

 23 24  0  0  0  0  0  0  0  0999 V2000
   34.8860   24.8930   30.7580 O   0  0  0  0  0  0  0  0  0  0  0  0
   36.2080   24.5680   31.3650 P   0  0  2  0  0  0  0  0  0  0  0  0
   37.4040   24.4850   30.1630 O   0  0  0  0  0  0  0  0  0  0  0  0
   38.2660   24.7960   30.5140 H   0  0  0  0  0  0  0  0  0  0  0  0
   36.2260   23.1970   32.3300 O   0  0  0  0  0  0  0  0  0  0  0  0
   35.0070   19.7210   31.9090 C   0  0  0  0  0  0  0  0  0  0  0  0
   35.0320   21.0250   32.4490 C   0  0  0  0  0  0  0  0  0  0  0  0
   36.0020   21.9060   31.9710 C   0  0  0  0  0  0  0  0  0  0  0  0
   36.8630   21.4600   31.0140 N   0  0  0  0  0  0  0  0  0  0  0  0
   36.8030   20.2160   30.5290 C   0  0  0  0  0  0  0  0  0  0  0  0
   35.8810   19.3470   30.9730 N   0  0  0  0  0  0  0  0  0  0  0  0
   34.2230   19.0860   32.3290 H   0  0  0  0  0  0  0  0  0  0  0  0
   34.3990   21.4390   33.1900 H   0  0  0  0  0  0  0  0  0  0  0  0
   37.4850   19.8550   29.7690 H   0  0  0  0  0  0  0  0  0  0  0  0
   36.6080   25.9270   32.3370 O   0  0  0  0  0  0  0  0  0  0  0  0
   36.4440   27.1680   31.6920 C   0  0  0  0  0  0  0  0  0  0  0  0
   35.6380   28.2580   31.9870 C   0  0  0  0  0  0  0  0  0  0  0  0
   34.9810   28.2730   32.8330 H   0  0  0  0  0  0  0  0  0  0  0  0
   35.8460   29.2100   31.0570 N   0  0  0  0  0  0  0  0  0  0  0  0
   35.3580   30.1320   31.0530 H   0  0  0  0  0  0  0  0  0  0  0  0
   36.7690   28.7010   30.2060 C   0  0  0  0  0  0  0  0  0  0  0  0
   37.0750   29.3350   29.3680 H   0  0  0  0  0  0  0  0  0  0  0  0
   37.1400   27.4620   30.5800 N   0  0  0  0  0  0  0  0  0  0  0  0
  2  1  2  6  0  0  0
  2  5  1  0  0  0  0
  2 15  1  0  0  0  0
  3  4  1  0  0  0  0
  3  2  1  0  0  0  0
  6 12  1  0  0  0  0
  6  7  1  0  0  0  0
  7 13  1  0  0  0  0
  8  5  1  0  0  0  0
  8  7  2  0  0  0  0
  9  8  1  0  0  0  0
 10 11  1  0  0  0  0
 10  9  2  0  0  0  0
 11  6  2  0  0  0  0
 14 10  1  0  0  0  0
 16 17  2  0  0  0  0
 16 15  1  0  0  0  0
 17 18  1  0  0  0  0
 19 17  1  0  0  0  0
 20 19  1  0  0  0  0
 21 23  2  0  0  0  0
 21 19  1  0  0  0  0
 22 21  1  0  0  0  0
 23 16  1  0  0  0  0
M  END
>  <minimizedAffinity>
-3.99085069

$$$$

 OpenBabel03272508093D

 23 24  0  0  0  0  0  0  0  0999 V2000
   39.9810   27.3730   33.8450 O   0  0  0  0  0  0  0  0  0  0  0  0
   39.0130   26.7570   34.7950 P   0  0  2  0  0  0  0  0  0  0  0  0
   38.6150   27.8540   36.0270 O   0  0  0  0  0  0  0  0  0  0  0  0
   37.6850   27.7270   36.3140 H   0  0  0  0  0  0  0  0  0  0  0  0
   39.4880   25.2800   35.4330 O   0  0  0  0  0  0  0  0  0  0  0  0
   37.2380   22.7770   36.9900 C   0  0  0  0  0  0  0  0  0  0  0  0
   37.9610   23.9870   36.9000 C   0  0  0  0  0  0  0  0  0  0  0  0
   38.7160   24.2080   35.7490 C   0  0  0  0  0  0  0  0  0  0  0  0
   38.7120   23.2490   34.7810 N   0  0  0  0  0  0  0  0  0  0  0  0
   38.0120   22.1170   34.9070 C   0  0  0  0  0  0  0  0  0  0  0  0
   37.2770   21.8790   36.0050 N   0  0  0  0  0  0  0  0  0  0  0  0
   36.6700   22.6720   37.9170 H   0  0  0  0  0  0  0  0  0  0  0  0
   38.0120   24.7730   37.6080 H   0  0  0  0  0  0  0  0  0  0  0  0
   38.0040   21.3500   34.1410 H   0  0  0  0  0  0  0  0  0  0  0  0
   37.5730   26.5220   33.8880 O   0  0  0  0  0  0  0  0  0  0  0  0
   36.9100   27.7150   33.5360 C   0  0  0  0  0  0  0  0  0  0  0  0
   36.8110   28.3890   32.3280 C   0  0  0  0  0  0  0  0  0  0  0  0
   37.2810   28.0330   31.4320 H   0  0  0  0  0  0  0  0  0  0  0  0
   36.0600   29.4920   32.5120 N   0  0  0  0  0  0  0  0  0  0  0  0
   35.8350   30.1710   31.7530 H   0  0  0  0  0  0  0  0  0  0  0  0
   35.7090   29.4860   33.8200 C   0  0  0  0  0  0  0  0  0  0  0  0
   35.0870   30.3150   34.1700 H   0  0  0  0  0  0  0  0  0  0  0  0
   36.2180   28.4130   34.4530 N   0  0  0  0  0  0  0  0  0  0  0  0
  2  1  2  6  0  0  0
  2  5  1  0  0  0  0
  2  3  1  0  0  0  0
  3  4  1  0  0  0  0
  5  8  1  0  0  0  0
  6 12  1  0  0  0  0
  7  6  1  0  0  0  0
  7 13  1  0  0  0  0
  8  7  2  0  0  0  0
  9 10  2  0  0  0  0
  9  8  1  0  0  0  0
 10 11  1  0  0  0  0
 11  6  2  0  0  0  0
 14 10  1  0  0  0  0
 15  2  1  0  0  0  0
 16 15  1  0  0  0  0
 16 23  1  0  0  0  0
 17 19  1  0  0  0  0
 17 16  2  0  0  0  0
 18 17  1  0  0  0  0
 19 21  1  0  0  0  0
 20 19  1  0  0  0  0
 21 22  1  0  0  0  0
 21 23  2  0  0  0  0
M  END
>  <minimizedAffinity>
-3.97217631

$$$$

 OpenBabel03272508093D

 23 24  0  0  0  0  0  0  0  0999 V2000
   40.0810   22.7390   32.6650 O   0  0  0  0  0  0  0  0  0  0  0  0
   39.3190   23.1920   33.8630 P   0  0  2  0  0  0  0  0  0  0  0  0
   37.6510   23.0240   33.5990 O   0  0  0  0  0  0  0  0  0  0  0  0
   37.1910   22.7990   34.4360 H   0  0  0  0  0  0  0  0  0  0  0  0
   39.6930   24.7360   34.3990 O   0  0  0  0  0  0  0  0  0  0  0  0
   37.8670   27.7460   35.5640 C   0  0  0  0  0  0  0  0  0  0  0  0
   38.8420   26.7260   35.6130 C   0  0  0  0  0  0  0  0  0  0  0  0
   38.8620   25.7960   34.5740 C   0  0  0  0  0  0  0  0  0  0  0  0
   37.9440   25.9260   33.5750 N   0  0  0  0  0  0  0  0  0  0  0  0
   37.0370   26.9080   33.5670 C   0  0  0  0  0  0  0  0  0  0  0  0
   36.9960   27.8160   34.5560 N   0  0  0  0  0  0  0  0  0  0  0  0
   37.9110   28.4370   36.4080 H   0  0  0  0  0  0  0  0  0  0  0  0
   39.5830   26.5640   36.3530 H   0  0  0  0  0  0  0  0  0  0  0  0
   36.3050   27.0170   32.7770 H   0  0  0  0  0  0  0  0  0  0  0  0
   39.7160   22.0720   35.1040 O   0  0  0  0  0  0  0  0  0  0  0  0
   39.3410   22.4840   36.3970 C   0  0  0  0  0  0  0  0  0  0  0  0
   40.0630   22.5780   37.5780 C   0  0  0  0  0  0  0  0  0  0  0  0
   41.1010   22.3170   37.6380 H   0  0  0  0  0  0  0  0  0  0  0  0
   39.2440   23.0290   38.5470 N   0  0  0  0  0  0  0  0  0  0  0  0
   39.5470   23.1870   39.5330 H   0  0  0  0  0  0  0  0  0  0  0  0
   38.0370   23.2070   37.9600 C   0  0  0  0  0  0  0  0  0  0  0  0
   37.2250   23.5750   38.5940 H   0  0  0  0  0  0  0  0  0  0  0  0
   38.0810   22.8790   36.6550 N   0  0  0  0  0  0  0  0  0  0  0  0
  2  1  2  6  0  0  0
  2  5  1  0  0  0  0
  2 15  1  0  0  0  0
  3  2  1  0  0  0  0
  3  4  1  0  0  0  0
  5  8  1  0  0  0  0
  6  7  1  0  0  0  0
  6 12  1  0  0  0  0
  7 13  1  0  0  0  0
  8  7  2  0  0  0  0
  9  8  1  0  0  0  0
 10  9  2  0  0  0  0
 10 11  1  0  0  0  0
 11  6  2  0  0  0  0
 14 10  1  0  0  0  0
 15 16  1  0  0  0  0
 16 23  1  0  0  0  0
 16 17  2  0  0  0  0
 17 18  1  0  0  0  0
 17 19  1  0  0  0  0
 19 20  1  0  0  0  0
 21 19  1  0  0  0  0
 21 22  1  0  0  0  0
 23 21  2  0  0  0  0
M  END
>  <minimizedAffinity>
-3.96881771

$$$$

 OpenBabel03272508093D

 23 24  0  0  0  0  0  0  0  0999 V2000
   38.8620   27.2010   35.3550 O   0  0  0  0  0  0  0  0  0  0  0  0
   38.3570   26.2240   34.3490 P   0  0  2  0  0  0  0  0  0  0  0  0
   36.9480   26.8140   33.6100 O   0  0  0  0  0  0  0  0  0  0  0  0
   36.9010   26.5200   32.6750 H   0  0  0  0  0  0  0  0  0  0  0  0
   38.1290   24.6660   34.9270 O   0  0  0  0  0  0  0  0  0  0  0  0
   39.7810   22.8860   37.7280 C   0  0  0  0  0  0  0  0  0  0  0  0
   39.5910   23.2970   36.3910 C   0  0  0  0  0  0  0  0  0  0  0  0
   38.5140   24.1410   36.1180 C   0  0  0  0  0  0  0  0  0  0  0  0
   37.7120   24.5180   37.1530 N   0  0  0  0  0  0  0  0  0  0  0  0
   37.9280   24.1040   38.4060 C   0  0  0  0  0  0  0  0  0  0  0  0
   38.9560   23.2910   38.6960 N   0  0  0  0  0  0  0  0  0  0  0  0
   40.6410   22.2270   37.8680 H   0  0  0  0  0  0  0  0  0  0  0  0
   40.1700   23.0460   35.5410 H   0  0  0  0  0  0  0  0  0  0  0  0
   37.2940   24.4000   39.2330 H   0  0  0  0  0  0  0  0  0  0  0  0
   39.5540   26.1800   33.1170 O   0  0  0  0  0  0  0  0  0  0  0  0
   40.8630   26.4270   33.5740 C   0  0  0  0  0  0  0  0  0  0  0  0
   41.6940   27.5290   33.4320 C   0  0  0  0  0  0  0  0  0  0  0  0
   41.3940   28.4090   32.8990 H   0  0  0  0  0  0  0  0  0  0  0  0
   42.8590   27.2710   34.0560 N   0  0  0  0  0  0  0  0  0  0  0  0
   43.6560   27.9440   34.0950 H   0  0  0  0  0  0  0  0  0  0  0  0
   42.7360   26.0250   34.5720 C   0  0  0  0  0  0  0  0  0  0  0  0
   43.5930   25.6290   35.1250 H   0  0  0  0  0  0  0  0  0  0  0  0
   41.5290   25.5010   34.2860 N   0  0  0  0  0  0  0  0  0  0  0  0
  2  5  1  0  0  0  0
  2  1  2  1  0  0  0
  3  2  1  0  0  0  0
  4  3  1  0  0  0  0
  5  8  1  0  0  0  0
  6 12  1  0  0  0  0
  6 11  1  0  0  0  0
  7  6  2  0  0  0  0
  8  7  1  0  0  0  0
  8  9  2  0  0  0  0
  9 10  1  0  0  0  0
 10 11  2  0  0  0  0
 10 14  1  0  0  0  0
 13  7  1  0  0  0  0
 15 16  1  0  0  0  0
 15  2  1  0  0  0  0
 16 23  1  0  0  0  0
 17 16  2  0  0  0  0
 17 19  1  0  0  0  0
 18 17  1  0  0  0  0
 19 20  1  0  0  0  0
 19 21  1  0  0  0  0
 21 22  1  0  0  0  0
 23 21  2  0  0  0  0
M  END
>  <minimizedAffinity>
-3.92943597

$$$$
