
 OpenBabel03272504203D

 26 27  0  0  0  0  0  0  0  0999 V2000
   35.7470   30.2160   50.2630 O   0  0  0  0  0  0  0  0  0  0  0  0
   35.6070   28.9590   49.7360 C   0  0  0  0  0  0  0  0  0  0  0  0
   35.4840   28.2280   50.5880 H   0  0  0  0  0  0  0  0  0  0  0  0
   36.4990   28.5900   49.1850 H   0  0  0  0  0  0  0  0  0  0  0  0
   34.4760   28.8470   48.7800 C   0  0  0  0  0  0  0  0  0  0  0  0
   34.4870   29.6940   47.6770 C   0  0  0  0  0  0  0  0  0  0  0  0
   33.4220   29.5980   46.7670 C   0  0  0  0  0  0  0  0  0  0  0  0
   32.4510   28.6840   47.0220 N   0  0  0  0  0  0  0  0  0  0  0  0
   32.4630   27.8800   48.0920 C   0  0  0  0  0  0  0  0  0  0  0  0
   33.4730   27.9650   48.9640 N   0  0  0  0  0  0  0  0  0  0  0  0
   35.2520   30.4300   47.4560 H   0  0  0  0  0  0  0  0  0  0  0  0
   33.3670   30.2230   45.8890 H   0  0  0  0  0  0  0  0  0  0  0  0
   31.6860   27.1530   48.2920 H   0  0  0  0  0  0  0  0  0  0  0  0
   37.9130   30.0000   48.7930 O   0  0  0  0  0  0  0  0  0  0  0  0
   37.3360   30.7220   49.9820 P   0  0  2  0  0  0  0  0  0  0  0  0
   38.3060   30.3280   51.3340 O   0  0  0  0  0  0  0  0  0  0  0  0
   38.0510   30.9710   52.0430 H   0  0  0  0  0  0  0  0  0  0  0  0
   37.3950   32.3920   49.6970 O   0  0  0  0  0  0  0  0  0  0  0  0
   38.3430   32.9140   48.8170 C   0  0  0  0  0  0  0  0  0  0  0  0
   39.1440   33.9860   49.1550 C   0  0  0  0  0  0  0  0  0  0  0  0
   39.2210   34.6000   50.0620 H   0  0  0  0  0  0  0  0  0  0  0  0
   39.9710   34.2890   48.1230 N   0  0  0  0  0  0  0  0  0  0  0  0
   40.7130   35.0030   47.9570 H   0  0  0  0  0  0  0  0  0  0  0  0
   39.6860   33.4020   47.1340 C   0  0  0  0  0  0  0  0  0  0  0  0
   40.0570   33.2160   46.1180 H   0  0  0  0  0  0  0  0  0  0  0  0
   38.7140   32.5930   47.5690 N   0  0  0  0  0  0  0  0  0  0  0  0
  2  1  1  0  0  0  0
  2  3  1  0  0  0  0
  4  2  1  0  0  0  0
  5 10  1  0  0  0  0
  5  2  1  0  0  0  0
  6  5  2  0  0  0  0
  7  8  2  0  0  0  0
  7  6  1  0  0  0  0
  8  9  1  0  0  0  0
  9 13  1  0  0  0  0
  9 10  2  0  0  0  0
 11  6  1  0  0  0  0
 12  7  1  0  0  0  0
 15 14  2  6  0  0  0
 15  1  1  0  0  0  0
 15 16  1  0  0  0  0
 16 17  1  0  0  0  0
 18 15  1  0  0  0  0
 19 20  2  0  0  0  0
 19 18  1  0  0  0  0
 20 21  1  0  0  0  0
 22 20  1  0  0  0  0
 23 22  1  0  0  0  0
 24 26  2  0  0  0  0
 24 22  1  0  0  0  0
 25 24  1  0  0  0  0
 26 19  1  0  0  0  0
M  END
>  <minimizedAffinity>
-4.65739155

>  <minimizedRMSD>
2.59462428

$$$$
