
 OpenBabel03272508163D

 30 32  0  0  0  0  0  0  0  0999 V2000
   35.4410   30.6760   47.5360 Cl  0  0  0  0  0  0  0  0  0  0  0  0
   35.6030   30.0110   45.9510 C   0  0  0  0  0  0  0  0  0  0  0  0
   34.6600   29.0790   45.6630 C   0  0  0  0  0  0  0  0  0  0  0  0
   34.6950   28.4640   44.3850 C   0  0  0  0  0  0  0  0  0  0  0  0
   35.6490   28.7990   43.4660 C   0  0  0  0  0  0  0  0  0  0  0  0
   36.5960   29.7500   43.7860 C   0  0  0  0  0  0  0  0  0  0  0  0
   37.8200   30.1990   42.6500 Cl  0  0  0  0  0  0  0  0  0  0  0  0
   36.5540   30.3320   45.0120 C   0  0  0  0  0  0  0  0  0  0  0  0
   33.9850   27.7110   44.0660 H   0  0  0  0  0  0  0  0  0  0  0  0
   35.7010   28.3460   42.4810 H   0  0  0  0  0  0  0  0  0  0  0  0
   33.8580   27.5980   47.4580 C   0  0  0  0  0  0  0  0  0  0  0  0
   33.5470   28.5640   46.4860 C   0  0  0  0  0  0  0  0  0  0  0  0
   32.2260   28.9850   46.3450 C   0  0  0  0  0  0  0  0  0  0  0  0
   31.3020   28.4190   47.1780 N   0  0  0  0  0  0  0  0  0  0  0  0
   31.6210   27.5050   48.0930 C   0  0  0  0  0  0  0  0  0  0  0  0
   32.9190   27.0780   48.2450 N   0  0  0  0  0  0  0  0  0  0  0  0
   34.8570   27.2120   47.6380 H   0  0  0  0  0  0  0  0  0  0  0  0
   32.0110   29.7300   45.5900 H   0  0  0  0  0  0  0  0  0  0  0  0
   30.7500   27.1880   48.6430 H   0  0  0  0  0  0  0  0  0  0  0  0
   37.5250   31.3580   45.4350 C   0  0  0  0  0  0  0  0  0  0  0  0
   37.7080   32.4960   44.9870 O   0  0  0  0  0  0  0  0  0  0  0  0
   38.4730   31.2340   46.4780 O   0  0  0  0  0  0  0  0  0  0  0  0
   38.8000   32.2770   47.3070 C   0  0  0  0  0  0  0  0  0  0  0  0
   38.2780   32.7040   48.5000 C   0  0  0  0  0  0  0  0  0  0  0  0
   37.4330   32.1670   48.9530 H   0  0  0  0  0  0  0  0  0  0  0  0
   38.9210   33.7960   48.9760 N   0  0  0  0  0  0  0  0  0  0  0  0
   38.6610   34.2620   49.8750 H   0  0  0  0  0  0  0  0  0  0  0  0
   39.8700   34.0440   48.0430 C   0  0  0  0  0  0  0  0  0  0  0  0
   40.5670   34.8860   48.1470 H   0  0  0  0  0  0  0  0  0  0  0  0
   39.8060   33.1500   47.0510 N   0  0  0  0  0  0  0  0  0  0  0  0
  2  1  1  0  0  0  0
  3  2  1  0  0  0  0
  3 12  1  0  0  0  0
  4  3  2  0  0  0  0
  5  6  2  0  0  0  0
  5  4  1  0  0  0  0
  6  8  1  0  0  0  0
  7  6  1  0  0  0  0
  8 20  1  0  0  0  0
  8  2  2  0  0  0  0
  9  4  1  0  0  0  0
 10  5  1  0  0  0  0
 11 17  1  0  0  0  0
 11 16  1  0  0  0  0
 12 11  2  0  0  0  0
 13 12  1  0  0  0  0
 13 14  2  0  0  0  0
 14 15  1  0  0  0  0
 15 16  2  0  0  0  0
 15 19  1  0  0  0  0
 18 13  1  0  0  0  0
 20 22  1  0  0  0  0
 21 20  2  0  0  0  0
 22 23  1  0  0  0  0
 23 24  2  0  0  0  0
 24 25  1  0  0  0  0
 24 26  1  0  0  0  0
 26 27  1  0  0  0  0
 28 29  1  0  0  0  0
 28 26  1  0  0  0  0
 30 23  1  0  0  0  0
 30 28  2  0  0  0  0
M  END
>  <minimizedAffinity>
-4.24024916

>  <minimizedRMSD>
4.07115793

$$$$
