
 OpenBabel03272508163D

 30 32  0  0  0  0  0  0  0  0999 V2000
   34.3390   30.2540   48.9990 Cl  0  0  0  0  0  0  0  0  0  0  0  0
   35.1600   30.2250   47.4810 C   0  0  0  0  0  0  0  0  0  0  0  0
   34.3410   29.9510   46.4350 C   0  0  0  0  0  0  0  0  0  0  0  0
   34.9080   29.9010   45.1360 C   0  0  0  0  0  0  0  0  0  0  0  0
   36.2420   30.1240   44.9380 C   0  0  0  0  0  0  0  0  0  0  0  0
   37.0510   30.4000   46.0210 C   0  0  0  0  0  0  0  0  0  0  0  0
   38.7440   30.6870   45.8110 Cl  0  0  0  0  0  0  0  0  0  0  0  0
   36.4990   30.4450   47.2600 C   0  0  0  0  0  0  0  0  0  0  0  0
   34.3340   29.6910   44.2420 H   0  0  0  0  0  0  0  0  0  0  0  0
   36.7040   30.0930   43.9570 H   0  0  0  0  0  0  0  0  0  0  0  0
   32.4470   28.4810   46.9920 C   0  0  0  0  0  0  0  0  0  0  0  0
   32.8890   29.6800   46.4070 C   0  0  0  0  0  0  0  0  0  0  0  0
   31.9560   30.5440   45.8380 C   0  0  0  0  0  0  0  0  0  0  0  0
   30.6450   30.1610   45.8870 N   0  0  0  0  0  0  0  0  0  0  0  0
   30.2490   29.0190   46.4470 C   0  0  0  0  0  0  0  0  0  0  0  0
   31.1570   28.1550   47.0130 N   0  0  0  0  0  0  0  0  0  0  0  0
   33.1000   27.7500   47.4570 H   0  0  0  0  0  0  0  0  0  0  0  0
   32.3210   31.4610   45.3940 H   0  0  0  0  0  0  0  0  0  0  0  0
   29.1790   28.9060   46.3790 H   0  0  0  0  0  0  0  0  0  0  0  0
   37.2900   30.7350   48.4700 C   0  0  0  0  0  0  0  0  0  0  0  0
   38.0030   29.9770   49.1400 O   0  0  0  0  0  0  0  0  0  0  0  0
   37.3940   31.9850   49.1250 O   0  0  0  0  0  0  0  0  0  0  0  0
   38.3690   32.9000   48.8210 C   0  0  0  0  0  0  0  0  0  0  0  0
   39.0290   33.1910   47.6570 C   0  0  0  0  0  0  0  0  0  0  0  0
   38.7950   32.6320   46.7370 H   0  0  0  0  0  0  0  0  0  0  0  0
   39.9330   34.1870   47.8160 N   0  0  0  0  0  0  0  0  0  0  0  0
   40.5290   34.5430   47.0360 H   0  0  0  0  0  0  0  0  0  0  0  0
   39.8200   34.5160   49.1250 C   0  0  0  0  0  0  0  0  0  0  0  0
   40.4360   35.3090   49.5680 H   0  0  0  0  0  0  0  0  0  0  0  0
   38.8970   33.7600   49.7280 N   0  0  0  0  0  0  0  0  0  0  0  0
  2  1  1  0  0  0  0
  3  2  2  0  0  0  0
  4  3  1  0  0  0  0
  5  4  2  0  0  0  0
  5  6  1  0  0  0  0
  6  8  2  0  0  0  0
  7  6  1  0  0  0  0
  8  2  1  0  0  0  0
  8 20  1  0  0  0  0
  9  4  1  0  0  0  0
 10  5  1  0  0  0  0
 11 16  1  0  0  0  0
 11 17  1  0  0  0  0
 12  3  1  0  0  0  0
 12 11  2  0  0  0  0
 13 14  2  0  0  0  0
 13 12  1  0  0  0  0
 14 15  1  0  0  0  0
 15 16  2  0  0  0  0
 18 13  1  0  0  0  0
 19 15  1  0  0  0  0
 20 22  1  0  0  0  0
 20 21  2  0  0  0  0
 23 22  1  0  0  0  0
 23 30  1  0  0  0  0
 24 26  1  0  0  0  0
 24 23  2  0  0  0  0
 25 24  1  0  0  0  0
 26 28  1  0  0  0  0
 27 26  1  0  0  0  0
 28 29  1  0  0  0  0
 28 30  2  0  0  0  0
M  END
>  <minimizedAffinity>
-5.05686522

>  <minimizedRMSD>
3.69715452

$$$$
