
 OpenBabel03272508083D

 23 24  0  0  0  0  0  0  0  0999 V2000
   38.4970   32.8120   48.0100 O   0  0  0  0  0  0  0  0  0  0  0  0
   38.3510   31.6530   47.0830 P   0  0  2  0  0  0  0  0  0  0  0  0
   37.3550   32.0680   45.7740 O   0  0  0  0  0  0  0  0  0  0  0  0
   37.6440   31.6010   44.9600 H   0  0  0  0  0  0  0  0  0  0  0  0
   37.8390   30.2290   47.8050 O   0  0  0  0  0  0  0  0  0  0  0  0
   37.2560   30.0840   51.4640 C   0  0  0  0  0  0  0  0  0  0  0  0
   37.9580   30.3920   50.2780 C   0  0  0  0  0  0  0  0  0  0  0  0
   37.3670   30.0410   49.0640 C   0  0  0  0  0  0  0  0  0  0  0  0
   36.1520   29.4260   49.0930 N   0  0  0  0  0  0  0  0  0  0  0  0
   35.5210   29.1530   50.2400 C   0  0  0  0  0  0  0  0  0  0  0  0
   36.0680   29.4780   51.4220 N   0  0  0  0  0  0  0  0  0  0  0  0
   37.7780   30.3860   52.3750 H   0  0  0  0  0  0  0  0  0  0  0  0
   38.9000   30.8660   50.1790 H   0  0  0  0  0  0  0  0  0  0  0  0
   34.5560   28.6630   50.2700 H   0  0  0  0  0  0  0  0  0  0  0  0
   39.9170   31.4000   46.4240 O   0  0  0  0  0  0  0  0  0  0  0  0
   39.9170   30.9720   45.0810 C   0  0  0  0  0  0  0  0  0  0  0  0
   40.5420   31.4830   43.9530 C   0  0  0  0  0  0  0  0  0  0  0  0
   41.1630   32.3560   43.9870 H   0  0  0  0  0  0  0  0  0  0  0  0
   40.2240   30.7070   42.8990 N   0  0  0  0  0  0  0  0  0  0  0  0
   40.5710   30.8790   41.9300 H   0  0  0  0  0  0  0  0  0  0  0  0
   39.4160   29.7360   43.3840 C   0  0  0  0  0  0  0  0  0  0  0  0
   39.0460   28.9950   42.6690 H   0  0  0  0  0  0  0  0  0  0  0  0
   39.2200   29.8850   44.7080 N   0  0  0  0  0  0  0  0  0  0  0  0
  2  5  1  0  0  0  0
  2  1  2  1  0  0  0
  3  2  1  0  0  0  0
  4  3  1  0  0  0  0
  5  8  1  0  0  0  0
  6 12  1  0  0  0  0
  7  6  2  0  0  0  0
  8  9  2  0  0  0  0
  8  7  1  0  0  0  0
  9 10  1  0  0  0  0
 10 14  1  0  0  0  0
 10 11  2  0  0  0  0
 11  6  1  0  0  0  0
 13  7  1  0  0  0  0
 15  2  1  0  0  0  0
 16 15  1  0  0  0  0
 17 18  1  0  0  0  0
 17 16  2  0  0  0  0
 19 21  1  0  0  0  0
 19 17  1  0  0  0  0
 20 19  1  0  0  0  0
 21 23  2  0  0  0  0
 22 21  1  0  0  0  0
 23 16  1  0  0  0  0
M  END
>  <minimizedAffinity>
-4.97876358

>  <minimizedRMSD>
1.86691618

$$$$
