
 OpenBabel03262522183D

 23 24  0  0  0  0  0  0  0  0999 V2000
   37.3380   33.7600   49.4420 O   0  0  0  0  0  0  0  0  0  0  0  0
   38.4580   32.9240   48.8280 P   0  0  1  0  0  0  0  0  0  0  0  0
   39.9150   33.7850   49.0280 O   0  0  0  0  0  0  0  0  0  0  0  0
   39.7780   34.5780   49.5910 H   0  0  0  0  0  0  0  0  0  0  0  0
   38.6110   31.5130   49.7630 O   0  0  0  0  0  0  0  0  0  0  0  0
   37.2870   30.3330   51.3520 C   0  0  0  0  0  0  0  0  0  0  0  0
   37.6530   30.5860   50.0200 C   0  0  0  0  0  0  0  0  0  0  0  0
   36.9810   29.8440   49.0360 C   0  0  0  0  0  0  0  0  0  0  0  0
   36.0330   28.9350   49.4000 N   0  0  0  0  0  0  0  0  0  0  0  0
   35.7270   28.7370   50.7090 C   0  0  0  0  0  0  0  0  0  0  0  0
   36.3480   29.4300   51.6840 N   0  0  0  0  0  0  0  0  0  0  0  0
   37.7760   30.8800   52.1460 H   0  0  0  0  0  0  0  0  0  0  0  0
   37.2460   30.0210   47.9960 H   0  0  0  0  0  0  0  0  0  0  0  0
   34.9530   27.9790   50.7830 H   0  0  0  0  0  0  0  0  0  0  0  0
   38.1100   32.6600   47.2300 O   0  0  0  0  0  0  0  0  0  0  0  0
   39.0290   32.5400   46.1970 C   0  0  0  0  0  0  0  0  0  0  0  0
   38.5170   32.5190   44.9060 C   0  0  0  0  0  0  0  0  0  0  0  0
   37.5190   32.5780   44.4750 H   0  0  0  0  0  0  0  0  0  0  0  0
   39.5860   32.3970   44.0720 N   0  0  0  0  0  0  0  0  0  0  0  0
   39.6060   32.3460   43.0310 H   0  0  0  0  0  0  0  0  0  0  0  0
   40.7320   32.3420   44.8090 C   0  0  0  0  0  0  0  0  0  0  0  0
   41.7400   32.2440   44.4270 H   0  0  0  0  0  0  0  0  0  0  0  0
   40.3690   32.4310   46.1040 N   0  0  0  0  0  0  0  0  0  0  0  0
  2  3  1  0  0  0  0
  2  1  2  1  0  0  0
  2  5  1  0  0  0  0
  3  4  1  0  0  0  0
  5  7  1  0  0  0  0
  6 11  1  0  0  0  0
  6 12  1  0  0  0  0
  7  6  2  0  0  0  0
  8  9  2  0  0  0  0
  8  7  1  0  0  0  0
  9 10  1  0  0  0  0
 10 14  1  0  0  0  0
 10 11  2  0  0  0  0
 13  8  1  0  0  0  0
 15  2  1  0  0  0  0
 16 15  1  0  0  0  0
 17 16  2  0  0  0  0
 18 17  1  0  0  0  0
 19 21  1  0  0  0  0
 19 17  1  0  0  0  0
 20 19  1  0  0  0  0
 21 23  2  0  0  0  0
 22 21  1  0  0  0  0
 23 16  1  0  0  0  0
M  END
>  <minimizedAffinity>
-3.99254274

>  <minimizedRMSD>
1.28102553

$$$$
