
 OpenBabel03272508273D

 37 40  0  0  1  0  0  0  0  0999 V2000
   33.7530   28.8770   47.2050 C   0  0  2  0  0  0  0  0  0  0  0  0
   34.4710   28.0940   48.2920 C   0  0  2  0  0  0  0  0  0  0  0  0
   33.5590   27.9160   49.2850 O   0  0  0  0  0  0  0  0  0  0  0  0
   32.2890   28.0020   48.7970 C   0  0  0  0  0  0  0  0  0  0  0  0
   32.3710   28.2220   47.3040 C   0  0  1  0  0  0  0  0  0  0  0  0
   33.6680   29.9480   47.4330 H   0  0  0  0  0  0  0  0  0  0  0  0
   34.7560   27.1210   47.8720 H   0  0  0  0  0  0  0  0  0  0  0  0
   31.8000   28.9070   49.2440 H   0  0  0  0  0  0  0  0  0  0  0  0
   31.6410   27.1430   49.0630 H   0  0  0  0  0  0  0  0  0  0  0  0
   32.3780   27.2240   46.8230 H   0  0  0  0  0  0  0  0  0  0  0  0
   35.5540   30.3430   48.9700 C   0  0  1  0  0  0  0  0  0  0  0  0
   35.6340   28.9210   48.7390 C   0  0  1  0  0  0  0  0  0  0  0  0
   35.7710   29.3860   50.1510 C   0  0  0  0  0  0  0  0  0  0  0  0
   34.6490   30.9520   49.1490 H   0  0  0  0  0  0  0  0  0  0  0  0
   36.6020   28.5580   48.2860 H   0  0  0  0  0  0  0  0  0  0  0  0
   34.9520   29.2140   50.8610 H   0  0  0  0  0  0  0  0  0  0  0  0
   36.7780   29.3730   50.6390 H   0  0  0  0  0  0  0  0  0  0  0  0
   36.7580   31.2460   48.7490 C   0  0  0  0  0  0  0  0  0  0  0  0
   37.0180   32.2250   49.7090 C   0  0  0  0  0  0  0  0  0  0  0  0
   38.1100   33.0300   49.4490 C   0  0  0  0  0  0  0  0  0  0  0  0
   38.8640   32.8600   48.3240 N   0  0  0  0  0  0  0  0  0  0  0  0
   38.5770   31.8920   47.4100 C   0  0  0  0  0  0  0  0  0  0  0  0
   37.5110   31.0810   47.6310 N   0  0  0  0  0  0  0  0  0  0  0  0
   36.3990   32.3250   50.5790 H   0  0  0  0  0  0  0  0  0  0  0  0
   38.3820   33.8210   50.1530 H   0  0  0  0  0  0  0  0  0  0  0  0
   39.2000   31.7910   46.5320 H   0  0  0  0  0  0  0  0  0  0  0  0
   34.3000   28.7230   45.9470 O   0  0  0  0  0  0  0  0  0  0  0  0
   35.2820   28.6740   46.0770 H   0  0  0  0  0  0  0  0  0  0  0  0
   31.3850   29.0140   46.7870 O   0  0  0  0  0  0  0  0  0  0  0  0
   30.0390   28.6940   46.8920 C   0  0  0  0  0  0  0  0  0  0  0  0
   29.5180   27.5850   46.2600 C   0  0  0  0  0  0  0  0  0  0  0  0
   29.9730   26.8190   45.6270 H   0  0  0  0  0  0  0  0  0  0  0  0
   28.1900   27.4720   46.5010 N   0  0  0  0  0  0  0  0  0  0  0  0
   27.4590   26.7970   46.2150 H   0  0  0  0  0  0  0  0  0  0  0  0
   27.8740   28.5310   47.2990 C   0  0  0  0  0  0  0  0  0  0  0  0
   26.9130   28.7960   47.7110 H   0  0  0  0  0  0  0  0  0  0  0  0
   28.9710   29.2500   47.5280 N   0  0  0  0  0  0  0  0  0  0  0  0
  1  5  1  0  0  0  0
  1  6  1  1  0  0  0
  1  2  1  0  0  0  0
  2  7  1  6  0  0  0
  2 12  1  0  0  0  0
  2  3  1  0  0  0  0
  4  9  1  0  0  0  0
  4  8  1  0  0  0  0
  4  3  1  0  0  0  0
  5 10  1  6  0  0  0
  5  4  1  0  0  0  0
 11 14  1  6  0  0  0
 11 13  1  0  0  0  0
 12 15  1  6  0  0  0
 12 11  1  0  0  0  0
 12 13  1  0  0  0  0
 13 17  1  0  0  0  0
 13 16  1  0  0  0  0
 18 11  1  0  0  0  0
 18 19  1  0  0  0  0
 19 24  1  0  0  0  0
 20 19  2  0  0  0  0
 20 25  1  0  0  0  0
 21 20  1  0  0  0  0
 22 23  1  0  0  0  0
 22 21  2  0  0  0  0
 23 18  2  0  0  0  0
 26 22  1  0  0  0  0
 27 28  1  0  0  0  0
 27  1  1  0  0  0  0
 29 30  1  0  0  0  0
 29  5  1  0  0  0  0
 30 37  1  0  0  0  0
 31 33  1  0  0  0  0
 31 30  2  0  0  0  0
 32 31  1  0  0  0  0
 33 35  1  0  0  0  0
 34 33  1  0  0  0  0
 35 37  2  0  0  0  0
 35 36  1  0  0  0  0
M  END
>  <minimizedAffinity>
-5.17522907

>  <minimizedRMSD>
1.09707665

$$$$
