
 OpenBabel03272504203D

 26 27  0  0  0  0  0  0  0  0999 V2000
   35.6970   30.4840   50.3170 O   0  0  0  0  0  0  0  0  0  0  0  0
   34.8780   29.3860   50.3490 C   0  0  0  0  0  0  0  0  0  0  0  0
   34.1770   29.4910   51.2280 H   0  0  0  0  0  0  0  0  0  0  0  0
   35.4060   28.4250   50.5330 H   0  0  0  0  0  0  0  0  0  0  0  0
   34.1160   29.1850   49.0910 C   0  0  0  0  0  0  0  0  0  0  0  0
   34.3450   30.0870   48.0560 C   0  0  0  0  0  0  0  0  0  0  0  0
   33.6300   29.9080   46.8610 C   0  0  0  0  0  0  0  0  0  0  0  0
   32.7610   28.8680   46.7930 N   0  0  0  0  0  0  0  0  0  0  0  0
   32.5560   28.0140   47.8030 C   0  0  0  0  0  0  0  0  0  0  0  0
   33.2340   28.1770   48.9450 N   0  0  0  0  0  0  0  0  0  0  0  0
   35.0350   30.9230   48.0910 H   0  0  0  0  0  0  0  0  0  0  0  0
   33.7590   30.5680   46.0180 H   0  0  0  0  0  0  0  0  0  0  0  0
   31.8610   27.1860   47.7450 H   0  0  0  0  0  0  0  0  0  0  0  0
   37.3340   28.4320   50.2210 O   0  0  0  0  0  0  0  0  0  0  0  0
   37.2940   29.9370   50.2060 P   0  0  2  0  0  0  0  0  0  0  0  0
   38.1760   30.4820   51.5670 O   0  0  0  0  0  0  0  0  0  0  0  0
   38.3220   31.4500   51.4220 H   0  0  0  0  0  0  0  0  0  0  0  0
   38.0250   30.4970   48.7840 O   0  0  0  0  0  0  0  0  0  0  0  0
   38.4990   31.8070   48.7150 C   0  0  0  0  0  0  0  0  0  0  0  0
   38.9360   32.3660   47.5300 C   0  0  0  0  0  0  0  0  0  0  0  0
   39.0080   31.9760   46.5060 H   0  0  0  0  0  0  0  0  0  0  0  0
   39.3400   33.6430   47.7420 N   0  0  0  0  0  0  0  0  0  0  0  0
   39.7290   34.4030   47.1430 H   0  0  0  0  0  0  0  0  0  0  0  0
   39.1560   33.8850   49.0650 C   0  0  0  0  0  0  0  0  0  0  0  0
   39.3190   34.7390   49.7360 H   0  0  0  0  0  0  0  0  0  0  0  0
   38.6540   32.7790   49.6250 N   0  0  0  0  0  0  0  0  0  0  0  0
  1  2  1  0  0  0  0
  2  4  1  0  0  0  0
  2  3  1  0  0  0  0
  5  2  1  0  0  0  0
  6 11  1  0  0  0  0
  6  5  2  0  0  0  0
  7  6  1  0  0  0  0
  8  7  2  0  0  0  0
  8  9  1  0  0  0  0
  9 10  2  0  0  0  0
 10  5  1  0  0  0  0
 12  7  1  0  0  0  0
 13  9  1  0  0  0  0
 15 14  2  6  0  0  0
 15  1  1  0  0  0  0
 15 16  1  0  0  0  0
 17 16  1  0  0  0  0
 18 15  1  0  0  0  0
 19 18  1  0  0  0  0
 19 26  1  0  0  0  0
 20 22  1  0  0  0  0
 20 19  2  0  0  0  0
 21 20  1  0  0  0  0
 22 24  1  0  0  0  0
 23 22  1  0  0  0  0
 24 26  2  0  0  0  0
 24 25  1  0  0  0  0
M  END
>  <minimizedAffinity>
-4.46483469

>  <minimizedRMSD>
2.61680698

$$$$
