
 OpenBabel03272508273D

 37 40  0  0  1  0  0  0  0  0999 V2000
   33.6270   28.7680   47.1700 C   0  0  2  0  0  0  0  0  0  0  0  0
   34.3540   27.9880   48.2520 C   0  0  2  0  0  0  0  0  0  0  0  0
   33.4490   27.8030   49.2490 O   0  0  0  0  0  0  0  0  0  0  0  0
   32.1760   27.8830   48.7680 C   0  0  0  0  0  0  0  0  0  0  0  0
   32.2490   28.1050   47.2750 C   0  0  1  0  0  0  0  0  0  0  0  0
   33.5370   29.8380   47.4000 H   0  0  0  0  0  0  0  0  0  0  0  0
   34.6430   27.0170   47.8300 H   0  0  0  0  0  0  0  0  0  0  0  0
   31.6840   28.7840   49.2180 H   0  0  0  0  0  0  0  0  0  0  0  0
   31.5340   27.0200   49.0360 H   0  0  0  0  0  0  0  0  0  0  0  0
   32.2600   27.1070   46.7930 H   0  0  0  0  0  0  0  0  0  0  0  0
   35.4200   30.2370   48.9610 C   0  0  1  0  0  0  0  0  0  0  0  0
   35.5150   28.8210   48.6950 C   0  0  1  0  0  0  0  0  0  0  0  0
   35.6750   29.2550   50.1140 C   0  0  0  0  0  0  0  0  0  0  0  0
   34.5100   30.8270   49.1720 H   0  0  0  0  0  0  0  0  0  0  0  0
   36.4790   28.4830   48.2130 H   0  0  0  0  0  0  0  0  0  0  0  0
   34.8730   29.0550   50.8370 H   0  0  0  0  0  0  0  0  0  0  0  0
   36.6920   29.2460   50.5810 H   0  0  0  0  0  0  0  0  0  0  0  0
   36.6060   31.1620   48.7360 C   0  0  0  0  0  0  0  0  0  0  0  0
   36.9060   32.0850   49.7380 C   0  0  0  0  0  0  0  0  0  0  0  0
   37.9780   32.9150   49.4740 C   0  0  0  0  0  0  0  0  0  0  0  0
   38.6800   32.8170   48.3070 N   0  0  0  0  0  0  0  0  0  0  0  0
   38.3550   31.9000   47.3530 C   0  0  0  0  0  0  0  0  0  0  0  0
   37.3060   31.0690   47.5760 N   0  0  0  0  0  0  0  0  0  0  0  0
   36.3280   32.1290   50.6410 H   0  0  0  0  0  0  0  0  0  0  0  0
   38.2790   33.6650   50.2100 H   0  0  0  0  0  0  0  0  0  0  0  0
   38.9360   31.8570   46.4420 H   0  0  0  0  0  0  0  0  0  0  0  0
   34.1690   28.6190   45.9090 O   0  0  0  0  0  0  0  0  0  0  0  0
   35.1520   28.5760   46.0340 H   0  0  0  0  0  0  0  0  0  0  0  0
   31.2560   28.8920   46.7640 O   0  0  0  0  0  0  0  0  0  0  0  0
   29.9160   28.5400   46.8310 C   0  0  0  0  0  0  0  0  0  0  0  0
   28.9300   29.4990   46.9230 C   0  0  0  0  0  0  0  0  0  0  0  0
   28.9700   30.5920   46.9600 H   0  0  0  0  0  0  0  0  0  0  0  0
   27.7040   28.9290   46.9760 N   0  0  0  0  0  0  0  0  0  0  0  0
   26.7370   29.2950   47.0460 H   0  0  0  0  0  0  0  0  0  0  0  0
   27.9250   27.5840   46.9150 C   0  0  0  0  0  0  0  0  0  0  0  0
   27.2010   26.7850   46.9290 H   0  0  0  0  0  0  0  0  0  0  0  0
   29.2350   27.3610   46.8300 N   0  0  0  0  0  0  0  0  0  0  0  0
  1  5  1  0  0  0  0
  1  6  1  1  0  0  0
  1  2  1  0  0  0  0
  2  7  1  6  0  0  0
  2 12  1  0  0  0  0
  2  3  1  0  0  0  0
  4  9  1  0  0  0  0
  4  8  1  0  0  0  0
  4  3  1  0  0  0  0
  5 10  1  6  0  0  0
  5  4  1  0  0  0  0
 11 14  1  6  0  0  0
 11 13  1  0  0  0  0
 12 15  1  6  0  0  0
 12 11  1  0  0  0  0
 12 13  1  0  0  0  0
 13 17  1  0  0  0  0
 13 16  1  0  0  0  0
 18 11  1  0  0  0  0
 18 19  1  0  0  0  0
 19 24  1  0  0  0  0
 20 19  2  0  0  0  0
 20 25  1  0  0  0  0
 21 20  1  0  0  0  0
 22 23  1  0  0  0  0
 22 21  2  0  0  0  0
 23 18  2  0  0  0  0
 26 22  1  0  0  0  0
 27 28  1  0  0  0  0
 27  1  1  0  0  0  0
 29 30  1  0  0  0  0
 29  5  1  0  0  0  0
 30 31  2  0  0  0  0
 31 32  1  0  0  0  0
 31 33  1  0  0  0  0
 33 34  1  0  0  0  0
 35 36  1  0  0  0  0
 35 33  1  0  0  0  0
 37 30  1  0  0  0  0
 37 35  2  0  0  0  0
M  END
>  <minimizedAffinity>
-5.12244892

>  <minimizedRMSD>
1.19725645

$$$$
