
 OpenBabel03272510293D

 27 29  0  0  0  0  0  0  0  0999 V2000
   37.1990   31.3370   49.2060 C   0  0  0  0  0  0  0  0  0  0  0  0
   37.3690   32.6040   49.7650 C   0  0  0  0  0  0  0  0  0  0  0  0
   38.3220   33.4050   49.1560 C   0  0  0  0  0  0  0  0  0  0  0  0
   39.0230   32.9370   48.0800 N   0  0  0  0  0  0  0  0  0  0  0  0
   38.8270   31.6910   47.5610 C   0  0  0  0  0  0  0  0  0  0  0  0
   37.8910   30.8770   48.1460 N   0  0  0  0  0  0  0  0  0  0  0  0
   36.8080   32.9500   50.6090 H   0  0  0  0  0  0  0  0  0  0  0  0
   38.5450   34.3900   49.4880 H   0  0  0  0  0  0  0  0  0  0  0  0
   36.1500   30.4460   49.8150 C   0  0  0  0  0  0  0  0  0  0  0  0
   36.1400   29.0160   49.6240 C   0  0  0  0  0  0  0  0  0  0  0  0
   36.7010   29.5440   50.9240 C   0  0  0  0  0  0  0  0  0  0  0  0
   35.1780   30.9540   50.0880 H   0  0  0  0  0  0  0  0  0  0  0  0
   35.2200   28.4350   49.6120 H   0  0  0  0  0  0  0  0  0  0  0  0
   36.9070   28.6010   48.9170 H   0  0  0  0  0  0  0  0  0  0  0  0
   37.7730   29.5570   51.1170 H   0  0  0  0  0  0  0  0  0  0  0  0
   36.0160   29.3650   51.7760 H   0  0  0  0  0  0  0  0  0  0  0  0
   39.5450   31.1500   46.4130 C   0  0  0  0  0  0  0  0  0  0  0  0
   40.6440   31.2320   46.6500 H   0  0  0  0  0  0  0  0  0  0  0  0
   39.3260   30.0830   46.3270 H   0  0  0  0  0  0  0  0  0  0  0  0
   39.2340   31.8800   45.1440 C   0  0  0  0  0  0  0  0  0  0  0  0
   40.0340   32.5700   44.2590 C   0  0  0  0  0  0  0  0  0  0  0  0
   41.1020   32.6720   44.3970 H   0  0  0  0  0  0  0  0  0  0  0  0
   39.2010   33.0210   43.2920 N   0  0  0  0  0  0  0  0  0  0  0  0
   39.5350   33.5870   42.4730 H   0  0  0  0  0  0  0  0  0  0  0  0
   37.9380   32.6510   43.5310 C   0  0  0  0  0  0  0  0  0  0  0  0
   37.0670   32.8630   42.9430 H   0  0  0  0  0  0  0  0  0  0  0  0
   37.9630   31.9390   44.6880 N   0  0  0  0  0  0  0  0  0  0  0  0
  1  2  1  0  0  0  0
  1  9  1  0  0  0  0
  2  7  1  0  0  0  0
  3  8  1  0  0  0  0
  3  2  2  0  0  0  0
  4  3  1  0  0  0  0
  5  4  2  0  0  0  0
  5  6  1  0  0  0  0
  6  1  2  0  0  0  0
  9 12  1  0  0  0  0
  9 11  1  0  0  0  0
 10  9  1  0  0  0  0
 10 11  1  0  0  0  0
 11 15  1  0  0  0  0
 11 16  1  0  0  0  0
 13 10  1  0  0  0  0
 14 10  1  0  0  0  0
 17 18  1  0  0  0  0
 17  5  1  0  0  0  0
 19 17  1  0  0  0  0
 20 17  1  0  0  0  0
 21 22  1  0  0  0  0
 21 20  2  0  0  0  0
 23 25  1  0  0  0  0
 23 21  1  0  0  0  0
 24 23  1  0  0  0  0
 25 27  2  0  0  0  0
 26 25  1  0  0  0  0
 27 20  1  0  0  0  0
M  END
>  <minimizedAffinity>
-5.15785265

>  <minimizedRMSD>
1.16990817

$$$$
