
 OpenBabel03272508273D

 37 40  0  0  1  0  0  0  0  0999 V2000
   33.9960   29.0020   47.3480 C   0  0  2  0  0  0  0  0  0  0  0  0
   34.7470   28.2430   48.4300 C   0  0  2  0  0  0  0  0  0  0  0  0
   33.8540   28.0500   49.4360 O   0  0  0  0  0  0  0  0  0  0  0  0
   32.5760   28.1030   48.9660 C   0  0  0  0  0  0  0  0  0  0  0  0
   32.6310   28.3160   47.4710 C   0  0  1  0  0  0  0  0  0  0  0  0
   33.8890   30.0720   47.5710 H   0  0  0  0  0  0  0  0  0  0  0  0
   35.0490   27.2740   48.0120 H   0  0  0  0  0  0  0  0  0  0  0  0
   32.0720   28.9990   49.4140 H   0  0  0  0  0  0  0  0  0  0  0  0
   31.9510   27.2310   49.2460 H   0  0  0  0  0  0  0  0  0  0  0  0
   32.6550   27.3150   46.9960 H   0  0  0  0  0  0  0  0  0  0  0  0
   35.7950   30.5270   49.0450 C   0  0  1  0  0  0  0  0  0  0  0  0
   35.8960   29.0990   48.8550 C   0  0  1  0  0  0  0  0  0  0  0  0
   36.0240   29.6070   50.2540 C   0  0  0  0  0  0  0  0  0  0  0  0
   34.8800   31.1260   49.2050 H   0  0  0  0  0  0  0  0  0  0  0  0
   36.8710   28.7390   48.4130 H   0  0  0  0  0  0  0  0  0  0  0  0
   35.2060   29.4430   50.9670 H   0  0  0  0  0  0  0  0  0  0  0  0
   37.0300   29.6220   50.7430 H   0  0  0  0  0  0  0  0  0  0  0  0
   36.9860   31.4410   48.8010 C   0  0  0  0  0  0  0  0  0  0  0  0
   37.1830   32.4990   49.6900 C   0  0  0  0  0  0  0  0  0  0  0  0
   38.2660   33.3100   49.4090 C   0  0  0  0  0  0  0  0  0  0  0  0
   39.0700   33.0720   48.3320 N   0  0  0  0  0  0  0  0  0  0  0  0
   38.8430   32.0280   47.4870 C   0  0  0  0  0  0  0  0  0  0  0  0
   37.7880   31.2090   47.7300 N   0  0  0  0  0  0  0  0  0  0  0  0
   36.5270   32.6500   50.5240 H   0  0  0  0  0  0  0  0  0  0  0  0
   38.4900   34.1600   50.0590 H   0  0  0  0  0  0  0  0  0  0  0  0
   39.5030   31.8750   46.6450 H   0  0  0  0  0  0  0  0  0  0  0  0
   34.5290   28.8530   46.0830 O   0  0  0  0  0  0  0  0  0  0  0  0
   35.5130   28.8280   46.1990 H   0  0  0  0  0  0  0  0  0  0  0  0
   31.6200   29.0810   46.9640 O   0  0  0  0  0  0  0  0  0  0  0  0
   30.7760   28.6320   45.9580 C   0  0  0  0  0  0  0  0  0  0  0  0
   31.0490   28.8900   44.6310 C   0  0  0  0  0  0  0  0  0  0  0  0
   31.8660   29.4230   44.1390 H   0  0  0  0  0  0  0  0  0  0  0  0
   30.0940   28.3590   43.8320 N   0  0  0  0  0  0  0  0  0  0  0  0
   29.9400   28.3350   42.8060 H   0  0  0  0  0  0  0  0  0  0  0  0
   29.2060   27.7580   44.6730 C   0  0  0  0  0  0  0  0  0  0  0  0
   28.3040   27.2220   44.4230 H   0  0  0  0  0  0  0  0  0  0  0  0
   29.6140   27.9220   45.9290 N   0  0  0  0  0  0  0  0  0  0  0  0
  1  5  1  0  0  0  0
  1  6  1  1  0  0  0
  1  2  1  0  0  0  0
  2  7  1  6  0  0  0
  2 12  1  0  0  0  0
  2  3  1  0  0  0  0
  4  9  1  0  0  0  0
  4  8  1  0  0  0  0
  4  3  1  0  0  0  0
  5 10  1  6  0  0  0
  5  4  1  0  0  0  0
 11 14  1  6  0  0  0
 11 13  1  0  0  0  0
 12 15  1  6  0  0  0
 12 11  1  0  0  0  0
 12 13  1  0  0  0  0
 13 17  1  0  0  0  0
 13 16  1  0  0  0  0
 18 11  1  0  0  0  0
 18 19  1  0  0  0  0
 19 24  1  0  0  0  0
 20 19  2  0  0  0  0
 20 25  1  0  0  0  0
 21 20  1  0  0  0  0
 22 23  1  0  0  0  0
 22 21  2  0  0  0  0
 23 18  2  0  0  0  0
 26 22  1  0  0  0  0
 27 28  1  0  0  0  0
 27  1  1  0  0  0  0
 29  5  1  0  0  0  0
 30 29  1  0  0  0  0
 31 30  2  0  0  0  0
 32 31  1  0  0  0  0
 33 31  1  0  0  0  0
 33 35  1  0  0  0  0
 34 33  1  0  0  0  0
 35 37  2  0  0  0  0
 36 35  1  0  0  0  0
 37 30  1  0  0  0  0
M  END
>  <minimizedAffinity>
-4.70859909

>  <minimizedRMSD>
0.124108121

$$$$
