
 OpenBabel03272508273D

 37 40  0  0  1  0  0  0  0  0999 V2000
   33.9710   29.0100   47.3290 C   0  0  2  0  0  0  0  0  0  0  0  0
   34.7210   28.2400   48.4030 C   0  0  2  0  0  0  0  0  0  0  0  0
   33.8310   28.0460   49.4110 O   0  0  0  0  0  0  0  0  0  0  0  0
   32.5510   28.1090   48.9460 C   0  0  0  0  0  0  0  0  0  0  0  0
   32.6020   28.3310   47.4520 C   0  0  1  0  0  0  0  0  0  0  0  0
   33.8710   30.0790   47.5580 H   0  0  0  0  0  0  0  0  0  0  0  0
   35.0160   27.2720   47.9780 H   0  0  0  0  0  0  0  0  0  0  0  0
   32.0540   29.0050   49.4010 H   0  0  0  0  0  0  0  0  0  0  0  0
   31.9230   27.2390   49.2230 H   0  0  0  0  0  0  0  0  0  0  0  0
   32.6190   27.3330   46.9710 H   0  0  0  0  0  0  0  0  0  0  0  0
   35.7810   30.5120   49.0400 C   0  0  1  0  0  0  0  0  0  0  0  0
   35.8770   29.0870   48.8290 C   0  0  1  0  0  0  0  0  0  0  0  0
   36.0180   29.5750   50.2330 C   0  0  0  0  0  0  0  0  0  0  0  0
   34.8700   31.1120   49.2160 H   0  0  0  0  0  0  0  0  0  0  0  0
   36.8470   28.7300   48.3740 H   0  0  0  0  0  0  0  0  0  0  0  0
   35.2070   29.4040   50.9520 H   0  0  0  0  0  0  0  0  0  0  0  0
   37.0290   29.5810   50.7140 H   0  0  0  0  0  0  0  0  0  0  0  0
   36.9730   31.4270   48.7970 C   0  0  0  0  0  0  0  0  0  0  0  0
   37.1760   32.4760   49.6930 C   0  0  0  0  0  0  0  0  0  0  0  0
   38.2590   33.2880   49.4150 C   0  0  0  0  0  0  0  0  0  0  0  0
   39.0570   33.0570   48.3310 N   0  0  0  0  0  0  0  0  0  0  0  0
   38.8250   32.0200   47.4800 C   0  0  0  0  0  0  0  0  0  0  0  0
   37.7690   31.2010   47.7210 N   0  0  0  0  0  0  0  0  0  0  0  0
   36.5240   32.6220   50.5320 H   0  0  0  0  0  0  0  0  0  0  0  0
   38.4880   34.1320   50.0700 H   0  0  0  0  0  0  0  0  0  0  0  0
   39.4810   31.8740   46.6340 H   0  0  0  0  0  0  0  0  0  0  0  0
   34.4980   28.8650   46.0610 O   0  0  0  0  0  0  0  0  0  0  0  0
   35.4830   28.8340   46.1730 H   0  0  0  0  0  0  0  0  0  0  0  0
   31.5940   29.1050   46.9530 O   0  0  0  0  0  0  0  0  0  0  0  0
   30.6730   28.6280   46.0320 C   0  0  0  0  0  0  0  0  0  0  0  0
   31.0760   28.1350   44.8090 C   0  0  0  0  0  0  0  0  0  0  0  0
   32.0630   28.0210   44.3520 H   0  0  0  0  0  0  0  0  0  0  0  0
   30.0130   27.7290   44.0770 N   0  0  0  0  0  0  0  0  0  0  0  0
   29.8990   27.3120   43.1350 H   0  0  0  0  0  0  0  0  0  0  0  0
   28.9200   27.9720   44.8570 C   0  0  0  0  0  0  0  0  0  0  0  0
   27.8820   27.7870   44.6310 H   0  0  0  0  0  0  0  0  0  0  0  0
   29.3170   28.5030   46.0110 N   0  0  0  0  0  0  0  0  0  0  0  0
  1  5  1  0  0  0  0
  1  6  1  1  0  0  0
  1  2  1  0  0  0  0
  2  7  1  6  0  0  0
  2 12  1  0  0  0  0
  2  3  1  0  0  0  0
  4  9  1  0  0  0  0
  4  8  1  0  0  0  0
  4  3  1  0  0  0  0
  5 10  1  6  0  0  0
  5  4  1  0  0  0  0
 11 14  1  6  0  0  0
 11 13  1  0  0  0  0
 12 15  1  6  0  0  0
 12 11  1  0  0  0  0
 12 13  1  0  0  0  0
 13 17  1  0  0  0  0
 13 16  1  0  0  0  0
 18 11  1  0  0  0  0
 18 19  1  0  0  0  0
 19 24  1  0  0  0  0
 20 19  2  0  0  0  0
 20 25  1  0  0  0  0
 21 20  1  0  0  0  0
 22 23  1  0  0  0  0
 22 21  2  0  0  0  0
 23 18  2  0  0  0  0
 26 22  1  0  0  0  0
 27 28  1  0  0  0  0
 27  1  1  0  0  0  0
 29  5  1  0  0  0  0
 30 29  1  0  0  0  0
 31 30  2  0  0  0  0
 32 31  1  0  0  0  0
 33 31  1  0  0  0  0
 33 35  1  0  0  0  0
 34 33  1  0  0  0  0
 35 37  2  0  0  0  0
 36 35  1  0  0  0  0
 37 30  1  0  0  0  0
M  END
>  <minimizedAffinity>
-4.72447777

>  <minimizedRMSD>
0.113851815

$$$$
