
 OpenBabel03272510293D

 27 29  0  0  0  0  0  0  0  0999 V2000
   37.1910   31.3270   49.1950 C   0  0  0  0  0  0  0  0  0  0  0  0
   37.3720   32.5760   49.7880 C   0  0  0  0  0  0  0  0  0  0  0  0
   38.3340   33.3830   49.2020 C   0  0  0  0  0  0  0  0  0  0  0  0
   39.0330   32.9380   48.1160 N   0  0  0  0  0  0  0  0  0  0  0  0
   38.8260   31.7080   47.5630 C   0  0  0  0  0  0  0  0  0  0  0  0
   37.8800   30.8880   48.1240 N   0  0  0  0  0  0  0  0  0  0  0  0
   36.8130   32.9040   50.6400 H   0  0  0  0  0  0  0  0  0  0  0  0
   38.5670   34.3560   49.5610 H   0  0  0  0  0  0  0  0  0  0  0  0
   36.1310   30.4290   49.7780 C   0  0  0  0  0  0  0  0  0  0  0  0
   36.1340   29.0000   49.5880 C   0  0  0  0  0  0  0  0  0  0  0  0
   36.6590   29.5320   50.9010 C   0  0  0  0  0  0  0  0  0  0  0  0
   35.1500   30.9320   50.0250 H   0  0  0  0  0  0  0  0  0  0  0  0
   35.2180   28.4130   49.5530 H   0  0  0  0  0  0  0  0  0  0  0  0
   36.9210   28.5880   48.9010 H   0  0  0  0  0  0  0  0  0  0  0  0
   37.7260   29.5510   51.1220 H   0  0  0  0  0  0  0  0  0  0  0  0
   35.9530   29.3500   51.7360 H   0  0  0  0  0  0  0  0  0  0  0  0
   39.5410   31.1900   46.4020 C   0  0  0  0  0  0  0  0  0  0  0  0
   40.5440   31.7030   46.3850 H   0  0  0  0  0  0  0  0  0  0  0  0
   39.7380   30.1260   46.5510 H   0  0  0  0  0  0  0  0  0  0  0  0
   38.8100   31.4400   45.1190 C   0  0  0  0  0  0  0  0  0  0  0  0
   37.9200   32.4220   44.7450 C   0  0  0  0  0  0  0  0  0  0  0  0
   37.6120   33.2150   45.4120 H   0  0  0  0  0  0  0  0  0  0  0  0
   37.5870   32.1410   43.4620 N   0  0  0  0  0  0  0  0  0  0  0  0
   36.9150   32.7270   42.9080 H   0  0  0  0  0  0  0  0  0  0  0  0
   38.2200   31.0450   43.0290 C   0  0  0  0  0  0  0  0  0  0  0  0
   38.1530   30.5840   42.0630 H   0  0  0  0  0  0  0  0  0  0  0  0
   38.9820   30.6110   44.0660 N   0  0  0  0  0  0  0  0  0  0  0  0
  1  9  1  0  0  0  0
  1  2  1  0  0  0  0
  2  7  1  0  0  0  0
  3  8  1  0  0  0  0
  3  2  2  0  0  0  0
  4  3  1  0  0  0  0
  5  4  2  0  0  0  0
  5  6  1  0  0  0  0
  6  1  2  0  0  0  0
  9 12  1  0  0  0  0
  9 11  1  0  0  0  0
 10  9  1  0  0  0  0
 10 11  1  0  0  0  0
 11 15  1  0  0  0  0
 11 16  1  0  0  0  0
 13 10  1  0  0  0  0
 14 10  1  0  0  0  0
 17 19  1  0  0  0  0
 17  5  1  0  0  0  0
 18 17  1  0  0  0  0
 20 17  1  0  0  0  0
 21 20  2  0  0  0  0
 21 22  1  0  0  0  0
 23 21  1  0  0  0  0
 24 23  1  0  0  0  0
 25 23  1  0  0  0  0
 25 27  2  0  0  0  0
 26 25  1  0  0  0  0
 27 20  1  0  0  0  0
M  END
>  <minimizedAffinity>
-5.0237689

>  <minimizedRMSD>
0.602281451

$$$$
