
 OpenBabel03262521053D

 35 37  0  0  0  0  0  0  0  0999 V2000
   38.4040   32.0660   48.5560 Br  0  0  0  0  0  0  0  0  0  0  0  0
   37.4180   31.3630   47.1180 C   0  0  0  0  0  0  0  0  0  0  0  0
   36.4180   30.5040   47.4550 C   0  0  0  0  0  0  0  0  0  0  0  0
   35.6270   29.9280   46.4460 C   0  0  0  0  0  0  0  0  0  0  0  0
   35.8820   30.2500   45.1210 C   0  0  0  0  0  0  0  0  0  0  0  0
   36.8960   31.1150   44.8620 C   0  0  0  0  0  0  0  0  0  0  0  0
   37.6800   31.6870   45.8320 C   0  0  0  0  0  0  0  0  0  0  0  0
   34.8170   29.2390   46.6390 H   0  0  0  0  0  0  0  0  0  0  0  0
   35.2790   29.8130   44.3220 H   0  0  0  0  0  0  0  0  0  0  0  0
   37.0880   31.3600   43.8230 H   0  0  0  0  0  0  0  0  0  0  0  0
   36.8940   29.5160   49.7470 C   0  0  0  0  0  0  0  0  0  0  0  0
   36.0170   30.0600   48.8050 C   0  0  0  0  0  0  0  0  0  0  0  0
   34.6520   30.1920   49.1730 C   0  0  0  0  0  0  0  0  0  0  0  0
   34.3000   29.7740   50.4290 N   0  0  0  0  0  0  0  0  0  0  0  0
   35.1860   29.2620   51.2850 C   0  0  0  0  0  0  0  0  0  0  0  0
   36.4740   29.1300   50.9580 N   0  0  0  0  0  0  0  0  0  0  0  0
   37.9360   29.4250   49.4410 H   0  0  0  0  0  0  0  0  0  0  0  0
   33.9830   30.6100   48.4440 H   0  0  0  0  0  0  0  0  0  0  0  0
   34.7040   28.9960   52.2190 H   0  0  0  0  0  0  0  0  0  0  0  0
   38.7400   32.5910   45.5700 N   0  0  0  0  0  0  0  0  0  0  0  0
   38.5850   33.4720   46.1310 H   0  0  0  0  0  0  0  0  0  0  0  0
   40.1180   32.5070   44.5790 S   0  0  0  0  0  0  0  0  0  0  0  0
   40.4170   31.1050   44.1690 O   0  0  0  0  0  0  0  0  0  0  0  0
   39.8080   30.3270   44.2010 H   0  0  0  0  0  0  0  0  0  0  0  0
   41.3190   33.0360   45.3360 O   0  0  0  0  0  0  0  0  0  0  0  0
   42.2200   32.6280   45.3520 H   0  0  0  0  0  0  0  0  0  0  0  0
   39.8440   33.4580   43.1940 O   0  0  0  0  0  0  0  0  0  0  0  0
   39.1420   32.8430   42.1640 C   0  0  0  0  0  0  0  0  0  0  0  0
   37.8240   33.1480   41.8070 C   0  0  0  0  0  0  0  0  0  0  0  0
   37.1400   33.8710   42.2280 H   0  0  0  0  0  0  0  0  0  0  0  0
   37.5630   32.3070   40.7640 N   0  0  0  0  0  0  0  0  0  0  0  0
   36.6170   32.3150   40.2800 H   0  0  0  0  0  0  0  0  0  0  0  0
   38.6180   31.5260   40.4710 C   0  0  0  0  0  0  0  0  0  0  0  0
   38.6160   30.7900   39.6780 H   0  0  0  0  0  0  0  0  0  0  0  0
   39.5880   31.8710   41.3500 N   0  0  0  0  0  0  0  0  0  0  0  0
  2  3  1  0  0  0  0
  2  1  1  0  0  0  0
  3 12  1  0  0  0  0
  4  8  1  0  0  0  0
  4  3  2  0  0  0  0
  5  4  1  0  0  0  0
  6  5  2  0  0  0  0
  6  7  1  0  0  0  0
  7  2  2  0  0  0  0
  9  5  1  0  0  0  0
 10  6  1  0  0  0  0
 11 16  1  0  0  0  0
 12 13  1  0  0  0  0
 12 11  2  0  0  0  0
 13 14  2  0  0  0  0
 14 15  1  0  0  0  0
 15 19  1  0  0  0  0
 16 15  2  0  0  0  0
 17 11  1  0  0  0  0
 18 13  1  0  0  0  0
 20  7  1  0  0  0  0
 20 21  1  0  0  0  0
 22 25  1  0  0  0  0
 22 20  1  0  0  0  0
 23 24  1  0  0  0  0
 23 22  1  0  0  0  0
 25 26  1  0  0  0  0
 27 22  1  0  0  0  0
 28 27  1  0  0  0  0
 29 28  2  0  0  0  0
 29 30  1  0  0  0  0
 31 29  1  0  0  0  0
 32 31  1  0  0  0  0
 33 31  1  0  0  0  0
 33 35  2  0  0  0  0
 34 33  1  0  0  0  0
 35 28  1  0  0  0  0
M  END
>  <minimizedAffinity>
-5.10721493

>  <minimizedRMSD>
1.66001153

$$$$
