
 OpenBabel03272504193D

 26 27  0  0  0  0  0  0  0  0999 V2000
   38.0860   32.0820   46.9090 O   0  0  0  0  0  0  0  0  0  0  0  0
   38.6810   31.9650   48.1380 C   0  0  0  0  0  0  0  0  0  0  0  0
   38.7610   32.9950   48.5930 H   0  0  0  0  0  0  0  0  0  0  0  0
   39.7300   31.5970   48.1060 H   0  0  0  0  0  0  0  0  0  0  0  0
   37.9630   31.0410   49.0510 C   0  0  0  0  0  0  0  0  0  0  0  0
   37.0710   30.1410   48.4770 C   0  0  0  0  0  0  0  0  0  0  0  0
   36.3850   29.2630   49.3310 C   0  0  0  0  0  0  0  0  0  0  0  0
   36.6380   29.3480   50.6630 N   0  0  0  0  0  0  0  0  0  0  0  0
   37.5010   30.2240   51.1920 C   0  0  0  0  0  0  0  0  0  0  0  0
   38.1580   31.0640   50.3850 N   0  0  0  0  0  0  0  0  0  0  0  0
   36.8560   30.0570   47.4170 H   0  0  0  0  0  0  0  0  0  0  0  0
   35.6800   28.5390   48.9540 H   0  0  0  0  0  0  0  0  0  0  0  0
   37.6990   30.2890   52.2540 H   0  0  0  0  0  0  0  0  0  0  0  0
   40.4500   31.2880   46.0840 O   0  0  0  0  0  0  0  0  0  0  0  0
   39.3100   32.2130   45.7500 P   0  0  2  0  0  0  0  0  0  0  0  0
   39.9320   33.8070   45.7580 O   0  0  0  0  0  0  0  0  0  0  0  0
   39.2380   34.3680   45.3290 H   0  0  0  0  0  0  0  0  0  0  0  0
   38.7230   31.8320   44.2070 O   0  0  0  0  0  0  0  0  0  0  0  0
   37.3740   31.5210   44.0330 C   0  0  0  0  0  0  0  0  0  0  0  0
   36.4990   32.3810   43.3970 C   0  0  0  0  0  0  0  0  0  0  0  0
   36.6300   33.3710   42.9430 H   0  0  0  0  0  0  0  0  0  0  0  0
   35.2580   31.8350   43.3650 N   0  0  0  0  0  0  0  0  0  0  0  0
   34.3300   32.1340   42.9930 H   0  0  0  0  0  0  0  0  0  0  0  0
   35.3560   30.6290   43.9810 C   0  0  0  0  0  0  0  0  0  0  0  0
   34.6630   29.8100   44.2150 H   0  0  0  0  0  0  0  0  0  0  0  0
   36.6240   30.4620   44.3710 N   0  0  0  0  0  0  0  0  0  0  0  0
  1  2  1  0  0  0  0
  2  3  1  0  0  0  0
  2  5  1  0  0  0  0
  4  2  1  0  0  0  0
  5 10  1  0  0  0  0
  6  5  2  0  0  0  0
  6  7  1  0  0  0  0
  7  8  2  0  0  0  0
  8  9  1  0  0  0  0
  9 13  1  0  0  0  0
 10  9  2  0  0  0  0
 11  6  1  0  0  0  0
 12  7  1  0  0  0  0
 15 16  1  0  0  0  0
 15 14  2  1  0  0  0
 15  1  1  0  0  0  0
 17 16  1  0  0  0  0
 18 15  1  0  0  0  0
 19 18  1  0  0  0  0
 19 26  1  0  0  0  0
 20 19  2  0  0  0  0
 21 20  1  0  0  0  0
 22 20  1  0  0  0  0
 22 24  1  0  0  0  0
 23 22  1  0  0  0  0
 24 25  1  0  0  0  0
 24 26  2  0  0  0  0
M  END
>  <minimizedAffinity>
-4.6227541

>  <minimizedRMSD>
5.93277454

$$$$
