
 OpenBabel03272501093D

 39 42  0  0  1  0  0  0  0  0999 V2000
   37.2530   25.4190   31.1260 C   0  0  2  0  0  0  0  0  0  0  0  0
   35.9280   26.1110   31.5670 C   0  0  2  0  0  0  0  0  0  0  0  0
   34.9470   25.3100   30.8560 C   0  0  0  0  0  0  0  0  0  0  0  0
   35.3970   23.9950   30.8320 O   0  0  0  0  0  0  0  0  0  0  0  0
   36.6990   23.9700   31.2260 C   0  0  0  0  0  0  0  0  0  0  0  0
   37.4700   25.6570   30.0850 H   0  0  0  0  0  0  0  0  0  0  0  0
   35.8930   25.9200   32.6620 H   0  0  0  0  0  0  0  0  0  0  0  0
   34.6950   25.5930   29.8380 H   0  0  0  0  0  0  0  0  0  0  0  0
   33.9760   25.3120   31.4280 H   0  0  0  0  0  0  0  0  0  0  0  0
   37.3430   23.2640   30.6930 H   0  0  0  0  0  0  0  0  0  0  0  0
   36.7530   23.7280   32.3050 H   0  0  0  0  0  0  0  0  0  0  0  0
   36.7170   29.4970   30.1340 C   0  0  0  0  0  0  0  0  0  0  0  0
   36.7210   28.0830   30.2850 C   0  0  0  0  0  0  0  0  0  0  0  0
   35.9570   27.5360   31.3530 C   0  0  0  0  0  0  0  0  0  0  0  0
   35.2600   28.3870   32.1790 N   0  0  0  0  0  0  0  0  0  0  0  0
   35.2880   29.7100   31.9970 C   0  0  0  0  0  0  0  0  0  0  0  0
   36.0080   30.2760   30.9850 N   0  0  0  0  0  0  0  0  0  0  0  0
   37.2920   29.8900   29.3330 H   0  0  0  0  0  0  0  0  0  0  0  0
   37.2880   27.4630   29.6050 H   0  0  0  0  0  0  0  0  0  0  0  0
   34.7590   30.4220   32.6170 H   0  0  0  0  0  0  0  0  0  0  0  0
   38.2420   25.5660   32.0470 O   0  0  0  0  0  0  0  0  0  0  0  0
   38.3460   23.1370   33.9390 Cl  0  0  0  0  0  0  0  0  0  0  0  0
   38.3950   24.8030   34.4330 C   0  0  0  0  0  0  0  0  0  0  0  0
   38.3330   25.7090   33.3820 C   0  0  0  0  0  0  0  0  0  0  0  0
   38.3680   27.0480   33.7490 C   0  0  0  0  0  0  0  0  0  0  0  0
   38.4590   27.4360   35.0890 C   0  0  0  0  0  0  0  0  0  0  0  0
   38.5150   26.4890   36.0720 C   0  0  0  0  0  0  0  0  0  0  0  0
   38.4840   25.1490   35.7480 C   0  0  0  0  0  0  0  0  0  0  0  0
   38.3310   27.8870   33.0660 H   0  0  0  0  0  0  0  0  0  0  0  0
   38.4850   28.4990   35.3750 H   0  0  0  0  0  0  0  0  0  0  0  0
   38.5850   26.8630   37.1040 H   0  0  0  0  0  0  0  0  0  0  0  0
   38.5480   24.2040   36.8440 C   0  0  0  0  0  0  0  0  0  0  0  0
   39.4340   23.2430   37.2600 C   0  0  0  0  0  0  0  0  0  0  0  0
   40.3570   23.0060   36.7630 H   0  0  0  0  0  0  0  0  0  0  0  0
   39.0460   22.6030   38.3700 N   0  0  0  0  0  0  0  0  0  0  0  0
   39.5430   21.8490   38.8650 H   0  0  0  0  0  0  0  0  0  0  0  0
   37.8770   23.1650   38.6810 C   0  0  0  0  0  0  0  0  0  0  0  0
   37.2210   22.9460   39.5070 H   0  0  0  0  0  0  0  0  0  0  0  0
   37.5920   24.0960   37.7900 N   0  0  0  0  0  0  0  0  0  0  0  0
  1  6  1  6  0  0  0
  1  5  1  0  0  0  0
  1  2  1  0  0  0  0
  1 21  1  0  0  0  0
  2  7  1  1  0  0  0
  3  9  1  0  0  0  0
  3  2  1  0  0  0  0
  4  3  1  0  0  0  0
  4  5  1  0  0  0  0
  5 11  1  0  0  0  0
  8  3  1  0  0  0  0
 10  5  1  0  0  0  0
 12 13  2  0  0  0  0
 12 17  1  0  0  0  0
 13 14  1  0  0  0  0
 14  2  1  0  0  0  0
 14 15  2  0  0  0  0
 16 15  1  0  0  0  0
 16 20  1  0  0  0  0
 17 16  2  0  0  0  0
 18 12  1  0  0  0  0
 19 13  1  0  0  0  0
 21 24  1  0  0  0  0
 22 23  1  0  0  0  0
 23 28  1  0  0  0  0
 24 25  1  0  0  0  0
 24 23  2  0  0  0  0
 25 26  2  0  0  0  0
 26 30  1  0  0  0  0
 26 27  1  0  0  0  0
 27 31  1  0  0  0  0
 28 27  2  0  0  0  0
 28 32  1  0  0  0  0
 29 25  1  0  0  0  0
 32 33  2  0  0  0  0
 32 39  1  0  0  0  0
 33 35  1  0  0  0  0
 34 33  1  0  0  0  0
 35 37  1  0  0  0  0
 35 36  1  0  0  0  0
 37 38  1  0  0  0  0
 39 37  2  0  0  0  0
M  END
>  <minimizedAffinity>
-6.22352076

$$$$

 OpenBabel03272501093D

 39 42  0  0  1  0  0  0  0  0999 V2000
   39.1940   25.7990   33.2540 C   0  0  2  0  0  0  0  0  0  0  0  0
   39.5050   26.1790   34.7330 C   0  0  2  0  0  0  0  0  0  0  0  0
   40.8400   26.7340   34.6010 C   0  0  0  0  0  0  0  0  0  0  0  0
   40.9120   27.4080   33.3870 O   0  0  0  0  0  0  0  0  0  0  0  0
   39.8230   27.0810   32.6400 C   0  0  0  0  0  0  0  0  0  0  0  0
   39.7790   24.9270   32.9620 H   0  0  0  0  0  0  0  0  0  0  0  0
   38.7550   26.9710   34.9560 H   0  0  0  0  0  0  0  0  0  0  0  0
   41.6860   26.0540   34.6540 H   0  0  0  0  0  0  0  0  0  0  0  0
   41.0090   27.5010   35.4100 H   0  0  0  0  0  0  0  0  0  0  0  0
   40.0030   26.9570   31.5670 H   0  0  0  0  0  0  0  0  0  0  0  0
   39.0440   27.8580   32.7640 H   0  0  0  0  0  0  0  0  0  0  0  0
   38.0050   23.9620   37.3740 C   0  0  0  0  0  0  0  0  0  0  0  0
   38.1540   25.0710   36.4960 C   0  0  0  0  0  0  0  0  0  0  0  0
   39.2890   25.0790   35.6380 C   0  0  0  0  0  0  0  0  0  0  0  0
   40.1760   24.0300   35.6960 N   0  0  0  0  0  0  0  0  0  0  0  0
   39.9930   23.0100   36.5380 C   0  0  0  0  0  0  0  0  0  0  0  0
   38.9180   22.9630   37.3790 N   0  0  0  0  0  0  0  0  0  0  0  0
   37.1540   23.9710   38.0080 H   0  0  0  0  0  0  0  0  0  0  0  0
   37.4250   25.8690   36.4940 H   0  0  0  0  0  0  0  0  0  0  0  0
   40.6590   22.1620   36.6230 H   0  0  0  0  0  0  0  0  0  0  0  0
   37.8600   25.8060   32.9900 O   0  0  0  0  0  0  0  0  0  0  0  0
   37.9500   22.7370   33.2400 Cl  0  0  0  0  0  0  0  0  0  0  0  0
   36.8010   23.6390   32.2970 C   0  0  0  0  0  0  0  0  0  0  0  0
   36.9770   25.0160   32.3520 C   0  0  0  0  0  0  0  0  0  0  0  0
   36.0740   25.7610   31.6060 C   0  0  0  0  0  0  0  0  0  0  0  0
   35.0640   25.1480   30.8570 C   0  0  0  0  0  0  0  0  0  0  0  0
   34.9510   23.7870   30.8490 C   0  0  0  0  0  0  0  0  0  0  0  0
   35.8290   23.0120   31.5780 C   0  0  0  0  0  0  0  0  0  0  0  0
   36.0600   26.8400   31.5330 H   0  0  0  0  0  0  0  0  0  0  0  0
   34.3510   25.7430   30.2660 H   0  0  0  0  0  0  0  0  0  0  0  0
   34.1360   23.3700   30.2390 H   0  0  0  0  0  0  0  0  0  0  0  0
   35.6450   21.5760   31.5210 C   0  0  0  0  0  0  0  0  0  0  0  0
   34.7830   20.6740   32.0900 C   0  0  0  0  0  0  0  0  0  0  0  0
   33.9900   20.9300   32.7690 H   0  0  0  0  0  0  0  0  0  0  0  0
   35.0140   19.4080   31.7210 N   0  0  0  0  0  0  0  0  0  0  0  0
   34.5000   18.5650   32.0160 H   0  0  0  0  0  0  0  0  0  0  0  0
   36.0530   19.4930   30.8900 C   0  0  0  0  0  0  0  0  0  0  0  0
   36.5640   18.7030   30.3640 H   0  0  0  0  0  0  0  0  0  0  0  0
   36.4170   20.7560   30.7770 N   0  0  0  0  0  0  0  0  0  0  0  0
  1  6  1  6  0  0  0
  1  2  1  0  0  0  0
  2  7  1  1  0  0  0
  2 14  1  0  0  0  0
  3  8  1  0  0  0  0
  3  2  1  0  0  0  0
  3  9  1  0  0  0  0
  4  3  1  0  0  0  0
  5 11  1  0  0  0  0
  5  1  1  0  0  0  0
  5  4  1  0  0  0  0
 10  5  1  0  0  0  0
 12 17  1  0  0  0  0
 12 18  1  0  0  0  0
 13 12  2  0  0  0  0
 14 15  2  0  0  0  0
 14 13  1  0  0  0  0
 15 16  1  0  0  0  0
 16 20  1  0  0  0  0
 16 17  2  0  0  0  0
 19 13  1  0  0  0  0
 21  1  1  0  0  0  0
 23 24  1  0  0  0  0
 23 22  1  0  0  0  0
 24 21  1  0  0  0  0
 25 24  2  0  0  0  0
 26 25  1  0  0  0  0
 27 26  2  0  0  0  0
 27 28  1  0  0  0  0
 28 23  2  0  0  0  0
 29 25  1  0  0  0  0
 30 26  1  0  0  0  0
 31 27  1  0  0  0  0
 32 28  1  0  0  0  0
 32 33  2  0  0  0  0
 33 34  1  0  0  0  0
 35 36  1  0  0  0  0
 35 33  1  0  0  0  0
 37 35  1  0  0  0  0
 38 37  1  0  0  0  0
 39 37  2  0  0  0  0
 39 32  1  0  0  0  0
M  END
>  <minimizedAffinity>
-5.62571287

$$$$

 OpenBabel03272501093D

 39 42  0  0  1  0  0  0  0  0999 V2000
   36.3710   27.8600   32.3110 C   0  0  2  0  0  0  0  0  0  0  0  0
   36.9900   29.0660   31.5420 C   0  0  2  0  0  0  0  0  0  0  0  0
   35.8030   29.8550   31.2620 C   0  0  0  0  0  0  0  0  0  0  0  0
   34.9360   29.7300   32.3410 O   0  0  0  0  0  0  0  0  0  0  0  0
   35.3680   28.7140   33.1360 C   0  0  0  0  0  0  0  0  0  0  0  0
   35.8250   27.2180   31.6200 H   0  0  0  0  0  0  0  0  0  0  0  0
   37.6320   29.5550   32.3080 H   0  0  0  0  0  0  0  0  0  0  0  0
   35.2420   29.6340   30.3580 H   0  0  0  0  0  0  0  0  0  0  0  0
   36.0840   30.9440   31.1930 H   0  0  0  0  0  0  0  0  0  0  0  0
   34.5850   28.0880   33.5750 H   0  0  0  0  0  0  0  0  0  0  0  0
   35.9750   29.1280   33.9650 H   0  0  0  0  0  0  0  0  0  0  0  0
   39.7730   27.4830   29.5710 C   0  0  0  0  0  0  0  0  0  0  0  0
   38.9840   27.8550   30.6930 C   0  0  0  0  0  0  0  0  0  0  0  0
   37.8270   28.6460   30.4470 C   0  0  0  0  0  0  0  0  0  0  0  0
   37.5310   29.0090   29.1540 N   0  0  0  0  0  0  0  0  0  0  0  0
   38.3040   28.6360   28.1320 C   0  0  0  0  0  0  0  0  0  0  0  0
   39.4220   27.8770   28.3230 N   0  0  0  0  0  0  0  0  0  0  0  0
   40.6330   26.8930   29.7710 H   0  0  0  0  0  0  0  0  0  0  0  0
   39.2650   27.5400   31.6880 H   0  0  0  0  0  0  0  0  0  0  0  0
   38.1160   28.8930   27.0980 H   0  0  0  0  0  0  0  0  0  0  0  0
   37.2560   27.2870   33.1690 O   0  0  0  0  0  0  0  0  0  0  0  0
   38.1560   26.7890   36.0730 Cl  0  0  0  0  0  0  0  0  0  0  0  0
   37.9410   25.5630   34.8590 C   0  0  0  0  0  0  0  0  0  0  0  0
   37.5290   26.0510   33.6260 C   0  0  0  0  0  0  0  0  0  0  0  0
   37.3510   25.0930   32.6370 C   0  0  0  0  0  0  0  0  0  0  0  0
   37.5790   23.7350   32.8850 C   0  0  0  0  0  0  0  0  0  0  0  0
   37.9850   23.3270   34.1240 C   0  0  0  0  0  0  0  0  0  0  0  0
   38.1710   24.2490   35.1330 C   0  0  0  0  0  0  0  0  0  0  0  0
   37.0330   25.2900   31.6220 H   0  0  0  0  0  0  0  0  0  0  0  0
   37.4380   22.9790   32.0980 H   0  0  0  0  0  0  0  0  0  0  0  0
   38.1470   22.2460   34.2510 H   0  0  0  0  0  0  0  0  0  0  0  0
   38.6020   23.7400   36.4200 C   0  0  0  0  0  0  0  0  0  0  0  0
   39.6910   23.0490   36.8860 C   0  0  0  0  0  0  0  0  0  0  0  0
   40.5190   22.7310   36.2800 H   0  0  0  0  0  0  0  0  0  0  0  0
   39.6400   22.7950   38.2000 N   0  0  0  0  0  0  0  0  0  0  0  0
   40.3370   22.2950   38.7690 H   0  0  0  0  0  0  0  0  0  0  0  0
   38.4870   23.3360   38.5940 C   0  0  0  0  0  0  0  0  0  0  0  0
   38.0530   23.3590   39.5800 H   0  0  0  0  0  0  0  0  0  0  0  0
   37.8860   23.8840   37.5550 N   0  0  0  0  0  0  0  0  0  0  0  0
  1  6  1  6  0  0  0
  1  5  1  0  0  0  0
  1 21  1  0  0  0  0
  2  7  1  1  0  0  0
  2  1  1  0  0  0  0
  3  2  1  0  0  0  0
  3  4  1  0  0  0  0
  4  5  1  0  0  0  0
  5 10  1  0  0  0  0
  5 11  1  0  0  0  0
  8  3  1  0  0  0  0
  9  3  1  0  0  0  0
 12 18  1  0  0  0  0
 12 13  1  0  0  0  0
 13 19  1  0  0  0  0
 14 13  2  0  0  0  0
 14  2  1  0  0  0  0
 15 14  1  0  0  0  0
 16 17  1  0  0  0  0
 16 15  2  0  0  0  0
 17 12  2  0  0  0  0
 20 16  1  0  0  0  0
 21 24  1  0  0  0  0
 23 28  1  0  0  0  0
 23 22  1  0  0  0  0
 24 23  2  0  0  0  0
 25 26  2  0  0  0  0
 25 24  1  0  0  0  0
 26 27  1  0  0  0  0
 27 31  1  0  0  0  0
 27 28  2  0  0  0  0
 28 32  1  0  0  0  0
 29 25  1  0  0  0  0
 30 26  1  0  0  0  0
 32 33  2  0  0  0  0
 32 39  1  0  0  0  0
 33 35  1  0  0  0  0
 34 33  1  0  0  0  0
 35 37  1  0  0  0  0
 35 36  1  0  0  0  0
 37 38  1  0  0  0  0
 39 37  2  0  0  0  0
M  END
>  <minimizedAffinity>
-5.6161437

$$$$

 OpenBabel03272501093D

 39 42  0  0  1  0  0  0  0  0999 V2000
   36.8220   25.1620   32.3420 C   0  0  2  0  0  0  0  0  0  0  0  0
   36.3050   24.3930   31.0890 C   0  0  2  0  0  0  0  0  0  0  0  0
   35.0270   25.0490   30.8690 C   0  0  0  0  0  0  0  0  0  0  0  0
   35.1680   26.3920   31.1980 O   0  0  0  0  0  0  0  0  0  0  0  0
   36.3440   26.5610   31.8600 C   0  0  0  0  0  0  0  0  0  0  0  0
   36.2540   24.8640   33.2230 H   0  0  0  0  0  0  0  0  0  0  0  0
   37.0420   24.6630   30.3010 H   0  0  0  0  0  0  0  0  0  0  0  0
   34.1580   24.6680   31.3980 H   0  0  0  0  0  0  0  0  0  0  0  0
   34.7670   25.0060   29.7740 H   0  0  0  0  0  0  0  0  0  0  0  0
   36.3250   27.2770   32.6870 H   0  0  0  0  0  0  0  0  0  0  0  0
   37.1250   26.8890   31.1470 H   0  0  0  0  0  0  0  0  0  0  0  0
   35.3720   20.8970   32.1140 C   0  0  0  0  0  0  0  0  0  0  0  0
   35.2760   22.3070   31.9570 C   0  0  0  0  0  0  0  0  0  0  0  0
   36.3360   22.9640   31.2720 C   0  0  0  0  0  0  0  0  0  0  0  0
   37.3890   22.2160   30.8000 N   0  0  0  0  0  0  0  0  0  0  0  0
   37.4350   20.8930   30.9730 C   0  0  0  0  0  0  0  0  0  0  0  0
   36.4400   20.2230   31.6250 N   0  0  0  0  0  0  0  0  0  0  0  0
   34.5740   20.4230   32.6280 H   0  0  0  0  0  0  0  0  0  0  0  0
   34.4240   22.8440   32.3490 H   0  0  0  0  0  0  0  0  0  0  0  0
   38.2390   20.2590   30.6220 H   0  0  0  0  0  0  0  0  0  0  0  0
   38.1790   25.1730   32.4150 O   0  0  0  0  0  0  0  0  0  0  0  0
   38.3400   22.6730   34.2070 Cl  0  0  0  0  0  0  0  0  0  0  0  0
   39.4020   24.0460   34.2950 C   0  0  0  0  0  0  0  0  0  0  0  0
   39.1170   25.0450   33.3730 C   0  0  0  0  0  0  0  0  0  0  0  0
   39.9490   26.1550   33.4230 C   0  0  0  0  0  0  0  0  0  0  0  0
   40.9960   26.2430   34.3450 C   0  0  0  0  0  0  0  0  0  0  0  0
   41.2180   25.2210   35.2240 C   0  0  0  0  0  0  0  0  0  0  0  0
   40.4140   24.1000   35.2050 C   0  0  0  0  0  0  0  0  0  0  0  0
   39.8740   27.0240   32.7820 H   0  0  0  0  0  0  0  0  0  0  0  0
   41.6520   27.1260   34.3810 H   0  0  0  0  0  0  0  0  0  0  0  0
   42.0580   25.3540   35.9230 H   0  0  0  0  0  0  0  0  0  0  0  0
   40.7120   23.0590   36.1670 C   0  0  0  0  0  0  0  0  0  0  0  0
   40.1520   22.6140   37.3370 C   0  0  0  0  0  0  0  0  0  0  0  0
   39.2710   23.0310   37.7900 H   0  0  0  0  0  0  0  0  0  0  0  0
   40.8090   21.5850   37.8870 N   0  0  0  0  0  0  0  0  0  0  0  0
   40.5770   21.0880   38.7580 H   0  0  0  0  0  0  0  0  0  0  0  0
   41.8220   21.3590   37.0510 C   0  0  0  0  0  0  0  0  0  0  0  0
   42.5990   20.6150   37.1170 H   0  0  0  0  0  0  0  0  0  0  0  0
   41.7630   22.2190   36.0510 N   0  0  0  0  0  0  0  0  0  0  0  0
  1 21  1  0  0  0  0
  1  6  1  1  0  0  0
  2  7  1  6  0  0  0
  2 14  1  0  0  0  0
  2  1  1  0  0  0  0
  3  2  1  0  0  0  0
  3  4  1  0  0  0  0
  3  8  1  0  0  0  0
  4  5  1  0  0  0  0
  5  1  1  0  0  0  0
  5 10  1  0  0  0  0
  9  3  1  0  0  0  0
 11  5  1  0  0  0  0
 12 18  1  0  0  0  0
 13 12  1  0  0  0  0
 13 19  1  0  0  0  0
 14 13  2  0  0  0  0
 15 16  2  0  0  0  0
 15 14  1  0  0  0  0
 16 17  1  0  0  0  0
 17 12  2  0  0  0  0
 20 16  1  0  0  0  0
 21 24  1  0  0  0  0
 22 23  1  0  0  0  0
 23 28  1  0  0  0  0
 24 25  1  0  0  0  0
 24 23  2  0  0  0  0
 25 26  2  0  0  0  0
 26 30  1  0  0  0  0
 26 27  1  0  0  0  0
 27 31  1  0  0  0  0
 28 27  2  0  0  0  0
 28 32  1  0  0  0  0
 29 25  1  0  0  0  0
 32 33  2  0  0  0  0
 33 34  1  0  0  0  0
 33 35  1  0  0  0  0
 35 36  1  0  0  0  0
 37 38  1  0  0  0  0
 37 35  1  0  0  0  0
 39 32  1  0  0  0  0
 39 37  2  0  0  0  0
M  END
>  <minimizedAffinity>
-5.55128384

$$$$

 OpenBabel03272501093D

 39 42  0  0  1  0  0  0  0  0999 V2000
   41.3180   23.9290   35.1000 C   0  0  2  0  0  0  0  0  0  0  0  0
   40.8920   23.4480   36.5210 C   0  0  2  0  0  0  0  0  0  0  0  0
   41.9240   22.4660   36.8020 C   0  0  0  0  0  0  0  0  0  0  0  0
   43.1150   22.9160   36.2430 O   0  0  0  0  0  0  0  0  0  0  0  0
   42.8420   23.9550   35.4090 C   0  0  0  0  0  0  0  0  0  0  0  0
   41.1060   23.1540   34.3650 H   0  0  0  0  0  0  0  0  0  0  0  0
   41.0160   24.3590   37.1470 H   0  0  0  0  0  0  0  0  0  0  0  0
   41.7650   21.4450   36.4660 H   0  0  0  0  0  0  0  0  0  0  0  0
   42.0890   22.4030   37.9150 H   0  0  0  0  0  0  0  0  0  0  0  0
   43.4300   23.9900   34.4860 H   0  0  0  0  0  0  0  0  0  0  0  0
   42.9990   24.9100   35.9460 H   0  0  0  0  0  0  0  0  0  0  0  0
   37.5790   21.9150   35.6200 C   0  0  0  0  0  0  0  0  0  0  0  0
   38.9520   22.2690   35.5170 C   0  0  0  0  0  0  0  0  0  0  0  0
   39.5090   23.0460   36.5710 C   0  0  0  0  0  0  0  0  0  0  0  0
   38.7060   23.4120   37.6250 N   0  0  0  0  0  0  0  0  0  0  0  0
   37.4210   23.0540   37.6780 C   0  0  0  0  0  0  0  0  0  0  0  0
   36.8460   22.3100   36.6880 N   0  0  0  0  0  0  0  0  0  0  0  0
   37.1790   21.3360   34.8250 H   0  0  0  0  0  0  0  0  0  0  0  0
   39.5360   21.9540   34.6630 H   0  0  0  0  0  0  0  0  0  0  0  0
   36.7470   23.3150   38.4830 H   0  0  0  0  0  0  0  0  0  0  0  0
   40.9100   25.2000   34.8430 O   0  0  0  0  0  0  0  0  0  0  0  0
   39.3720   24.4620   32.2780 Cl  0  0  0  0  0  0  0  0  0  0  0  0
   38.8950   25.6790   33.4260 C   0  0  0  0  0  0  0  0  0  0  0  0
   39.7640   25.8170   34.5000 C   0  0  0  0  0  0  0  0  0  0  0  0
   39.4090   26.7840   35.4310 C   0  0  0  0  0  0  0  0  0  0  0  0
   38.2520   27.5550   35.2790 C   0  0  0  0  0  0  0  0  0  0  0  0
   37.4430   27.3640   34.1950 C   0  0  0  0  0  0  0  0  0  0  0  0
   37.7620   26.4130   33.2480 C   0  0  0  0  0  0  0  0  0  0  0  0
   39.9650   27.0260   36.3270 H   0  0  0  0  0  0  0  0  0  0  0  0
   37.9750   28.3210   36.0190 H   0  0  0  0  0  0  0  0  0  0  0  0
   36.5500   28.0040   34.1350 H   0  0  0  0  0  0  0  0  0  0  0  0
   36.8550   26.2680   32.1270 C   0  0  0  0  0  0  0  0  0  0  0  0
   36.5480   27.0060   31.0130 C   0  0  0  0  0  0  0  0  0  0  0  0
   37.0010   27.9470   30.7590 H   0  0  0  0  0  0  0  0  0  0  0  0
   35.6100   26.4430   30.2410 N   0  0  0  0  0  0  0  0  0  0  0  0
   35.2210   26.8080   29.3600 H   0  0  0  0  0  0  0  0  0  0  0  0
   35.3020   25.3100   30.8730 C   0  0  0  0  0  0  0  0  0  0  0  0
   34.5870   24.5540   30.5930 H   0  0  0  0  0  0  0  0  0  0  0  0
   36.0280   25.2130   31.9710 N   0  0  0  0  0  0  0  0  0  0  0  0
  1  6  1  6  0  0  0
  1  5  1  0  0  0  0
  1  2  1  0  0  0  0
  2 14  1  0  0  0  0
  2  3  1  0  0  0  0
  2  7  1  1  0  0  0
  3  9  1  0  0  0  0
  4  3  1  0  0  0  0
  5 11  1  0  0  0  0
  5  4  1  0  0  0  0
  8  3  1  0  0  0  0
 10  5  1  0  0  0  0
 12 17  1  0  0  0  0
 13 12  2  0  0  0  0
 13 14  1  0  0  0  0
 14 15  2  0  0  0  0
 15 16  1  0  0  0  0
 16 20  1  0  0  0  0
 17 16  2  0  0  0  0
 18 12  1  0  0  0  0
 19 13  1  0  0  0  0
 21  1  1  0  0  0  0
 22 23  1  0  0  0  0
 23 24  1  0  0  0  0
 24 21  1  0  0  0  0
 24 25  2  0  0  0  0
 25 29  1  0  0  0  0
 26 25  1  0  0  0  0
 26 30  1  0  0  0  0
 27 26  2  0  0  0  0
 28 23  2  0  0  0  0
 28 27  1  0  0  0  0
 31 27  1  0  0  0  0
 32 28  1  0  0  0  0
 33 32  2  0  0  0  0
 34 33  1  0  0  0  0
 35 37  1  0  0  0  0
 35 33  1  0  0  0  0
 36 35  1  0  0  0  0
 37 39  2  0  0  0  0
 38 37  1  0  0  0  0
 39 32  1  0  0  0  0
M  END
>  <minimizedAffinity>
-5.51453352

$$$$

 OpenBabel03272501093D

 39 42  0  0  1  0  0  0  0  0999 V2000
   39.0670   24.2470   35.9870 C   0  0  2  0  0  0  0  0  0  0  0  0
   39.4890   22.9810   36.7930 C   0  0  2  0  0  0  0  0  0  0  0  0
   38.9820   23.3120   38.1140 C   0  0  0  0  0  0  0  0  0  0  0  0
   37.7930   24.0160   37.9570 O   0  0  0  0  0  0  0  0  0  0  0  0
   37.6690   24.3830   36.6530 C   0  0  0  0  0  0  0  0  0  0  0  0
   39.6920   25.0940   36.2690 H   0  0  0  0  0  0  0  0  0  0  0  0
   38.8940   22.1680   36.3220 H   0  0  0  0  0  0  0  0  0  0  0  0
   39.6210   23.8850   38.7790 H   0  0  0  0  0  0  0  0  0  0  0  0
   38.7300   22.3640   38.6670 H   0  0  0  0  0  0  0  0  0  0  0  0
   37.2440   25.3760   36.4780 H   0  0  0  0  0  0  0  0  0  0  0  0
   37.0360   23.6460   36.1210 H   0  0  0  0  0  0  0  0  0  0  0  0
   42.7860   21.1760   36.8920 C   0  0  0  0  0  0  0  0  0  0  0  0
   41.3950   21.4140   37.0640 C   0  0  0  0  0  0  0  0  0  0  0  0
   40.8880   22.6730   36.6370 C   0  0  0  0  0  0  0  0  0  0  0  0
   41.7540   23.5880   36.0850 N   0  0  0  0  0  0  0  0  0  0  0  0
   43.0540   23.3180   35.9440 C   0  0  0  0  0  0  0  0  0  0  0  0
   43.5810   22.1230   36.3410 N   0  0  0  0  0  0  0  0  0  0  0  0
   43.1480   20.2320   37.2160 H   0  0  0  0  0  0  0  0  0  0  0  0
   40.7610   20.6570   37.5040 H   0  0  0  0  0  0  0  0  0  0  0  0
   43.7760   24.0010   35.5180 H   0  0  0  0  0  0  0  0  0  0  0  0
   38.8890   23.9800   34.6660 O   0  0  0  0  0  0  0  0  0  0  0  0
   38.4840   26.9600   34.0030 Cl  0  0  0  0  0  0  0  0  0  0  0  0
   37.7120   25.6320   33.1890 C   0  0  0  0  0  0  0  0  0  0  0  0
   38.0650   24.3820   33.6810 C   0  0  0  0  0  0  0  0  0  0  0  0
   37.4610   23.3030   33.0500 C   0  0  0  0  0  0  0  0  0  0  0  0
   36.5610   23.4840   31.9950 C   0  0  0  0  0  0  0  0  0  0  0  0
   36.2600   24.7440   31.5630 C   0  0  0  0  0  0  0  0  0  0  0  0
   36.8400   25.8420   32.1640 C   0  0  0  0  0  0  0  0  0  0  0  0
   37.6190   22.2620   33.2990 H   0  0  0  0  0  0  0  0  0  0  0  0
   36.0840   22.6250   31.4980 H   0  0  0  0  0  0  0  0  0  0  0  0
   35.5450   24.8150   30.7300 H   0  0  0  0  0  0  0  0  0  0  0  0
   36.4720   27.1460   31.6500 C   0  0  0  0  0  0  0  0  0  0  0  0
   36.6940   27.8410   30.4900 C   0  0  0  0  0  0  0  0  0  0  0  0
   37.2600   27.4720   29.6540 H   0  0  0  0  0  0  0  0  0  0  0  0
   36.1310   29.0560   30.4790 N   0  0  0  0  0  0  0  0  0  0  0  0
   36.1600   29.7540   29.7220 H   0  0  0  0  0  0  0  0  0  0  0  0
   35.5280   29.1490   31.6650 C   0  0  0  0  0  0  0  0  0  0  0  0
   34.9560   29.9680   32.0690 H   0  0  0  0  0  0  0  0  0  0  0  0
   35.7300   28.0350   32.3440 N   0  0  0  0  0  0  0  0  0  0  0  0
  1  6  1  1  0  0  0
  1  5  1  0  0  0  0
  1  2  1  0  0  0  0
  2  7  1  6  0  0  0
  2  3  1  0  0  0  0
  3  9  1  0  0  0  0
  3  8  1  0  0  0  0
  4  3  1  0  0  0  0
  5  4  1  0  0  0  0
 10  5  1  0  0  0  0
 11  5  1  0  0  0  0
 12 13  1  0  0  0  0
 12 18  1  0  0  0  0
 13 19  1  0  0  0  0
 14  2  1  0  0  0  0
 14 13  2  0  0  0  0
 15 14  1  0  0  0  0
 16 15  2  0  0  0  0
 16 17  1  0  0  0  0
 17 12  2  0  0  0  0
 20 16  1  0  0  0  0
 21  1  1  0  0  0  0
 23 24  1  0  0  0  0
 23 22  1  0  0  0  0
 24 21  1  0  0  0  0
 25 29  1  0  0  0  0
 25 24  2  0  0  0  0
 26 25  1  0  0  0  0
 27 26  2  0  0  0  0
 27 28  1  0  0  0  0
 28 23  2  0  0  0  0
 30 26  1  0  0  0  0
 31 27  1  0  0  0  0
 32 28  1  0  0  0  0
 32 39  1  0  0  0  0
 33 32  2  0  0  0  0
 34 33  1  0  0  0  0
 35 33  1  0  0  0  0
 35 37  1  0  0  0  0
 36 35  1  0  0  0  0
 37 38  1  0  0  0  0
 37 39  2  0  0  0  0
M  END
>  <minimizedAffinity>
-5.45936108

$$$$

 OpenBabel03272501093D

 39 42  0  0  1  0  0  0  0  0999 V2000
   38.7580   24.5420   36.2910 C   0  0  2  0  0  0  0  0  0  0  0  0
   39.7600   23.3480   36.3010 C   0  0  2  0  0  0  0  0  0  0  0  0
   39.6170   22.8780   37.6680 C   0  0  0  0  0  0  0  0  0  0  0  0
   38.2880   23.0360   38.0430 O   0  0  0  0  0  0  0  0  0  0  0  0
   37.6620   23.8170   37.1210 C   0  0  0  0  0  0  0  0  0  0  0  0
   39.1630   25.3740   36.8660 H   0  0  0  0  0  0  0  0  0  0  0  0
   39.3130   22.6330   35.5750 H   0  0  0  0  0  0  0  0  0  0  0  0
   40.2350   23.3350   38.4350 H   0  0  0  0  0  0  0  0  0  0  0  0
   39.8390   21.7740   37.7090 H   0  0  0  0  0  0  0  0  0  0  0  0
   36.9330   24.5300   37.5190 H   0  0  0  0  0  0  0  0  0  0  0  0
   37.1390   23.1730   36.3870 H   0  0  0  0  0  0  0  0  0  0  0  0
   43.4890   23.5300   35.8520 C   0  0  0  0  0  0  0  0  0  0  0  0
   42.2300   23.1050   36.3570 C   0  0  0  0  0  0  0  0  0  0  0  0
   41.0670   23.7260   35.8230 C   0  0  0  0  0  0  0  0  0  0  0  0
   41.2110   24.6940   34.8570 N   0  0  0  0  0  0  0  0  0  0  0  0
   42.4160   25.0600   34.4140 C   0  0  0  0  0  0  0  0  0  0  0  0
   43.5580   24.4910   34.9000 N   0  0  0  0  0  0  0  0  0  0  0  0
   44.3470   23.0580   36.2610 H   0  0  0  0  0  0  0  0  0  0  0  0
   42.1760   22.3390   37.1180 H   0  0  0  0  0  0  0  0  0  0  0  0
   42.5850   25.8140   33.6570 H   0  0  0  0  0  0  0  0  0  0  0  0
   38.2640   24.7890   35.0490 O   0  0  0  0  0  0  0  0  0  0  0  0
   38.6910   25.0180   32.0070 Cl  0  0  0  0  0  0  0  0  0  0  0  0
   37.9040   26.2020   33.0060 C   0  0  0  0  0  0  0  0  0  0  0  0
   37.8390   25.8590   34.3510 C   0  0  0  0  0  0  0  0  0  0  0  0
   37.2170   26.7890   35.1730 C   0  0  0  0  0  0  0  0  0  0  0  0
   36.6980   27.9830   34.6630 C   0  0  0  0  0  0  0  0  0  0  0  0
   36.7980   28.2550   33.3280 C   0  0  0  0  0  0  0  0  0  0  0  0
   37.4080   27.3560   32.4780 C   0  0  0  0  0  0  0  0  0  0  0  0
   37.0770   26.6870   36.2410 H   0  0  0  0  0  0  0  0  0  0  0  0
   36.2060   28.7170   35.3180 H   0  0  0  0  0  0  0  0  0  0  0  0
   36.3700   29.2110   32.9930 H   0  0  0  0  0  0  0  0  0  0  0  0
   37.4750   27.7140   31.0760 C   0  0  0  0  0  0  0  0  0  0  0  0
   36.5720   27.8420   30.0520 C   0  0  0  0  0  0  0  0  0  0  0  0
   35.5150   27.6710   30.1440 H   0  0  0  0  0  0  0  0  0  0  0  0
   37.1290   28.2090   28.8920 N   0  0  0  0  0  0  0  0  0  0  0  0
   36.6550   28.3670   27.9910 H   0  0  0  0  0  0  0  0  0  0  0  0
   38.4280   28.3220   29.1720 C   0  0  0  0  0  0  0  0  0  0  0  0
   39.2380   28.5980   28.5180 H   0  0  0  0  0  0  0  0  0  0  0  0
   38.6250   28.0330   30.4440 N   0  0  0  0  0  0  0  0  0  0  0  0
  1  2  1  0  0  0  0
  1  6  1  1  0  0  0
  1  5  1  0  0  0  0
  2  7  1  6  0  0  0
  2  3  1  0  0  0  0
  3  9  1  0  0  0  0
  3  4  1  0  0  0  0
  3  8  1  0  0  0  0
  5 10  1  0  0  0  0
  5  4  1  0  0  0  0
 11  5  1  0  0  0  0
 12 18  1  0  0  0  0
 12 13  1  0  0  0  0
 13 19  1  0  0  0  0
 14  2  1  0  0  0  0
 14 13  2  0  0  0  0
 15 14  1  0  0  0  0
 16 15  2  0  0  0  0
 16 17  1  0  0  0  0
 17 12  2  0  0  0  0
 20 16  1  0  0  0  0
 21  1  1  0  0  0  0
 22 23  1  0  0  0  0
 23 24  1  0  0  0  0
 24 21  1  0  0  0  0
 24 25  2  0  0  0  0
 25 29  1  0  0  0  0
 26 25  1  0  0  0  0
 26 30  1  0  0  0  0
 27 26  2  0  0  0  0
 28 23  2  0  0  0  0
 28 27  1  0  0  0  0
 31 27  1  0  0  0  0
 32 28  1  0  0  0  0
 33 34  1  0  0  0  0
 33 32  2  0  0  0  0
 35 37  1  0  0  0  0
 35 33  1  0  0  0  0
 36 35  1  0  0  0  0
 37 39  2  0  0  0  0
 38 37  1  0  0  0  0
 39 32  1  0  0  0  0
M  END
>  <minimizedAffinity>
-5.34928036

$$$$

 OpenBabel03272501093D

 39 42  0  0  1  0  0  0  0  0999 V2000
   37.1620   26.4260   31.2580 C   0  0  2  0  0  0  0  0  0  0  0  0
   38.6010   27.0180   31.1680 C   0  0  2  0  0  0  0  0  0  0  0  0
   38.5350   27.7130   29.8940 C   0  0  0  0  0  0  0  0  0  0  0  0
   37.2560   28.2380   29.7520 O   0  0  0  0  0  0  0  0  0  0  0  0
   36.4500   27.6920   30.7020 C   0  0  0  0  0  0  0  0  0  0  0  0
   37.0510   25.6040   30.5520 H   0  0  0  0  0  0  0  0  0  0  0  0
   38.6370   27.7330   32.0190 H   0  0  0  0  0  0  0  0  0  0  0  0
   38.7660   27.1520   28.9920 H   0  0  0  0  0  0  0  0  0  0  0  0
   39.2470   28.5860   29.9060 H   0  0  0  0  0  0  0  0  0  0  0  0
   35.4280   27.4620   30.3840 H   0  0  0  0  0  0  0  0  0  0  0  0
   36.3870   28.3770   31.5700 H   0  0  0  0  0  0  0  0  0  0  0  0
   41.6900   25.2540   32.3850 C   0  0  0  0  0  0  0  0  0  0  0  0
   40.7140   26.2780   32.2380 C   0  0  0  0  0  0  0  0  0  0  0  0
   39.6180   26.0180   31.3690 C   0  0  0  0  0  0  0  0  0  0  0  0
   39.5540   24.8060   30.7210 N   0  0  0  0  0  0  0  0  0  0  0  0
   40.4950   23.8760   30.8910 C   0  0  0  0  0  0  0  0  0  0  0  0
   41.5640   24.0840   31.7150 N   0  0  0  0  0  0  0  0  0  0  0  0
   42.5020   25.4640   33.0360 H   0  0  0  0  0  0  0  0  0  0  0  0
   40.8170   27.2120   32.7730 H   0  0  0  0  0  0  0  0  0  0  0  0
   40.4920   22.9090   30.4070 H   0  0  0  0  0  0  0  0  0  0  0  0
   36.7620   26.2380   32.5440 O   0  0  0  0  0  0  0  0  0  0  0  0
   37.8320   23.5790   33.6710 Cl  0  0  0  0  0  0  0  0  0  0  0  0
   37.8950   25.1150   34.4810 C   0  0  0  0  0  0  0  0  0  0  0  0
   37.3420   26.1630   33.7560 C   0  0  0  0  0  0  0  0  0  0  0  0
   37.3770   27.4020   34.3810 C   0  0  0  0  0  0  0  0  0  0  0  0
   37.9350   27.5630   35.6530 C   0  0  0  0  0  0  0  0  0  0  0  0
   38.4610   26.4860   36.3090 C   0  0  0  0  0  0  0  0  0  0  0  0
   38.4450   25.2390   35.7210 C   0  0  0  0  0  0  0  0  0  0  0  0
   36.9960   28.3250   33.9650 H   0  0  0  0  0  0  0  0  0  0  0  0
   37.9600   28.5480   36.1450 H   0  0  0  0  0  0  0  0  0  0  0  0
   38.8820   26.6820   37.3060 H   0  0  0  0  0  0  0  0  0  0  0  0
   39.0220   24.1460   36.4780 C   0  0  0  0  0  0  0  0  0  0  0  0
   38.6660   23.4290   37.5910 C   0  0  0  0  0  0  0  0  0  0  0  0
   37.7690   23.5890   38.1610 H   0  0  0  0  0  0  0  0  0  0  0  0
   39.5530   22.4820   37.9220 N   0  0  0  0  0  0  0  0  0  0  0  0
   39.5010   21.8240   38.7130 H   0  0  0  0  0  0  0  0  0  0  0  0
   40.5080   22.5890   36.9980 C   0  0  0  0  0  0  0  0  0  0  0  0
   41.4140   22.0140   36.8930 H   0  0  0  0  0  0  0  0  0  0  0  0
   40.1950   23.5590   36.1600 N   0  0  0  0  0  0  0  0  0  0  0  0
  1  6  1  6  0  0  0
  1 21  1  0  0  0  0
  2  1  1  0  0  0  0
  2 14  1  0  0  0  0
  2  7  1  1  0  0  0
  3  9  1  0  0  0  0
  3  2  1  0  0  0  0
  4  3  1  0  0  0  0
  4  5  1  0  0  0  0
  5  1  1  0  0  0  0
  5 11  1  0  0  0  0
  8  3  1  0  0  0  0
 10  5  1  0  0  0  0
 12 18  1  0  0  0  0
 13 12  1  0  0  0  0
 13 19  1  0  0  0  0
 14 13  2  0  0  0  0
 15 16  2  0  0  0  0
 15 14  1  0  0  0  0
 16 17  1  0  0  0  0
 17 12  2  0  0  0  0
 20 16  1  0  0  0  0
 21 24  1  0  0  0  0
 22 23  1  0  0  0  0
 23 28  1  0  0  0  0
 24 25  1  0  0  0  0
 24 23  2  0  0  0  0
 25 26  2  0  0  0  0
 26 30  1  0  0  0  0
 26 27  1  0  0  0  0
 27 31  1  0  0  0  0
 28 27  2  0  0  0  0
 28 32  1  0  0  0  0
 29 25  1  0  0  0  0
 32 33  2  0  0  0  0
 33 35  1  0  0  0  0
 33 34  1  0  0  0  0
 35 36  1  0  0  0  0
 37 35  1  0  0  0  0
 38 37  1  0  0  0  0
 39 32  1  0  0  0  0
 39 37  2  0  0  0  0
M  END
>  <minimizedAffinity>
-5.29983997

$$$$

 OpenBabel03272501093D

 39 42  0  0  1  0  0  0  0  0999 V2000
   39.5400   25.3520   30.7850 C   0  0  2  0  0  0  0  0  0  0  0  0
   39.1890   23.9640   30.1680 C   0  0  2  0  0  0  0  0  0  0  0  0
   39.3150   24.2510   28.7500 C   0  0  0  0  0  0  0  0  0  0  0  0
   40.3580   25.1550   28.5820 O   0  0  0  0  0  0  0  0  0  0  0  0
   40.7020   25.6580   29.7980 C   0  0  0  0  0  0  0  0  0  0  0  0
   38.7220   26.0520   30.6160 H   0  0  0  0  0  0  0  0  0  0  0  0
   40.0150   23.3090   30.5260 H   0  0  0  0  0  0  0  0  0  0  0  0
   38.4480   24.6440   28.2270 H   0  0  0  0  0  0  0  0  0  0  0  0
   39.6070   23.3100   28.2020 H   0  0  0  0  0  0  0  0  0  0  0  0
   40.9650   26.7210   29.8160 H   0  0  0  0  0  0  0  0  0  0  0  0
   41.5630   25.0910   30.2010 H   0  0  0  0  0  0  0  0  0  0  0  0
   35.6320   23.7310   31.3650 C   0  0  0  0  0  0  0  0  0  0  0  0
   36.8290   24.3060   30.8570 C   0  0  0  0  0  0  0  0  0  0  0  0
   37.9430   23.4410   30.6690 C   0  0  0  0  0  0  0  0  0  0  0  0
   37.8130   22.1090   30.9830 N   0  0  0  0  0  0  0  0  0  0  0  0
   36.6670   21.6140   31.4580 C   0  0  0  0  0  0  0  0  0  0  0  0
   35.5740   22.4090   31.6530 N   0  0  0  0  0  0  0  0  0  0  0  0
   34.8110   24.3890   31.5000 H   0  0  0  0  0  0  0  0  0  0  0  0
   36.8740   25.3620   30.6280 H   0  0  0  0  0  0  0  0  0  0  0  0
   36.5120   20.5760   31.7190 H   0  0  0  0  0  0  0  0  0  0  0  0
   40.0570   25.2430   32.0370 O   0  0  0  0  0  0  0  0  0  0  0  0
   39.6950   22.9200   34.0270 Cl  0  0  0  0  0  0  0  0  0  0  0  0
   39.3960   24.5980   34.3710 C   0  0  0  0  0  0  0  0  0  0  0  0
   39.6350   25.4480   33.2990 C   0  0  0  0  0  0  0  0  0  0  0  0
   39.4020   26.7950   33.5450 C   0  0  0  0  0  0  0  0  0  0  0  0
   38.9550   27.2430   34.7920 C   0  0  0  0  0  0  0  0  0  0  0  0
   38.7390   26.3480   35.8010 C   0  0  0  0  0  0  0  0  0  0  0  0
   38.9610   25.0020   35.5970 C   0  0  0  0  0  0  0  0  0  0  0  0
   39.5370   27.5960   32.8300 H   0  0  0  0  0  0  0  0  0  0  0  0
   38.7700   28.3110   34.9820 H   0  0  0  0  0  0  0  0  0  0  0  0
   38.3870   26.7670   36.7560 H   0  0  0  0  0  0  0  0  0  0  0  0
   38.7100   24.1150   36.7140 C   0  0  0  0  0  0  0  0  0  0  0  0
   39.4530   23.2230   37.4440 C   0  0  0  0  0  0  0  0  0  0  0  0
   40.4930   23.0120   37.2760 H   0  0  0  0  0  0  0  0  0  0  0  0
   38.7580   22.6170   38.4150 N   0  0  0  0  0  0  0  0  0  0  0  0
   39.1000   21.9150   39.0860 H   0  0  0  0  0  0  0  0  0  0  0  0
   37.5320   23.1310   38.3100 C   0  0  0  0  0  0  0  0  0  0  0  0
   36.6570   22.9160   38.9010 H   0  0  0  0  0  0  0  0  0  0  0  0
   37.5080   24.0020   37.3190 N   0  0  0  0  0  0  0  0  0  0  0  0
  1  6  1  6  0  0  0
  1 21  1  0  0  0  0
  2  7  1  1  0  0  0
  2 14  1  0  0  0  0
  2  1  1  0  0  0  0
  3  2  1  0  0  0  0
  4  3  1  0  0  0  0
  4  5  1  0  0  0  0
  5 10  1  0  0  0  0
  5 11  1  0  0  0  0
  5  1  1  0  0  0  0
  8  3  1  0  0  0  0
  9  3  1  0  0  0  0
 12 18  1  0  0  0  0
 12 17  1  0  0  0  0
 13 12  2  0  0  0  0
 14 13  1  0  0  0  0
 14 15  2  0  0  0  0
 15 16  1  0  0  0  0
 16 17  2  0  0  0  0
 16 20  1  0  0  0  0
 19 13  1  0  0  0  0
 21 24  1  0  0  0  0
 22 23  1  0  0  0  0
 23 28  1  0  0  0  0
 24 25  1  0  0  0  0
 24 23  2  0  0  0  0
 25 26  2  0  0  0  0
 26 30  1  0  0  0  0
 26 27  1  0  0  0  0
 27 31  1  0  0  0  0
 28 27  2  0  0  0  0
 28 32  1  0  0  0  0
 29 25  1  0  0  0  0
 32 39  1  0  0  0  0
 32 33  2  0  0  0  0
 33 35  1  0  0  0  0
 34 33  1  0  0  0  0
 35 36  1  0  0  0  0
 37 35  1  0  0  0  0
 37 38  1  0  0  0  0
 39 37  2  0  0  0  0
M  END
>  <minimizedAffinity>
-5.27381325

$$$$
