
 OpenBabel03272508273D

 37 40  0  0  1  0  0  0  0  0999 V2000
   32.5110   28.8450   46.9570 C   0  0  2  0  0  0  0  0  0  0  0  0
   33.3160   27.7560   47.6460 C   0  0  2  0  0  0  0  0  0  0  0  0
   32.5360   27.3050   48.6630 O   0  0  0  0  0  0  0  0  0  0  0  0
   31.2200   27.5610   48.4150 C   0  0  0  0  0  0  0  0  0  0  0  0
   31.1150   28.2200   47.0590 C   0  0  1  0  0  0  0  0  0  0  0  0
   32.5260   29.7980   47.5010 H   0  0  0  0  0  0  0  0  0  0  0  0
   33.4790   26.9490   46.9200 H   0  0  0  0  0  0  0  0  0  0  0  0
   30.8540   28.2990   49.1760 H   0  0  0  0  0  0  0  0  0  0  0  0
   30.5590   26.6760   48.5060 H   0  0  0  0  0  0  0  0  0  0  0  0
   30.9950   27.4130   46.3080 H   0  0  0  0  0  0  0  0  0  0  0  0
   34.6260   29.6850   48.7650 C   0  0  1  0  0  0  0  0  0  0  0  0
   34.5780   28.3840   48.1420 C   0  0  1  0  0  0  0  0  0  0  0  0
   34.9170   28.4270   49.5950 C   0  0  0  0  0  0  0  0  0  0  0  0
   33.7930   30.2470   49.2250 H   0  0  0  0  0  0  0  0  0  0  0  0
   35.4580   28.1330   47.4790 H   0  0  0  0  0  0  0  0  0  0  0  0
   34.1800   28.0880   50.3340 H   0  0  0  0  0  0  0  0  0  0  0  0
   35.9730   28.2430   49.9190 H   0  0  0  0  0  0  0  0  0  0  0  0
   35.8540   30.5740   48.6410 C   0  0  0  0  0  0  0  0  0  0  0  0
   36.2240   31.3270   49.7560 C   0  0  0  0  0  0  0  0  0  0  0  0
   37.3320   32.1330   49.5820 C   0  0  0  0  0  0  0  0  0  0  0  0
   38.0010   32.1710   48.3930 N   0  0  0  0  0  0  0  0  0  0  0  0
   37.6080   31.4200   47.3270 C   0  0  0  0  0  0  0  0  0  0  0  0
   36.5220   30.6170   47.4590 N   0  0  0  0  0  0  0  0  0  0  0  0
   35.6690   31.2670   50.6730 H   0  0  0  0  0  0  0  0  0  0  0  0
   37.6880   32.7530   50.4090 H   0  0  0  0  0  0  0  0  0  0  0  0
   38.1650   31.4810   46.4030 H   0  0  0  0  0  0  0  0  0  0  0  0
   32.8750   29.0660   45.6430 O   0  0  0  0  0  0  0  0  0  0  0  0
   33.8600   28.9600   45.6070 H   0  0  0  0  0  0  0  0  0  0  0  0
   30.1220   29.1510   46.9500 O   0  0  0  0  0  0  0  0  0  0  0  0
   28.8530   28.9540   47.4740 C   0  0  0  0  0  0  0  0  0  0  0  0
   27.9560   28.0980   46.8690 C   0  0  0  0  0  0  0  0  0  0  0  0
   28.0270   27.4730   45.9760 H   0  0  0  0  0  0  0  0  0  0  0  0
   26.7880   28.0630   47.5510 N   0  0  0  0  0  0  0  0  0  0  0  0
   25.8910   27.5600   47.4240 H   0  0  0  0  0  0  0  0  0  0  0  0
   26.9550   28.9140   48.6030 C   0  0  0  0  0  0  0  0  0  0  0  0
   26.2500   29.1640   49.3810 H   0  0  0  0  0  0  0  0  0  0  0  0
   28.1780   29.4380   48.5530 N   0  0  0  0  0  0  0  0  0  0  0  0
  1  5  1  0  0  0  0
  1  6  1  1  0  0  0
  1  2  1  0  0  0  0
  2  7  1  6  0  0  0
  2 12  1  0  0  0  0
  2  3  1  0  0  0  0
  4  9  1  0  0  0  0
  4  3  1  0  0  0  0
  4  8  1  0  0  0  0
  5 10  1  6  0  0  0
  5  4  1  0  0  0  0
 11 14  1  1  0  0  0
 11 13  1  0  0  0  0
 12 15  1  6  0  0  0
 12 11  1  0  0  0  0
 12 13  1  0  0  0  0
 13 17  1  0  0  0  0
 13 16  1  0  0  0  0
 18 11  1  0  0  0  0
 18 19  1  0  0  0  0
 19 24  1  0  0  0  0
 20 19  2  0  0  0  0
 20 25  1  0  0  0  0
 21 20  1  0  0  0  0
 22 23  1  0  0  0  0
 22 21  2  0  0  0  0
 23 18  2  0  0  0  0
 26 22  1  0  0  0  0
 27  1  1  0  0  0  0
 28 27  1  0  0  0  0
 29  5  1  0  0  0  0
 29 30  1  0  0  0  0
 30 37  1  0  0  0  0
 31 30  2  0  0  0  0
 31 33  1  0  0  0  0
 32 31  1  0  0  0  0
 33 35  1  0  0  0  0
 34 33  1  0  0  0  0
 35 36  1  0  0  0  0
 37 35  2  0  0  0  0
M  END
>  <minimizedAffinity>
-5.37070179

>  <minimizedRMSD>
2.27955365

$$$$
