
 OpenBabel03272503123D

 45 49  0  0  0  0  0  0  0  0999 V2000
   39.2640   31.7780   45.0860 C   0  0  0  0  0  0  0  0  0  0  0  0
   38.1670   32.4160   45.1560 O   0  0  0  0  0  0  0  0  0  0  0  0
   39.9350   31.5540   46.3290 N   0  0  0  0  0  0  0  0  0  0  0  0
   40.8370   31.0470   46.3050 H   0  0  0  0  0  0  0  0  0  0  0  0
   39.2950   32.0560   42.7050 C   0  0  0  0  0  0  0  0  0  0  0  0
   39.7530   31.3300   43.7970 C   0  0  0  0  0  0  0  0  0  0  0  0
   40.6020   30.2720   43.6770 C   0  0  0  0  0  0  0  0  0  0  0  0
   41.0400   29.8850   42.4240 C   0  0  0  0  0  0  0  0  0  0  0  0
   41.8590   28.9020   42.0180 N   0  0  0  0  0  0  0  0  0  0  0  0
   41.9400   28.9780   40.6870 C   0  0  0  0  0  0  0  0  0  0  0  0
   41.1770   30.0000   40.2580 N   0  0  0  0  0  0  0  0  0  0  0  0
   40.6010   30.5860   41.3360 C   0  0  0  0  0  0  0  0  0  0  0  0
   39.7300   31.6770   41.4250 C   0  0  0  0  0  0  0  0  0  0  0  0
   38.6300   32.8830   42.8080 H   0  0  0  0  0  0  0  0  0  0  0  0
   40.9500   29.7150   44.5490 H   0  0  0  0  0  0  0  0  0  0  0  0
   42.3520   28.2020   42.5970 H   0  0  0  0  0  0  0  0  0  0  0  0
   42.4970   28.3660   39.9900 H   0  0  0  0  0  0  0  0  0  0  0  0
   39.2820   32.3890   40.3360 O   0  0  0  0  0  0  0  0  0  0  0  0
   37.9510   32.7850   40.3170 C   0  0  0  0  0  0  0  0  0  0  0  0
   36.7590   32.1040   40.1400 C   0  0  0  0  0  0  0  0  0  0  0  0
   36.7430   31.0320   39.9740 H   0  0  0  0  0  0  0  0  0  0  0  0
   35.7210   32.9590   40.2100 N   0  0  0  0  0  0  0  0  0  0  0  0
   34.7210   32.7460   40.1170 H   0  0  0  0  0  0  0  0  0  0  0  0
   36.2390   34.2030   40.4320 C   0  0  0  0  0  0  0  0  0  0  0  0
   35.6830   35.1360   40.5430 H   0  0  0  0  0  0  0  0  0  0  0  0
   37.5650   34.0680   40.4910 N   0  0  0  0  0  0  0  0  0  0  0  0
   38.0670   30.0670   47.6530 F   0  0  0  0  0  0  0  0  0  0  0  0
   38.2950   31.3280   48.1130 C   0  0  0  0  0  0  0  0  0  0  0  0
   37.5950   31.7890   49.1970 C   0  0  0  0  0  0  0  0  0  0  0  0
   37.8680   33.0600   49.6140 C   0  0  0  0  0  0  0  0  0  0  0  0
   38.7950   33.8610   48.9920 C   0  0  0  0  0  0  0  0  0  0  0  0
   39.4970   33.3770   47.8930 C   0  0  0  0  0  0  0  0  0  0  0  0
   39.2300   32.0810   47.4560 C   0  0  0  0  0  0  0  0  0  0  0  0
   37.3300   33.4520   50.4680 H   0  0  0  0  0  0  0  0  0  0  0  0
   39.0080   34.8770   49.3300 H   0  0  0  0  0  0  0  0  0  0  0  0
   40.2390   33.9620   47.3640 H   0  0  0  0  0  0  0  0  0  0  0  0
   35.9480   29.2960   51.5300 C   0  0  0  0  0  0  0  0  0  0  0  0
   36.9100   30.1530   50.9430 C   0  0  0  0  0  0  0  0  0  0  0  0
   36.6200   30.8970   49.8220 C   0  0  0  0  0  0  0  0  0  0  0  0
   35.3640   30.7630   49.3110 N   0  0  0  0  0  0  0  0  0  0  0  0
   34.4410   29.9530   49.8590 C   0  0  0  0  0  0  0  0  0  0  0  0
   34.7310   29.2370   50.9430 N   0  0  0  0  0  0  0  0  0  0  0  0
   36.1860   28.7150   52.4110 H   0  0  0  0  0  0  0  0  0  0  0  0
   37.8930   30.2220   51.3890 H   0  0  0  0  0  0  0  0  0  0  0  0
   33.4760   29.9440   49.3450 H   0  0  0  0  0  0  0  0  0  0  0  0
  1  2  2  0  0  0  0
  1  3  1  0  0  0  0
  3 33  1  0  0  0  0
  4  3  1  0  0  0  0
  5 14  1  0  0  0  0
  5  6  1  0  0  0  0
  6  1  1  0  0  0  0
  7  6  2  0  0  0  0
  7 15  1  0  0  0  0
  8  7  1  0  0  0  0
  9  8  1  0  0  0  0
  9 16  1  0  0  0  0
 10  9  1  0  0  0  0
 11 10  2  0  0  0  0
 11 12  1  0  0  0  0
 12 13  1  0  0  0  0
 12  8  2  0  0  0  0
 13  5  2  0  0  0  0
 17 10  1  0  0  0  0
 18 13  1  0  0  0  0
 19 18  1  0  0  0  0
 19 26  1  0  0  0  0
 20 22  1  0  0  0  0
 20 19  2  0  0  0  0
 21 20  1  0  0  0  0
 22 24  1  0  0  0  0
 23 22  1  0  0  0  0
 24 26  2  0  0  0  0
 24 25  1  0  0  0  0
 27 28  1  0  0  0  0
 28 29  1  0  0  0  0
 29 30  2  0  0  0  0
 29 39  1  0  0  0  0
 30 34  1  0  0  0  0
 31 35  1  0  0  0  0
 31 30  1  0  0  0  0
 32 31  2  0  0  0  0
 33 32  1  0  0  0  0
 33 28  2  0  0  0  0
 36 32  1  0  0  0  0
 37 43  1  0  0  0  0
 38 44  1  0  0  0  0
 38 37  2  0  0  0  0
 39 38  1  0  0  0  0
 40 39  2  0  0  0  0
 40 41  1  0  0  0  0
 41 42  2  0  0  0  0
 42 37  1  0  0  0  0
 45 41  1  0  0  0  0
M  END
>  <minimizedAffinity>
-7.34478664

>  <minimizedRMSD>
1.24842715

$$$$
