
 OpenBabel03272510293D

 27 29  0  0  0  0  0  0  0  0999 V2000
   37.1420   31.3050   49.2170 C   0  0  0  0  0  0  0  0  0  0  0  0
   37.3630   32.5410   49.8240 C   0  0  0  0  0  0  0  0  0  0  0  0
   38.3220   33.3410   49.2250 C   0  0  0  0  0  0  0  0  0  0  0  0
   38.9820   32.9020   48.1120 N   0  0  0  0  0  0  0  0  0  0  0  0
   38.7380   31.6850   47.5460 C   0  0  0  0  0  0  0  0  0  0  0  0
   37.7930   30.8720   48.1200 N   0  0  0  0  0  0  0  0  0  0  0  0
   36.8340   32.8650   50.6970 H   0  0  0  0  0  0  0  0  0  0  0  0
   38.5820   34.3040   49.5930 H   0  0  0  0  0  0  0  0  0  0  0  0
   36.0840   30.4170   49.8150 C   0  0  0  0  0  0  0  0  0  0  0  0
   36.0740   28.9870   49.6260 C   0  0  0  0  0  0  0  0  0  0  0  0
   36.6190   29.5160   50.9320 C   0  0  0  0  0  0  0  0  0  0  0  0
   35.1100   30.9270   50.0740 H   0  0  0  0  0  0  0  0  0  0  0  0
   35.1530   28.4070   49.6050 H   0  0  0  0  0  0  0  0  0  0  0  0
   36.8480   28.5690   48.9300 H   0  0  0  0  0  0  0  0  0  0  0  0
   37.6900   29.5280   51.1390 H   0  0  0  0  0  0  0  0  0  0  0  0
   35.9240   29.3410   51.7760 H   0  0  0  0  0  0  0  0  0  0  0  0
   39.4100   31.1750   46.3570 C   0  0  0  0  0  0  0  0  0  0  0  0
   40.3580   31.7730   46.2400 H   0  0  0  0  0  0  0  0  0  0  0  0
   39.7160   30.1410   46.5370 H   0  0  0  0  0  0  0  0  0  0  0  0
   38.5680   31.2930   45.1250 C   0  0  0  0  0  0  0  0  0  0  0  0
   38.2240   30.3790   44.1530 C   0  0  0  0  0  0  0  0  0  0  0  0
   38.5650   29.3520   44.1740 H   0  0  0  0  0  0  0  0  0  0  0  0
   37.4400   31.0540   43.2810 N   0  0  0  0  0  0  0  0  0  0  0  0
   37.0250   30.6050   42.4260 H   0  0  0  0  0  0  0  0  0  0  0  0
   37.2810   32.3270   43.6580 C   0  0  0  0  0  0  0  0  0  0  0  0
   36.7160   33.0940   43.1680 H   0  0  0  0  0  0  0  0  0  0  0  0
   37.9870   32.4720   44.8090 N   0  0  0  0  0  0  0  0  0  0  0  0
  1  9  1  0  0  0  0
  1  2  1  0  0  0  0
  2  7  1  0  0  0  0
  3  8  1  0  0  0  0
  3  2  2  0  0  0  0
  4  3  1  0  0  0  0
  5  4  2  0  0  0  0
  5  6  1  0  0  0  0
  6  1  2  0  0  0  0
  9 12  1  0  0  0  0
  9 11  1  0  0  0  0
 10  9  1  0  0  0  0
 10 11  1  0  0  0  0
 11 15  1  0  0  0  0
 11 16  1  0  0  0  0
 13 10  1  0  0  0  0
 14 10  1  0  0  0  0
 17 19  1  0  0  0  0
 17  5  1  0  0  0  0
 18 17  1  0  0  0  0
 20 17  1  0  0  0  0
 21 22  1  0  0  0  0
 21 20  2  0  0  0  0
 23 25  1  0  0  0  0
 23 21  1  0  0  0  0
 24 23  1  0  0  0  0
 25 27  2  0  0  0  0
 26 25  1  0  0  0  0
 27 20  1  0  0  0  0
M  END
>  <minimizedAffinity>
-5.08702183

>  <minimizedRMSD>
0.587103784

$$$$
