
 OpenBabel03272508173D

 30 32  0  0  0  0  0  0  0  0999 V2000
   36.7640   28.5120   34.9340 Cl  0  0  0  0  0  0  0  0  0  0  0  0
   36.8580   27.2380   33.7730 C   0  0  0  0  0  0  0  0  0  0  0  0
   36.2820   27.5510   32.5860 C   0  0  0  0  0  0  0  0  0  0  0  0
   36.3000   26.5770   31.5550 C   0  0  0  0  0  0  0  0  0  0  0  0
   36.8830   25.3550   31.7470 C   0  0  0  0  0  0  0  0  0  0  0  0
   37.4620   25.0650   32.9650 C   0  0  0  0  0  0  0  0  0  0  0  0
   38.2080   23.5300   33.2470 Cl  0  0  0  0  0  0  0  0  0  0  0  0
   37.4390   26.0040   33.9460 C   0  0  0  0  0  0  0  0  0  0  0  0
   35.8660   26.7370   30.5760 H   0  0  0  0  0  0  0  0  0  0  0  0
   36.9130   24.5910   30.9780 H   0  0  0  0  0  0  0  0  0  0  0  0
   36.2860   29.6160   31.2460 C   0  0  0  0  0  0  0  0  0  0  0  0
   35.6020   28.7900   32.1540 C   0  0  0  0  0  0  0  0  0  0  0  0
   34.3370   29.1680   32.5990 C   0  0  0  0  0  0  0  0  0  0  0  0
   33.8340   30.3420   32.1120 N   0  0  0  0  0  0  0  0  0  0  0  0
   34.5000   31.1090   31.2510 C   0  0  0  0  0  0  0  0  0  0  0  0
   35.7500   30.7500   30.8030 N   0  0  0  0  0  0  0  0  0  0  0  0
   37.2720   29.4010   30.8480 H   0  0  0  0  0  0  0  0  0  0  0  0
   33.8300   28.5150   33.2980 H   0  0  0  0  0  0  0  0  0  0  0  0
   33.9310   31.9870   30.9940 H   0  0  0  0  0  0  0  0  0  0  0  0
   38.0350   25.7750   35.2750 C   0  0  0  0  0  0  0  0  0  0  0  0
   39.0660   26.2530   35.7630 O   0  0  0  0  0  0  0  0  0  0  0  0
   37.5220   24.9340   36.2900 O   0  0  0  0  0  0  0  0  0  0  0  0
   38.3150   24.0810   37.0140 C   0  0  0  0  0  0  0  0  0  0  0  0
   38.3300   23.7380   38.3390 C   0  0  0  0  0  0  0  0  0  0  0  0
   37.6010   24.1870   39.0320 H   0  0  0  0  0  0  0  0  0  0  0  0
   39.3040   22.8420   38.6260 N   0  0  0  0  0  0  0  0  0  0  0  0
   39.4660   22.4670   39.5860 H   0  0  0  0  0  0  0  0  0  0  0  0
   39.9040   22.6290   37.4310 C   0  0  0  0  0  0  0  0  0  0  0  0
   40.7500   21.9350   37.3340 H   0  0  0  0  0  0  0  0  0  0  0  0
   39.3270   23.3570   36.4700 N   0  0  0  0  0  0  0  0  0  0  0  0
  2  8  1  0  0  0  0
  2  1  1  0  0  0  0
  3  2  2  0  0  0  0
  4  5  2  0  0  0  0
  4  3  1  0  0  0  0
  5  6  1  0  0  0  0
  6  7  1  0  0  0  0
  6  8  2  0  0  0  0
  8 20  1  0  0  0  0
  9  4  1  0  0  0  0
 10  5  1  0  0  0  0
 11 12  1  0  0  0  0
 12  3  1  0  0  0  0
 12 13  2  0  0  0  0
 13 18  1  0  0  0  0
 14 13  1  0  0  0  0
 15 14  2  0  0  0  0
 16 11  2  0  0  0  0
 16 15  1  0  0  0  0
 17 11  1  0  0  0  0
 19 15  1  0  0  0  0
 20 21  2  0  0  0  0
 20 22  1  0  0  0  0
 22 23  1  0  0  0  0
 23 24  2  0  0  0  0
 24 26  1  0  0  0  0
 24 25  1  0  0  0  0
 26 27  1  0  0  0  0
 28 26  1  0  0  0  0
 29 28  1  0  0  0  0
 30 23  1  0  0  0  0
 30 28  2  0  0  0  0
M  END
>  <minimizedAffinity>
-5.41106033

$$$$

 OpenBabel03272508173D

 30 32  0  0  0  0  0  0  0  0999 V2000
   38.5690   21.7360   33.7700 Cl  0  0  0  0  0  0  0  0  0  0  0  0
   37.5370   22.8380   32.9320 C   0  0  0  0  0  0  0  0  0  0  0  0
   36.5810   22.2210   32.1950 C   0  0  0  0  0  0  0  0  0  0  0  0
   35.6740   23.0300   31.4630 C   0  0  0  0  0  0  0  0  0  0  0  0
   35.7570   24.3940   31.4980 C   0  0  0  0  0  0  0  0  0  0  0  0
   36.7400   24.9940   32.2560 C   0  0  0  0  0  0  0  0  0  0  0  0
   36.8780   26.7170   32.3250 Cl  0  0  0  0  0  0  0  0  0  0  0  0
   37.6040   24.2110   32.9530 C   0  0  0  0  0  0  0  0  0  0  0  0
   34.8790   22.6280   30.8480 H   0  0  0  0  0  0  0  0  0  0  0  0
   35.0780   25.0380   30.9490 H   0  0  0  0  0  0  0  0  0  0  0  0
   35.5650   20.1340   33.0130 C   0  0  0  0  0  0  0  0  0  0  0  0
   36.3020   20.7830   32.0080 C   0  0  0  0  0  0  0  0  0  0  0  0
   36.7280   20.0540   30.9000 C   0  0  0  0  0  0  0  0  0  0  0  0
   36.3950   18.7290   30.8630 N   0  0  0  0  0  0  0  0  0  0  0  0
   35.6960   18.1350   31.8280 C   0  0  0  0  0  0  0  0  0  0  0  0
   35.2670   18.8400   32.9290 N   0  0  0  0  0  0  0  0  0  0  0  0
   35.1930   20.6210   33.9100 H   0  0  0  0  0  0  0  0  0  0  0  0
   37.2940   20.5750   30.1380 H   0  0  0  0  0  0  0  0  0  0  0  0
   35.5410   17.0910   31.6080 H   0  0  0  0  0  0  0  0  0  0  0  0
   38.6820   24.7700   33.7890 C   0  0  0  0  0  0  0  0  0  0  0  0
   39.8730   24.9540   33.5120 O   0  0  0  0  0  0  0  0  0  0  0  0
   38.5580   25.2240   35.1230 O   0  0  0  0  0  0  0  0  0  0  0  0
   38.5570   24.3710   36.1970 C   0  0  0  0  0  0  0  0  0  0  0  0
   39.4680   23.4510   36.6440 C   0  0  0  0  0  0  0  0  0  0  0  0
   40.4110   23.3000   36.0960 H   0  0  0  0  0  0  0  0  0  0  0  0
   39.0490   22.8180   37.7650 N   0  0  0  0  0  0  0  0  0  0  0  0
   39.6130   22.0840   38.2470 H   0  0  0  0  0  0  0  0  0  0  0  0
   37.8380   23.3730   38.0130 C   0  0  0  0  0  0  0  0  0  0  0  0
   37.2350   23.0620   38.8760 H   0  0  0  0  0  0  0  0  0  0  0  0
   37.5380   24.2930   37.0910 N   0  0  0  0  0  0  0  0  0  0  0  0
  2  8  1  0  0  0  0
  2  1  1  0  0  0  0
  3  2  2  0  0  0  0
  4  5  2  0  0  0  0
  4  3  1  0  0  0  0
  5  6  1  0  0  0  0
  6  7  1  0  0  0  0
  6  8  2  0  0  0  0
  8 20  1  0  0  0  0
  9  4  1  0  0  0  0
 10  5  1  0  0  0  0
 11 17  1  0  0  0  0
 12  3  1  0  0  0  0
 12 11  2  0  0  0  0
 13 12  1  0  0  0  0
 14 13  2  0  0  0  0
 14 15  1  0  0  0  0
 15 16  2  0  0  0  0
 16 11  1  0  0  0  0
 18 13  1  0  0  0  0
 19 15  1  0  0  0  0
 20 22  1  0  0  0  0
 21 20  2  0  0  0  0
 22 23  1  0  0  0  0
 23 24  2  0  0  0  0
 23 30  1  0  0  0  0
 24 26  1  0  0  0  0
 25 24  1  0  0  0  0
 26 28  1  0  0  0  0
 26 27  1  0  0  0  0
 28 29  1  0  0  0  0
 30 28  2  0  0  0  0
M  END
>  <minimizedAffinity>
-5.31926012

$$$$

 OpenBabel03272508173D

 30 32  0  0  0  0  0  0  0  0999 V2000
   38.3040   27.0880   34.4730 Cl  0  0  0  0  0  0  0  0  0  0  0  0
   37.4430   26.1770   33.2860 C   0  0  0  0  0  0  0  0  0  0  0  0
   36.5820   26.9280   32.5560 C   0  0  0  0  0  0  0  0  0  0  0  0
   35.8200   26.2830   31.5480 C   0  0  0  0  0  0  0  0  0  0  0  0
   35.9460   24.9420   31.3160 C   0  0  0  0  0  0  0  0  0  0  0  0
   36.8290   24.2030   32.0750 C   0  0  0  0  0  0  0  0  0  0  0  0
   37.0160   22.5030   31.8120 Cl  0  0  0  0  0  0  0  0  0  0  0  0
   37.5540   24.8290   33.0370 C   0  0  0  0  0  0  0  0  0  0  0  0
   35.1090   26.8000   30.9160 H   0  0  0  0  0  0  0  0  0  0  0  0
   35.3770   24.4220   30.5530 H   0  0  0  0  0  0  0  0  0  0  0  0
   36.7570   29.1810   31.5800 C   0  0  0  0  0  0  0  0  0  0  0  0
   36.2820   28.3730   32.6260 C   0  0  0  0  0  0  0  0  0  0  0  0
   35.5610   28.9590   33.6650 C   0  0  0  0  0  0  0  0  0  0  0  0
   35.3600   30.3090   33.5950 N   0  0  0  0  0  0  0  0  0  0  0  0
   35.8210   31.0550   32.5930 C   0  0  0  0  0  0  0  0  0  0  0  0
   36.5340   30.4920   31.5610 N   0  0  0  0  0  0  0  0  0  0  0  0
   37.3260   28.8120   30.7320 H   0  0  0  0  0  0  0  0  0  0  0  0
   35.2050   28.3160   34.4590 H   0  0  0  0  0  0  0  0  0  0  0  0
   35.5560   32.0910   32.7280 H   0  0  0  0  0  0  0  0  0  0  0  0
   38.5200   24.1150   33.8920 C   0  0  0  0  0  0  0  0  0  0  0  0
   39.7410   24.2820   34.0030 O   0  0  0  0  0  0  0  0  0  0  0  0
   38.2270   23.0590   34.7860 O   0  0  0  0  0  0  0  0  0  0  0  0
   38.4360   23.1570   36.1390 C   0  0  0  0  0  0  0  0  0  0  0  0
   39.3390   22.5610   36.9770 C   0  0  0  0  0  0  0  0  0  0  0  0
   40.0790   21.8510   36.5740 H   0  0  0  0  0  0  0  0  0  0  0  0
   39.1820   22.9540   38.2630 N   0  0  0  0  0  0  0  0  0  0  0  0
   39.7820   22.6030   39.0420 H   0  0  0  0  0  0  0  0  0  0  0  0
   38.1440   23.8230   38.2070 C   0  0  0  0  0  0  0  0  0  0  0  0
   37.7710   24.3220   39.1110 H   0  0  0  0  0  0  0  0  0  0  0  0
   37.6960   23.9500   36.9550 N   0  0  0  0  0  0  0  0  0  0  0  0
  2  1  1  0  0  0  0
  3 12  1  0  0  0  0
  3  2  2  0  0  0  0
  4  3  1  0  0  0  0
  5  4  2  0  0  0  0
  5  6  1  0  0  0  0
  6  8  2  0  0  0  0
  7  6  1  0  0  0  0
  8  2  1  0  0  0  0
  8 20  1  0  0  0  0
  9  4  1  0  0  0  0
 10  5  1  0  0  0  0
 11 12  1  0  0  0  0
 12 13  2  0  0  0  0
 13 18  1  0  0  0  0
 14 13  1  0  0  0  0
 15 19  1  0  0  0  0
 15 14  2  0  0  0  0
 16 11  2  0  0  0  0
 16 15  1  0  0  0  0
 17 11  1  0  0  0  0
 20 21  2  0  0  0  0
 20 22  1  0  0  0  0
 22 23  1  0  0  0  0
 23 30  1  0  0  0  0
 23 24  2  0  0  0  0
 24 26  1  0  0  0  0
 25 24  1  0  0  0  0
 26 27  1  0  0  0  0
 28 26  1  0  0  0  0
 28 29  1  0  0  0  0
 30 28  2  0  0  0  0
M  END
>  <minimizedAffinity>
-5.2696104

$$$$

 OpenBabel03272508173D

 30 32  0  0  0  0  0  0  0  0999 V2000
   37.4250   24.3570   33.0480 Cl  0  0  0  0  0  0  0  0  0  0  0  0
   38.8570   25.0750   33.6920 C   0  0  0  0  0  0  0  0  0  0  0  0
   38.8370   26.4310   33.6570 C   0  0  0  0  0  0  0  0  0  0  0  0
   39.9640   27.1300   34.1620 C   0  0  0  0  0  0  0  0  0  0  0  0
   41.0420   26.4590   34.6700 C   0  0  0  0  0  0  0  0  0  0  0  0
   41.0340   25.0800   34.6920 C   0  0  0  0  0  0  0  0  0  0  0  0
   42.3790   24.1970   35.3270 Cl  0  0  0  0  0  0  0  0  0  0  0  0
   39.9500   24.4210   34.2070 C   0  0  0  0  0  0  0  0  0  0  0  0
   40.0390   28.2090   34.1760 H   0  0  0  0  0  0  0  0  0  0  0  0
   41.9170   26.9660   35.0620 H   0  0  0  0  0  0  0  0  0  0  0  0
   36.8290   27.7890   34.0830 C   0  0  0  0  0  0  0  0  0  0  0  0
   37.7980   27.3570   33.1620 C   0  0  0  0  0  0  0  0  0  0  0  0
   37.7380   27.8130   31.8470 C   0  0  0  0  0  0  0  0  0  0  0  0
   36.7190   28.6680   31.5330 N   0  0  0  0  0  0  0  0  0  0  0  0
   35.8110   29.0640   32.4230 C   0  0  0  0  0  0  0  0  0  0  0  0
   35.8560   28.6230   33.7250 N   0  0  0  0  0  0  0  0  0  0  0  0
   36.7980   27.4860   35.1250 H   0  0  0  0  0  0  0  0  0  0  0  0
   38.4960   27.4670   31.1560 H   0  0  0  0  0  0  0  0  0  0  0  0
   35.0960   29.7340   31.9740 H   0  0  0  0  0  0  0  0  0  0  0  0
   39.8590   22.9490   34.1940 C   0  0  0  0  0  0  0  0  0  0  0  0
   40.3180   22.1430   33.3760 O   0  0  0  0  0  0  0  0  0  0  0  0
   39.2040   22.1420   35.1540 O   0  0  0  0  0  0  0  0  0  0  0  0
   39.0460   22.5280   36.4600 C   0  0  0  0  0  0  0  0  0  0  0  0
   39.8970   22.5170   37.5330 C   0  0  0  0  0  0  0  0  0  0  0  0
   40.9260   22.1430   37.4160 H   0  0  0  0  0  0  0  0  0  0  0  0
   39.3120   22.9980   38.6560 N   0  0  0  0  0  0  0  0  0  0  0  0
   39.8090   23.0650   39.5710 H   0  0  0  0  0  0  0  0  0  0  0  0
   38.0580   23.3150   38.2530 C   0  0  0  0  0  0  0  0  0  0  0  0
   37.3250   23.7380   38.9520 H   0  0  0  0  0  0  0  0  0  0  0  0
   37.8910   23.0410   36.9550 N   0  0  0  0  0  0  0  0  0  0  0  0
  1  2  1  0  0  0  0
  2  8  1  0  0  0  0
  3  2  2  0  0  0  0
  3  4  1  0  0  0  0
  4  9  1  0  0  0  0
  4  5  2  0  0  0  0
  5  6  1  0  0  0  0
  5 10  1  0  0  0  0
  6  7  1  0  0  0  0
  8  6  2  0  0  0  0
 11 17  1  0  0  0  0
 12  3  1  0  0  0  0
 12 11  2  0  0  0  0
 13 12  1  0  0  0  0
 14 13  2  0  0  0  0
 14 15  1  0  0  0  0
 15 16  2  0  0  0  0
 16 11  1  0  0  0  0
 18 13  1  0  0  0  0
 19 15  1  0  0  0  0
 20  8  1  0  0  0  0
 20 22  1  0  0  0  0
 21 20  2  0  0  0  0
 22 23  1  0  0  0  0
 23 30  1  0  0  0  0
 23 24  2  0  0  0  0
 24 26  1  0  0  0  0
 25 24  1  0  0  0  0
 26 27  1  0  0  0  0
 28 26  1  0  0  0  0
 28 29  1  0  0  0  0
 30 28  2  0  0  0  0
M  END
>  <minimizedAffinity>
-5.20167208

$$$$

 OpenBabel03272508173D

 30 32  0  0  0  0  0  0  0  0999 V2000
   39.1630   22.9940   33.4900 Cl  0  0  0  0  0  0  0  0  0  0  0  0
   37.7510   22.0500   33.8000 C   0  0  0  0  0  0  0  0  0  0  0  0
   37.4820   21.9070   35.1210 C   0  0  0  0  0  0  0  0  0  0  0  0
   36.3430   21.1480   35.4950 C   0  0  0  0  0  0  0  0  0  0  0  0
   35.5350   20.5760   34.5520 C   0  0  0  0  0  0  0  0  0  0  0  0
   35.8330   20.7390   33.2160 C   0  0  0  0  0  0  0  0  0  0  0  0
   34.8340   20.0300   31.9930 Cl  0  0  0  0  0  0  0  0  0  0  0  0
   36.9260   21.4660   32.8680 C   0  0  0  0  0  0  0  0  0  0  0  0
   36.0500   20.9800   36.5230 H   0  0  0  0  0  0  0  0  0  0  0  0
   34.6580   19.9920   34.8070 H   0  0  0  0  0  0  0  0  0  0  0  0
   37.4750   23.2230   37.2010 C   0  0  0  0  0  0  0  0  0  0  0  0
   38.2030   22.4260   36.3020 C   0  0  0  0  0  0  0  0  0  0  0  0
   39.5470   22.1650   36.5590 C   0  0  0  0  0  0  0  0  0  0  0  0
   40.0800   22.7130   37.6920 N   0  0  0  0  0  0  0  0  0  0  0  0
   39.3700   23.4660   38.5310 C   0  0  0  0  0  0  0  0  0  0  0  0
   38.0420   23.7330   38.2920 N   0  0  0  0  0  0  0  0  0  0  0  0
   36.4260   23.4770   37.0820 H   0  0  0  0  0  0  0  0  0  0  0  0
   40.0870   21.5490   35.8520 H   0  0  0  0  0  0  0  0  0  0  0  0
   39.9740   23.8000   39.3580 H   0  0  0  0  0  0  0  0  0  0  0  0
   37.3150   21.6900   31.4640 C   0  0  0  0  0  0  0  0  0  0  0  0
   38.1660   21.1050   30.7840 O   0  0  0  0  0  0  0  0  0  0  0  0
   36.7670   22.6550   30.5860 O   0  0  0  0  0  0  0  0  0  0  0  0
   36.6300   23.9750   30.9320 C   0  0  0  0  0  0  0  0  0  0  0  0
   35.5630   24.7020   31.3880 C   0  0  0  0  0  0  0  0  0  0  0  0
   34.5870   24.2130   31.5350 H   0  0  0  0  0  0  0  0  0  0  0  0
   35.8820   26.0000   31.6060 N   0  0  0  0  0  0  0  0  0  0  0  0
   35.1940   26.7030   31.9540 H   0  0  0  0  0  0  0  0  0  0  0  0
   37.1930   26.0670   31.2700 C   0  0  0  0  0  0  0  0  0  0  0  0
   37.7510   27.0100   31.3410 H   0  0  0  0  0  0  0  0  0  0  0  0
   37.6440   24.8750   30.8710 N   0  0  0  0  0  0  0  0  0  0  0  0
  1  2  1  0  0  0  0
  2  3  1  0  0  0  0
  3  4  2  0  0  0  0
  3 12  1  0  0  0  0
  4  9  1  0  0  0  0
  5 10  1  0  0  0  0
  5  4  1  0  0  0  0
  6  5  2  0  0  0  0
  7  6  1  0  0  0  0
  8  6  1  0  0  0  0
  8  2  2  0  0  0  0
 11 16  1  0  0  0  0
 12 13  1  0  0  0  0
 12 11  2  0  0  0  0
 13 14  2  0  0  0  0
 14 15  1  0  0  0  0
 15 19  1  0  0  0  0
 16 15  2  0  0  0  0
 17 11  1  0  0  0  0
 18 13  1  0  0  0  0
 20  8  1  0  0  0  0
 21 20  2  0  0  0  0
 22 23  1  0  0  0  0
 22 20  1  0  0  0  0
 23 24  2  0  0  0  0
 24 25  1  0  0  0  0
 24 26  1  0  0  0  0
 26 27  1  0  0  0  0
 28 29  1  0  0  0  0
 28 26  1  0  0  0  0
 30 23  1  0  0  0  0
 30 28  2  0  0  0  0
M  END
>  <minimizedAffinity>
-5.14839125

$$$$

 OpenBabel03272508173D

 30 32  0  0  0  0  0  0  0  0999 V2000
   32.9010   29.4550   33.3770 Cl  0  0  0  0  0  0  0  0  0  0  0  0
   33.7790   30.3730   34.5460 C   0  0  0  0  0  0  0  0  0  0  0  0
   35.1190   30.1720   34.4890 C   0  0  0  0  0  0  0  0  0  0  0  0
   35.9420   30.8760   35.4050 C   0  0  0  0  0  0  0  0  0  0  0  0
   35.4040   31.7370   36.3210 C   0  0  0  0  0  0  0  0  0  0  0  0
   34.0370   31.9220   36.3560 C   0  0  0  0  0  0  0  0  0  0  0  0
   33.3190   33.0010   37.5010 Cl  0  0  0  0  0  0  0  0  0  0  0  0
   33.2580   31.2420   35.4750 C   0  0  0  0  0  0  0  0  0  0  0  0
   37.0190   30.7800   35.4350 H   0  0  0  0  0  0  0  0  0  0  0  0
   36.0070   32.2890   37.0340 H   0  0  0  0  0  0  0  0  0  0  0  0
   36.4330   28.1190   34.1470 C   0  0  0  0  0  0  0  0  0  0  0  0
   35.9150   29.3040   33.5970 C   0  0  0  0  0  0  0  0  0  0  0  0
   36.1690   29.6010   32.2600 C   0  0  0  0  0  0  0  0  0  0  0  0
   36.9220   28.7030   31.5570 N   0  0  0  0  0  0  0  0  0  0  0  0
   37.4030   27.5860   32.0990 C   0  0  0  0  0  0  0  0  0  0  0  0
   37.1610   27.2770   33.4180 N   0  0  0  0  0  0  0  0  0  0  0  0
   36.2850   27.8070   35.1760 H   0  0  0  0  0  0  0  0  0  0  0  0
   35.7600   30.5190   31.8590 H   0  0  0  0  0  0  0  0  0  0  0  0
   37.9690   27.0180   31.3790 H   0  0  0  0  0  0  0  0  0  0  0  0
   31.7910   31.3830   35.4440 C   0  0  0  0  0  0  0  0  0  0  0  0
   31.0880   32.1050   34.7270 O   0  0  0  0  0  0  0  0  0  0  0  0
   30.8650   30.6900   36.2590 O   0  0  0  0  0  0  0  0  0  0  0  0
   30.9510   29.3410   36.4930 C   0  0  0  0  0  0  0  0  0  0  0  0
   31.4880   28.6170   37.5240 C   0  0  0  0  0  0  0  0  0  0  0  0
   31.9630   29.1360   38.3720 H   0  0  0  0  0  0  0  0  0  0  0  0
   31.3490   27.2830   37.3410 N   0  0  0  0  0  0  0  0  0  0  0  0
   31.6980   26.5760   38.0240 H   0  0  0  0  0  0  0  0  0  0  0  0
   30.7020   27.1890   36.1540 C   0  0  0  0  0  0  0  0  0  0  0  0
   30.4400   26.2140   35.7240 H   0  0  0  0  0  0  0  0  0  0  0  0
   30.4630   28.4010   35.6450 N   0  0  0  0  0  0  0  0  0  0  0  0
  1  2  1  0  0  0  0
  2  8  1  0  0  0  0
  3  2  2  0  0  0  0
  3  4  1  0  0  0  0
  4  9  1  0  0  0  0
  4  5  2  0  0  0  0
  5  6  1  0  0  0  0
  5 10  1  0  0  0  0
  6  7  1  0  0  0  0
  8  6  2  0  0  0  0
 11 17  1  0  0  0  0
 12 11  1  0  0  0  0
 12  3  1  0  0  0  0
 13 12  2  0  0  0  0
 14 15  2  0  0  0  0
 14 13  1  0  0  0  0
 15 16  1  0  0  0  0
 16 11  2  0  0  0  0
 18 13  1  0  0  0  0
 19 15  1  0  0  0  0
 20  8  1  0  0  0  0
 20 22  1  0  0  0  0
 21 20  2  0  0  0  0
 22 23  1  0  0  0  0
 23 24  2  0  0  0  0
 24 25  1  0  0  0  0
 26 24  1  0  0  0  0
 26 27  1  0  0  0  0
 28 26  1  0  0  0  0
 29 28  1  0  0  0  0
 30 28  2  0  0  0  0
 30 23  1  0  0  0  0
M  END
>  <minimizedAffinity>
-5.10057926

$$$$

 OpenBabel03272508173D

 30 32  0  0  0  0  0  0  0  0999 V2000
   37.8700   27.4100   34.7810 Cl  0  0  0  0  0  0  0  0  0  0  0  0
   37.6530   26.0180   33.7820 C   0  0  0  0  0  0  0  0  0  0  0  0
   37.1890   26.3160   32.5430 C   0  0  0  0  0  0  0  0  0  0  0  0
   36.9730   25.2480   31.6350 C   0  0  0  0  0  0  0  0  0  0  0  0
   37.2260   23.9530   31.9930 C   0  0  0  0  0  0  0  0  0  0  0  0
   37.6970   23.6800   33.2600 C   0  0  0  0  0  0  0  0  0  0  0  0
   38.0280   22.0550   33.7510 Cl  0  0  0  0  0  0  0  0  0  0  0  0
   37.9010   24.7100   34.1230 C   0  0  0  0  0  0  0  0  0  0  0  0
   36.6050   25.3880   30.6260 H   0  0  0  0  0  0  0  0  0  0  0  0
   37.0700   23.1160   31.3210 H   0  0  0  0  0  0  0  0  0  0  0  0
   35.5950   28.1690   32.2550 C   0  0  0  0  0  0  0  0  0  0  0  0
   36.8500   27.6210   31.9410 C   0  0  0  0  0  0  0  0  0  0  0  0
   37.7040   28.3220   31.0910 C   0  0  0  0  0  0  0  0  0  0  0  0
   37.2540   29.5190   30.6090 N   0  0  0  0  0  0  0  0  0  0  0  0
   36.0590   30.0180   30.9210 C   0  0  0  0  0  0  0  0  0  0  0  0
   35.2050   29.3400   31.7580 N   0  0  0  0  0  0  0  0  0  0  0  0
   34.8670   27.6950   32.9070 H   0  0  0  0  0  0  0  0  0  0  0  0
   38.6650   27.8800   30.8640 H   0  0  0  0  0  0  0  0  0  0  0  0
   35.8990   30.9680   30.4380 H   0  0  0  0  0  0  0  0  0  0  0  0
   38.4040   24.5070   35.4940 C   0  0  0  0  0  0  0  0  0  0  0  0
   37.7730   24.4010   36.5520 O   0  0  0  0  0  0  0  0  0  0  0  0
   39.7590   24.3870   35.8790 O   0  0  0  0  0  0  0  0  0  0  0  0
   40.2700   23.2450   36.4410 C   0  0  0  0  0  0  0  0  0  0  0  0
   40.1410   22.6930   37.6880 C   0  0  0  0  0  0  0  0  0  0  0  0
   39.5270   23.1970   38.4510 H   0  0  0  0  0  0  0  0  0  0  0  0
   40.8320   21.5350   37.8100 N   0  0  0  0  0  0  0  0  0  0  0  0
   40.8500   20.9750   38.6900 H   0  0  0  0  0  0  0  0  0  0  0  0
   41.4030   21.3730   36.5930 C   0  0  0  0  0  0  0  0  0  0  0  0
   42.0400   20.5060   36.3730 H   0  0  0  0  0  0  0  0  0  0  0  0
   41.0770   22.3790   35.7760 N   0  0  0  0  0  0  0  0  0  0  0  0
  2  8  1  0  0  0  0
  2  1  1  0  0  0  0
  3  2  2  0  0  0  0
  4  5  2  0  0  0  0
  4  3  1  0  0  0  0
  5  6  1  0  0  0  0
  6  7  1  0  0  0  0
  6  8  2  0  0  0  0
  8 20  1  0  0  0  0
  9  4  1  0  0  0  0
 10  5  1  0  0  0  0
 11 17  1  0  0  0  0
 12 11  1  0  0  0  0
 12  3  1  0  0  0  0
 13 12  2  0  0  0  0
 14 15  2  0  0  0  0
 14 13  1  0  0  0  0
 15 16  1  0  0  0  0
 16 11  2  0  0  0  0
 18 13  1  0  0  0  0
 19 15  1  0  0  0  0
 20 22  1  0  0  0  0
 20 21  2  0  0  0  0
 22 23  1  0  0  0  0
 23 24  2  0  0  0  0
 24 26  1  0  0  0  0
 24 25  1  0  0  0  0
 26 27  1  0  0  0  0
 28 26  1  0  0  0  0
 29 28  1  0  0  0  0
 30 23  1  0  0  0  0
 30 28  2  0  0  0  0
M  END
>  <minimizedAffinity>
-5.06524754

$$$$

 OpenBabel03272508173D

 30 32  0  0  0  0  0  0  0  0999 V2000
   36.9000   28.2660   35.1180 Cl  0  0  0  0  0  0  0  0  0  0  0  0
   36.4180   28.9030   33.5870 C   0  0  0  0  0  0  0  0  0  0  0  0
   35.5500   29.9400   33.6880 C   0  0  0  0  0  0  0  0  0  0  0  0
   35.0860   30.5440   32.4920 C   0  0  0  0  0  0  0  0  0  0  0  0
   35.5000   30.0970   31.2680 C   0  0  0  0  0  0  0  0  0  0  0  0
   36.3830   29.0400   31.1960 C   0  0  0  0  0  0  0  0  0  0  0  0
   36.9290   28.4450   29.6660 Cl  0  0  0  0  0  0  0  0  0  0  0  0
   36.8220   28.4690   32.3470 C   0  0  0  0  0  0  0  0  0  0  0  0
   34.3930   31.3750   32.4730 H   0  0  0  0  0  0  0  0  0  0  0  0
   35.1620   30.5380   30.3370 H   0  0  0  0  0  0  0  0  0  0  0  0
   33.6170   30.3370   35.1590 C   0  0  0  0  0  0  0  0  0  0  0  0
   34.9720   30.5850   34.8850 C   0  0  0  0  0  0  0  0  0  0  0  0
   35.6980   31.4140   35.7390 C   0  0  0  0  0  0  0  0  0  0  0  0
   35.0290   31.9410   36.8080 N   0  0  0  0  0  0  0  0  0  0  0  0
   33.7430   31.6910   37.0470 C   0  0  0  0  0  0  0  0  0  0  0  0
   33.0130   30.8760   36.2150 N   0  0  0  0  0  0  0  0  0  0  0  0
   32.9760   29.7060   34.5500 H   0  0  0  0  0  0  0  0  0  0  0  0
   36.7400   31.5900   35.5070 H   0  0  0  0  0  0  0  0  0  0  0  0
   33.4080   32.2020   37.9360 H   0  0  0  0  0  0  0  0  0  0  0  0
   37.7670   27.3370   32.3600 C   0  0  0  0  0  0  0  0  0  0  0  0
   38.9440   27.2950   31.9840 O   0  0  0  0  0  0  0  0  0  0  0  0
   37.4990   26.0270   32.8230 O   0  0  0  0  0  0  0  0  0  0  0  0
   36.6950   25.1510   32.1390 C   0  0  0  0  0  0  0  0  0  0  0  0
   35.6610   25.3420   31.2620 C   0  0  0  0  0  0  0  0  0  0  0  0
   35.3450   26.3640   30.9980 H   0  0  0  0  0  0  0  0  0  0  0  0
   35.1410   24.1730   30.8200 N   0  0  0  0  0  0  0  0  0  0  0  0
   34.3460   24.1230   30.1460 H   0  0  0  0  0  0  0  0  0  0  0  0
   35.8860   23.2330   31.4500 C   0  0  0  0  0  0  0  0  0  0  0  0
   35.7030   22.1620   31.2930 H   0  0  0  0  0  0  0  0  0  0  0  0
   36.8080   23.8020   32.2320 N   0  0  0  0  0  0  0  0  0  0  0  0
  2  3  1  0  0  0  0
  2  1  1  0  0  0  0
  3 12  1  0  0  0  0
  4  3  2  0  0  0  0
  5  4  1  0  0  0  0
  6  5  2  0  0  0  0
  6  8  1  0  0  0  0
  7  6  1  0  0  0  0
  8 20  1  0  0  0  0
  8  2  2  0  0  0  0
  9  4  1  0  0  0  0
 10  5  1  0  0  0  0
 11 16  1  0  0  0  0
 12 11  2  0  0  0  0
 12 13  1  0  0  0  0
 13 14  2  0  0  0  0
 14 15  1  0  0  0  0
 15 19  1  0  0  0  0
 16 15  2  0  0  0  0
 17 11  1  0  0  0  0
 18 13  1  0  0  0  0
 20 22  1  0  0  0  0
 21 20  2  0  0  0  0
 23 30  1  0  0  0  0
 23 22  1  0  0  0  0
 24 23  2  0  0  0  0
 25 24  1  0  0  0  0
 26 24  1  0  0  0  0
 26 28  1  0  0  0  0
 27 26  1  0  0  0  0
 28 30  2  0  0  0  0
 29 28  1  0  0  0  0
M  END
>  <minimizedAffinity>
-5.05271959

$$$$

 OpenBabel03272508173D

 30 32  0  0  0  0  0  0  0  0999 V2000
   38.7390   26.6710   35.1900 Cl  0  0  0  0  0  0  0  0  0  0  0  0
   38.0470   25.5310   34.0940 C   0  0  0  0  0  0  0  0  0  0  0  0
   38.3520   24.2450   34.3960 C   0  0  0  0  0  0  0  0  0  0  0  0
   37.8360   23.2200   33.5610 C   0  0  0  0  0  0  0  0  0  0  0  0
   37.0510   23.5160   32.4810 C   0  0  0  0  0  0  0  0  0  0  0  0
   36.7580   24.8340   32.1980 C   0  0  0  0  0  0  0  0  0  0  0  0
   35.7690   25.2490   30.8410 Cl  0  0  0  0  0  0  0  0  0  0  0  0
   37.2560   25.8070   33.0030 C   0  0  0  0  0  0  0  0  0  0  0  0
   38.0260   22.1670   33.7230 H   0  0  0  0  0  0  0  0  0  0  0  0
   36.6430   22.7550   31.8260 H   0  0  0  0  0  0  0  0  0  0  0  0
   38.5200   23.4430   36.7170 C   0  0  0  0  0  0  0  0  0  0  0  0
   39.1690   23.6920   35.4960 C   0  0  0  0  0  0  0  0  0  0  0  0
   40.5290   23.4110   35.3780 C   0  0  0  0  0  0  0  0  0  0  0  0
   41.1550   22.9020   36.4810 N   0  0  0  0  0  0  0  0  0  0  0  0
   40.5190   22.6740   37.6290 C   0  0  0  0  0  0  0  0  0  0  0  0
   39.1770   22.9460   37.7620 N   0  0  0  0  0  0  0  0  0  0  0  0
   37.4670   23.6300   36.8990 H   0  0  0  0  0  0  0  0  0  0  0  0
   41.0060   23.6110   34.4280 H   0  0  0  0  0  0  0  0  0  0  0  0
   41.1910   22.2740   38.3710 H   0  0  0  0  0  0  0  0  0  0  0  0
   36.9900   27.2390   32.7730 C   0  0  0  0  0  0  0  0  0  0  0  0
   36.0140   27.9190   33.1130 O   0  0  0  0  0  0  0  0  0  0  0  0
   37.8330   28.1490   32.0930 O   0  0  0  0  0  0  0  0  0  0  0  0
   37.9270   28.1880   30.7250 C   0  0  0  0  0  0  0  0  0  0  0  0
   37.0240   28.5140   29.7480 C   0  0  0  0  0  0  0  0  0  0  0  0
   36.0010   28.8140   30.0230 H   0  0  0  0  0  0  0  0  0  0  0  0
   37.5540   28.4120   28.5060 N   0  0  0  0  0  0  0  0  0  0  0  0
   37.0130   28.6210   27.6390 H   0  0  0  0  0  0  0  0  0  0  0  0
   38.8270   28.0100   28.7340 C   0  0  0  0  0  0  0  0  0  0  0  0
   39.5260   27.8360   27.9050 H   0  0  0  0  0  0  0  0  0  0  0  0
   39.0580   27.8750   30.0430 N   0  0  0  0  0  0  0  0  0  0  0  0
  2  3  1  0  0  0  0
  2  1  1  0  0  0  0
  3 12  1  0  0  0  0
  4  9  1  0  0  0  0
  4  3  2  0  0  0  0
  5  4  1  0  0  0  0
  6  5  2  0  0  0  0
  6  8  1  0  0  0  0
  7  6  1  0  0  0  0
  8  2  2  0  0  0  0
 10  5  1  0  0  0  0
 11 17  1  0  0  0  0
 11 16  1  0  0  0  0
 12 11  2  0  0  0  0
 13 12  1  0  0  0  0
 13 14  2  0  0  0  0
 14 15  1  0  0  0  0
 15 16  2  0  0  0  0
 15 19  1  0  0  0  0
 18 13  1  0  0  0  0
 20  8  1  0  0  0  0
 20 21  2  0  0  0  0
 22 20  1  0  0  0  0
 23 22  1  0  0  0  0
 24 25  1  0  0  0  0
 24 23  2  0  0  0  0
 26 28  1  0  0  0  0
 26 24  1  0  0  0  0
 27 26  1  0  0  0  0
 28 30  2  0  0  0  0
 29 28  1  0  0  0  0
 30 23  1  0  0  0  0
M  END
>  <minimizedAffinity>
-5.04737663

$$$$
