
 OpenBabel03272505433D

 23 24  0  0  0  0  0  0  0  0999 V2000
   32.4380   28.0640   49.0770 O   0  0  0  0  0  0  0  0  0  0  0  0
   33.8510   28.2320   48.5360 P   0  0  2  0  0  0  0  0  0  0  0  0
   34.0550   26.9930   47.4090 O   0  0  0  0  0  0  0  0  0  0  0  0
   33.6010   26.1660   47.7390 H   0  0  0  0  0  0  0  0  0  0  0  0
   34.9310   28.1000   49.8410 O   0  0  0  0  0  0  0  0  0  0  0  0
   37.3230   30.3570   51.4040 C   0  0  0  0  0  0  0  0  0  0  0  0
   38.0460   30.7920   50.2620 C   0  0  0  0  0  0  0  0  0  0  0  0
   37.6520   30.2670   49.0090 C   0  0  0  0  0  0  0  0  0  0  0  0
   36.6160   29.3890   48.9810 N   0  0  0  0  0  0  0  0  0  0  0  0
   35.9550   29.0010   50.0900 C   0  0  0  0  0  0  0  0  0  0  0  0
   36.3020   29.4820   51.3060 N   0  0  0  0  0  0  0  0  0  0  0  0
   37.5840   30.7300   52.3920 H   0  0  0  0  0  0  0  0  0  0  0  0
   38.8640   31.4970   50.3620 H   0  0  0  0  0  0  0  0  0  0  0  0
   38.1810   30.5770   48.1170 H   0  0  0  0  0  0  0  0  0  0  0  0
   33.9060   29.7010   47.7470 O   0  0  0  0  0  0  0  0  0  0  0  0
   34.1270   29.8030   46.3800 C   0  0  0  0  0  0  0  0  0  0  0  0
   35.2800   30.1190   45.6950 C   0  0  0  0  0  0  0  0  0  0  0  0
   36.2320   30.3460   46.1410 H   0  0  0  0  0  0  0  0  0  0  0  0
   34.9450   30.0780   44.4080 N   0  0  0  0  0  0  0  0  0  0  0  0
   35.5630   30.2620   43.5780 H   0  0  0  0  0  0  0  0  0  0  0  0
   33.6360   29.7510   44.2270 C   0  0  0  0  0  0  0  0  0  0  0  0
   33.0850   29.6410   43.3030 H   0  0  0  0  0  0  0  0  0  0  0  0
   33.1340   29.5810   45.4790 N   0  0  0  0  0  0  0  0  0  0  0  0
  2  1  2  1  0  0  0
  2  5  1  0  0  0  0
  3  4  1  0  0  0  0
  3  2  1  0  0  0  0
  5 10  1  0  0  0  0
  6 12  1  0  0  0  0
  7 13  1  0  0  0  0
  7  6  2  0  0  0  0
  8  7  1  0  0  0  0
  9  8  2  0  0  0  0
  9 10  1  0  0  0  0
 10 11  2  0  0  0  0
 11  6  1  0  0  0  0
 14  8  1  0  0  0  0
 15  2  1  0  0  0  0
 16 15  1  0  0  0  0
 17 18  1  0  0  0  0
 17 16  2  0  0  0  0
 19 17  1  0  0  0  0
 20 19  1  0  0  0  0
 21 19  1  0  0  0  0
 21 23  2  0  0  0  0
 22 21  1  0  0  0  0
 23 16  1  0  0  0  0
M  END
>  <minimizedAffinity>
-3.99215698

>  <minimizedRMSD>
0.85269773

$$$$
