
 OpenBabel03272504193D

 26 27  0  0  0  0  0  0  0  0999 V2000
   35.5980   30.8060   47.3560 O   0  0  0  0  0  0  0  0  0  0  0  0
   35.1770   29.7400   46.6050 C   0  0  0  0  0  0  0  0  0  0  0  0
   35.0570   28.8490   47.2890 H   0  0  0  0  0  0  0  0  0  0  0  0
   35.9070   29.4010   45.8390 H   0  0  0  0  0  0  0  0  0  0  0  0
   33.9180   30.0050   45.8640 C   0  0  0  0  0  0  0  0  0  0  0  0
   34.0310   30.3900   44.5320 C   0  0  0  0  0  0  0  0  0  0  0  0
   32.8470   30.6440   43.8210 C   0  0  0  0  0  0  0  0  0  0  0  0
   31.6690   30.4990   44.4800 N   0  0  0  0  0  0  0  0  0  0  0  0
   31.5860   30.1280   45.7640 C   0  0  0  0  0  0  0  0  0  0  0  0
   32.7090   29.8840   46.4480 N   0  0  0  0  0  0  0  0  0  0  0  0
   34.9620   30.5110   43.9890 H   0  0  0  0  0  0  0  0  0  0  0  0
   32.8600   30.9450   42.7850 H   0  0  0  0  0  0  0  0  0  0  0  0
   30.6440   30.0140   46.2860 H   0  0  0  0  0  0  0  0  0  0  0  0
   37.7110   32.3660   47.3570 O   0  0  0  0  0  0  0  0  0  0  0  0
   37.2750   30.9360   47.1770 P   0  0  2  0  0  0  0  0  0  0  0  0
   37.7140   30.4680   45.5910 O   0  0  0  0  0  0  0  0  0  0  0  0
   37.6220   29.4830   45.5670 H   0  0  0  0  0  0  0  0  0  0  0  0
   38.0790   29.9650   48.3080 O   0  0  0  0  0  0  0  0  0  0  0  0
   37.6430   29.9330   49.6320 C   0  0  0  0  0  0  0  0  0  0  0  0
   36.5880   29.1370   50.0370 C   0  0  0  0  0  0  0  0  0  0  0  0
   35.9330   28.4420   49.4970 H   0  0  0  0  0  0  0  0  0  0  0  0
   36.3740   29.2960   51.3670 N   0  0  0  0  0  0  0  0  0  0  0  0
   35.7010   28.9000   52.0580 H   0  0  0  0  0  0  0  0  0  0  0  0
   37.2980   30.1940   51.7960 C   0  0  0  0  0  0  0  0  0  0  0  0
   37.5510   30.6560   52.7600 H   0  0  0  0  0  0  0  0  0  0  0  0
   38.0430   30.5600   50.7490 N   0  0  0  0  0  0  0  0  0  0  0  0
  2  3  1  0  0  0  0
  2  1  1  0  0  0  0
  4  2  1  0  0  0  0
  5 10  1  0  0  0  0
  5  2  1  0  0  0  0
  6  5  2  0  0  0  0
  7  8  2  0  0  0  0
  7  6  1  0  0  0  0
  8  9  1  0  0  0  0
  9 13  1  0  0  0  0
  9 10  2  0  0  0  0
 11  6  1  0  0  0  0
 12  7  1  0  0  0  0
 15  1  1  0  0  0  0
 15 14  2  1  0  0  0
 15 18  1  0  0  0  0
 16 15  1  0  0  0  0
 17 16  1  0  0  0  0
 18 19  1  0  0  0  0
 19 20  2  0  0  0  0
 19 26  1  0  0  0  0
 20 22  1  0  0  0  0
 21 20  1  0  0  0  0
 22 24  1  0  0  0  0
 22 23  1  0  0  0  0
 24 25  1  0  0  0  0
 26 24  2  0  0  0  0
M  END
>  <minimizedAffinity>
-3.2465589

>  <minimizedRMSD>
4.17751598

$$$$
