
 OpenBabel03272510293D

 27 29  0  0  0  0  0  0  0  0999 V2000
   37.1530   31.3090   49.2270 C   0  0  0  0  0  0  0  0  0  0  0  0
   37.3520   32.5520   49.8280 C   0  0  0  0  0  0  0  0  0  0  0  0
   38.3050   33.3610   49.2300 C   0  0  0  0  0  0  0  0  0  0  0  0
   38.9800   32.9230   48.1260 N   0  0  0  0  0  0  0  0  0  0  0  0
   38.7570   31.6990   47.5670 C   0  0  0  0  0  0  0  0  0  0  0  0
   37.8190   30.8780   48.1390 N   0  0  0  0  0  0  0  0  0  0  0  0
   36.8110   32.8750   50.6940 H   0  0  0  0  0  0  0  0  0  0  0  0
   38.5490   34.3300   49.5930 H   0  0  0  0  0  0  0  0  0  0  0  0
   36.1020   30.4110   49.8240 C   0  0  0  0  0  0  0  0  0  0  0  0
   36.0990   28.9820   49.6240 C   0  0  0  0  0  0  0  0  0  0  0  0
   36.6480   29.5050   50.9320 C   0  0  0  0  0  0  0  0  0  0  0  0
   35.1270   30.9140   50.0910 H   0  0  0  0  0  0  0  0  0  0  0  0
   35.1810   28.3980   49.6030 H   0  0  0  0  0  0  0  0  0  0  0  0
   36.8720   28.5740   48.9220 H   0  0  0  0  0  0  0  0  0  0  0  0
   37.7190   29.5210   51.1340 H   0  0  0  0  0  0  0  0  0  0  0  0
   35.9570   29.3190   51.7780 H   0  0  0  0  0  0  0  0  0  0  0  0
   39.4460   31.1900   46.3870 C   0  0  0  0  0  0  0  0  0  0  0  0
   40.5500   31.2910   46.5880 H   0  0  0  0  0  0  0  0  0  0  0  0
   39.2450   30.1200   46.2920 H   0  0  0  0  0  0  0  0  0  0  0  0
   39.0760   31.9320   45.1400 C   0  0  0  0  0  0  0  0  0  0  0  0
   37.8580   32.3380   44.6380 C   0  0  0  0  0  0  0  0  0  0  0  0
   36.9250   32.1440   45.1470 H   0  0  0  0  0  0  0  0  0  0  0  0
   38.1390   32.9700   43.4730 N   0  0  0  0  0  0  0  0  0  0  0  0
   37.3950   33.3900   42.8620 H   0  0  0  0  0  0  0  0  0  0  0  0
   39.4550   32.9750   43.2320 C   0  0  0  0  0  0  0  0  0  0  0  0
   39.9690   33.4000   42.3920 H   0  0  0  0  0  0  0  0  0  0  0  0
   40.0350   32.3280   44.2740 N   0  0  0  0  0  0  0  0  0  0  0  0
  1  9  1  0  0  0  0
  1  2  1  0  0  0  0
  2  7  1  0  0  0  0
  3  8  1  0  0  0  0
  3  2  2  0  0  0  0
  4  3  1  0  0  0  0
  5  4  2  0  0  0  0
  5  6  1  0  0  0  0
  6  1  2  0  0  0  0
  9 12  1  0  0  0  0
  9 11  1  0  0  0  0
 10  9  1  0  0  0  0
 10 11  1  0  0  0  0
 11 15  1  0  0  0  0
 11 16  1  0  0  0  0
 13 10  1  0  0  0  0
 14 10  1  0  0  0  0
 17 18  1  0  0  0  0
 17  5  1  0  0  0  0
 19 17  1  0  0  0  0
 20 17  1  0  0  0  0
 21 20  2  0  0  0  0
 21 22  1  0  0  0  0
 23 21  1  0  0  0  0
 24 23  1  0  0  0  0
 25 23  1  0  0  0  0
 25 27  2  0  0  0  0
 26 25  1  0  0  0  0
 27 20  1  0  0  0  0
M  END
>  <minimizedAffinity>
-5.32234097

>  <minimizedRMSD>
1.26835442

$$$$
