
 OpenBabel03272508563D

 39 42  0  0  1  0  0  0  0  0999 V2000
   38.3670   31.8900   44.5190 C   0  0  0  0  0  0  0  0  0  0  0  0
   37.2650   32.4490   44.4140 O   0  0  0  0  0  0  0  0  0  0  0  0
   38.9410   31.6130   45.8290 N   0  0  0  0  0  0  0  0  0  0  0  0
   39.9220   31.3590   45.9780 H   0  0  0  0  0  0  0  0  0  0  0  0
   39.1620   31.4730   43.3380 C   0  0  0  0  0  0  0  0  0  0  0  0
   40.1480   30.5380   43.4870 C   0  0  0  0  0  0  0  0  0  0  0  0
   40.8570   30.1940   42.3470 C   0  0  0  0  0  0  0  0  0  0  0  0
   40.5380   30.7960   41.1570 C   0  0  0  0  0  0  0  0  0  0  0  0
   39.5400   31.7400   41.0100 C   0  0  0  0  0  0  0  0  0  0  0  0
   38.8800   32.0430   42.1380 N   0  0  0  0  0  0  0  0  0  0  0  0
   40.3950   30.0690   44.4280 H   0  0  0  0  0  0  0  0  0  0  0  0
   41.6360   29.4740   42.4030 H   0  0  0  0  0  0  0  0  0  0  0  0
   41.1090   30.5120   40.2650 H   0  0  0  0  0  0  0  0  0  0  0  0
   39.2420   32.3490   39.7170 C   0  0  0  0  0  0  0  0  0  0  0  0
   38.6830   33.4710   39.7060 O   0  0  0  0  0  0  0  0  0  0  0  0
   39.5860   31.6660   38.4740 C   0  0  0  0  0  0  0  0  0  0  0  0
   40.6350   32.0170   37.6500 C   0  0  0  0  0  0  0  0  0  0  0  0
   41.3710   32.8090   37.7380 H   0  0  0  0  0  0  0  0  0  0  0  0
   40.5760   31.1250   36.6350 N   0  0  0  0  0  0  0  0  0  0  0  0
   41.2100   31.0580   35.7960 H   0  0  0  0  0  0  0  0  0  0  0  0
   39.5450   30.2490   36.7970 C   0  0  0  0  0  0  0  0  0  0  0  0
   39.2810   29.4440   36.1300 H   0  0  0  0  0  0  0  0  0  0  0  0
   38.9330   30.6070   37.9640 N   0  0  0  0  0  0  0  0  0  0  0  0
   38.4320   31.0960   48.2010 C   0  0  2  0  0  0  0  0  0  0  0  0
   38.6640   32.5630   48.1200 C   0  0  0  0  0  0  0  0  0  0  0  0
   38.0620   31.7060   46.9660 C   0  0  1  0  0  0  0  0  0  0  0  0
   39.3570   30.4820   48.2860 H   0  0  0  0  0  0  0  0  0  0  0  0
   39.6890   32.9100   48.0190 H   0  0  0  0  0  0  0  0  0  0  0  0
   37.9740   33.2210   48.6700 H   0  0  0  0  0  0  0  0  0  0  0  0
   36.9820   31.9320   46.7700 H   0  0  0  0  0  0  0  0  0  0  0  0
   35.0590   30.2360   49.5140 C   0  0  0  0  0  0  0  0  0  0  0  0
   35.3880   29.5450   50.7300 C   0  0  0  0  0  0  0  0  0  0  0  0
   36.7730   29.4020   51.0680 C   0  0  0  0  0  0  0  0  0  0  0  0
   37.7360   29.9180   50.2360 N   0  0  0  0  0  0  0  0  0  0  0  0
   37.3530   30.5550   49.1100 C   0  0  0  0  0  0  0  0  0  0  0  0
   36.0290   30.7300   48.7230 N   0  0  0  0  0  0  0  0  0  0  0  0
   34.0050   30.3260   49.2890 H   0  0  0  0  0  0  0  0  0  0  0  0
   34.6270   29.1510   51.3650 H   0  0  0  0  0  0  0  0  0  0  0  0
   37.0310   28.8850   51.9800 H   0  0  0  0  0  0  0  0  0  0  0  0
  1  3  1  0  0  0  0
  2  1  2  0  0  0  0
  3  4  1  0  0  0  0
  3 26  1  0  0  0  0
  5  6  1  0  0  0  0
  5  1  1  0  0  0  0
  6 11  1  0  0  0  0
  7 12  1  0  0  0  0
  7  6  2  0  0  0  0
  8  7  1  0  0  0  0
  9  8  2  0  0  0  0
  9 10  1  0  0  0  0
 10  5  2  0  0  0  0
 13  8  1  0  0  0  0
 14  9  1  0  0  0  0
 15 14  2  0  0  0  0
 16 14  1  0  0  0  0
 17 18  1  0  0  0  0
 17 16  2  0  0  0  0
 19 21  1  0  0  0  0
 19 17  1  0  0  0  0
 20 19  1  0  0  0  0
 21 23  2  0  0  0  0
 22 21  1  0  0  0  0
 23 16  1  0  0  0  0
 24 27  1  6  0  0  0
 24 35  1  0  0  0  0
 25 24  1  0  0  0  0
 25 29  1  0  0  0  0
 26 30  1  6  0  0  0
 26 25  1  0  0  0  0
 26 24  1  0  0  0  0
 28 25  1  0  0  0  0
 31 32  1  0  0  0  0
 32 33  2  0  0  0  0
 32 38  1  0  0  0  0
 33 39  1  0  0  0  0
 34 33  1  0  0  0  0
 35 34  2  0  0  0  0
 36 35  1  0  0  0  0
 36 31  2  0  0  0  0
 37 31  1  0  0  0  0
M  END
>  <minimizedAffinity>
-4.92389297

>  <minimizedRMSD>
0.347630918

$$$$
