
 OpenBabel03272508563D

 39 42  0  0  1  0  0  0  0  0999 V2000
   38.3530   31.9020   44.5060 C   0  0  0  0  0  0  0  0  0  0  0  0
   37.2440   32.4460   44.4040 O   0  0  0  0  0  0  0  0  0  0  0  0
   38.9400   31.6380   45.8130 N   0  0  0  0  0  0  0  0  0  0  0  0
   39.9250   31.3980   45.9570 H   0  0  0  0  0  0  0  0  0  0  0  0
   39.1460   31.4880   43.3210 C   0  0  0  0  0  0  0  0  0  0  0  0
   40.1360   30.5570   43.4660 C   0  0  0  0  0  0  0  0  0  0  0  0
   40.8420   30.2160   42.3240 C   0  0  0  0  0  0  0  0  0  0  0  0
   40.5170   30.8180   41.1350 C   0  0  0  0  0  0  0  0  0  0  0  0
   39.5150   31.7580   40.9920 C   0  0  0  0  0  0  0  0  0  0  0  0
   38.8580   32.0580   42.1230 N   0  0  0  0  0  0  0  0  0  0  0  0
   40.3870   30.0870   44.4060 H   0  0  0  0  0  0  0  0  0  0  0  0
   41.6230   29.4990   42.3770 H   0  0  0  0  0  0  0  0  0  0  0  0
   41.0860   30.5370   40.2410 H   0  0  0  0  0  0  0  0  0  0  0  0
   39.2100   32.3670   39.7010 C   0  0  0  0  0  0  0  0  0  0  0  0
   38.7820   33.5450   39.6880 O   0  0  0  0  0  0  0  0  0  0  0  0
   39.4010   31.6210   38.4610 C   0  0  0  0  0  0  0  0  0  0  0  0
   40.4220   31.8450   37.5610 C   0  0  0  0  0  0  0  0  0  0  0  0
   41.2350   32.5600   37.5730 H   0  0  0  0  0  0  0  0  0  0  0  0
   40.2060   30.9370   36.5800 N   0  0  0  0  0  0  0  0  0  0  0  0
   40.7720   30.7830   35.7040 H   0  0  0  0  0  0  0  0  0  0  0  0
   39.1080   30.1720   36.8380 C   0  0  0  0  0  0  0  0  0  0  0  0
   38.7210   29.3800   36.2160 H   0  0  0  0  0  0  0  0  0  0  0  0
   38.6140   30.6200   38.0290 N   0  0  0  0  0  0  0  0  0  0  0  0
   38.4390   31.1030   48.1830 C   0  0  2  0  0  0  0  0  0  0  0  0
   38.6790   32.5700   48.1140 C   0  0  0  0  0  0  0  0  0  0  0  0
   38.0660   31.7270   46.9550 C   0  0  1  0  0  0  0  0  0  0  0  0
   39.3610   30.4840   48.2570 H   0  0  0  0  0  0  0  0  0  0  0  0
   39.7050   32.9120   48.0100 H   0  0  0  0  0  0  0  0  0  0  0  0
   37.9960   33.2270   48.6730 H   0  0  0  0  0  0  0  0  0  0  0  0
   36.9870   31.9600   46.7660 H   0  0  0  0  0  0  0  0  0  0  0  0
   35.0680   30.2420   49.5000 C   0  0  0  0  0  0  0  0  0  0  0  0
   35.3980   29.5470   50.7140 C   0  0  0  0  0  0  0  0  0  0  0  0
   36.7840   29.4020   51.0480 C   0  0  0  0  0  0  0  0  0  0  0  0
   37.7460   29.9200   50.2150 N   0  0  0  0  0  0  0  0  0  0  0  0
   37.3610   30.5600   49.0920 C   0  0  0  0  0  0  0  0  0  0  0  0
   36.0370   30.7370   48.7080 N   0  0  0  0  0  0  0  0  0  0  0  0
   34.0140   30.3330   49.2780 H   0  0  0  0  0  0  0  0  0  0  0  0
   34.6380   29.1520   51.3490 H   0  0  0  0  0  0  0  0  0  0  0  0
   37.0440   28.8820   51.9580 H   0  0  0  0  0  0  0  0  0  0  0  0
  1  3  1  0  0  0  0
  2  1  2  0  0  0  0
  3  4  1  0  0  0  0
  3 26  1  0  0  0  0
  5  6  1  0  0  0  0
  5  1  1  0  0  0  0
  6 11  1  0  0  0  0
  7 12  1  0  0  0  0
  7  6  2  0  0  0  0
  8  7  1  0  0  0  0
  9  8  2  0  0  0  0
  9 10  1  0  0  0  0
 10  5  2  0  0  0  0
 13  8  1  0  0  0  0
 14  9  1  0  0  0  0
 15 14  2  0  0  0  0
 16 14  1  0  0  0  0
 17 18  1  0  0  0  0
 17 16  2  0  0  0  0
 19 21  1  0  0  0  0
 19 17  1  0  0  0  0
 20 19  1  0  0  0  0
 21 23  2  0  0  0  0
 22 21  1  0  0  0  0
 23 16  1  0  0  0  0
 24 27  1  6  0  0  0
 24 35  1  0  0  0  0
 25 24  1  0  0  0  0
 25 29  1  0  0  0  0
 26 30  1  6  0  0  0
 26 25  1  0  0  0  0
 26 24  1  0  0  0  0
 28 25  1  0  0  0  0
 31 32  1  0  0  0  0
 32 33  2  0  0  0  0
 32 38  1  0  0  0  0
 33 39  1  0  0  0  0
 34 33  1  0  0  0  0
 35 34  2  0  0  0  0
 36 35  1  0  0  0  0
 36 31  2  0  0  0  0
 37 31  1  0  0  0  0
M  END
>  <minimizedAffinity>
-4.90647697

>  <minimizedRMSD>
0.20250316

$$$$
