
 OpenBabel03272508563D

 39 42  0  0  1  0  0  0  0  0999 V2000
   38.3530   31.8980   44.5080 C   0  0  0  0  0  0  0  0  0  0  0  0
   37.2420   32.4380   44.4050 O   0  0  0  0  0  0  0  0  0  0  0  0
   38.9400   31.6400   45.8170 N   0  0  0  0  0  0  0  0  0  0  0  0
   39.9260   31.4040   45.9610 H   0  0  0  0  0  0  0  0  0  0  0  0
   39.1480   31.4840   43.3260 C   0  0  0  0  0  0  0  0  0  0  0  0
   40.1360   30.5510   43.4720 C   0  0  0  0  0  0  0  0  0  0  0  0
   40.8450   30.2100   42.3310 C   0  0  0  0  0  0  0  0  0  0  0  0
   40.5230   30.8140   41.1420 C   0  0  0  0  0  0  0  0  0  0  0  0
   39.5240   31.7570   40.9980 C   0  0  0  0  0  0  0  0  0  0  0  0
   38.8650   32.0560   42.1270 N   0  0  0  0  0  0  0  0  0  0  0  0
   40.3840   30.0800   44.4110 H   0  0  0  0  0  0  0  0  0  0  0  0
   41.6240   29.4910   42.3850 H   0  0  0  0  0  0  0  0  0  0  0  0
   41.0940   30.5330   40.2490 H   0  0  0  0  0  0  0  0  0  0  0  0
   39.2230   32.3670   39.7060 C   0  0  0  0  0  0  0  0  0  0  0  0
   38.6990   33.5060   39.6980 O   0  0  0  0  0  0  0  0  0  0  0  0
   39.5270   31.6690   38.4620 C   0  0  0  0  0  0  0  0  0  0  0  0
   38.7340   30.6930   37.8950 C   0  0  0  0  0  0  0  0  0  0  0  0
   37.7930   30.2660   38.2220 H   0  0  0  0  0  0  0  0  0  0  0  0
   39.3980   30.3340   36.7710 N   0  0  0  0  0  0  0  0  0  0  0  0
   39.1170   29.6120   36.0570 H   0  0  0  0  0  0  0  0  0  0  0  0
   40.5520   31.0420   36.6240 C   0  0  0  0  0  0  0  0  0  0  0  0
   41.2600   30.9470   35.8150 H   0  0  0  0  0  0  0  0  0  0  0  0
   40.6170   31.8780   37.7010 N   0  0  0  0  0  0  0  0  0  0  0  0
   38.4380   31.1050   48.1860 C   0  0  2  0  0  0  0  0  0  0  0  0
   38.6770   32.5720   48.1170 C   0  0  0  0  0  0  0  0  0  0  0  0
   38.0660   31.7280   46.9590 C   0  0  1  0  0  0  0  0  0  0  0  0
   39.3600   30.4860   48.2610 H   0  0  0  0  0  0  0  0  0  0  0  0
   39.7040   32.9140   48.0140 H   0  0  0  0  0  0  0  0  0  0  0  0
   37.9940   33.2280   48.6760 H   0  0  0  0  0  0  0  0  0  0  0  0
   36.9870   31.9610   46.7690 H   0  0  0  0  0  0  0  0  0  0  0  0
   35.0670   30.2400   49.5000 C   0  0  0  0  0  0  0  0  0  0  0  0
   35.3960   29.5480   50.7150 C   0  0  0  0  0  0  0  0  0  0  0  0
   36.7820   29.4060   51.0520 C   0  0  0  0  0  0  0  0  0  0  0  0
   37.7440   29.9240   50.2200 N   0  0  0  0  0  0  0  0  0  0  0  0
   37.3600   30.5620   49.0950 C   0  0  0  0  0  0  0  0  0  0  0  0
   36.0360   30.7360   48.7080 N   0  0  0  0  0  0  0  0  0  0  0  0
   34.0130   30.3280   49.2750 H   0  0  0  0  0  0  0  0  0  0  0  0
   34.6360   29.1530   51.3500 H   0  0  0  0  0  0  0  0  0  0  0  0
   37.0410   28.8880   51.9640 H   0  0  0  0  0  0  0  0  0  0  0  0
  1  3  1  0  0  0  0
  2  1  2  0  0  0  0
  3  4  1  0  0  0  0
  3 26  1  0  0  0  0
  5  6  1  0  0  0  0
  5  1  1  0  0  0  0
  6 11  1  0  0  0  0
  7 12  1  0  0  0  0
  7  6  2  0  0  0  0
  8  7  1  0  0  0  0
  9  8  2  0  0  0  0
  9 10  1  0  0  0  0
 10  5  2  0  0  0  0
 13  8  1  0  0  0  0
 14  9  1  0  0  0  0
 15 14  2  0  0  0  0
 16 14  1  0  0  0  0
 17 18  1  0  0  0  0
 17 16  2  0  0  0  0
 19 17  1  0  0  0  0
 20 19  1  0  0  0  0
 21 19  1  0  0  0  0
 21 23  2  0  0  0  0
 22 21  1  0  0  0  0
 23 16  1  0  0  0  0
 24 27  1  6  0  0  0
 24 35  1  0  0  0  0
 25 24  1  0  0  0  0
 25 29  1  0  0  0  0
 26 30  1  6  0  0  0
 26 25  1  0  0  0  0
 26 24  1  0  0  0  0
 28 25  1  0  0  0  0
 31 32  1  0  0  0  0
 32 33  2  0  0  0  0
 32 38  1  0  0  0  0
 33 39  1  0  0  0  0
 34 33  1  0  0  0  0
 35 34  2  0  0  0  0
 36 35  1  0  0  0  0
 36 31  2  0  0  0  0
 37 31  1  0  0  0  0
M  END
>  <minimizedAffinity>
-4.91204453

>  <minimizedRMSD>
0.395680606

$$$$
