
 OpenBabel03272500543D

 31 33  0  0  0  0  0  0  0  0999 V2000
   38.4160   32.0400   48.5580 C   0  0  0  0  0  0  0  0  0  0  0  0
   38.4800   33.1620   49.3720 C   0  0  0  0  0  0  0  0  0  0  0  0
   39.2810   34.2610   49.0690 C   0  0  0  0  0  0  0  0  0  0  0  0
   40.0600   34.2180   47.8790 C   0  0  0  0  0  0  0  0  0  0  0  0
   39.9690   33.0950   47.1070 C   0  0  0  0  0  0  0  0  0  0  0  0
   39.1850   32.0250   47.4000 C   0  0  0  0  0  0  0  0  0  0  0  0
   37.8880   33.2140   50.2930 H   0  0  0  0  0  0  0  0  0  0  0  0
   39.2580   35.1020   49.7820 H   0  0  0  0  0  0  0  0  0  0  0  0
   40.6150   35.1310   47.7950 H   0  0  0  0  0  0  0  0  0  0  0  0
   40.6680   33.2780   46.3180 H   0  0  0  0  0  0  0  0  0  0  0  0
   36.2980   30.8650   48.4860 C   0  0  0  0  0  0  0  0  0  0  0  0
   37.5790   30.9650   49.0500 C   0  0  0  0  0  0  0  0  0  0  0  0
   37.9150   30.0160   50.0280 C   0  0  0  0  0  0  0  0  0  0  0  0
   37.0280   29.0720   50.3810 N   0  0  0  0  0  0  0  0  0  0  0  0
   35.8080   28.9900   49.8320 C   0  0  0  0  0  0  0  0  0  0  0  0
   35.4560   29.8860   48.8910 N   0  0  0  0  0  0  0  0  0  0  0  0
   35.9090   31.5320   47.7210 H   0  0  0  0  0  0  0  0  0  0  0  0
   38.9190   30.1350   50.4360 H   0  0  0  0  0  0  0  0  0  0  0  0
   35.1960   28.1830   50.2080 H   0  0  0  0  0  0  0  0  0  0  0  0
   38.3100   31.1830   45.4010 C   0  0  0  0  0  0  0  0  0  0  0  0
   37.7600   32.3190   45.2820 O   0  0  0  0  0  0  0  0  0  0  0  0
   39.0810   30.8960   46.5840 N   0  0  0  0  0  0  0  0  0  0  0  0
   39.4850   29.9870   46.7720 H   0  0  0  0  0  0  0  0  0  0  0  0
   38.1710   30.1520   44.3440 C   0  0  0  0  0  0  0  0  0  0  0  0
   37.0610   29.9580   43.5740 C   0  0  0  0  0  0  0  0  0  0  0  0
   36.1180   30.4680   43.5630 H   0  0  0  0  0  0  0  0  0  0  0  0
   37.3990   28.9160   42.7590 N   0  0  0  0  0  0  0  0  0  0  0  0
   36.7760   28.4900   42.0240 H   0  0  0  0  0  0  0  0  0  0  0  0
   38.6690   28.4750   43.0070 C   0  0  0  0  0  0  0  0  0  0  0  0
   39.1280   27.6580   42.4710 H   0  0  0  0  0  0  0  0  0  0  0  0
   39.1320   29.2730   44.0120 N   0  0  0  0  0  0  0  0  0  0  0  0
  1 12  1  0  0  0  0
  1  2  1  0  0  0  0
  2  7  1  0  0  0  0
  3  2  2  0  0  0  0
  3  8  1  0  0  0  0
  4  3  1  0  0  0  0
  5  6  1  0  0  0  0
  5  4  2  0  0  0  0
  6  1  2  0  0  0  0
  9  4  1  0  0  0  0
 10  5  1  0  0  0  0
 11 16  2  0  0  0  0
 11 12  1  0  0  0  0
 12 13  2  0  0  0  0
 13 14  1  0  0  0  0
 13 18  1  0  0  0  0
 15 19  1  0  0  0  0
 15 14  2  0  0  0  0
 16 15  1  0  0  0  0
 17 11  1  0  0  0  0
 20 22  1  0  0  0  0
 21 20  2  0  0  0  0
 22 23  1  0  0  0  0
 22  6  1  0  0  0  0
 24 20  1  0  0  0  0
 25 24  2  0  0  0  0
 26 25  1  0  0  0  0
 27 29  1  0  0  0  0
 27 25  1  0  0  0  0
 28 27  1  0  0  0  0
 29 31  2  0  0  0  0
 30 29  1  0  0  0  0
 31 24  1  0  0  0  0
M  END
>  <minimizedAffinity>
-5.78296375

>  <minimizedRMSD>
5.77527857

$$$$
