
 OpenBabel03272500553D

 31 33  0  0  0  0  0  0  0  0999 V2000
   36.5390   23.0580   32.1840 C   0  0  0  0  0  0  0  0  0  0  0  0
   35.6410   23.7140   31.3530 C   0  0  0  0  0  0  0  0  0  0  0  0
   35.6940   25.0870   31.1290 C   0  0  0  0  0  0  0  0  0  0  0  0
   36.7110   25.8370   31.7860 C   0  0  0  0  0  0  0  0  0  0  0  0
   37.5720   25.1550   32.5950 C   0  0  0  0  0  0  0  0  0  0  0  0
   37.5230   23.8140   32.8100 C   0  0  0  0  0  0  0  0  0  0  0  0
   34.8510   23.1540   30.8390 H   0  0  0  0  0  0  0  0  0  0  0  0
   34.9340   25.5080   30.4490 H   0  0  0  0  0  0  0  0  0  0  0  0
   36.6120   26.8680   31.5110 H   0  0  0  0  0  0  0  0  0  0  0  0
   38.1930   25.9240   33.0030 H   0  0  0  0  0  0  0  0  0  0  0  0
   36.7860   20.8040   31.3300 C   0  0  0  0  0  0  0  0  0  0  0  0
   36.3050   21.6390   32.3520 C   0  0  0  0  0  0  0  0  0  0  0  0
   35.6520   21.0130   33.4240 C   0  0  0  0  0  0  0  0  0  0  0  0
   35.5130   19.6780   33.4390 N   0  0  0  0  0  0  0  0  0  0  0  0
   35.9780   18.8950   32.4560 C   0  0  0  0  0  0  0  0  0  0  0  0
   36.6090   19.4650   31.4130 N   0  0  0  0  0  0  0  0  0  0  0  0
   37.3090   21.1550   30.4450 H   0  0  0  0  0  0  0  0  0  0  0  0
   35.2970   21.7020   34.1920 H   0  0  0  0  0  0  0  0  0  0  0  0
   35.7970   17.8390   32.5950 H   0  0  0  0  0  0  0  0  0  0  0  0
   38.4220   23.6480   34.9630 C   0  0  0  0  0  0  0  0  0  0  0  0
   37.7170   24.6680   35.2260 O   0  0  0  0  0  0  0  0  0  0  0  0
   38.4320   23.1270   33.6200 N   0  0  0  0  0  0  0  0  0  0  0  0
   39.0270   22.3610   33.3280 H   0  0  0  0  0  0  0  0  0  0  0  0
   39.2340   22.9870   36.0150 C   0  0  0  0  0  0  0  0  0  0  0  0
   39.0350   23.1150   37.3580 C   0  0  0  0  0  0  0  0  0  0  0  0
   38.3060   23.6750   37.9090 H   0  0  0  0  0  0  0  0  0  0  0  0
   40.0100   22.3360   37.9150 N   0  0  0  0  0  0  0  0  0  0  0  0
   40.1620   22.1950   38.9470 H   0  0  0  0  0  0  0  0  0  0  0  0
   40.7870   21.7460   36.9580 C   0  0  0  0  0  0  0  0  0  0  0  0
   41.6150   21.0910   37.1890 H   0  0  0  0  0  0  0  0  0  0  0  0
   40.2750   22.1740   35.7690 N   0  0  0  0  0  0  0  0  0  0  0  0
  1 12  1  0  0  0  0
  1  6  1  0  0  0  0
  2  1  2  0  0  0  0
  3  2  1  0  0  0  0
  3  4  2  0  0  0  0
  4  5  1  0  0  0  0
  5  6  2  0  0  0  0
  5 10  1  0  0  0  0
  6 22  1  0  0  0  0
  7  2  1  0  0  0  0
  8  3  1  0  0  0  0
  9  4  1  0  0  0  0
 11 16  2  0  0  0  0
 11 12  1  0  0  0  0
 12 13  2  0  0  0  0
 13 14  1  0  0  0  0
 13 18  1  0  0  0  0
 15 19  1  0  0  0  0
 15 14  2  0  0  0  0
 16 15  1  0  0  0  0
 17 11  1  0  0  0  0
 20 21  2  0  0  0  0
 20 24  1  0  0  0  0
 22 20  1  0  0  0  0
 23 22  1  0  0  0  0
 24 25  2  0  0  0  0
 25 26  1  0  0  0  0
 25 27  1  0  0  0  0
 27 28  1  0  0  0  0
 29 30  1  0  0  0  0
 29 27  1  0  0  0  0
 31 24  1  0  0  0  0
 31 29  2  0  0  0  0
M  END
>  <minimizedAffinity>
-5.28431749

$$$$

 OpenBabel03272500553D

 31 33  0  0  0  0  0  0  0  0999 V2000
   33.6350   30.4680   35.5210 C   0  0  0  0  0  0  0  0  0  0  0  0
   33.3000   31.5260   36.3540 C   0  0  0  0  0  0  0  0  0  0  0  0
   34.2300   32.4790   36.7650 C   0  0  0  0  0  0  0  0  0  0  0  0
   35.5720   32.3500   36.3070 C   0  0  0  0  0  0  0  0  0  0  0  0
   35.8590   31.2950   35.4900 C   0  0  0  0  0  0  0  0  0  0  0  0
   34.9520   30.3680   35.0860 C   0  0  0  0  0  0  0  0  0  0  0  0
   32.2720   31.6420   36.7180 H   0  0  0  0  0  0  0  0  0  0  0  0
   33.8590   33.2790   37.4260 H   0  0  0  0  0  0  0  0  0  0  0  0
   36.1540   33.1540   36.7110 H   0  0  0  0  0  0  0  0  0  0  0  0
   36.9130   31.3840   35.3290 H   0  0  0  0  0  0  0  0  0  0  0  0
   32.1880   28.6830   36.2890 C   0  0  0  0  0  0  0  0  0  0  0  0
   32.5620   29.5370   35.2390 C   0  0  0  0  0  0  0  0  0  0  0  0
   31.8600   29.4000   34.0320 C   0  0  0  0  0  0  0  0  0  0  0  0
   30.8830   28.4850   33.9230 N   0  0  0  0  0  0  0  0  0  0  0  0
   30.5380   27.6780   34.9340 C   0  0  0  0  0  0  0  0  0  0  0  0
   31.1920   27.7840   36.1060 N   0  0  0  0  0  0  0  0  0  0  0  0
   32.6460   28.6810   37.2740 H   0  0  0  0  0  0  0  0  0  0  0  0
   32.1860   30.0840   33.2480 H   0  0  0  0  0  0  0  0  0  0  0  0
   29.7360   26.9890   34.7110 H   0  0  0  0  0  0  0  0  0  0  0  0
   35.3620   29.7670   32.8630 C   0  0  0  0  0  0  0  0  0  0  0  0
   35.0860   30.9740   32.5930 O   0  0  0  0  0  0  0  0  0  0  0  0
   35.2570   29.3100   34.2260 N   0  0  0  0  0  0  0  0  0  0  0  0
   35.3940   28.3440   34.4970 H   0  0  0  0  0  0  0  0  0  0  0  0
   35.7900   28.8240   31.8010 C   0  0  0  0  0  0  0  0  0  0  0  0
   36.2850   29.1830   30.5820 C   0  0  0  0  0  0  0  0  0  0  0  0
   36.4610   30.1500   30.1540 H   0  0  0  0  0  0  0  0  0  0  0  0
   36.5340   27.9940   29.9590 N   0  0  0  0  0  0  0  0  0  0  0  0
   36.9270   27.8850   28.9880 H   0  0  0  0  0  0  0  0  0  0  0  0
   36.2080   26.9320   30.7560 C   0  0  0  0  0  0  0  0  0  0  0  0
   36.3280   25.9030   30.4510 H   0  0  0  0  0  0  0  0  0  0  0  0
   35.7410   27.4850   31.9120 N   0  0  0  0  0  0  0  0  0  0  0  0
  1  2  1  0  0  0  0
  2  7  1  0  0  0  0
  2  3  2  0  0  0  0
  3  8  1  0  0  0  0
  4  9  1  0  0  0  0
  4  3  1  0  0  0  0
  5  4  2  0  0  0  0
  6  5  1  0  0  0  0
  6  1  2  0  0  0  0
 10  5  1  0  0  0  0
 11 17  1  0  0  0  0
 12  1  1  0  0  0  0
 12 11  2  0  0  0  0
 13 12  1  0  0  0  0
 14 13  2  0  0  0  0
 14 15  1  0  0  0  0
 15 16  2  0  0  0  0
 16 11  1  0  0  0  0
 18 13  1  0  0  0  0
 19 15  1  0  0  0  0
 20 22  1  0  0  0  0
 21 20  2  0  0  0  0
 22 23  1  0  0  0  0
 22  6  1  0  0  0  0
 24 31  1  0  0  0  0
 24 20  1  0  0  0  0
 25 24  2  0  0  0  0
 26 25  1  0  0  0  0
 27 25  1  0  0  0  0
 27 29  1  0  0  0  0
 28 27  1  0  0  0  0
 29 31  2  0  0  0  0
 30 29  1  0  0  0  0
M  END
>  <minimizedAffinity>
-5.12993336

$$$$

 OpenBabel03272500553D

 31 33  0  0  0  0  0  0  0  0999 V2000
   38.9750   25.7920   32.5850 C   0  0  0  0  0  0  0  0  0  0  0  0
   39.6700   26.3230   31.5080 C   0  0  0  0  0  0  0  0  0  0  0  0
   40.7600   27.1760   31.6660 C   0  0  0  0  0  0  0  0  0  0  0  0
   41.1650   27.5090   32.9900 C   0  0  0  0  0  0  0  0  0  0  0  0
   40.4550   26.9660   34.0210 C   0  0  0  0  0  0  0  0  0  0  0  0
   39.3940   26.1310   33.8660 C   0  0  0  0  0  0  0  0  0  0  0  0
   39.3720   26.0790   30.4810 H   0  0  0  0  0  0  0  0  0  0  0  0
   41.2420   27.5410   30.7450 H   0  0  0  0  0  0  0  0  0  0  0  0
   42.0090   28.1680   32.9380 H   0  0  0  0  0  0  0  0  0  0  0  0
   40.9080   27.3960   34.8900 H   0  0  0  0  0  0  0  0  0  0  0  0
   36.6620   25.6550   31.8760 C   0  0  0  0  0  0  0  0  0  0  0  0
   37.8320   24.9710   32.2420 C   0  0  0  0  0  0  0  0  0  0  0  0
   37.7730   23.5690   32.2360 C   0  0  0  0  0  0  0  0  0  0  0  0
   36.6340   22.9460   31.8920 N   0  0  0  0  0  0  0  0  0  0  0  0
   35.5260   23.6140   31.5450 C   0  0  0  0  0  0  0  0  0  0  0  0
   35.5510   24.9600   31.5410 N   0  0  0  0  0  0  0  0  0  0  0  0
   36.5690   26.7370   31.8380 H   0  0  0  0  0  0  0  0  0  0  0  0
   38.7050   23.0830   32.5270 H   0  0  0  0  0  0  0  0  0  0  0  0
   34.6820   22.9890   31.2910 H   0  0  0  0  0  0  0  0  0  0  0  0
   39.4760   24.5270   35.5670 C   0  0  0  0  0  0  0  0  0  0  0  0
   40.5910   24.1970   35.0630 O   0  0  0  0  0  0  0  0  0  0  0  0
   38.6960   25.5610   34.9340 N   0  0  0  0  0  0  0  0  0  0  0  0
   37.7680   25.8210   35.2440 H   0  0  0  0  0  0  0  0  0  0  0  0
   38.9660   23.8670   36.7940 C   0  0  0  0  0  0  0  0  0  0  0  0
   39.6500   22.9510   37.5370 C   0  0  0  0  0  0  0  0  0  0  0  0
   40.6310   22.5370   37.4110 H   0  0  0  0  0  0  0  0  0  0  0  0
   38.7910   22.6340   38.5500 N   0  0  0  0  0  0  0  0  0  0  0  0
   38.9880   21.9480   39.3240 H   0  0  0  0  0  0  0  0  0  0  0  0
   37.6160   23.3240   38.4450 C   0  0  0  0  0  0  0  0  0  0  0  0
   36.8020   23.2180   39.1470 H   0  0  0  0  0  0  0  0  0  0  0  0
   37.7540   24.0950   37.3280 N   0  0  0  0  0  0  0  0  0  0  0  0
  1  6  1  0  0  0  0
  2  3  1  0  0  0  0
  2  1  2  0  0  0  0
  3  4  2  0  0  0  0
  4  5  1  0  0  0  0
  5 10  1  0  0  0  0
  6  5  2  0  0  0  0
  6 22  1  0  0  0  0
  7  2  1  0  0  0  0
  8  3  1  0  0  0  0
  9  4  1  0  0  0  0
 11 12  1  0  0  0  0
 12  1  1  0  0  0  0
 13 12  2  0  0  0  0
 13 18  1  0  0  0  0
 14 13  1  0  0  0  0
 15 14  2  0  0  0  0
 16 15  1  0  0  0  0
 16 11  2  0  0  0  0
 17 11  1  0  0  0  0
 19 15  1  0  0  0  0
 20 24  1  0  0  0  0
 21 20  2  0  0  0  0
 22 23  1  0  0  0  0
 22 20  1  0  0  0  0
 24 31  1  0  0  0  0
 24 25  2  0  0  0  0
 25 27  1  0  0  0  0
 26 25  1  0  0  0  0
 27 28  1  0  0  0  0
 29 27  1  0  0  0  0
 29 30  1  0  0  0  0
 31 29  2  0  0  0  0
M  END
>  <minimizedAffinity>
-5.02421474

$$$$

 OpenBabel03272500553D

 31 33  0  0  0  0  0  0  0  0999 V2000
   37.5500   25.4460   33.2140 C   0  0  0  0  0  0  0  0  0  0  0  0
   37.1700   26.6010   32.5440 C   0  0  0  0  0  0  0  0  0  0  0  0
   36.9020   27.7960   33.2050 C   0  0  0  0  0  0  0  0  0  0  0  0
   37.0220   27.8210   34.6240 C   0  0  0  0  0  0  0  0  0  0  0  0
   37.3970   26.6640   35.2440 C   0  0  0  0  0  0  0  0  0  0  0  0
   37.6630   25.4990   34.5980 C   0  0  0  0  0  0  0  0  0  0  0  0
   37.0710   26.6010   31.4520 H   0  0  0  0  0  0  0  0  0  0  0  0
   36.6100   28.6550   32.5780 H   0  0  0  0  0  0  0  0  0  0  0  0
   36.7830   28.8050   34.9740 H   0  0  0  0  0  0  0  0  0  0  0  0
   37.3670   26.9180   36.2830 H   0  0  0  0  0  0  0  0  0  0  0  0
   36.5670   23.5970   31.9950 C   0  0  0  0  0  0  0  0  0  0  0  0
   37.7330   24.2760   32.3790 C   0  0  0  0  0  0  0  0  0  0  0  0
   38.9510   23.7550   31.9160 C   0  0  0  0  0  0  0  0  0  0  0  0
   38.9600   22.6560   31.1440 N   0  0  0  0  0  0  0  0  0  0  0  0
   37.8380   22.0190   30.7860 C   0  0  0  0  0  0  0  0  0  0  0  0
   36.6540   22.4950   31.2140 N   0  0  0  0  0  0  0  0  0  0  0  0
   35.5610   23.8910   32.2810 H   0  0  0  0  0  0  0  0  0  0  0  0
   39.8270   24.3160   32.2400 H   0  0  0  0  0  0  0  0  0  0  0  0
   37.9890   21.1490   30.1630 H   0  0  0  0  0  0  0  0  0  0  0  0
   39.4840   24.3710   35.5370 C   0  0  0  0  0  0  0  0  0  0  0  0
   40.1760   25.3450   35.1130 O   0  0  0  0  0  0  0  0  0  0  0  0
   38.0730   24.3320   35.2470 N   0  0  0  0  0  0  0  0  0  0  0  0
   37.4800   23.5490   35.4940 H   0  0  0  0  0  0  0  0  0  0  0  0
   40.1050   23.2770   36.3230 C   0  0  0  0  0  0  0  0  0  0  0  0
   39.6470   22.8100   37.5200 C   0  0  0  0  0  0  0  0  0  0  0  0
   38.8020   23.1060   38.1110 H   0  0  0  0  0  0  0  0  0  0  0  0
   40.5270   21.8200   37.8510 N   0  0  0  0  0  0  0  0  0  0  0  0
   40.4830   21.2320   38.7240 H   0  0  0  0  0  0  0  0  0  0  0  0
   41.4980   21.6740   36.9000 C   0  0  0  0  0  0  0  0  0  0  0  0
   42.2920   20.9450   36.9720 H   0  0  0  0  0  0  0  0  0  0  0  0
   41.2070   22.6050   35.9480 N   0  0  0  0  0  0  0  0  0  0  0  0
  1  6  1  0  0  0  0
  2  3  1  0  0  0  0
  2  1  2  0  0  0  0
  3  4  2  0  0  0  0
  4  9  1  0  0  0  0
  4  5  1  0  0  0  0
  5 10  1  0  0  0  0
  6  5  2  0  0  0  0
  6 22  1  0  0  0  0
  7  2  1  0  0  0  0
  8  3  1  0  0  0  0
 11 17  1  0  0  0  0
 11 12  1  0  0  0  0
 12  1  1  0  0  0  0
 13 18  1  0  0  0  0
 13 12  2  0  0  0  0
 14 13  1  0  0  0  0
 15 14  2  0  0  0  0
 15 16  1  0  0  0  0
 16 11  2  0  0  0  0
 19 15  1  0  0  0  0
 20 24  1  0  0  0  0
 21 20  2  0  0  0  0
 22 23  1  0  0  0  0
 22 20  1  0  0  0  0
 24 25  2  0  0  0  0
 25 27  1  0  0  0  0
 25 26  1  0  0  0  0
 27 28  1  0  0  0  0
 29 30  1  0  0  0  0
 29 27  1  0  0  0  0
 31 24  1  0  0  0  0
 31 29  2  0  0  0  0
M  END
>  <minimizedAffinity>
-5.01684618

$$$$

 OpenBabel03272500553D

 31 33  0  0  0  0  0  0  0  0999 V2000
   39.3360   26.8260   33.3010 C   0  0  0  0  0  0  0  0  0  0  0  0
   38.8640   27.4700   32.1660 C   0  0  0  0  0  0  0  0  0  0  0  0
   37.5360   27.8670   32.0280 C   0  0  0  0  0  0  0  0  0  0  0  0
   36.6380   27.5940   33.0980 C   0  0  0  0  0  0  0  0  0  0  0  0
   37.1420   26.9580   34.1960 C   0  0  0  0  0  0  0  0  0  0  0  0
   38.4380   26.5750   34.3330 C   0  0  0  0  0  0  0  0  0  0  0  0
   39.5400   27.6880   31.3310 H   0  0  0  0  0  0  0  0  0  0  0  0
   37.2660   28.3720   31.0860 H   0  0  0  0  0  0  0  0  0  0  0  0
   35.6650   27.9580   32.8350 H   0  0  0  0  0  0  0  0  0  0  0  0
   36.2850   26.8240   34.8220 H   0  0  0  0  0  0  0  0  0  0  0  0
   41.0100   25.2150   32.6140 C   0  0  0  0  0  0  0  0  0  0  0  0
   40.7290   26.4310   33.2560 C   0  0  0  0  0  0  0  0  0  0  0  0
   41.8220   27.1340   33.7850 C   0  0  0  0  0  0  0  0  0  0  0  0
   43.0630   26.6360   33.6630 N   0  0  0  0  0  0  0  0  0  0  0  0
   43.3150   25.4740   33.0470 C   0  0  0  0  0  0  0  0  0  0  0  0
   42.2870   24.7750   32.5290 N   0  0  0  0  0  0  0  0  0  0  0  0
   40.2610   24.5710   32.1620 H   0  0  0  0  0  0  0  0  0  0  0  0
   41.5530   28.0710   34.2740 H   0  0  0  0  0  0  0  0  0  0  0  0
   44.3570   25.1920   33.0200 H   0  0  0  0  0  0  0  0  0  0  0  0
   38.7010   24.5320   35.4410 C   0  0  0  0  0  0  0  0  0  0  0  0
   38.0130   24.0460   34.4930 O   0  0  0  0  0  0  0  0  0  0  0  0
   38.9440   25.9510   35.4760 N   0  0  0  0  0  0  0  0  0  0  0  0
   39.4230   26.4110   36.2410 H   0  0  0  0  0  0  0  0  0  0  0  0
   39.2550   23.6620   36.5070 C   0  0  0  0  0  0  0  0  0  0  0  0
   38.6660   23.4260   37.7150 C   0  0  0  0  0  0  0  0  0  0  0  0
   37.7460   23.7870   38.1290 H   0  0  0  0  0  0  0  0  0  0  0  0
   39.5320   22.5810   38.3480 N   0  0  0  0  0  0  0  0  0  0  0  0
   39.3990   22.1840   39.3150 H   0  0  0  0  0  0  0  0  0  0  0  0
   40.6180   22.2980   37.5680 C   0  0  0  0  0  0  0  0  0  0  0  0
   41.4210   21.6480   37.8840 H   0  0  0  0  0  0  0  0  0  0  0  0
   40.4170   22.9940   36.4130 N   0  0  0  0  0  0  0  0  0  0  0  0
  1  6  1  0  0  0  0
  2  1  2  0  0  0  0
  3  2  1  0  0  0  0
  3  4  2  0  0  0  0
  4  5  1  0  0  0  0
  5  6  2  0  0  0  0
  5 10  1  0  0  0  0
  6 22  1  0  0  0  0
  7  2  1  0  0  0  0
  8  3  1  0  0  0  0
  9  4  1  0  0  0  0
 11 12  1  0  0  0  0
 12  1  1  0  0  0  0
 12 13  2  0  0  0  0
 13 18  1  0  0  0  0
 14 13  1  0  0  0  0
 15 14  2  0  0  0  0
 16 11  2  0  0  0  0
 16 15  1  0  0  0  0
 17 11  1  0  0  0  0
 19 15  1  0  0  0  0
 20 22  1  0  0  0  0
 20 24  1  0  0  0  0
 21 20  2  0  0  0  0
 22 23  1  0  0  0  0
 24 25  2  0  0  0  0
 25 26  1  0  0  0  0
 25 27  1  0  0  0  0
 27 28  1  0  0  0  0
 29 30  1  0  0  0  0
 29 27  1  0  0  0  0
 31 24  1  0  0  0  0
 31 29  2  0  0  0  0
M  END
>  <minimizedAffinity>
-4.91291428

$$$$

 OpenBabel03272500553D

 31 33  0  0  0  0  0  0  0  0999 V2000
   37.1340   24.6720   32.3040 C   0  0  0  0  0  0  0  0  0  0  0  0
   36.2750   25.4420   31.5330 C   0  0  0  0  0  0  0  0  0  0  0  0
   36.1220   26.8130   31.7250 C   0  0  0  0  0  0  0  0  0  0  0  0
   36.8800   27.4360   32.7570 C   0  0  0  0  0  0  0  0  0  0  0  0
   37.7120   26.6430   33.4930 C   0  0  0  0  0  0  0  0  0  0  0  0
   37.8640   25.3060   33.3030 C   0  0  0  0  0  0  0  0  0  0  0  0
   35.6820   24.9800   30.7350 H   0  0  0  0  0  0  0  0  0  0  0  0
   35.4140   27.3310   31.0570 H   0  0  0  0  0  0  0  0  0  0  0  0
   36.6480   28.4820   32.7730 H   0  0  0  0  0  0  0  0  0  0  0  0
   38.1200   27.3150   34.2180 H   0  0  0  0  0  0  0  0  0  0  0  0
   37.9500   22.8340   30.9530 C   0  0  0  0  0  0  0  0  0  0  0  0
   37.1280   23.2540   32.0110 C   0  0  0  0  0  0  0  0  0  0  0  0
   36.3890   22.2600   32.6710 C   0  0  0  0  0  0  0  0  0  0  0  0
   36.4890   20.9790   32.2820 N   0  0  0  0  0  0  0  0  0  0  0  0
   37.2790   20.5940   31.2710 C   0  0  0  0  0  0  0  0  0  0  0  0
   38.0010   21.5230   30.6170 N   0  0  0  0  0  0  0  0  0  0  0  0
   38.5730   23.4950   30.3590 H   0  0  0  0  0  0  0  0  0  0  0  0
   35.7660   22.6350   33.4830 H   0  0  0  0  0  0  0  0  0  0  0  0
   37.2650   19.5330   31.0630 H   0  0  0  0  0  0  0  0  0  0  0  0
   38.3860   24.5200   35.4430 C   0  0  0  0  0  0  0  0  0  0  0  0
   37.4430   25.2690   35.8380 O   0  0  0  0  0  0  0  0  0  0  0  0
   38.7430   24.5140   34.0470 N   0  0  0  0  0  0  0  0  0  0  0  0
   39.5300   23.9940   33.6800 H   0  0  0  0  0  0  0  0  0  0  0  0
   39.1240   23.6530   36.3950 C   0  0  0  0  0  0  0  0  0  0  0  0
   38.6980   23.3190   37.6470 C   0  0  0  0  0  0  0  0  0  0  0  0
   37.8070   23.5860   38.1790 H   0  0  0  0  0  0  0  0  0  0  0  0
   39.6920   22.5190   38.1340 N   0  0  0  0  0  0  0  0  0  0  0  0
   39.7020   22.0710   39.0880 H   0  0  0  0  0  0  0  0  0  0  0  0
   40.6980   22.3580   37.2240 C   0  0  0  0  0  0  0  0  0  0  0  0
   41.5790   21.7620   37.4140 H   0  0  0  0  0  0  0  0  0  0  0  0
   40.3140   23.0850   36.1360 N   0  0  0  0  0  0  0  0  0  0  0  0
  1  6  1  0  0  0  0
  2  3  1  0  0  0  0
  2  1  2  0  0  0  0
  3  4  2  0  0  0  0
  4  9  1  0  0  0  0
  4  5  1  0  0  0  0
  5 10  1  0  0  0  0
  6  5  2  0  0  0  0
  6 22  1  0  0  0  0
  7  2  1  0  0  0  0
  8  3  1  0  0  0  0
 11 12  1  0  0  0  0
 12  1  1  0  0  0  0
 12 13  2  0  0  0  0
 13 18  1  0  0  0  0
 14 13  1  0  0  0  0
 15 14  2  0  0  0  0
 16 11  2  0  0  0  0
 16 15  1  0  0  0  0
 17 11  1  0  0  0  0
 19 15  1  0  0  0  0
 20 21  2  0  0  0  0
 20 24  1  0  0  0  0
 22 20  1  0  0  0  0
 23 22  1  0  0  0  0
 24 25  2  0  0  0  0
 25 27  1  0  0  0  0
 25 26  1  0  0  0  0
 27 28  1  0  0  0  0
 29 30  1  0  0  0  0
 29 27  1  0  0  0  0
 31 24  1  0  0  0  0
 31 29  2  0  0  0  0
M  END
>  <minimizedAffinity>
-4.88386774

$$$$

 OpenBabel03272500553D

 31 33  0  0  0  0  0  0  0  0999 V2000
   39.3780   25.6600   34.5540 C   0  0  0  0  0  0  0  0  0  0  0  0
   40.4970   26.4750   34.6540 C   0  0  0  0  0  0  0  0  0  0  0  0
   40.9640   27.2410   33.5890 C   0  0  0  0  0  0  0  0  0  0  0  0
   40.2580   27.1750   32.3530 C   0  0  0  0  0  0  0  0  0  0  0  0
   39.1630   26.3610   32.2970 C   0  0  0  0  0  0  0  0  0  0  0  0
   38.7060   25.6170   33.3380 C   0  0  0  0  0  0  0  0  0  0  0  0
   41.0540   26.5380   35.5960 H   0  0  0  0  0  0  0  0  0  0  0  0
   41.8600   27.8540   33.7750 H   0  0  0  0  0  0  0  0  0  0  0  0
   40.7420   27.8160   31.6440 H   0  0  0  0  0  0  0  0  0  0  0  0
   38.8460   26.4420   31.2790 H   0  0  0  0  0  0  0  0  0  0  0  0
   39.7990   23.7050   35.9220 C   0  0  0  0  0  0  0  0  0  0  0  0
   39.0650   24.8880   35.7380 C   0  0  0  0  0  0  0  0  0  0  0  0
   38.1090   25.1960   36.7170 C   0  0  0  0  0  0  0  0  0  0  0  0
   37.9330   24.3770   37.7660 N   0  0  0  0  0  0  0  0  0  0  0  0
   38.6420   23.2520   37.9270 C   0  0  0  0  0  0  0  0  0  0  0  0
   39.5670   22.9280   37.0050 N   0  0  0  0  0  0  0  0  0  0  0  0
   40.5690   23.3470   35.2430 H   0  0  0  0  0  0  0  0  0  0  0  0
   37.5650   26.1230   36.5310 H   0  0  0  0  0  0  0  0  0  0  0  0
   38.3990   22.6860   38.8150 H   0  0  0  0  0  0  0  0  0  0  0  0
   37.8710   23.5340   32.6790 C   0  0  0  0  0  0  0  0  0  0  0  0
   39.0350   23.3260   32.2220 O   0  0  0  0  0  0  0  0  0  0  0  0
   37.5660   24.8120   33.2700 N   0  0  0  0  0  0  0  0  0  0  0  0
   36.6390   25.0660   33.5890 H   0  0  0  0  0  0  0  0  0  0  0  0
   36.8250   22.4840   32.6150 C   0  0  0  0  0  0  0  0  0  0  0  0
   35.8750   22.3790   31.6420 C   0  0  0  0  0  0  0  0  0  0  0  0
   35.6880   22.9830   30.7760 H   0  0  0  0  0  0  0  0  0  0  0  0
   35.1510   21.2770   32.0000 N   0  0  0  0  0  0  0  0  0  0  0  0
   34.3260   20.8920   31.4720 H   0  0  0  0  0  0  0  0  0  0  0  0
   35.6290   20.7160   33.1510 C   0  0  0  0  0  0  0  0  0  0  0  0
   35.1960   19.8360   33.6050 H   0  0  0  0  0  0  0  0  0  0  0  0
   36.6850   21.4980   33.5170 N   0  0  0  0  0  0  0  0  0  0  0  0
  1  2  1  0  0  0  0
  1 12  1  0  0  0  0
  2  7  1  0  0  0  0
  3  8  1  0  0  0  0
  3  2  2  0  0  0  0
  4  3  1  0  0  0  0
  5  4  2  0  0  0  0
  5  6  1  0  0  0  0
  6  1  2  0  0  0  0
  9  4  1  0  0  0  0
 10  5  1  0  0  0  0
 11 16  1  0  0  0  0
 12 11  2  0  0  0  0
 12 13  1  0  0  0  0
 13 14  2  0  0  0  0
 14 15  1  0  0  0  0
 15 19  1  0  0  0  0
 16 15  2  0  0  0  0
 17 11  1  0  0  0  0
 18 13  1  0  0  0  0
 20 22  1  0  0  0  0
 21 20  2  0  0  0  0
 22  6  1  0  0  0  0
 22 23  1  0  0  0  0
 24 20  1  0  0  0  0
 24 31  1  0  0  0  0
 25 27  1  0  0  0  0
 25 24  2  0  0  0  0
 26 25  1  0  0  0  0
 27 29  1  0  0  0  0
 28 27  1  0  0  0  0
 29 31  2  0  0  0  0
 29 30  1  0  0  0  0
M  END
>  <minimizedAffinity>
-4.83135796

$$$$

 OpenBabel03272500553D

 31 33  0  0  0  0  0  0  0  0999 V2000
   39.5110   26.9300   32.3480 C   0  0  0  0  0  0  0  0  0  0  0  0
   40.3300   27.4060   31.3340 C   0  0  0  0  0  0  0  0  0  0  0  0
   41.6680   27.7330   31.5420 C   0  0  0  0  0  0  0  0  0  0  0  0
   42.2030   27.5720   32.8510 C   0  0  0  0  0  0  0  0  0  0  0  0
   41.3640   27.1020   33.8200 C   0  0  0  0  0  0  0  0  0  0  0  0
   40.0610   26.7790   33.6160 C   0  0  0  0  0  0  0  0  0  0  0  0
   39.9350   27.5380   30.3190 H   0  0  0  0  0  0  0  0  0  0  0  0
   42.2300   28.1010   30.6680 H   0  0  0  0  0  0  0  0  0  0  0  0
   43.2340   27.8650   32.8420 H   0  0  0  0  0  0  0  0  0  0  0  0
   41.9700   27.1170   34.7020 H   0  0  0  0  0  0  0  0  0  0  0  0
   37.8460   25.4440   31.4060 C   0  0  0  0  0  0  0  0  0  0  0  0
   38.1320   26.6950   31.9740 C   0  0  0  0  0  0  0  0  0  0  0  0
   37.0570   27.5850   32.1180 C   0  0  0  0  0  0  0  0  0  0  0  0
   35.8260   27.2200   31.7220 N   0  0  0  0  0  0  0  0  0  0  0  0
   35.5700   26.0210   31.1830 C   0  0  0  0  0  0  0  0  0  0  0  0
   36.5810   25.1460   31.0300 N   0  0  0  0  0  0  0  0  0  0  0  0
   38.5820   24.6620   31.2370 H   0  0  0  0  0  0  0  0  0  0  0  0
   37.3280   28.5420   32.5630 H   0  0  0  0  0  0  0  0  0  0  0  0
   34.5370   25.8590   30.9090 H   0  0  0  0  0  0  0  0  0  0  0  0
   39.4420   24.8600   34.8030 C   0  0  0  0  0  0  0  0  0  0  0  0
   40.2400   24.2490   34.0300 O   0  0  0  0  0  0  0  0  0  0  0  0
   39.2240   26.2720   34.6140 N   0  0  0  0  0  0  0  0  0  0  0  0
   38.5490   26.8030   35.1500 H   0  0  0  0  0  0  0  0  0  0  0  0
   38.7350   24.1450   35.8930 C   0  0  0  0  0  0  0  0  0  0  0  0
   38.5390   22.7960   35.9520 C   0  0  0  0  0  0  0  0  0  0  0  0
   38.8300   22.0150   35.2770 H   0  0  0  0  0  0  0  0  0  0  0  0
   37.8520   22.6100   37.1170 N   0  0  0  0  0  0  0  0  0  0  0  0
   37.5270   21.6800   37.4910 H   0  0  0  0  0  0  0  0  0  0  0  0
   37.6280   23.7930   37.7620 C   0  0  0  0  0  0  0  0  0  0  0  0
   37.1000   23.8650   38.7020 H   0  0  0  0  0  0  0  0  0  0  0  0
   38.1950   24.7450   36.9670 N   0  0  0  0  0  0  0  0  0  0  0  0
  1  6  1  0  0  0  0
  2  3  1  0  0  0  0
  2  1  2  0  0  0  0
  3  4  2  0  0  0  0
  4  5  1  0  0  0  0
  5 10  1  0  0  0  0
  6  5  2  0  0  0  0
  6 22  1  0  0  0  0
  7  2  1  0  0  0  0
  8  3  1  0  0  0  0
  9  4  1  0  0  0  0
 11 12  1  0  0  0  0
 12 13  2  0  0  0  0
 12  1  1  0  0  0  0
 13 18  1  0  0  0  0
 14 13  1  0  0  0  0
 15 14  2  0  0  0  0
 16 15  1  0  0  0  0
 16 11  2  0  0  0  0
 17 11  1  0  0  0  0
 19 15  1  0  0  0  0
 20 24  1  0  0  0  0
 21 20  2  0  0  0  0
 22 20  1  0  0  0  0
 22 23  1  0  0  0  0
 24 25  2  0  0  0  0
 24 31  1  0  0  0  0
 25 27  1  0  0  0  0
 26 25  1  0  0  0  0
 27 28  1  0  0  0  0
 27 29  1  0  0  0  0
 29 30  1  0  0  0  0
 31 29  2  0  0  0  0
M  END
>  <minimizedAffinity>
-4.75989676

$$$$

 OpenBabel03272500553D

 31 33  0  0  0  0  0  0  0  0999 V2000
   37.1750   23.2030   32.2360 C   0  0  0  0  0  0  0  0  0  0  0  0
   36.1320   23.0240   31.3390 C   0  0  0  0  0  0  0  0  0  0  0  0
   35.6140   21.7680   31.0330 C   0  0  0  0  0  0  0  0  0  0  0  0
   36.1870   20.6310   31.6690 C   0  0  0  0  0  0  0  0  0  0  0  0
   37.2120   20.8500   32.5440 C   0  0  0  0  0  0  0  0  0  0  0  0
   37.7150   22.0760   32.8460 C   0  0  0  0  0  0  0  0  0  0  0  0
   35.6780   23.8870   30.8380 H   0  0  0  0  0  0  0  0  0  0  0  0
   34.7840   21.7380   30.3080 H   0  0  0  0  0  0  0  0  0  0  0  0
   35.6810   19.7510   31.3270 H   0  0  0  0  0  0  0  0  0  0  0  0
   37.4990   19.8640   32.8440 H   0  0  0  0  0  0  0  0  0  0  0  0
   38.5230   25.0440   31.4210 C   0  0  0  0  0  0  0  0  0  0  0  0
   37.6310   24.5680   32.3940 C   0  0  0  0  0  0  0  0  0  0  0  0
   37.2740   25.4620   33.4160 C   0  0  0  0  0  0  0  0  0  0  0  0
   37.7820   26.7050   33.4280 N   0  0  0  0  0  0  0  0  0  0  0  0
   38.6320   27.1440   32.4900 C   0  0  0  0  0  0  0  0  0  0  0  0
   38.9940   26.3100   31.4970 N   0  0  0  0  0  0  0  0  0  0  0  0
   38.8810   24.4600   30.5780 H   0  0  0  0  0  0  0  0  0  0  0  0
   36.5800   25.0470   34.1470 H   0  0  0  0  0  0  0  0  0  0  0  0
   38.9630   28.1640   32.6210 H   0  0  0  0  0  0  0  0  0  0  0  0
   38.2580   22.1790   35.1190 C   0  0  0  0  0  0  0  0  0  0  0  0
   37.0160   22.0220   35.3190 O   0  0  0  0  0  0  0  0  0  0  0  0
   38.7450   22.2840   33.7670 N   0  0  0  0  0  0  0  0  0  0  0  0
   39.7120   22.4810   33.5410 H   0  0  0  0  0  0  0  0  0  0  0  0
   39.2120   22.2570   36.2530 C   0  0  0  0  0  0  0  0  0  0  0  0
   38.9450   22.8160   37.4680 C   0  0  0  0  0  0  0  0  0  0  0  0
   38.0590   23.2870   37.8440 H   0  0  0  0  0  0  0  0  0  0  0  0
   40.1050   22.6540   38.1710 N   0  0  0  0  0  0  0  0  0  0  0  0
   40.2660   22.9700   39.1620 H   0  0  0  0  0  0  0  0  0  0  0  0
   41.0580   22.0180   37.4260 C   0  0  0  0  0  0  0  0  0  0  0  0
   42.0470   21.7930   37.7970 H   0  0  0  0  0  0  0  0  0  0  0  0
   40.4680   21.7790   36.2200 N   0  0  0  0  0  0  0  0  0  0  0  0
  1 12  1  0  0  0  0
  1  6  1  0  0  0  0
  2  1  2  0  0  0  0
  3  2  1  0  0  0  0
  3  4  2  0  0  0  0
  4  5  1  0  0  0  0
  5 10  1  0  0  0  0
  5  6  2  0  0  0  0
  6 22  1  0  0  0  0
  7  2  1  0  0  0  0
  8  3  1  0  0  0  0
  9  4  1  0  0  0  0
 11 16  2  0  0  0  0
 11 12  1  0  0  0  0
 12 13  2  0  0  0  0
 13 14  1  0  0  0  0
 13 18  1  0  0  0  0
 15 19  1  0  0  0  0
 15 14  2  0  0  0  0
 16 15  1  0  0  0  0
 17 11  1  0  0  0  0
 20 21  2  0  0  0  0
 20 24  1  0  0  0  0
 22 20  1  0  0  0  0
 23 22  1  0  0  0  0
 24 25  2  0  0  0  0
 25 26  1  0  0  0  0
 25 27  1  0  0  0  0
 27 28  1  0  0  0  0
 29 30  1  0  0  0  0
 29 27  1  0  0  0  0
 31 24  1  0  0  0  0
 31 29  2  0  0  0  0
M  END
>  <minimizedAffinity>
-4.73105288

$$$$
