
 OpenBabel03272508563D

 39 42  0  0  1  0  0  0  0  0999 V2000
   38.3650   31.8900   44.5200 C   0  0  0  0  0  0  0  0  0  0  0  0
   37.2620   32.4460   44.4140 O   0  0  0  0  0  0  0  0  0  0  0  0
   38.9410   31.6160   45.8290 N   0  0  0  0  0  0  0  0  0  0  0  0
   39.9230   31.3660   45.9780 H   0  0  0  0  0  0  0  0  0  0  0  0
   39.1610   31.4720   43.3380 C   0  0  0  0  0  0  0  0  0  0  0  0
   40.1470   30.5380   43.4880 C   0  0  0  0  0  0  0  0  0  0  0  0
   40.8570   30.1940   42.3480 C   0  0  0  0  0  0  0  0  0  0  0  0
   40.5370   30.7960   41.1580 C   0  0  0  0  0  0  0  0  0  0  0  0
   39.5390   31.7400   41.0110 C   0  0  0  0  0  0  0  0  0  0  0  0
   38.8790   32.0430   42.1380 N   0  0  0  0  0  0  0  0  0  0  0  0
   40.3930   30.0690   44.4280 H   0  0  0  0  0  0  0  0  0  0  0  0
   41.6350   29.4740   42.4040 H   0  0  0  0  0  0  0  0  0  0  0  0
   41.1090   30.5130   40.2660 H   0  0  0  0  0  0  0  0  0  0  0  0
   39.2410   32.3490   39.7180 C   0  0  0  0  0  0  0  0  0  0  0  0
   38.6820   33.4710   39.7060 O   0  0  0  0  0  0  0  0  0  0  0  0
   39.5870   31.6670   38.4750 C   0  0  0  0  0  0  0  0  0  0  0  0
   40.6370   32.0200   37.6520 C   0  0  0  0  0  0  0  0  0  0  0  0
   41.3720   32.8110   37.7410 H   0  0  0  0  0  0  0  0  0  0  0  0
   40.5790   31.1270   36.6350 N   0  0  0  0  0  0  0  0  0  0  0  0
   41.2130   31.0610   35.7970 H   0  0  0  0  0  0  0  0  0  0  0  0
   39.5480   30.2510   36.7980 C   0  0  0  0  0  0  0  0  0  0  0  0
   39.2850   29.4450   36.1290 H   0  0  0  0  0  0  0  0  0  0  0  0
   38.9350   30.6080   37.9630 N   0  0  0  0  0  0  0  0  0  0  0  0
   38.4330   31.0970   48.2010 C   0  0  2  0  0  0  0  0  0  0  0  0
   38.6640   32.5650   48.1210 C   0  0  0  0  0  0  0  0  0  0  0  0
   38.0620   31.7090   46.9670 C   0  0  1  0  0  0  0  0  0  0  0  0
   39.3570   30.4840   48.2850 H   0  0  0  0  0  0  0  0  0  0  0  0
   39.6890   32.9120   48.0190 H   0  0  0  0  0  0  0  0  0  0  0  0
   37.9750   33.2220   48.6720 H   0  0  0  0  0  0  0  0  0  0  0  0
   36.9820   31.9350   46.7710 H   0  0  0  0  0  0  0  0  0  0  0  0
   35.0600   30.2380   49.5150 C   0  0  0  0  0  0  0  0  0  0  0  0
   35.3880   29.5460   50.7300 C   0  0  0  0  0  0  0  0  0  0  0  0
   36.7740   29.4020   51.0670 C   0  0  0  0  0  0  0  0  0  0  0  0
   37.7360   29.9180   50.2350 N   0  0  0  0  0  0  0  0  0  0  0  0
   37.3530   30.5560   49.1100 C   0  0  0  0  0  0  0  0  0  0  0  0
   36.0290   30.7320   48.7240 N   0  0  0  0  0  0  0  0  0  0  0  0
   34.0060   30.3280   49.2910 H   0  0  0  0  0  0  0  0  0  0  0  0
   34.6270   29.1510   51.3650 H   0  0  0  0  0  0  0  0  0  0  0  0
   37.0320   28.8830   51.9790 H   0  0  0  0  0  0  0  0  0  0  0  0
  1  3  1  0  0  0  0
  2  1  2  0  0  0  0
  3  4  1  0  0  0  0
  3 26  1  0  0  0  0
  5  6  1  0  0  0  0
  5  1  1  0  0  0  0
  6 11  1  0  0  0  0
  7 12  1  0  0  0  0
  7  6  2  0  0  0  0
  8  7  1  0  0  0  0
  9  8  2  0  0  0  0
  9 10  1  0  0  0  0
 10  5  2  0  0  0  0
 13  8  1  0  0  0  0
 14  9  1  0  0  0  0
 15 14  2  0  0  0  0
 16 14  1  0  0  0  0
 17 18  1  0  0  0  0
 17 16  2  0  0  0  0
 19 21  1  0  0  0  0
 19 17  1  0  0  0  0
 20 19  1  0  0  0  0
 21 23  2  0  0  0  0
 22 21  1  0  0  0  0
 23 16  1  0  0  0  0
 24 27  1  6  0  0  0
 24 35  1  0  0  0  0
 25 24  1  0  0  0  0
 25 29  1  0  0  0  0
 26 30  1  6  0  0  0
 26 25  1  0  0  0  0
 26 24  1  0  0  0  0
 28 25  1  0  0  0  0
 31 32  1  0  0  0  0
 32 33  2  0  0  0  0
 32 38  1  0  0  0  0
 33 39  1  0  0  0  0
 34 33  1  0  0  0  0
 35 34  2  0  0  0  0
 36 35  1  0  0  0  0
 36 31  2  0  0  0  0
 37 31  1  0  0  0  0
M  END
>  <minimizedAffinity>
-4.92382336

>  <minimizedRMSD>
0.514470935

$$$$
