
 OpenBabel03272507153D

 39 43  0  0  0  0  0  0  0  0999 V2000
   37.4320   27.5560   32.8440 C   0  0  0  0  0  0  0  0  0  0  0  0
   36.8440   28.1190   31.7470 C   0  0  0  0  0  0  0  0  0  0  0  0
   35.8670   29.0080   32.2120 C   0  0  0  0  0  0  0  0  0  0  0  0
   35.9280   28.9220   33.5980 C   0  0  0  0  0  0  0  0  0  0  0  0
   36.8580   28.0600   33.8950 O   0  0  0  0  0  0  0  0  0  0  0  0
   37.0610   27.9430   30.6850 H   0  0  0  0  0  0  0  0  0  0  0  0
   35.2450   29.5940   31.5440 H   0  0  0  0  0  0  0  0  0  0  0  0
   33.7100   29.4890   34.5850 C   0  0  0  0  0  0  0  0  0  0  0  0
   35.0600   29.7000   34.4810 C   0  0  0  0  0  0  0  0  0  0  0  0
   35.6940   30.6880   35.2260 C   0  0  0  0  0  0  0  0  0  0  0  0
   34.9230   31.4630   36.0820 C   0  0  0  0  0  0  0  0  0  0  0  0
   35.2540   32.4670   36.9030 N   0  0  0  0  0  0  0  0  0  0  0  0
   34.1310   32.8740   37.5070 N   0  0  0  0  0  0  0  0  0  0  0  0
   33.1000   32.1210   37.0590 C   0  0  0  0  0  0  0  0  0  0  0  0
   33.5720   31.2120   36.1500 C   0  0  0  0  0  0  0  0  0  0  0  0
   32.9260   30.2340   35.4170 C   0  0  0  0  0  0  0  0  0  0  0  0
   33.2620   28.7090   33.9860 H   0  0  0  0  0  0  0  0  0  0  0  0
   36.7680   30.9190   35.2010 H   0  0  0  0  0  0  0  0  0  0  0  0
   36.2080   32.8770   37.0640 H   0  0  0  0  0  0  0  0  0  0  0  0
   32.0840   32.2480   37.3900 H   0  0  0  0  0  0  0  0  0  0  0  0
   31.8600   30.0840   35.5140 H   0  0  0  0  0  0  0  0  0  0  0  0
   38.4990   26.5780   32.7190 C   0  0  0  0  0  0  0  0  0  0  0  0
   39.5590   26.9040   32.1530 O   0  0  0  0  0  0  0  0  0  0  0  0
   38.2560   25.2600   33.2740 C   0  0  0  0  0  0  0  0  0  0  0  0
   37.7250   24.3000   32.4170 C   0  0  0  0  0  0  0  0  0  0  0  0
   37.4730   23.0140   32.9070 C   0  0  0  0  0  0  0  0  0  0  0  0
   37.7730   22.7840   34.2230 N   0  0  0  0  0  0  0  0  0  0  0  0
   38.2820   23.7170   35.0290 C   0  0  0  0  0  0  0  0  0  0  0  0
   38.5190   24.9490   34.5460 N   0  0  0  0  0  0  0  0  0  0  0  0
   37.4740   24.4370   31.3750 H   0  0  0  0  0  0  0  0  0  0  0  0
   37.0640   22.2390   32.2810 H   0  0  0  0  0  0  0  0  0  0  0  0
   38.5950   23.4550   36.4300 C   0  0  0  0  0  0  0  0  0  0  0  0
   39.6490   22.6500   36.8390 C   0  0  0  0  0  0  0  0  0  0  0  0
   40.3530   22.1290   36.2150 H   0  0  0  0  0  0  0  0  0  0  0  0
   39.6200   22.6470   38.1980 N   0  0  0  0  0  0  0  0  0  0  0  0
   40.2880   22.1290   38.8350 H   0  0  0  0  0  0  0  0  0  0  0  0
   38.5920   23.4160   38.6530 C   0  0  0  0  0  0  0  0  0  0  0  0
   38.3390   23.5880   39.6970 H   0  0  0  0  0  0  0  0  0  0  0  0
   37.9720   23.9050   37.5540 N   0  0  0  0  0  0  0  0  0  0  0  0
  1  5  1  0  0  0  0
  2  3  1  0  0  0  0
  2  1  2  0  0  0  0
  3  4  2  0  0  0  0
  4  5  1  0  0  0  0
  4  9  1  0  0  0  0
  6  2  1  0  0  0  0
  7  3  1  0  0  0  0
  8 16  1  0  0  0  0
  9  8  2  0  0  0  0
  9 10  1  0  0  0  0
 10 11  2  0  0  0  0
 11 15  1  0  0  0  0
 11 12  1  0  0  0  0
 12 19  1  0  0  0  0
 12 13  1  0  0  0  0
 14 20  1  0  0  0  0
 14 13  2  0  0  0  0
 15 14  1  0  0  0  0
 16 21  1  0  0  0  0
 16 15  2  0  0  0  0
 17  8  1  0  0  0  0
 18 10  1  0  0  0  0
 22  1  1  0  0  0  0
 22 24  1  0  0  0  0
 23 22  2  0  0  0  0
 24 29  1  0  0  0  0
 25 26  1  0  0  0  0
 25 24  2  0  0  0  0
 26 27  2  0  0  0  0
 27 28  1  0  0  0  0
 28 32  1  0  0  0  0
 29 28  2  0  0  0  0
 30 25  1  0  0  0  0
 31 26  1  0  0  0  0
 32 33  2  0  0  0  0
 32 39  1  0  0  0  0
 33 35  1  0  0  0  0
 34 33  1  0  0  0  0
 35 37  1  0  0  0  0
 35 36  1  0  0  0  0
 37 38  1  0  0  0  0
 39 37  2  0  0  0  0
M  END
>  <minimizedAffinity>
-6.86212111

$$$$

 OpenBabel03272507153D

 39 43  0  0  0  0  0  0  0  0999 V2000
   36.7660   27.3840   32.7800 C   0  0  0  0  0  0  0  0  0  0  0  0
   36.7100   28.3480   31.8130 C   0  0  0  0  0  0  0  0  0  0  0  0
   36.1420   29.4860   32.3970 C   0  0  0  0  0  0  0  0  0  0  0  0
   35.8830   29.1280   33.7150 C   0  0  0  0  0  0  0  0  0  0  0  0
   36.2710   27.8940   33.8670 O   0  0  0  0  0  0  0  0  0  0  0  0
   37.0350   28.2900   30.7660 H   0  0  0  0  0  0  0  0  0  0  0  0
   35.9790   30.4070   31.8460 H   0  0  0  0  0  0  0  0  0  0  0  0
   36.0090   30.9120   35.4510 C   0  0  0  0  0  0  0  0  0  0  0  0
   35.2800   30.0430   34.6840 C   0  0  0  0  0  0  0  0  0  0  0  0
   33.8950   29.9790   34.7860 C   0  0  0  0  0  0  0  0  0  0  0  0
   33.2610   30.8200   35.6900 C   0  0  0  0  0  0  0  0  0  0  0  0
   31.9690   30.9740   35.9980 N   0  0  0  0  0  0  0  0  0  0  0  0
   31.8920   31.9210   36.9410 N   0  0  0  0  0  0  0  0  0  0  0  0
   33.1430   32.3560   37.2190 C   0  0  0  0  0  0  0  0  0  0  0  0
   34.0380   31.6750   36.4390 C   0  0  0  0  0  0  0  0  0  0  0  0
   35.4160   31.7520   36.3490 C   0  0  0  0  0  0  0  0  0  0  0  0
   37.0830   30.9270   35.3370 H   0  0  0  0  0  0  0  0  0  0  0  0
   33.2400   29.3120   34.2070 H   0  0  0  0  0  0  0  0  0  0  0  0
   31.1460   30.4610   35.5910 H   0  0  0  0  0  0  0  0  0  0  0  0
   33.3580   33.1200   37.9460 H   0  0  0  0  0  0  0  0  0  0  0  0
   35.9710   32.4450   36.9650 H   0  0  0  0  0  0  0  0  0  0  0  0
   37.3080   26.0630   32.5090 C   0  0  0  0  0  0  0  0  0  0  0  0
   36.8200   25.3830   31.5870 O   0  0  0  0  0  0  0  0  0  0  0  0
   38.4030   25.6130   33.3460 C   0  0  0  0  0  0  0  0  0  0  0  0
   39.6930   25.8080   32.8620 C   0  0  0  0  0  0  0  0  0  0  0  0
   40.7820   25.3910   33.6330 C   0  0  0  0  0  0  0  0  0  0  0  0
   40.4970   24.8070   34.8390 N   0  0  0  0  0  0  0  0  0  0  0  0
   39.2550   24.6280   35.2870 C   0  0  0  0  0  0  0  0  0  0  0  0
   38.2160   25.0340   34.5360 N   0  0  0  0  0  0  0  0  0  0  0  0
   39.9630   26.2640   31.9190 H   0  0  0  0  0  0  0  0  0  0  0  0
   41.7980   25.5220   33.2990 H   0  0  0  0  0  0  0  0  0  0  0  0
   38.9690   24.0030   36.5750 C   0  0  0  0  0  0  0  0  0  0  0  0
   39.6890   22.9300   37.0790 C   0  0  0  0  0  0  0  0  0  0  0  0
   40.5220   22.4270   36.6190 H   0  0  0  0  0  0  0  0  0  0  0  0
   39.1340   22.6310   38.2830 N   0  0  0  0  0  0  0  0  0  0  0  0
   39.4440   21.8590   38.9390 H   0  0  0  0  0  0  0  0  0  0  0  0
   38.0980   23.4730   38.5500 C   0  0  0  0  0  0  0  0  0  0  0  0
   37.4780   23.4570   39.4440 H   0  0  0  0  0  0  0  0  0  0  0  0
   38.0090   24.3100   37.4900 N   0  0  0  0  0  0  0  0  0  0  0  0
  1  5  1  0  0  0  0
  2  3  1  0  0  0  0
  2  1  2  0  0  0  0
  3  4  2  0  0  0  0
  4  5  1  0  0  0  0
  4  9  1  0  0  0  0
  6  2  1  0  0  0  0
  7  3  1  0  0  0  0
  8 16  1  0  0  0  0
  9 10  1  0  0  0  0
  9  8  2  0  0  0  0
 10 11  2  0  0  0  0
 11 12  1  0  0  0  0
 11 15  1  0  0  0  0
 12 13  1  0  0  0  0
 13 14  2  0  0  0  0
 14 20  1  0  0  0  0
 15 14  1  0  0  0  0
 16 15  2  0  0  0  0
 16 21  1  0  0  0  0
 17  8  1  0  0  0  0
 18 10  1  0  0  0  0
 19 12  1  0  0  0  0
 22  1  1  0  0  0  0
 22 24  1  0  0  0  0
 23 22  2  0  0  0  0
 24 29  1  0  0  0  0
 25 24  2  0  0  0  0
 25 26  1  0  0  0  0
 26 27  2  0  0  0  0
 27 28  1  0  0  0  0
 28 32  1  0  0  0  0
 29 28  2  0  0  0  0
 30 25  1  0  0  0  0
 31 26  1  0  0  0  0
 32 33  2  0  0  0  0
 32 39  1  0  0  0  0
 33 35  1  0  0  0  0
 34 33  1  0  0  0  0
 35 37  1  0  0  0  0
 35 36  1  0  0  0  0
 37 38  1  0  0  0  0
 39 37  2  0  0  0  0
M  END
>  <minimizedAffinity>
-6.72253132

$$$$

 OpenBabel03272507153D

 39 43  0  0  0  0  0  0  0  0999 V2000
   38.2780   24.5710   35.4480 C   0  0  0  0  0  0  0  0  0  0  0  0
   38.5690   25.4960   36.4110 C   0  0  0  0  0  0  0  0  0  0  0  0
   38.1630   26.7430   35.9220 C   0  0  0  0  0  0  0  0  0  0  0  0
   37.6380   26.4860   34.6610 C   0  0  0  0  0  0  0  0  0  0  0  0
   37.7370   25.2040   34.4510 O   0  0  0  0  0  0  0  0  0  0  0  0
   39.0320   25.3410   37.3940 H   0  0  0  0  0  0  0  0  0  0  0  0
   38.2790   27.6600   36.4900 H   0  0  0  0  0  0  0  0  0  0  0  0
   36.1970   28.4740   34.2290 C   0  0  0  0  0  0  0  0  0  0  0  0
   37.0950   27.5340   33.7970 C   0  0  0  0  0  0  0  0  0  0  0  0
   37.5490   27.5220   32.4830 C   0  0  0  0  0  0  0  0  0  0  0  0
   37.0690   28.4900   31.6110 C   0  0  0  0  0  0  0  0  0  0  0  0
   37.3220   28.7170   30.3170 N   0  0  0  0  0  0  0  0  0  0  0  0
   36.5960   29.7790   29.9490 N   0  0  0  0  0  0  0  0  0  0  0  0
   35.8880   30.2110   31.0180 C   0  0  0  0  0  0  0  0  0  0  0  0
   36.1680   29.4110   32.0940 C   0  0  0  0  0  0  0  0  0  0  0  0
   35.7060   29.4380   33.3960 C   0  0  0  0  0  0  0  0  0  0  0  0
   35.8720   28.4430   35.2590 H   0  0  0  0  0  0  0  0  0  0  0  0
   38.2670   26.8050   32.0600 H   0  0  0  0  0  0  0  0  0  0  0  0
   37.9680   28.1790   29.6850 H   0  0  0  0  0  0  0  0  0  0  0  0
   35.2220   31.0560   30.9870 H   0  0  0  0  0  0  0  0  0  0  0  0
   34.9970   30.1890   33.7160 H   0  0  0  0  0  0  0  0  0  0  0  0
   38.5720   23.1600   35.6320 C   0  0  0  0  0  0  0  0  0  0  0  0
   39.6840   22.8250   36.0810 O   0  0  0  0  0  0  0  0  0  0  0  0
   37.5320   22.2160   35.2750 C   0  0  0  0  0  0  0  0  0  0  0  0
   36.6250   21.8650   36.2700 C   0  0  0  0  0  0  0  0  0  0  0  0
   35.6040   20.9560   35.9730 C   0  0  0  0  0  0  0  0  0  0  0  0
   35.5660   20.4650   34.6950 N   0  0  0  0  0  0  0  0  0  0  0  0
   36.4440   20.8130   33.7540 C   0  0  0  0  0  0  0  0  0  0  0  0
   37.4210   21.6870   34.0520 N   0  0  0  0  0  0  0  0  0  0  0  0
   36.6170   22.2270   37.2890 H   0  0  0  0  0  0  0  0  0  0  0  0
   34.8790   20.6560   36.7110 H   0  0  0  0  0  0  0  0  0  0  0  0
   36.3900   20.2800   32.3970 C   0  0  0  0  0  0  0  0  0  0  0  0
   35.5510   19.2410   32.0170 C   0  0  0  0  0  0  0  0  0  0  0  0
   34.8540   18.7050   32.6370 H   0  0  0  0  0  0  0  0  0  0  0  0
   35.7830   19.0280   30.6950 N   0  0  0  0  0  0  0  0  0  0  0  0
   35.3090   18.3020   30.0880 H   0  0  0  0  0  0  0  0  0  0  0  0
   36.7320   19.8910   30.2340 C   0  0  0  0  0  0  0  0  0  0  0  0
   37.1070   19.9380   29.2150 H   0  0  0  0  0  0  0  0  0  0  0  0
   37.0940   20.6520   31.2930 N   0  0  0  0  0  0  0  0  0  0  0  0
  1 22  1  0  0  0  0
  1  2  2  0  0  0  0
  2  6  1  0  0  0  0
  3  2  1  0  0  0  0
  3  7  1  0  0  0  0
  4  3  2  0  0  0  0
  5  4  1  0  0  0  0
  5  1  1  0  0  0  0
  8 17  1  0  0  0  0
  9  8  1  0  0  0  0
  9  4  1  0  0  0  0
 10  9  2  0  0  0  0
 11 15  2  0  0  0  0
 11 10  1  0  0  0  0
 12 11  1  0  0  0  0
 13 12  1  0  0  0  0
 13 14  2  0  0  0  0
 14 15  1  0  0  0  0
 15 16  1  0  0  0  0
 16 21  1  0  0  0  0
 16  8  2  0  0  0  0
 18 10  1  0  0  0  0
 19 12  1  0  0  0  0
 20 14  1  0  0  0  0
 22 23  2  0  0  0  0
 24 22  1  0  0  0  0
 24 25  1  0  0  0  0
 25 30  1  0  0  0  0
 26 25  2  0  0  0  0
 26 31  1  0  0  0  0
 27 26  1  0  0  0  0
 28 29  1  0  0  0  0
 28 27  2  0  0  0  0
 29 24  2  0  0  0  0
 32 28  1  0  0  0  0
 33 32  2  0  0  0  0
 33 34  1  0  0  0  0
 35 33  1  0  0  0  0
 36 35  1  0  0  0  0
 37 35  1  0  0  0  0
 37 39  2  0  0  0  0
 38 37  1  0  0  0  0
 39 32  1  0  0  0  0
M  END
>  <minimizedAffinity>
-6.33432102

$$$$

 OpenBabel03272507153D

 39 43  0  0  0  0  0  0  0  0999 V2000
   36.5040   24.1920   31.7640 C   0  0  0  0  0  0  0  0  0  0  0  0
   35.2760   24.2510   31.1700 C   0  0  0  0  0  0  0  0  0  0  0  0
   34.9780   25.6040   30.9690 C   0  0  0  0  0  0  0  0  0  0  0  0
   36.0750   26.2960   31.4680 C   0  0  0  0  0  0  0  0  0  0  0  0
   36.9230   25.4130   31.9140 O   0  0  0  0  0  0  0  0  0  0  0  0
   34.6110   23.4250   30.8850 H   0  0  0  0  0  0  0  0  0  0  0  0
   34.0530   25.9380   30.5100 H   0  0  0  0  0  0  0  0  0  0  0  0
   36.6490   28.4670   30.3850 C   0  0  0  0  0  0  0  0  0  0  0  0
   36.1690   27.7560   31.4530 C   0  0  0  0  0  0  0  0  0  0  0  0
   35.7380   28.3950   32.6090 C   0  0  0  0  0  0  0  0  0  0  0  0
   35.8040   29.7820   32.6590 C   0  0  0  0  0  0  0  0  0  0  0  0
   35.4680   30.6480   33.6210 N   0  0  0  0  0  0  0  0  0  0  0  0
   35.7330   31.8770   33.1610 N   0  0  0  0  0  0  0  0  0  0  0  0
   36.2360   31.7720   31.9090 C   0  0  0  0  0  0  0  0  0  0  0  0
   36.2940   30.4500   31.5600 C   0  0  0  0  0  0  0  0  0  0  0  0
   36.7270   29.8290   30.4030 C   0  0  0  0  0  0  0  0  0  0  0  0
   36.9730   27.9250   29.5070 H   0  0  0  0  0  0  0  0  0  0  0  0
   35.3400   27.8990   33.5060 H   0  0  0  0  0  0  0  0  0  0  0  0
   35.0670   30.4320   34.5690 H   0  0  0  0  0  0  0  0  0  0  0  0
   36.5320   32.6200   31.3150 H   0  0  0  0  0  0  0  0  0  0  0  0
   37.1020   30.4100   29.5710 H   0  0  0  0  0  0  0  0  0  0  0  0
   37.1220   22.9250   32.1140 C   0  0  0  0  0  0  0  0  0  0  0  0
   36.6620   21.8720   31.6340 O   0  0  0  0  0  0  0  0  0  0  0  0
   38.2550   22.9690   33.0170 C   0  0  0  0  0  0  0  0  0  0  0  0
   39.5230   22.8800   32.4490 C   0  0  0  0  0  0  0  0  0  0  0  0
   40.6470   22.9180   33.2790 C   0  0  0  0  0  0  0  0  0  0  0  0
   40.4180   23.0430   34.6240 N   0  0  0  0  0  0  0  0  0  0  0  0
   39.1970   23.1270   35.1510 C   0  0  0  0  0  0  0  0  0  0  0  0
   38.1230   23.0890   34.3410 N   0  0  0  0  0  0  0  0  0  0  0  0
   39.7490   22.7810   31.3960 H   0  0  0  0  0  0  0  0  0  0  0  0
   41.6470   22.8530   32.8840 H   0  0  0  0  0  0  0  0  0  0  0  0
   38.9700   23.2600   36.5860 C   0  0  0  0  0  0  0  0  0  0  0  0
   39.7750   22.6620   37.5450 C   0  0  0  0  0  0  0  0  0  0  0  0
   40.6410   22.0440   37.3780 H   0  0  0  0  0  0  0  0  0  0  0  0
   39.2550   23.0090   38.7510 N   0  0  0  0  0  0  0  0  0  0  0  0
   39.6280   22.7210   39.6990 H   0  0  0  0  0  0  0  0  0  0  0  0
   38.1580   23.8000   38.5840 C   0  0  0  0  0  0  0  0  0  0  0  0
   37.5490   24.2200   39.3820 H   0  0  0  0  0  0  0  0  0  0  0  0
   37.9970   23.9440   37.2480 N   0  0  0  0  0  0  0  0  0  0  0  0
  1  5  1  0  0  0  0
  1 22  1  0  0  0  0
  2  1  2  0  0  0  0
  3  2  1  0  0  0  0
  3  4  2  0  0  0  0
  4  5  1  0  0  0  0
  6  2  1  0  0  0  0
  7  3  1  0  0  0  0
  8 16  2  0  0  0  0
  8  9  1  0  0  0  0
  9  4  1  0  0  0  0
  9 10  2  0  0  0  0
 10 11  1  0  0  0  0
 10 18  1  0  0  0  0
 11 12  1  0  0  0  0
 12 19  1  0  0  0  0
 13 12  1  0  0  0  0
 14 13  2  0  0  0  0
 15 14  1  0  0  0  0
 15 11  2  0  0  0  0
 16 15  1  0  0  0  0
 17  8  1  0  0  0  0
 20 14  1  0  0  0  0
 21 16  1  0  0  0  0
 22 24  1  0  0  0  0
 23 22  2  0  0  0  0
 24 29  1  0  0  0  0
 25 24  2  0  0  0  0
 25 26  1  0  0  0  0
 26 27  2  0  0  0  0
 27 28  1  0  0  0  0
 28 32  1  0  0  0  0
 29 28  2  0  0  0  0
 30 25  1  0  0  0  0
 31 26  1  0  0  0  0
 32 39  1  0  0  0  0
 32 33  2  0  0  0  0
 33 35  1  0  0  0  0
 34 33  1  0  0  0  0
 35 36  1  0  0  0  0
 37 35  1  0  0  0  0
 37 38  1  0  0  0  0
 39 37  2  0  0  0  0
M  END
>  <minimizedAffinity>
-6.31618452

$$$$

 OpenBabel03272507153D

 39 43  0  0  0  0  0  0  0  0999 V2000
   37.1650   27.4790   33.0720 C   0  0  0  0  0  0  0  0  0  0  0  0
   36.9610   27.9190   34.3490 C   0  0  0  0  0  0  0  0  0  0  0  0
   35.8960   28.8270   34.3080 C   0  0  0  0  0  0  0  0  0  0  0  0
   35.5130   28.8790   32.9730 C   0  0  0  0  0  0  0  0  0  0  0  0
   36.2940   28.0720   32.3130 O   0  0  0  0  0  0  0  0  0  0  0  0
   37.5010   27.6450   35.2650 H   0  0  0  0  0  0  0  0  0  0  0  0
   35.5230   29.3320   35.1940 H   0  0  0  0  0  0  0  0  0  0  0  0
   34.6070   30.7940   31.6590 C   0  0  0  0  0  0  0  0  0  0  0  0
   34.4200   29.7220   32.4910 C   0  0  0  0  0  0  0  0  0  0  0  0
   33.1510   29.3690   32.9360 C   0  0  0  0  0  0  0  0  0  0  0  0
   32.0690   30.1320   32.5160 C   0  0  0  0  0  0  0  0  0  0  0  0
   30.7610   30.0310   32.7780 N   0  0  0  0  0  0  0  0  0  0  0  0
   30.1450   31.0210   32.1220 N   0  0  0  0  0  0  0  0  0  0  0  0
   31.0740   31.7400   31.4510 C   0  0  0  0  0  0  0  0  0  0  0  0
   32.3110   31.1990   31.6800 C   0  0  0  0  0  0  0  0  0  0  0  0
   33.5650   31.5630   31.2290 C   0  0  0  0  0  0  0  0  0  0  0  0
   35.6120   31.0300   31.3400 H   0  0  0  0  0  0  0  0  0  0  0  0
   32.9160   28.5250   33.6020 H   0  0  0  0  0  0  0  0  0  0  0  0
   30.2810   29.3160   33.3820 H   0  0  0  0  0  0  0  0  0  0  0  0
   30.8370   32.5960   30.8420 H   0  0  0  0  0  0  0  0  0  0  0  0
   33.6910   32.4130   30.5720 H   0  0  0  0  0  0  0  0  0  0  0  0
   38.2060   26.5170   32.7550 C   0  0  0  0  0  0  0  0  0  0  0  0
   39.1640   26.8710   32.0420 O   0  0  0  0  0  0  0  0  0  0  0  0
   38.0610   25.1820   33.3000 C   0  0  0  0  0  0  0  0  0  0  0  0
   37.5480   24.2030   32.4530 C   0  0  0  0  0  0  0  0  0  0  0  0
   37.3880   22.9000   32.9340 C   0  0  0  0  0  0  0  0  0  0  0  0
   37.7570   22.6710   34.2330 N   0  0  0  0  0  0  0  0  0  0  0  0
   38.2460   23.6210   35.0300 C   0  0  0  0  0  0  0  0  0  0  0  0
   38.3950   24.8700   34.5560 N   0  0  0  0  0  0  0  0  0  0  0  0
   37.2450   24.3390   31.4240 H   0  0  0  0  0  0  0  0  0  0  0  0
   36.9960   22.1110   32.3150 H   0  0  0  0  0  0  0  0  0  0  0  0
   38.6330   23.3600   36.4130 C   0  0  0  0  0  0  0  0  0  0  0  0
   39.6990   22.5450   36.7670 C   0  0  0  0  0  0  0  0  0  0  0  0
   40.3620   22.0130   36.1070 H   0  0  0  0  0  0  0  0  0  0  0  0
   39.7450   22.5460   38.1250 N   0  0  0  0  0  0  0  0  0  0  0  0
   40.4410   22.0230   38.7270 H   0  0  0  0  0  0  0  0  0  0  0  0
   38.7520   23.3290   38.6330 C   0  0  0  0  0  0  0  0  0  0  0  0
   38.5590   23.5070   39.6880 H   0  0  0  0  0  0  0  0  0  0  0  0
   38.0780   23.8210   37.5680 N   0  0  0  0  0  0  0  0  0  0  0  0
  1  2  2  0  0  0  0
  2  6  1  0  0  0  0
  3  2  1  0  0  0  0
  3  7  1  0  0  0  0
  4  3  2  0  0  0  0
  5  4  1  0  0  0  0
  5  1  1  0  0  0  0
  8  9  1  0  0  0  0
  9 10  2  0  0  0  0
  9  4  1  0  0  0  0
 10 18  1  0  0  0  0
 11 12  1  0  0  0  0
 11 10  1  0  0  0  0
 12 19  1  0  0  0  0
 13 12  1  0  0  0  0
 14 15  1  0  0  0  0
 14 13  2  0  0  0  0
 15 11  2  0  0  0  0
 16  8  2  0  0  0  0
 16 15  1  0  0  0  0
 17  8  1  0  0  0  0
 20 14  1  0  0  0  0
 21 16  1  0  0  0  0
 22  1  1  0  0  0  0
 22 24  1  0  0  0  0
 23 22  2  0  0  0  0
 24 29  1  0  0  0  0
 25 26  1  0  0  0  0
 25 24  2  0  0  0  0
 26 27  2  0  0  0  0
 27 28  1  0  0  0  0
 28 32  1  0  0  0  0
 29 28  2  0  0  0  0
 30 25  1  0  0  0  0
 31 26  1  0  0  0  0
 32 33  2  0  0  0  0
 32 39  1  0  0  0  0
 33 35  1  0  0  0  0
 34 33  1  0  0  0  0
 35 37  1  0  0  0  0
 35 36  1  0  0  0  0
 37 38  1  0  0  0  0
 39 37  2  0  0  0  0
M  END
>  <minimizedAffinity>
-6.2308383

$$$$

 OpenBabel03272507153D

 39 43  0  0  0  0  0  0  0  0999 V2000
   36.3750   25.8390   31.8350 C   0  0  0  0  0  0  0  0  0  0  0  0
   35.2860   25.7710   31.0140 C   0  0  0  0  0  0  0  0  0  0  0  0
   34.9800   24.4150   30.8450 C   0  0  0  0  0  0  0  0  0  0  0  0
   35.9290   23.7310   31.5950 C   0  0  0  0  0  0  0  0  0  0  0  0
   36.7070   24.6210   32.1430 O   0  0  0  0  0  0  0  0  0  0  0  0
   34.7240   26.5920   30.5500 H   0  0  0  0  0  0  0  0  0  0  0  0
   34.1510   24.0750   30.2330 H   0  0  0  0  0  0  0  0  0  0  0  0
   35.0200   21.5380   32.3540 C   0  0  0  0  0  0  0  0  0  0  0  0
   35.9670   22.2730   31.6910 C   0  0  0  0  0  0  0  0  0  0  0  0
   37.0430   21.6590   31.0590 C   0  0  0  0  0  0  0  0  0  0  0  0
   37.1380   20.2750   31.1160 C   0  0  0  0  0  0  0  0  0  0  0  0
   38.0450   19.4300   30.6120 N   0  0  0  0  0  0  0  0  0  0  0  0
   37.6710   18.1920   30.9550 N   0  0  0  0  0  0  0  0  0  0  0  0
   36.5280   18.2690   31.6750 C   0  0  0  0  0  0  0  0  0  0  0  0
   36.1610   19.5820   31.7950 C   0  0  0  0  0  0  0  0  0  0  0  0
   35.0850   20.1770   32.4270 C   0  0  0  0  0  0  0  0  0  0  0  0
   34.2020   22.0590   32.8300 H   0  0  0  0  0  0  0  0  0  0  0  0
   37.8420   22.1750   30.5070 H   0  0  0  0  0  0  0  0  0  0  0  0
   38.9010   19.6680   30.0490 H   0  0  0  0  0  0  0  0  0  0  0  0
   36.0170   17.4080   32.0730 H   0  0  0  0  0  0  0  0  0  0  0  0
   34.3490   19.5780   32.9450 H   0  0  0  0  0  0  0  0  0  0  0  0
   36.9620   27.1110   32.2200 C   0  0  0  0  0  0  0  0  0  0  0  0
   36.6980   28.1290   31.5520 O   0  0  0  0  0  0  0  0  0  0  0  0
   37.8320   27.1140   33.3790 C   0  0  0  0  0  0  0  0  0  0  0  0
   37.2370   27.3300   34.6190 C   0  0  0  0  0  0  0  0  0  0  0  0
   38.0360   27.3420   35.7670 C   0  0  0  0  0  0  0  0  0  0  0  0
   39.3780   27.1350   35.5880 N   0  0  0  0  0  0  0  0  0  0  0  0
   39.9310   26.9290   34.3920 C   0  0  0  0  0  0  0  0  0  0  0  0
   39.1520   26.9200   33.2960 N   0  0  0  0  0  0  0  0  0  0  0  0
   36.1850   27.4980   34.8060 H   0  0  0  0  0  0  0  0  0  0  0  0
   37.6190   27.5050   36.7460 H   0  0  0  0  0  0  0  0  0  0  0  0
   41.3630   26.7110   34.2200 C   0  0  0  0  0  0  0  0  0  0  0  0
   42.0550   25.6690   34.8200 C   0  0  0  0  0  0  0  0  0  0  0  0
   41.6560   24.9080   35.4680 H   0  0  0  0  0  0  0  0  0  0  0  0
   43.3500   25.7950   34.4290 N   0  0  0  0  0  0  0  0  0  0  0  0
   44.1510   25.1610   34.7070 H   0  0  0  0  0  0  0  0  0  0  0  0
   43.4950   26.8730   33.6080 C   0  0  0  0  0  0  0  0  0  0  0  0
   44.4240   27.2040   33.1510 H   0  0  0  0  0  0  0  0  0  0  0  0
   42.2650   27.4240   33.4900 N   0  0  0  0  0  0  0  0  0  0  0  0
  1  5  1  0  0  0  0
  1 22  1  0  0  0  0
  2  1  2  0  0  0  0
  3  2  1  0  0  0  0
  3  4  2  0  0  0  0
  4  9  1  0  0  0  0
  4  5  1  0  0  0  0
  6  2  1  0  0  0  0
  7  3  1  0  0  0  0
  8 16  1  0  0  0  0
  8 17  1  0  0  0  0
  9  8  2  0  0  0  0
 10 11  2  0  0  0  0
 10  9  1  0  0  0  0
 11 15  1  0  0  0  0
 12 13  1  0  0  0  0
 12 11  1  0  0  0  0
 13 14  2  0  0  0  0
 14 15  1  0  0  0  0
 14 20  1  0  0  0  0
 15 16  2  0  0  0  0
 16 21  1  0  0  0  0
 18 10  1  0  0  0  0
 19 12  1  0  0  0  0
 22 24  1  0  0  0  0
 23 22  2  0  0  0  0
 24 25  1  0  0  0  0
 25 30  1  0  0  0  0
 25 26  2  0  0  0  0
 26 31  1  0  0  0  0
 27 26  1  0  0  0  0
 28 27  2  0  0  0  0
 29 24  2  0  0  0  0
 29 28  1  0  0  0  0
 32 28  1  0  0  0  0
 32 33  2  0  0  0  0
 33 34  1  0  0  0  0
 35 36  1  0  0  0  0
 35 33  1  0  0  0  0
 37 35  1  0  0  0  0
 38 37  1  0  0  0  0
 39 37  2  0  0  0  0
 39 32  1  0  0  0  0
M  END
>  <minimizedAffinity>
-6.20103359

$$$$

 OpenBabel03272507153D

 39 43  0  0  0  0  0  0  0  0999 V2000
   36.3030   25.6000   32.0500 C   0  0  0  0  0  0  0  0  0  0  0  0
   35.2770   25.6430   31.1490 C   0  0  0  0  0  0  0  0  0  0  0  0
   35.0080   24.3240   30.7660 C   0  0  0  0  0  0  0  0  0  0  0  0
   35.9130   23.5460   31.4790 C   0  0  0  0  0  0  0  0  0  0  0  0
   36.6340   24.3540   32.2030 O   0  0  0  0  0  0  0  0  0  0  0  0
   34.7350   26.5180   30.7670 H   0  0  0  0  0  0  0  0  0  0  0  0
   34.2320   24.0680   30.0520 H   0  0  0  0  0  0  0  0  0  0  0  0
   35.0030   21.2580   31.8650 C   0  0  0  0  0  0  0  0  0  0  0  0
   35.9710   22.0890   31.3670 C   0  0  0  0  0  0  0  0  0  0  0  0
   37.0900   21.5830   30.7150 C   0  0  0  0  0  0  0  0  0  0  0  0
   37.2050   20.2050   30.5790 C   0  0  0  0  0  0  0  0  0  0  0  0
   38.1520   19.4500   30.0110 N   0  0  0  0  0  0  0  0  0  0  0  0
   37.7810   18.1720   30.1520 N   0  0  0  0  0  0  0  0  0  0  0  0
   36.6000   18.1340   30.8120 C   0  0  0  0  0  0  0  0  0  0  0  0
   36.2050   19.4140   31.0970 C   0  0  0  0  0  0  0  0  0  0  0  0
   35.0870   19.9010   31.7480 C   0  0  0  0  0  0  0  0  0  0  0  0
   34.1520   21.6980   32.3650 H   0  0  0  0  0  0  0  0  0  0  0  0
   37.9080   22.1800   30.2870 H   0  0  0  0  0  0  0  0  0  0  0  0
   39.0320   19.7730   29.5350 H   0  0  0  0  0  0  0  0  0  0  0  0
   36.0840   17.2210   31.0540 H   0  0  0  0  0  0  0  0  0  0  0  0
   34.3350   19.2270   32.1330 H   0  0  0  0  0  0  0  0  0  0  0  0
   36.8370   26.8090   32.6550 C   0  0  0  0  0  0  0  0  0  0  0  0
   36.7450   27.8880   32.0400 O   0  0  0  0  0  0  0  0  0  0  0  0
   37.4540   26.6770   33.9600 C   0  0  0  0  0  0  0  0  0  0  0  0
   37.5230   27.8230   34.7470 C   0  0  0  0  0  0  0  0  0  0  0  0
   38.1100   27.7460   36.0140 C   0  0  0  0  0  0  0  0  0  0  0  0
   38.5860   26.5210   36.4010 N   0  0  0  0  0  0  0  0  0  0  0  0
   38.5110   25.4340   35.6330 C   0  0  0  0  0  0  0  0  0  0  0  0
   37.9450   25.5210   34.4170 N   0  0  0  0  0  0  0  0  0  0  0  0
   37.1610   28.8070   34.4830 H   0  0  0  0  0  0  0  0  0  0  0  0
   38.1850   28.6050   36.6580 H   0  0  0  0  0  0  0  0  0  0  0  0
   39.0250   24.1360   36.0610 C   0  0  0  0  0  0  0  0  0  0  0  0
   38.2370   23.1620   36.6560 C   0  0  0  0  0  0  0  0  0  0  0  0
   37.1850   23.2180   36.8780 H   0  0  0  0  0  0  0  0  0  0  0  0
   39.0580   22.1100   36.9100 N   0  0  0  0  0  0  0  0  0  0  0  0
   38.7780   21.1940   37.3620 H   0  0  0  0  0  0  0  0  0  0  0  0
   40.3260   22.3870   36.4970 C   0  0  0  0  0  0  0  0  0  0  0  0
   41.1820   21.7220   36.5790 H   0  0  0  0  0  0  0  0  0  0  0  0
   40.2890   23.6370   35.9780 N   0  0  0  0  0  0  0  0  0  0  0  0
  1  5  1  0  0  0  0
  1 22  1  0  0  0  0
  2  1  2  0  0  0  0
  3  2  1  0  0  0  0
  3  4  2  0  0  0  0
  4  5  1  0  0  0  0
  6  2  1  0  0  0  0
  7  3  1  0  0  0  0
  8 17  1  0  0  0  0
  9  4  1  0  0  0  0
  9  8  2  0  0  0  0
 10  9  1  0  0  0  0
 11 10  2  0  0  0  0
 11 15  1  0  0  0  0
 12 13  1  0  0  0  0
 12 11  1  0  0  0  0
 13 14  2  0  0  0  0
 14 20  1  0  0  0  0
 14 15  1  0  0  0  0
 15 16  2  0  0  0  0
 16  8  1  0  0  0  0
 16 21  1  0  0  0  0
 18 10  1  0  0  0  0
 19 12  1  0  0  0  0
 22 24  1  0  0  0  0
 23 22  2  0  0  0  0
 24 29  2  0  0  0  0
 24 25  1  0  0  0  0
 25 26  2  0  0  0  0
 26 27  1  0  0  0  0
 26 31  1  0  0  0  0
 28 32  1  0  0  0  0
 28 27  2  0  0  0  0
 29 28  1  0  0  0  0
 30 25  1  0  0  0  0
 32 33  2  0  0  0  0
 33 34  1  0  0  0  0
 33 35  1  0  0  0  0
 35 36  1  0  0  0  0
 37 38  1  0  0  0  0
 37 35  1  0  0  0  0
 39 32  1  0  0  0  0
 39 37  2  0  0  0  0
M  END
>  <minimizedAffinity>
-6.1774621

$$$$

 OpenBabel03272507153D

 39 43  0  0  0  0  0  0  0  0999 V2000
   36.8170   25.5980   32.0470 C   0  0  0  0  0  0  0  0  0  0  0  0
   37.0280   26.3390   33.1750 C   0  0  0  0  0  0  0  0  0  0  0  0
   37.1370   27.6760   32.7770 C   0  0  0  0  0  0  0  0  0  0  0  0
   36.9810   27.6580   31.3960 C   0  0  0  0  0  0  0  0  0  0  0  0
   36.7990   26.4180   31.0400 O   0  0  0  0  0  0  0  0  0  0  0  0
   37.1050   25.9980   34.2160 H   0  0  0  0  0  0  0  0  0  0  0  0
   37.3100   28.4840   33.4810 H   0  0  0  0  0  0  0  0  0  0  0  0
   36.5220   30.0730   30.9800 C   0  0  0  0  0  0  0  0  0  0  0  0
   37.0300   28.8670   30.5740 C   0  0  0  0  0  0  0  0  0  0  0  0
   37.6320   28.7210   29.3290 C   0  0  0  0  0  0  0  0  0  0  0  0
   37.7070   29.8320   28.5000 C   0  0  0  0  0  0  0  0  0  0  0  0
   38.2180   29.9860   27.2730 N   0  0  0  0  0  0  0  0  0  0  0  0
   38.0320   31.2640   26.9200 N   0  0  0  0  0  0  0  0  0  0  0  0
   37.4030   31.9050   27.9320 C   0  0  0  0  0  0  0  0  0  0  0  0
   37.1810   31.0210   28.9540 C   0  0  0  0  0  0  0  0  0  0  0  0
   36.5810   31.1830   30.1880 C   0  0  0  0  0  0  0  0  0  0  0  0
   36.0630   30.1380   31.9560 H   0  0  0  0  0  0  0  0  0  0  0  0
   38.0630   27.7920   28.9310 H   0  0  0  0  0  0  0  0  0  0  0  0
   38.6850   29.2570   26.6750 H   0  0  0  0  0  0  0  0  0  0  0  0
   37.1360   32.9470   27.8990 H   0  0  0  0  0  0  0  0  0  0  0  0
   36.1860   32.1440   30.4880 H   0  0  0  0  0  0  0  0  0  0  0  0
   36.6570   24.1550   32.1020 C   0  0  0  0  0  0  0  0  0  0  0  0
   35.6580   23.6340   31.5710 O   0  0  0  0  0  0  0  0  0  0  0  0
   37.6900   23.4010   32.7840 C   0  0  0  0  0  0  0  0  0  0  0  0
   38.5130   22.5980   31.9990 C   0  0  0  0  0  0  0  0  0  0  0  0
   39.5240   21.8510   32.6110 C   0  0  0  0  0  0  0  0  0  0  0  0
   39.6370   21.9640   33.9720 N   0  0  0  0  0  0  0  0  0  0  0  0
   38.8400   22.7380   34.7080 C   0  0  0  0  0  0  0  0  0  0  0  0
   37.8710   23.4510   34.1070 N   0  0  0  0  0  0  0  0  0  0  0  0
   38.4580   22.4790   30.9250 H   0  0  0  0  0  0  0  0  0  0  0  0
   40.1840   21.2170   32.0440 H   0  0  0  0  0  0  0  0  0  0  0  0
   38.9750   22.8470   36.1570 C   0  0  0  0  0  0  0  0  0  0  0  0
   40.0290   22.2940   36.8700 C   0  0  0  0  0  0  0  0  0  0  0  0
   40.8600   21.7340   36.4780 H   0  0  0  0  0  0  0  0  0  0  0  0
   39.8090   22.6000   38.1760 N   0  0  0  0  0  0  0  0  0  0  0  0
   40.4250   22.3300   38.9930 H   0  0  0  0  0  0  0  0  0  0  0  0
   38.6600   23.3220   38.3070 C   0  0  0  0  0  0  0  0  0  0  0  0
   38.2480   23.6970   39.2400 H   0  0  0  0  0  0  0  0  0  0  0  0
   38.1600   23.4640   37.0570 N   0  0  0  0  0  0  0  0  0  0  0  0
  1 22  1  0  0  0  0
  1  2  2  0  0  0  0
  2  6  1  0  0  0  0
  3  2  1  0  0  0  0
  3  7  1  0  0  0  0
  4  3  2  0  0  0  0
  5  4  1  0  0  0  0
  5  1  1  0  0  0  0
  8 17  1  0  0  0  0
  9  8  1  0  0  0  0
  9  4  1  0  0  0  0
 10  9  2  0  0  0  0
 11 15  2  0  0  0  0
 11 10  1  0  0  0  0
 12 11  1  0  0  0  0
 13 12  1  0  0  0  0
 13 14  2  0  0  0  0
 14 15  1  0  0  0  0
 15 16  1  0  0  0  0
 16 21  1  0  0  0  0
 16  8  2  0  0  0  0
 18 10  1  0  0  0  0
 19 12  1  0  0  0  0
 20 14  1  0  0  0  0
 22 24  1  0  0  0  0
 23 22  2  0  0  0  0
 24 29  1  0  0  0  0
 25 26  1  0  0  0  0
 25 24  2  0  0  0  0
 26 27  2  0  0  0  0
 27 28  1  0  0  0  0
 28 32  1  0  0  0  0
 29 28  2  0  0  0  0
 30 25  1  0  0  0  0
 31 26  1  0  0  0  0
 32 33  2  0  0  0  0
 32 39  1  0  0  0  0
 33 35  1  0  0  0  0
 34 33  1  0  0  0  0
 35 37  1  0  0  0  0
 35 36  1  0  0  0  0
 37 38  1  0  0  0  0
 39 37  2  0  0  0  0
M  END
>  <minimizedAffinity>
-6.17201757

$$$$

 OpenBabel03272507153D

 39 43  0  0  0  0  0  0  0  0999 V2000
   37.5690   27.0260   32.5850 C   0  0  0  0  0  0  0  0  0  0  0  0
   38.7160   27.4780   31.9980 C   0  0  0  0  0  0  0  0  0  0  0  0
   39.7840   26.8060   32.6060 C   0  0  0  0  0  0  0  0  0  0  0  0
   39.1980   25.9680   33.5470 C   0  0  0  0  0  0  0  0  0  0  0  0
   37.9090   26.1490   33.4800 O   0  0  0  0  0  0  0  0  0  0  0  0
   38.8320   28.2230   31.2000 H   0  0  0  0  0  0  0  0  0  0  0  0
   40.8180   26.9780   32.3260 H   0  0  0  0  0  0  0  0  0  0  0  0
   41.3410   25.0260   34.4030 C   0  0  0  0  0  0  0  0  0  0  0  0
   39.9720   25.0800   34.4130 C   0  0  0  0  0  0  0  0  0  0  0  0
   39.2250   24.2740   35.2650 C   0  0  0  0  0  0  0  0  0  0  0  0
   39.9020   23.4060   36.1120 C   0  0  0  0  0  0  0  0  0  0  0  0
   39.4560   22.5300   37.0190 N   0  0  0  0  0  0  0  0  0  0  0  0
   40.5270   21.9390   37.5640 N   0  0  0  0  0  0  0  0  0  0  0  0
   41.6410   22.4520   36.9920 C   0  0  0  0  0  0  0  0  0  0  0  0
   41.2780   23.3890   36.0630 C   0  0  0  0  0  0  0  0  0  0  0  0
   42.0350   24.1840   35.2220 C   0  0  0  0  0  0  0  0  0  0  0  0
   41.8780   25.6710   33.7230 H   0  0  0  0  0  0  0  0  0  0  0  0
   38.1280   24.2580   35.3350 H   0  0  0  0  0  0  0  0  0  0  0  0
   38.4570   22.3240   37.2760 H   0  0  0  0  0  0  0  0  0  0  0  0
   42.6390   22.1440   37.2550 H   0  0  0  0  0  0  0  0  0  0  0  0
   43.1140   24.1250   35.2300 H   0  0  0  0  0  0  0  0  0  0  0  0
   36.2620   27.5220   32.1860 C   0  0  0  0  0  0  0  0  0  0  0  0
   35.4460   26.7350   31.6710 O   0  0  0  0  0  0  0  0  0  0  0  0
   35.9890   28.9260   32.4190 C   0  0  0  0  0  0  0  0  0  0  0  0
   36.1400   29.7900   31.3380 C   0  0  0  0  0  0  0  0  0  0  0  0
   35.8890   31.1540   31.5140 C   0  0  0  0  0  0  0  0  0  0  0  0
   35.5010   31.5540   32.7660 N   0  0  0  0  0  0  0  0  0  0  0  0
   35.3610   30.7120   33.7900 C   0  0  0  0  0  0  0  0  0  0  0  0
   35.6060   29.4030   33.6080 N   0  0  0  0  0  0  0  0  0  0  0  0
   36.4430   29.5180   30.3370 H   0  0  0  0  0  0  0  0  0  0  0  0
   35.9920   31.8590   30.7070 H   0  0  0  0  0  0  0  0  0  0  0  0
   34.9470   31.1560   35.1170 C   0  0  0  0  0  0  0  0  0  0  0  0
   35.8270   31.6680   36.0600 C   0  0  0  0  0  0  0  0  0  0  0  0
   36.8890   31.8050   35.9560 H   0  0  0  0  0  0  0  0  0  0  0  0
   35.0800   31.9650   37.1560 N   0  0  0  0  0  0  0  0  0  0  0  0
   35.4390   32.3760   38.0630 H   0  0  0  0  0  0  0  0  0  0  0  0
   33.7710   31.6610   36.9350 C   0  0  0  0  0  0  0  0  0  0  0  0
   32.9580   31.7980   37.6440 H   0  0  0  0  0  0  0  0  0  0  0  0
   33.7060   31.1640   35.6780 N   0  0  0  0  0  0  0  0  0  0  0  0
  1  5  1  0  0  0  0
  2  1  2  0  0  0  0
  2  3  1  0  0  0  0
  3  4  2  0  0  0  0
  4  9  1  0  0  0  0
  5  4  1  0  0  0  0
  6  2  1  0  0  0  0
  7  3  1  0  0  0  0
  8  9  2  0  0  0  0
  8 16  1  0  0  0  0
  9 10  1  0  0  0  0
 10 18  1  0  0  0  0
 10 11  2  0  0  0  0
 11 12  1  0  0  0  0
 12 19  1  0  0  0  0
 12 13  1  0  0  0  0
 14 20  1  0  0  0  0
 14 13  2  0  0  0  0
 15 11  1  0  0  0  0
 15 14  1  0  0  0  0
 16 21  1  0  0  0  0
 16 15  2  0  0  0  0
 17  8  1  0  0  0  0
 22 24  1  0  0  0  0
 22  1  1  0  0  0  0
 23 22  2  0  0  0  0
 24 29  1  0  0  0  0
 25 26  1  0  0  0  0
 25 24  2  0  0  0  0
 26 27  2  0  0  0  0
 27 28  1  0  0  0  0
 28 32  1  0  0  0  0
 29 28  2  0  0  0  0
 30 25  1  0  0  0  0
 31 26  1  0  0  0  0
 32 39  1  0  0  0  0
 32 33  2  0  0  0  0
 33 35  1  0  0  0  0
 34 33  1  0  0  0  0
 35 36  1  0  0  0  0
 37 35  1  0  0  0  0
 37 38  1  0  0  0  0
 39 37  2  0  0  0  0
M  END
>  <minimizedAffinity>
-6.15040159

$$$$
