
 OpenBabel03262521013D

 36 38  0  0  1  0  0  0  0  0999 V2000
   39.7130   31.6020   46.2140 S   0  0  0  0  0  0  0  0  0  0  0  0
   40.0080   32.7880   43.7940 N   0  0  0  0  0  0  0  0  0  0  0  0
   39.1050   32.7460   44.9100 C   0  0  1  0  0  0  0  0  0  0  0  0
   37.7610   32.2240   44.4880 C   0  0  0  0  0  0  0  0  0  0  0  0
   37.9680   30.8950   43.9350 N   0  0  0  0  0  0  0  0  0  0  0  0
   38.6850   31.1310   42.6680 C   0  0  0  0  0  0  0  0  0  0  0  0
   40.0840   31.5670   43.0580 C   0  0  2  0  0  0  0  0  0  0  0  0
   40.0510   33.6600   43.2720 H   0  0  0  0  0  0  0  0  0  0  0  0
   39.0500   33.7420   45.3670 H   0  0  0  0  0  0  0  0  0  0  0  0
   37.3060   32.8590   43.7130 H   0  0  0  0  0  0  0  0  0  0  0  0
   37.0990   32.1160   45.3740 H   0  0  0  0  0  0  0  0  0  0  0  0
   38.6800   30.4390   44.5730 H   0  0  0  0  0  0  0  0  0  0  0  0
   38.1500   31.9400   42.1510 H   0  0  0  0  0  0  0  0  0  0  0  0
   38.7010   30.1750   42.1060 H   0  0  0  0  0  0  0  0  0  0  0  0
   40.6460   31.7680   42.1180 H   0  0  0  0  0  0  0  0  0  0  0  0
   40.7280   30.5120   43.8050 N   0  0  0  0  0  0  0  0  0  0  0  0
   40.4680   29.6100   43.3090 H   0  0  0  0  0  0  0  0  0  0  0  0
   41.7630   30.5810   43.6780 H   0  0  0  0  0  0  0  0  0  0  0  0
   37.7880   33.0000   49.4960 C   0  0  0  0  0  0  0  0  0  0  0  0
   38.5730   32.9780   48.3620 C   0  0  0  0  0  0  0  0  0  0  0  0
   38.7350   31.7860   47.6870 C   0  0  0  0  0  0  0  0  0  0  0  0
   38.1020   30.6630   48.1800 N   0  0  0  0  0  0  0  0  0  0  0  0
   37.3580   30.7580   49.2840 C   0  0  0  0  0  0  0  0  0  0  0  0
   37.1890   31.8970   49.9490 N   0  0  0  0  0  0  0  0  0  0  0  0
   37.6950   33.9720   49.9910 H   0  0  0  0  0  0  0  0  0  0  0  0
   39.0840   33.8500   47.9510 H   0  0  0  0  0  0  0  0  0  0  0  0
   36.6940   29.5520   49.7840 C   0  0  0  0  0  0  0  0  0  0  0  0
   37.1810   28.7890   50.6410 O   0  0  0  0  0  0  0  0  0  0  0  0
   35.3670   29.2040   49.2510 C   0  0  0  0  0  0  0  0  0  0  0  0
   34.6190   30.0520   48.4380 C   0  0  0  0  0  0  0  0  0  0  0  0
   34.8770   31.0390   48.0890 H   0  0  0  0  0  0  0  0  0  0  0  0
   33.4790   29.3530   48.1770 N   0  0  0  0  0  0  0  0  0  0  0  0
   32.7390   29.7820   47.5730 H   0  0  0  0  0  0  0  0  0  0  0  0
   33.4870   28.1460   48.7730 C   0  0  0  0  0  0  0  0  0  0  0  0
   32.6890   27.4200   48.7060 H   0  0  0  0  0  0  0  0  0  0  0  0
   34.6620   28.0800   49.4290 N   0  0  0  0  0  0  0  0  0  0  0  0
  1 21  1  0  0  0  0
  2  3  1  0  0  0  0
  3  9  1  1  0  0  0
  3  1  1  0  0  0  0
  4  3  1  0  0  0  0
  4 11  1  0  0  0  0
  5  4  1  0  0  0  0
  5 12  1  0  0  0  0
  6  7  1  0  0  0  0
  6  5  1  0  0  0  0
  7 15  1  6  0  0  0
  7  2  1  0  0  0  0
  7 16  1  0  0  0  0
  8  2  1  0  0  0  0
 10  4  1  0  0  0  0
 13  6  1  0  0  0  0
 14  6  1  0  0  0  0
 17 16  1  0  0  0  0
 18 16  1  0  0  0  0
 19 24  1  0  0  0  0
 19 25  1  0  0  0  0
 20 19  2  0  0  0  0
 21 22  2  0  0  0  0
 21 20  1  0  0  0  0
 22 23  1  0  0  0  0
 23 27  1  0  0  0  0
 23 24  2  0  0  0  0
 26 20  1  0  0  0  0
 27 28  2  0  0  0  0
 29 36  1  0  0  0  0
 29 27  1  0  0  0  0
 30 29  2  0  0  0  0
 31 30  1  0  0  0  0
 32 30  1  0  0  0  0
 32 34  1  0  0  0  0
 33 32  1  0  0  0  0
 34 36  2  0  0  0  0
 35 34  1  0  0  0  0
M  END
>  <minimizedAffinity>
-6.10133934

>  <minimizedRMSD>
2.5856092

$$$$
