
 OpenBabel03272507123D

 39 43  0  0  0  0  0  0  0  0999 V2000
   35.7660   29.1950   49.8520 C   0  0  0  0  0  0  0  0  0  0  0  0
   34.7060   29.6970   50.5510 C   0  0  0  0  0  0  0  0  0  0  0  0
   33.5510   29.0930   50.0400 C   0  0  0  0  0  0  0  0  0  0  0  0
   33.9980   28.2420   49.0370 C   0  0  0  0  0  0  0  0  0  0  0  0
   35.2950   28.3520   48.9820 O   0  0  0  0  0  0  0  0  0  0  0  0
   34.7070   30.4330   51.3660 H   0  0  0  0  0  0  0  0  0  0  0  0
   32.5580   29.3150   50.4200 H   0  0  0  0  0  0  0  0  0  0  0  0
   33.5370   26.4520   47.3640 C   0  0  0  0  0  0  0  0  0  0  0  0
   33.0980   27.4110   48.2380 C   0  0  0  0  0  0  0  0  0  0  0  0
   31.7410   27.6560   48.4170 C   0  0  0  0  0  0  0  0  0  0  0  0
   30.8330   26.9020   47.6850 C   0  0  0  0  0  0  0  0  0  0  0  0
   29.4960   26.9170   47.6510 N   0  0  0  0  0  0  0  0  0  0  0  0
   29.1080   25.9860   46.7710 N   0  0  0  0  0  0  0  0  0  0  0  0
   30.2100   25.3900   46.2580 C   0  0  0  0  0  0  0  0  0  0  0  0
   31.3250   25.9510   46.8200 C   0  0  0  0  0  0  0  0  0  0  0  0
   32.6710   25.6950   46.6310 C   0  0  0  0  0  0  0  0  0  0  0  0
   34.6010   26.2980   47.2590 H   0  0  0  0  0  0  0  0  0  0  0  0
   31.3080   28.4040   49.0970 H   0  0  0  0  0  0  0  0  0  0  0  0
   28.8470   27.5350   48.2010 H   0  0  0  0  0  0  0  0  0  0  0  0
   30.1720   24.6030   45.5250 H   0  0  0  0  0  0  0  0  0  0  0  0
   32.9950   24.9330   45.9360 H   0  0  0  0  0  0  0  0  0  0  0  0
   37.1300   29.6130   50.1290 C   0  0  0  0  0  0  0  0  0  0  0  0
   37.7460   29.0880   51.0760 O   0  0  0  0  0  0  0  0  0  0  0  0
   37.6960   30.6330   49.2700 C   0  0  0  0  0  0  0  0  0  0  0  0
   37.6830   31.9410   49.7450 C   0  0  0  0  0  0  0  0  0  0  0  0
   38.2180   32.9610   48.9510 C   0  0  0  0  0  0  0  0  0  0  0  0
   38.7300   32.5930   47.7340 N   0  0  0  0  0  0  0  0  0  0  0  0
   38.7340   31.3340   47.2960 C   0  0  0  0  0  0  0  0  0  0  0  0
   38.2160   30.3630   48.0690 N   0  0  0  0  0  0  0  0  0  0  0  0
   37.2910   32.2760   50.6950 H   0  0  0  0  0  0  0  0  0  0  0  0
   38.2300   33.9870   49.2770 H   0  0  0  0  0  0  0  0  0  0  0  0
   39.2820   30.9600   45.9960 C   0  0  0  0  0  0  0  0  0  0  0  0
   40.5730   31.2710   45.5940 C   0  0  0  0  0  0  0  0  0  0  0  0
   41.3200   31.8070   46.1530 H   0  0  0  0  0  0  0  0  0  0  0  0
   40.7140   30.7640   44.3410 N   0  0  0  0  0  0  0  0  0  0  0  0
   41.5820   30.8240   43.7370 H   0  0  0  0  0  0  0  0  0  0  0  0
   39.5650   30.1480   43.9460 C   0  0  0  0  0  0  0  0  0  0  0  0
   39.4030   29.6580   42.9890 H   0  0  0  0  0  0  0  0  0  0  0  0
   38.6950   30.2780   44.9740 N   0  0  0  0  0  0  0  0  0  0  0  0
  1 22  1  0  0  0  0
  1  2  2  0  0  0  0
  2  6  1  0  0  0  0
  3  7  1  0  0  0  0
  3  2  1  0  0  0  0
  4  3  2  0  0  0  0
  5  4  1  0  0  0  0
  5  1  1  0  0  0  0
  8  9  1  0  0  0  0
  9 10  2  0  0  0  0
  9  4  1  0  0  0  0
 10 18  1  0  0  0  0
 11 10  1  0  0  0  0
 12 11  1  0  0  0  0
 12 19  1  0  0  0  0
 13 12  1  0  0  0  0
 14 13  2  0  0  0  0
 14 15  1  0  0  0  0
 15 11  2  0  0  0  0
 16 15  1  0  0  0  0
 16  8  2  0  0  0  0
 17  8  1  0  0  0  0
 20 14  1  0  0  0  0
 21 16  1  0  0  0  0
 22 23  2  0  0  0  0
 24 25  1  0  0  0  0
 24 22  1  0  0  0  0
 25 30  1  0  0  0  0
 26 31  1  0  0  0  0
 26 25  2  0  0  0  0
 27 26  1  0  0  0  0
 28 27  2  0  0  0  0
 28 29  1  0  0  0  0
 29 24  2  0  0  0  0
 32 28  1  0  0  0  0
 33 32  2  0  0  0  0
 33 34  1  0  0  0  0
 35 33  1  0  0  0  0
 36 35  1  0  0  0  0
 37 35  1  0  0  0  0
 37 39  2  0  0  0  0
 38 37  1  0  0  0  0
 39 32  1  0  0  0  0
M  END
>  <minimizedAffinity>
-6.89319324

>  <minimizedRMSD>
0.519595981

$$$$
