
 OpenBabel03272507113D

 39 43  0  0  0  0  0  0  0  0999 V2000
   35.8330   29.1720   49.8250 C   0  0  0  0  0  0  0  0  0  0  0  0
   34.7870   29.6750   50.5440 C   0  0  0  0  0  0  0  0  0  0  0  0
   33.6200   29.0880   50.0400 C   0  0  0  0  0  0  0  0  0  0  0  0
   34.0460   28.2460   49.0210 C   0  0  0  0  0  0  0  0  0  0  0  0
   35.3430   28.3450   48.9510 O   0  0  0  0  0  0  0  0  0  0  0  0
   34.8050   30.4000   51.3680 H   0  0  0  0  0  0  0  0  0  0  0  0
   32.6340   29.3150   50.4350 H   0  0  0  0  0  0  0  0  0  0  0  0
   33.5470   26.5000   47.3140 C   0  0  0  0  0  0  0  0  0  0  0  0
   33.1280   27.4340   48.2230 C   0  0  0  0  0  0  0  0  0  0  0  0
   31.7750   27.6700   48.4430 C   0  0  0  0  0  0  0  0  0  0  0  0
   30.8520   26.9320   47.7140 C   0  0  0  0  0  0  0  0  0  0  0  0
   29.5140   26.9450   47.7130 N   0  0  0  0  0  0  0  0  0  0  0  0
   29.1060   26.0360   46.8190 N   0  0  0  0  0  0  0  0  0  0  0  0
   30.1960   25.4570   46.2630 C   0  0  0  0  0  0  0  0  0  0  0  0
   31.3240   26.0060   46.8120 C   0  0  0  0  0  0  0  0  0  0  0  0
   32.6650   25.7590   46.5820 C   0  0  0  0  0  0  0  0  0  0  0  0
   34.6090   26.3520   47.1770 H   0  0  0  0  0  0  0  0  0  0  0  0
   31.3580   28.3980   49.1520 H   0  0  0  0  0  0  0  0  0  0  0  0
   28.8770   27.5460   48.2950 H   0  0  0  0  0  0  0  0  0  0  0  0
   30.1410   24.6890   45.5110 H   0  0  0  0  0  0  0  0  0  0  0  0
   32.9740   25.0170   45.8590 H   0  0  0  0  0  0  0  0  0  0  0  0
   37.2040   29.5730   50.0900 C   0  0  0  0  0  0  0  0  0  0  0  0
   37.8480   28.9870   50.9810 O   0  0  0  0  0  0  0  0  0  0  0  0
   37.7440   30.6520   49.2860 C   0  0  0  0  0  0  0  0  0  0  0  0
   37.7140   31.9300   49.8370 C   0  0  0  0  0  0  0  0  0  0  0  0
   38.2240   33.0030   49.0980 C   0  0  0  0  0  0  0  0  0  0  0  0
   38.7290   32.7150   47.8580 N   0  0  0  0  0  0  0  0  0  0  0  0
   38.7490   31.4840   47.3470 C   0  0  0  0  0  0  0  0  0  0  0  0
   38.2560   30.4610   48.0670 N   0  0  0  0  0  0  0  0  0  0  0  0
   37.3270   32.2020   50.8090 H   0  0  0  0  0  0  0  0  0  0  0  0
   38.2220   34.0080   49.4830 H   0  0  0  0  0  0  0  0  0  0  0  0
   39.2910   31.1950   46.0220 C   0  0  0  0  0  0  0  0  0  0  0  0
   40.4080   31.8300   45.4990 C   0  0  0  0  0  0  0  0  0  0  0  0
   41.0080   32.5900   45.9690 H   0  0  0  0  0  0  0  0  0  0  0  0
   40.6020   31.3020   44.2620 N   0  0  0  0  0  0  0  0  0  0  0  0
   41.3720   31.5640   43.5850 H   0  0  0  0  0  0  0  0  0  0  0  0
   39.6510   30.3640   43.9920 C   0  0  0  0  0  0  0  0  0  0  0  0
   39.5700   29.7860   43.0750 H   0  0  0  0  0  0  0  0  0  0  0  0
   38.8540   30.3100   45.0840 N   0  0  0  0  0  0  0  0  0  0  0  0
  1 22  1  0  0  0  0
  1  2  2  0  0  0  0
  2  6  1  0  0  0  0
  3  7  1  0  0  0  0
  3  2  1  0  0  0  0
  4  3  2  0  0  0  0
  5  4  1  0  0  0  0
  5  1  1  0  0  0  0
  8  9  1  0  0  0  0
  9 10  2  0  0  0  0
  9  4  1  0  0  0  0
 10 18  1  0  0  0  0
 11 10  1  0  0  0  0
 12 11  1  0  0  0  0
 12 19  1  0  0  0  0
 13 12  1  0  0  0  0
 14 15  1  0  0  0  0
 14 13  2  0  0  0  0
 15 11  2  0  0  0  0
 16 15  1  0  0  0  0
 16  8  2  0  0  0  0
 17  8  1  0  0  0  0
 20 14  1  0  0  0  0
 21 16  1  0  0  0  0
 22 23  2  0  0  0  0
 24 25  1  0  0  0  0
 24 22  1  0  0  0  0
 25 30  1  0  0  0  0
 26 31  1  0  0  0  0
 26 25  2  0  0  0  0
 27 26  1  0  0  0  0
 28 27  2  0  0  0  0
 28 29  1  0  0  0  0
 29 24  2  0  0  0  0
 32 28  1  0  0  0  0
 33 34  1  0  0  0  0
 33 32  2  0  0  0  0
 35 33  1  0  0  0  0
 36 35  1  0  0  0  0
 37 35  1  0  0  0  0
 37 39  2  0  0  0  0
 38 37  1  0  0  0  0
 39 32  1  0  0  0  0
M  END
>  <minimizedAffinity>
-6.75600481

>  <minimizedRMSD>
0.490587473

$$$$
