
 OpenBabel03272506153D

 23 24  0  0  0  0  0  0  0  0999 V2000
   38.5390   25.2830   35.5360 C   0  0  0  0  0  0  0  0  0  0  0  0
   37.8850   25.0590   34.3090 C   0  0  0  0  0  0  0  0  0  0  0  0
   37.2760   26.1500   33.7110 C   0  0  0  0  0  0  0  0  0  0  0  0
   37.3240   27.3670   34.3040 N   0  0  0  0  0  0  0  0  0  0  0  0
   37.9730   27.5420   35.5000 C   0  0  0  0  0  0  0  0  0  0  0  0
   38.5820   26.5030   36.1210 N   0  0  0  0  0  0  0  0  0  0  0  0
   37.9000   24.0730   33.9240 H   0  0  0  0  0  0  0  0  0  0  0  0
   37.9890   28.5290   35.9410 H   0  0  0  0  0  0  0  0  0  0  0  0
   36.5900   25.9500   32.4380 C   0  0  0  0  0  0  0  0  0  0  0  0
   36.3200   26.9020   31.4760 C   0  0  0  0  0  0  0  0  0  0  0  0
   36.5680   27.9610   31.4970 H   0  0  0  0  0  0  0  0  0  0  0  0
   35.6650   26.2750   30.4550 N   0  0  0  0  0  0  0  0  0  0  0  0
   35.3510   26.7960   29.6000 H   0  0  0  0  0  0  0  0  0  0  0  0
   35.5380   24.9580   30.7920 C   0  0  0  0  0  0  0  0  0  0  0  0
   35.0520   24.2180   30.1580 H   0  0  0  0  0  0  0  0  0  0  0  0
   36.1140   24.7780   32.0170 N   0  0  0  0  0  0  0  0  0  0  0  0
   39.1990   24.2960   36.2670 O   0  0  0  0  0  0  0  0  0  0  0  0
   37.8090   24.3930   38.5580 O   0  0  0  0  0  0  0  0  0  0  0  0
   38.4520   23.4600   37.5510 P   0  0  0  0  0  0  0  0  0  0  0  0
   37.2890   22.4440   36.8300 O   0  0  0  0  0  0  0  0  0  0  0  0
   37.6790   21.5630   36.5990 H   0  0  0  0  0  0  0  0  0  0  0  0
   39.5880   22.5430   38.3990 O   0  0  0  0  0  0  0  0  0  0  0  0
   40.3620   22.4120   37.7900 H   0  0  0  0  0  0  0  0  0  0  0  0
  1  6  1  0  0  0  0
  1 17  1  0  0  0  0
  2  1  2  0  0  0  0
  3  4  2  0  0  0  0
  3  2  1  0  0  0  0
  4  5  1  0  0  0  0
  5  8  1  0  0  0  0
  5  6  2  0  0  0  0
  7  2  1  0  0  0  0
  9  3  1  0  0  0  0
 10 11  1  0  0  0  0
 10  9  2  0  0  0  0
 12 14  1  0  0  0  0
 12 10  1  0  0  0  0
 13 12  1  0  0  0  0
 14 16  2  0  0  0  0
 15 14  1  0  0  0  0
 16  9  1  0  0  0  0
 17 19  1  0  0  0  0
 19 22  1  0  0  0  0
 19 18  2  0  0  0  0
 20 19  1  0  0  0  0
 21 20  1  0  0  0  0
 23 22  1  0  0  0  0
M  END
>  <minimizedAffinity>
-4.99762678

$$$$

 OpenBabel03272506153D

 23 24  0  0  0  0  0  0  0  0999 V2000
   38.4730   23.8210   34.9930 C   0  0  0  0  0  0  0  0  0  0  0  0
   37.8780   24.7480   34.1150 C   0  0  0  0  0  0  0  0  0  0  0  0
   37.3960   24.2590   32.9130 C   0  0  0  0  0  0  0  0  0  0  0  0
   37.5070   22.9400   32.6210 N   0  0  0  0  0  0  0  0  0  0  0  0
   38.0930   22.0710   33.5050 C   0  0  0  0  0  0  0  0  0  0  0  0
   38.5780   22.5060   34.6930 N   0  0  0  0  0  0  0  0  0  0  0  0
   37.8380   25.7580   34.4300 H   0  0  0  0  0  0  0  0  0  0  0  0
   38.1620   21.0260   33.2350 H   0  0  0  0  0  0  0  0  0  0  0  0
   36.7730   25.1940   31.9810 C   0  0  0  0  0  0  0  0  0  0  0  0
   35.7990   24.9170   31.0440 C   0  0  0  0  0  0  0  0  0  0  0  0
   35.3270   23.9590   30.8360 H   0  0  0  0  0  0  0  0  0  0  0  0
   35.5130   26.0850   30.3960 N   0  0  0  0  0  0  0  0  0  0  0  0
   34.7950   26.1280   29.6320 H   0  0  0  0  0  0  0  0  0  0  0  0
   36.3040   27.0600   30.9330 C   0  0  0  0  0  0  0  0  0  0  0  0
   36.2860   28.0980   30.6040 H   0  0  0  0  0  0  0  0  0  0  0  0
   37.0730   26.4920   31.9070 N   0  0  0  0  0  0  0  0  0  0  0  0
   39.0060   24.1490   36.2390 O   0  0  0  0  0  0  0  0  0  0  0  0
   37.9990   24.5400   38.6930 O   0  0  0  0  0  0  0  0  0  0  0  0
   38.4100   23.4810   37.6890 P   0  0  0  0  0  0  0  0  0  0  0  0
   37.0800   22.5120   37.2440 O   0  0  0  0  0  0  0  0  0  0  0  0
   37.3660   21.5860   37.0380 H   0  0  0  0  0  0  0  0  0  0  0  0
   39.5970   22.5410   38.4390 O   0  0  0  0  0  0  0  0  0  0  0  0
   40.2550   22.2990   37.7350 H   0  0  0  0  0  0  0  0  0  0  0  0
  1 17  1  0  0  0  0
  2  7  1  0  0  0  0
  2  1  2  0  0  0  0
  3  2  1  0  0  0  0
  4  3  2  0  0  0  0
  4  5  1  0  0  0  0
  5  6  2  0  0  0  0
  6  1  1  0  0  0  0
  8  5  1  0  0  0  0
  9  3  1  0  0  0  0
 10  9  2  0  0  0  0
 11 10  1  0  0  0  0
 12 14  1  0  0  0  0
 12 10  1  0  0  0  0
 13 12  1  0  0  0  0
 14 16  2  0  0  0  0
 15 14  1  0  0  0  0
 16  9  1  0  0  0  0
 17 19  1  0  0  0  0
 19 22  1  0  0  0  0
 19 18  2  0  0  0  0
 20 19  1  0  0  0  0
 21 20  1  0  0  0  0
 23 22  1  0  0  0  0
M  END
>  <minimizedAffinity>
-4.74836397

$$$$

 OpenBabel03272506153D

 23 24  0  0  0  0  0  0  0  0999 V2000
   37.4190   26.0030   33.8240 C   0  0  0  0  0  0  0  0  0  0  0  0
   37.9320   24.9280   34.5770 C   0  0  0  0  0  0  0  0  0  0  0  0
   38.4090   25.2160   35.8440 C   0  0  0  0  0  0  0  0  0  0  0  0
   38.3710   26.4860   36.3140 N   0  0  0  0  0  0  0  0  0  0  0  0
   37.8620   27.5050   35.5480 C   0  0  0  0  0  0  0  0  0  0  0  0
   37.3850   27.2690   34.3030 N   0  0  0  0  0  0  0  0  0  0  0  0
   37.9200   23.9710   34.1240 H   0  0  0  0  0  0  0  0  0  0  0  0
   37.8500   28.5040   35.9600 H   0  0  0  0  0  0  0  0  0  0  0  0
   38.9460   24.1230   36.6480 C   0  0  0  0  0  0  0  0  0  0  0  0
   38.4590   23.6510   37.8500 C   0  0  0  0  0  0  0  0  0  0  0  0
   37.5940   24.0080   38.4050 H   0  0  0  0  0  0  0  0  0  0  0  0
   39.2680   22.6240   38.2430 N   0  0  0  0  0  0  0  0  0  0  0  0
   39.0990   22.1000   39.1360 H   0  0  0  0  0  0  0  0  0  0  0  0
   40.2360   22.4730   37.2920 C   0  0  0  0  0  0  0  0  0  0  0  0
   41.0240   21.7230   37.3480 H   0  0  0  0  0  0  0  0  0  0  0  0
   40.0210   23.4050   36.3190 N   0  0  0  0  0  0  0  0  0  0  0  0
   36.9010   25.8850   32.5350 O   0  0  0  0  0  0  0  0  0  0  0  0
   37.9590   27.9330   31.1640 O   0  0  0  0  0  0  0  0  0  0  0  0
   36.6610   27.2350   31.5230 P   0  0  0  0  0  0  0  0  0  0  0  0
   35.8830   26.6390   30.1280 O   0  0  0  0  0  0  0  0  0  0  0  0
   34.8980   26.6550   30.2350 H   0  0  0  0  0  0  0  0  0  0  0  0
   35.6910   28.3850   32.2910 O   0  0  0  0  0  0  0  0  0  0  0  0
   35.1960   27.9070   33.0070 H   0  0  0  0  0  0  0  0  0  0  0  0
  1  6  2  0  0  0  0
  1  2  1  0  0  0  0
  2  3  2  0  0  0  0
  3  4  1  0  0  0  0
  3  9  1  0  0  0  0
  5  8  1  0  0  0  0
  5  4  2  0  0  0  0
  6  5  1  0  0  0  0
  7  2  1  0  0  0  0
  9 10  2  0  0  0  0
 10 12  1  0  0  0  0
 10 11  1  0  0  0  0
 12 13  1  0  0  0  0
 14 15  1  0  0  0  0
 14 12  1  0  0  0  0
 16  9  1  0  0  0  0
 16 14  2  0  0  0  0
 17  1  1  0  0  0  0
 18 19  2  0  0  0  0
 19 22  1  0  0  0  0
 19 17  1  0  0  0  0
 20 21  1  0  0  0  0
 20 19  1  0  0  0  0
 22 23  1  0  0  0  0
M  END
>  <minimizedAffinity>
-4.68726349

$$$$

 OpenBabel03272506153D

 23 24  0  0  0  0  0  0  0  0999 V2000
   38.0450   25.4650   33.2850 C   0  0  0  0  0  0  0  0  0  0  0  0
   37.9880   24.9210   34.5830 C   0  0  0  0  0  0  0  0  0  0  0  0
   39.1480   24.3530   35.0810 C   0  0  0  0  0  0  0  0  0  0  0  0
   40.2750   24.3360   34.3280 N   0  0  0  0  0  0  0  0  0  0  0  0
   40.2880   24.8780   33.0680 C   0  0  0  0  0  0  0  0  0  0  0  0
   39.1760   25.4430   32.5410 N   0  0  0  0  0  0  0  0  0  0  0  0
   37.0620   24.9800   35.0930 H   0  0  0  0  0  0  0  0  0  0  0  0
   41.2080   24.8440   32.5000 H   0  0  0  0  0  0  0  0  0  0  0  0
   39.1210   23.7810   36.4230 C   0  0  0  0  0  0  0  0  0  0  0  0
   39.9240   22.7750   36.9200 C   0  0  0  0  0  0  0  0  0  0  0  0
   40.7130   22.2340   36.4020 H   0  0  0  0  0  0  0  0  0  0  0  0
   39.5530   22.5600   38.2160 N   0  0  0  0  0  0  0  0  0  0  0  0
   40.0240   21.8340   38.8100 H   0  0  0  0  0  0  0  0  0  0  0  0
   38.5370   23.4250   38.5050 C   0  0  0  0  0  0  0  0  0  0  0  0
   38.0450   23.4730   39.4750 H   0  0  0  0  0  0  0  0  0  0  0  0
   38.2850   24.1680   37.3880 N   0  0  0  0  0  0  0  0  0  0  0  0
   36.9690   26.0710   32.6380 O   0  0  0  0  0  0  0  0  0  0  0  0
   35.0970   24.5570   31.4580 O   0  0  0  0  0  0  0  0  0  0  0  0
   36.2990   25.4440   31.2010 P   0  0  0  0  0  0  0  0  0  0  0  0
   35.8690   26.7980   30.2590 O   0  0  0  0  0  0  0  0  0  0  0  0
   36.6220   27.0830   29.6800 H   0  0  0  0  0  0  0  0  0  0  0  0
   37.4340   24.4960   30.3850 O   0  0  0  0  0  0  0  0  0  0  0  0
   38.3280   24.7700   30.7190 H   0  0  0  0  0  0  0  0  0  0  0  0
  1  2  1  0  0  0  0
  2  3  2  0  0  0  0
  2  7  1  0  0  0  0
  3  9  1  0  0  0  0
  4  3  1  0  0  0  0
  5  4  2  0  0  0  0
  6  5  1  0  0  0  0
  6  1  2  0  0  0  0
  8  5  1  0  0  0  0
  9 10  2  0  0  0  0
  9 16  1  0  0  0  0
 10 12  1  0  0  0  0
 11 10  1  0  0  0  0
 12 14  1  0  0  0  0
 12 13  1  0  0  0  0
 14 15  1  0  0  0  0
 16 14  2  0  0  0  0
 17  1  1  0  0  0  0
 19 18  2  0  0  0  0
 19 17  1  0  0  0  0
 20 19  1  0  0  0  0
 21 20  1  0  0  0  0
 22 23  1  0  0  0  0
 22 19  1  0  0  0  0
M  END
>  <minimizedAffinity>
-4.61340141

$$$$

 OpenBabel03272506153D

 23 24  0  0  0  0  0  0  0  0999 V2000
   38.4760   24.6600   35.1730 C   0  0  0  0  0  0  0  0  0  0  0  0
   37.9050   25.9310   34.9620 C   0  0  0  0  0  0  0  0  0  0  0  0
   37.2560   26.1390   33.7560 C   0  0  0  0  0  0  0  0  0  0  0  0
   37.1900   25.1440   32.8390 N   0  0  0  0  0  0  0  0  0  0  0  0
   37.7580   23.9200   33.0840 C   0  0  0  0  0  0  0  0  0  0  0  0
   38.4030   23.6730   34.2500 N   0  0  0  0  0  0  0  0  0  0  0  0
   38.0100   26.6440   35.7370 H   0  0  0  0  0  0  0  0  0  0  0  0
   37.6830   23.1530   32.3260 H   0  0  0  0  0  0  0  0  0  0  0  0
   36.6550   27.4450   33.5080 C   0  0  0  0  0  0  0  0  0  0  0  0
   36.3460   28.0050   32.2850 C   0  0  0  0  0  0  0  0  0  0  0  0
   36.4970   27.5740   31.2970 H   0  0  0  0  0  0  0  0  0  0  0  0
   35.8010   29.2330   32.5240 N   0  0  0  0  0  0  0  0  0  0  0  0
   35.4840   29.8570   31.7420 H   0  0  0  0  0  0  0  0  0  0  0  0
   35.7780   29.4190   33.8770 C   0  0  0  0  0  0  0  0  0  0  0  0
   35.3930   30.3190   34.3550 H   0  0  0  0  0  0  0  0  0  0  0  0
   36.3080   28.3070   34.4650 N   0  0  0  0  0  0  0  0  0  0  0  0
   39.1610   24.2880   36.3280 O   0  0  0  0  0  0  0  0  0  0  0  0
   37.7740   24.3830   38.6210 O   0  0  0  0  0  0  0  0  0  0  0  0
   38.4060   23.4500   37.6060 P   0  0  0  0  0  0  0  0  0  0  0  0
   37.2320   22.4520   36.8790 O   0  0  0  0  0  0  0  0  0  0  0  0
   37.6120   21.5680   36.6410 H   0  0  0  0  0  0  0  0  0  0  0  0
   39.5340   22.5150   38.4470 O   0  0  0  0  0  0  0  0  0  0  0  0
   40.3050   22.3810   37.8360 H   0  0  0  0  0  0  0  0  0  0  0  0
  1 17  1  0  0  0  0
  2  1  1  0  0  0  0
  2  7  1  0  0  0  0
  3  2  2  0  0  0  0
  4  5  2  0  0  0  0
  4  3  1  0  0  0  0
  5  6  1  0  0  0  0
  6  1  2  0  0  0  0
  8  5  1  0  0  0  0
  9  3  1  0  0  0  0
  9 16  1  0  0  0  0
 10 12  1  0  0  0  0
 10  9  2  0  0  0  0
 11 10  1  0  0  0  0
 12 14  1  0  0  0  0
 13 12  1  0  0  0  0
 14 15  1  0  0  0  0
 14 16  2  0  0  0  0
 17 19  1  0  0  0  0
 19 22  1  0  0  0  0
 19 18  2  0  0  0  0
 20 19  1  0  0  0  0
 21 20  1  0  0  0  0
 23 22  1  0  0  0  0
M  END
>  <minimizedAffinity>
-4.52431774

$$$$

 OpenBabel03272506153D

 23 24  0  0  0  0  0  0  0  0999 V2000
   38.5010   25.1600   33.1290 C   0  0  0  0  0  0  0  0  0  0  0  0
   38.8010   24.4120   34.2850 C   0  0  0  0  0  0  0  0  0  0  0  0
   38.2850   24.8710   35.4850 C   0  0  0  0  0  0  0  0  0  0  0  0
   37.5280   25.9940   35.5160 N   0  0  0  0  0  0  0  0  0  0  0  0
   37.2590   26.6930   34.3660 C   0  0  0  0  0  0  0  0  0  0  0  0
   37.7430   26.2810   33.1700 N   0  0  0  0  0  0  0  0  0  0  0  0
   39.4010   23.5490   34.1610 H   0  0  0  0  0  0  0  0  0  0  0  0
   36.6500   27.5840   34.4330 H   0  0  0  0  0  0  0  0  0  0  0  0
   38.5780   24.1180   36.7000 C   0  0  0  0  0  0  0  0  0  0  0  0
   39.4750   23.0790   36.8440 C   0  0  0  0  0  0  0  0  0  0  0  0
   40.1180   22.6420   36.0820 H   0  0  0  0  0  0  0  0  0  0  0  0
   39.4250   22.6740   38.1470 N   0  0  0  0  0  0  0  0  0  0  0  0
   40.0230   21.8890   38.5030 H   0  0  0  0  0  0  0  0  0  0  0  0
   38.5080   23.4570   38.7880 C   0  0  0  0  0  0  0  0  0  0  0  0
   38.2610   23.3540   39.8440 H   0  0  0  0  0  0  0  0  0  0  0  0
   37.9980   24.3390   37.8800 N   0  0  0  0  0  0  0  0  0  0  0  0
   38.9400   24.8360   31.8470 O   0  0  0  0  0  0  0  0  0  0  0  0
   37.3870   22.8430   30.9480 O   0  0  0  0  0  0  0  0  0  0  0  0
   37.8870   24.2430   30.6450 P   0  0  0  0  0  0  0  0  0  0  0  0
   36.5940   25.3500   30.5710 O   0  0  0  0  0  0  0  0  0  0  0  0
   36.7830   26.0760   29.9230 H   0  0  0  0  0  0  0  0  0  0  0  0
   38.6770   24.1610   29.1550 O   0  0  0  0  0  0  0  0  0  0  0  0
   39.4550   24.7760   29.2100 H   0  0  0  0  0  0  0  0  0  0  0  0
  1  6  2  0  0  0  0
  1  2  1  0  0  0  0
  2  3  2  0  0  0  0
  3  4  1  0  0  0  0
  3  9  1  0  0  0  0
  5  8  1  0  0  0  0
  5  4  2  0  0  0  0
  6  5  1  0  0  0  0
  7  2  1  0  0  0  0
  9 10  2  0  0  0  0
  9 16  1  0  0  0  0
 10 12  1  0  0  0  0
 11 10  1  0  0  0  0
 12 13  1  0  0  0  0
 12 14  1  0  0  0  0
 14 15  1  0  0  0  0
 16 14  2  0  0  0  0
 17  1  1  0  0  0  0
 19 18  2  0  0  0  0
 19 17  1  0  0  0  0
 20 19  1  0  0  0  0
 21 20  1  0  0  0  0
 22 23  1  0  0  0  0
 22 19  1  0  0  0  0
M  END
>  <minimizedAffinity>
-4.46169853

$$$$

 OpenBabel03272506153D

 23 24  0  0  0  0  0  0  0  0999 V2000
   37.5630   25.1890   33.3670 C   0  0  0  0  0  0  0  0  0  0  0  0
   37.9780   24.9590   34.6940 C   0  0  0  0  0  0  0  0  0  0  0  0
   38.1890   23.6430   35.0690 C   0  0  0  0  0  0  0  0  0  0  0  0
   37.9960   22.6410   34.1770 N   0  0  0  0  0  0  0  0  0  0  0  0
   37.5920   22.9090   32.8940 C   0  0  0  0  0  0  0  0  0  0  0  0
   37.3730   24.1810   32.4830 N   0  0  0  0  0  0  0  0  0  0  0  0
   38.1010   25.8060   35.3160 H   0  0  0  0  0  0  0  0  0  0  0  0
   37.4500   22.0810   32.2140 H   0  0  0  0  0  0  0  0  0  0  0  0
   38.6200   23.3730   36.4370 C   0  0  0  0  0  0  0  0  0  0  0  0
   39.7120   22.6300   36.8380 C   0  0  0  0  0  0  0  0  0  0  0  0
   40.4390   22.1190   36.2090 H   0  0  0  0  0  0  0  0  0  0  0  0
   39.7340   22.6410   38.2030 N   0  0  0  0  0  0  0  0  0  0  0  0
   40.4780   22.1390   38.7460 H   0  0  0  0  0  0  0  0  0  0  0  0
   38.6680   23.3810   38.6270 C   0  0  0  0  0  0  0  0  0  0  0  0
   38.4380   23.5590   39.6770 H   0  0  0  0  0  0  0  0  0  0  0  0
   37.9950   23.8230   37.5250 N   0  0  0  0  0  0  0  0  0  0  0  0
   37.3070   26.4500   32.8300 O   0  0  0  0  0  0  0  0  0  0  0  0
   36.1510   28.0930   31.0540 O   0  0  0  0  0  0  0  0  0  0  0  0
   36.5810   26.6600   31.3020 P   0  0  0  0  0  0  0  0  0  0  0  0
   37.7450   26.1650   30.1610 O   0  0  0  0  0  0  0  0  0  0  0  0
   37.6660   25.1960   29.9680 H   0  0  0  0  0  0  0  0  0  0  0  0
   35.1900   25.7100   31.1740 O   0  0  0  0  0  0  0  0  0  0  0  0
   35.2710   24.9920   31.8550 H   0  0  0  0  0  0  0  0  0  0  0  0
  1  2  1  0  0  0  0
  2  3  2  0  0  0  0
  2  7  1  0  0  0  0
  3  9  1  0  0  0  0
  4  3  1  0  0  0  0
  5  4  2  0  0  0  0
  6  5  1  0  0  0  0
  6  1  2  0  0  0  0
  8  5  1  0  0  0  0
  9 10  2  0  0  0  0
  9 16  1  0  0  0  0
 10 12  1  0  0  0  0
 11 10  1  0  0  0  0
 12 14  1  0  0  0  0
 12 13  1  0  0  0  0
 14 15  1  0  0  0  0
 16 14  2  0  0  0  0
 17  1  1  0  0  0  0
 18 19  2  0  0  0  0
 19 17  1  0  0  0  0
 20 19  1  0  0  0  0
 21 20  1  0  0  0  0
 22 19  1  0  0  0  0
 22 23  1  0  0  0  0
M  END
>  <minimizedAffinity>
-4.46090794

$$$$

 OpenBabel03272506153D

 23 24  0  0  0  0  0  0  0  0999 V2000
   37.8880   24.7600   33.1890 C   0  0  0  0  0  0  0  0  0  0  0  0
   38.4550   23.9970   34.2290 C   0  0  0  0  0  0  0  0  0  0  0  0
   38.3740   24.5180   35.5090 C   0  0  0  0  0  0  0  0  0  0  0  0
   37.7710   25.7130   35.7220 N   0  0  0  0  0  0  0  0  0  0  0  0
   37.2310   26.4240   34.6810 C   0  0  0  0  0  0  0  0  0  0  0  0
   37.2870   25.9530   33.4120 N   0  0  0  0  0  0  0  0  0  0  0  0
   38.9050   23.0760   33.9640 H   0  0  0  0  0  0  0  0  0  0  0  0
   36.7580   27.3730   34.8920 H   0  0  0  0  0  0  0  0  0  0  0  0
   38.9510   23.7510   36.6080 C   0  0  0  0  0  0  0  0  0  0  0  0
   38.4050   23.5390   37.8580 C   0  0  0  0  0  0  0  0  0  0  0  0
   37.4550   23.9050   38.2410 H   0  0  0  0  0  0  0  0  0  0  0  0
   39.2840   22.7670   38.5620 N   0  0  0  0  0  0  0  0  0  0  0  0
   39.0880   22.4710   39.5490 H   0  0  0  0  0  0  0  0  0  0  0  0
   40.3520   22.5120   37.7500 C   0  0  0  0  0  0  0  0  0  0  0  0
   41.2110   21.9150   38.0550 H   0  0  0  0  0  0  0  0  0  0  0  0
   40.1280   23.1260   36.5520 N   0  0  0  0  0  0  0  0  0  0  0  0
   37.8840   24.3810   31.8480 O   0  0  0  0  0  0  0  0  0  0  0  0
   39.8770   25.9500   30.9770 O   0  0  0  0  0  0  0  0  0  0  0  0
   38.5200   25.3750   30.6170 P   0  0  0  0  0  0  0  0  0  0  0  0
   38.6220   24.3910   29.2300 O   0  0  0  0  0  0  0  0  0  0  0  0
   37.7830   24.4280   28.7040 H   0  0  0  0  0  0  0  0  0  0  0  0
   37.4990   26.6900   30.3320 O   0  0  0  0  0  0  0  0  0  0  0  0
   36.6040   26.4370   30.6820 H   0  0  0  0  0  0  0  0  0  0  0  0
  1  6  2  0  0  0  0
  1  2  1  0  0  0  0
  2  3  2  0  0  0  0
  3  4  1  0  0  0  0
  3  9  1  0  0  0  0
  5  8  1  0  0  0  0
  5  4  2  0  0  0  0
  6  5  1  0  0  0  0
  7  2  1  0  0  0  0
  9 10  2  0  0  0  0
 10 11  1  0  0  0  0
 10 12  1  0  0  0  0
 12 13  1  0  0  0  0
 14 15  1  0  0  0  0
 14 12  1  0  0  0  0
 16  9  1  0  0  0  0
 16 14  2  0  0  0  0
 17  1  1  0  0  0  0
 19 18  2  0  0  0  0
 19 17  1  0  0  0  0
 20 19  1  0  0  0  0
 21 20  1  0  0  0  0
 22 19  1  0  0  0  0
 22 23  1  0  0  0  0
M  END
>  <minimizedAffinity>
-4.44252729

$$$$

 OpenBabel03272506153D

 23 24  0  0  0  0  0  0  0  0999 V2000
   37.7890   21.7790   32.9360 C   0  0  0  0  0  0  0  0  0  0  0  0
   37.9820   21.7860   34.3320 C   0  0  0  0  0  0  0  0  0  0  0  0
   38.2790   23.0030   34.9210 C   0  0  0  0  0  0  0  0  0  0  0  0
   38.3740   24.1220   34.1620 N   0  0  0  0  0  0  0  0  0  0  0  0
   38.1790   24.0710   32.8060 C   0  0  0  0  0  0  0  0  0  0  0  0
   37.8860   22.9020   32.1870 N   0  0  0  0  0  0  0  0  0  0  0  0
   37.8870   20.8620   34.8390 H   0  0  0  0  0  0  0  0  0  0  0  0
   38.2640   24.9860   32.2360 H   0  0  0  0  0  0  0  0  0  0  0  0
   38.4830   23.0440   36.3660 C   0  0  0  0  0  0  0  0  0  0  0  0
   39.6130   22.6650   37.0610 C   0  0  0  0  0  0  0  0  0  0  0  0
   40.5440   22.2710   36.6580 H   0  0  0  0  0  0  0  0  0  0  0  0
   39.3640   22.8710   38.3880 N   0  0  0  0  0  0  0  0  0  0  0  0
   40.0810   22.6550   39.1220 H   0  0  0  0  0  0  0  0  0  0  0  0
   38.0980   23.3700   38.4980 C   0  0  0  0  0  0  0  0  0  0  0  0
   37.6330   23.6280   39.4480 H   0  0  0  0  0  0  0  0  0  0  0  0
   37.5720   23.4680   37.2420 N   0  0  0  0  0  0  0  0  0  0  0  0
   37.4850   20.6410   32.1900 O   0  0  0  0  0  0  0  0  0  0  0  0
   34.9750   19.9450   32.8300 O   0  0  0  0  0  0  0  0  0  0  0  0
   35.8990   20.2860   31.6760 P   0  0  0  0  0  0  0  0  0  0  0  0
   35.3560   21.6730   30.8480 O   0  0  0  0  0  0  0  0  0  0  0  0
   35.5850   21.6250   29.8850 H   0  0  0  0  0  0  0  0  0  0  0  0
   35.8970   18.9470   30.6460 O   0  0  0  0  0  0  0  0  0  0  0  0
   36.8210   18.8600   30.2910 H   0  0  0  0  0  0  0  0  0  0  0  0
  1  2  1  0  0  0  0
  2  7  1  0  0  0  0
  2  3  2  0  0  0  0
  3  9  1  0  0  0  0
  4  3  1  0  0  0  0
  5  4  2  0  0  0  0
  6  5  1  0  0  0  0
  6  1  2  0  0  0  0
  8  5  1  0  0  0  0
  9 10  2  0  0  0  0
  9 16  1  0  0  0  0
 10 12  1  0  0  0  0
 11 10  1  0  0  0  0
 12 14  1  0  0  0  0
 12 13  1  0  0  0  0
 14 15  1  0  0  0  0
 16 14  2  0  0  0  0
 17  1  1  0  0  0  0
 19 17  1  0  0  0  0
 19 18  2  0  0  0  0
 20 19  1  0  0  0  0
 21 20  1  0  0  0  0
 22 19  1  0  0  0  0
 23 22  1  0  0  0  0
M  END
>  <minimizedAffinity>
-4.32864428

$$$$
