
 OpenBabel03272510073D

 43 47  0  0  0  0  0  0  0  0999 V2000
   34.9510   30.1890   47.6710 C   0  0  0  0  0  0  0  0  0  0  0  0
   34.8030   30.3750   49.0100 N   0  0  0  0  0  0  0  0  0  0  0  0
   35.8430   30.8120   49.7360 C   0  0  0  0  0  0  0  0  0  0  0  0
   37.0750   31.0940   49.2320 N   0  0  0  0  0  0  0  0  0  0  0  0
   37.2600   30.9210   47.9070 C   0  0  0  0  0  0  0  0  0  0  0  0
   38.4630   31.2110   47.2860 C   0  0  0  0  0  0  0  0  0  0  0  0
   38.6070   31.0540   45.9090 C   0  0  0  0  0  0  0  0  0  0  0  0
   37.5220   30.5970   45.1600 C   0  0  0  0  0  0  0  0  0  0  0  0
   36.3370   30.3160   45.8130 C   0  0  0  0  0  0  0  0  0  0  0  0
   36.1910   30.4710   47.1600 C   0  0  0  0  0  0  0  0  0  0  0  0
   35.7520   30.9700   50.8090 H   0  0  0  0  0  0  0  0  0  0  0  0
   39.2510   31.5580   47.9390 H   0  0  0  0  0  0  0  0  0  0  0  0
   39.5770   31.3120   45.5570 H   0  0  0  0  0  0  0  0  0  0  0  0
   37.8280   30.5430   44.1360 H   0  0  0  0  0  0  0  0  0  0  0  0
   33.3870   28.4310   46.6990 C   0  0  0  0  0  0  0  0  0  0  0  0
   33.7860   29.7540   46.9830 C   0  0  0  0  0  0  0  0  0  0  0  0
   32.9560   30.8260   46.5320 C   0  0  0  0  0  0  0  0  0  0  0  0
   31.8210   30.5450   45.8440 N   0  0  0  0  0  0  0  0  0  0  0  0
   31.4930   29.2410   45.5990 C   0  0  0  0  0  0  0  0  0  0  0  0
   32.2480   28.2150   46.0120 N   0  0  0  0  0  0  0  0  0  0  0  0
   30.2850   28.9990   44.8420 N   0  0  0  0  0  0  0  0  0  0  0  0
   28.9710   29.3860   45.2750 C   0  0  0  0  0  0  0  0  0  0  0  0
   28.1000   29.1780   44.0740 C   0  0  0  0  0  0  0  0  0  0  0  0
   29.0240   28.8800   42.9050 C   0  0  0  0  0  0  0  0  0  0  0  0
   30.2360   28.3290   43.5300 C   0  0  0  0  0  0  0  0  0  0  0  0
   34.0530   27.6790   47.0700 H   0  0  0  0  0  0  0  0  0  0  0  0
   33.1730   31.8520   46.7020 H   0  0  0  0  0  0  0  0  0  0  0  0
   28.9010   30.4430   45.6130 H   0  0  0  0  0  0  0  0  0  0  0  0
   28.6600   28.7440   46.1440 H   0  0  0  0  0  0  0  0  0  0  0  0
   27.5100   30.1010   43.8730 H   0  0  0  0  0  0  0  0  0  0  0  0
   27.3940   28.3660   44.2850 H   0  0  0  0  0  0  0  0  0  0  0  0
   28.4630   28.1670   42.2340 H   0  0  0  0  0  0  0  0  0  0  0  0
   29.1760   29.7940   42.3150 H   0  0  0  0  0  0  0  0  0  0  0  0
   30.2100   27.2410   43.6670 H   0  0  0  0  0  0  0  0  0  0  0  0
   31.1440   28.6020   42.9180 H   0  0  0  0  0  0  0  0  0  0  0  0
   35.4440   29.8810   44.7390 C   0  0  0  0  0  0  0  0  0  0  0  0
   35.1350   28.6740   44.1450 C   0  0  0  0  0  0  0  0  0  0  0  0
   35.5650   27.7470   44.5250 H   0  0  0  0  0  0  0  0  0  0  0  0
   34.3220   28.7590   43.0930 N   0  0  0  0  0  0  0  0  0  0  0  0
   33.9890   27.9480   42.5320 H   0  0  0  0  0  0  0  0  0  0  0  0
   34.1000   30.0760   43.0110 C   0  0  0  0  0  0  0  0  0  0  0  0
   33.4640   30.5400   42.2510 H   0  0  0  0  0  0  0  0  0  0  0  0
   34.7420   30.7700   43.9580 N   0  0  0  0  0  0  0  0  0  0  0  0
  1  2  1  0  0  0  0
  2  3  2  0  0  0  0
  3 11  1  0  0  0  0
  4  3  1  0  0  0  0
  5  4  2  0  0  0  0
  6  5  1  0  0  0  0
  6 12  1  0  0  0  0
  7  6  2  0  0  0  0
  8  9  2  0  0  0  0
  8  7  1  0  0  0  0
  9 10  1  0  0  0  0
 10  1  2  0  0  0  0
 10  5  1  0  0  0  0
 13  7  1  0  0  0  0
 14  8  1  0  0  0  0
 15 16  1  0  0  0  0
 15 26  1  0  0  0  0
 16  1  1  0  0  0  0
 17 27  1  0  0  0  0
 17 16  2  0  0  0  0
 18 17  1  0  0  0  0
 19 18  2  0  0  0  0
 19 20  1  0  0  0  0
 20 15  2  0  0  0  0
 21 22  1  0  0  0  0
 21 19  1  0  0  0  0
 22 28  1  0  0  0  0
 22 29  1  0  0  0  0
 23 31  1  0  0  0  0
 23 22  1  0  0  0  0
 24 25  1  0  0  0  0
 24 23  1  0  0  0  0
 25 34  1  0  0  0  0
 25 21  1  0  0  0  0
 30 23  1  0  0  0  0
 32 24  1  0  0  0  0
 33 24  1  0  0  0  0
 35 25  1  0  0  0  0
 36  9  1  0  0  0  0
 37 38  1  0  0  0  0
 37 36  2  0  0  0  0
 39 37  1  0  0  0  0
 40 39  1  0  0  0  0
 41 39  1  0  0  0  0
 41 43  2  0  0  0  0
 42 41  1  0  0  0  0
 43 36  1  0  0  0  0
M  END
>  <minimizedAffinity>
-4.85385704

>  <minimizedRMSD>
3.43357086

$$$$
