
 OpenBabel03272509363D

 46 50  0  0  1  0  0  0  0  0999 V2000
   36.4730   28.7880   33.5710 C   0  0  1  0  0  0  0  0  0  0  0  0
   35.6530   29.7120   32.7470 C   0  0  0  0  0  0  0  0  0  0  0  0
   34.9330   29.0940   33.8420 C   0  0  2  0  0  0  0  0  0  0  0  0
   37.1160   29.0890   34.3870 H   0  0  0  0  0  0  0  0  0  0  0  0
   35.3870   29.3070   31.7220 H   0  0  0  0  0  0  0  0  0  0  0  0
   36.1480   30.6680   32.6500 H   0  0  0  0  0  0  0  0  0  0  0  0
   34.4230   28.1430   33.9250 H   0  0  0  0  0  0  0  0  0  0  0  0
   34.6370   30.0960   34.9220 C   0  0  0  0  0  0  0  0  0  0  0  0
   35.7790   30.8260   35.2400 C   0  0  0  0  0  0  0  0  0  0  0  0
   35.7080   31.8680   36.1270 C   0  0  0  0  0  0  0  0  0  0  0  0
   34.4930   32.2200   36.7300 C   0  0  0  0  0  0  0  0  0  0  0  0
   33.3710   31.4750   36.3920 C   0  0  0  0  0  0  0  0  0  0  0  0
   32.1320   31.7140   36.9190 C   0  0  0  0  0  0  0  0  0  0  0  0
   31.0180   30.9810   36.6030 C   0  0  0  0  0  0  0  0  0  0  0  0
   31.1510   29.9350   35.6990 C   0  0  0  0  0  0  0  0  0  0  0  0
   32.3950   29.6890   35.1640 C   0  0  0  0  0  0  0  0  0  0  0  0
   33.4910   30.4580   35.5130 C   0  0  0  0  0  0  0  0  0  0  0  0
   36.8110   30.8200   34.9540 H   0  0  0  0  0  0  0  0  0  0  0  0
   36.4730   32.5360   36.4930 H   0  0  0  0  0  0  0  0  0  0  0  0
   34.2920   33.0170   37.4450 H   0  0  0  0  0  0  0  0  0  0  0  0
   31.9830   32.5170   37.6260 H   0  0  0  0  0  0  0  0  0  0  0  0
   30.0460   31.1700   37.0180 H   0  0  0  0  0  0  0  0  0  0  0  0
   30.3250   29.3080   35.3960 H   0  0  0  0  0  0  0  0  0  0  0  0
   32.4850   28.8550   34.4460 H   0  0  0  0  0  0  0  0  0  0  0  0
   36.4480   25.7650   31.3140 C   0  0  0  0  0  0  0  0  0  0  0  0
   36.2490   27.0930   31.7880 C   0  0  0  0  0  0  0  0  0  0  0  0
   36.6750   27.4130   33.0440 C   0  0  0  0  0  0  0  0  0  0  0  0
   37.2770   26.4000   33.7630 N   0  0  0  0  0  0  0  0  0  0  0  0
   37.4560   25.1610   33.3060 C   0  0  0  0  0  0  0  0  0  0  0  0
   37.0480   24.8170   32.0770 N   0  0  0  0  0  0  0  0  0  0  0  0
   36.0970   25.5460   30.3130 H   0  0  0  0  0  0  0  0  0  0  0  0
   35.7610   27.7950   31.1170 H   0  0  0  0  0  0  0  0  0  0  0  0
   38.1300   24.1670   34.2290 C   0  0  0  0  0  0  0  0  0  0  0  0
   37.4150   23.3060   34.2860 H   0  0  0  0  0  0  0  0  0  0  0  0
   39.1220   23.8970   33.8650 H   0  0  0  0  0  0  0  0  0  0  0  0
   38.1590   24.8040   35.6210 C   0  0  0  0  0  0  0  0  0  0  0  0
   38.6840   25.7770   35.5400 H   0  0  0  0  0  0  0  0  0  0  0  0
   37.0850   25.0080   35.8640 H   0  0  0  0  0  0  0  0  0  0  0  0
   38.7730   23.9190   36.6180 C   0  0  0  0  0  0  0  0  0  0  0  0
   38.2850   23.5560   37.8770 C   0  0  0  0  0  0  0  0  0  0  0  0
   37.3600   23.8760   38.3240 H   0  0  0  0  0  0  0  0  0  0  0  0
   39.2270   22.7360   38.3710 N   0  0  0  0  0  0  0  0  0  0  0  0
   39.0970   22.3120   39.3350 H   0  0  0  0  0  0  0  0  0  0  0  0
   40.2590   22.5530   37.5380 C   0  0  0  0  0  0  0  0  0  0  0  0
   41.1270   21.9310   37.7370 H   0  0  0  0  0  0  0  0  0  0  0  0
   39.9480   23.2930   36.4700 N   0  0  0  0  0  0  0  0  0  0  0  0
  1  3  1  0  0  0  0
  1  4  1  1  0  0  0
  2  1  1  0  0  0  0
  2  3  1  0  0  0  0
  3  7  1  6  0  0  0
  3  8  1  0  0  0  0
  5  2  1  0  0  0  0
  6  2  1  0  0  0  0
  8  9  2  0  0  0  0
  8 17  1  0  0  0  0
  9 10  1  0  0  0  0
 10 19  1  0  0  0  0
 10 11  2  0  0  0  0
 11 20  1  0  0  0  0
 12 11  1  0  0  0  0
 12 13  1  0  0  0  0
 13 21  1  0  0  0  0
 14 13  2  0  0  0  0
 14 22  1  0  0  0  0
 15 14  1  0  0  0  0
 16 17  1  0  0  0  0
 16 15  2  0  0  0  0
 17 12  2  0  0  0  0
 18  9  1  0  0  0  0
 23 15  1  0  0  0  0
 24 16  1  0  0  0  0
 25 26  2  0  0  0  0
 25 30  1  0  0  0  0
 26 27  1  0  0  0  0
 27  1  1  0  0  0  0
 27 28  2  0  0  0  0
 29 28  1  0  0  0  0
 29 33  1  0  0  0  0
 30 29  2  0  0  0  0
 31 25  1  0  0  0  0
 32 26  1  0  0  0  0
 33 34  1  0  0  0  0
 33 36  1  0  0  0  0
 35 33  1  0  0  0  0
 36 38  1  0  0  0  0
 36 39  1  0  0  0  0
 37 36  1  0  0  0  0
 39 40  2  0  0  0  0
 40 41  1  0  0  0  0
 40 42  1  0  0  0  0
 42 43  1  0  0  0  0
 44 45  1  0  0  0  0
 44 42  1  0  0  0  0
 46 39  1  0  0  0  0
 46 44  2  0  0  0  0
M  END
>  <minimizedAffinity>
-6.69365597

$$$$

 OpenBabel03272509363D

 46 50  0  0  1  0  0  0  0  0999 V2000
   40.2740   26.7740   34.7990 C   0  0  1  0  0  0  0  0  0  0  0  0
   38.8790   26.9790   35.2650 C   0  0  0  0  0  0  0  0  0  0  0  0
   39.1790   25.6190   34.8680 C   0  0  2  0  0  0  0  0  0  0  0  0
   41.1240   26.5930   35.4430 H   0  0  0  0  0  0  0  0  0  0  0  0
   38.2250   27.5490   34.5360 H   0  0  0  0  0  0  0  0  0  0  0  0
   38.8740   27.4710   36.2290 H   0  0  0  0  0  0  0  0  0  0  0  0
   39.1630   25.1290   33.9030 H   0  0  0  0  0  0  0  0  0  0  0  0
   39.2470   24.7120   36.0640 C   0  0  0  0  0  0  0  0  0  0  0  0
   38.1830   24.9600   36.9280 C   0  0  0  0  0  0  0  0  0  0  0  0
   37.9910   24.1710   38.0320 C   0  0  0  0  0  0  0  0  0  0  0  0
   38.8550   23.1050   38.3140 C   0  0  0  0  0  0  0  0  0  0  0  0
   39.9060   22.8810   37.4350 C   0  0  0  0  0  0  0  0  0  0  0  0
   40.8200   21.8800   37.6070 C   0  0  0  0  0  0  0  0  0  0  0  0
   41.8690   21.6530   36.7530 C   0  0  0  0  0  0  0  0  0  0  0  0
   42.0140   22.4860   35.6510 C   0  0  0  0  0  0  0  0  0  0  0  0
   41.0960   23.4960   35.4710 C   0  0  0  0  0  0  0  0  0  0  0  0
   40.0540   23.6850   36.3610 C   0  0  0  0  0  0  0  0  0  0  0  0
   37.3720   25.6570   36.9820 H   0  0  0  0  0  0  0  0  0  0  0  0
   37.2370   24.2100   38.8030 H   0  0  0  0  0  0  0  0  0  0  0  0
   38.8230   22.4030   39.1470 H   0  0  0  0  0  0  0  0  0  0  0  0
   40.7460   21.2080   38.4500 H   0  0  0  0  0  0  0  0  0  0  0  0
   42.5860   20.8660   36.8900 H   0  0  0  0  0  0  0  0  0  0  0  0
   42.8100   22.3780   34.9300 H   0  0  0  0  0  0  0  0  0  0  0  0
   41.2240   24.1500   34.5910 H   0  0  0  0  0  0  0  0  0  0  0  0
   42.1030   27.8980   31.6960 C   0  0  0  0  0  0  0  0  0  0  0  0
   41.8440   27.5260   33.0470 C   0  0  0  0  0  0  0  0  0  0  0  0
   40.5780   27.1590   33.3960 C   0  0  0  0  0  0  0  0  0  0  0  0
   39.6340   27.1790   32.3880 N   0  0  0  0  0  0  0  0  0  0  0  0
   39.8910   27.5310   31.1280 C   0  0  0  0  0  0  0  0  0  0  0  0
   41.1250   27.8960   30.7560 N   0  0  0  0  0  0  0  0  0  0  0  0
   43.1190   28.1840   31.4550 H   0  0  0  0  0  0  0  0  0  0  0  0
   42.6800   27.5530   33.7410 H   0  0  0  0  0  0  0  0  0  0  0  0
   38.7380   27.5030   30.1470 C   0  0  0  0  0  0  0  0  0  0  0  0
   38.8230   28.4690   29.5860 H   0  0  0  0  0  0  0  0  0  0  0  0
   38.7770   26.6170   29.5130 H   0  0  0  0  0  0  0  0  0  0  0  0
   37.4510   27.5890   30.9730 C   0  0  0  0  0  0  0  0  0  0  0  0
   37.7240   27.9200   31.9950 H   0  0  0  0  0  0  0  0  0  0  0  0
   36.8570   28.4060   30.4900 H   0  0  0  0  0  0  0  0  0  0  0  0
   36.7130   26.3210   30.9730 C   0  0  0  0  0  0  0  0  0  0  0  0
   37.2200   25.0180   30.9310 C   0  0  0  0  0  0  0  0  0  0  0  0
   38.2560   24.7350   30.8900 H   0  0  0  0  0  0  0  0  0  0  0  0
   36.1260   24.2400   30.9530 N   0  0  0  0  0  0  0  0  0  0  0  0
   36.2360   23.1840   30.9280 H   0  0  0  0  0  0  0  0  0  0  0  0
   34.9830   24.9330   31.0050 C   0  0  0  0  0  0  0  0  0  0  0  0
   33.9850   24.5040   31.0300 H   0  0  0  0  0  0  0  0  0  0  0  0
   35.3790   26.2090   31.0160 N   0  0  0  0  0  0  0  0  0  0  0  0
  1  3  1  0  0  0  0
  1  2  1  0  0  0  0
  1  4  1  1  0  0  0
  2  6  1  0  0  0  0
  3  7  1  6  0  0  0
  3  2  1  0  0  0  0
  3  8  1  0  0  0  0
  5  2  1  0  0  0  0
  8 17  2  0  0  0  0
  8  9  1  0  0  0  0
  9 18  1  0  0  0  0
  9 10  2  0  0  0  0
 10 11  1  0  0  0  0
 10 19  1  0  0  0  0
 11 20  1  0  0  0  0
 12 13  1  0  0  0  0
 12 11  2  0  0  0  0
 13 21  1  0  0  0  0
 14 22  1  0  0  0  0
 14 13  2  0  0  0  0
 15 14  1  0  0  0  0
 16 15  2  0  0  0  0
 16 17  1  0  0  0  0
 17 12  1  0  0  0  0
 23 15  1  0  0  0  0
 24 16  1  0  0  0  0
 25 26  1  0  0  0  0
 26 27  2  0  0  0  0
 26 32  1  0  0  0  0
 27  1  1  0  0  0  0
 28 27  1  0  0  0  0
 29 28  2  0  0  0  0
 30 29  1  0  0  0  0
 30 25  2  0  0  0  0
 31 25  1  0  0  0  0
 33 36  1  0  0  0  0
 33 29  1  0  0  0  0
 34 33  1  0  0  0  0
 35 33  1  0  0  0  0
 36 37  1  0  0  0  0
 38 36  1  0  0  0  0
 39 36  1  0  0  0  0
 39 46  1  0  0  0  0
 40 42  1  0  0  0  0
 40 39  2  0  0  0  0
 41 40  1  0  0  0  0
 42 44  1  0  0  0  0
 43 42  1  0  0  0  0
 44 46  2  0  0  0  0
 44 45  1  0  0  0  0
M  END
>  <minimizedAffinity>
-6.36054373

$$$$

 OpenBabel03272509363D

 46 50  0  0  1  0  0  0  0  0999 V2000
   36.9390   24.4200   31.4850 C   0  0  1  0  0  0  0  0  0  0  0  0
   38.1150   24.2640   30.5920 C   0  0  0  0  0  0  0  0  0  0  0  0
   38.0900   23.3420   31.7090 C   0  0  2  0  0  0  0  0  0  0  0  0
   35.9680   23.9760   31.3160 H   0  0  0  0  0  0  0  0  0  0  0  0
   38.8820   25.0930   30.6830 H   0  0  0  0  0  0  0  0  0  0  0  0
   37.7950   24.1680   29.5630 H   0  0  0  0  0  0  0  0  0  0  0  0
   38.4310   23.4380   32.7320 H   0  0  0  0  0  0  0  0  0  0  0  0
   37.7880   21.9450   31.2450 C   0  0  0  0  0  0  0  0  0  0  0  0
   38.5300   21.6340   30.1090 C   0  0  0  0  0  0  0  0  0  0  0  0
   38.4890   20.3710   29.5800 C   0  0  0  0  0  0  0  0  0  0  0  0
   37.7040   19.3700   30.1670 C   0  0  0  0  0  0  0  0  0  0  0  0
   36.9770   19.7070   31.3010 C   0  0  0  0  0  0  0  0  0  0  0  0
   36.1680   18.8230   31.9580 C   0  0  0  0  0  0  0  0  0  0  0  0
   35.4360   19.1440   33.0710 C   0  0  0  0  0  0  0  0  0  0  0  0
   35.5170   20.4420   33.5610 C   0  0  0  0  0  0  0  0  0  0  0  0
   36.3290   21.3380   32.9050 C   0  0  0  0  0  0  0  0  0  0  0  0
   37.0500   20.9660   31.7840 C   0  0  0  0  0  0  0  0  0  0  0  0
   39.2100   22.1470   29.4600 H   0  0  0  0  0  0  0  0  0  0  0  0
   38.9850   19.9500   28.7180 H   0  0  0  0  0  0  0  0  0  0  0  0
   37.5780   18.3330   29.8580 H   0  0  0  0  0  0  0  0  0  0  0  0
   36.0750   17.8030   31.6120 H   0  0  0  0  0  0  0  0  0  0  0  0
   34.8020   18.4490   33.5860 H   0  0  0  0  0  0  0  0  0  0  0  0
   34.9740   20.7790   34.4310 H   0  0  0  0  0  0  0  0  0  0  0  0
   36.3830   22.3650   33.3060 H   0  0  0  0  0  0  0  0  0  0  0  0
   36.5800   27.7650   33.1930 C   0  0  0  0  0  0  0  0  0  0  0  0
   36.4970   26.7410   32.2060 C   0  0  0  0  0  0  0  0  0  0  0  0
   37.0020   25.5080   32.4960 C   0  0  0  0  0  0  0  0  0  0  0  0
   37.5610   25.3530   33.7490 N   0  0  0  0  0  0  0  0  0  0  0  0
   37.6320   26.3220   34.6620 C   0  0  0  0  0  0  0  0  0  0  0  0
   37.1450   27.5440   34.4060 N   0  0  0  0  0  0  0  0  0  0  0  0
   36.1700   28.7320   32.9280 H   0  0  0  0  0  0  0  0  0  0  0  0
   36.0310   26.9970   31.2590 H   0  0  0  0  0  0  0  0  0  0  0  0
   38.2840   25.9850   35.9870 C   0  0  0  0  0  0  0  0  0  0  0  0
   39.3490   25.7550   35.7250 H   0  0  0  0  0  0  0  0  0  0  0  0
   38.1700   26.7990   36.7040 H   0  0  0  0  0  0  0  0  0  0  0  0
   37.6590   24.6740   36.4690 C   0  0  0  0  0  0  0  0  0  0  0  0
   36.8740   24.9240   37.2110 H   0  0  0  0  0  0  0  0  0  0  0  0
   37.1570   24.2480   35.5630 H   0  0  0  0  0  0  0  0  0  0  0  0
   38.6640   23.7500   37.0060 C   0  0  0  0  0  0  0  0  0  0  0  0
   38.7980   23.2750   38.3150 C   0  0  0  0  0  0  0  0  0  0  0  0
   38.1700   23.5180   39.1530 H   0  0  0  0  0  0  0  0  0  0  0  0
   39.8700   22.4680   38.2630 N   0  0  0  0  0  0  0  0  0  0  0  0
   40.1930   21.9710   39.1430 H   0  0  0  0  0  0  0  0  0  0  0  0
   40.4190   22.3950   37.0440 C   0  0  0  0  0  0  0  0  0  0  0  0
   41.2910   21.8030   36.7800 H   0  0  0  0  0  0  0  0  0  0  0  0
   39.6540   23.1940   36.2960 N   0  0  0  0  0  0  0  0  0  0  0  0
  1  4  1  6  0  0  0
  1  3  1  0  0  0  0
  1 27  1  0  0  0  0
  2  5  1  0  0  0  0
  2  1  1  0  0  0  0
  2  3  1  0  0  0  0
  3  7  1  1  0  0  0
  6  2  1  0  0  0  0
  8  3  1  0  0  0  0
  8 17  1  0  0  0  0
  9  8  2  0  0  0  0
 10  9  1  0  0  0  0
 10 11  2  0  0  0  0
 11 12  1  0  0  0  0
 12 17  2  0  0  0  0
 12 13  1  0  0  0  0
 13 14  2  0  0  0  0
 14 15  1  0  0  0  0
 14 22  1  0  0  0  0
 15 23  1  0  0  0  0
 16 24  1  0  0  0  0
 16 15  2  0  0  0  0
 17 16  1  0  0  0  0
 18  9  1  0  0  0  0
 19 10  1  0  0  0  0
 20 11  1  0  0  0  0
 21 13  1  0  0  0  0
 25 30  1  0  0  0  0
 26 27  1  0  0  0  0
 26 25  2  0  0  0  0
 27 28  2  0  0  0  0
 28 29  1  0  0  0  0
 29 33  1  0  0  0  0
 30 29  2  0  0  0  0
 31 25  1  0  0  0  0
 32 26  1  0  0  0  0
 33 36  1  0  0  0  0
 33 35  1  0  0  0  0
 34 33  1  0  0  0  0
 36 39  1  0  0  0  0
 36 37  1  0  0  0  0
 38 36  1  0  0  0  0
 39 40  2  0  0  0  0
 40 41  1  0  0  0  0
 42 40  1  0  0  0  0
 42 43  1  0  0  0  0
 44 42  1  0  0  0  0
 45 44  1  0  0  0  0
 46 39  1  0  0  0  0
 46 44  2  0  0  0  0
M  END
>  <minimizedAffinity>
-6.35737085

$$$$

 OpenBabel03272509363D

 46 50  0  0  1  0  0  0  0  0999 V2000
   35.0270   29.7270   33.5430 C   0  0  1  0  0  0  0  0  0  0  0  0
   33.7060   29.3300   32.9930 C   0  0  0  0  0  0  0  0  0  0  0  0
   33.8120   29.2060   34.4330 C   0  0  2  0  0  0  0  0  0  0  0  0
   35.3220   30.7400   33.7780 H   0  0  0  0  0  0  0  0  0  0  0  0
   33.7120   28.3440   32.4340 H   0  0  0  0  0  0  0  0  0  0  0  0
   33.3130   30.1120   32.3580 H   0  0  0  0  0  0  0  0  0  0  0  0
   34.1890   28.4100   35.0620 H   0  0  0  0  0  0  0  0  0  0  0  0
   32.9970   30.2620   35.1240 C   0  0  0  0  0  0  0  0  0  0  0  0
   31.6370   29.9970   34.9920 C   0  0  0  0  0  0  0  0  0  0  0  0
   30.7140   30.7760   35.6380 C   0  0  0  0  0  0  0  0  0  0  0  0
   31.1160   31.8510   36.4420 C   0  0  0  0  0  0  0  0  0  0  0  0
   32.4790   32.0910   36.5570 C   0  0  0  0  0  0  0  0  0  0  0  0
   32.9950   33.1130   37.3030 C   0  0  0  0  0  0  0  0  0  0  0  0
   34.3370   33.3690   37.4180 C   0  0  0  0  0  0  0  0  0  0  0  0
   35.2250   32.5460   36.7380 C   0  0  0  0  0  0  0  0  0  0  0  0
   34.7130   31.5140   35.9850 C   0  0  0  0  0  0  0  0  0  0  0  0
   33.3490   31.2950   35.9010 C   0  0  0  0  0  0  0  0  0  0  0  0
   31.0320   29.2730   34.4850 H   0  0  0  0  0  0  0  0  0  0  0  0
   29.6360   30.7260   35.6540 H   0  0  0  0  0  0  0  0  0  0  0  0
   30.4990   32.5470   37.0090 H   0  0  0  0  0  0  0  0  0  0  0  0
   32.3400   33.7790   37.8480 H   0  0  0  0  0  0  0  0  0  0  0  0
   34.7400   34.1730   38.0040 H   0  0  0  0  0  0  0  0  0  0  0  0
   36.2960   32.6770   36.7730 H   0  0  0  0  0  0  0  0  0  0  0  0
   35.4310   30.8670   35.4510 H   0  0  0  0  0  0  0  0  0  0  0  0
   37.6920   27.4140   32.2080 C   0  0  0  0  0  0  0  0  0  0  0  0
   36.6530   28.3870   32.2530 C   0  0  0  0  0  0  0  0  0  0  0  0
   36.1190   28.7220   33.4630 C   0  0  0  0  0  0  0  0  0  0  0  0
   36.6430   28.0750   34.5640 N   0  0  0  0  0  0  0  0  0  0  0  0
   37.6160   27.1650   34.5060 C   0  0  0  0  0  0  0  0  0  0  0  0
   38.1590   26.8160   33.3330 N   0  0  0  0  0  0  0  0  0  0  0  0
   38.0920   27.1720   31.2310 H   0  0  0  0  0  0  0  0  0  0  0  0
   36.3330   28.8200   31.3100 H   0  0  0  0  0  0  0  0  0  0  0  0
   38.0710   26.5470   35.8120 C   0  0  0  0  0  0  0  0  0  0  0  0
   38.9140   27.2020   36.1530 H   0  0  0  0  0  0  0  0  0  0  0  0
   37.2490   26.4740   36.5240 H   0  0  0  0  0  0  0  0  0  0  0  0
   38.6860   25.1870   35.4680 C   0  0  0  0  0  0  0  0  0  0  0  0
   38.1120   24.7590   34.6220 H   0  0  0  0  0  0  0  0  0  0  0  0
   39.7170   25.4250   35.1030 H   0  0  0  0  0  0  0  0  0  0  0  0
   38.7240   24.2920   36.6300 C   0  0  0  0  0  0  0  0  0  0  0  0
   39.5340   23.1720   36.8390 C   0  0  0  0  0  0  0  0  0  0  0  0
   40.2750   22.7810   36.1640 H   0  0  0  0  0  0  0  0  0  0  0  0
   39.1680   22.7230   38.0500 N   0  0  0  0  0  0  0  0  0  0  0  0
   39.6410   21.8620   38.4530 H   0  0  0  0  0  0  0  0  0  0  0  0
   38.2040   23.4580   38.6180 C   0  0  0  0  0  0  0  0  0  0  0  0
   37.7610   23.2720   39.5920 H   0  0  0  0  0  0  0  0  0  0  0  0
   37.9550   24.4140   37.7190 N   0  0  0  0  0  0  0  0  0  0  0  0
  1  4  1  1  0  0  0
  1  3  1  0  0  0  0
  2  1  1  0  0  0  0
  2  3  1  0  0  0  0
  3  7  1  1  0  0  0
  3  8  1  0  0  0  0
  5  2  1  0  0  0  0
  6  2  1  0  0  0  0
  8 17  1  0  0  0  0
  9  8  2  0  0  0  0
  9 10  1  0  0  0  0
 10 19  1  0  0  0  0
 10 11  2  0  0  0  0
 11 12  1  0  0  0  0
 11 20  1  0  0  0  0
 12 13  1  0  0  0  0
 13 14  2  0  0  0  0
 13 21  1  0  0  0  0
 14 22  1  0  0  0  0
 15 23  1  0  0  0  0
 15 14  1  0  0  0  0
 16 15  2  0  0  0  0
 17 16  1  0  0  0  0
 17 12  2  0  0  0  0
 18  9  1  0  0  0  0
 24 16  1  0  0  0  0
 25 26  2  0  0  0  0
 25 30  1  0  0  0  0
 26 27  1  0  0  0  0
 27  1  1  0  0  0  0
 27 28  2  0  0  0  0
 29 28  1  0  0  0  0
 29 33  1  0  0  0  0
 30 29  2  0  0  0  0
 31 25  1  0  0  0  0
 32 26  1  0  0  0  0
 33 34  1  0  0  0  0
 33 35  1  0  0  0  0
 36 33  1  0  0  0  0
 36 39  1  0  0  0  0
 37 36  1  0  0  0  0
 38 36  1  0  0  0  0
 39 40  2  0  0  0  0
 39 46  1  0  0  0  0
 40 42  1  0  0  0  0
 41 40  1  0  0  0  0
 42 43  1  0  0  0  0
 42 44  1  0  0  0  0
 44 45  1  0  0  0  0
 46 44  2  0  0  0  0
M  END
>  <minimizedAffinity>
-6.31602001

$$$$

 OpenBabel03272509363D

 46 50  0  0  1  0  0  0  0  0999 V2000
   39.0470   26.7530   34.6640 C   0  0  1  0  0  0  0  0  0  0  0  0
   37.6920   26.6300   35.2590 C   0  0  0  0  0  0  0  0  0  0  0  0
   38.2990   25.3650   34.8980 C   0  0  2  0  0  0  0  0  0  0  0  0
   39.9660   26.8400   35.2270 H   0  0  0  0  0  0  0  0  0  0  0  0
   36.8520   26.9610   34.5730 H   0  0  0  0  0  0  0  0  0  0  0  0
   37.6410   27.1720   36.1930 H   0  0  0  0  0  0  0  0  0  0  0  0
   38.3280   24.8190   33.9640 H   0  0  0  0  0  0  0  0  0  0  0  0
   38.7020   24.5940   36.1230 C   0  0  0  0  0  0  0  0  0  0  0  0
   37.8520   24.8860   37.1870 C   0  0  0  0  0  0  0  0  0  0  0  0
   37.9730   24.2120   38.3740 C   0  0  0  0  0  0  0  0  0  0  0  0
   38.9480   23.2200   38.5420 C   0  0  0  0  0  0  0  0  0  0  0  0
   39.7800   22.9490   37.4640 C   0  0  0  0  0  0  0  0  0  0  0  0
   40.7750   22.0120   37.5070 C   0  0  0  0  0  0  0  0  0  0  0  0
   41.6100   21.7410   36.4550 C   0  0  0  0  0  0  0  0  0  0  0  0
   41.4410   22.4580   35.2770 C   0  0  0  0  0  0  0  0  0  0  0  0
   40.4410   23.4030   35.2260 C   0  0  0  0  0  0  0  0  0  0  0  0
   39.6220   23.6410   36.3160 C   0  0  0  0  0  0  0  0  0  0  0  0
   37.0310   25.5490   37.3670 H   0  0  0  0  0  0  0  0  0  0  0  0
   37.4170   24.2990   39.2950 H   0  0  0  0  0  0  0  0  0  0  0  0
   39.1560   22.6090   39.4200 H   0  0  0  0  0  0  0  0  0  0  0  0
   40.9420   21.4310   38.4030 H   0  0  0  0  0  0  0  0  0  0  0  0
   42.3900   21.0050   36.4900 H   0  0  0  0  0  0  0  0  0  0  0  0
   42.0550   22.3090   34.4010 H   0  0  0  0  0  0  0  0  0  0  0  0
   40.3180   23.9650   34.2830 H   0  0  0  0  0  0  0  0  0  0  0  0
   40.3490   27.3660   31.1760 C   0  0  0  0  0  0  0  0  0  0  0  0
   40.3090   27.0180   32.5570 C   0  0  0  0  0  0  0  0  0  0  0  0
   39.1200   27.0990   33.2200 C   0  0  0  0  0  0  0  0  0  0  0  0
   38.0330   27.5200   32.4810 N   0  0  0  0  0  0  0  0  0  0  0  0
   38.0850   27.8430   31.1880 C   0  0  0  0  0  0  0  0  0  0  0  0
   39.2390   27.7740   30.5100 N   0  0  0  0  0  0  0  0  0  0  0  0
   41.3090   27.2900   30.6810 H   0  0  0  0  0  0  0  0  0  0  0  0
   41.2390   26.7010   33.0190 H   0  0  0  0  0  0  0  0  0  0  0  0
   36.7980   28.2920   30.5280 C   0  0  0  0  0  0  0  0  0  0  0  0
   37.0430   28.3340   29.4360 H   0  0  0  0  0  0  0  0  0  0  0  0
   35.9730   27.6220   30.7720 H   0  0  0  0  0  0  0  0  0  0  0  0
   36.5490   29.7340   30.9760 C   0  0  0  0  0  0  0  0  0  0  0  0
   37.3690   30.0230   31.6650 H   0  0  0  0  0  0  0  0  0  0  0  0
   36.6480   30.3440   30.0420 H   0  0  0  0  0  0  0  0  0  0  0  0
   35.2230   29.9000   31.5830 C   0  0  0  0  0  0  0  0  0  0  0  0
   34.2970   30.9280   31.3830 C   0  0  0  0  0  0  0  0  0  0  0  0
   34.4130   31.7800   30.7370 H   0  0  0  0  0  0  0  0  0  0  0  0
   33.2630   30.5970   32.1730 N   0  0  0  0  0  0  0  0  0  0  0  0
   32.4090   31.2260   32.2070 H   0  0  0  0  0  0  0  0  0  0  0  0
   33.4560   29.4570   32.8480 C   0  0  0  0  0  0  0  0  0  0  0  0
   32.7500   29.0070   33.5410 H   0  0  0  0  0  0  0  0  0  0  0  0
   34.6700   29.0550   32.4630 N   0  0  0  0  0  0  0  0  0  0  0  0
  1  3  1  0  0  0  0
  1  4  1  1  0  0  0
  1  2  1  0  0  0  0
  2  6  1  0  0  0  0
  3  7  1  6  0  0  0
  3  2  1  0  0  0  0
  3  8  1  0  0  0  0
  5  2  1  0  0  0  0
  8 17  2  0  0  0  0
  8  9  1  0  0  0  0
  9 18  1  0  0  0  0
  9 10  2  0  0  0  0
 10 11  1  0  0  0  0
 10 19  1  0  0  0  0
 11 20  1  0  0  0  0
 12 13  1  0  0  0  0
 12 11  2  0  0  0  0
 13 21  1  0  0  0  0
 14 22  1  0  0  0  0
 14 13  2  0  0  0  0
 15 14  1  0  0  0  0
 16 15  2  0  0  0  0
 16 17  1  0  0  0  0
 17 12  1  0  0  0  0
 23 15  1  0  0  0  0
 24 16  1  0  0  0  0
 25 26  1  0  0  0  0
 26 32  1  0  0  0  0
 26 27  2  0  0  0  0
 27  1  1  0  0  0  0
 28 27  1  0  0  0  0
 29 28  2  0  0  0  0
 30 25  2  0  0  0  0
 30 29  1  0  0  0  0
 31 25  1  0  0  0  0
 33 35  1  0  0  0  0
 33 36  1  0  0  0  0
 33 29  1  0  0  0  0
 34 33  1  0  0  0  0
 36 39  1  0  0  0  0
 36 37  1  0  0  0  0
 38 36  1  0  0  0  0
 39 46  1  0  0  0  0
 40 39  2  0  0  0  0
 40 42  1  0  0  0  0
 41 40  1  0  0  0  0
 42 43  1  0  0  0  0
 42 44  1  0  0  0  0
 44 45  1  0  0  0  0
 46 44  2  0  0  0  0
M  END
>  <minimizedAffinity>
-6.2635746

$$$$

 OpenBabel03272509363D

 46 50  0  0  1  0  0  0  0  0999 V2000
   40.1370   26.7930   34.6960 C   0  0  1  0  0  0  0  0  0  0  0  0
   38.7390   26.9670   35.1650 C   0  0  0  0  0  0  0  0  0  0  0  0
   39.0740   25.6090   34.7880 C   0  0  2  0  0  0  0  0  0  0  0  0
   40.9940   26.6440   35.3400 H   0  0  0  0  0  0  0  0  0  0  0  0
   38.0670   27.5080   34.4300 H   0  0  0  0  0  0  0  0  0  0  0  0
   38.7240   27.4730   36.1210 H   0  0  0  0  0  0  0  0  0  0  0  0
   39.0670   25.1050   33.8300 H   0  0  0  0  0  0  0  0  0  0  0  0
   39.1700   24.7240   35.9970 C   0  0  0  0  0  0  0  0  0  0  0  0
   38.1220   24.9800   36.8770 C   0  0  0  0  0  0  0  0  0  0  0  0
   37.9560   24.2090   37.9980 C   0  0  0  0  0  0  0  0  0  0  0  0
   38.8320   23.1530   38.2820 C   0  0  0  0  0  0  0  0  0  0  0  0
   39.8660   22.9200   37.3860 C   0  0  0  0  0  0  0  0  0  0  0  0
   40.7900   21.9270   37.5560 C   0  0  0  0  0  0  0  0  0  0  0  0
   41.8230   21.6910   36.6870 C   0  0  0  0  0  0  0  0  0  0  0  0
   41.9410   22.5060   35.5680 C   0  0  0  0  0  0  0  0  0  0  0  0
   41.0150   23.5080   35.3890 C   0  0  0  0  0  0  0  0  0  0  0  0
   39.9890   23.7060   36.2960 C   0  0  0  0  0  0  0  0  0  0  0  0
   37.3080   25.6730   36.9360 H   0  0  0  0  0  0  0  0  0  0  0  0
   37.2170   24.2570   38.7830 H   0  0  0  0  0  0  0  0  0  0  0  0
   38.8200   22.4650   39.1260 H   0  0  0  0  0  0  0  0  0  0  0  0
   40.7360   21.2690   38.4120 H   0  0  0  0  0  0  0  0  0  0  0  0
   42.5470   20.9110   36.8220 H   0  0  0  0  0  0  0  0  0  0  0  0
   42.7240   22.3900   34.8340 H   0  0  0  0  0  0  0  0  0  0  0  0
   41.1220   24.1470   34.4950 H   0  0  0  0  0  0  0  0  0  0  0  0
   41.9400   27.8510   31.5550 C   0  0  0  0  0  0  0  0  0  0  0  0
   41.6960   27.4910   32.9120 C   0  0  0  0  0  0  0  0  0  0  0  0
   40.4260   27.1640   33.2860 C   0  0  0  0  0  0  0  0  0  0  0  0
   39.4640   27.2090   32.2970 N   0  0  0  0  0  0  0  0  0  0  0  0
   39.7070   27.5490   31.0310 C   0  0  0  0  0  0  0  0  0  0  0  0
   40.9440   27.8750   30.6330 N   0  0  0  0  0  0  0  0  0  0  0  0
   42.9590   28.1050   31.2930 H   0  0  0  0  0  0  0  0  0  0  0  0
   42.5450   27.4950   33.5900 H   0  0  0  0  0  0  0  0  0  0  0  0
   38.5350   27.5530   30.0720 C   0  0  0  0  0  0  0  0  0  0  0  0
   38.6430   28.5100   29.5010 H   0  0  0  0  0  0  0  0  0  0  0  0
   38.5320   26.6600   29.4450 H   0  0  0  0  0  0  0  0  0  0  0  0
   37.2680   27.6900   30.9210 C   0  0  0  0  0  0  0  0  0  0  0  0
   36.5970   26.8440   30.6690 H   0  0  0  0  0  0  0  0  0  0  0  0
   37.6160   27.5550   31.9760 H   0  0  0  0  0  0  0  0  0  0  0  0
   36.6200   28.9930   30.7340 C   0  0  0  0  0  0  0  0  0  0  0  0
   36.9330   29.9970   29.8120 C   0  0  0  0  0  0  0  0  0  0  0  0
   37.7180   29.9700   29.0770 H   0  0  0  0  0  0  0  0  0  0  0  0
   36.0410   30.9670   30.0670 N   0  0  0  0  0  0  0  0  0  0  0  0
   36.0620   31.8600   29.4940 H   0  0  0  0  0  0  0  0  0  0  0  0
   35.1990   30.6640   31.0630 C   0  0  0  0  0  0  0  0  0  0  0  0
   34.4020   31.3040   31.4310 H   0  0  0  0  0  0  0  0  0  0  0  0
   35.5820   29.4450   31.4500 N   0  0  0  0  0  0  0  0  0  0  0  0
  1  3  1  0  0  0  0
  1  2  1  0  0  0  0
  1  4  1  1  0  0  0
  2  6  1  0  0  0  0
  3  7  1  6  0  0  0
  3  2  1  0  0  0  0
  3  8  1  0  0  0  0
  5  2  1  0  0  0  0
  8 17  2  0  0  0  0
  8  9  1  0  0  0  0
  9 18  1  0  0  0  0
  9 10  2  0  0  0  0
 10 11  1  0  0  0  0
 10 19  1  0  0  0  0
 11 20  1  0  0  0  0
 12 13  1  0  0  0  0
 12 11  2  0  0  0  0
 13 21  1  0  0  0  0
 14 22  1  0  0  0  0
 14 13  2  0  0  0  0
 15 14  1  0  0  0  0
 16 15  2  0  0  0  0
 16 17  1  0  0  0  0
 17 12  1  0  0  0  0
 23 15  1  0  0  0  0
 24 16  1  0  0  0  0
 25 26  1  0  0  0  0
 26 27  2  0  0  0  0
 26 32  1  0  0  0  0
 27  1  1  0  0  0  0
 28 27  1  0  0  0  0
 29 28  2  0  0  0  0
 30 29  1  0  0  0  0
 30 25  2  0  0  0  0
 31 25  1  0  0  0  0
 33 36  1  0  0  0  0
 33 29  1  0  0  0  0
 34 33  1  0  0  0  0
 35 33  1  0  0  0  0
 36 38  1  0  0  0  0
 37 36  1  0  0  0  0
 39 36  1  0  0  0  0
 39 46  1  0  0  0  0
 40 42  1  0  0  0  0
 40 39  2  0  0  0  0
 41 40  1  0  0  0  0
 42 44  1  0  0  0  0
 43 42  1  0  0  0  0
 44 45  1  0  0  0  0
 44 46  2  0  0  0  0
M  END
>  <minimizedAffinity>
-6.24921227

$$$$

 OpenBabel03272509363D

 46 50  0  0  1  0  0  0  0  0999 V2000
   35.0240   30.5190   34.2520 C   0  0  1  0  0  0  0  0  0  0  0  0
   34.0370   30.2990   35.3390 C   0  0  0  0  0  0  0  0  0  0  0  0
   35.2630   30.9410   35.7700 C   0  0  2  0  0  0  0  0  0  0  0  0
   35.0220   31.3610   33.5730 H   0  0  0  0  0  0  0  0  0  0  0  0
   33.9330   29.2180   35.6610 H   0  0  0  0  0  0  0  0  0  0  0  0
   33.0710   30.6940   35.0550 H   0  0  0  0  0  0  0  0  0  0  0  0
   36.2200   30.5360   36.0720 H   0  0  0  0  0  0  0  0  0  0  0  0
   35.0250   32.3860   36.1010 C   0  0  0  0  0  0  0  0  0  0  0  0
   33.8640   32.5320   36.8570 C   0  0  0  0  0  0  0  0  0  0  0  0
   33.5150   33.7580   37.3590 C   0  0  0  0  0  0  0  0  0  0  0  0
   34.3140   34.8850   37.1270 C   0  0  0  0  0  0  0  0  0  0  0  0
   35.4660   34.7100   36.3720 C   0  0  0  0  0  0  0  0  0  0  0  0
   36.3200   35.7330   36.0690 C   0  0  0  0  0  0  0  0  0  0  0  0
   37.4550   35.5780   35.3160 C   0  0  0  0  0  0  0  0  0  0  0  0
   37.7570   34.3110   34.8320 C   0  0  0  0  0  0  0  0  0  0  0  0
   36.9020   33.2760   35.1340 C   0  0  0  0  0  0  0  0  0  0  0  0
   35.7670   33.4830   35.8980 C   0  0  0  0  0  0  0  0  0  0  0  0
   33.0820   31.8920   37.2100 H   0  0  0  0  0  0  0  0  0  0  0  0
   32.6670   34.0600   37.9550 H   0  0  0  0  0  0  0  0  0  0  0  0
   34.1600   35.9100   37.4620 H   0  0  0  0  0  0  0  0  0  0  0  0
   36.1250   36.7340   36.4240 H   0  0  0  0  0  0  0  0  0  0  0  0
   38.1250   36.3820   35.0790 H   0  0  0  0  0  0  0  0  0  0  0  0
   38.6300   34.1010   34.2320 H   0  0  0  0  0  0  0  0  0  0  0  0
   37.1540   32.2750   34.7420 H   0  0  0  0  0  0  0  0  0  0  0  0
   36.8060   27.8930   32.2120 C   0  0  0  0  0  0  0  0  0  0  0  0
   35.9970   29.0150   32.5510 C   0  0  0  0  0  0  0  0  0  0  0  0
   35.8690   29.3590   33.8650 C   0  0  0  0  0  0  0  0  0  0  0  0
   36.5500   28.5740   34.7740 N   0  0  0  0  0  0  0  0  0  0  0  0
   37.3040   27.5260   34.4410 C   0  0  0  0  0  0  0  0  0  0  0  0
   37.4480   27.1640   33.1600 N   0  0  0  0  0  0  0  0  0  0  0  0
   36.8850   27.6480   31.1600 H   0  0  0  0  0  0  0  0  0  0  0  0
   35.5150   29.5470   31.7360 H   0  0  0  0  0  0  0  0  0  0  0  0
   37.9790   26.7680   35.5650 C   0  0  0  0  0  0  0  0  0  0  0  0
   39.0220   27.1780   35.5930 H   0  0  0  0  0  0  0  0  0  0  0  0
   37.4340   26.8800   36.5030 H   0  0  0  0  0  0  0  0  0  0  0  0
   38.0940   25.3110   35.1120 C   0  0  0  0  0  0  0  0  0  0  0  0
   37.3140   25.1310   34.3440 H   0  0  0  0  0  0  0  0  0  0  0  0
   39.0940   25.2460   34.6130 H   0  0  0  0  0  0  0  0  0  0  0  0
   37.9970   24.3750   36.2380 C   0  0  0  0  0  0  0  0  0  0  0  0
   37.8680   22.9830   36.2040 C   0  0  0  0  0  0  0  0  0  0  0  0
   37.8180   22.3640   35.3260 H   0  0  0  0  0  0  0  0  0  0  0  0
   37.8230   22.6260   37.4980 N   0  0  0  0  0  0  0  0  0  0  0  0
   37.7250   21.6010   37.7540 H   0  0  0  0  0  0  0  0  0  0  0  0
   37.9120   23.6650   38.3370 C   0  0  0  0  0  0  0  0  0  0  0  0
   37.8970   23.6030   39.4220 H   0  0  0  0  0  0  0  0  0  0  0  0
   38.0180   24.7240   37.5310 N   0  0  0  0  0  0  0  0  0  0  0  0
  1  4  1  6  0  0  0
  1  2  1  0  0  0  0
  1  3  1  0  0  0  0
  2  5  1  0  0  0  0
  2  3  1  0  0  0  0
  3  7  1  1  0  0  0
  3  8  1  0  0  0  0
  6  2  1  0  0  0  0
  8  9  1  0  0  0  0
  9 18  1  0  0  0  0
  9 10  2  0  0  0  0
 10 19  1  0  0  0  0
 11 10  1  0  0  0  0
 11 20  1  0  0  0  0
 12 11  2  0  0  0  0
 13 12  1  0  0  0  0
 13 21  1  0  0  0  0
 14 13  2  0  0  0  0
 15 16  2  0  0  0  0
 15 14  1  0  0  0  0
 16 17  1  0  0  0  0
 17  8  2  0  0  0  0
 17 12  1  0  0  0  0
 22 14  1  0  0  0  0
 23 15  1  0  0  0  0
 24 16  1  0  0  0  0
 25 26  2  0  0  0  0
 25 30  1  0  0  0  0
 26 27  1  0  0  0  0
 27  1  1  0  0  0  0
 27 28  2  0  0  0  0
 29 28  1  0  0  0  0
 29 33  1  0  0  0  0
 30 29  2  0  0  0  0
 31 25  1  0  0  0  0
 32 26  1  0  0  0  0
 33 34  1  0  0  0  0
 33 35  1  0  0  0  0
 36 33  1  0  0  0  0
 36 39  1  0  0  0  0
 37 36  1  0  0  0  0
 38 36  1  0  0  0  0
 39 46  1  0  0  0  0
 40 39  2  0  0  0  0
 40 42  1  0  0  0  0
 41 40  1  0  0  0  0
 42 43  1  0  0  0  0
 42 44  1  0  0  0  0
 44 45  1  0  0  0  0
 46 44  2  0  0  0  0
M  END
>  <minimizedAffinity>
-6.17461491

$$$$

 OpenBabel03272509363D

 46 50  0  0  1  0  0  0  0  0999 V2000
   38.6170   26.4730   32.4690 C   0  0  1  0  0  0  0  0  0  0  0  0
   40.0500   26.8650   32.4840 C   0  0  0  0  0  0  0  0  0  0  0  0
   39.4580   26.7210   33.7990 C   0  0  2  0  0  0  0  0  0  0  0  0
   38.2530   25.4590   32.3800 H   0  0  0  0  0  0  0  0  0  0  0  0
   40.2410   27.9370   32.1690 H   0  0  0  0  0  0  0  0  0  0  0  0
   40.6310   26.1900   31.8710 H   0  0  0  0  0  0  0  0  0  0  0  0
   38.8940   27.4100   34.4150 H   0  0  0  0  0  0  0  0  0  0  0  0
   39.9810   25.4950   34.4910 C   0  0  0  0  0  0  0  0  0  0  0  0
   41.2580   25.1810   34.0350 C   0  0  0  0  0  0  0  0  0  0  0  0
   41.9660   24.1580   34.6110 C   0  0  0  0  0  0  0  0  0  0  0  0
   41.4240   23.4120   35.6650 C   0  0  0  0  0  0  0  0  0  0  0  0
   40.1500   23.7490   36.1010 C   0  0  0  0  0  0  0  0  0  0  0  0
   39.5100   23.0900   37.1130 C   0  0  0  0  0  0  0  0  0  0  0  0
   38.2480   23.4040   37.5470 C   0  0  0  0  0  0  0  0  0  0  0  0
   37.5780   24.4490   36.9230 C   0  0  0  0  0  0  0  0  0  0  0  0
   38.2160   25.1170   35.9040 C   0  0  0  0  0  0  0  0  0  0  0  0
   39.4920   24.7630   35.5010 C   0  0  0  0  0  0  0  0  0  0  0  0
   41.9310   25.5530   33.2890 H   0  0  0  0  0  0  0  0  0  0  0  0
   42.9510   23.7740   34.3940 H   0  0  0  0  0  0  0  0  0  0  0  0
   41.8690   22.5810   36.2120 H   0  0  0  0  0  0  0  0  0  0  0  0
   39.9930   22.2700   37.6250 H   0  0  0  0  0  0  0  0  0  0  0  0
   37.7470   22.8850   38.3420 H   0  0  0  0  0  0  0  0  0  0  0  0
   36.5830   24.7620   37.2020 H   0  0  0  0  0  0  0  0  0  0  0  0
   37.6710   25.9460   35.4180 H   0  0  0  0  0  0  0  0  0  0  0  0
   36.6170   29.2260   30.8400 C   0  0  0  0  0  0  0  0  0  0  0  0
   37.5730   28.1870   31.0290 C   0  0  0  0  0  0  0  0  0  0  0  0
   37.6250   27.5550   32.2360 C   0  0  0  0  0  0  0  0  0  0  0  0
   36.7270   27.9850   33.1930 N   0  0  0  0  0  0  0  0  0  0  0  0
   35.8380   28.9600   33.0010 C   0  0  0  0  0  0  0  0  0  0  0  0
   35.7640   29.5990   31.8260 N   0  0  0  0  0  0  0  0  0  0  0  0
   36.6050   29.7070   29.8690 H   0  0  0  0  0  0  0  0  0  0  0  0
   38.2220   27.9470   30.1910 H   0  0  0  0  0  0  0  0  0  0  0  0
   34.9280   29.3120   34.1600 C   0  0  0  0  0  0  0  0  0  0  0  0
   33.9190   28.9400   33.8460 H   0  0  0  0  0  0  0  0  0  0  0  0
   35.2900   28.8800   35.0930 H   0  0  0  0  0  0  0  0  0  0  0  0
   34.8380   30.8400   34.2040 C   0  0  0  0  0  0  0  0  0  0  0  0
   35.7850   31.2490   33.7980 H   0  0  0  0  0  0  0  0  0  0  0  0
   34.0140   31.0970   33.4910 H   0  0  0  0  0  0  0  0  0  0  0  0
   34.5480   31.3340   35.5550 C   0  0  0  0  0  0  0  0  0  0  0  0
   35.4020   32.0010   36.4400 C   0  0  0  0  0  0  0  0  0  0  0  0
   36.4300   32.2630   36.2640 H   0  0  0  0  0  0  0  0  0  0  0  0
   34.6420   32.2240   37.5240 N   0  0  0  0  0  0  0  0  0  0  0  0
   35.0600   32.7260   38.3600 H   0  0  0  0  0  0  0  0  0  0  0  0
   33.3930   31.7580   37.4000 C   0  0  0  0  0  0  0  0  0  0  0  0
   32.6150   31.8310   38.1550 H   0  0  0  0  0  0  0  0  0  0  0  0
   33.3690   31.2180   36.1790 N   0  0  0  0  0  0  0  0  0  0  0  0
  1  4  1  6  0  0  0
  1  2  1  0  0  0  0
  1  3  1  0  0  0  0
  2  3  1  0  0  0  0
  3  7  1  1  0  0  0
  3  8  1  0  0  0  0
  5  2  1  0  0  0  0
  6  2  1  0  0  0  0
  8 17  1  0  0  0  0
  9  8  2  0  0  0  0
  9 10  1  0  0  0  0
 10 11  2  0  0  0  0
 11 12  1  0  0  0  0
 11 20  1  0  0  0  0
 12 13  1  0  0  0  0
 13 14  2  0  0  0  0
 13 21  1  0  0  0  0
 14 22  1  0  0  0  0
 15 23  1  0  0  0  0
 15 14  1  0  0  0  0
 16 15  2  0  0  0  0
 17 16  1  0  0  0  0
 17 12  2  0  0  0  0
 18  9  1  0  0  0  0
 19 10  1  0  0  0  0
 24 16  1  0  0  0  0
 25 26  2  0  0  0  0
 25 30  1  0  0  0  0
 26 27  1  0  0  0  0
 27  1  1  0  0  0  0
 27 28  2  0  0  0  0
 29 28  1  0  0  0  0
 29 33  1  0  0  0  0
 30 29  2  0  0  0  0
 31 25  1  0  0  0  0
 32 26  1  0  0  0  0
 33 36  1  0  0  0  0
 33 35  1  0  0  0  0
 34 33  1  0  0  0  0
 36 39  1  0  0  0  0
 37 36  1  0  0  0  0
 38 36  1  0  0  0  0
 39 46  1  0  0  0  0
 39 40  2  0  0  0  0
 40 42  1  0  0  0  0
 41 40  1  0  0  0  0
 42 43  1  0  0  0  0
 44 42  1  0  0  0  0
 44 45  1  0  0  0  0
 46 44  2  0  0  0  0
M  END
>  <minimizedAffinity>
-6.15840435

$$$$

 OpenBabel03272509363D

 46 50  0  0  1  0  0  0  0  0999 V2000
   37.5920   27.3800   31.5370 C   0  0  1  0  0  0  0  0  0  0  0  0
   37.2300   27.8890   30.1900 C   0  0  0  0  0  0  0  0  0  0  0  0
   36.2710   28.2150   31.2260 C   0  0  2  0  0  0  0  0  0  0  0  0
   38.2560   27.8790   32.2310 H   0  0  0  0  0  0  0  0  0  0  0  0
   36.8870   27.0860   29.4670 H   0  0  0  0  0  0  0  0  0  0  0  0
   38.0550   28.4420   29.7620 H   0  0  0  0  0  0  0  0  0  0  0  0
   35.4350   27.6620   31.6350 H   0  0  0  0  0  0  0  0  0  0  0  0
   36.3180   29.6790   31.5600 C   0  0  0  0  0  0  0  0  0  0  0  0
   36.7460   30.4190   30.4600 C   0  0  0  0  0  0  0  0  0  0  0  0
   36.7600   31.7880   30.5110 C   0  0  0  0  0  0  0  0  0  0  0  0
   36.3460   32.4700   31.6630 C   0  0  0  0  0  0  0  0  0  0  0  0
   35.9230   31.7060   32.7430 C   0  0  0  0  0  0  0  0  0  0  0  0
   35.5050   32.2530   33.9240 C   0  0  0  0  0  0  0  0  0  0  0  0
   35.0950   31.5130   35.0020 C   0  0  0  0  0  0  0  0  0  0  0  0
   35.1040   30.1280   34.8920 C   0  0  0  0  0  0  0  0  0  0  0  0
   35.5230   29.5700   33.7060 C   0  0  0  0  0  0  0  0  0  0  0  0
   35.9280   30.3600   32.6450 C   0  0  0  0  0  0  0  0  0  0  0  0
   37.0960   30.2090   29.4700 H   0  0  0  0  0  0  0  0  0  0  0  0
   37.0550   32.5180   29.7730 H   0  0  0  0  0  0  0  0  0  0  0  0
   36.3050   33.5440   31.8420 H   0  0  0  0  0  0  0  0  0  0  0  0
   35.4820   33.3260   34.0530 H   0  0  0  0  0  0  0  0  0  0  0  0
   34.7670   31.9440   35.9280 H   0  0  0  0  0  0  0  0  0  0  0  0
   34.7980   29.4710   35.6920 H   0  0  0  0  0  0  0  0  0  0  0  0
   35.5240   28.4680   33.6330 H   0  0  0  0  0  0  0  0  0  0  0  0
   36.0040   23.9590   31.4580 C   0  0  0  0  0  0  0  0  0  0  0  0
   36.2800   25.3230   31.1550 C   0  0  0  0  0  0  0  0  0  0  0  0
   37.2860   25.9550   31.8240 C   0  0  0  0  0  0  0  0  0  0  0  0
   37.9680   25.2010   32.7590 N   0  0  0  0  0  0  0  0  0  0  0  0
   37.6980   23.9240   33.0330 C   0  0  0  0  0  0  0  0  0  0  0  0
   36.7150   23.2780   32.3910 N   0  0  0  0  0  0  0  0  0  0  0  0
   35.1980   23.4900   30.9080 H   0  0  0  0  0  0  0  0  0  0  0  0
   35.6660   25.8000   30.3950 H   0  0  0  0  0  0  0  0  0  0  0  0
   38.5400   23.2450   34.0930 C   0  0  0  0  0  0  0  0  0  0  0  0
   37.8400   22.5230   34.5870 H   0  0  0  0  0  0  0  0  0  0  0  0
   39.4240   22.7780   33.6570 H   0  0  0  0  0  0  0  0  0  0  0  0
   38.8820   24.3100   35.1380 C   0  0  0  0  0  0  0  0  0  0  0  0
   39.8490   24.7700   34.8520 H   0  0  0  0  0  0  0  0  0  0  0  0
   38.0820   25.0860   35.0260 H   0  0  0  0  0  0  0  0  0  0  0  0
   38.9040   23.7580   36.4970 C   0  0  0  0  0  0  0  0  0  0  0  0
   39.7390   22.7650   37.0200 C   0  0  0  0  0  0  0  0  0  0  0  0
   40.5150   22.2370   36.4950 H   0  0  0  0  0  0  0  0  0  0  0  0
   39.3420   22.6410   38.2970 N   0  0  0  0  0  0  0  0  0  0  0  0
   39.8250   21.9380   38.9280 H   0  0  0  0  0  0  0  0  0  0  0  0
   38.3370   23.4640   38.6210 C   0  0  0  0  0  0  0  0  0  0  0  0
   37.8650   23.5280   39.5980 H   0  0  0  0  0  0  0  0  0  0  0  0
   38.0930   24.1360   37.4930 N   0  0  0  0  0  0  0  0  0  0  0  0
  1 27  1  0  0  0  0
  1  4  1  1  0  0  0
  2  3  1  0  0  0  0
  2  1  1  0  0  0  0
  3  1  1  0  0  0  0
  3  8  1  0  0  0  0
  3  7  1  1  0  0  0
  5  2  1  0  0  0  0
  6  2  1  0  0  0  0
  8 17  1  0  0  0  0
  9 10  1  0  0  0  0
  9  8  2  0  0  0  0
 10 11  2  0  0  0  0
 11 20  1  0  0  0  0
 11 12  1  0  0  0  0
 12 13  1  0  0  0  0
 13 21  1  0  0  0  0
 13 14  2  0  0  0  0
 14 22  1  0  0  0  0
 15 14  1  0  0  0  0
 15 23  1  0  0  0  0
 16 15  2  0  0  0  0
 17 12  2  0  0  0  0
 17 16  1  0  0  0  0
 18  9  1  0  0  0  0
 19 10  1  0  0  0  0
 24 16  1  0  0  0  0
 25 30  1  0  0  0  0
 26 25  2  0  0  0  0
 26 27  1  0  0  0  0
 27 28  2  0  0  0  0
 28 29  1  0  0  0  0
 29 33  1  0  0  0  0
 30 29  2  0  0  0  0
 31 25  1  0  0  0  0
 32 26  1  0  0  0  0
 33 34  1  0  0  0  0
 33 36  1  0  0  0  0
 35 33  1  0  0  0  0
 36 39  1  0  0  0  0
 37 36  1  0  0  0  0
 38 36  1  0  0  0  0
 39 40  2  0  0  0  0
 39 46  1  0  0  0  0
 40 42  1  0  0  0  0
 41 40  1  0  0  0  0
 42 44  1  0  0  0  0
 42 43  1  0  0  0  0
 44 45  1  0  0  0  0
 46 44  2  0  0  0  0
M  END
>  <minimizedAffinity>
-6.12328148

$$$$
