
 OpenBabel03272509303D

 37 39  0  0  1  0  0  0  0  0999 V2000
   36.2970   30.6950   48.9820 C   0  0  2  0  0  0  0  0  0  0  0  0
   37.2550   31.5790   49.7200 C   0  0  0  0  0  0  0  0  0  0  0  0
   38.1520   30.8140   50.6700 C   0  0  0  0  0  0  0  0  0  0  0  0
   37.3020   30.0310   51.6710 C   0  0  0  0  0  0  0  0  0  0  0  0
   36.0620   29.4200   51.0730 C   0  0  0  0  0  0  0  0  0  0  0  0
   36.2540   29.3130   49.5480 C   0  0  1  0  0  0  0  0  0  0  0  0
   35.2330   31.0950   48.9800 H   0  0  0  0  0  0  0  0  0  0  0  0
   36.5920   32.1840   50.4260 H   0  0  0  0  0  0  0  0  0  0  0  0
   37.7840   32.3210   49.1510 H   0  0  0  0  0  0  0  0  0  0  0  0
   38.8160   30.1000   50.1600 H   0  0  0  0  0  0  0  0  0  0  0  0
   38.7010   31.5740   51.2580 H   0  0  0  0  0  0  0  0  0  0  0  0
   37.9500   29.2110   52.0730 H   0  0  0  0  0  0  0  0  0  0  0  0
   36.9900   30.6950   52.5100 H   0  0  0  0  0  0  0  0  0  0  0  0
   35.8460   28.3970   51.4510 H   0  0  0  0  0  0  0  0  0  0  0  0
   35.1620   30.0460   51.2100 H   0  0  0  0  0  0  0  0  0  0  0  0
   37.2130   28.8560   49.5130 H   0  0  0  0  0  0  0  0  0  0  0  0
   36.6550   30.6050   47.5410 C   0  0  0  0  0  0  0  0  0  0  0  0
   38.0250   30.7880   47.2400 C   0  0  0  0  0  0  0  0  0  0  0  0
   38.3750   30.7030   45.8890 C   0  0  0  0  0  0  0  0  0  0  0  0
   37.4000   30.4530   44.9540 N   0  0  0  0  0  0  0  0  0  0  0  0
   36.0820   30.2820   45.3040 C   0  0  0  0  0  0  0  0  0  0  0  0
   35.7330   30.3630   46.6020 N   0  0  0  0  0  0  0  0  0  0  0  0
   38.8630   30.9780   47.8780 H   0  0  0  0  0  0  0  0  0  0  0  0
   39.3790   30.8220   45.5120 H   0  0  0  0  0  0  0  0  0  0  0  0
   35.4010   30.0900   44.4940 H   0  0  0  0  0  0  0  0  0  0  0  0
   33.9620   28.3190   49.0870 C   0  0  0  0  0  0  0  0  0  0  0  0
   33.1610   28.9870   49.8040 O   0  0  0  0  0  0  0  0  0  0  0  0
   35.3680   28.4190   48.8980 N   0  0  0  0  0  0  0  0  0  0  0  0
   35.7380   27.7220   48.1750 H   0  0  0  0  0  0  0  0  0  0  0  0
   33.1980   27.2840   48.3650 C   0  0  0  0  0  0  0  0  0  0  0  0
   31.8390   27.0850   48.3030 C   0  0  0  0  0  0  0  0  0  0  0  0
   31.0750   27.6620   48.7820 H   0  0  0  0  0  0  0  0  0  0  0  0
   31.5260   26.0140   47.5250 N   0  0  0  0  0  0  0  0  0  0  0  0
   30.5660   25.6550   47.3180 H   0  0  0  0  0  0  0  0  0  0  0  0
   32.6950   25.5300   47.0900 C   0  0  0  0  0  0  0  0  0  0  0  0
   32.8020   24.6740   46.4450 H   0  0  0  0  0  0  0  0  0  0  0  0
   33.6890   26.2840   47.5880 N   0  0  0  0  0  0  0  0  0  0  0  0
  1  7  1  1  0  0  0
  1  6  1  0  0  0  0
  1  2  1  0  0  0  0
  2  8  1  0  0  0  0
  2  3  1  0  0  0  0
  3 11  1  0  0  0  0
  3  4  1  0  0  0  0
  4 12  1  0  0  0  0
  4 13  1  0  0  0  0
  5 15  1  0  0  0  0
  5 14  1  0  0  0  0
  5  4  1  0  0  0  0
  6 16  1  6  0  0  0
  6  5  1  0  0  0  0
  9  2  1  0  0  0  0
 10  3  1  0  0  0  0
 17  1  1  0  0  0  0
 18 17  1  0  0  0  0
 18 23  1  0  0  0  0
 19 18  2  0  0  0  0
 20 21  2  0  0  0  0
 20 19  1  0  0  0  0
 21 22  1  0  0  0  0
 22 17  2  0  0  0  0
 24 19  1  0  0  0  0
 25 21  1  0  0  0  0
 26 27  2  0  0  0  0
 28 26  1  0  0  0  0
 28  6  1  0  0  0  0
 29 28  1  0  0  0  0
 30 26  1  0  0  0  0
 31 30  2  0  0  0  0
 31 32  1  0  0  0  0
 33 31  1  0  0  0  0
 34 33  1  0  0  0  0
 35 33  1  0  0  0  0
 35 37  2  0  0  0  0
 36 35  1  0  0  0  0
 37 30  1  0  0  0  0
M  END
>  <minimizedAffinity>
-5.75708008

>  <minimizedRMSD>
0.494939029

$$$$
