
 OpenBabel03272510083D

 43 47  0  0  0  0  0  0  0  0999 V2000
   36.3460   30.1030   48.2930 C   0  0  0  0  0  0  0  0  0  0  0  0
   36.9700   30.3040   49.4840 N   0  0  0  0  0  0  0  0  0  0  0  0
   38.0860   31.0490   49.5290 C   0  0  0  0  0  0  0  0  0  0  0  0
   38.6660   31.6390   48.4490 N   0  0  0  0  0  0  0  0  0  0  0  0
   38.0750   31.4610   47.2490 C   0  0  0  0  0  0  0  0  0  0  0  0
   38.5630   32.0460   46.0930 C   0  0  0  0  0  0  0  0  0  0  0  0
   37.9050   31.8690   44.8770 C   0  0  0  0  0  0  0  0  0  0  0  0
   36.7470   31.0910   44.8380 C   0  0  0  0  0  0  0  0  0  0  0  0
   36.2900   30.5230   46.0110 C   0  0  0  0  0  0  0  0  0  0  0  0
   36.9280   30.6950   47.2030 C   0  0  0  0  0  0  0  0  0  0  0  0
   38.6050   31.2250   50.4690 H   0  0  0  0  0  0  0  0  0  0  0  0
   39.4640   32.6290   46.2120 H   0  0  0  0  0  0  0  0  0  0  0  0
   38.3790   32.3700   44.0680 H   0  0  0  0  0  0  0  0  0  0  0  0
   36.3950   31.0770   43.8270 H   0  0  0  0  0  0  0  0  0  0  0  0
   35.0300   27.9230   48.3090 C   0  0  0  0  0  0  0  0  0  0  0  0
   35.1560   29.3280   48.3510 C   0  0  0  0  0  0  0  0  0  0  0  0
   33.9670   30.1130   48.4510 C   0  0  0  0  0  0  0  0  0  0  0  0
   32.7610   29.4930   48.4960 N   0  0  0  0  0  0  0  0  0  0  0  0
   32.7080   28.1290   48.4480 C   0  0  0  0  0  0  0  0  0  0  0  0
   33.8050   27.3650   48.3580 N   0  0  0  0  0  0  0  0  0  0  0  0
   31.3960   27.5210   48.4750 N   0  0  0  0  0  0  0  0  0  0  0  0
   30.4720   27.6500   49.5670 C   0  0  0  0  0  0  0  0  0  0  0  0
   29.1850   27.0940   49.0390 C   0  0  0  0  0  0  0  0  0  0  0  0
   29.3790   26.8670   47.5490 C   0  0  0  0  0  0  0  0  0  0  0  0
   30.8320   26.6930   47.3940 C   0  0  0  0  0  0  0  0  0  0  0  0
   35.9610   27.3980   48.2390 H   0  0  0  0  0  0  0  0  0  0  0  0
   33.9630   31.1760   48.4930 H   0  0  0  0  0  0  0  0  0  0  0  0
   30.3190   28.6980   49.9070 H   0  0  0  0  0  0  0  0  0  0  0  0
   30.8550   27.0710   50.4520 H   0  0  0  0  0  0  0  0  0  0  0  0
   28.3610   27.8230   49.2130 H   0  0  0  0  0  0  0  0  0  0  0  0
   28.9430   26.1760   49.5880 H   0  0  0  0  0  0  0  0  0  0  0  0
   28.7570   25.9640   47.2840 H   0  0  0  0  0  0  0  0  0  0  0  0
   28.9460   27.7080   46.9900 H   0  0  0  0  0  0  0  0  0  0  0  0
   31.1690   25.6560   47.5020 H   0  0  0  0  0  0  0  0  0  0  0  0
   31.1610   27.0860   46.3900 H   0  0  0  0  0  0  0  0  0  0  0  0
   35.0820   29.8050   45.6010 C   0  0  0  0  0  0  0  0  0  0  0  0
   33.7330   30.0950   45.5580 C   0  0  0  0  0  0  0  0  0  0  0  0
   33.3740   31.0920   45.8230 H   0  0  0  0  0  0  0  0  0  0  0  0
   32.9520   29.0760   45.2060 N   0  0  0  0  0  0  0  0  0  0  0  0
   31.9150   29.1210   45.1240 H   0  0  0  0  0  0  0  0  0  0  0  0
   33.8380   28.0910   45.0150 C   0  0  0  0  0  0  0  0  0  0  0  0
   33.5640   27.0760   44.7120 H   0  0  0  0  0  0  0  0  0  0  0  0
   35.1000   28.4780   45.2380 N   0  0  0  0  0  0  0  0  0  0  0  0
  1 16  1  0  0  0  0
  1  2  1  0  0  0  0
  2  3  2  0  0  0  0
  3 11  1  0  0  0  0
  4  3  1  0  0  0  0
  5  4  2  0  0  0  0
  6 12  1  0  0  0  0
  6  5  1  0  0  0  0
  7  6  2  0  0  0  0
  8  7  1  0  0  0  0
  8  9  2  0  0  0  0
  9 10  1  0  0  0  0
 10  5  1  0  0  0  0
 10  1  2  0  0  0  0
 13  7  1  0  0  0  0
 14  8  1  0  0  0  0
 15 16  2  0  0  0  0
 15 20  1  0  0  0  0
 16 17  1  0  0  0  0
 17 27  1  0  0  0  0
 17 18  2  0  0  0  0
 19 21  1  0  0  0  0
 19 18  1  0  0  0  0
 20 19  2  0  0  0  0
 21 22  1  0  0  0  0
 22 28  1  0  0  0  0
 22 29  1  0  0  0  0
 23 30  1  0  0  0  0
 23 22  1  0  0  0  0
 23 31  1  0  0  0  0
 24 23  1  0  0  0  0
 25 34  1  0  0  0  0
 25 24  1  0  0  0  0
 25 21  1  0  0  0  0
 26 15  1  0  0  0  0
 32 24  1  0  0  0  0
 33 24  1  0  0  0  0
 35 25  1  0  0  0  0
 36  9  1  0  0  0  0
 37 36  2  0  0  0  0
 37 38  1  0  0  0  0
 39 37  1  0  0  0  0
 40 39  1  0  0  0  0
 41 39  1  0  0  0  0
 41 43  2  0  0  0  0
 42 41  1  0  0  0  0
 43 36  1  0  0  0  0
M  END
>  <minimizedAffinity>
-3.9547236

>  <minimizedRMSD>
1.90544736

$$$$
