
 OpenBabel03272506133D

 23 24  0  0  0  0  0  0  0  0999 V2000
   37.0060   30.4840   48.9740 C   0  0  0  0  0  0  0  0  0  0  0  0
   37.8580   30.5650   47.8540 C   0  0  0  0  0  0  0  0  0  0  0  0
   38.5310   31.7590   47.6590 C   0  0  0  0  0  0  0  0  0  0  0  0
   38.3580   32.7880   48.5250 N   0  0  0  0  0  0  0  0  0  0  0  0
   37.5190   32.6670   49.6030 C   0  0  0  0  0  0  0  0  0  0  0  0
   36.8400   31.5170   49.8330 N   0  0  0  0  0  0  0  0  0  0  0  0
   37.9270   29.7090   47.2350 H   0  0  0  0  0  0  0  0  0  0  0  0
   37.4090   33.5110   50.2690 H   0  0  0  0  0  0  0  0  0  0  0  0
   39.4210   31.8740   46.5080 C   0  0  0  0  0  0  0  0  0  0  0  0
   39.8930   30.8520   45.7110 C   0  0  0  0  0  0  0  0  0  0  0  0
   39.6860   29.7870   45.7990 H   0  0  0  0  0  0  0  0  0  0  0  0
   40.6920   31.4140   44.7570 N   0  0  0  0  0  0  0  0  0  0  0  0
   41.1710   30.8320   44.0270 H   0  0  0  0  0  0  0  0  0  0  0  0
   40.7060   32.7620   44.9720 C   0  0  0  0  0  0  0  0  0  0  0  0
   41.2670   33.4650   44.3560 H   0  0  0  0  0  0  0  0  0  0  0  0
   39.9180   33.0260   46.0550 N   0  0  0  0  0  0  0  0  0  0  0  0
   36.2580   29.3580   49.3130 O   0  0  0  0  0  0  0  0  0  0  0  0
   34.1690   30.0840   47.7960 O   0  0  0  0  0  0  0  0  0  0  0  0
   34.5900   29.2390   48.9830 P   0  0  0  0  0  0  0  0  0  0  0  0
   34.2890   27.5860   48.6940 O   0  0  0  0  0  0  0  0  0  0  0  0
   34.0670   27.1120   49.5350 H   0  0  0  0  0  0  0  0  0  0  0  0
   33.6860   29.7790   50.3040 O   0  0  0  0  0  0  0  0  0  0  0  0
   34.2830   29.7300   51.0970 H   0  0  0  0  0  0  0  0  0  0  0  0
  1 17  1  0  0  0  0
  1  6  1  0  0  0  0
  2  1  2  0  0  0  0
  3  2  1  0  0  0  0
  3  4  2  0  0  0  0
  4  5  1  0  0  0  0
  5  6  2  0  0  0  0
  5  8  1  0  0  0  0
  7  2  1  0  0  0  0
  9  3  1  0  0  0  0
 10 11  1  0  0  0  0
 10  9  2  0  0  0  0
 12 14  1  0  0  0  0
 12 10  1  0  0  0  0
 13 12  1  0  0  0  0
 14 16  2  0  0  0  0
 15 14  1  0  0  0  0
 16  9  1  0  0  0  0
 18 19  2  0  0  0  0
 19 17  1  0  0  0  0
 19 22  1  0  0  0  0
 20 19  1  0  0  0  0
 20 21  1  0  0  0  0
 22 23  1  0  0  0  0
M  END
>  <minimizedAffinity>
-5.30166435

>  <minimizedRMSD>
5.4878068

$$$$
