
 OpenBabel03262522093D

 19 20  0  0  0  0  0  0  0  0999 V2000
   39.1320   24.5950   35.6040 C   0  0  0  0  0  0  0  0  0  0  0  0
   40.0980   24.2440   34.9150 O   0  0  0  0  0  0  0  0  0  0  0  0
   37.6380   25.5980   33.8580 C   0  0  0  0  0  0  0  0  0  0  0  0
   38.3530   25.7230   35.0860 C   0  0  0  0  0  0  0  0  0  0  0  0
   38.2730   26.9440   35.7530 C   0  0  0  0  0  0  0  0  0  0  0  0
   37.5320   27.9560   35.2210 N   0  0  0  0  0  0  0  0  0  0  0  0
   36.8720   27.7880   34.0520 C   0  0  0  0  0  0  0  0  0  0  0  0
   36.9190   26.6410   33.3810 N   0  0  0  0  0  0  0  0  0  0  0  0
   37.6740   24.6780   33.3170 H   0  0  0  0  0  0  0  0  0  0  0  0
   38.8120   27.0720   36.7040 H   0  0  0  0  0  0  0  0  0  0  0  0
   36.3140   28.6570   33.7220 H   0  0  0  0  0  0  0  0  0  0  0  0
   38.8210   23.9110   36.8430 C   0  0  0  0  0  0  0  0  0  0  0  0
   39.6950   23.0200   37.4250 C   0  0  0  0  0  0  0  0  0  0  0  0
   40.6680   22.7020   37.1020 H   0  0  0  0  0  0  0  0  0  0  0  0
   39.0480   22.6030   38.5490 N   0  0  0  0  0  0  0  0  0  0  0  0
   39.4950   21.8990   39.2050 H   0  0  0  0  0  0  0  0  0  0  0  0
   37.8450   23.1940   38.6630 C   0  0  0  0  0  0  0  0  0  0  0  0
   37.1970   22.9620   39.5200 H   0  0  0  0  0  0  0  0  0  0  0  0
   37.6970   24.0200   37.5890 N   0  0  0  0  0  0  0  0  0  0  0  0
  1 12  1  0  0  0  0
  2  1  2  0  0  0  0
  3  4  1  0  0  0  0
  4  1  1  0  0  0  0
  4  5  2  0  0  0  0
  5 10  1  0  0  0  0
  6  5  1  0  0  0  0
  7  6  2  0  0  0  0
  8  3  2  0  0  0  0
  8  7  1  0  0  0  0
  9  3  1  0  0  0  0
 11  7  1  0  0  0  0
 12 13  2  0  0  0  0
 12 19  1  0  0  0  0
 13 15  1  0  0  0  0
 14 13  1  0  0  0  0
 15 17  1  0  0  0  0
 15 16  1  0  0  0  0
 17 18  1  0  0  0  0
 19 17  2  0  0  0  0
M  END
>  <minimizedAffinity>
-3.95714641

$$$$

 OpenBabel03262522093D

 19 20  0  0  0  0  0  0  0  0999 V2000
   39.3320   24.3070   35.3420 C   0  0  0  0  0  0  0  0  0  0  0  0
   40.5210   24.5430   35.0950 O   0  0  0  0  0  0  0  0  0  0  0  0
   37.8470   25.8650   34.0550 C   0  0  0  0  0  0  0  0  0  0  0  0
   38.3900   24.5600   34.2480 C   0  0  0  0  0  0  0  0  0  0  0  0
   37.9880   23.5610   33.3630 C   0  0  0  0  0  0  0  0  0  0  0  0
   37.1100   23.8580   32.3650 N   0  0  0  0  0  0  0  0  0  0  0  0
   36.6230   25.1120   32.2240 C   0  0  0  0  0  0  0  0  0  0  0  0
   36.9770   26.0970   33.0440 N   0  0  0  0  0  0  0  0  0  0  0  0
   38.1300   26.6580   34.7120 H   0  0  0  0  0  0  0  0  0  0  0  0
   38.3900   22.5440   33.4850 H   0  0  0  0  0  0  0  0  0  0  0  0
   35.9320   25.2360   31.3970 H   0  0  0  0  0  0  0  0  0  0  0  0
   38.9310   23.8150   36.6440 C   0  0  0  0  0  0  0  0  0  0  0  0
   39.7060   22.9290   37.3600 C   0  0  0  0  0  0  0  0  0  0  0  0
   40.6510   22.4870   37.1100 H   0  0  0  0  0  0  0  0  0  0  0  0
   38.9980   22.7150   38.5040 N   0  0  0  0  0  0  0  0  0  0  0  0
   39.3640   22.0620   39.2560 H   0  0  0  0  0  0  0  0  0  0  0  0
   37.8540   23.4220   38.5060 C   0  0  0  0  0  0  0  0  0  0  0  0
   37.1680   23.3590   39.3620 H   0  0  0  0  0  0  0  0  0  0  0  0
   37.8070   24.1180   37.3340 N   0  0  0  0  0  0  0  0  0  0  0  0
  1 12  1  0  0  0  0
  2  1  2  0  0  0  0
  3  4  1  0  0  0  0
  3  9  1  0  0  0  0
  4  1  1  0  0  0  0
  5 10  1  0  0  0  0
  5  4  2  0  0  0  0
  6  5  1  0  0  0  0
  7  6  2  0  0  0  0
  7  8  1  0  0  0  0
  8  3  2  0  0  0  0
 11  7  1  0  0  0  0
 12 19  1  0  0  0  0
 12 13  2  0  0  0  0
 13 15  1  0  0  0  0
 14 13  1  0  0  0  0
 15 17  1  0  0  0  0
 15 16  1  0  0  0  0
 17 18  1  0  0  0  0
 19 17  2  0  0  0  0
M  END
>  <minimizedAffinity>
-3.85256267

$$$$

 OpenBabel03262522093D

 19 20  0  0  0  0  0  0  0  0999 V2000
   39.0800   23.7510   35.1310 C   0  0  0  0  0  0  0  0  0  0  0  0
   40.0320   24.4120   34.6970 O   0  0  0  0  0  0  0  0  0  0  0  0
   37.5940   21.9290   34.2580 C   0  0  0  0  0  0  0  0  0  0  0  0
   38.1460   23.2380   34.1260 C   0  0  0  0  0  0  0  0  0  0  0  0
   37.7570   23.9880   33.0160 C   0  0  0  0  0  0  0  0  0  0  0  0
   36.8840   23.4570   32.1160 N   0  0  0  0  0  0  0  0  0  0  0  0
   36.3890   22.2090   32.2860 C   0  0  0  0  0  0  0  0  0  0  0  0
   36.7300   21.4580   33.3290 N   0  0  0  0  0  0  0  0  0  0  0  0
   37.8660   21.3240   35.0950 H   0  0  0  0  0  0  0  0  0  0  0  0
   38.1650   25.0020   32.8850 H   0  0  0  0  0  0  0  0  0  0  0  0
   35.7030   21.8880   31.5100 H   0  0  0  0  0  0  0  0  0  0  0  0
   38.9310   23.5180   36.5530 C   0  0  0  0  0  0  0  0  0  0  0  0
   39.8170   22.7390   37.2630 C   0  0  0  0  0  0  0  0  0  0  0  0
   40.6920   22.2150   36.9280 H   0  0  0  0  0  0  0  0  0  0  0  0
   39.3400   22.7670   38.5390 N   0  0  0  0  0  0  0  0  0  0  0  0
   39.8350   22.2420   39.3170 H   0  0  0  0  0  0  0  0  0  0  0  0
   38.2250   23.5160   38.6220 C   0  0  0  0  0  0  0  0  0  0  0  0
   37.7160   23.6380   39.5880 H   0  0  0  0  0  0  0  0  0  0  0  0
   37.9630   23.9920   37.3720 N   0  0  0  0  0  0  0  0  0  0  0  0
  1 12  1  0  0  0  0
  2  1  2  0  0  0  0
  3  9  1  0  0  0  0
  4  3  1  0  0  0  0
  4  1  1  0  0  0  0
  5  4  2  0  0  0  0
  6  7  2  0  0  0  0
  6  5  1  0  0  0  0
  7  8  1  0  0  0  0
  8  3  2  0  0  0  0
 10  5  1  0  0  0  0
 11  7  1  0  0  0  0
 12 13  2  0  0  0  0
 12 19  1  0  0  0  0
 13 15  1  0  0  0  0
 14 13  1  0  0  0  0
 15 17  1  0  0  0  0
 15 16  1  0  0  0  0
 17 18  1  0  0  0  0
 19 17  2  0  0  0  0
M  END
>  <minimizedAffinity>
-3.83114362

$$$$

 OpenBabel03262522093D

 19 20  0  0  0  0  0  0  0  0999 V2000
   38.3170   23.5040   35.0370 C   0  0  0  0  0  0  0  0  0  0  0  0
   37.9370   22.5460   34.3530 O   0  0  0  0  0  0  0  0  0  0  0  0
   37.6030   25.0690   33.2120 C   0  0  0  0  0  0  0  0  0  0  0  0
   38.4380   24.7840   34.3330 C   0  0  0  0  0  0  0  0  0  0  0  0
   39.3540   25.7630   34.7150 C   0  0  0  0  0  0  0  0  0  0  0  0
   39.4190   26.9330   34.0210 N   0  0  0  0  0  0  0  0  0  0  0  0
   38.6050   27.1550   32.9640 C   0  0  0  0  0  0  0  0  0  0  0  0
   37.7160   26.2520   32.5630 N   0  0  0  0  0  0  0  0  0  0  0  0
   36.8880   24.3450   32.8880 H   0  0  0  0  0  0  0  0  0  0  0  0
   40.0120   25.5740   35.5770 H   0  0  0  0  0  0  0  0  0  0  0  0
   38.7420   28.1190   32.4860 H   0  0  0  0  0  0  0  0  0  0  0  0
   38.6160   23.3350   36.4450 C   0  0  0  0  0  0  0  0  0  0  0  0
   39.6860   22.5850   36.8790 C   0  0  0  0  0  0  0  0  0  0  0  0
   40.4190   22.0440   36.3130 H   0  0  0  0  0  0  0  0  0  0  0  0
   39.6250   22.6710   38.2370 N   0  0  0  0  0  0  0  0  0  0  0  0
   40.3410   22.1790   38.8460 H   0  0  0  0  0  0  0  0  0  0  0  0
   38.5840   23.4280   38.6280 C   0  0  0  0  0  0  0  0  0  0  0  0
   38.3950   23.5950   39.6980 H   0  0  0  0  0  0  0  0  0  0  0  0
   37.9430   23.8490   37.5010 N   0  0  0  0  0  0  0  0  0  0  0  0
  1 12  1  0  0  0  0
  2  1  2  0  0  0  0
  3  4  1  0  0  0  0
  4  5  2  0  0  0  0
  4  1  1  0  0  0  0
  5 10  1  0  0  0  0
  6  5  1  0  0  0  0
  7  6  2  0  0  0  0
  8  7  1  0  0  0  0
  8  3  2  0  0  0  0
  9  3  1  0  0  0  0
 11  7  1  0  0  0  0
 12 13  2  0  0  0  0
 12 19  1  0  0  0  0
 13 15  1  0  0  0  0
 14 13  1  0  0  0  0
 15 17  1  0  0  0  0
 15 16  1  0  0  0  0
 17 18  1  0  0  0  0
 19 17  2  0  0  0  0
M  END
>  <minimizedAffinity>
-3.7817049

$$$$

 OpenBabel03262522093D

 19 20  0  0  0  0  0  0  0  0999 V2000
   39.2430   23.7800   35.2100 C   0  0  0  0  0  0  0  0  0  0  0  0
   38.9080   22.9570   34.3490 O   0  0  0  0  0  0  0  0  0  0  0  0
   39.2380   26.0040   34.0520 C   0  0  0  0  0  0  0  0  0  0  0  0
   39.9520   24.9650   34.7200 C   0  0  0  0  0  0  0  0  0  0  0  0
   41.3270   25.1330   34.8810 C   0  0  0  0  0  0  0  0  0  0  0  0
   41.9290   26.2580   34.4050 N   0  0  0  0  0  0  0  0  0  0  0  0
   41.2080   27.2150   33.7770 C   0  0  0  0  0  0  0  0  0  0  0  0
   39.8950   27.0990   33.6010 N   0  0  0  0  0  0  0  0  0  0  0  0
   38.1840   25.9140   33.9090 H   0  0  0  0  0  0  0  0  0  0  0  0
   41.9060   24.3500   35.3930 H   0  0  0  0  0  0  0  0  0  0  0  0
   41.7880   28.0660   33.4390 H   0  0  0  0  0  0  0  0  0  0  0  0
   38.9370   23.5520   36.6080 C   0  0  0  0  0  0  0  0  0  0  0  0
   39.7620   22.8110   37.4240 C   0  0  0  0  0  0  0  0  0  0  0  0
   40.6880   22.3170   37.1980 H   0  0  0  0  0  0  0  0  0  0  0  0
   39.1390   22.8310   38.6360 N   0  0  0  0  0  0  0  0  0  0  0  0
   39.5580   22.3300   39.4720 H   0  0  0  0  0  0  0  0  0  0  0  0
   37.9970   23.5390   38.5810 C   0  0  0  0  0  0  0  0  0  0  0  0
   37.3740   23.6500   39.4800 H   0  0  0  0  0  0  0  0  0  0  0  0
   37.8640   23.9970   37.3040 N   0  0  0  0  0  0  0  0  0  0  0  0
  1 12  1  0  0  0  0
  2  1  2  0  0  0  0
  3  4  1  0  0  0  0
  4  5  2  0  0  0  0
  4  1  1  0  0  0  0
  5 10  1  0  0  0  0
  6  5  1  0  0  0  0
  7  6  2  0  0  0  0
  8  7  1  0  0  0  0
  8  3  2  0  0  0  0
  9  3  1  0  0  0  0
 11  7  1  0  0  0  0
 12 19  1  0  0  0  0
 12 13  2  0  0  0  0
 13 15  1  0  0  0  0
 14 13  1  0  0  0  0
 15 16  1  0  0  0  0
 17 15  1  0  0  0  0
 17 18  1  0  0  0  0
 19 17  2  0  0  0  0
M  END
>  <minimizedAffinity>
-3.75783229

$$$$

 OpenBabel03262522093D

 19 20  0  0  0  0  0  0  0  0999 V2000
   38.1170   25.9910   35.8040 C   0  0  0  0  0  0  0  0  0  0  0  0
   38.3850   26.9640   36.5200 O   0  0  0  0  0  0  0  0  0  0  0  0
   36.9040   27.5770   34.2860 C   0  0  0  0  0  0  0  0  0  0  0  0
   37.4960   26.2980   34.5130 C   0  0  0  0  0  0  0  0  0  0  0  0
   37.4540   25.3780   33.4660 C   0  0  0  0  0  0  0  0  0  0  0  0
   36.8630   25.7240   32.2880 N   0  0  0  0  0  0  0  0  0  0  0  0
   36.3160   26.9500   32.1230 C   0  0  0  0  0  0  0  0  0  0  0  0
   36.3320   27.8600   33.0920 N   0  0  0  0  0  0  0  0  0  0  0  0
   36.9160   28.3100   35.0630 H   0  0  0  0  0  0  0  0  0  0  0  0
   37.9020   24.3840   33.6090 H   0  0  0  0  0  0  0  0  0  0  0  0
   35.8730   27.1170   31.1470 H   0  0  0  0  0  0  0  0  0  0  0  0
   38.4110   24.6440   36.2490 C   0  0  0  0  0  0  0  0  0  0  0  0
   37.5240   23.9160   37.0090 C   0  0  0  0  0  0  0  0  0  0  0  0
   36.5510   24.1840   37.3750 H   0  0  0  0  0  0  0  0  0  0  0  0
   38.1580   22.7270   37.2150 N   0  0  0  0  0  0  0  0  0  0  0  0
   37.6980   21.9560   37.7820 H   0  0  0  0  0  0  0  0  0  0  0  0
   39.3650   22.7120   36.6220 C   0  0  0  0  0  0  0  0  0  0  0  0
   40.0040   21.8220   36.6950 H   0  0  0  0  0  0  0  0  0  0  0  0
   39.5300   23.9190   36.0100 N   0  0  0  0  0  0  0  0  0  0  0  0
  1 12  1  0  0  0  0
  1  2  2  0  0  0  0
  3  4  1  0  0  0  0
  3  9  1  0  0  0  0
  4  1  1  0  0  0  0
  5 10  1  0  0  0  0
  5  4  2  0  0  0  0
  6  5  1  0  0  0  0
  7  6  2  0  0  0  0
  7  8  1  0  0  0  0
  8  3  2  0  0  0  0
 11  7  1  0  0  0  0
 12 13  2  0  0  0  0
 13 15  1  0  0  0  0
 13 14  1  0  0  0  0
 15 16  1  0  0  0  0
 17 18  1  0  0  0  0
 17 15  1  0  0  0  0
 19 12  1  0  0  0  0
 19 17  2  0  0  0  0
M  END
>  <minimizedAffinity>
-3.74283195

$$$$

 OpenBabel03262522093D

 19 20  0  0  0  0  0  0  0  0999 V2000
   39.4070   22.9700   35.4590 C   0  0  0  0  0  0  0  0  0  0  0  0
   38.5790   22.3870   34.7500 O   0  0  0  0  0  0  0  0  0  0  0  0
   38.2470   25.0460   36.2570 C   0  0  0  0  0  0  0  0  0  0  0  0
   39.2940   24.4300   35.5070 C   0  0  0  0  0  0  0  0  0  0  0  0
   40.1820   25.2710   34.8380 C   0  0  0  0  0  0  0  0  0  0  0  0
   40.0250   26.6220   34.9220 N   0  0  0  0  0  0  0  0  0  0  0  0
   39.0150   27.1560   35.6460 C   0  0  0  0  0  0  0  0  0  0  0  0
   38.1440   26.3950   36.3010 N   0  0  0  0  0  0  0  0  0  0  0  0
   37.5460   24.4360   36.7840 H   0  0  0  0  0  0  0  0  0  0  0  0
   41.0010   24.8280   34.2520 H   0  0  0  0  0  0  0  0  0  0  0  0
   38.9850   28.2410   35.6430 H   0  0  0  0  0  0  0  0  0  0  0  0
   40.4160   22.2230   36.1840 C   0  0  0  0  0  0  0  0  0  0  0  0
   40.3650   22.0640   37.5510 C   0  0  0  0  0  0  0  0  0  0  0  0
   39.6440   22.4270   38.2580 H   0  0  0  0  0  0  0  0  0  0  0  0
   41.4670   21.3180   37.8410 N   0  0  0  0  0  0  0  0  0  0  0  0
   41.6870   21.0370   38.8410 H   0  0  0  0  0  0  0  0  0  0  0  0
   42.1630   21.0280   36.7270 C   0  0  0  0  0  0  0  0  0  0  0  0
   43.0830   20.4310   36.7930 H   0  0  0  0  0  0  0  0  0  0  0  0
   41.5040   21.5970   35.6790 N   0  0  0  0  0  0  0  0  0  0  0  0
  1  4  1  0  0  0  0
  1 12  1  0  0  0  0
  2  1  2  0  0  0  0
  3  8  1  0  0  0  0
  3  9  1  0  0  0  0
  4  3  2  0  0  0  0
  5  6  2  0  0  0  0
  5  4  1  0  0  0  0
  6  7  1  0  0  0  0
  7  8  2  0  0  0  0
 10  5  1  0  0  0  0
 11  7  1  0  0  0  0
 12 13  2  0  0  0  0
 13 15  1  0  0  0  0
 13 14  1  0  0  0  0
 15 16  1  0  0  0  0
 17 18  1  0  0  0  0
 17 15  1  0  0  0  0
 19 12  1  0  0  0  0
 19 17  2  0  0  0  0
M  END
>  <minimizedAffinity>
-3.61694264

$$$$

 OpenBabel03262522093D

 19 20  0  0  0  0  0  0  0  0999 V2000
   38.1880   24.3680   36.5010 C   0  0  0  0  0  0  0  0  0  0  0  0
   37.2710   23.8740   37.1690 O   0  0  0  0  0  0  0  0  0  0  0  0
   39.7750   22.7460   37.5670 C   0  0  0  0  0  0  0  0  0  0  0  0
   39.4460   23.6170   36.4860 C   0  0  0  0  0  0  0  0  0  0  0  0
   40.3610   23.7130   35.4390 C   0  0  0  0  0  0  0  0  0  0  0  0
   41.5140   22.9880   35.4830 N   0  0  0  0  0  0  0  0  0  0  0  0
   41.7800   22.1760   36.5310 C   0  0  0  0  0  0  0  0  0  0  0  0
   40.9370   22.0520   37.5520 N   0  0  0  0  0  0  0  0  0  0  0  0
   39.1000   22.6450   38.3880 H   0  0  0  0  0  0  0  0  0  0  0  0
   40.1360   24.3760   34.5900 H   0  0  0  0  0  0  0  0  0  0  0  0
   42.7240   21.6470   36.4620 H   0  0  0  0  0  0  0  0  0  0  0  0
   37.9940   25.6160   35.7900 C   0  0  0  0  0  0  0  0  0  0  0  0
   38.3680   26.8280   36.3270 C   0  0  0  0  0  0  0  0  0  0  0  0
   38.8250   27.0480   37.2730 H   0  0  0  0  0  0  0  0  0  0  0  0
   38.0260   27.7360   35.3710 N   0  0  0  0  0  0  0  0  0  0  0  0
   38.2020   28.7730   35.5170 H   0  0  0  0  0  0  0  0  0  0  0  0
   37.4730   27.1320   34.3040 C   0  0  0  0  0  0  0  0  0  0  0  0
   37.1410   27.7290   33.4430 H   0  0  0  0  0  0  0  0  0  0  0  0
   37.4500   25.7940   34.5630 N   0  0  0  0  0  0  0  0  0  0  0  0
  1  2  2  0  0  0  0
  3  9  1  0  0  0  0
  4  1  1  0  0  0  0
  4  3  2  0  0  0  0
  5  6  2  0  0  0  0
  5  4  1  0  0  0  0
  6  7  1  0  0  0  0
  7  8  2  0  0  0  0
  8  3  1  0  0  0  0
 10  5  1  0  0  0  0
 11  7  1  0  0  0  0
 12 13  2  0  0  0  0
 12  1  1  0  0  0  0
 13 14  1  0  0  0  0
 15 16  1  0  0  0  0
 15 13  1  0  0  0  0
 17 19  2  0  0  0  0
 17 15  1  0  0  0  0
 18 17  1  0  0  0  0
 19 12  1  0  0  0  0
M  END
>  <minimizedAffinity>
-3.57406712

$$$$

 OpenBabel03262522093D

 19 20  0  0  0  0  0  0  0  0999 V2000
   38.2650   24.5600   35.6040 C   0  0  0  0  0  0  0  0  0  0  0  0
   37.6110   25.5540   35.9420 O   0  0  0  0  0  0  0  0  0  0  0  0
   37.8760   22.9840   33.6920 C   0  0  0  0  0  0  0  0  0  0  0  0
   38.2850   24.2650   34.1690 C   0  0  0  0  0  0  0  0  0  0  0  0
   38.6950   25.2010   33.2200 C   0  0  0  0  0  0  0  0  0  0  0  0
   38.6920   24.8680   31.8990 N   0  0  0  0  0  0  0  0  0  0  0  0
   38.2950   23.6390   31.4980 C   0  0  0  0  0  0  0  0  0  0  0  0
   37.8950   22.7150   32.3650 N   0  0  0  0  0  0  0  0  0  0  0  0
   37.5550   22.2400   34.3870 H   0  0  0  0  0  0  0  0  0  0  0  0
   39.0160   26.1990   33.5550 H   0  0  0  0  0  0  0  0  0  0  0  0
   38.3320   23.4830   30.4250 H   0  0  0  0  0  0  0  0  0  0  0  0
   38.9540   23.7570   36.5940 C   0  0  0  0  0  0  0  0  0  0  0  0
   38.4020   23.4860   37.8260 C   0  0  0  0  0  0  0  0  0  0  0  0
   37.4580   23.7880   38.2380 H   0  0  0  0  0  0  0  0  0  0  0  0
   39.3400   22.7200   38.4510 N   0  0  0  0  0  0  0  0  0  0  0  0
   39.1800   22.3590   39.4360 H   0  0  0  0  0  0  0  0  0  0  0  0
   40.4100   22.5240   37.6600 C   0  0  0  0  0  0  0  0  0  0  0  0
   41.2580   21.9250   38.0190 H   0  0  0  0  0  0  0  0  0  0  0  0
   40.1720   23.1760   36.4870 N   0  0  0  0  0  0  0  0  0  0  0  0
  1  2  2  0  0  0  0
  1 12  1  0  0  0  0
  3  4  1  0  0  0  0
  3  9  1  0  0  0  0
  4  1  1  0  0  0  0
  5 10  1  0  0  0  0
  5  4  2  0  0  0  0
  6  5  1  0  0  0  0
  7  6  2  0  0  0  0
  7  8  1  0  0  0  0
  8  3  2  0  0  0  0
 11  7  1  0  0  0  0
 12 13  2  0  0  0  0
 13 14  1  0  0  0  0
 13 15  1  0  0  0  0
 15 16  1  0  0  0  0
 17 18  1  0  0  0  0
 17 15  1  0  0  0  0
 19 12  1  0  0  0  0
 19 17  2  0  0  0  0
M  END
>  <minimizedAffinity>
-3.57166529

$$$$
