
 OpenBabel03262522083D

 19 20  0  0  0  0  0  0  0  0999 V2000
   37.5310   31.2480   47.9700 C   0  0  0  0  0  0  0  0  0  0  0  0
   37.3810   30.7830   46.8340 O   0  0  0  0  0  0  0  0  0  0  0  0
   37.5430   29.9140   50.0940 C   0  0  0  0  0  0  0  0  0  0  0  0
   36.8170   30.5530   49.0450 C   0  0  0  0  0  0  0  0  0  0  0  0
   35.4250   30.4850   49.0950 C   0  0  0  0  0  0  0  0  0  0  0  0
   34.8190   29.8240   50.1210 N   0  0  0  0  0  0  0  0  0  0  0  0
   35.5530   29.2340   51.0910 C   0  0  0  0  0  0  0  0  0  0  0  0
   36.8820   29.2730   51.0860 N   0  0  0  0  0  0  0  0  0  0  0  0
   38.6110   29.9440   50.0920 H   0  0  0  0  0  0  0  0  0  0  0  0
   34.8360   30.9680   48.3010 H   0  0  0  0  0  0  0  0  0  0  0  0
   34.9680   28.7370   51.8580 H   0  0  0  0  0  0  0  0  0  0  0  0
   38.3680   32.4100   48.1890 C   0  0  0  0  0  0  0  0  0  0  0  0
   39.2250   32.8840   47.2210 C   0  0  0  0  0  0  0  0  0  0  0  0
   39.4110   32.5180   46.2290 H   0  0  0  0  0  0  0  0  0  0  0  0
   39.8190   33.9650   47.8010 N   0  0  0  0  0  0  0  0  0  0  0  0
   40.5410   34.5370   47.2740 H   0  0  0  0  0  0  0  0  0  0  0  0
   39.3630   34.1550   49.0520 C   0  0  0  0  0  0  0  0  0  0  0  0
   39.7450   34.9880   49.6570 H   0  0  0  0  0  0  0  0  0  0  0  0
   38.4470   33.1760   49.3020 N   0  0  0  0  0  0  0  0  0  0  0  0
  1 12  1  0  0  0  0
  1  4  1  0  0  0  0
  2  1  2  0  0  0  0
  3  8  1  0  0  0  0
  4  5  1  0  0  0  0
  4  3  2  0  0  0  0
  5  6  2  0  0  0  0
  6  7  1  0  0  0  0
  7 11  1  0  0  0  0
  8  7  2  0  0  0  0
  9  3  1  0  0  0  0
 10  5  1  0  0  0  0
 12 19  1  0  0  0  0
 13 15  1  0  0  0  0
 13 12  2  0  0  0  0
 14 13  1  0  0  0  0
 15 17  1  0  0  0  0
 16 15  1  0  0  0  0
 17 19  2  0  0  0  0
 17 18  1  0  0  0  0
M  END
>  <minimizedAffinity>
-4.50397968

>  <minimizedRMSD>
2.63216257

$$$$
