
 OpenBabel03272510073D

 43 47  0  0  0  0  0  0  0  0999 V2000
   36.4080   30.2340   48.1580 C   0  0  0  0  0  0  0  0  0  0  0  0
   37.0500   30.4940   49.3280 N   0  0  0  0  0  0  0  0  0  0  0  0
   38.1530   31.2580   49.3240 C   0  0  0  0  0  0  0  0  0  0  0  0
   38.7050   31.8130   48.2100 N   0  0  0  0  0  0  0  0  0  0  0  0
   38.0960   31.5760   47.0300 C   0  0  0  0  0  0  0  0  0  0  0  0
   38.5540   32.1210   45.8420 C   0  0  0  0  0  0  0  0  0  0  0  0
   37.8790   31.8840   44.6460 C   0  0  0  0  0  0  0  0  0  0  0  0
   36.7340   31.0870   44.6590 C   0  0  0  0  0  0  0  0  0  0  0  0
   36.3060   30.5590   45.8620 C   0  0  0  0  0  0  0  0  0  0  0  0
   36.9620   30.7910   47.0340 C   0  0  0  0  0  0  0  0  0  0  0  0
   38.6850   31.4810   50.2460 H   0  0  0  0  0  0  0  0  0  0  0  0
   39.4470   32.7230   45.9210 H   0  0  0  0  0  0  0  0  0  0  0  0
   38.3310   32.3600   43.8090 H   0  0  0  0  0  0  0  0  0  0  0  0
   36.3650   31.0250   43.6560 H   0  0  0  0  0  0  0  0  0  0  0  0
   35.1320   28.0370   48.3080 C   0  0  0  0  0  0  0  0  0  0  0  0
   35.2330   29.4440   48.2690 C   0  0  0  0  0  0  0  0  0  0  0  0
   34.0310   30.2120   48.3310 C   0  0  0  0  0  0  0  0  0  0  0  0
   32.8360   29.5750   48.4200 N   0  0  0  0  0  0  0  0  0  0  0  0
   32.8080   28.2100   48.4500 C   0  0  0  0  0  0  0  0  0  0  0  0
   33.9170   27.4610   48.3980 N   0  0  0  0  0  0  0  0  0  0  0  0
   31.5070   27.5810   48.5220 N   0  0  0  0  0  0  0  0  0  0  0  0
   30.5860   27.7560   49.6100 C   0  0  0  0  0  0  0  0  0  0  0  0
   29.3060   27.1490   49.1240 C   0  0  0  0  0  0  0  0  0  0  0  0
   29.4960   26.8390   47.6480 C   0  0  0  0  0  0  0  0  0  0  0  0
   30.9510   26.6830   47.4940 C   0  0  0  0  0  0  0  0  0  0  0  0
   36.0720   27.5250   48.2620 H   0  0  0  0  0  0  0  0  0  0  0  0
   34.0070   31.2750   48.3110 H   0  0  0  0  0  0  0  0  0  0  0  0
   30.4170   28.8190   49.8900 H   0  0  0  0  0  0  0  0  0  0  0  0
   30.9840   27.2370   50.5240 H   0  0  0  0  0  0  0  0  0  0  0  0
   28.4700   27.8720   49.2600 H   0  0  0  0  0  0  0  0  0  0  0  0
   29.0840   26.2600   49.7260 H   0  0  0  0  0  0  0  0  0  0  0  0
   28.8890   25.9110   47.4400 H   0  0  0  0  0  0  0  0  0  0  0  0
   29.0450   27.6380   47.0440 H   0  0  0  0  0  0  0  0  0  0  0  0
   31.3070   25.6590   47.6590 H   0  0  0  0  0  0  0  0  0  0  0  0
   31.2680   27.0220   46.4660 H   0  0  0  0  0  0  0  0  0  0  0  0
   35.1040   29.8060   45.5030 C   0  0  0  0  0  0  0  0  0  0  0  0
   33.7510   30.0740   45.4680 C   0  0  0  0  0  0  0  0  0  0  0  0
   33.3800   31.0760   45.6910 H   0  0  0  0  0  0  0  0  0  0  0  0
   32.9790   29.0280   45.1730 N   0  0  0  0  0  0  0  0  0  0  0  0
   31.9410   29.0550   45.1050 H   0  0  0  0  0  0  0  0  0  0  0  0
   33.8780   28.0500   45.0140 C   0  0  0  0  0  0  0  0  0  0  0  0
   33.6170   27.0180   44.7600 H   0  0  0  0  0  0  0  0  0  0  0  0
   35.1370   28.4650   45.2000 N   0  0  0  0  0  0  0  0  0  0  0  0
  1 16  1  0  0  0  0
  1  2  1  0  0  0  0
  3  2  2  0  0  0  0
  3 11  1  0  0  0  0
  4  3  1  0  0  0  0
  5 10  1  0  0  0  0
  5  4  2  0  0  0  0
  6 12  1  0  0  0  0
  6  5  1  0  0  0  0
  7  8  1  0  0  0  0
  7  6  2  0  0  0  0
  8  9  2  0  0  0  0
  9 10  1  0  0  0  0
 10  1  2  0  0  0  0
 13  7  1  0  0  0  0
 14  8  1  0  0  0  0
 15 20  1  0  0  0  0
 16 15  2  0  0  0  0
 16 17  1  0  0  0  0
 17 18  2  0  0  0  0
 18 19  1  0  0  0  0
 19 21  1  0  0  0  0
 20 19  2  0  0  0  0
 21 22  1  0  0  0  0
 22 28  1  0  0  0  0
 22 29  1  0  0  0  0
 23 30  1  0  0  0  0
 23 22  1  0  0  0  0
 23 31  1  0  0  0  0
 24 23  1  0  0  0  0
 25 24  1  0  0  0  0
 25 34  1  0  0  0  0
 25 21  1  0  0  0  0
 26 15  1  0  0  0  0
 27 17  1  0  0  0  0
 32 24  1  0  0  0  0
 33 24  1  0  0  0  0
 35 25  1  0  0  0  0
 36  9  1  0  0  0  0
 37 36  2  0  0  0  0
 37 38  1  0  0  0  0
 39 37  1  0  0  0  0
 40 39  1  0  0  0  0
 41 39  1  0  0  0  0
 41 43  2  0  0  0  0
 42 41  1  0  0  0  0
 43 36  1  0  0  0  0
M  END
>  <minimizedAffinity>
-3.98078346

>  <minimizedRMSD>
1.86886275

$$$$
