
 OpenBabel03272509293D

 37 39  0  0  1  0  0  0  0  0999 V2000
   36.2600   30.7110   48.9890 C   0  0  2  0  0  0  0  0  0  0  0  0
   37.2530   31.5750   49.7030 C   0  0  0  0  0  0  0  0  0  0  0  0
   38.1610   30.7910   50.6280 C   0  0  0  0  0  0  0  0  0  0  0  0
   37.3230   30.0210   51.6480 C   0  0  0  0  0  0  0  0  0  0  0  0
   36.0570   29.4350   51.0820 C   0  0  0  0  0  0  0  0  0  0  0  0
   36.2060   29.3290   49.5530 C   0  0  1  0  0  0  0  0  0  0  0  0
   35.2040   31.1310   49.0160 H   0  0  0  0  0  0  0  0  0  0  0  0
   36.6200   32.1910   50.4280 H   0  0  0  0  0  0  0  0  0  0  0  0
   37.7810   32.3090   49.1220 H   0  0  0  0  0  0  0  0  0  0  0  0
   38.7980   30.0670   50.0980 H   0  0  0  0  0  0  0  0  0  0  0  0
   38.7390   31.5390   51.2020 H   0  0  0  0  0  0  0  0  0  0  0  0
   37.9660   29.1880   52.0310 H   0  0  0  0  0  0  0  0  0  0  0  0
   37.0450   30.6890   52.4970 H   0  0  0  0  0  0  0  0  0  0  0  0
   35.8320   28.4150   51.4640 H   0  0  0  0  0  0  0  0  0  0  0  0
   35.1720   30.0780   51.2440 H   0  0  0  0  0  0  0  0  0  0  0  0
   37.1560   28.8540   49.4920 H   0  0  0  0  0  0  0  0  0  0  0  0
   36.5780   30.6190   47.5380 C   0  0  0  0  0  0  0  0  0  0  0  0
   37.9240   30.8790   47.1920 C   0  0  0  0  0  0  0  0  0  0  0  0
   38.2370   30.7920   45.8310 C   0  0  0  0  0  0  0  0  0  0  0  0
   37.2510   30.4680   44.9310 N   0  0  0  0  0  0  0  0  0  0  0  0
   35.9570   30.2240   45.3260 C   0  0  0  0  0  0  0  0  0  0  0  0
   35.6440   30.3050   46.6330 N   0  0  0  0  0  0  0  0  0  0  0  0
   38.7680   31.1290   47.8000 H   0  0  0  0  0  0  0  0  0  0  0  0
   39.2200   30.9650   45.4210 H   0  0  0  0  0  0  0  0  0  0  0  0
   35.2640   29.9770   44.5410 H   0  0  0  0  0  0  0  0  0  0  0  0
   33.8840   28.3820   49.1460 C   0  0  0  0  0  0  0  0  0  0  0  0
   33.1140   29.0660   49.8830 O   0  0  0  0  0  0  0  0  0  0  0  0
   35.2870   28.4540   48.9240 N   0  0  0  0  0  0  0  0  0  0  0  0
   35.6250   27.7480   48.1930 H   0  0  0  0  0  0  0  0  0  0  0  0
   33.0820   27.3630   48.4430 C   0  0  0  0  0  0  0  0  0  0  0  0
   31.7190   27.1970   48.4080 C   0  0  0  0  0  0  0  0  0  0  0  0
   30.9770   27.7950   48.8960 H   0  0  0  0  0  0  0  0  0  0  0  0
   31.3650   26.1300   47.6410 N   0  0  0  0  0  0  0  0  0  0  0  0
   30.3930   25.7940   47.4540 H   0  0  0  0  0  0  0  0  0  0  0  0
   32.5130   25.6150   47.1870 C   0  0  0  0  0  0  0  0  0  0  0  0
   32.5870   24.7540   46.5460 H   0  0  0  0  0  0  0  0  0  0  0  0
   33.5340   26.3460   47.6630 N   0  0  0  0  0  0  0  0  0  0  0  0
  1  7  1  1  0  0  0
  1  6  1  0  0  0  0
  1  2  1  0  0  0  0
  2  8  1  0  0  0  0
  2  3  1  0  0  0  0
  3 11  1  0  0  0  0
  3  4  1  0  0  0  0
  4 12  1  0  0  0  0
  4 13  1  0  0  0  0
  5 15  1  0  0  0  0
  5 14  1  0  0  0  0
  5  4  1  0  0  0  0
  6 16  1  6  0  0  0
  6  5  1  0  0  0  0
  9  2  1  0  0  0  0
 10  3  1  0  0  0  0
 17  1  1  0  0  0  0
 18 17  1  0  0  0  0
 18 23  1  0  0  0  0
 19 18  2  0  0  0  0
 20 21  2  0  0  0  0
 20 19  1  0  0  0  0
 21 22  1  0  0  0  0
 22 17  2  0  0  0  0
 24 19  1  0  0  0  0
 25 21  1  0  0  0  0
 26 27  2  0  0  0  0
 28 26  1  0  0  0  0
 28  6  1  0  0  0  0
 29 28  1  0  0  0  0
 30 26  1  0  0  0  0
 31 30  2  0  0  0  0
 31 32  1  0  0  0  0
 33 31  1  0  0  0  0
 34 33  1  0  0  0  0
 35 33  1  0  0  0  0
 35 37  2  0  0  0  0
 36 35  1  0  0  0  0
 37 30  1  0  0  0  0
M  END
>  <minimizedAffinity>
-5.75418711

>  <minimizedRMSD>
0.353451014

$$$$
