
 OpenBabel03272509353D

 46 50  0  0  1  0  0  0  0  0999 V2000
   36.5800   30.3700   44.3710 C   0  0  1  0  0  0  0  0  0  0  0  0
   37.6900   31.1580   44.9660 C   0  0  0  0  0  0  0  0  0  0  0  0
   37.9820   29.7480   44.8020 C   0  0  2  0  0  0  0  0  0  0  0  0
   36.3830   30.2790   43.3120 H   0  0  0  0  0  0  0  0  0  0  0  0
   37.5090   31.4790   46.0380 H   0  0  0  0  0  0  0  0  0  0  0  0
   37.9090   32.0220   44.3530 H   0  0  0  0  0  0  0  0  0  0  0  0
   37.7780   28.8910   45.4310 H   0  0  0  0  0  0  0  0  0  0  0  0
   38.9790   29.5310   43.6990 C   0  0  0  0  0  0  0  0  0  0  0  0
   39.9260   30.5510   43.6860 C   0  0  0  0  0  0  0  0  0  0  0  0
   40.9910   30.4950   42.8260 C   0  0  0  0  0  0  0  0  0  0  0  0
   41.1500   29.4160   41.9470 C   0  0  0  0  0  0  0  0  0  0  0  0
   40.1910   28.4120   41.9830 C   0  0  0  0  0  0  0  0  0  0  0  0
   40.2300   27.3150   41.1700 C   0  0  0  0  0  0  0  0  0  0  0  0
   39.2860   26.3210   41.1870 C   0  0  0  0  0  0  0  0  0  0  0  0
   38.2270   26.4340   42.0790 C   0  0  0  0  0  0  0  0  0  0  0  0
   38.1810   27.5360   42.9020 C   0  0  0  0  0  0  0  0  0  0  0  0
   39.1600   28.5130   42.8480 C   0  0  0  0  0  0  0  0  0  0  0  0
   40.0920   31.4650   44.2190 H   0  0  0  0  0  0  0  0  0  0  0  0
   41.8110   31.1800   42.6730 H   0  0  0  0  0  0  0  0  0  0  0  0
   41.9400   29.2410   41.2170 H   0  0  0  0  0  0  0  0  0  0  0  0
   41.0350   27.1860   40.4600 H   0  0  0  0  0  0  0  0  0  0  0  0
   39.3180   25.4600   40.5470 H   0  0  0  0  0  0  0  0  0  0  0  0
   37.4410   25.6980   42.1580 H   0  0  0  0  0  0  0  0  0  0  0  0
   37.3340   27.6120   43.6060 H   0  0  0  0  0  0  0  0  0  0  0  0
   33.4150   28.8180   45.7130 C   0  0  0  0  0  0  0  0  0  0  0  0
   34.4510   29.2000   44.8140 C   0  0  0  0  0  0  0  0  0  0  0  0
   35.4880   29.9480   45.2870 C   0  0  0  0  0  0  0  0  0  0  0  0
   35.4440   30.2800   46.6260 N   0  0  0  0  0  0  0  0  0  0  0  0
   34.4660   29.9160   47.4560 C   0  0  0  0  0  0  0  0  0  0  0  0
   33.4350   29.1800   47.0210 N   0  0  0  0  0  0  0  0  0  0  0  0
   32.6070   28.2240   45.3040 H   0  0  0  0  0  0  0  0  0  0  0  0
   34.3630   28.8700   43.7820 H   0  0  0  0  0  0  0  0  0  0  0  0
   34.5700   30.3690   48.8980 C   0  0  0  0  0  0  0  0  0  0  0  0
   33.8450   31.2200   48.9770 H   0  0  0  0  0  0  0  0  0  0  0  0
   34.3680   29.5490   49.5870 H   0  0  0  0  0  0  0  0  0  0  0  0
   35.9680   30.9680   49.0750 C   0  0  0  0  0  0  0  0  0  0  0  0
   36.4640   30.9730   48.0840 H   0  0  0  0  0  0  0  0  0  0  0  0
   35.7860   32.0310   49.3780 H   0  0  0  0  0  0  0  0  0  0  0  0
   36.7490   30.2500   50.0890 C   0  0  0  0  0  0  0  0  0  0  0  0
   37.4400   29.0420   49.9610 C   0  0  0  0  0  0  0  0  0  0  0  0
   37.5100   28.4340   49.0770 H   0  0  0  0  0  0  0  0  0  0  0  0
   37.9750   28.8390   51.1750 N   0  0  0  0  0  0  0  0  0  0  0  0
   38.5620   27.9720   51.3500 H   0  0  0  0  0  0  0  0  0  0  0  0
   37.6830   29.8080   52.0520 C   0  0  0  0  0  0  0  0  0  0  0  0
   38.0120   29.8440   53.0860 H   0  0  0  0  0  0  0  0  0  0  0  0
   36.9280   30.6590   51.3520 N   0  0  0  0  0  0  0  0  0  0  0  0
  1  4  1  6  0  0  0
  1  3  1  0  0  0  0
  1  2  1  0  0  0  0
  1 27  1  0  0  0  0
  2  5  1  0  0  0  0
  3  2  1  0  0  0  0
  3  7  1  1  0  0  0
  6  2  1  0  0  0  0
  8  3  1  0  0  0  0
  9  8  1  0  0  0  0
  9 18  1  0  0  0  0
 10  9  2  0  0  0  0
 11 12  2  0  0  0  0
 11 10  1  0  0  0  0
 12 17  1  0  0  0  0
 13 14  2  0  0  0  0
 13 12  1  0  0  0  0
 14 15  1  0  0  0  0
 15 23  1  0  0  0  0
 15 16  2  0  0  0  0
 16 24  1  0  0  0  0
 17 16  1  0  0  0  0
 17  8  2  0  0  0  0
 19 10  1  0  0  0  0
 20 11  1  0  0  0  0
 21 13  1  0  0  0  0
 22 14  1  0  0  0  0
 25 30  1  0  0  0  0
 26 27  1  0  0  0  0
 26 25  2  0  0  0  0
 27 28  2  0  0  0  0
 28 29  1  0  0  0  0
 29 33  1  0  0  0  0
 30 29  2  0  0  0  0
 31 25  1  0  0  0  0
 32 26  1  0  0  0  0
 33 34  1  0  0  0  0
 33 36  1  0  0  0  0
 33 35  1  0  0  0  0
 36 38  1  0  0  0  0
 36 39  1  0  0  0  0
 37 36  1  0  0  0  0
 39 46  1  0  0  0  0
 40 39  2  0  0  0  0
 40 42  1  0  0  0  0
 41 40  1  0  0  0  0
 42 43  1  0  0  0  0
 42 44  1  0  0  0  0
 44 45  1  0  0  0  0
 46 44  2  0  0  0  0
M  END
>  <minimizedAffinity>
-4.92277718

>  <minimizedRMSD>
3.26709104

$$$$
