
 OpenBabel03272509353D

 46 50  0  0  1  0  0  0  0  0999 V2000
   36.3480   30.5540   44.5430 C   0  0  1  0  0  0  0  0  0  0  0  0
   37.4270   31.2330   45.3040 C   0  0  0  0  0  0  0  0  0  0  0  0
   37.6920   29.8390   45.0120 C   0  0  2  0  0  0  0  0  0  0  0  0
   36.2350   30.5820   43.4670 H   0  0  0  0  0  0  0  0  0  0  0  0
   37.1680   31.4450   46.3870 H   0  0  0  0  0  0  0  0  0  0  0  0
   37.7180   32.1480   44.8080 H   0  0  0  0  0  0  0  0  0  0  0  0
   37.4130   28.9280   45.5260 H   0  0  0  0  0  0  0  0  0  0  0  0
   38.7680   29.7040   43.9720 C   0  0  0  0  0  0  0  0  0  0  0  0
   39.6740   30.7580   44.0640 C   0  0  0  0  0  0  0  0  0  0  0  0
   40.7960   30.7760   43.2780 C   0  0  0  0  0  0  0  0  0  0  0  0
   41.0570   29.7410   42.3710 C   0  0  0  0  0  0  0  0  0  0  0  0
   40.1380   28.7020   42.3020 C   0  0  0  0  0  0  0  0  0  0  0  0
   40.2750   27.6420   41.4520 C   0  0  0  0  0  0  0  0  0  0  0  0
   39.3710   26.6150   41.3640 C   0  0  0  0  0  0  0  0  0  0  0  0
   38.2510   26.6520   42.1850 C   0  0  0  0  0  0  0  0  0  0  0  0
   38.1060   27.7160   43.0450 C   0  0  0  0  0  0  0  0  0  0  0  0
   39.0470   28.7300   43.0970 C   0  0  0  0  0  0  0  0  0  0  0  0
   39.7670   31.6550   44.6430 H   0  0  0  0  0  0  0  0  0  0  0  0
   41.5970   31.4970   43.2090 H   0  0  0  0  0  0  0  0  0  0  0  0
   41.9000   29.6260   41.6910 H   0  0  0  0  0  0  0  0  0  0  0  0
   41.1300   27.5720   40.7950 H   0  0  0  0  0  0  0  0  0  0  0  0
   39.4800   25.7820   40.6960 H   0  0  0  0  0  0  0  0  0  0  0  0
   37.4900   25.8850   42.1810 H   0  0  0  0  0  0  0  0  0  0  0  0
   37.2110   27.7320   43.6910 H   0  0  0  0  0  0  0  0  0  0  0  0
   32.9280   29.2370   45.4420 C   0  0  0  0  0  0  0  0  0  0  0  0
   34.0410   29.6810   44.6710 C   0  0  0  0  0  0  0  0  0  0  0  0
   35.1730   30.0770   45.3190 C   0  0  0  0  0  0  0  0  0  0  0  0
   35.1450   30.0120   46.6980 N   0  0  0  0  0  0  0  0  0  0  0  0
   34.0960   29.5950   47.4070 C   0  0  0  0  0  0  0  0  0  0  0  0
   32.9690   29.2000   46.7980 N   0  0  0  0  0  0  0  0  0  0  0  0
   32.0450   28.9300   44.8940 H   0  0  0  0  0  0  0  0  0  0  0  0
   33.9300   29.6810   43.5900 H   0  0  0  0  0  0  0  0  0  0  0  0
   34.2300   29.5910   48.9150 C   0  0  0  0  0  0  0  0  0  0  0  0
   34.5820   30.6250   49.1680 H   0  0  0  0  0  0  0  0  0  0  0  0
   33.2920   29.3130   49.3960 H   0  0  0  0  0  0  0  0  0  0  0  0
   35.3800   28.6410   49.2560 C   0  0  0  0  0  0  0  0  0  0  0  0
   34.9500   27.7540   49.7630 H   0  0  0  0  0  0  0  0  0  0  0  0
   35.7820   28.3130   48.2640 H   0  0  0  0  0  0  0  0  0  0  0  0
   36.4160   29.2980   50.0600 C   0  0  0  0  0  0  0  0  0  0  0  0
   37.5930   29.9170   49.6260 C   0  0  0  0  0  0  0  0  0  0  0  0
   37.9320   30.0110   48.6100 H   0  0  0  0  0  0  0  0  0  0  0  0
   38.1730   30.3490   50.7580 N   0  0  0  0  0  0  0  0  0  0  0  0
   39.1000   30.8640   50.7060 H   0  0  0  0  0  0  0  0  0  0  0  0
   37.4690   30.0590   51.8580 C   0  0  0  0  0  0  0  0  0  0  0  0
   37.7540   30.3140   52.8750 H   0  0  0  0  0  0  0  0  0  0  0  0
   36.3960   29.4130   51.3940 N   0  0  0  0  0  0  0  0  0  0  0  0
  1  4  1  6  0  0  0
  1  3  1  0  0  0  0
  1  2  1  0  0  0  0
  1 27  1  0  0  0  0
  2  5  1  0  0  0  0
  3  2  1  0  0  0  0
  3  7  1  1  0  0  0
  6  2  1  0  0  0  0
  8  9  1  0  0  0  0
  8  3  1  0  0  0  0
  9 18  1  0  0  0  0
 10  9  2  0  0  0  0
 11 10  1  0  0  0  0
 12 11  2  0  0  0  0
 12 17  1  0  0  0  0
 13 12  1  0  0  0  0
 14 13  2  0  0  0  0
 14 15  1  0  0  0  0
 15 16  2  0  0  0  0
 16 17  1  0  0  0  0
 16 24  1  0  0  0  0
 17  8  2  0  0  0  0
 19 10  1  0  0  0  0
 20 11  1  0  0  0  0
 21 13  1  0  0  0  0
 22 14  1  0  0  0  0
 23 15  1  0  0  0  0
 25 30  1  0  0  0  0
 26 27  1  0  0  0  0
 26 25  2  0  0  0  0
 27 28  2  0  0  0  0
 28 29  1  0  0  0  0
 29 33  1  0  0  0  0
 30 29  2  0  0  0  0
 31 25  1  0  0  0  0
 32 26  1  0  0  0  0
 33 34  1  0  0  0  0
 33 36  1  0  0  0  0
 33 35  1  0  0  0  0
 36 37  1  0  0  0  0
 36 39  1  0  0  0  0
 38 36  1  0  0  0  0
 39 46  1  0  0  0  0
 40 39  2  0  0  0  0
 40 42  1  0  0  0  0
 41 40  1  0  0  0  0
 42 44  1  0  0  0  0
 43 42  1  0  0  0  0
 44 45  1  0  0  0  0
 46 44  2  0  0  0  0
M  END
>  <minimizedAffinity>
-5.60558796

>  <minimizedRMSD>
3.27547169

$$$$
