
 OpenBabel03272505093D

 28 30  0  0  0  0  0  0  0  0999 V2000
   36.4390   30.8710   45.8140 Cl  0  0  0  0  0  0  0  0  0  0  0  0
   36.7760   30.8690   47.5280 C   0  0  0  0  0  0  0  0  0  0  0  0
   38.0450   31.2320   47.9280 C   0  0  0  0  0  0  0  0  0  0  0  0
   38.3240   31.2350   49.2850 C   0  0  0  0  0  0  0  0  0  0  0  0
   37.3410   30.8790   50.1780 C   0  0  0  0  0  0  0  0  0  0  0  0
   36.0880   30.5240   49.7170 C   0  0  0  0  0  0  0  0  0  0  0  0
   35.7460   30.5020   48.3850 C   0  0  0  0  0  0  0  0  0  0  0  0
   39.3150   31.5190   49.5930 H   0  0  0  0  0  0  0  0  0  0  0  0
   37.5910   30.8910   51.2350 H   0  0  0  0  0  0  0  0  0  0  0  0
   35.3330   30.2480   50.4480 H   0  0  0  0  0  0  0  0  0  0  0  0
   40.2660   33.3150   45.9120 C   0  0  0  0  0  0  0  0  0  0  0  0
   40.9320   32.4060   45.0770 C   0  0  0  0  0  0  0  0  0  0  0  0
   40.5990   31.0640   45.2250 C   0  0  0  0  0  0  0  0  0  0  0  0
   39.6630   30.7120   46.1540 N   0  0  0  0  0  0  0  0  0  0  0  0
   39.0550   31.6030   46.9240 C   0  0  0  0  0  0  0  0  0  0  0  0
   39.3580   32.9110   46.8040 N   0  0  0  0  0  0  0  0  0  0  0  0
   40.5270   34.3590   45.7930 H   0  0  0  0  0  0  0  0  0  0  0  0
   41.6670   32.6740   44.3460 H   0  0  0  0  0  0  0  0  0  0  0  0
   41.0480   30.2760   44.6360 H   0  0  0  0  0  0  0  0  0  0  0  0
   34.1500   30.0580   47.7650 S   0  0  0  0  0  0  0  0  0  0  0  0
   34.0040   28.3150   47.3950 C   0  0  0  0  0  0  0  0  0  0  0  0
   33.9680   27.1780   48.1990 C   0  0  0  0  0  0  0  0  0  0  0  0
   34.0360   27.2660   49.2710 H   0  0  0  0  0  0  0  0  0  0  0  0
   33.8450   26.1050   47.3890 N   0  0  0  0  0  0  0  0  0  0  0  0
   33.7990   25.1450   47.7980 H   0  0  0  0  0  0  0  0  0  0  0  0
   33.8060   26.5770   46.1280 C   0  0  0  0  0  0  0  0  0  0  0  0
   33.7070   25.8260   45.3430 H   0  0  0  0  0  0  0  0  0  0  0  0
   33.9020   27.9210   46.1330 N   0  0  0  0  0  0  0  0  0  0  0  0
  1  2  1  0  0  0  0
  2  3  2  0  0  0  0
  2  7  1  0  0  0  0
  3  4  1  0  0  0  0
  4  8  1  0  0  0  0
  4  5  2  0  0  0  0
  5  9  1  0  0  0  0
  6  5  1  0  0  0  0
  6 10  1  0  0  0  0
  7  6  2  0  0  0  0
 11 16  1  0  0  0  0
 12 13  1  0  0  0  0
 12 11  2  0  0  0  0
 13 14  2  0  0  0  0
 14 15  1  0  0  0  0
 15  3  1  0  0  0  0
 16 15  2  0  0  0  0
 17 11  1  0  0  0  0
 18 12  1  0  0  0  0
 19 13  1  0  0  0  0
 20  7  1  0  0  0  0
 21 20  1  0  0  0  0
 21 22  2  0  0  0  0
 22 23  1  0  0  0  0
 24 25  1  0  0  0  0
 24 22  1  0  0  0  0
 26 28  2  0  0  0  0
 26 24  1  0  0  0  0
 27 26  1  0  0  0  0
 28 21  1  0  0  0  0
M  END
>  <minimizedAffinity>
-5.33260345

>  <minimizedRMSD>
0.808938444

$$$$
