
 OpenBabel03262523353D

 33 35  0  0  1  0  0  0  0  0999 V2000
   35.5030   30.0490   49.7930 C   0  0  2  0  0  0  0  0  0  0  0  0
   36.3590   31.1090   49.1320 C   0  0  0  0  0  0  0  0  0  0  0  0
   37.8230   30.9010   49.3630 C   0  0  2  0  0  0  0  0  0  0  0  0
   38.1950   30.7450   50.8110 C   0  0  0  0  0  0  0  0  0  0  0  0
   37.2100   29.9390   51.6020 C   0  0  0  0  0  0  0  0  0  0  0  0
   36.2590   29.1620   50.7150 C   0  0  0  0  0  0  0  0  0  0  0  0
   34.7130   30.5930   50.3700 H   0  0  0  0  0  0  0  0  0  0  0  0
   36.0900   32.1290   49.4650 H   0  0  0  0  0  0  0  0  0  0  0  0
   36.2280   31.1330   48.0180 H   0  0  0  0  0  0  0  0  0  0  0  0
   38.2380   30.0890   48.7270 H   0  0  0  0  0  0  0  0  0  0  0  0
   39.1790   30.2210   50.8680 H   0  0  0  0  0  0  0  0  0  0  0  0
   38.4000   31.7390   51.2990 H   0  0  0  0  0  0  0  0  0  0  0  0
   36.5610   30.7030   52.1230 H   0  0  0  0  0  0  0  0  0  0  0  0
   37.6500   29.2730   52.3560 H   0  0  0  0  0  0  0  0  0  0  0  0
   35.5630   28.6100   51.3510 H   0  0  0  0  0  0  0  0  0  0  0  0
   36.8710   28.4310   50.1540 H   0  0  0  0  0  0  0  0  0  0  0  0
   34.8650   29.1980   48.7490 C   0  0  0  0  0  0  0  0  0  0  0  0
   34.7330   29.7770   47.4740 C   0  0  0  0  0  0  0  0  0  0  0  0
   34.1200   28.9900   46.4880 C   0  0  0  0  0  0  0  0  0  0  0  0
   33.6910   27.7240   46.8170 N   0  0  0  0  0  0  0  0  0  0  0  0
   33.8380   27.2080   48.0560 C   0  0  0  0  0  0  0  0  0  0  0  0
   34.4240   27.9530   49.0070 N   0  0  0  0  0  0  0  0  0  0  0  0
   35.0710   30.7710   47.2190 H   0  0  0  0  0  0  0  0  0  0  0  0
   33.9710   29.3320   45.4890 H   0  0  0  0  0  0  0  0  0  0  0  0
   33.4910   26.2110   48.2820 H   0  0  0  0  0  0  0  0  0  0  0  0
   38.4950   32.1570   48.8760 C   0  0  0  0  0  0  0  0  0  0  0  0
   38.8740   32.4150   47.5690 C   0  0  0  0  0  0  0  0  0  0  0  0
   38.7400   31.7520   46.7220 H   0  0  0  0  0  0  0  0  0  0  0  0
   39.4320   33.6430   47.5970 N   0  0  0  0  0  0  0  0  0  0  0  0
   39.8110   34.0930   46.7280 H   0  0  0  0  0  0  0  0  0  0  0  0
   39.4200   34.1590   48.8400 C   0  0  0  0  0  0  0  0  0  0  0  0
   39.8280   35.1400   49.0440 H   0  0  0  0  0  0  0  0  0  0  0  0
   38.8380   33.2360   49.6370 N   0  0  0  0  0  0  0  0  0  0  0  0
  1  7  1  1  0  0  0
  1  6  1  0  0  0  0
  2  3  1  0  0  0  0
  2  8  1  0  0  0  0
  2  1  1  0  0  0  0
  3 10  1  6  0  0  0
  3  4  1  0  0  0  0
  4 11  1  0  0  0  0
  4 12  1  0  0  0  0
  4  5  1  0  0  0  0
  5 13  1  0  0  0  0
  5 14  1  0  0  0  0
  6 15  1  0  0  0  0
  6  5  1  0  0  0  0
  9  2  1  0  0  0  0
 16  6  1  0  0  0  0
 17 22  1  0  0  0  0
 17  1  1  0  0  0  0
 18 17  2  0  0  0  0
 19 20  2  0  0  0  0
 19 18  1  0  0  0  0
 20 21  1  0  0  0  0
 21 25  1  0  0  0  0
 21 22  2  0  0  0  0
 23 18  1  0  0  0  0
 24 19  1  0  0  0  0
 26  3  1  0  0  0  0
 26 33  1  0  0  0  0
 27 29  1  0  0  0  0
 27 26  2  0  0  0  0
 28 27  1  0  0  0  0
 29 31  1  0  0  0  0
 30 29  1  0  0  0  0
 31 32  1  0  0  0  0
 31 33  2  0  0  0  0
M  END
>  <minimizedAffinity>
-6.46406841

>  <minimizedRMSD>
0.717998922

$$$$
