
 OpenBabel03272507513D

 27 29  0  0  0  0  0  0  0  0999 V2000
   38.0530   24.7650   34.3520 C   0  0  0  0  0  0  0  0  0  0  0  0
   38.7420   25.0570   35.5400 C   0  0  0  0  0  0  0  0  0  0  0  0
   38.6110   26.3420   36.0980 C   0  0  0  0  0  0  0  0  0  0  0  0
   37.8180   27.2390   35.4560 N   0  0  0  0  0  0  0  0  0  0  0  0
   37.1690   26.9460   34.3280 C   0  0  0  0  0  0  0  0  0  0  0  0
   37.2790   25.7270   33.7760 N   0  0  0  0  0  0  0  0  0  0  0  0
   39.1550   26.5350   37.0130 H   0  0  0  0  0  0  0  0  0  0  0  0
   36.5350   27.6870   33.8280 H   0  0  0  0  0  0  0  0  0  0  0  0
   39.5480   24.0330   36.1270 N   0  0  0  0  0  0  0  0  0  0  0  0
   40.8200   23.8190   35.7070 C   0  0  0  0  0  0  0  0  0  0  0  0
   41.5810   22.8210   36.3230 C   0  0  0  0  0  0  0  0  0  0  0  0
   40.9250   22.1480   37.3200 C   0  0  0  0  0  0  0  0  0  0  0  0
   41.6340   21.2420   37.8740 O   0  0  0  0  0  0  0  0  0  0  0  0
   39.6660   22.3330   37.7590 N   0  0  0  0  0  0  0  0  0  0  0  0
   38.9820   23.3120   37.1240 C   0  0  0  0  0  0  0  0  0  0  0  0
   37.8080   23.5120   37.5060 O   0  0  0  0  0  0  0  0  0  0  0  0
   41.2380   24.4150   34.9070 H   0  0  0  0  0  0  0  0  0  0  0  0
   42.5760   22.6240   36.0260 H   0  0  0  0  0  0  0  0  0  0  0  0
   39.2560   21.7630   38.5280 H   0  0  0  0  0  0  0  0  0  0  0  0
   38.1240   23.4750   33.6800 C   0  0  0  0  0  0  0  0  0  0  0  0
   38.8660   23.2000   32.5540 C   0  0  0  0  0  0  0  0  0  0  0  0
   39.5120   23.8760   31.9800 H   0  0  0  0  0  0  0  0  0  0  0  0
   38.7270   21.9220   32.1730 N   0  0  0  0  0  0  0  0  0  0  0  0
   39.1700   21.4440   31.3610 H   0  0  0  0  0  0  0  0  0  0  0  0
   37.9020   21.3530   33.0370 C   0  0  0  0  0  0  0  0  0  0  0  0
   37.5480   20.3210   33.0570 H   0  0  0  0  0  0  0  0  0  0  0  0
   37.5540   22.2850   33.9230 N   0  0  0  0  0  0  0  0  0  0  0  0
  1  2  1  0  0  0  0
  2  3  2  0  0  0  0
  2  9  1  0  0  0  0
  3  7  1  0  0  0  0
  4  3  1  0  0  0  0
  5  4  2  0  0  0  0
  6  5  1  0  0  0  0
  6  1  2  0  0  0  0
  8  5  1  0  0  0  0
  9 15  1  0  0  0  0
 10  9  1  0  0  0  0
 10 11  2  0  0  0  0
 11 12  1  0  0  0  0
 12 14  1  0  0  0  0
 12 13  2  0  0  0  0
 14 19  1  0  0  0  0
 15 16  2  0  0  0  0
 15 14  1  0  0  0  0
 17 10  1  0  0  0  0
 18 11  1  0  0  0  0
 20 27  1  0  0  0  0
 20  1  1  0  0  0  0
 21 20  2  0  0  0  0
 22 21  1  0  0  0  0
 23 21  1  0  0  0  0
 23 25  1  0  0  0  0
 24 23  1  0  0  0  0
 25 26  1  0  0  0  0
 25 27  2  0  0  0  0
M  END
>  <minimizedAffinity>
-4.87754631

$$$$

 OpenBabel03272507513D

 27 29  0  0  0  0  0  0  0  0999 V2000
   37.8370   24.5950   33.4780 C   0  0  0  0  0  0  0  0  0  0  0  0
   38.2490   23.2530   33.5160 C   0  0  0  0  0  0  0  0  0  0  0  0
   37.8110   22.3830   32.5000 C   0  0  0  0  0  0  0  0  0  0  0  0
   37.0090   22.8880   31.5280 N   0  0  0  0  0  0  0  0  0  0  0  0
   36.6260   24.1660   31.5050 C   0  0  0  0  0  0  0  0  0  0  0  0
   37.0300   25.0160   32.4640 N   0  0  0  0  0  0  0  0  0  0  0  0
   38.1460   21.3560   32.5590 H   0  0  0  0  0  0  0  0  0  0  0  0
   35.9770   24.5520   30.7100 H   0  0  0  0  0  0  0  0  0  0  0  0
   39.0950   22.8330   34.5880 N   0  0  0  0  0  0  0  0  0  0  0  0
   40.4430   22.9760   34.5100 C   0  0  0  0  0  0  0  0  0  0  0  0
   41.2330   22.5720   35.5910 C   0  0  0  0  0  0  0  0  0  0  0  0
   40.5240   22.0570   36.6450 C   0  0  0  0  0  0  0  0  0  0  0  0
   41.2600   21.6950   37.6230 O   0  0  0  0  0  0  0  0  0  0  0  0
   39.1920   21.8990   36.7520 N   0  0  0  0  0  0  0  0  0  0  0  0
   38.4830   22.3090   35.6760 C   0  0  0  0  0  0  0  0  0  0  0  0
   37.2410   22.1770   35.7410 O   0  0  0  0  0  0  0  0  0  0  0  0
   40.8960   23.3980   33.6240 H   0  0  0  0  0  0  0  0  0  0  0  0
   42.2850   22.6680   35.5700 H   0  0  0  0  0  0  0  0  0  0  0  0
   38.7480   21.4920   37.6020 H   0  0  0  0  0  0  0  0  0  0  0  0
   38.2180   25.5790   34.4810 C   0  0  0  0  0  0  0  0  0  0  0  0
   39.2620   26.4690   34.3710 C   0  0  0  0  0  0  0  0  0  0  0  0
   39.9690   26.5930   33.5410 H   0  0  0  0  0  0  0  0  0  0  0  0
   39.3600   27.2480   35.4580 N   0  0  0  0  0  0  0  0  0  0  0  0
   40.0540   28.0030   35.6440 H   0  0  0  0  0  0  0  0  0  0  0  0
   38.3920   26.8800   36.2800 C   0  0  0  0  0  0  0  0  0  0  0  0
   38.1510   27.2830   37.2660 H   0  0  0  0  0  0  0  0  0  0  0  0
   37.7240   25.8920   35.6880 N   0  0  0  0  0  0  0  0  0  0  0  0
  1  2  1  0  0  0  0
  1 20  1  0  0  0  0
  2  9  1  0  0  0  0
  3  7  1  0  0  0  0
  3  2  2  0  0  0  0
  4  3  1  0  0  0  0
  5  4  2  0  0  0  0
  5  6  1  0  0  0  0
  6  1  2  0  0  0  0
  8  5  1  0  0  0  0
  9 15  1  0  0  0  0
 10  9  1  0  0  0  0
 10 11  2  0  0  0  0
 11 12  1  0  0  0  0
 12 14  1  0  0  0  0
 12 13  2  0  0  0  0
 14 19  1  0  0  0  0
 15 16  2  0  0  0  0
 15 14  1  0  0  0  0
 17 10  1  0  0  0  0
 18 11  1  0  0  0  0
 20 27  1  0  0  0  0
 21 20  2  0  0  0  0
 21 23  1  0  0  0  0
 22 21  1  0  0  0  0
 23 24  1  0  0  0  0
 23 25  1  0  0  0  0
 25 26  1  0  0  0  0
 27 25  2  0  0  0  0
M  END
>  <minimizedAffinity>
-4.77668381

$$$$

 OpenBabel03272507513D

 27 29  0  0  0  0  0  0  0  0999 V2000
   40.2440   23.7220   35.6390 C   0  0  0  0  0  0  0  0  0  0  0  0
   40.3220   24.8540   34.8130 C   0  0  0  0  0  0  0  0  0  0  0  0
   41.4940   25.0630   34.0630 C   0  0  0  0  0  0  0  0  0  0  0  0
   42.4960   24.1530   34.1770 N   0  0  0  0  0  0  0  0  0  0  0  0
   42.4070   23.0820   34.9670 C   0  0  0  0  0  0  0  0  0  0  0  0
   41.2990   22.8610   35.6930 N   0  0  0  0  0  0  0  0  0  0  0  0
   41.5230   25.9450   33.4360 H   0  0  0  0  0  0  0  0  0  0  0  0
   43.2290   22.3610   35.0430 H   0  0  0  0  0  0  0  0  0  0  0  0
   39.2040   25.7440   34.7720 N   0  0  0  0  0  0  0  0  0  0  0  0
   39.1180   26.7950   35.6270 C   0  0  0  0  0  0  0  0  0  0  0  0
   38.0180   27.6530   35.5380 C   0  0  0  0  0  0  0  0  0  0  0  0
   37.1190   27.3180   34.5600 C   0  0  0  0  0  0  0  0  0  0  0  0
   36.1230   28.1130   34.4920 O   0  0  0  0  0  0  0  0  0  0  0  0
   37.1740   26.2840   33.7000 N   0  0  0  0  0  0  0  0  0  0  0  0
   38.2610   25.4910   33.8350 C   0  0  0  0  0  0  0  0  0  0  0  0
   38.3450   24.5190   33.0520 O   0  0  0  0  0  0  0  0  0  0  0  0
   39.8910   26.9640   36.3630 H   0  0  0  0  0  0  0  0  0  0  0  0
   37.9140   28.4840   36.1850 H   0  0  0  0  0  0  0  0  0  0  0  0
   36.4320   26.1140   32.9880 H   0  0  0  0  0  0  0  0  0  0  0  0
   39.0870   23.4120   36.4670 C   0  0  0  0  0  0  0  0  0  0  0  0
   38.0540   22.5720   36.1150 C   0  0  0  0  0  0  0  0  0  0  0  0
   37.9200   22.0080   35.1840 H   0  0  0  0  0  0  0  0  0  0  0  0
   37.1350   22.4890   37.0880 N   0  0  0  0  0  0  0  0  0  0  0  0
   36.2560   21.9310   37.0920 H   0  0  0  0  0  0  0  0  0  0  0  0
   37.5530   23.2630   38.0760 C   0  0  0  0  0  0  0  0  0  0  0  0
   37.0730   23.4520   39.0380 H   0  0  0  0  0  0  0  0  0  0  0  0
   38.7100   23.8020   37.6940 N   0  0  0  0  0  0  0  0  0  0  0  0
  1  6  1  0  0  0  0
  1 20  1  0  0  0  0
  2  1  2  0  0  0  0
  3  4  2  0  0  0  0
  3  2  1  0  0  0  0
  4  5  1  0  0  0  0
  5  8  1  0  0  0  0
  5  6  2  0  0  0  0
  7  3  1  0  0  0  0
  9  2  1  0  0  0  0
  9 10  1  0  0  0  0
 10 17  1  0  0  0  0
 11 10  2  0  0  0  0
 11 18  1  0  0  0  0
 12 11  1  0  0  0  0
 13 12  2  0  0  0  0
 14 15  1  0  0  0  0
 14 12  1  0  0  0  0
 15  9  1  0  0  0  0
 16 15  2  0  0  0  0
 19 14  1  0  0  0  0
 20 27  1  0  0  0  0
 21 20  2  0  0  0  0
 21 23  1  0  0  0  0
 22 21  1  0  0  0  0
 23 24  1  0  0  0  0
 23 25  1  0  0  0  0
 25 26  1  0  0  0  0
 27 25  2  0  0  0  0
M  END
>  <minimizedAffinity>
-4.70527935

$$$$

 OpenBabel03272507513D

 27 29  0  0  0  0  0  0  0  0999 V2000
   38.0020   24.6680   33.7700 C   0  0  0  0  0  0  0  0  0  0  0  0
   37.8610   24.5770   32.3760 C   0  0  0  0  0  0  0  0  0  0  0  0
   37.9070   23.3060   31.7750 C   0  0  0  0  0  0  0  0  0  0  0  0
   38.0860   22.2250   32.5780 N   0  0  0  0  0  0  0  0  0  0  0  0
   38.2180   22.3280   33.9010 C   0  0  0  0  0  0  0  0  0  0  0  0
   38.1780   23.5300   34.4990 N   0  0  0  0  0  0  0  0  0  0  0  0
   37.7950   23.2700   30.6990 H   0  0  0  0  0  0  0  0  0  0  0  0
   38.3610   21.4410   34.5290 H   0  0  0  0  0  0  0  0  0  0  0  0
   37.6770   25.7830   31.6320 N   0  0  0  0  0  0  0  0  0  0  0  0
   38.7250   26.6040   31.3640 C   0  0  0  0  0  0  0  0  0  0  0  0
   38.5050   27.7630   30.6130 C   0  0  0  0  0  0  0  0  0  0  0  0
   37.2040   27.9420   30.2220 C   0  0  0  0  0  0  0  0  0  0  0  0
   37.0220   29.0040   29.5370 O   0  0  0  0  0  0  0  0  0  0  0  0
   36.1450   27.1520   30.4730 N   0  0  0  0  0  0  0  0  0  0  0  0
   36.4210   26.0460   31.2020 C   0  0  0  0  0  0  0  0  0  0  0  0
   35.4590   25.2880   31.4540 O   0  0  0  0  0  0  0  0  0  0  0  0
   39.7150   26.3610   31.7250 H   0  0  0  0  0  0  0  0  0  0  0  0
   39.2940   28.4270   30.3820 H   0  0  0  0  0  0  0  0  0  0  0  0
   35.1880   27.3790   30.1290 H   0  0  0  0  0  0  0  0  0  0  0  0
   37.9820   25.9300   34.4970 C   0  0  0  0  0  0  0  0  0  0  0  0
   39.0210   26.4390   35.2440 C   0  0  0  0  0  0  0  0  0  0  0  0
   40.0120   26.0030   35.4200 H   0  0  0  0  0  0  0  0  0  0  0  0
   38.6990   27.6190   35.7930 N   0  0  0  0  0  0  0  0  0  0  0  0
   39.2900   28.2240   36.4010 H   0  0  0  0  0  0  0  0  0  0  0  0
   37.4620   27.8920   35.4150 C   0  0  0  0  0  0  0  0  0  0  0  0
   36.8550   28.7660   35.6610 H   0  0  0  0  0  0  0  0  0  0  0  0
   37.0510   26.8830   34.6490 N   0  0  0  0  0  0  0  0  0  0  0  0
  1 20  1  0  0  0  0
  1  6  1  0  0  0  0
  2  1  2  0  0  0  0
  3  2  1  0  0  0  0
  3  4  2  0  0  0  0
  4  5  1  0  0  0  0
  5  6  2  0  0  0  0
  5  8  1  0  0  0  0
  7  3  1  0  0  0  0
  9  2  1  0  0  0  0
 10  9  1  0  0  0  0
 10 17  1  0  0  0  0
 11 10  2  0  0  0  0
 12 14  1  0  0  0  0
 12 11  1  0  0  0  0
 13 12  2  0  0  0  0
 14 15  1  0  0  0  0
 15 16  2  0  0  0  0
 15  9  1  0  0  0  0
 18 11  1  0  0  0  0
 19 14  1  0  0  0  0
 20 27  1  0  0  0  0
 20 21  2  0  0  0  0
 21 22  1  0  0  0  0
 21 23  1  0  0  0  0
 23 24  1  0  0  0  0
 25 26  1  0  0  0  0
 25 23  1  0  0  0  0
 27 25  2  0  0  0  0
M  END
>  <minimizedAffinity>
-4.59367847

$$$$

 OpenBabel03272507513D

 27 29  0  0  0  0  0  0  0  0999 V2000
   39.4050   24.9180   32.9060 C   0  0  0  0  0  0  0  0  0  0  0  0
   38.3260   24.2470   33.5020 C   0  0  0  0  0  0  0  0  0  0  0  0
   37.2460   23.8510   32.6920 C   0  0  0  0  0  0  0  0  0  0  0  0
   37.3030   24.1410   31.3660 N   0  0  0  0  0  0  0  0  0  0  0  0
   38.3360   24.7800   30.8140 C   0  0  0  0  0  0  0  0  0  0  0  0
   39.3780   25.1670   31.5660 N   0  0  0  0  0  0  0  0  0  0  0  0
   36.4310   23.3360   33.1810 H   0  0  0  0  0  0  0  0  0  0  0  0
   38.3600   25.0020   29.7410 H   0  0  0  0  0  0  0  0  0  0  0  0
   38.3760   23.9950   34.9080 N   0  0  0  0  0  0  0  0  0  0  0  0
   37.9660   24.9340   35.7990 C   0  0  0  0  0  0  0  0  0  0  0  0
   38.0100   24.6390   37.1650 C   0  0  0  0  0  0  0  0  0  0  0  0
   38.4830   23.3870   37.4560 C   0  0  0  0  0  0  0  0  0  0  0  0
   38.5140   23.1330   38.7070 O   0  0  0  0  0  0  0  0  0  0  0  0
   38.8990   22.4360   36.5990 N   0  0  0  0  0  0  0  0  0  0  0  0
   38.8310   22.7800   35.2920 C   0  0  0  0  0  0  0  0  0  0  0  0
   39.2100   21.9200   34.4670 O   0  0  0  0  0  0  0  0  0  0  0  0
   37.6090   25.8950   35.4540 H   0  0  0  0  0  0  0  0  0  0  0  0
   37.6990   25.3430   37.8910 H   0  0  0  0  0  0  0  0  0  0  0  0
   39.2440   21.5080   36.9230 H   0  0  0  0  0  0  0  0  0  0  0  0
   40.5690   25.3830   33.6480 C   0  0  0  0  0  0  0  0  0  0  0  0
   40.7900   26.6790   34.0590 C   0  0  0  0  0  0  0  0  0  0  0  0
   40.1550   27.5600   33.9080 H   0  0  0  0  0  0  0  0  0  0  0  0
   41.9500   26.7930   34.7210 N   0  0  0  0  0  0  0  0  0  0  0  0
   42.3660   27.6510   35.1420 H   0  0  0  0  0  0  0  0  0  0  0  0
   42.4940   25.5880   34.7500 C   0  0  0  0  0  0  0  0  0  0  0  0
   43.4400   25.2820   35.2010 H   0  0  0  0  0  0  0  0  0  0  0  0
   41.6650   24.7640   34.1110 N   0  0  0  0  0  0  0  0  0  0  0  0
  1  2  1  0  0  0  0
  1 20  1  0  0  0  0
  2  9  1  0  0  0  0
  3  7  1  0  0  0  0
  3  2  2  0  0  0  0
  4  3  1  0  0  0  0
  5  4  2  0  0  0  0
  5  6  1  0  0  0  0
  6  1  2  0  0  0  0
  8  5  1  0  0  0  0
  9 15  1  0  0  0  0
  9 10  1  0  0  0  0
 10 11  2  0  0  0  0
 11 12  1  0  0  0  0
 11 18  1  0  0  0  0
 12 13  2  0  0  0  0
 14 19  1  0  0  0  0
 14 12  1  0  0  0  0
 15 14  1  0  0  0  0
 16 15  2  0  0  0  0
 17 10  1  0  0  0  0
 20 21  2  0  0  0  0
 20 27  1  0  0  0  0
 21 23  1  0  0  0  0
 22 21  1  0  0  0  0
 23 25  1  0  0  0  0
 23 24  1  0  0  0  0
 25 26  1  0  0  0  0
 27 25  2  0  0  0  0
M  END
>  <minimizedAffinity>
-4.52515936

$$$$

 OpenBabel03272507513D

 27 29  0  0  0  0  0  0  0  0999 V2000
   38.4050   25.0480   35.5490 C   0  0  0  0  0  0  0  0  0  0  0  0
   38.0840   24.7870   34.2070 C   0  0  0  0  0  0  0  0  0  0  0  0
   37.5380   25.8240   33.4290 C   0  0  0  0  0  0  0  0  0  0  0  0
   37.3470   27.0320   34.0180 N   0  0  0  0  0  0  0  0  0  0  0  0
   37.6570   27.2650   35.2950 C   0  0  0  0  0  0  0  0  0  0  0  0
   38.1800   26.2920   36.0580 N   0  0  0  0  0  0  0  0  0  0  0  0
   37.3020   25.5900   32.3990 H   0  0  0  0  0  0  0  0  0  0  0  0
   37.4950   28.2500   35.7500 H   0  0  0  0  0  0  0  0  0  0  0  0
   38.3290   23.4750   33.6930 N   0  0  0  0  0  0  0  0  0  0  0  0
   37.3990   22.4940   33.8120 C   0  0  0  0  0  0  0  0  0  0  0  0
   37.6690   21.2320   33.2760 C   0  0  0  0  0  0  0  0  0  0  0  0
   38.8930   21.1290   32.6690 C   0  0  0  0  0  0  0  0  0  0  0  0
   39.1240   19.9710   32.1840 O   0  0  0  0  0  0  0  0  0  0  0  0
   39.8380   22.0780   32.5360 N   0  0  0  0  0  0  0  0  0  0  0  0
   39.5170   23.2780   33.0740 C   0  0  0  0  0  0  0  0  0  0  0  0
   40.3710   24.1840   32.9690 O   0  0  0  0  0  0  0  0  0  0  0  0
   36.4610   22.6900   34.3140 H   0  0  0  0  0  0  0  0  0  0  0  0
   36.9710   20.4420   33.3480 H   0  0  0  0  0  0  0  0  0  0  0  0
   40.7440   21.8980   32.0550 H   0  0  0  0  0  0  0  0  0  0  0  0
   38.9630   24.0490   36.4490 C   0  0  0  0  0  0  0  0  0  0  0  0
   38.3380   23.5380   37.5640 C   0  0  0  0  0  0  0  0  0  0  0  0
   37.3450   23.7820   37.9610 H   0  0  0  0  0  0  0  0  0  0  0  0
   39.1070   22.6340   38.1880 N   0  0  0  0  0  0  0  0  0  0  0  0
   38.8870   22.0930   39.0510 H   0  0  0  0  0  0  0  0  0  0  0  0
   40.2300   22.5450   37.4960 C   0  0  0  0  0  0  0  0  0  0  0  0
   41.0990   21.9130   37.6930 H   0  0  0  0  0  0  0  0  0  0  0  0
   40.1300   23.3880   36.4690 N   0  0  0  0  0  0  0  0  0  0  0  0
  1  6  1  0  0  0  0
  1 20  1  0  0  0  0
  2  1  2  0  0  0  0
  3  4  2  0  0  0  0
  3  2  1  0  0  0  0
  4  5  1  0  0  0  0
  5  8  1  0  0  0  0
  5  6  2  0  0  0  0
  7  3  1  0  0  0  0
  9 10  1  0  0  0  0
  9  2  1  0  0  0  0
 10 17  1  0  0  0  0
 11 18  1  0  0  0  0
 11 10  2  0  0  0  0
 12 11  1  0  0  0  0
 13 12  2  0  0  0  0
 14 12  1  0  0  0  0
 14 15  1  0  0  0  0
 15  9  1  0  0  0  0
 16 15  2  0  0  0  0
 19 14  1  0  0  0  0
 20 27  1  0  0  0  0
 20 21  2  0  0  0  0
 21 22  1  0  0  0  0
 21 23  1  0  0  0  0
 23 24  1  0  0  0  0
 25 26  1  0  0  0  0
 25 23  1  0  0  0  0
 27 25  2  0  0  0  0
M  END
>  <minimizedAffinity>
-4.45849371

$$$$

 OpenBabel03272507513D

 27 29  0  0  0  0  0  0  0  0999 V2000
   40.3980   25.2280   34.9510 C   0  0  0  0  0  0  0  0  0  0  0  0
   40.4830   23.8490   35.2010 C   0  0  0  0  0  0  0  0  0  0  0  0
   41.7550   23.2700   35.3640 C   0  0  0  0  0  0  0  0  0  0  0  0
   42.8420   24.0790   35.2720 N   0  0  0  0  0  0  0  0  0  0  0  0
   42.7450   25.3880   35.0340 C   0  0  0  0  0  0  0  0  0  0  0  0
   41.5420   25.9640   34.8750 N   0  0  0  0  0  0  0  0  0  0  0  0
   41.7870   22.2050   35.5550 H   0  0  0  0  0  0  0  0  0  0  0  0
   43.6370   26.0220   34.9640 H   0  0  0  0  0  0  0  0  0  0  0  0
   39.2710   23.0960   35.2780 N   0  0  0  0  0  0  0  0  0  0  0  0
   38.7110   22.5600   34.1630 C   0  0  0  0  0  0  0  0  0  0  0  0
   37.5360   21.8120   34.2850 C   0  0  0  0  0  0  0  0  0  0  0  0
   37.0680   21.7050   35.5690 C   0  0  0  0  0  0  0  0  0  0  0  0
   35.9960   21.0180   35.6630 O   0  0  0  0  0  0  0  0  0  0  0  0
   37.5960   22.2250   36.6920 N   0  0  0  0  0  0  0  0  0  0  0  0
   38.7320   22.9370   36.5090 C   0  0  0  0  0  0  0  0  0  0  0  0
   39.2500   23.4360   37.5320 O   0  0  0  0  0  0  0  0  0  0  0  0
   39.1710   22.7090   33.1960 H   0  0  0  0  0  0  0  0  0  0  0  0
   37.0700   21.3770   33.4420 H   0  0  0  0  0  0  0  0  0  0  0  0
   37.1590   22.0870   37.6280 H   0  0  0  0  0  0  0  0  0  0  0  0
   39.1380   25.9310   34.7550 C   0  0  0  0  0  0  0  0  0  0  0  0
   38.4800   26.6740   35.7090 C   0  0  0  0  0  0  0  0  0  0  0  0
   38.7730   26.8640   36.7480 H   0  0  0  0  0  0  0  0  0  0  0  0
   37.3440   27.1990   35.2260 N   0  0  0  0  0  0  0  0  0  0  0  0
   36.6540   27.8000   35.7240 H   0  0  0  0  0  0  0  0  0  0  0  0
   37.2490   26.8090   33.9660 C   0  0  0  0  0  0  0  0  0  0  0  0
   36.4610   27.0360   33.2440 H   0  0  0  0  0  0  0  0  0  0  0  0
   38.3180   26.0600   33.7020 N   0  0  0  0  0  0  0  0  0  0  0  0
  1  2  1  0  0  0  0
  2  9  1  0  0  0  0
  2  3  2  0  0  0  0
  3  7  1  0  0  0  0
  4  3  1  0  0  0  0
  5  4  2  0  0  0  0
  6  1  2  0  0  0  0
  6  5  1  0  0  0  0
  8  5  1  0  0  0  0
  9 15  1  0  0  0  0
 10 11  2  0  0  0  0
 10  9  1  0  0  0  0
 11 12  1  0  0  0  0
 12 13  2  0  0  0  0
 12 14  1  0  0  0  0
 14 19  1  0  0  0  0
 15 14  1  0  0  0  0
 15 16  2  0  0  0  0
 17 10  1  0  0  0  0
 18 11  1  0  0  0  0
 20  1  1  0  0  0  0
 20 21  2  0  0  0  0
 21 22  1  0  0  0  0
 23 21  1  0  0  0  0
 23 24  1  0  0  0  0
 25 23  1  0  0  0  0
 26 25  1  0  0  0  0
 27 25  2  0  0  0  0
 27 20  1  0  0  0  0
M  END
>  <minimizedAffinity>
-4.44582081

$$$$

 OpenBabel03272507513D

 27 29  0  0  0  0  0  0  0  0999 V2000
   39.3850   25.5820   32.9120 C   0  0  0  0  0  0  0  0  0  0  0  0
   38.1990   25.0440   33.4390 C   0  0  0  0  0  0  0  0  0  0  0  0
   37.0400   25.0560   32.6420 C   0  0  0  0  0  0  0  0  0  0  0  0
   37.1270   25.5880   31.3960 N   0  0  0  0  0  0  0  0  0  0  0  0
   38.2610   26.0960   30.9090 C   0  0  0  0  0  0  0  0  0  0  0  0
   39.3810   26.0970   31.6500 N   0  0  0  0  0  0  0  0  0  0  0  0
   36.1440   24.6340   33.0770 H   0  0  0  0  0  0  0  0  0  0  0  0
   38.3070   26.5210   29.8990 H   0  0  0  0  0  0  0  0  0  0  0  0
   38.2270   24.5090   34.7640 N   0  0  0  0  0  0  0  0  0  0  0  0
   38.5080   23.2000   34.9820 C   0  0  0  0  0  0  0  0  0  0  0  0
   38.5460   22.7220   36.2960 C   0  0  0  0  0  0  0  0  0  0  0  0
   38.2820   23.6720   37.2480 C   0  0  0  0  0  0  0  0  0  0  0  0
   38.3230   23.2200   38.4410 O   0  0  0  0  0  0  0  0  0  0  0  0
   37.9980   24.9740   37.0660 N   0  0  0  0  0  0  0  0  0  0  0  0
   37.9770   25.3760   35.7740 C   0  0  0  0  0  0  0  0  0  0  0  0
   37.7150   26.5810   35.5670 O   0  0  0  0  0  0  0  0  0  0  0  0
   38.7020   22.5370   34.1490 H   0  0  0  0  0  0  0  0  0  0  0  0
   38.7630   21.7090   36.5070 H   0  0  0  0  0  0  0  0  0  0  0  0
   37.8090   25.6180   37.8620 H   0  0  0  0  0  0  0  0  0  0  0  0
   40.6390   25.6340   33.6500 C   0  0  0  0  0  0  0  0  0  0  0  0
   41.1370   26.7390   34.3030 C   0  0  0  0  0  0  0  0  0  0  0  0
   40.6980   27.7400   34.3830 H   0  0  0  0  0  0  0  0  0  0  0  0
   42.3130   26.4730   34.8910 N   0  0  0  0  0  0  0  0  0  0  0  0
   42.9100   27.1190   35.4490 H   0  0  0  0  0  0  0  0  0  0  0  0
   42.5920   25.2070   34.6320 C   0  0  0  0  0  0  0  0  0  0  0  0
   43.4650   24.6280   34.9420 H   0  0  0  0  0  0  0  0  0  0  0  0
   41.5920   24.7230   33.8970 N   0  0  0  0  0  0  0  0  0  0  0  0
  1  2  1  0  0  0  0
  1 20  1  0  0  0  0
  2  9  1  0  0  0  0
  3  7  1  0  0  0  0
  3  2  2  0  0  0  0
  4  3  1  0  0  0  0
  5  4  2  0  0  0  0
  5  6  1  0  0  0  0
  6  1  2  0  0  0  0
  8  5  1  0  0  0  0
  9 10  1  0  0  0  0
  9 15  1  0  0  0  0
 10 11  2  0  0  0  0
 11 18  1  0  0  0  0
 11 12  1  0  0  0  0
 12 13  2  0  0  0  0
 14 12  1  0  0  0  0
 14 19  1  0  0  0  0
 15 14  1  0  0  0  0
 16 15  2  0  0  0  0
 17 10  1  0  0  0  0
 20 27  1  0  0  0  0
 20 21  2  0  0  0  0
 21 22  1  0  0  0  0
 21 23  1  0  0  0  0
 23 24  1  0  0  0  0
 25 23  1  0  0  0  0
 25 26  1  0  0  0  0
 27 25  2  0  0  0  0
M  END
>  <minimizedAffinity>
-4.3805418

$$$$

 OpenBabel03272507513D

 27 29  0  0  0  0  0  0  0  0999 V2000
   37.8670   25.0070   34.0640 C   0  0  0  0  0  0  0  0  0  0  0  0
   38.5420   25.3520   35.2460 C   0  0  0  0  0  0  0  0  0  0  0  0
   38.4250   26.6670   35.7310 C   0  0  0  0  0  0  0  0  0  0  0  0
   37.6600   27.5420   35.0280 N   0  0  0  0  0  0  0  0  0  0  0  0
   37.0240   27.1990   33.9060 C   0  0  0  0  0  0  0  0  0  0  0  0
   37.1210   25.9490   33.4230 N   0  0  0  0  0  0  0  0  0  0  0  0
   38.9580   26.9010   36.6430 H   0  0  0  0  0  0  0  0  0  0  0  0
   36.4110   27.9220   33.3550 H   0  0  0  0  0  0  0  0  0  0  0  0
   39.3200   24.3480   35.9020 N   0  0  0  0  0  0  0  0  0  0  0  0
   38.8010   23.6220   36.9260 C   0  0  0  0  0  0  0  0  0  0  0  0
   39.5880   22.6340   37.5250 C   0  0  0  0  0  0  0  0  0  0  0  0
   40.8420   22.5100   36.9880 C   0  0  0  0  0  0  0  0  0  0  0  0
   41.5460   21.6030   37.5450 O   0  0  0  0  0  0  0  0  0  0  0  0
   41.3870   23.2140   35.9780 N   0  0  0  0  0  0  0  0  0  0  0  0
   40.5760   24.1530   35.4390 C   0  0  0  0  0  0  0  0  0  0  0  0
   41.0500   24.8260   34.4970 O   0  0  0  0  0  0  0  0  0  0  0  0
   37.7920   23.8070   37.2690 H   0  0  0  0  0  0  0  0  0  0  0  0
   39.2200   22.0470   38.3240 H   0  0  0  0  0  0  0  0  0  0  0  0
   42.3580   23.0420   35.6420 H   0  0  0  0  0  0  0  0  0  0  0  0
   37.9260   23.6810   33.4650 C   0  0  0  0  0  0  0  0  0  0  0  0
   38.6040   23.3540   32.3130 C   0  0  0  0  0  0  0  0  0  0  0  0
   39.1990   24.0060   31.6620 H   0  0  0  0  0  0  0  0  0  0  0  0
   38.4700   22.0530   32.0160 N   0  0  0  0  0  0  0  0  0  0  0  0
   38.8740   21.5360   31.2070 H   0  0  0  0  0  0  0  0  0  0  0  0
   37.7120   21.5220   32.9610 C   0  0  0  0  0  0  0  0  0  0  0  0
   37.3830   20.4850   33.0620 H   0  0  0  0  0  0  0  0  0  0  0  0
   37.3990   22.4970   33.8110 N   0  0  0  0  0  0  0  0  0  0  0  0
  1  2  1  0  0  0  0
  2  3  2  0  0  0  0
  2  9  1  0  0  0  0
  3  7  1  0  0  0  0
  4  3  1  0  0  0  0
  5  4  2  0  0  0  0
  6  5  1  0  0  0  0
  6  1  2  0  0  0  0
  8  5  1  0  0  0  0
  9 10  1  0  0  0  0
 10 17  1  0  0  0  0
 10 11  2  0  0  0  0
 11 18  1  0  0  0  0
 12 11  1  0  0  0  0
 12 13  2  0  0  0  0
 14 12  1  0  0  0  0
 15  9  1  0  0  0  0
 15 14  1  0  0  0  0
 16 15  2  0  0  0  0
 19 14  1  0  0  0  0
 20 27  1  0  0  0  0
 20  1  1  0  0  0  0
 21 20  2  0  0  0  0
 22 21  1  0  0  0  0
 23 21  1  0  0  0  0
 23 25  1  0  0  0  0
 24 23  1  0  0  0  0
 25 26  1  0  0  0  0
 25 27  2  0  0  0  0
M  END
>  <minimizedAffinity>
-4.2697506

$$$$
