
 OpenBabel03272509573D

 45 48  0  0  0  0  0  0  0  0999 V2000
   34.5280   28.5370   48.2540 C   0  0  0  0  0  0  0  0  0  0  0  0
   35.4420   28.5150   47.6060 H   0  0  0  0  0  0  0  0  0  0  0  0
   34.0930   29.5270   48.1230 H   0  0  0  0  0  0  0  0  0  0  0  0
   33.6030   27.4220   47.8690 C   0  0  0  0  0  0  0  0  0  0  0  0
   33.4820   26.6980   48.6940 H   0  0  0  0  0  0  0  0  0  0  0  0
   34.0360   26.8980   46.9840 H   0  0  0  0  0  0  0  0  0  0  0  0
   32.2620   27.9130   47.4420 C   0  0  0  0  0  0  0  0  0  0  0  0
   31.2040   27.7410   48.3160 C   0  0  0  0  0  0  0  0  0  0  0  0
   29.9280   28.1590   48.0140 C   0  0  0  0  0  0  0  0  0  0  0  0
   29.7050   28.7520   46.8340 N   0  0  0  0  0  0  0  0  0  0  0  0
   30.7650   28.9140   45.9850 C   0  0  0  0  0  0  0  0  0  0  0  0
   32.0120   28.5140   46.2570 N   0  0  0  0  0  0  0  0  0  0  0  0
   31.3170   27.2640   49.2950 H   0  0  0  0  0  0  0  0  0  0  0  0
   29.1080   28.0280   48.6880 H   0  0  0  0  0  0  0  0  0  0  0  0
   30.4420   29.5820   44.6910 C   0  0  0  0  0  0  0  0  0  0  0  0
   31.0740   29.0720   43.9230 H   0  0  0  0  0  0  0  0  0  0  0  0
   29.4000   29.3310   44.3950 H   0  0  0  0  0  0  0  0  0  0  0  0
   30.6750   31.0410   44.7220 C   0  0  0  0  0  0  0  0  0  0  0  0
   29.7130   31.9830   44.4230 C   0  0  0  0  0  0  0  0  0  0  0  0
   28.6740   31.8870   44.1260 H   0  0  0  0  0  0  0  0  0  0  0  0
   30.2260   33.2170   44.5400 N   0  0  0  0  0  0  0  0  0  0  0  0
   29.8310   34.1740   44.4040 H   0  0  0  0  0  0  0  0  0  0  0  0
   31.5290   33.0760   44.9190 C   0  0  0  0  0  0  0  0  0  0  0  0
   32.2690   33.8620   45.1130 H   0  0  0  0  0  0  0  0  0  0  0  0
   31.7700   31.7360   45.0200 N   0  0  0  0  0  0  0  0  0  0  0  0
   35.0130   28.3430   49.5840 O   0  0  0  0  0  0  0  0  0  0  0  0
   37.3850   30.1990   51.5790 C   0  0  0  0  0  0  0  0  0  0  0  0
   38.0880   30.8810   50.5640 C   0  0  0  0  0  0  0  0  0  0  0  0
   37.6990   30.6590   49.2420 C   0  0  0  0  0  0  0  0  0  0  0  0
   36.6610   29.7890   49.0620 N   0  0  0  0  0  0  0  0  0  0  0  0
   36.0070   29.1520   50.0420 C   0  0  0  0  0  0  0  0  0  0  0  0
   36.3860   29.3700   51.3140 N   0  0  0  0  0  0  0  0  0  0  0  0
   37.7300   30.4100   52.5860 H   0  0  0  0  0  0  0  0  0  0  0  0
   38.8950   31.5570   50.6970 H   0  0  0  0  0  0  0  0  0  0  0  0
   38.9960   33.2350   49.0290 F   0  0  0  0  0  0  0  0  0  0  0  0
   38.9060   32.4560   47.9550 C   0  0  0  0  0  0  0  0  0  0  0  0
   38.2980   31.2640   48.0830 C   0  0  0  0  0  0  0  0  0  0  0  0
   38.2590   30.5310   46.8970 C   0  0  0  0  0  0  0  0  0  0  0  0
   38.7870   30.9760   45.7120 C   0  0  0  0  0  0  0  0  0  0  0  0
   39.4000   32.2090   45.6390 C   0  0  0  0  0  0  0  0  0  0  0  0
   39.4500   32.9460   46.7940 C   0  0  0  0  0  0  0  0  0  0  0  0
   37.7880   29.5370   46.8680 H   0  0  0  0  0  0  0  0  0  0  0  0
   38.7340   30.3710   44.8150 H   0  0  0  0  0  0  0  0  0  0  0  0
   39.8190   32.5720   44.7160 H   0  0  0  0  0  0  0  0  0  0  0  0
   39.9300   33.9180   46.7470 H   0  0  0  0  0  0  0  0  0  0  0  0
  1 26  1  0  0  0  0
  2  1  1  0  0  0  0
  3  1  1  0  0  0  0
  4  1  1  0  0  0  0
  4  5  1  0  0  0  0
  6  4  1  0  0  0  0
  7  4  1  0  0  0  0
  7  8  1  0  0  0  0
  8 13  1  0  0  0  0
  9  8  2  0  0  0  0
  9 14  1  0  0  0  0
 10  9  1  0  0  0  0
 11 12  1  0  0  0  0
 11 10  2  0  0  0  0
 12  7  2  0  0  0  0
 15 18  1  0  0  0  0
 15 11  1  0  0  0  0
 16 15  1  0  0  0  0
 17 15  1  0  0  0  0
 18 25  1  0  0  0  0
 19 21  1  0  0  0  0
 19 18  2  0  0  0  0
 20 19  1  0  0  0  0
 21 23  1  0  0  0  0
 22 21  1  0  0  0  0
 23 25  2  0  0  0  0
 23 24  1  0  0  0  0
 26 31  1  0  0  0  0
 27 33  1  0  0  0  0
 28 34  1  0  0  0  0
 28 27  2  0  0  0  0
 29 28  1  0  0  0  0
 30 29  2  0  0  0  0
 30 31  1  0  0  0  0
 31 32  2  0  0  0  0
 32 27  1  0  0  0  0
 36 37  1  0  0  0  0
 36 35  1  0  0  0  0
 37 29  1  0  0  0  0
 38 37  2  0  0  0  0
 39 38  1  0  0  0  0
 40 39  2  0  0  0  0
 40 41  1  0  0  0  0
 41 36  2  0  0  0  0
 42 38  1  0  0  0  0
 43 39  1  0  0  0  0
 44 40  1  0  0  0  0
 45 41  1  0  0  0  0
M  END
>  <minimizedAffinity>
-6.49682951

>  <minimizedRMSD>
1.02394748

$$$$
