
 OpenBabel03272507203D

 29 31  0  0  1  0  0  0  0  0999 V2000
   37.5560   24.2080   33.0350 C   0  0  0  0  0  0  0  0  0  0  0  0
   37.1920   25.5470   33.1010 C   0  0  0  0  0  0  0  0  0  0  0  0
   37.5210   26.1790   34.3100 C   0  0  0  0  0  0  0  0  0  0  0  0
   38.1510   25.4960   35.3200 N   0  0  0  0  0  0  0  0  0  0  0  0
   38.4840   24.1890   35.2040 C   0  0  0  0  0  0  0  0  0  0  0  0
   38.1790   23.5390   34.0410 N   0  0  0  0  0  0  0  0  0  0  0  0
   36.7060   26.0330   32.2920 H   0  0  0  0  0  0  0  0  0  0  0  0
   37.2560   27.2240   34.4060 H   0  0  0  0  0  0  0  0  0  0  0  0
   39.1540   23.4780   36.2870 C   0  0  0  0  0  0  0  0  0  0  0  0
   38.5720   23.3520   37.5330 C   0  0  0  0  0  0  0  0  0  0  0  0
   37.6220   23.7070   37.9130 H   0  0  0  0  0  0  0  0  0  0  0  0
   39.4520   22.6420   38.2970 N   0  0  0  0  0  0  0  0  0  0  0  0
   39.3750   22.3400   39.3000 H   0  0  0  0  0  0  0  0  0  0  0  0
   40.5480   22.3350   37.5530 C   0  0  0  0  0  0  0  0  0  0  0  0
   41.4430   21.7880   37.8150 H   0  0  0  0  0  0  0  0  0  0  0  0
   40.3670   22.8520   36.3080 N   0  0  0  0  0  0  0  0  0  0  0  0
   37.2390   23.5030   31.7530 C   0  0  1  0  0  0  0  0  0  0  0  0
   36.3980   22.3100   31.7150 C   0  0  2  0  0  0  0  0  0  0  0  0
   35.7430   23.6150   31.3840 C   0  0  0  0  0  0  0  0  0  0  0  0
   37.9380   23.7070   30.9190 H   0  0  0  0  0  0  0  0  0  0  0  0
   36.7140   21.5730   30.9290 H   0  0  0  0  0  0  0  0  0  0  0  0
   35.0470   24.0300   32.1120 H   0  0  0  0  0  0  0  0  0  0  0  0
   35.5290   23.7180   30.2880 H   0  0  0  0  0  0  0  0  0  0  0  0
   36.1130   21.6970   32.9290 O   0  0  0  0  0  0  0  0  0  0  0  0
   35.3790   20.5860   33.1830 C   0  0  0  0  0  0  0  0  0  0  0  0
   34.7480   19.9810   32.2910 O   0  0  0  0  0  0  0  0  0  0  0  0
   35.4750   20.2970   34.5450 N   0  0  0  0  0  0  0  0  0  0  0  0
   34.5150   20.6510   34.7830 H   0  0  0  0  0  0  0  0  0  0  0  0
   36.3360   19.8640   34.9480 H   0  0  0  0  0  0  0  0  0  0  0  0
  1  2  2  0  0  0  0
  1  6  1  0  0  0  0
  2  3  1  0  0  0  0
  3  8  1  0  0  0  0
  3  4  2  0  0  0  0
  5  4  1  0  0  0  0
  5  9  1  0  0  0  0
  6  5  2  0  0  0  0
  7  2  1  0  0  0  0
  9 16  1  0  0  0  0
  9 10  2  0  0  0  0
 10 11  1  0  0  0  0
 10 12  1  0  0  0  0
 12 13  1  0  0  0  0
 14 15  1  0  0  0  0
 14 12  1  0  0  0  0
 16 14  2  0  0  0  0
 17 20  1  6  0  0  0
 17  1  1  0  0  0  0
 18 21  1  6  0  0  0
 18 17  1  0  0  0  0
 18 24  1  0  0  0  0
 19 18  1  0  0  0  0
 19 17  1  0  0  0  0
 19 22  1  0  0  0  0
 23 19  1  0  0  0  0
 24 25  1  0  0  0  0
 25 27  1  0  0  0  0
 26 25  2  0  0  0  0
 27 28  1  0  0  0  0
 27 29  1  0  0  0  0
M  END
>  <minimizedAffinity>
-5.04094601

$$$$

 OpenBabel03272507203D

 29 31  0  0  1  0  0  0  0  0999 V2000
   39.2660   25.8220   34.7490 C   0  0  0  0  0  0  0  0  0  0  0  0
   38.9770   26.8640   35.6200 C   0  0  0  0  0  0  0  0  0  0  0  0
   37.8010   27.5680   35.3140 C   0  0  0  0  0  0  0  0  0  0  0  0
   37.0280   27.2230   34.2330 N   0  0  0  0  0  0  0  0  0  0  0  0
   37.3560   26.1960   33.4150 C   0  0  0  0  0  0  0  0  0  0  0  0
   38.4950   25.4870   33.6800 N   0  0  0  0  0  0  0  0  0  0  0  0
   39.6050   27.0930   36.4440 H   0  0  0  0  0  0  0  0  0  0  0  0
   37.5360   28.3890   35.9670 H   0  0  0  0  0  0  0  0  0  0  0  0
   36.5230   25.8420   32.2710 C   0  0  0  0  0  0  0  0  0  0  0  0
   36.1840   26.7760   31.3120 C   0  0  0  0  0  0  0  0  0  0  0  0
   36.4330   27.8250   31.2220 H   0  0  0  0  0  0  0  0  0  0  0  0
   35.4100   26.1220   30.3980 N   0  0  0  0  0  0  0  0  0  0  0  0
   34.9570   26.4850   29.5220 H   0  0  0  0  0  0  0  0  0  0  0  0
   35.2710   24.8220   30.7730 C   0  0  0  0  0  0  0  0  0  0  0  0
   34.7340   24.0100   30.3030 H   0  0  0  0  0  0  0  0  0  0  0  0
   35.9590   24.6460   31.9330 N   0  0  0  0  0  0  0  0  0  0  0  0
   40.5020   25.0350   35.0540 C   0  0  1  0  0  0  0  0  0  0  0  0
   40.4450   23.7280   35.7020 C   0  0  2  0  0  0  0  0  0  0  0  0
   40.5890   23.7430   34.2130 C   0  0  0  0  0  0  0  0  0  0  0  0
   41.4380   25.6250   35.0930 H   0  0  0  0  0  0  0  0  0  0  0  0
   41.3100   23.5410   36.3940 H   0  0  0  0  0  0  0  0  0  0  0  0
   39.7280   23.4370   33.6190 H   0  0  0  0  0  0  0  0  0  0  0  0
   41.6220   23.4580   33.8820 H   0  0  0  0  0  0  0  0  0  0  0  0
   39.2310   23.3510   36.2630 O   0  0  0  0  0  0  0  0  0  0  0  0
   38.8050   23.4500   37.5460 C   0  0  0  0  0  0  0  0  0  0  0  0
   37.8910   24.2280   37.8900 O   0  0  0  0  0  0  0  0  0  0  0  0
   39.5540   22.5690   38.3280 N   0  0  0  0  0  0  0  0  0  0  0  0
   40.1550   23.3150   38.7580 H   0  0  0  0  0  0  0  0  0  0  0  0
   39.3740   21.5400   38.3090 H   0  0  0  0  0  0  0  0  0  0  0  0
  1 17  1  0  0  0  0
  1  2  1  0  0  0  0
  2  7  1  0  0  0  0
  3  2  2  0  0  0  0
  3  8  1  0  0  0  0
  4  3  1  0  0  0  0
  5  6  1  0  0  0  0
  5  4  2  0  0  0  0
  6  1  2  0  0  0  0
  9  5  1  0  0  0  0
 10  9  2  0  0  0  0
 11 10  1  0  0  0  0
 12 14  1  0  0  0  0
 12 10  1  0  0  0  0
 13 12  1  0  0  0  0
 14 16  2  0  0  0  0
 15 14  1  0  0  0  0
 16  9  1  0  0  0  0
 17 20  1  1  0  0  0
 17 18  1  0  0  0  0
 18 24  1  0  0  0  0
 18 21  1  1  0  0  0
 19 17  1  0  0  0  0
 19 18  1  0  0  0  0
 22 19  1  0  0  0  0
 23 19  1  0  0  0  0
 24 25  1  0  0  0  0
 25 26  2  0  0  0  0
 25 27  1  0  0  0  0
 27 28  1  0  0  0  0
 29 27  1  0  0  0  0
M  END
>  <minimizedAffinity>
-5.01101208

$$$$

 OpenBabel03272507203D

 29 31  0  0  1  0  0  0  0  0999 V2000
   39.3010   24.5560   34.4500 C   0  0  0  0  0  0  0  0  0  0  0  0
   39.8840   25.7120   34.9500 C   0  0  0  0  0  0  0  0  0  0  0  0
   39.3690   26.9020   34.4120 C   0  0  0  0  0  0  0  0  0  0  0  0
   38.3700   26.8810   33.4700 N   0  0  0  0  0  0  0  0  0  0  0  0
   37.8350   25.7230   33.0170 C   0  0  0  0  0  0  0  0  0  0  0  0
   38.3120   24.5430   33.5180 N   0  0  0  0  0  0  0  0  0  0  0  0
   40.6550   25.6780   35.6800 H   0  0  0  0  0  0  0  0  0  0  0  0
   39.7950   27.8290   34.7720 H   0  0  0  0  0  0  0  0  0  0  0  0
   36.7740   25.7190   32.0170 C   0  0  0  0  0  0  0  0  0  0  0  0
   36.6430   26.7440   31.1010 C   0  0  0  0  0  0  0  0  0  0  0  0
   37.2250   27.6460   30.9560 H   0  0  0  0  0  0  0  0  0  0  0  0
   35.5650   26.4300   30.3250 N   0  0  0  0  0  0  0  0  0  0  0  0
   35.1440   26.9580   29.5210 H   0  0  0  0  0  0  0  0  0  0  0  0
   35.0400   25.2480   30.7410 C   0  0  0  0  0  0  0  0  0  0  0  0
   34.1920   24.6870   30.3720 H   0  0  0  0  0  0  0  0  0  0  0  0
   35.7860   24.8040   31.7890 N   0  0  0  0  0  0  0  0  0  0  0  0
   39.8100   23.2660   35.0150 C   0  0  1  0  0  0  0  0  0  0  0  0
   39.1860   22.6290   36.1720 C   0  0  2  0  0  0  0  0  0  0  0  0
   38.8040   22.1100   34.8220 C   0  0  0  0  0  0  0  0  0  0  0  0
   40.8560   23.0170   34.7520 H   0  0  0  0  0  0  0  0  0  0  0  0
   39.9230   22.1050   36.8380 H   0  0  0  0  0  0  0  0  0  0  0  0
   37.8010   22.3350   34.4580 H   0  0  0  0  0  0  0  0  0  0  0  0
   39.2630   21.1110   34.6040 H   0  0  0  0  0  0  0  0  0  0  0  0
   38.2690   23.3850   36.8930 O   0  0  0  0  0  0  0  0  0  0  0  0
   38.2820   23.7390   38.2010 C   0  0  0  0  0  0  0  0  0  0  0  0
   37.9110   24.8650   38.5930 O   0  0  0  0  0  0  0  0  0  0  0  0
   38.7620   22.6600   38.9450 N   0  0  0  0  0  0  0  0  0  0  0  0
   39.7130   23.0750   39.1060 H   0  0  0  0  0  0  0  0  0  0  0  0
   38.1640   21.8260   39.1390 H   0  0  0  0  0  0  0  0  0  0  0  0
  1  2  1  0  0  0  0
  1 17  1  0  0  0  0
  2  7  1  0  0  0  0
  3  8  1  0  0  0  0
  3  2  2  0  0  0  0
  4  3  1  0  0  0  0
  5  4  2  0  0  0  0
  5  6  1  0  0  0  0
  6  1  2  0  0  0  0
  9  5  1  0  0  0  0
 10  9  2  0  0  0  0
 11 10  1  0  0  0  0
 12 14  1  0  0  0  0
 12 10  1  0  0  0  0
 13 12  1  0  0  0  0
 14 16  2  0  0  0  0
 15 14  1  0  0  0  0
 16  9  1  0  0  0  0
 17 20  1  6  0  0  0
 17 18  1  0  0  0  0
 18 21  1  1  0  0  0
 18 24  1  0  0  0  0
 19 17  1  0  0  0  0
 19 18  1  0  0  0  0
 22 19  1  0  0  0  0
 23 19  1  0  0  0  0
 24 25  1  0  0  0  0
 25 26  2  0  0  0  0
 25 27  1  0  0  0  0
 27 28  1  0  0  0  0
 27 29  1  0  0  0  0
M  END
>  <minimizedAffinity>
-4.8706646

$$$$

 OpenBabel03272507203D

 29 31  0  0  1  0  0  0  0  0999 V2000
   37.9450   25.2000   35.8940 C   0  0  0  0  0  0  0  0  0  0  0  0
   38.4260   26.4230   36.3430 C   0  0  0  0  0  0  0  0  0  0  0  0
   38.9460   27.2480   35.3330 C   0  0  0  0  0  0  0  0  0  0  0  0
   38.9600   26.8430   34.0220 N   0  0  0  0  0  0  0  0  0  0  0  0
   38.4770   25.6380   33.6370 C   0  0  0  0  0  0  0  0  0  0  0  0
   37.9630   24.8060   34.5930 N   0  0  0  0  0  0  0  0  0  0  0  0
   38.3940   26.6930   37.3690 H   0  0  0  0  0  0  0  0  0  0  0  0
   39.3330   28.2120   35.6370 H   0  0  0  0  0  0  0  0  0  0  0  0
   38.4990   25.2230   32.2390 C   0  0  0  0  0  0  0  0  0  0  0  0
   37.3320   24.9660   31.5470 C   0  0  0  0  0  0  0  0  0  0  0  0
   36.2960   25.0140   31.8580 H   0  0  0  0  0  0  0  0  0  0  0  0
   37.7070   24.6060   30.2850 N   0  0  0  0  0  0  0  0  0  0  0  0
   37.1130   24.3360   29.4620 H   0  0  0  0  0  0  0  0  0  0  0  0
   39.0630   24.6370   30.1920 C   0  0  0  0  0  0  0  0  0  0  0  0
   39.7150   24.4170   29.3580 H   0  0  0  0  0  0  0  0  0  0  0  0
   39.5570   25.0180   31.4000 N   0  0  0  0  0  0  0  0  0  0  0  0
   37.3640   24.2990   36.9390 C   0  0  1  0  0  0  0  0  0  0  0  0
   38.0330   23.0710   37.3590 C   0  0  2  0  0  0  0  0  0  0  0  0
   38.2190   24.2770   38.2250 C   0  0  0  0  0  0  0  0  0  0  0  0
   36.2760   24.4140   37.1080 H   0  0  0  0  0  0  0  0  0  0  0  0
   37.3170   22.2440   37.6140 H   0  0  0  0  0  0  0  0  0  0  0  0
   39.1970   24.7570   38.2210 H   0  0  0  0  0  0  0  0  0  0  0  0
   37.6380   24.2070   39.1820 H   0  0  0  0  0  0  0  0  0  0  0  0
   39.0930   22.6280   36.5770 O   0  0  0  0  0  0  0  0  0  0  0  0
   40.4220   22.6260   36.8460 C   0  0  0  0  0  0  0  0  0  0  0  0
   41.2230   23.3870   36.2650 O   0  0  0  0  0  0  0  0  0  0  0  0
   40.6720   21.6660   37.8280 N   0  0  0  0  0  0  0  0  0  0  0  0
   41.0830   20.9620   37.1670 H   0  0  0  0  0  0  0  0  0  0  0  0
   40.4330   21.8400   38.8300 H   0  0  0  0  0  0  0  0  0  0  0  0
  1  2  1  0  0  0  0
  1 17  1  0  0  0  0
  2  7  1  0  0  0  0
  3  8  1  0  0  0  0
  3  2  2  0  0  0  0
  4  3  1  0  0  0  0
  5  4  2  0  0  0  0
  5  6  1  0  0  0  0
  6  1  2  0  0  0  0
  9  5  1  0  0  0  0
 10 11  1  0  0  0  0
 10  9  2  0  0  0  0
 12 10  1  0  0  0  0
 13 12  1  0  0  0  0
 14 12  1  0  0  0  0
 14 16  2  0  0  0  0
 15 14  1  0  0  0  0
 16  9  1  0  0  0  0
 17 20  1  1  0  0  0
 17 18  1  0  0  0  0
 17 19  1  0  0  0  0
 18 21  1  1  0  0  0
 18 19  1  0  0  0  0
 19 23  1  0  0  0  0
 22 19  1  0  0  0  0
 24 25  1  0  0  0  0
 24 18  1  0  0  0  0
 25 27  1  0  0  0  0
 26 25  2  0  0  0  0
 27 29  1  0  0  0  0
 28 27  1  0  0  0  0
M  END
>  <minimizedAffinity>
-4.72779608

$$$$

 OpenBabel03272507203D

 29 31  0  0  1  0  0  0  0  0999 V2000
   38.9040   25.7070   33.4570 C   0  0  0  0  0  0  0  0  0  0  0  0
   39.6780   24.9840   32.5580 C   0  0  0  0  0  0  0  0  0  0  0  0
   40.2230   23.8020   33.0830 C   0  0  0  0  0  0  0  0  0  0  0  0
   39.9870   23.4260   34.3820 N   0  0  0  0  0  0  0  0  0  0  0  0
   39.2230   24.1690   35.2170 C   0  0  0  0  0  0  0  0  0  0  0  0
   38.6750   25.3280   34.7420 N   0  0  0  0  0  0  0  0  0  0  0  0
   39.8320   25.3150   31.5620 H   0  0  0  0  0  0  0  0  0  0  0  0
   40.8350   23.2050   32.4180 H   0  0  0  0  0  0  0  0  0  0  0  0
   38.9810   23.7550   36.5940 C   0  0  0  0  0  0  0  0  0  0  0  0
   39.7910   22.8280   37.2200 C   0  0  0  0  0  0  0  0  0  0  0  0
   40.6590   22.2870   36.8640 H   0  0  0  0  0  0  0  0  0  0  0  0
   39.2920   22.6710   38.4800 N   0  0  0  0  0  0  0  0  0  0  0  0
   39.6290   22.0560   39.2610 H   0  0  0  0  0  0  0  0  0  0  0  0
   38.2060   23.4750   38.6370 C   0  0  0  0  0  0  0  0  0  0  0  0
   37.5580   23.6190   39.4900 H   0  0  0  0  0  0  0  0  0  0  0  0
   38.0110   24.1470   37.4710 N   0  0  0  0  0  0  0  0  0  0  0  0
   38.2890   26.9650   32.9280 C   0  0  1  0  0  0  0  0  0  0  0  0
   36.9160   27.0040   32.4290 C   0  0  2  0  0  0  0  0  0  0  0  0
   37.1440   27.4750   33.8310 C   0  0  0  0  0  0  0  0  0  0  0  0
   39.0080   27.7440   32.6100 H   0  0  0  0  0  0  0  0  0  0  0  0
   36.7810   27.7090   31.5660 H   0  0  0  0  0  0  0  0  0  0  0  0
   36.7860   26.8410   34.6430 H   0  0  0  0  0  0  0  0  0  0  0  0
   37.0700   28.5900   33.9230 H   0  0  0  0  0  0  0  0  0  0  0  0
   36.2850   25.7840   32.2180 O   0  0  0  0  0  0  0  0  0  0  0  0
   36.0840   25.1060   31.0620 C   0  0  0  0  0  0  0  0  0  0  0  0
   36.7410   24.0880   30.7610 O   0  0  0  0  0  0  0  0  0  0  0  0
   35.0710   25.7450   30.3460 N   0  0  0  0  0  0  0  0  0  0  0  0
   35.7170   26.1930   29.6500 H   0  0  0  0  0  0  0  0  0  0  0  0
   34.0680   25.6470   30.6200 H   0  0  0  0  0  0  0  0  0  0  0  0
  1  6  1  0  0  0  0
  2  3  1  0  0  0  0
  2  1  2  0  0  0  0
  3  4  2  0  0  0  0
  4  5  1  0  0  0  0
  5  9  1  0  0  0  0
  6  5  2  0  0  0  0
  7  2  1  0  0  0  0
  8  3  1  0  0  0  0
  9 10  2  0  0  0  0
  9 16  1  0  0  0  0
 10 12  1  0  0  0  0
 11 10  1  0  0  0  0
 12 14  1  0  0  0  0
 12 13  1  0  0  0  0
 14 15  1  0  0  0  0
 16 14  2  0  0  0  0
 17 20  1  6  0  0  0
 17  1  1  0  0  0  0
 17 19  1  0  0  0  0
 18 21  1  6  0  0  0
 18 17  1  0  0  0  0
 18 19  1  0  0  0  0
 19 23  1  0  0  0  0
 19 22  1  0  0  0  0
 24 18  1  0  0  0  0
 25 24  1  0  0  0  0
 26 25  2  0  0  0  0
 27 29  1  0  0  0  0
 27 25  1  0  0  0  0
 28 27  1  0  0  0  0
M  END
>  <minimizedAffinity>
-4.71184731

$$$$

 OpenBabel03272507203D

 29 31  0  0  1  0  0  0  0  0999 V2000
   37.2860   27.1200   33.8830 C   0  0  0  0  0  0  0  0  0  0  0  0
   36.5990   28.1040   33.1830 C   0  0  0  0  0  0  0  0  0  0  0  0
   35.9330   27.6420   32.0370 C   0  0  0  0  0  0  0  0  0  0  0  0
   35.9800   26.3200   31.6720 N   0  0  0  0  0  0  0  0  0  0  0  0
   36.6650   25.4000   32.3920 C   0  0  0  0  0  0  0  0  0  0  0  0
   37.3280   25.8120   33.5150 N   0  0  0  0  0  0  0  0  0  0  0  0
   36.5910   29.1150   33.5050 H   0  0  0  0  0  0  0  0  0  0  0  0
   35.3840   28.3750   31.4590 H   0  0  0  0  0  0  0  0  0  0  0  0
   36.7040   23.9990   31.9910 C   0  0  0  0  0  0  0  0  0  0  0  0
   35.7260   23.4540   31.1830 C   0  0  0  0  0  0  0  0  0  0  0  0
   34.8430   23.8960   30.7390 H   0  0  0  0  0  0  0  0  0  0  0  0
   36.0630   22.1430   31.0050 N   0  0  0  0  0  0  0  0  0  0  0  0
   35.5710   21.3950   30.4550 H   0  0  0  0  0  0  0  0  0  0  0  0
   37.2130   21.8780   31.6790 C   0  0  0  0  0  0  0  0  0  0  0  0
   37.7780   20.9610   31.7700 H   0  0  0  0  0  0  0  0  0  0  0  0
   37.6130   23.0250   32.2910 N   0  0  0  0  0  0  0  0  0  0  0  0
   37.9940   27.5700   35.1230 C   0  0  1  0  0  0  0  0  0  0  0  0
   38.3020   26.6490   36.2140 C   0  0  2  0  0  0  0  0  0  0  0  0
   39.4020   26.9480   35.2450 C   0  0  0  0  0  0  0  0  0  0  0  0
   37.9490   28.6580   35.3230 H   0  0  0  0  0  0  0  0  0  0  0  0
   38.2380   27.1280   37.2270 H   0  0  0  0  0  0  0  0  0  0  0  0
   39.6960   26.1590   34.5530 H   0  0  0  0  0  0  0  0  0  0  0  0
   40.1840   27.6220   35.6830 H   0  0  0  0  0  0  0  0  0  0  0  0
   37.6910   25.4010   36.1810 O   0  0  0  0  0  0  0  0  0  0  0  0
   38.1950   24.1840   36.5020 C   0  0  0  0  0  0  0  0  0  0  0  0
   38.5320   23.8850   37.6660 O   0  0  0  0  0  0  0  0  0  0  0  0
   38.2510   23.4110   35.3410 N   0  0  0  0  0  0  0  0  0  0  0  0
   39.2900   23.5050   35.2180 H   0  0  0  0  0  0  0  0  0  0  0  0
   37.3910   22.9870   34.9300 H   0  0  0  0  0  0  0  0  0  0  0  0
  1 17  1  0  0  0  0
  2  7  1  0  0  0  0
  2  1  2  0  0  0  0
  3  2  1  0  0  0  0
  4  3  2  0  0  0  0
  4  5  1  0  0  0  0
  5  6  2  0  0  0  0
  6  1  1  0  0  0  0
  8  3  1  0  0  0  0
  9 16  1  0  0  0  0
  9  5  1  0  0  0  0
 10  9  2  0  0  0  0
 11 10  1  0  0  0  0
 12 10  1  0  0  0  0
 12 14  1  0  0  0  0
 13 12  1  0  0  0  0
 14 15  1  0  0  0  0
 14 16  2  0  0  0  0
 17 19  1  0  0  0  0
 17 20  1  1  0  0  0
 17 18  1  0  0  0  0
 18 21  1  1  0  0  0
 19 23  1  0  0  0  0
 19 18  1  0  0  0  0
 22 19  1  0  0  0  0
 24 18  1  0  0  0  0
 24 25  1  0  0  0  0
 25 26  2  0  0  0  0
 27 25  1  0  0  0  0
 28 27  1  0  0  0  0
 29 27  1  0  0  0  0
M  END
>  <minimizedAffinity>
-4.56081295

$$$$

 OpenBabel03272507203D

 29 31  0  0  1  0  0  0  0  0999 V2000
   33.2240   29.9220   33.5380 C   0  0  0  0  0  0  0  0  0  0  0  0
   32.2700   30.4040   32.6510 C   0  0  0  0  0  0  0  0  0  0  0  0
   30.9430   30.2030   33.0610 C   0  0  0  0  0  0  0  0  0  0  0  0
   30.6530   29.5780   34.2490 N   0  0  0  0  0  0  0  0  0  0  0  0
   31.6230   29.1280   35.0780 C   0  0  0  0  0  0  0  0  0  0  0  0
   32.9290   29.3050   34.7130 N   0  0  0  0  0  0  0  0  0  0  0  0
   32.5430   30.8810   31.7430 H   0  0  0  0  0  0  0  0  0  0  0  0
   30.1640   30.5620   32.4000 H   0  0  0  0  0  0  0  0  0  0  0  0
   31.2980   28.4670   36.3370 C   0  0  0  0  0  0  0  0  0  0  0  0
   31.7120   28.9840   37.5490 C   0  0  0  0  0  0  0  0  0  0  0  0
   32.2870   29.8700   37.7840 H   0  0  0  0  0  0  0  0  0  0  0  0
   31.2460   28.1320   38.5080 N   0  0  0  0  0  0  0  0  0  0  0  0
   31.3510   28.1790   39.5520 H   0  0  0  0  0  0  0  0  0  0  0  0
   30.5620   27.1170   37.9150 C   0  0  0  0  0  0  0  0  0  0  0  0
   30.0570   26.2650   38.3470 H   0  0  0  0  0  0  0  0  0  0  0  0
   30.5930   27.3210   36.5710 N   0  0  0  0  0  0  0  0  0  0  0  0
   34.6530   30.1350   33.1450 C   0  0  1  0  0  0  0  0  0  0  0  0
   35.6640   30.5580   34.1090 C   0  0  2  0  0  0  0  0  0  0  0  0
   35.5940   29.0970   33.7950 C   0  0  0  0  0  0  0  0  0  0  0  0
   34.8240   30.3020   32.0640 H   0  0  0  0  0  0  0  0  0  0  0  0
   36.4400   31.2380   33.6650 H   0  0  0  0  0  0  0  0  0  0  0  0
   35.2010   28.4320   34.5640 H   0  0  0  0  0  0  0  0  0  0  0  0
   36.4470   28.7580   33.1510 H   0  0  0  0  0  0  0  0  0  0  0  0
   35.2130   31.0090   35.3440 O   0  0  0  0  0  0  0  0  0  0  0  0
   35.6410   32.0580   36.0880 C   0  0  0  0  0  0  0  0  0  0  0  0
   36.5280   32.8420   35.6930 O   0  0  0  0  0  0  0  0  0  0  0  0
   34.9310   32.0640   37.2900 N   0  0  0  0  0  0  0  0  0  0  0  0
   35.7230   31.6850   37.8670 H   0  0  0  0  0  0  0  0  0  0  0  0
   33.9400   32.3900   37.3330 H   0  0  0  0  0  0  0  0  0  0  0  0
  1  6  1  0  0  0  0
  2  3  1  0  0  0  0
  2  1  2  0  0  0  0
  3  4  2  0  0  0  0
  4  5  1  0  0  0  0
  5  9  1  0  0  0  0
  6  5  2  0  0  0  0
  7  2  1  0  0  0  0
  8  3  1  0  0  0  0
  9 16  1  0  0  0  0
  9 10  2  0  0  0  0
 10 11  1  0  0  0  0
 10 12  1  0  0  0  0
 12 13  1  0  0  0  0
 14 15  1  0  0  0  0
 14 12  1  0  0  0  0
 16 14  2  0  0  0  0
 17 20  1  6  0  0  0
 17  1  1  0  0  0  0
 17 19  1  0  0  0  0
 17 18  1  0  0  0  0
 18 21  1  6  0  0  0
 18 24  1  0  0  0  0
 19 18  1  0  0  0  0
 19 22  1  0  0  0  0
 23 19  1  0  0  0  0
 24 25  1  0  0  0  0
 25 27  1  0  0  0  0
 26 25  2  0  0  0  0
 27 29  1  0  0  0  0
 27 28  1  0  0  0  0
M  END
>  <minimizedAffinity>
-4.52885103

$$$$

 OpenBabel03272507203D

 29 31  0  0  1  0  0  0  0  0999 V2000
   37.3670   26.3080   33.7300 C   0  0  0  0  0  0  0  0  0  0  0  0
   37.2980   25.1570   32.9540 C   0  0  0  0  0  0  0  0  0  0  0  0
   36.6070   25.3150   31.7430 C   0  0  0  0  0  0  0  0  0  0  0  0
   36.0590   26.5240   31.3900 N   0  0  0  0  0  0  0  0  0  0  0  0
   36.1570   27.6160   32.1840 C   0  0  0  0  0  0  0  0  0  0  0  0
   36.8230   27.5010   33.3730 N   0  0  0  0  0  0  0  0  0  0  0  0
   37.7380   24.2440   33.2700 H   0  0  0  0  0  0  0  0  0  0  0  0
   36.5270   24.4440   31.1050 H   0  0  0  0  0  0  0  0  0  0  0  0
   35.5710   28.8930   31.7930 C   0  0  0  0  0  0  0  0  0  0  0  0
   36.0650   29.6150   30.7250 C   0  0  0  0  0  0  0  0  0  0  0  0
   36.8820   29.4090   30.0460 H   0  0  0  0  0  0  0  0  0  0  0  0
   35.2990   30.7410   30.6370 N   0  0  0  0  0  0  0  0  0  0  0  0
   35.3580   31.5390   29.9570 H   0  0  0  0  0  0  0  0  0  0  0  0
   34.3570   30.7230   31.6170 C   0  0  0  0  0  0  0  0  0  0  0  0
   33.5810   31.4360   31.8590 H   0  0  0  0  0  0  0  0  0  0  0  0
   34.5220   29.5800   32.3360 N   0  0  0  0  0  0  0  0  0  0  0  0
   38.1140   26.1840   35.0220 C   0  0  1  0  0  0  0  0  0  0  0  0
   39.4440   26.7600   35.2030 C   0  0  2  0  0  0  0  0  0  0  0  0
   38.2840   27.5480   35.7260 C   0  0  0  0  0  0  0  0  0  0  0  0
   37.7800   25.3610   35.6820 H   0  0  0  0  0  0  0  0  0  0  0  0
   40.1060   26.1410   35.8670 H   0  0  0  0  0  0  0  0  0  0  0  0
   38.0100   28.4580   35.1930 H   0  0  0  0  0  0  0  0  0  0  0  0
   38.2180   27.5180   36.8450 H   0  0  0  0  0  0  0  0  0  0  0  0
   40.1050   27.2010   34.0630 O   0  0  0  0  0  0  0  0  0  0  0  0
   41.4330   27.2320   33.7930 C   0  0  0  0  0  0  0  0  0  0  0  0
   41.8990   27.8160   32.7930 O   0  0  0  0  0  0  0  0  0  0  0  0
   42.1030   26.5270   34.7940 N   0  0  0  0  0  0  0  0  0  0  0  0
   42.2820   25.6770   34.2040 H   0  0  0  0  0  0  0  0  0  0  0  0
   42.2490   26.9380   35.7430 H   0  0  0  0  0  0  0  0  0  0  0  0
  1 17  1  0  0  0  0
  2  7  1  0  0  0  0
  2  1  2  0  0  0  0
  3  2  1  0  0  0  0
  4  3  2  0  0  0  0
  4  5  1  0  0  0  0
  5  6  2  0  0  0  0
  6  1  1  0  0  0  0
  8  3  1  0  0  0  0
  9  5  1  0  0  0  0
  9 16  1  0  0  0  0
 10  9  2  0  0  0  0
 11 10  1  0  0  0  0
 12 10  1  0  0  0  0
 12 14  1  0  0  0  0
 13 12  1  0  0  0  0
 14 15  1  0  0  0  0
 14 16  2  0  0  0  0
 17 18  1  0  0  0  0
 17 20  1  1  0  0  0
 17 19  1  0  0  0  0
 18 19  1  0  0  0  0
 18 21  1  1  0  0  0
 19 23  1  0  0  0  0
 22 19  1  0  0  0  0
 24 18  1  0  0  0  0
 25 24  1  0  0  0  0
 25 27  1  0  0  0  0
 26 25  2  0  0  0  0
 27 29  1  0  0  0  0
 28 27  1  0  0  0  0
M  END
>  <minimizedAffinity>
-4.50576973

$$$$

 OpenBabel03272507203D

 29 31  0  0  1  0  0  0  0  0999 V2000
   37.2900   25.8620   33.7190 C   0  0  0  0  0  0  0  0  0  0  0  0
   37.3620   27.2150   34.0230 C   0  0  0  0  0  0  0  0  0  0  0  0
   37.9860   27.5020   35.2470 C   0  0  0  0  0  0  0  0  0  0  0  0
   38.4720   26.5000   36.0490 N   0  0  0  0  0  0  0  0  0  0  0  0
   38.3760   25.1940   35.7040 C   0  0  0  0  0  0  0  0  0  0  0  0
   37.7740   24.8750   34.5190 N   0  0  0  0  0  0  0  0  0  0  0  0
   36.9720   27.9550   33.3700 H   0  0  0  0  0  0  0  0  0  0  0  0
   38.0640   28.5450   35.5260 H   0  0  0  0  0  0  0  0  0  0  0  0
   38.8980   24.1410   36.5680 C   0  0  0  0  0  0  0  0  0  0  0  0
   38.2460   23.7710   37.7270 C   0  0  0  0  0  0  0  0  0  0  0  0
   37.3310   24.1380   38.1750 H   0  0  0  0  0  0  0  0  0  0  0  0
   38.9920   22.7750   38.2860 N   0  0  0  0  0  0  0  0  0  0  0  0
   38.8300   22.2340   39.1710 H   0  0  0  0  0  0  0  0  0  0  0  0
   40.0760   22.5310   37.5020 C   0  0  0  0  0  0  0  0  0  0  0  0
   40.8820   21.8200   37.6200 H   0  0  0  0  0  0  0  0  0  0  0  0
   40.0210   23.3750   36.4370 N   0  0  0  0  0  0  0  0  0  0  0  0
   36.6490   25.5160   32.4110 C   0  0  1  0  0  0  0  0  0  0  0  0
   37.4320   25.3190   31.1940 C   0  0  2  0  0  0  0  0  0  0  0  0
   37.0180   24.0910   31.9430 C   0  0  0  0  0  0  0  0  0  0  0  0
   35.5720   25.7630   32.3340 H   0  0  0  0  0  0  0  0  0  0  0  0
   36.9050   25.6730   30.2680 H   0  0  0  0  0  0  0  0  0  0  0  0
   37.7910   23.5400   32.4780 H   0  0  0  0  0  0  0  0  0  0  0  0
   36.1970   23.5330   31.4230 H   0  0  0  0  0  0  0  0  0  0  0  0
   38.7630   25.7170   31.2270 O   0  0  0  0  0  0  0  0  0  0  0  0
   39.3610   26.7820   30.6380 C   0  0  0  0  0  0  0  0  0  0  0  0
   40.1770   27.5090   31.2400 O   0  0  0  0  0  0  0  0  0  0  0  0
   38.8960   26.8770   29.3250 N   0  0  0  0  0  0  0  0  0  0  0  0
   38.2550   27.6880   29.5120 H   0  0  0  0  0  0  0  0  0  0  0  0
   39.2370   26.2280   28.5810 H   0  0  0  0  0  0  0  0  0  0  0  0
  1  2  2  0  0  0  0
  1  6  1  0  0  0  0
  2  3  1  0  0  0  0
  3  8  1  0  0  0  0
  3  4  2  0  0  0  0
  5  4  1  0  0  0  0
  5  9  1  0  0  0  0
  6  5  2  0  0  0  0
  7  2  1  0  0  0  0
  9 10  2  0  0  0  0
 10 11  1  0  0  0  0
 10 12  1  0  0  0  0
 12 13  1  0  0  0  0
 14 15  1  0  0  0  0
 14 12  1  0  0  0  0
 16  9  1  0  0  0  0
 16 14  2  0  0  0  0
 17 20  1  6  0  0  0
 17  1  1  0  0  0  0
 18 21  1  6  0  0  0
 18 24  1  0  0  0  0
 18 19  1  0  0  0  0
 18 17  1  0  0  0  0
 19 17  1  0  0  0  0
 19 22  1  0  0  0  0
 23 19  1  0  0  0  0
 25 24  1  0  0  0  0
 25 26  2  0  0  0  0
 27 28  1  0  0  0  0
 27 25  1  0  0  0  0
 29 27  1  0  0  0  0
M  END
>  <minimizedAffinity>
-4.44113493

$$$$
