
 OpenBabel03272509563D

 42 45  0  0  0  0  0  0  0  0999 V2000
   38.2820   26.6800   32.8120 C   0  0  0  0  0  0  0  0  0  0  0  0
   38.6940   27.4480   32.1160 H   0  0  0  0  0  0  0  0  0  0  0  0
   39.0340   26.5620   33.6360 H   0  0  0  0  0  0  0  0  0  0  0  0
   38.1680   25.3760   32.0860 C   0  0  0  0  0  0  0  0  0  0  0  0
   39.0400   25.2050   31.4590 H   0  0  0  0  0  0  0  0  0  0  0  0
   37.2760   25.3780   31.4050 H   0  0  0  0  0  0  0  0  0  0  0  0
   37.9720   24.2230   33.0110 C   0  0  0  0  0  0  0  0  0  0  0  0
   37.3920   23.0680   32.5040 C   0  0  0  0  0  0  0  0  0  0  0  0
   37.1720   21.9590   33.2790 C   0  0  0  0  0  0  0  0  0  0  0  0
   37.5240   21.9860   34.5560 N   0  0  0  0  0  0  0  0  0  0  0  0
   38.0980   23.1290   35.0610 C   0  0  0  0  0  0  0  0  0  0  0  0
   38.3220   24.2270   34.3160 N   0  0  0  0  0  0  0  0  0  0  0  0
   37.0980   23.0290   31.4610 H   0  0  0  0  0  0  0  0  0  0  0  0
   36.7170   21.0850   32.8340 H   0  0  0  0  0  0  0  0  0  0  0  0
   38.4790   23.1390   36.4750 C   0  0  0  0  0  0  0  0  0  0  0  0
   39.6500   22.4930   36.8830 C   0  0  0  0  0  0  0  0  0  0  0  0
   40.3690   21.9500   36.2790 H   0  0  0  0  0  0  0  0  0  0  0  0
   39.8090   22.6280   38.2280 N   0  0  0  0  0  0  0  0  0  0  0  0
   40.6000   22.2420   38.8000 H   0  0  0  0  0  0  0  0  0  0  0  0
   38.7500   23.3460   38.6460 C   0  0  0  0  0  0  0  0  0  0  0  0
   38.6210   23.6020   39.6700 H   0  0  0  0  0  0  0  0  0  0  0  0
   37.9430   23.6610   37.6020 N   0  0  0  0  0  0  0  0  0  0  0  0
   37.0180   27.0910   33.3140 O   0  0  0  0  0  0  0  0  0  0  0  0
   36.0090   30.0560   31.5270 C   0  0  0  0  0  0  0  0  0  0  0  0
   35.3830   30.7890   32.5750 C   0  0  0  0  0  0  0  0  0  0  0  0
   35.3570   30.2010   33.8310 C   0  0  0  0  0  0  0  0  0  0  0  0
   35.9370   28.9620   33.9460 N   0  0  0  0  0  0  0  0  0  0  0  0
   36.5160   28.3030   32.9400 C   0  0  0  0  0  0  0  0  0  0  0  0
   36.5420   28.8710   31.7240 N   0  0  0  0  0  0  0  0  0  0  0  0
   35.9820   30.5890   30.5930 H   0  0  0  0  0  0  0  0  0  0  0  0
   34.9290   31.7640   32.4720 H   0  0  0  0  0  0  0  0  0  0  0  0
   36.6510   31.7750   35.8780 F   0  0  0  0  0  0  0  0  0  0  0  0
   35.3600   31.5160   35.9820 C   0  0  0  0  0  0  0  0  0  0  0  0
   34.7760   30.7760   35.0080 C   0  0  0  0  0  0  0  0  0  0  0  0
   33.4050   30.5690   35.2270 C   0  0  0  0  0  0  0  0  0  0  0  0
   32.7250   31.0620   36.3120 C   0  0  0  0  0  0  0  0  0  0  0  0
   33.3610   31.8020   37.2620 C   0  0  0  0  0  0  0  0  0  0  0  0
   34.7110   32.0300   37.0860 C   0  0  0  0  0  0  0  0  0  0  0  0
   32.8330   29.9790   34.4970 H   0  0  0  0  0  0  0  0  0  0  0  0
   31.6690   30.8560   36.4040 H   0  0  0  0  0  0  0  0  0  0  0  0
   32.7820   32.1600   38.0850 H   0  0  0  0  0  0  0  0  0  0  0  0
   35.2300   32.6100   37.8230 H   0  0  0  0  0  0  0  0  0  0  0  0
  1 23  1  0  0  0  0
  1  3  1  0  0  0  0
  2  1  1  0  0  0  0
  4  1  1  0  0  0  0
  4  7  1  0  0  0  0
  5  4  1  0  0  0  0
  6  4  1  0  0  0  0
  7 12  1  0  0  0  0
  8  7  2  0  0  0  0
  8  9  1  0  0  0  0
  9 10  2  0  0  0  0
 10 11  1  0  0  0  0
 11 15  1  0  0  0  0
 12 11  2  0  0  0  0
 13  8  1  0  0  0  0
 14  9  1  0  0  0  0
 15 16  2  0  0  0  0
 15 22  1  0  0  0  0
 16 18  1  0  0  0  0
 17 16  1  0  0  0  0
 18 20  1  0  0  0  0
 18 19  1  0  0  0  0
 20 21  1  0  0  0  0
 22 20  2  0  0  0  0
 24 29  2  0  0  0  0
 24 25  1  0  0  0  0
 25 26  2  0  0  0  0
 26 27  1  0  0  0  0
 26 34  1  0  0  0  0
 28 23  1  0  0  0  0
 28 27  2  0  0  0  0
 29 28  1  0  0  0  0
 30 24  1  0  0  0  0
 31 25  1  0  0  0  0
 32 33  1  0  0  0  0
 33 38  1  0  0  0  0
 34 35  1  0  0  0  0
 34 33  2  0  0  0  0
 35 36  2  0  0  0  0
 36 40  1  0  0  0  0
 36 37  1  0  0  0  0
 37 41  1  0  0  0  0
 38 37  2  0  0  0  0
 38 42  1  0  0  0  0
 39 35  1  0  0  0  0
M  END
>  <minimizedAffinity>
-6.44333267

$$$$

 OpenBabel03272509563D

 42 45  0  0  0  0  0  0  0  0999 V2000
   37.0130   27.1460   31.7000 C   0  0  0  0  0  0  0  0  0  0  0  0
   37.3300   26.8320   30.6760 H   0  0  0  0  0  0  0  0  0  0  0  0
   37.8760   27.7110   32.1390 H   0  0  0  0  0  0  0  0  0  0  0  0
   36.7750   25.9240   32.5310 C   0  0  0  0  0  0  0  0  0  0  0  0
   37.1090   25.0300   32.0090 H   0  0  0  0  0  0  0  0  0  0  0  0
   35.6800   25.7900   32.7350 H   0  0  0  0  0  0  0  0  0  0  0  0
   37.4300   26.0080   33.8680 C   0  0  0  0  0  0  0  0  0  0  0  0
   37.4720   27.2430   34.5010 C   0  0  0  0  0  0  0  0  0  0  0  0
   38.0540   27.4160   35.7300 C   0  0  0  0  0  0  0  0  0  0  0  0
   38.5950   26.3710   36.3390 N   0  0  0  0  0  0  0  0  0  0  0  0
   38.5560   25.1470   35.7140 C   0  0  0  0  0  0  0  0  0  0  0  0
   37.9890   24.9570   34.5080 N   0  0  0  0  0  0  0  0  0  0  0  0
   37.0340   28.1090   34.0170 H   0  0  0  0  0  0  0  0  0  0  0  0
   38.0590   28.4000   36.1780 H   0  0  0  0  0  0  0  0  0  0  0  0
   39.1600   24.0050   36.4030 C   0  0  0  0  0  0  0  0  0  0  0  0
   38.6490   23.5880   37.6360 C   0  0  0  0  0  0  0  0  0  0  0  0
   37.8210   24.0030   38.2010 H   0  0  0  0  0  0  0  0  0  0  0  0
   39.3550   22.5180   38.0930 N   0  0  0  0  0  0  0  0  0  0  0  0
   39.1890   22.0030   38.9930 H   0  0  0  0  0  0  0  0  0  0  0  0
   40.2910   22.2770   37.1560 C   0  0  0  0  0  0  0  0  0  0  0  0
   40.9900   21.4830   37.2590 H   0  0  0  0  0  0  0  0  0  0  0  0
   40.1840   23.1630   36.1340 N   0  0  0  0  0  0  0  0  0  0  0  0
   35.8420   27.9490   31.6340 O   0  0  0  0  0  0  0  0  0  0  0  0
   36.5020   31.4800   31.3240 C   0  0  0  0  0  0  0  0  0  0  0  0
   35.9780   31.9500   32.5630 C   0  0  0  0  0  0  0  0  0  0  0  0
   35.4340   31.0050   33.4190 C   0  0  0  0  0  0  0  0  0  0  0  0
   35.4480   29.7010   32.9910 N   0  0  0  0  0  0  0  0  0  0  0  0
   35.9480   29.2960   31.8210 C   0  0  0  0  0  0  0  0  0  0  0  0
   36.4760   30.2090   30.9920 N   0  0  0  0  0  0  0  0  0  0  0  0
   36.9020   32.2810   30.7280 H   0  0  0  0  0  0  0  0  0  0  0  0
   35.9720   32.9800   32.8890 H   0  0  0  0  0  0  0  0  0  0  0  0
   36.7270   32.0940   35.7610 F   0  0  0  0  0  0  0  0  0  0  0  0
   35.4440   31.7870   35.8160 C   0  0  0  0  0  0  0  0  0  0  0  0
   34.8600   31.2780   34.7040 C   0  0  0  0  0  0  0  0  0  0  0  0
   33.4980   30.9910   34.8830 C   0  0  0  0  0  0  0  0  0  0  0  0
   32.8250   31.2040   36.0610 C   0  0  0  0  0  0  0  0  0  0  0  0
   33.4600   31.7190   37.1490 C   0  0  0  0  0  0  0  0  0  0  0  0
   34.8010   32.0150   37.0160 C   0  0  0  0  0  0  0  0  0  0  0  0
   32.9270   30.5730   34.0430 H   0  0  0  0  0  0  0  0  0  0  0  0
   31.7750   30.9550   36.1140 H   0  0  0  0  0  0  0  0  0  0  0  0
   32.8870   31.8620   38.0390 H   0  0  0  0  0  0  0  0  0  0  0  0
   35.3200   32.4210   37.8620 H   0  0  0  0  0  0  0  0  0  0  0  0
  1  3  1  0  0  0  0
  1  4  1  0  0  0  0
  2  1  1  0  0  0  0
  4  6  1  0  0  0  0
  4  7  1  0  0  0  0
  5  4  1  0  0  0  0
  7  8  2  0  0  0  0
  7 12  1  0  0  0  0
  8  9  1  0  0  0  0
  9 14  1  0  0  0  0
  9 10  2  0  0  0  0
 11 10  1  0  0  0  0
 11 15  1  0  0  0  0
 12 11  2  0  0  0  0
 13  8  1  0  0  0  0
 15 16  2  0  0  0  0
 16 18  1  0  0  0  0
 16 17  1  0  0  0  0
 18 19  1  0  0  0  0
 20 21  1  0  0  0  0
 20 18  1  0  0  0  0
 22 15  1  0  0  0  0
 22 20  2  0  0  0  0
 23  1  1  0  0  0  0
 23 28  1  0  0  0  0
 24 25  1  0  0  0  0
 25 31  1  0  0  0  0
 25 26  2  0  0  0  0
 26 34  1  0  0  0  0
 27 26  1  0  0  0  0
 28 27  2  0  0  0  0
 29 24  2  0  0  0  0
 29 28  1  0  0  0  0
 30 24  1  0  0  0  0
 32 33  1  0  0  0  0
 33 38  1  0  0  0  0
 34 35  1  0  0  0  0
 34 33  2  0  0  0  0
 35 36  2  0  0  0  0
 36 40  1  0  0  0  0
 36 37  1  0  0  0  0
 37 41  1  0  0  0  0
 38 37  2  0  0  0  0
 38 42  1  0  0  0  0
 39 35  1  0  0  0  0
M  END
>  <minimizedAffinity>
-6.30149984

$$$$

 OpenBabel03272509563D

 42 45  0  0  0  0  0  0  0  0999 V2000
   36.9510   21.6150   32.4790 C   0  0  0  0  0  0  0  0  0  0  0  0
   36.2260   20.8000   32.7110 H   0  0  0  0  0  0  0  0  0  0  0  0
   37.0110   22.2580   33.3960 H   0  0  0  0  0  0  0  0  0  0  0  0
   36.4090   22.4430   31.3560 C   0  0  0  0  0  0  0  0  0  0  0  0
   35.4110   22.1110   31.0780 H   0  0  0  0  0  0  0  0  0  0  0  0
   37.0500   22.3400   30.4410 H   0  0  0  0  0  0  0  0  0  0  0  0
   36.3890   23.8990   31.6780 C   0  0  0  0  0  0  0  0  0  0  0  0
   35.5730   24.7270   30.9190 C   0  0  0  0  0  0  0  0  0  0  0  0
   35.4910   26.0770   31.1410 C   0  0  0  0  0  0  0  0  0  0  0  0
   36.2130   26.6140   32.1140 N   0  0  0  0  0  0  0  0  0  0  0  0
   37.0230   25.7970   32.8680 C   0  0  0  0  0  0  0  0  0  0  0  0
   37.1160   24.4700   32.6640 N   0  0  0  0  0  0  0  0  0  0  0  0
   34.9750   24.3040   30.1190 H   0  0  0  0  0  0  0  0  0  0  0  0
   34.8400   26.6760   30.5210 H   0  0  0  0  0  0  0  0  0  0  0  0
   37.8130   26.4100   33.9370 C   0  0  0  0  0  0  0  0  0  0  0  0
   37.1830   27.2150   34.8910 C   0  0  0  0  0  0  0  0  0  0  0  0
   36.1330   27.4740   34.9710 H   0  0  0  0  0  0  0  0  0  0  0  0
   38.1000   27.6770   35.7850 N   0  0  0  0  0  0  0  0  0  0  0  0
   37.9050   28.3020   36.6050 H   0  0  0  0  0  0  0  0  0  0  0  0
   39.2800   27.1660   35.3880 C   0  0  0  0  0  0  0  0  0  0  0  0
   40.1800   27.3690   35.9160 H   0  0  0  0  0  0  0  0  0  0  0  0
   39.1220   26.4010   34.2780 N   0  0  0  0  0  0  0  0  0  0  0  0
   38.2200   21.0720   32.1390 O   0  0  0  0  0  0  0  0  0  0  0  0
   41.4960   21.3500   33.6200 C   0  0  0  0  0  0  0  0  0  0  0  0
   41.1650   21.9540   34.8680 C   0  0  0  0  0  0  0  0  0  0  0  0
   39.8250   22.2200   35.1050 C   0  0  0  0  0  0  0  0  0  0  0  0
   38.9390   21.8780   34.1140 N   0  0  0  0  0  0  0  0  0  0  0  0
   39.2860   21.3130   32.9550 C   0  0  0  0  0  0  0  0  0  0  0  0
   40.5830   21.0540   32.7230 N   0  0  0  0  0  0  0  0  0  0  0  0
   42.5540   21.1810   33.5240 H   0  0  0  0  0  0  0  0  0  0  0  0
   41.8710   22.2190   35.6410 H   0  0  0  0  0  0  0  0  0  0  0  0
   40.8240   22.0240   37.8090 F   0  0  0  0  0  0  0  0  0  0  0  0
   39.7420   22.7430   37.5710 C   0  0  0  0  0  0  0  0  0  0  0  0
   39.2940   22.8200   36.2940 C   0  0  0  0  0  0  0  0  0  0  0  0
   38.1410   23.6110   36.1660 C   0  0  0  0  0  0  0  0  0  0  0  0
   37.5310   24.2410   37.2210 C   0  0  0  0  0  0  0  0  0  0  0  0
   38.0240   24.1320   38.4850 C   0  0  0  0  0  0  0  0  0  0  0  0
   39.1570   23.3630   38.6560 C   0  0  0  0  0  0  0  0  0  0  0  0
   37.6920   23.7390   35.1710 H   0  0  0  0  0  0  0  0  0  0  0  0
   36.6460   24.8320   37.0350 H   0  0  0  0  0  0  0  0  0  0  0  0
   37.5080   24.6430   39.2680 H   0  0  0  0  0  0  0  0  0  0  0  0
   39.5610   23.2630   39.6440 H   0  0  0  0  0  0  0  0  0  0  0  0
  1  2  1  0  0  0  0
  1  3  1  0  0  0  0
  4  7  1  0  0  0  0
  4  1  1  0  0  0  0
  5  4  1  0  0  0  0
  6  4  1  0  0  0  0
  7 12  1  0  0  0  0
  8  9  1  0  0  0  0
  8  7  2  0  0  0  0
  9 10  2  0  0  0  0
 10 11  1  0  0  0  0
 11 15  1  0  0  0  0
 12 11  2  0  0  0  0
 13  8  1  0  0  0  0
 14  9  1  0  0  0  0
 15 22  1  0  0  0  0
 15 16  2  0  0  0  0
 16 17  1  0  0  0  0
 16 18  1  0  0  0  0
 18 19  1  0  0  0  0
 20 18  1  0  0  0  0
 20 21  1  0  0  0  0
 22 20  2  0  0  0  0
 23  1  1  0  0  0  0
 23 28  1  0  0  0  0
 24 25  1  0  0  0  0
 25 26  2  0  0  0  0
 25 31  1  0  0  0  0
 26 34  1  0  0  0  0
 27 26  1  0  0  0  0
 28 27  2  0  0  0  0
 29 28  1  0  0  0  0
 29 24  2  0  0  0  0
 30 24  1  0  0  0  0
 33 32  1  0  0  0  0
 33 38  1  0  0  0  0
 34 33  2  0  0  0  0
 35 34  1  0  0  0  0
 35 36  2  0  0  0  0
 36 37  1  0  0  0  0
 37 38  2  0  0  0  0
 37 41  1  0  0  0  0
 38 42  1  0  0  0  0
 39 35  1  0  0  0  0
 40 36  1  0  0  0  0
M  END
>  <minimizedAffinity>
-6.15511799

$$$$

 OpenBabel03272509563D

 42 45  0  0  0  0  0  0  0  0999 V2000
   38.6960   26.2530   34.5060 C   0  0  0  0  0  0  0  0  0  0  0  0
   39.6950   26.3100   35.0000 H   0  0  0  0  0  0  0  0  0  0  0  0
   38.3940   27.3090   34.2780 H   0  0  0  0  0  0  0  0  0  0  0  0
   37.7070   25.6770   35.4710 C   0  0  0  0  0  0  0  0  0  0  0  0
   36.8790   25.2090   34.9430 H   0  0  0  0  0  0  0  0  0  0  0  0
   37.2660   26.4830   36.1150 H   0  0  0  0  0  0  0  0  0  0  0  0
   38.3290   24.7000   36.4100 C   0  0  0  0  0  0  0  0  0  0  0  0
   37.8400   24.6370   37.7080 C   0  0  0  0  0  0  0  0  0  0  0  0
   38.3500   23.7710   38.6400 C   0  0  0  0  0  0  0  0  0  0  0  0
   39.3430   22.9650   38.2950 N   0  0  0  0  0  0  0  0  0  0  0  0
   39.8300   23.0260   37.0100 C   0  0  0  0  0  0  0  0  0  0  0  0
   39.3420   23.8690   36.0810 N   0  0  0  0  0  0  0  0  0  0  0  0
   37.0270   25.2890   38.0070 H   0  0  0  0  0  0  0  0  0  0  0  0
   37.9320   23.7620   39.6380 H   0  0  0  0  0  0  0  0  0  0  0  0
   40.9280   22.1270   36.6490 C   0  0  0  0  0  0  0  0  0  0  0  0
   41.3390   22.0350   35.3150 C   0  0  0  0  0  0  0  0  0  0  0  0
   40.9480   22.5580   34.4490 H   0  0  0  0  0  0  0  0  0  0  0  0
   42.3660   21.1480   35.2070 N   0  0  0  0  0  0  0  0  0  0  0  0
   42.8670   20.8840   34.3230 H   0  0  0  0  0  0  0  0  0  0  0  0
   42.5860   20.6980   36.4560 C   0  0  0  0  0  0  0  0  0  0  0  0
   43.3460   19.9840   36.6640 H   0  0  0  0  0  0  0  0  0  0  0  0
   41.7290   21.2790   37.3330 N   0  0  0  0  0  0  0  0  0  0  0  0
   38.7690   25.4640   33.3260 O   0  0  0  0  0  0  0  0  0  0  0  0
   35.7520   25.8080   31.3800 C   0  0  0  0  0  0  0  0  0  0  0  0
   35.4280   24.4370   31.1620 C   0  0  0  0  0  0  0  0  0  0  0  0
   36.2820   23.4910   31.7080 C   0  0  0  0  0  0  0  0  0  0  0  0
   37.3630   23.9630   32.4090 N   0  0  0  0  0  0  0  0  0  0  0  0
   37.6360   25.2570   32.5940 C   0  0  0  0  0  0  0  0  0  0  0  0
   36.8110   26.1750   32.0660 N   0  0  0  0  0  0  0  0  0  0  0  0
   35.0360   26.4670   30.9220 H   0  0  0  0  0  0  0  0  0  0  0  0
   34.5740   24.0770   30.6080 H   0  0  0  0  0  0  0  0  0  0  0  0
   37.9090   21.6240   30.2210 F   0  0  0  0  0  0  0  0  0  0  0  0
   36.8760   21.1740   30.9090 C   0  0  0  0  0  0  0  0  0  0  0  0
   36.1280   22.0700   31.6000 C   0  0  0  0  0  0  0  0  0  0  0  0
   35.0620   21.4750   32.2910 C   0  0  0  0  0  0  0  0  0  0  0  0
   34.8010   20.1270   32.2720 C   0  0  0  0  0  0  0  0  0  0  0  0
   35.5850   19.2700   31.5620 C   0  0  0  0  0  0  0  0  0  0  0  0
   36.6460   19.8140   30.8670 C   0  0  0  0  0  0  0  0  0  0  0  0
   34.3900   22.1120   32.8830 H   0  0  0  0  0  0  0  0  0  0  0  0
   33.9580   19.7510   32.8330 H   0  0  0  0  0  0  0  0  0  0  0  0
   35.3350   18.2320   31.5830 H   0  0  0  0  0  0  0  0  0  0  0  0
   37.2760   19.1560   30.3010 H   0  0  0  0  0  0  0  0  0  0  0  0
  1  2  1  0  0  0  0
  1  4  1  0  0  0  0
  3  1  1  0  0  0  0
  4  6  1  0  0  0  0
  4  7  1  0  0  0  0
  5  4  1  0  0  0  0
  7  8  1  0  0  0  0
  8 13  1  0  0  0  0
  8  9  2  0  0  0  0
  9 14  1  0  0  0  0
 10  9  1  0  0  0  0
 11 10  2  0  0  0  0
 12  7  2  0  0  0  0
 12 11  1  0  0  0  0
 15 11  1  0  0  0  0
 15 22  1  0  0  0  0
 16 15  2  0  0  0  0
 17 16  1  0  0  0  0
 18 16  1  0  0  0  0
 18 20  1  0  0  0  0
 19 18  1  0  0  0  0
 20 21  1  0  0  0  0
 20 22  2  0  0  0  0
 23  1  1  0  0  0  0
 24 29  1  0  0  0  0
 25 24  2  0  0  0  0
 25 26  1  0  0  0  0
 26 27  2  0  0  0  0
 27 28  1  0  0  0  0
 28 23  1  0  0  0  0
 29 28  2  0  0  0  0
 30 24  1  0  0  0  0
 31 25  1  0  0  0  0
 32 33  1  0  0  0  0
 33 34  1  0  0  0  0
 34 26  1  0  0  0  0
 34 35  2  0  0  0  0
 35 39  1  0  0  0  0
 36 35  1  0  0  0  0
 36 40  1  0  0  0  0
 37 41  1  0  0  0  0
 37 36  2  0  0  0  0
 38 33  2  0  0  0  0
 38 37  1  0  0  0  0
 42 38  1  0  0  0  0
M  END
>  <minimizedAffinity>
-6.12661839

$$$$

 OpenBabel03272509563D

 42 45  0  0  0  0  0  0  0  0999 V2000
   35.7110   21.6800   32.3180 C   0  0  0  0  0  0  0  0  0  0  0  0
   35.4080   22.3070   33.1900 H   0  0  0  0  0  0  0  0  0  0  0  0
   34.8360   21.0190   32.0840 H   0  0  0  0  0  0  0  0  0  0  0  0
   36.8640   20.8140   32.7180 C   0  0  0  0  0  0  0  0  0  0  0  0
   37.3120   20.3400   31.8480 H   0  0  0  0  0  0  0  0  0  0  0  0
   36.5230   19.9870   33.3970 H   0  0  0  0  0  0  0  0  0  0  0  0
   37.9030   21.5640   33.4810 C   0  0  0  0  0  0  0  0  0  0  0  0
   39.1270   21.7940   32.8670 C   0  0  0  0  0  0  0  0  0  0  0  0
   40.1410   22.4730   33.4900 C   0  0  0  0  0  0  0  0  0  0  0  0
   39.9510   22.9280   34.7210 N   0  0  0  0  0  0  0  0  0  0  0  0
   38.7400   22.7010   35.3310 C   0  0  0  0  0  0  0  0  0  0  0  0
   37.7330   22.0370   34.7350 N   0  0  0  0  0  0  0  0  0  0  0  0
   39.3000   21.4290   31.8610 H   0  0  0  0  0  0  0  0  0  0  0  0
   41.0760   22.6250   32.9670 H   0  0  0  0  0  0  0  0  0  0  0  0
   38.5500   23.2110   36.6900 C   0  0  0  0  0  0  0  0  0  0  0  0
   39.4680   22.8780   37.6910 C   0  0  0  0  0  0  0  0  0  0  0  0
   40.3570   22.2620   37.6160 H   0  0  0  0  0  0  0  0  0  0  0  0
   39.1000   23.4560   38.8670 N   0  0  0  0  0  0  0  0  0  0  0  0
   39.6070   23.3730   39.7830 H   0  0  0  0  0  0  0  0  0  0  0  0
   37.9700   24.1350   38.5980 C   0  0  0  0  0  0  0  0  0  0  0  0
   37.4610   24.6880   39.3490 H   0  0  0  0  0  0  0  0  0  0  0  0
   37.6280   23.9970   37.2920 N   0  0  0  0  0  0  0  0  0  0  0  0
   36.0550   22.5000   31.2100 O   0  0  0  0  0  0  0  0  0  0  0  0
   35.1480   25.9820   30.9750 C   0  0  0  0  0  0  0  0  0  0  0  0
   36.1180   26.5610   31.8450 C   0  0  0  0  0  0  0  0  0  0  0  0
   37.0190   25.6990   32.4500 C   0  0  0  0  0  0  0  0  0  0  0  0
   36.8930   24.3640   32.1560 N   0  0  0  0  0  0  0  0  0  0  0  0
   35.9700   23.8560   31.3350 C   0  0  0  0  0  0  0  0  0  0  0  0
   35.0960   24.6890   30.7480 N   0  0  0  0  0  0  0  0  0  0  0  0
   34.4940   26.7250   30.5530 H   0  0  0  0  0  0  0  0  0  0  0  0
   36.2070   27.6140   32.0690 H   0  0  0  0  0  0  0  0  0  0  0  0
   36.7900   26.4840   35.2210 F   0  0  0  0  0  0  0  0  0  0  0  0
   37.9820   26.4580   34.6530 C   0  0  0  0  0  0  0  0  0  0  0  0
   38.0640   26.0850   33.3520 C   0  0  0  0  0  0  0  0  0  0  0  0
   39.3780   26.0960   32.8610 C   0  0  0  0  0  0  0  0  0  0  0  0
   40.4690   26.4460   33.6170 C   0  0  0  0  0  0  0  0  0  0  0  0
   40.3320   26.8110   34.9210 C   0  0  0  0  0  0  0  0  0  0  0  0
   39.0550   26.8150   35.4440 C   0  0  0  0  0  0  0  0  0  0  0  0
   39.5580   25.8110   31.8150 H   0  0  0  0  0  0  0  0  0  0  0  0
   41.4480   26.4270   33.1610 H   0  0  0  0  0  0  0  0  0  0  0  0
   41.2150   27.0740   35.4610 H   0  0  0  0  0  0  0  0  0  0  0  0
   38.9250   27.1010   36.4700 H   0  0  0  0  0  0  0  0  0  0  0  0
  1  4  1  0  0  0  0
  1  2  1  0  0  0  0
  3  1  1  0  0  0  0
  4  6  1  0  0  0  0
  4  7  1  0  0  0  0
  5  4  1  0  0  0  0
  7 12  1  0  0  0  0
  8  7  2  0  0  0  0
  8  9  1  0  0  0  0
  9 10  2  0  0  0  0
 10 11  1  0  0  0  0
 11 15  1  0  0  0  0
 12 11  2  0  0  0  0
 13  8  1  0  0  0  0
 14  9  1  0  0  0  0
 15 22  1  0  0  0  0
 15 16  2  0  0  0  0
 16 18  1  0  0  0  0
 17 16  1  0  0  0  0
 18 19  1  0  0  0  0
 20 18  1  0  0  0  0
 20 21  1  0  0  0  0
 22 20  2  0  0  0  0
 23 28  1  0  0  0  0
 23  1  1  0  0  0  0
 24 25  1  0  0  0  0
 25 31  1  0  0  0  0
 25 26  2  0  0  0  0
 26 34  1  0  0  0  0
 27 26  1  0  0  0  0
 28 27  2  0  0  0  0
 29 24  2  0  0  0  0
 29 28  1  0  0  0  0
 30 24  1  0  0  0  0
 33 32  1  0  0  0  0
 33 38  1  0  0  0  0
 34 33  2  0  0  0  0
 35 34  1  0  0  0  0
 35 36  2  0  0  0  0
 36 37  1  0  0  0  0
 37 38  2  0  0  0  0
 37 41  1  0  0  0  0
 38 42  1  0  0  0  0
 39 35  1  0  0  0  0
 40 36  1  0  0  0  0
M  END
>  <minimizedAffinity>
-6.09275723

$$$$

 OpenBabel03272509563D

 42 45  0  0  0  0  0  0  0  0999 V2000
   35.9610   26.7290   30.9520 C   0  0  0  0  0  0  0  0  0  0  0  0
   35.4130   27.5070   30.3700 H   0  0  0  0  0  0  0  0  0  0  0  0
   36.9050   26.5160   30.3860 H   0  0  0  0  0  0  0  0  0  0  0  0
   35.1390   25.4780   30.9870 C   0  0  0  0  0  0  0  0  0  0  0  0
   34.4560   25.4400   30.1420 H   0  0  0  0  0  0  0  0  0  0  0  0
   34.5070   25.4450   31.9140 H   0  0  0  0  0  0  0  0  0  0  0  0
   35.9770   24.2450   31.0210 C   0  0  0  0  0  0  0  0  0  0  0  0
   37.2790   24.3260   30.5460 C   0  0  0  0  0  0  0  0  0  0  0  0
   38.1220   23.2450   30.5370 C   0  0  0  0  0  0  0  0  0  0  0  0
   37.6830   22.0820   30.9970 N   0  0  0  0  0  0  0  0  0  0  0  0
   36.3940   21.9990   31.4670 C   0  0  0  0  0  0  0  0  0  0  0  0
   35.5520   23.0490   31.4840 N   0  0  0  0  0  0  0  0  0  0  0  0
   37.6550   25.2690   30.1660 H   0  0  0  0  0  0  0  0  0  0  0  0
   39.1270   23.3620   30.1560 H   0  0  0  0  0  0  0  0  0  0  0  0
   35.9280   20.7060   31.9700 C   0  0  0  0  0  0  0  0  0  0  0  0
   35.7410   20.5220   33.3440 C   0  0  0  0  0  0  0  0  0  0  0  0
   35.8970   21.2310   34.1500 H   0  0  0  0  0  0  0  0  0  0  0  0
   35.3080   19.2540   33.5870 N   0  0  0  0  0  0  0  0  0  0  0  0
   35.0880   18.8440   34.5280 H   0  0  0  0  0  0  0  0  0  0  0  0
   35.2280   18.6630   32.3810 C   0  0  0  0  0  0  0  0  0  0  0  0
   34.9090   17.6540   32.2750 H   0  0  0  0  0  0  0  0  0  0  0  0
   35.5970   19.5250   31.3990 N   0  0  0  0  0  0  0  0  0  0  0  0
   36.2340   27.1910   32.2680 O   0  0  0  0  0  0  0  0  0  0  0  0
   39.7660   27.1270   32.9920 C   0  0  0  0  0  0  0  0  0  0  0  0
   39.7720   26.3360   34.1770 C   0  0  0  0  0  0  0  0  0  0  0  0
   38.5470   25.8790   34.6390 C   0  0  0  0  0  0  0  0  0  0  0  0
   37.4390   26.2340   33.9110 N   0  0  0  0  0  0  0  0  0  0  0  0
   37.4710   26.9800   32.8040 C   0  0  0  0  0  0  0  0  0  0  0  0
   38.6560   27.4220   32.3550 N   0  0  0  0  0  0  0  0  0  0  0  0
   40.7570   27.4350   32.7100 H   0  0  0  0  0  0  0  0  0  0  0  0
   40.6510   26.0620   34.7420 H   0  0  0  0  0  0  0  0  0  0  0  0
   38.1560   26.7490   37.3670 F   0  0  0  0  0  0  0  0  0  0  0  0
   38.1610   25.4560   37.0950 C   0  0  0  0  0  0  0  0  0  0  0  0
   38.3460   25.0730   35.8080 C   0  0  0  0  0  0  0  0  0  0  0  0
   38.3310   23.6800   35.6440 C   0  0  0  0  0  0  0  0  0  0  0  0
   38.1490   22.7950   36.6770 C   0  0  0  0  0  0  0  0  0  0  0  0
   37.9660   23.2330   37.9530 C   0  0  0  0  0  0  0  0  0  0  0  0
   37.9740   24.5970   38.1590 C   0  0  0  0  0  0  0  0  0  0  0  0
   38.4730   23.2610   34.6380 H   0  0  0  0  0  0  0  0  0  0  0  0
   38.1510   21.7360   36.4630 H   0  0  0  0  0  0  0  0  0  0  0  0
   37.8300   22.4990   38.7170 H   0  0  0  0  0  0  0  0  0  0  0  0
   37.8330   24.9630   39.1570 H   0  0  0  0  0  0  0  0  0  0  0  0
  1  4  1  0  0  0  0
  1 23  1  0  0  0  0
  2  1  1  0  0  0  0
  3  1  1  0  0  0  0
  4  7  1  0  0  0  0
  4  6  1  0  0  0  0
  5  4  1  0  0  0  0
  7 12  1  0  0  0  0
  8  7  2  0  0  0  0
  9  8  1  0  0  0  0
  9 10  2  0  0  0  0
 10 11  1  0  0  0  0
 11 12  2  0  0  0  0
 11 15  1  0  0  0  0
 13  8  1  0  0  0  0
 14  9  1  0  0  0  0
 15 16  2  0  0  0  0
 16 18  1  0  0  0  0
 16 17  1  0  0  0  0
 18 19  1  0  0  0  0
 20 18  1  0  0  0  0
 21 20  1  0  0  0  0
 22 15  1  0  0  0  0
 22 20  2  0  0  0  0
 23 28  1  0  0  0  0
 24 25  1  0  0  0  0
 25 26  2  0  0  0  0
 25 31  1  0  0  0  0
 26 34  1  0  0  0  0
 27 26  1  0  0  0  0
 28 27  2  0  0  0  0
 29 28  1  0  0  0  0
 29 24  2  0  0  0  0
 30 24  1  0  0  0  0
 33 32  1  0  0  0  0
 33 38  1  0  0  0  0
 34 33  2  0  0  0  0
 35 34  1  0  0  0  0
 35 36  2  0  0  0  0
 36 37  1  0  0  0  0
 37 38  2  0  0  0  0
 37 41  1  0  0  0  0
 38 42  1  0  0  0  0
 39 35  1  0  0  0  0
 40 36  1  0  0  0  0
M  END
>  <minimizedAffinity>
-6.07898188

$$$$

 OpenBabel03272509563D

 42 45  0  0  0  0  0  0  0  0999 V2000
   38.2820   27.1170   35.3440 C   0  0  0  0  0  0  0  0  0  0  0  0
   38.8010   28.0860   35.1510 H   0  0  0  0  0  0  0  0  0  0  0  0
   37.8630   27.1820   36.3820 H   0  0  0  0  0  0  0  0  0  0  0  0
   39.2880   26.0100   35.3080 C   0  0  0  0  0  0  0  0  0  0  0  0
   40.0450   26.1500   36.0760 H   0  0  0  0  0  0  0  0  0  0  0  0
   39.8250   25.9940   34.3230 H   0  0  0  0  0  0  0  0  0  0  0  0
   38.6610   24.6640   35.4520 C   0  0  0  0  0  0  0  0  0  0  0  0
   38.1640   24.3030   36.6970 C   0  0  0  0  0  0  0  0  0  0  0  0
   37.5730   23.0880   36.9240 C   0  0  0  0  0  0  0  0  0  0  0  0
   37.4680   22.2250   35.9220 N   0  0  0  0  0  0  0  0  0  0  0  0
   37.9600   22.5800   34.6880 C   0  0  0  0  0  0  0  0  0  0  0  0
   38.5440   23.7690   34.4470 N   0  0  0  0  0  0  0  0  0  0  0  0
   38.2410   24.9960   37.5270 H   0  0  0  0  0  0  0  0  0  0  0  0
   37.2020   22.8560   37.9130 H   0  0  0  0  0  0  0  0  0  0  0  0
   37.8360   21.6130   33.5960 C   0  0  0  0  0  0  0  0  0  0  0  0
   36.6030   21.0010   33.3480 C   0  0  0  0  0  0  0  0  0  0  0  0
   35.6620   21.1370   33.8690 H   0  0  0  0  0  0  0  0  0  0  0  0
   36.7160   20.1450   32.2950 N   0  0  0  0  0  0  0  0  0  0  0  0
   35.9470   19.5530   31.8930 H   0  0  0  0  0  0  0  0  0  0  0  0
   37.9990   20.2270   31.8980 C   0  0  0  0  0  0  0  0  0  0  0  0
   38.3660   19.6550   31.0810 H   0  0  0  0  0  0  0  0  0  0  0  0
   38.6840   21.1070   32.6720 N   0  0  0  0  0  0  0  0  0  0  0  0
   37.2580   26.9010   34.3810 O   0  0  0  0  0  0  0  0  0  0  0  0
   36.1020   29.3460   31.9960 C   0  0  0  0  0  0  0  0  0  0  0  0
   35.4470   30.2660   32.8660 C   0  0  0  0  0  0  0  0  0  0  0  0
   35.4560   29.9710   34.2210 C   0  0  0  0  0  0  0  0  0  0  0  0
   36.0940   28.8160   34.5990 N   0  0  0  0  0  0  0  0  0  0  0  0
   36.6980   27.9760   33.7550 C   0  0  0  0  0  0  0  0  0  0  0  0
   36.6910   28.2600   32.4430 N   0  0  0  0  0  0  0  0  0  0  0  0
   36.0450   29.6560   30.9680 H   0  0  0  0  0  0  0  0  0  0  0  0
   34.9480   31.1720   32.5560 H   0  0  0  0  0  0  0  0  0  0  0  0
   36.7290   31.8720   35.9850 F   0  0  0  0  0  0  0  0  0  0  0  0
   35.4290   31.6630   36.0890 C   0  0  0  0  0  0  0  0  0  0  0  0
   34.8550   30.7670   35.2500 C   0  0  0  0  0  0  0  0  0  0  0  0
   33.4730   30.6320   35.4550 C   0  0  0  0  0  0  0  0  0  0  0  0
   32.7740   31.3330   36.4060 C   0  0  0  0  0  0  0  0  0  0  0  0
   33.3990   32.2230   37.2230 C   0  0  0  0  0  0  0  0  0  0  0  0
   34.7590   32.3860   37.0550 C   0  0  0  0  0  0  0  0  0  0  0  0
   32.9080   29.9280   34.8280 H   0  0  0  0  0  0  0  0  0  0  0  0
   31.7100   31.1690   36.4980 H   0  0  0  0  0  0  0  0  0  0  0  0
   32.8060   32.7400   37.9450 H   0  0  0  0  0  0  0  0  0  0  0  0
   35.2720   33.0830   37.6900 H   0  0  0  0  0  0  0  0  0  0  0  0
  1  3  1  0  0  0  0
  2  1  1  0  0  0  0
  4  1  1  0  0  0  0
  4  7  1  0  0  0  0
  4  5  1  0  0  0  0
  6  4  1  0  0  0  0
  7  8  1  0  0  0  0
  8  9  2  0  0  0  0
  8 13  1  0  0  0  0
  9 14  1  0  0  0  0
 10  9  1  0  0  0  0
 11 10  2  0  0  0  0
 12 11  1  0  0  0  0
 12  7  2  0  0  0  0
 15 11  1  0  0  0  0
 16 15  2  0  0  0  0
 16 17  1  0  0  0  0
 18 16  1  0  0  0  0
 19 18  1  0  0  0  0
 20 18  1  0  0  0  0
 20 22  2  0  0  0  0
 21 20  1  0  0  0  0
 22 15  1  0  0  0  0
 23  1  1  0  0  0  0
 24 29  2  0  0  0  0
 24 25  1  0  0  0  0
 25 26  2  0  0  0  0
 26 27  1  0  0  0  0
 26 34  1  0  0  0  0
 28 23  1  0  0  0  0
 28 27  2  0  0  0  0
 29 28  1  0  0  0  0
 30 24  1  0  0  0  0
 31 25  1  0  0  0  0
 32 33  1  0  0  0  0
 33 38  1  0  0  0  0
 34 35  1  0  0  0  0
 34 33  2  0  0  0  0
 35 36  2  0  0  0  0
 36 40  1  0  0  0  0
 36 37  1  0  0  0  0
 37 41  1  0  0  0  0
 38 37  2  0  0  0  0
 38 42  1  0  0  0  0
 39 35  1  0  0  0  0
M  END
>  <minimizedAffinity>
-6.07743359

$$$$

 OpenBabel03272509563D

 42 45  0  0  0  0  0  0  0  0999 V2000
   37.3670   26.7240   34.2550 C   0  0  0  0  0  0  0  0  0  0  0  0
   37.6130   27.6510   34.8260 H   0  0  0  0  0  0  0  0  0  0  0  0
   36.6370   26.1500   34.8820 H   0  0  0  0  0  0  0  0  0  0  0  0
   38.6090   25.9030   34.1030 C   0  0  0  0  0  0  0  0  0  0  0  0
   39.4800   26.5400   33.9650 H   0  0  0  0  0  0  0  0  0  0  0  0
   38.5420   25.2470   33.1940 H   0  0  0  0  0  0  0  0  0  0  0  0
   38.8280   24.9810   35.2540 C   0  0  0  0  0  0  0  0  0  0  0  0
   37.9070   25.0000   36.2920 C   0  0  0  0  0  0  0  0  0  0  0  0
   38.0270   24.1900   37.3910 C   0  0  0  0  0  0  0  0  0  0  0  0
   39.0560   23.3580   37.4690 N   0  0  0  0  0  0  0  0  0  0  0  0
   39.9700   23.3380   36.4430 C   0  0  0  0  0  0  0  0  0  0  0  0
   39.8690   24.1260   35.3560 N   0  0  0  0  0  0  0  0  0  0  0  0
   37.0590   25.6740   36.2450 H   0  0  0  0  0  0  0  0  0  0  0  0
   37.2800   24.2440   38.1720 H   0  0  0  0  0  0  0  0  0  0  0  0
   41.1010   22.4130   36.5480 C   0  0  0  0  0  0  0  0  0  0  0  0
   41.1420   21.4830   37.5920 C   0  0  0  0  0  0  0  0  0  0  0  0
   40.4220   21.3270   38.3880 H   0  0  0  0  0  0  0  0  0  0  0  0
   42.2720   20.7300   37.4970 N   0  0  0  0  0  0  0  0  0  0  0  0
   42.5590   19.9580   38.1480 H   0  0  0  0  0  0  0  0  0  0  0  0
   42.9210   21.1890   36.4100 C   0  0  0  0  0  0  0  0  0  0  0  0
   43.8480   20.7720   36.0990 H   0  0  0  0  0  0  0  0  0  0  0  0
   42.2270   22.2000   35.8300 N   0  0  0  0  0  0  0  0  0  0  0  0
   36.8190   27.0520   32.9850 O   0  0  0  0  0  0  0  0  0  0  0  0
   36.4040   30.3060   31.4880 C   0  0  0  0  0  0  0  0  0  0  0  0
   35.7120   30.9850   32.5330 C   0  0  0  0  0  0  0  0  0  0  0  0
   35.4410   30.2630   33.6850 C   0  0  0  0  0  0  0  0  0  0  0  0
   35.8640   28.9570   33.7110 N   0  0  0  0  0  0  0  0  0  0  0  0
   36.5090   28.3520   32.7110 C   0  0  0  0  0  0  0  0  0  0  0  0
   36.7730   29.0500   31.5950 N   0  0  0  0  0  0  0  0  0  0  0  0
   36.5700   30.9430   30.6370 H   0  0  0  0  0  0  0  0  0  0  0  0
   35.3850   32.0140   32.5000 H   0  0  0  0  0  0  0  0  0  0  0  0
   32.6710   29.9070   34.4240 F   0  0  0  0  0  0  0  0  0  0  0  0
   33.4640   30.6140   35.2100 C   0  0  0  0  0  0  0  0  0  0  0  0
   34.7590   30.7660   34.8420 C   0  0  0  0  0  0  0  0  0  0  0  0
   35.5010   31.5330   35.7530 C   0  0  0  0  0  0  0  0  0  0  0  0
   34.9720   32.0740   36.8980 C   0  0  0  0  0  0  0  0  0  0  0  0
   33.6630   31.8900   37.2220 C   0  0  0  0  0  0  0  0  0  0  0  0
   32.8970   31.1410   36.3520 C   0  0  0  0  0  0  0  0  0  0  0  0
   36.5650   31.7190   35.5500 H   0  0  0  0  0  0  0  0  0  0  0  0
   35.6130   32.6530   37.5460 H   0  0  0  0  0  0  0  0  0  0  0  0
   33.3050   32.3340   38.1250 H   0  0  0  0  0  0  0  0  0  0  0  0
   31.8620   30.9840   36.5880 H   0  0  0  0  0  0  0  0  0  0  0  0
  1  2  1  0  0  0  0
  1  3  1  0  0  0  0
  4  1  1  0  0  0  0
  4  7  1  0  0  0  0
  5  4  1  0  0  0  0
  6  4  1  0  0  0  0
  7 12  2  0  0  0  0
  7  8  1  0  0  0  0
  8  9  2  0  0  0  0
  9 10  1  0  0  0  0
  9 14  1  0  0  0  0
 11 15  1  0  0  0  0
 11 10  2  0  0  0  0
 12 11  1  0  0  0  0
 13  8  1  0  0  0  0
 15 16  2  0  0  0  0
 16 17  1  0  0  0  0
 18 16  1  0  0  0  0
 18 19  1  0  0  0  0
 20 18  1  0  0  0  0
 21 20  1  0  0  0  0
 22 20  2  0  0  0  0
 22 15  1  0  0  0  0
 23  1  1  0  0  0  0
 24 29  2  0  0  0  0
 24 25  1  0  0  0  0
 25 26  2  0  0  0  0
 26 27  1  0  0  0  0
 26 34  1  0  0  0  0
 28 23  1  0  0  0  0
 28 27  2  0  0  0  0
 29 28  1  0  0  0  0
 30 24  1  0  0  0  0
 31 25  1  0  0  0  0
 32 33  1  0  0  0  0
 33 38  1  0  0  0  0
 34 33  2  0  0  0  0
 34 35  1  0  0  0  0
 35 36  2  0  0  0  0
 36 37  1  0  0  0  0
 36 40  1  0  0  0  0
 37 41  1  0  0  0  0
 38 42  1  0  0  0  0
 38 37  2  0  0  0  0
 39 35  1  0  0  0  0
M  END
>  <minimizedAffinity>
-5.95428276

$$$$

 OpenBabel03272509563D

 42 45  0  0  0  0  0  0  0  0999 V2000
   38.1840   26.7360   34.0690 C   0  0  0  0  0  0  0  0  0  0  0  0
   38.5840   27.7440   34.3330 H   0  0  0  0  0  0  0  0  0  0  0  0
   38.9970   26.2100   33.5040 H   0  0  0  0  0  0  0  0  0  0  0  0
   37.0070   26.9020   33.1600 C   0  0  0  0  0  0  0  0  0  0  0  0
   36.2120   26.2090   33.4270 H   0  0  0  0  0  0  0  0  0  0  0  0
   37.2910   26.6730   32.0980 H   0  0  0  0  0  0  0  0  0  0  0  0
   36.4850   28.2980   33.1510 C   0  0  0  0  0  0  0  0  0  0  0  0
   36.5430   29.0110   31.9610 C   0  0  0  0  0  0  0  0  0  0  0  0
   36.0880   30.3000   31.8570 C   0  0  0  0  0  0  0  0  0  0  0  0
   35.5740   30.8890   32.9270 N   0  0  0  0  0  0  0  0  0  0  0  0
   35.5150   30.1860   34.1070 C   0  0  0  0  0  0  0  0  0  0  0  0
   35.9570   28.9200   34.2280 N   0  0  0  0  0  0  0  0  0  0  0  0
   36.9610   28.5450   31.0760 H   0  0  0  0  0  0  0  0  0  0  0  0
   36.1570   30.8100   30.9060 H   0  0  0  0  0  0  0  0  0  0  0  0
   34.9440   30.8540   35.2780 C   0  0  0  0  0  0  0  0  0  0  0  0
   35.7820   31.5390   36.1640 C   0  0  0  0  0  0  0  0  0  0  0  0
   36.8590   31.6630   36.1190 H   0  0  0  0  0  0  0  0  0  0  0  0
   35.0460   32.0810   37.1720 N   0  0  0  0  0  0  0  0  0  0  0  0
   35.4170   32.6470   37.9750 H   0  0  0  0  0  0  0  0  0  0  0  0
   33.7710   31.7350   36.9140 C   0  0  0  0  0  0  0  0  0  0  0  0
   32.9740   32.0320   37.5530 H   0  0  0  0  0  0  0  0  0  0  0  0
   33.6950   30.9980   35.7780 N   0  0  0  0  0  0  0  0  0  0  0  0
   37.8200   26.0230   35.2440 O   0  0  0  0  0  0  0  0  0  0  0  0
   39.4550   22.9730   36.2550 C   0  0  0  0  0  0  0  0  0  0  0  0
   38.8010   22.0350   35.4040 C   0  0  0  0  0  0  0  0  0  0  0  0
   37.8380   22.5310   34.5380 C   0  0  0  0  0  0  0  0  0  0  0  0
   37.6030   23.8830   34.5820 N   0  0  0  0  0  0  0  0  0  0  0  0
   38.2360   24.7330   35.3940 C   0  0  0  0  0  0  0  0  0  0  0  0
   39.1680   24.2550   36.2330 N   0  0  0  0  0  0  0  0  0  0  0  0
   40.1830   22.5000   36.8890 H   0  0  0  0  0  0  0  0  0  0  0  0
   38.9950   20.9730   35.3790 H   0  0  0  0  0  0  0  0  0  0  0  0
   35.7020   20.6690   35.0980 F   0  0  0  0  0  0  0  0  0  0  0  0
   36.0690   20.8730   33.8460 C   0  0  0  0  0  0  0  0  0  0  0  0
   37.0740   21.7520   33.6090 C   0  0  0  0  0  0  0  0  0  0  0  0
   37.3740   21.8850   32.2450 C   0  0  0  0  0  0  0  0  0  0  0  0
   36.7210   21.1980   31.2520 C   0  0  0  0  0  0  0  0  0  0  0  0
   35.7170   20.3270   31.5450 C   0  0  0  0  0  0  0  0  0  0  0  0
   35.3890   20.1660   32.8760 C   0  0  0  0  0  0  0  0  0  0  0  0
   38.1760   22.5730   31.9420 H   0  0  0  0  0  0  0  0  0  0  0  0
   37.0160   21.3590   30.2260 H   0  0  0  0  0  0  0  0  0  0  0  0
   35.2450   19.8190   30.7330 H   0  0  0  0  0  0  0  0  0  0  0  0
   34.6010   19.4830   33.1280 H   0  0  0  0  0  0  0  0  0  0  0  0
  1  2  1  0  0  0  0
  1 23  1  0  0  0  0
  3  1  1  0  0  0  0
  4  5  1  0  0  0  0
  4  1  1  0  0  0  0
  6  4  1  0  0  0  0
  7  4  1  0  0  0  0
  7 12  1  0  0  0  0
  8  7  2  0  0  0  0
  9  8  1  0  0  0  0
  9 10  2  0  0  0  0
 10 11  1  0  0  0  0
 11 12  2  0  0  0  0
 11 15  1  0  0  0  0
 13  8  1  0  0  0  0
 14  9  1  0  0  0  0
 15 22  1  0  0  0  0
 15 16  2  0  0  0  0
 16 18  1  0  0  0  0
 17 16  1  0  0  0  0
 18 19  1  0  0  0  0
 20 18  1  0  0  0  0
 20 21  1  0  0  0  0
 22 20  2  0  0  0  0
 23 28  1  0  0  0  0
 24 30  1  0  0  0  0
 25 24  2  0  0  0  0
 26 27  2  0  0  0  0
 26 25  1  0  0  0  0
 27 28  1  0  0  0  0
 28 29  2  0  0  0  0
 29 24  1  0  0  0  0
 31 25  1  0  0  0  0
 33 32  1  0  0  0  0
 34 33  1  0  0  0  0
 34 26  1  0  0  0  0
 35 34  2  0  0  0  0
 36 37  2  0  0  0  0
 36 35  1  0  0  0  0
 37 38  1  0  0  0  0
 38 42  1  0  0  0  0
 38 33  2  0  0  0  0
 39 35  1  0  0  0  0
 40 36  1  0  0  0  0
 41 37  1  0  0  0  0
M  END
>  <minimizedAffinity>
-5.88021708

$$$$
