
 OpenBabel03272509533D

 42 45  0  0  0  0  0  0  0  0999 V2000
   34.2790   28.8830   47.9710 C   0  0  0  0  0  0  0  0  0  0  0  0
   33.6400   29.7340   48.3070 H   0  0  0  0  0  0  0  0  0  0  0  0
   34.9350   29.2820   47.1550 H   0  0  0  0  0  0  0  0  0  0  0  0
   33.4020   27.8150   47.3950 C   0  0  0  0  0  0  0  0  0  0  0  0
   33.7360   26.8290   47.7100 H   0  0  0  0  0  0  0  0  0  0  0  0
   33.4460   27.8280   46.2740 H   0  0  0  0  0  0  0  0  0  0  0  0
   31.9660   28.0040   47.7480 C   0  0  0  0  0  0  0  0  0  0  0  0
   31.5250   27.5250   48.9740 C   0  0  0  0  0  0  0  0  0  0  0  0
   30.2230   27.6520   49.3840 C   0  0  0  0  0  0  0  0  0  0  0  0
   29.3520   28.2520   48.5850 N   0  0  0  0  0  0  0  0  0  0  0  0
   29.7860   28.7270   47.3700 C   0  0  0  0  0  0  0  0  0  0  0  0
   31.0600   28.6120   46.9510 N   0  0  0  0  0  0  0  0  0  0  0  0
   32.2230   27.0310   49.6400 H   0  0  0  0  0  0  0  0  0  0  0  0
   29.9310   27.2610   50.3490 H   0  0  0  0  0  0  0  0  0  0  0  0
   28.8090   29.3870   46.5010 C   0  0  0  0  0  0  0  0  0  0  0  0
   27.6450   29.9300   47.0540 C   0  0  0  0  0  0  0  0  0  0  0  0
   27.3290   29.9420   48.0910 H   0  0  0  0  0  0  0  0  0  0  0  0
   26.8850   30.4900   46.0730 N   0  0  0  0  0  0  0  0  0  0  0  0
   25.9590   30.9680   46.2030 H   0  0  0  0  0  0  0  0  0  0  0  0
   27.5690   30.2950   44.9310 C   0  0  0  0  0  0  0  0  0  0  0  0
   27.1990   30.6380   43.9950 H   0  0  0  0  0  0  0  0  0  0  0  0
   28.7290   29.6330   45.1740 N   0  0  0  0  0  0  0  0  0  0  0  0
   35.0440   28.3770   49.0570 O   0  0  0  0  0  0  0  0  0  0  0  0
   37.2650   30.1340   51.2900 C   0  0  0  0  0  0  0  0  0  0  0  0
   38.0540   30.8600   50.3510 C   0  0  0  0  0  0  0  0  0  0  0  0
   37.7560   30.6880   49.0080 C   0  0  0  0  0  0  0  0  0  0  0  0
   36.7270   29.8310   48.7060 N   0  0  0  0  0  0  0  0  0  0  0  0
   36.0090   29.1650   49.6140 C   0  0  0  0  0  0  0  0  0  0  0  0
   36.2960   29.3300   50.9140 N   0  0  0  0  0  0  0  0  0  0  0  0
   37.5670   30.3290   52.3030 H   0  0  0  0  0  0  0  0  0  0  0  0
   38.8610   31.5320   50.6010 H   0  0  0  0  0  0  0  0  0  0  0  0
   38.9210   33.3310   48.9270 F   0  0  0  0  0  0  0  0  0  0  0  0
   38.9840   32.5640   47.8540 C   0  0  0  0  0  0  0  0  0  0  0  0
   38.4310   31.3280   47.9170 C   0  0  0  0  0  0  0  0  0  0  0  0
   38.5610   30.6080   46.7190 C   0  0  0  0  0  0  0  0  0  0  0  0
   39.1830   31.1020   45.5990 C   0  0  0  0  0  0  0  0  0  0  0  0
   39.7240   32.3510   45.5900 C   0  0  0  0  0  0  0  0  0  0  0  0
   39.6180   33.0930   46.7490 C   0  0  0  0  0  0  0  0  0  0  0  0
   38.1450   29.5930   46.6610 H   0  0  0  0  0  0  0  0  0  0  0  0
   39.2400   30.4810   44.7180 H   0  0  0  0  0  0  0  0  0  0  0  0
   40.1960   32.6830   44.6910 H   0  0  0  0  0  0  0  0  0  0  0  0
   40.0370   34.0810   46.7620 H   0  0  0  0  0  0  0  0  0  0  0  0
  1  2  1  0  0  0  0
  1 23  1  0  0  0  0
  3  1  1  0  0  0  0
  4  5  1  0  0  0  0
  4  7  1  0  0  0  0
  4  1  1  0  0  0  0
  6  4  1  0  0  0  0
  7  8  1  0  0  0  0
  8  9  2  0  0  0  0
  8 13  1  0  0  0  0
  9 14  1  0  0  0  0
 10  9  1  0  0  0  0
 11 10  2  0  0  0  0
 12 11  1  0  0  0  0
 12  7  2  0  0  0  0
 15 16  2  0  0  0  0
 15 11  1  0  0  0  0
 16 17  1  0  0  0  0
 18 19  1  0  0  0  0
 18 16  1  0  0  0  0
 20 22  2  0  0  0  0
 20 18  1  0  0  0  0
 21 20  1  0  0  0  0
 22 15  1  0  0  0  0
 23 28  1  0  0  0  0
 24 30  1  0  0  0  0
 25 31  1  0  0  0  0
 25 24  2  0  0  0  0
 26 25  1  0  0  0  0
 27 26  2  0  0  0  0
 27 28  1  0  0  0  0
 28 29  2  0  0  0  0
 29 24  1  0  0  0  0
 33 34  1  0  0  0  0
 33 32  1  0  0  0  0
 34 26  1  0  0  0  0
 35 34  2  0  0  0  0
 36 35  1  0  0  0  0
 37 36  2  0  0  0  0
 37 38  1  0  0  0  0
 38 42  1  0  0  0  0
 38 33  2  0  0  0  0
 39 35  1  0  0  0  0
 40 36  1  0  0  0  0
 41 37  1  0  0  0  0
M  END
>  <minimizedAffinity>
-6.65052271

>  <minimizedRMSD>
0.963593423

$$$$
