
 OpenBabel03272509533D

 42 45  0  0  0  0  0  0  0  0999 V2000
   34.4380   28.6530   48.1380 C   0  0  0  0  0  0  0  0  0  0  0  0
   33.8400   29.5940   48.1690 H   0  0  0  0  0  0  0  0  0  0  0  0
   35.2440   28.8130   47.3750 H   0  0  0  0  0  0  0  0  0  0  0  0
   33.5610   27.5340   47.6720 C   0  0  0  0  0  0  0  0  0  0  0  0
   33.7480   26.6300   48.2470 H   0  0  0  0  0  0  0  0  0  0  0  0
   33.7730   27.2830   46.5990 H   0  0  0  0  0  0  0  0  0  0  0  0
   32.1120   27.8830   47.7290 C   0  0  0  0  0  0  0  0  0  0  0  0
   31.3590   27.3820   48.7830 C   0  0  0  0  0  0  0  0  0  0  0  0
   30.0220   27.6490   48.9180 C   0  0  0  0  0  0  0  0  0  0  0  0
   29.4230   28.4110   48.0140 N   0  0  0  0  0  0  0  0  0  0  0  0
   30.1660   28.9080   46.9690 C   0  0  0  0  0  0  0  0  0  0  0  0
   31.4800   28.6570   46.8200 N   0  0  0  0  0  0  0  0  0  0  0  0
   31.8330   26.7570   49.5320 H   0  0  0  0  0  0  0  0  0  0  0  0
   29.4820   27.2340   49.7580 H   0  0  0  0  0  0  0  0  0  0  0  0
   29.4850   29.7470   45.9810 C   0  0  0  0  0  0  0  0  0  0  0  0
   28.0880   29.7680   45.9310 C   0  0  0  0  0  0  0  0  0  0  0  0
   27.3810   29.2240   46.5500 H   0  0  0  0  0  0  0  0  0  0  0  0
   27.6720   30.6090   44.9470 N   0  0  0  0  0  0  0  0  0  0  0  0
   26.6740   30.8150   44.6890 H   0  0  0  0  0  0  0  0  0  0  0  0
   28.7950   31.1010   44.3940 C   0  0  0  0  0  0  0  0  0  0  0  0
   28.7610   31.7950   43.5890 H   0  0  0  0  0  0  0  0  0  0  0  0
   29.8940   30.5920   45.0070 N   0  0  0  0  0  0  0  0  0  0  0  0
   34.9830   28.3680   49.4200 O   0  0  0  0  0  0  0  0  0  0  0  0
   37.3190   30.1620   51.5000 C   0  0  0  0  0  0  0  0  0  0  0  0
   38.0680   30.8580   50.5060 C   0  0  0  0  0  0  0  0  0  0  0  0
   37.7070   30.6530   49.1830 C   0  0  0  0  0  0  0  0  0  0  0  0
   36.6580   29.7970   48.9530 N   0  0  0  0  0  0  0  0  0  0  0  0
   35.9780   29.1620   49.9100 C   0  0  0  0  0  0  0  0  0  0  0  0
   36.3270   29.3580   51.1910 N   0  0  0  0  0  0  0  0  0  0  0  0
   37.6690   30.3820   52.4930 H   0  0  0  0  0  0  0  0  0  0  0  0
   38.8910   31.5290   50.7000 H   0  0  0  0  0  0  0  0  0  0  0  0
   38.9410   33.2590   48.9960 F   0  0  0  0  0  0  0  0  0  0  0  0
   38.9190   32.4760   47.9320 C   0  0  0  0  0  0  0  0  0  0  0  0
   38.3350   31.2580   48.0460 C   0  0  0  0  0  0  0  0  0  0  0  0
   38.3740   30.5200   46.8530 C   0  0  0  0  0  0  0  0  0  0  0  0
   38.9430   30.9800   45.6920 C   0  0  0  0  0  0  0  0  0  0  0  0
   39.5180   32.2120   45.6330 C   0  0  0  0  0  0  0  0  0  0  0  0
   39.5010   32.9730   46.7850 C   0  0  0  0  0  0  0  0  0  0  0  0
   37.9260   29.5160   46.8340 H   0  0  0  0  0  0  0  0  0  0  0  0
   38.9300   30.3460   44.8180 H   0  0  0  0  0  0  0  0  0  0  0  0
   39.9450   32.5190   44.7030 H   0  0  0  0  0  0  0  0  0  0  0  0
   39.9490   33.9470   46.7580 H   0  0  0  0  0  0  0  0  0  0  0  0
  1  2  1  0  0  0  0
  1 23  1  0  0  0  0
  3  1  1  0  0  0  0
  4  7  1  0  0  0  0
  4  1  1  0  0  0  0
  4  5  1  0  0  0  0
  6  4  1  0  0  0  0
  7  8  1  0  0  0  0
  8  9  2  0  0  0  0
  8 13  1  0  0  0  0
  9 14  1  0  0  0  0
 10  9  1  0  0  0  0
 11 10  2  0  0  0  0
 12 11  1  0  0  0  0
 12  7  2  0  0  0  0
 15 11  1  0  0  0  0
 16 15  2  0  0  0  0
 16 17  1  0  0  0  0
 18 16  1  0  0  0  0
 19 18  1  0  0  0  0
 20 18  1  0  0  0  0
 20 22  2  0  0  0  0
 21 20  1  0  0  0  0
 22 15  1  0  0  0  0
 23 28  1  0  0  0  0
 24 30  1  0  0  0  0
 25 31  1  0  0  0  0
 25 24  2  0  0  0  0
 26 25  1  0  0  0  0
 27 26  2  0  0  0  0
 27 28  1  0  0  0  0
 28 29  2  0  0  0  0
 29 24  1  0  0  0  0
 33 34  1  0  0  0  0
 33 32  1  0  0  0  0
 34 26  1  0  0  0  0
 35 34  2  0  0  0  0
 36 35  1  0  0  0  0
 37 36  2  0  0  0  0
 37 38  1  0  0  0  0
 38 33  2  0  0  0  0
 39 35  1  0  0  0  0
 40 36  1  0  0  0  0
 41 37  1  0  0  0  0
 42 38  1  0  0  0  0
M  END
>  <minimizedAffinity>
-6.50903082

>  <minimizedRMSD>
0.17896539

$$$$
