
 OpenBabel03272503183D

 24 26  0  0  0  0  0  0  0  0999 V2000
   38.1650   25.6870   35.3780 C   0  0  0  0  0  0  0  0  0  0  0  0
   37.7600   26.9420   35.5930 C   0  0  0  0  0  0  0  0  0  0  0  0
   37.3380   27.7190   34.5810 C   0  0  0  0  0  0  0  0  0  0  0  0
   37.3510   27.1390   33.3200 C   0  0  0  0  0  0  0  0  0  0  0  0
   37.9880   25.4510   33.6450 S   0  0  0  0  0  0  0  0  0  0  0  0
   37.7860   27.3150   36.6340 H   0  0  0  0  0  0  0  0  0  0  0  0
   36.9930   28.7300   34.6340 H   0  0  0  0  0  0  0  0  0  0  0  0
   38.6020   23.4070   38.3350 C   0  0  0  0  0  0  0  0  0  0  0  0
   38.0540   24.4230   37.5250 C   0  0  0  0  0  0  0  0  0  0  0  0
   38.6590   24.6590   36.2850 C   0  0  0  0  0  0  0  0  0  0  0  0
   39.7220   23.9180   35.9210 N   0  0  0  0  0  0  0  0  0  0  0  0
   40.2230   22.9570   36.7150 C   0  0  0  0  0  0  0  0  0  0  0  0
   39.6680   22.7040   37.9110 N   0  0  0  0  0  0  0  0  0  0  0  0
   38.0900   23.2830   39.2670 H   0  0  0  0  0  0  0  0  0  0  0  0
   37.2020   25.0240   37.8050 H   0  0  0  0  0  0  0  0  0  0  0  0
   41.0900   22.3950   36.3510 H   0  0  0  0  0  0  0  0  0  0  0  0
   36.9730   27.6660   32.0240 C   0  0  0  0  0  0  0  0  0  0  0  0
   36.7690   26.9300   30.9040 C   0  0  0  0  0  0  0  0  0  0  0  0
   36.8630   25.8650   30.8330 H   0  0  0  0  0  0  0  0  0  0  0  0
   36.4370   27.8380   29.9540 N   0  0  0  0  0  0  0  0  0  0  0  0
   36.2140   27.5970   28.9610 H   0  0  0  0  0  0  0  0  0  0  0  0
   36.4310   29.1000   30.4560 C   0  0  0  0  0  0  0  0  0  0  0  0
   36.2110   30.0140   29.9520 H   0  0  0  0  0  0  0  0  0  0  0  0
   36.7730   28.9500   31.7620 N   0  0  0  0  0  0  0  0  0  0  0  0
  1  2  2  0  0  0  0
  1 10  1  0  0  0  0
  2  6  1  0  0  0  0
  3  7  1  0  0  0  0
  3  2  1  0  0  0  0
  4  5  1  0  0  0  0
  4  3  2  0  0  0  0
  5  1  1  0  0  0  0
  8 14  1  0  0  0  0
  9 15  1  0  0  0  0
  9  8  2  0  0  0  0
 10  9  1  0  0  0  0
 11 10  2  0  0  0  0
 11 12  1  0  0  0  0
 12 13  2  0  0  0  0
 13  8  1  0  0  0  0
 16 12  1  0  0  0  0
 17  4  1  0  0  0  0
 18 17  2  0  0  0  0
 19 18  1  0  0  0  0
 20 22  1  0  0  0  0
 20 18  1  0  0  0  0
 21 20  1  0  0  0  0
 22 24  2  0  0  0  0
 23 22  1  0  0  0  0
 24 17  1  0  0  0  0
M  END
>  <minimizedAffinity>
-4.8983326

$$$$

 OpenBabel03272503183D

 24 26  0  0  0  0  0  0  0  0999 V2000
   37.6260   27.0000   34.0540 C   0  0  0  0  0  0  0  0  0  0  0  0
   37.8830   27.4750   35.2760 C   0  0  0  0  0  0  0  0  0  0  0  0
   38.3170   26.6680   36.2590 C   0  0  0  0  0  0  0  0  0  0  0  0
   38.4770   25.3310   35.9230 C   0  0  0  0  0  0  0  0  0  0  0  0
   37.9840   25.2810   34.1590 S   0  0  0  0  0  0  0  0  0  0  0  0
   37.7250   28.5560   35.4450 H   0  0  0  0  0  0  0  0  0  0  0  0
   38.5520   26.9350   37.2670 H   0  0  0  0  0  0  0  0  0  0  0  0
   35.7720   29.2130   31.6460 C   0  0  0  0  0  0  0  0  0  0  0  0
   36.1630   28.6380   32.8730 C   0  0  0  0  0  0  0  0  0  0  0  0
   37.1560   27.6520   32.8390 C   0  0  0  0  0  0  0  0  0  0  0  0
   37.6890   27.2980   31.6550 N   0  0  0  0  0  0  0  0  0  0  0  0
   37.2960   27.8630   30.5010 C   0  0  0  0  0  0  0  0  0  0  0  0
   36.3470   28.8110   30.4960 N   0  0  0  0  0  0  0  0  0  0  0  0
   35.0100   29.9580   31.7480 H   0  0  0  0  0  0  0  0  0  0  0  0
   35.7430   28.9130   33.8280 H   0  0  0  0  0  0  0  0  0  0  0  0
   37.7770   27.5230   29.5770 H   0  0  0  0  0  0  0  0  0  0  0  0
   38.9180   24.1970   36.7120 C   0  0  0  0  0  0  0  0  0  0  0  0
   38.3410   23.7630   37.8590 C   0  0  0  0  0  0  0  0  0  0  0  0
   37.4850   24.2040   38.3310 H   0  0  0  0  0  0  0  0  0  0  0  0
   39.0830   22.6920   38.2320 N   0  0  0  0  0  0  0  0  0  0  0  0
   38.9020   22.1200   39.0880 H   0  0  0  0  0  0  0  0  0  0  0  0
   40.0910   22.4590   37.3530 C   0  0  0  0  0  0  0  0  0  0  0  0
   40.8330   21.6920   37.3820 H   0  0  0  0  0  0  0  0  0  0  0  0
   39.9540   23.4260   36.4100 N   0  0  0  0  0  0  0  0  0  0  0  0
  1  5  1  0  0  0  0
  1  2  2  0  0  0  0
  2  6  1  0  0  0  0
  2  3  1  0  0  0  0
  3  7  1  0  0  0  0
  4  3  2  0  0  0  0
  4 17  1  0  0  0  0
  5  4  1  0  0  0  0
  8 14  1  0  0  0  0
  8  9  1  0  0  0  0
  9 15  1  0  0  0  0
 10  9  2  0  0  0  0
 10  1  1  0  0  0  0
 11 10  1  0  0  0  0
 12 11  2  0  0  0  0
 13 12  1  0  0  0  0
 13  8  2  0  0  0  0
 16 12  1  0  0  0  0
 17 18  2  0  0  0  0
 18 20  1  0  0  0  0
 18 19  1  0  0  0  0
 20 21  1  0  0  0  0
 22 23  1  0  0  0  0
 22 20  1  0  0  0  0
 24 17  1  0  0  0  0
 24 22  2  0  0  0  0
M  END
>  <minimizedAffinity>
-4.87741566

$$$$

 OpenBabel03272503183D

 24 26  0  0  0  0  0  0  0  0999 V2000
   38.1240   25.7240   35.3020 C   0  0  0  0  0  0  0  0  0  0  0  0
   37.6820   26.9670   35.5150 C   0  0  0  0  0  0  0  0  0  0  0  0
   37.2750   27.7440   34.4970 C   0  0  0  0  0  0  0  0  0  0  0  0
   37.3420   27.1760   33.2320 C   0  0  0  0  0  0  0  0  0  0  0  0
   38.0080   25.5010   33.5610 S   0  0  0  0  0  0  0  0  0  0  0  0
   37.6670   27.3290   36.5590 H   0  0  0  0  0  0  0  0  0  0  0  0
   36.9050   28.7450   34.5480 H   0  0  0  0  0  0  0  0  0  0  0  0
   40.0910   22.9050   36.8240 C   0  0  0  0  0  0  0  0  0  0  0  0
   39.6890   23.8680   35.8770 C   0  0  0  0  0  0  0  0  0  0  0  0
   38.6130   24.6990   36.2150 C   0  0  0  0  0  0  0  0  0  0  0  0
   38.0170   24.5460   37.4110 N   0  0  0  0  0  0  0  0  0  0  0  0
   38.4230   23.6180   38.2940 C   0  0  0  0  0  0  0  0  0  0  0  0
   39.4500   22.8050   38.0030 N   0  0  0  0  0  0  0  0  0  0  0  0
   40.9180   22.3070   36.4990 H   0  0  0  0  0  0  0  0  0  0  0  0
   40.1580   24.0010   34.9140 H   0  0  0  0  0  0  0  0  0  0  0  0
   37.8880   23.5540   39.2490 H   0  0  0  0  0  0  0  0  0  0  0  0
   36.9930   27.7080   31.9290 C   0  0  0  0  0  0  0  0  0  0  0  0
   36.7560   26.9710   30.8170 C   0  0  0  0  0  0  0  0  0  0  0  0
   36.7980   25.9010   30.7570 H   0  0  0  0  0  0  0  0  0  0  0  0
   36.4710   27.8830   29.8560 N   0  0  0  0  0  0  0  0  0  0  0  0
   36.2390   27.6430   28.8660 H   0  0  0  0  0  0  0  0  0  0  0  0
   36.5260   29.1490   30.3450 C   0  0  0  0  0  0  0  0  0  0  0  0
   36.3510   30.0670   29.8300 H   0  0  0  0  0  0  0  0  0  0  0  0
   36.8570   28.9970   31.6530 N   0  0  0  0  0  0  0  0  0  0  0  0
  1  2  2  0  0  0  0
  1 10  1  0  0  0  0
  2  6  1  0  0  0  0
  3  7  1  0  0  0  0
  3  2  1  0  0  0  0
  4  5  1  0  0  0  0
  4  3  2  0  0  0  0
  5  1  1  0  0  0  0
  8 13  1  0  0  0  0
  9 10  1  0  0  0  0
  9  8  2  0  0  0  0
 10 11  2  0  0  0  0
 11 12  1  0  0  0  0
 12 16  1  0  0  0  0
 13 12  2  0  0  0  0
 14  8  1  0  0  0  0
 15  9  1  0  0  0  0
 17  4  1  0  0  0  0
 18 17  2  0  0  0  0
 19 18  1  0  0  0  0
 20 22  1  0  0  0  0
 20 18  1  0  0  0  0
 21 20  1  0  0  0  0
 22 24  2  0  0  0  0
 23 22  1  0  0  0  0
 24 17  1  0  0  0  0
M  END
>  <minimizedAffinity>
-4.80243397

$$$$

 OpenBabel03272503183D

 24 26  0  0  0  0  0  0  0  0999 V2000
   37.6650   27.1860   33.8200 C   0  0  0  0  0  0  0  0  0  0  0  0
   37.9210   27.7300   35.0140 C   0  0  0  0  0  0  0  0  0  0  0  0
   38.1920   26.9630   36.0830 C   0  0  0  0  0  0  0  0  0  0  0  0
   38.1900   25.5920   35.8670 C   0  0  0  0  0  0  0  0  0  0  0  0
   37.7860   25.4520   34.0850 S   0  0  0  0  0  0  0  0  0  0  0  0
   37.8990   28.8330   35.0860 H   0  0  0  0  0  0  0  0  0  0  0  0
   38.4100   27.2850   37.0790 H   0  0  0  0  0  0  0  0  0  0  0  0
   37.7330   28.1430   30.1850 C   0  0  0  0  0  0  0  0  0  0  0  0
   38.1160   27.5180   31.3900 C   0  0  0  0  0  0  0  0  0  0  0  0
   37.3490   27.7850   32.5300 C   0  0  0  0  0  0  0  0  0  0  0  0
   36.2930   28.6130   32.4320 N   0  0  0  0  0  0  0  0  0  0  0  0
   35.9520   29.1950   31.2700 C   0  0  0  0  0  0  0  0  0  0  0  0
   36.6650   28.9620   30.1570 N   0  0  0  0  0  0  0  0  0  0  0  0
   38.3640   27.8930   29.3570 H   0  0  0  0  0  0  0  0  0  0  0  0
   38.9600   26.8510   31.4820 H   0  0  0  0  0  0  0  0  0  0  0  0
   35.0800   29.8580   31.2680 H   0  0  0  0  0  0  0  0  0  0  0  0
   38.4360   24.4840   36.7690 C   0  0  0  0  0  0  0  0  0  0  0  0
   39.1050   23.3470   36.4550 C   0  0  0  0  0  0  0  0  0  0  0  0
   39.5360   23.1210   35.4990 H   0  0  0  0  0  0  0  0  0  0  0  0
   39.0870   22.6140   37.5940 N   0  0  0  0  0  0  0  0  0  0  0  0
   39.5210   21.6680   37.6930 H   0  0  0  0  0  0  0  0  0  0  0  0
   38.4310   23.2630   38.5900 C   0  0  0  0  0  0  0  0  0  0  0  0
   38.2550   22.9390   39.5910 H   0  0  0  0  0  0  0  0  0  0  0  0
   38.0370   24.4370   38.0320 N   0  0  0  0  0  0  0  0  0  0  0  0
  1  5  1  0  0  0  0
  1  2  2  0  0  0  0
  2  6  1  0  0  0  0
  2  3  1  0  0  0  0
  3  7  1  0  0  0  0
  4  3  2  0  0  0  0
  4 17  1  0  0  0  0
  5  4  1  0  0  0  0
  8  9  1  0  0  0  0
  9 15  1  0  0  0  0
  9 10  2  0  0  0  0
 10  1  1  0  0  0  0
 11 10  1  0  0  0  0
 12 11  2  0  0  0  0
 13  8  2  0  0  0  0
 13 12  1  0  0  0  0
 14  8  1  0  0  0  0
 16 12  1  0  0  0  0
 17 24  1  0  0  0  0
 18 17  2  0  0  0  0
 18 20  1  0  0  0  0
 19 18  1  0  0  0  0
 20 21  1  0  0  0  0
 20 22  1  0  0  0  0
 22 23  1  0  0  0  0
 24 22  2  0  0  0  0
M  END
>  <minimizedAffinity>
-4.76136208

$$$$

 OpenBabel03272503183D

 24 26  0  0  0  0  0  0  0  0999 V2000
   37.3900   26.0500   33.4030 C   0  0  0  0  0  0  0  0  0  0  0  0
   37.7100   24.7830   33.1250 C   0  0  0  0  0  0  0  0  0  0  0  0
   38.1140   23.9400   34.0900 C   0  0  0  0  0  0  0  0  0  0  0  0
   38.1740   24.4660   35.3730 C   0  0  0  0  0  0  0  0  0  0  0  0
   37.6330   26.2010   35.1380 S   0  0  0  0  0  0  0  0  0  0  0  0
   37.6310   24.4580   32.0710 H   0  0  0  0  0  0  0  0  0  0  0  0
   38.3930   22.9140   33.9850 H   0  0  0  0  0  0  0  0  0  0  0  0
   35.9900   29.3250   32.1990 C   0  0  0  0  0  0  0  0  0  0  0  0
   36.4060   28.3220   33.0980 C   0  0  0  0  0  0  0  0  0  0  0  0
   36.9340   27.1440   32.5550 C   0  0  0  0  0  0  0  0  0  0  0  0
   37.0230   27.0200   31.2180 N   0  0  0  0  0  0  0  0  0  0  0  0
   36.6180   27.9930   30.3860 C   0  0  0  0  0  0  0  0  0  0  0  0
   36.1070   29.1350   30.8710 N   0  0  0  0  0  0  0  0  0  0  0  0
   35.5970   30.1950   32.6840 H   0  0  0  0  0  0  0  0  0  0  0  0
   36.3390   28.4090   34.1720 H   0  0  0  0  0  0  0  0  0  0  0  0
   36.7220   27.8200   29.3090 H   0  0  0  0  0  0  0  0  0  0  0  0
   38.5560   23.8620   36.6340 C   0  0  0  0  0  0  0  0  0  0  0  0
   39.4870   22.8890   36.7900 C   0  0  0  0  0  0  0  0  0  0  0  0
   40.0590   22.4410   36.0020 H   0  0  0  0  0  0  0  0  0  0  0  0
   39.5060   22.6440   38.1230 N   0  0  0  0  0  0  0  0  0  0  0  0
   40.1230   21.9370   38.5840 H   0  0  0  0  0  0  0  0  0  0  0  0
   38.6190   23.4330   38.7840 C   0  0  0  0  0  0  0  0  0  0  0  0
   38.4110   23.4660   39.8300 H   0  0  0  0  0  0  0  0  0  0  0  0
   38.0420   24.1860   37.8120 N   0  0  0  0  0  0  0  0  0  0  0  0
  1  5  1  0  0  0  0
  2  1  2  0  0  0  0
  2  3  1  0  0  0  0
  3  4  2  0  0  0  0
  4 17  1  0  0  0  0
  5  4  1  0  0  0  0
  6  2  1  0  0  0  0
  7  3  1  0  0  0  0
  8 14  1  0  0  0  0
  8  9  1  0  0  0  0
  9 15  1  0  0  0  0
 10  9  2  0  0  0  0
 10  1  1  0  0  0  0
 11 10  1  0  0  0  0
 12 13  1  0  0  0  0
 12 11  2  0  0  0  0
 13  8  2  0  0  0  0
 16 12  1  0  0  0  0
 17 18  2  0  0  0  0
 17 24  1  0  0  0  0
 18 20  1  0  0  0  0
 19 18  1  0  0  0  0
 20 21  1  0  0  0  0
 20 22  1  0  0  0  0
 22 23  1  0  0  0  0
 24 22  2  0  0  0  0
M  END
>  <minimizedAffinity>
-4.72483969

$$$$

 OpenBabel03272503183D

 24 26  0  0  0  0  0  0  0  0999 V2000
   37.3910   26.1080   33.7700 C   0  0  0  0  0  0  0  0  0  0  0  0
   37.6880   24.9030   33.2740 C   0  0  0  0  0  0  0  0  0  0  0  0
   38.2620   23.9590   34.0380 C   0  0  0  0  0  0  0  0  0  0  0  0
   38.5200   24.3140   35.3550 C   0  0  0  0  0  0  0  0  0  0  0  0
   37.9120   26.0400   35.4490 S   0  0  0  0  0  0  0  0  0  0  0  0
   37.4430   24.7160   32.2120 H   0  0  0  0  0  0  0  0  0  0  0  0
   38.5420   22.9680   33.7510 H   0  0  0  0  0  0  0  0  0  0  0  0
   35.7210   29.4380   33.2660 C   0  0  0  0  0  0  0  0  0  0  0  0
   36.2980   28.3440   33.9410 C   0  0  0  0  0  0  0  0  0  0  0  0
   36.7790   27.2830   33.1640 C   0  0  0  0  0  0  0  0  0  0  0  0
   36.6740   27.3510   31.8240 N   0  0  0  0  0  0  0  0  0  0  0  0
   36.1190   28.4080   31.2080 C   0  0  0  0  0  0  0  0  0  0  0  0
   35.6460   29.4420   31.9210 N   0  0  0  0  0  0  0  0  0  0  0  0
   35.3750   30.2110   33.9220 H   0  0  0  0  0  0  0  0  0  0  0  0
   36.3880   28.2770   35.0150 H   0  0  0  0  0  0  0  0  0  0  0  0
   36.0680   28.3920   30.1130 H   0  0  0  0  0  0  0  0  0  0  0  0
   39.1170   23.5660   36.4440 C   0  0  0  0  0  0  0  0  0  0  0  0
   38.5600   23.3750   37.6650 C   0  0  0  0  0  0  0  0  0  0  0  0
   37.6080   23.7530   37.9830 H   0  0  0  0  0  0  0  0  0  0  0  0
   39.4660   22.6270   38.3410 N   0  0  0  0  0  0  0  0  0  0  0  0
   39.3430   22.3010   39.3260 H   0  0  0  0  0  0  0  0  0  0  0  0
   40.5540   22.3570   37.5740 C   0  0  0  0  0  0  0  0  0  0  0  0
   41.4240   21.7950   37.8320 H   0  0  0  0  0  0  0  0  0  0  0  0
   40.2970   22.9640   36.3880 N   0  0  0  0  0  0  0  0  0  0  0  0
  1  5  1  0  0  0  0
  2  1  2  0  0  0  0
  2  3  1  0  0  0  0
  3  4  2  0  0  0  0
  4  5  1  0  0  0  0
  4 17  1  0  0  0  0
  6  2  1  0  0  0  0
  7  3  1  0  0  0  0
  8 14  1  0  0  0  0
  8  9  1  0  0  0  0
  9 15  1  0  0  0  0
 10  1  1  0  0  0  0
 10  9  2  0  0  0  0
 11 10  1  0  0  0  0
 12 11  2  0  0  0  0
 12 13  1  0  0  0  0
 13  8  2  0  0  0  0
 16 12  1  0  0  0  0
 17 18  2  0  0  0  0
 18 19  1  0  0  0  0
 18 20  1  0  0  0  0
 20 21  1  0  0  0  0
 22 23  1  0  0  0  0
 22 20  1  0  0  0  0
 24 17  1  0  0  0  0
 24 22  2  0  0  0  0
M  END
>  <minimizedAffinity>
-4.65122604

$$$$

 OpenBabel03272503183D

 24 26  0  0  0  0  0  0  0  0999 V2000
   38.0640   24.8660   34.8400 C   0  0  0  0  0  0  0  0  0  0  0  0
   38.0630   24.3900   33.5910 C   0  0  0  0  0  0  0  0  0  0  0  0
   37.6560   25.1460   32.5590 C   0  0  0  0  0  0  0  0  0  0  0  0
   37.2430   26.4340   32.8720 C   0  0  0  0  0  0  0  0  0  0  0  0
   37.4610   26.5110   34.6900 S   0  0  0  0  0  0  0  0  0  0  0  0
   38.4110   23.3500   33.4430 H   0  0  0  0  0  0  0  0  0  0  0  0
   37.6130   24.8740   31.5260 H   0  0  0  0  0  0  0  0  0  0  0  0
   39.8300   22.8430   37.4700 C   0  0  0  0  0  0  0  0  0  0  0  0
   39.5320   23.3780   36.2010 C   0  0  0  0  0  0  0  0  0  0  0  0
   38.4490   24.2610   36.1080 C   0  0  0  0  0  0  0  0  0  0  0  0
   37.7480   24.5590   37.2180 N   0  0  0  0  0  0  0  0  0  0  0  0
   38.0550   24.0320   38.4150 C   0  0  0  0  0  0  0  0  0  0  0  0
   39.0860   23.1820   38.5400 N   0  0  0  0  0  0  0  0  0  0  0  0
   40.6680   22.1770   37.4660 H   0  0  0  0  0  0  0  0  0  0  0  0
   40.0860   23.1480   35.3030 H   0  0  0  0  0  0  0  0  0  0  0  0
   37.4390   24.3220   39.2730 H   0  0  0  0  0  0  0  0  0  0  0  0
   36.7500   27.5080   32.0320 C   0  0  0  0  0  0  0  0  0  0  0  0
   36.8030   27.5360   30.6780 C   0  0  0  0  0  0  0  0  0  0  0  0
   37.2180   26.7690   30.0550 H   0  0  0  0  0  0  0  0  0  0  0  0
   36.2310   28.7170   30.3380 N   0  0  0  0  0  0  0  0  0  0  0  0
   36.1140   29.0520   29.3550 H   0  0  0  0  0  0  0  0  0  0  0  0
   35.8320   29.4080   31.4360 C   0  0  0  0  0  0  0  0  0  0  0  0
   35.3550   30.3610   31.4830 H   0  0  0  0  0  0  0  0  0  0  0  0
   36.1750   28.6140   32.4830 N   0  0  0  0  0  0  0  0  0  0  0  0
  1 10  1  0  0  0  0
  2  1  2  0  0  0  0
  3  4  2  0  0  0  0
  3  2  1  0  0  0  0
  4  5  1  0  0  0  0
  5  1  1  0  0  0  0
  6  2  1  0  0  0  0
  7  3  1  0  0  0  0
  8 13  1  0  0  0  0
  9  8  2  0  0  0  0
 10  9  1  0  0  0  0
 10 11  2  0  0  0  0
 11 12  1  0  0  0  0
 12 13  2  0  0  0  0
 12 16  1  0  0  0  0
 14  8  1  0  0  0  0
 15  9  1  0  0  0  0
 17 24  1  0  0  0  0
 17  4  1  0  0  0  0
 18 17  2  0  0  0  0
 19 18  1  0  0  0  0
 20 18  1  0  0  0  0
 20 22  1  0  0  0  0
 21 20  1  0  0  0  0
 22 23  1  0  0  0  0
 22 24  2  0  0  0  0
M  END
>  <minimizedAffinity>
-4.45344257

$$$$

 OpenBabel03272503183D

 24 26  0  0  0  0  0  0  0  0999 V2000
   38.1880   24.7370   33.5360 C   0  0  0  0  0  0  0  0  0  0  0  0
   39.2630   25.3930   33.9810 C   0  0  0  0  0  0  0  0  0  0  0  0
   40.1040   24.8310   34.8650 C   0  0  0  0  0  0  0  0  0  0  0  0
   39.7850   23.5440   35.2760 C   0  0  0  0  0  0  0  0  0  0  0  0
   38.2450   23.1800   34.3520 S   0  0  0  0  0  0  0  0  0  0  0  0
   39.4320   26.4150   33.5940 H   0  0  0  0  0  0  0  0  0  0  0  0
   40.9880   25.2570   35.2870 H   0  0  0  0  0  0  0  0  0  0  0  0
   35.4310   24.6170   30.9820 C   0  0  0  0  0  0  0  0  0  0  0  0
   36.4260   24.1550   31.8690 C   0  0  0  0  0  0  0  0  0  0  0  0
   37.1410   25.1150   32.5960 C   0  0  0  0  0  0  0  0  0  0  0  0
   36.8540   26.4180   32.4220 N   0  0  0  0  0  0  0  0  0  0  0  0
   35.9000   26.8280   31.5690 C   0  0  0  0  0  0  0  0  0  0  0  0
   35.1960   25.9360   30.8560 N   0  0  0  0  0  0  0  0  0  0  0  0
   34.9260   23.8290   30.4610 H   0  0  0  0  0  0  0  0  0  0  0  0
   36.6660   23.1130   32.0170 H   0  0  0  0  0  0  0  0  0  0  0  0
   35.7230   27.9060   31.4810 H   0  0  0  0  0  0  0  0  0  0  0  0
   40.4500   22.6460   36.2000 C   0  0  0  0  0  0  0  0  0  0  0  0
   40.0830   22.4260   37.4860 C   0  0  0  0  0  0  0  0  0  0  0  0
   39.2540   22.8890   37.9850 H   0  0  0  0  0  0  0  0  0  0  0  0
   40.9820   21.5230   37.9490 N   0  0  0  0  0  0  0  0  0  0  0  0
   40.9810   21.1370   38.9200 H   0  0  0  0  0  0  0  0  0  0  0  0
   41.8830   21.1860   36.9910 C   0  0  0  0  0  0  0  0  0  0  0  0
   42.7020   20.5060   37.0600 H   0  0  0  0  0  0  0  0  0  0  0  0
   41.5150   21.9130   35.9040 N   0  0  0  0  0  0  0  0  0  0  0  0
  1  2  2  0  0  0  0
  1  5  1  0  0  0  0
  2  3  1  0  0  0  0
  3  4  2  0  0  0  0
  3  7  1  0  0  0  0
  4 17  1  0  0  0  0
  5  4  1  0  0  0  0
  6  2  1  0  0  0  0
  8  9  1  0  0  0  0
  9 15  1  0  0  0  0
  9 10  2  0  0  0  0
 10  1  1  0  0  0  0
 11 10  1  0  0  0  0
 12 11  2  0  0  0  0
 13  8  2  0  0  0  0
 13 12  1  0  0  0  0
 14  8  1  0  0  0  0
 16 12  1  0  0  0  0
 17 18  2  0  0  0  0
 18 20  1  0  0  0  0
 18 19  1  0  0  0  0
 20 21  1  0  0  0  0
 22 23  1  0  0  0  0
 22 20  1  0  0  0  0
 24 17  1  0  0  0  0
 24 22  2  0  0  0  0
M  END
>  <minimizedAffinity>
-4.44686031

$$$$

 OpenBabel03272503183D

 24 26  0  0  0  0  0  0  0  0999 V2000
   38.1990   24.4450   34.4930 C   0  0  0  0  0  0  0  0  0  0  0  0
   37.9980   23.7520   33.3680 C   0  0  0  0  0  0  0  0  0  0  0  0
   37.7440   24.3730   32.2050 C   0  0  0  0  0  0  0  0  0  0  0  0
   37.7070   25.7600   32.2500 C   0  0  0  0  0  0  0  0  0  0  0  0
   38.0470   26.1300   34.0120 S   0  0  0  0  0  0  0  0  0  0  0  0
   38.0470   22.6490   33.4350 H   0  0  0  0  0  0  0  0  0  0  0  0
   37.5680   23.9250   31.2500 H   0  0  0  0  0  0  0  0  0  0  0  0
   38.0380   23.9530   38.2170 C   0  0  0  0  0  0  0  0  0  0  0  0
   37.6820   24.4150   36.9330 C   0  0  0  0  0  0  0  0  0  0  0  0
   38.4860   24.0200   35.8570 C   0  0  0  0  0  0  0  0  0  0  0  0
   39.5490   23.2270   36.0870 N   0  0  0  0  0  0  0  0  0  0  0  0
   39.8640   22.8030   37.3230 C   0  0  0  0  0  0  0  0  0  0  0  0
   39.1160   23.1630   38.3770 N   0  0  0  0  0  0  0  0  0  0  0  0
   37.3810   24.2940   38.9900 H   0  0  0  0  0  0  0  0  0  0  0  0
   36.8330   25.0510   36.7340 H   0  0  0  0  0  0  0  0  0  0  0  0
   40.7450   22.1600   37.4320 H   0  0  0  0  0  0  0  0  0  0  0  0
   37.4670   26.7410   31.2100 C   0  0  0  0  0  0  0  0  0  0  0  0
   36.2480   27.1400   30.7700 C   0  0  0  0  0  0  0  0  0  0  0  0
   35.3050   26.7790   31.1330 H   0  0  0  0  0  0  0  0  0  0  0  0
   36.5140   28.0560   29.8080 N   0  0  0  0  0  0  0  0  0  0  0  0
   35.7830   28.5640   29.2600 H   0  0  0  0  0  0  0  0  0  0  0  0
   37.8510   28.2300   29.6470 C   0  0  0  0  0  0  0  0  0  0  0  0
   38.3590   28.8800   28.9690 H   0  0  0  0  0  0  0  0  0  0  0  0
   38.4170   27.3860   30.5470 N   0  0  0  0  0  0  0  0  0  0  0  0
  1 10  1  0  0  0  0
  2  6  1  0  0  0  0
  2  1  2  0  0  0  0
  3  4  2  0  0  0  0
  3  2  1  0  0  0  0
  4  5  1  0  0  0  0
  5  1  1  0  0  0  0
  7  3  1  0  0  0  0
  8 13  1  0  0  0  0
  8 14  1  0  0  0  0
  9  8  2  0  0  0  0
 10 11  2  0  0  0  0
 10  9  1  0  0  0  0
 11 12  1  0  0  0  0
 12 16  1  0  0  0  0
 12 13  2  0  0  0  0
 15  9  1  0  0  0  0
 17  4  1  0  0  0  0
 18 19  1  0  0  0  0
 18 17  2  0  0  0  0
 20 18  1  0  0  0  0
 21 20  1  0  0  0  0
 22 20  1  0  0  0  0
 22 24  2  0  0  0  0
 23 22  1  0  0  0  0
 24 17  1  0  0  0  0
M  END
>  <minimizedAffinity>
-4.35828257

$$$$
