
 OpenBabel03272510133D

 40 43  0  0  0  0  0  0  0  0999 V2000
   38.2490   31.6120   48.9140 C   0  0  0  0  0  0  0  0  0  0  0  0
   38.4540   32.9060   49.3970 C   0  0  0  0  0  0  0  0  0  0  0  0
   39.1410   33.5990   48.4050 C   0  0  0  0  0  0  0  0  0  0  0  0
   39.3270   32.7550   47.3960 N   0  0  0  0  0  0  0  0  0  0  0  0
   38.8020   31.5810   47.6940 N   0  0  0  0  0  0  0  0  0  0  0  0
   38.2030   33.4390   50.3220 H   0  0  0  0  0  0  0  0  0  0  0  0
   39.4800   34.6360   48.4110 H   0  0  0  0  0  0  0  0  0  0  0  0
   40.0020   33.0730   46.1610 C   0  0  0  0  0  0  0  0  0  0  0  0
   40.1830   34.1660   46.1490 H   0  0  0  0  0  0  0  0  0  0  0  0
   40.9440   32.4930   46.1240 H   0  0  0  0  0  0  0  0  0  0  0  0
   39.0770   32.7130   45.0160 C   0  0  0  0  0  0  0  0  0  0  0  0
   38.0560   32.6380   45.4060 H   0  0  0  0  0  0  0  0  0  0  0  0
   39.0920   33.5750   44.3060 H   0  0  0  0  0  0  0  0  0  0  0  0
   39.4910   31.4450   44.3640 C   0  0  0  0  0  0  0  0  0  0  0  0
   40.5830   30.9320   43.7130 C   0  0  0  0  0  0  0  0  0  0  0  0
   41.4350   31.5890   43.6030 H   0  0  0  0  0  0  0  0  0  0  0  0
   40.3350   29.6660   43.3400 N   0  0  0  0  0  0  0  0  0  0  0  0
   41.0230   29.1000   42.8380 H   0  0  0  0  0  0  0  0  0  0  0  0
   39.0870   29.3880   43.7580 C   0  0  0  0  0  0  0  0  0  0  0  0
   38.5980   28.4240   43.5990 H   0  0  0  0  0  0  0  0  0  0  0  0
   38.5610   30.4560   44.3810 N   0  0  0  0  0  0  0  0  0  0  0  0
   37.5730   30.7840   49.7840 O   0  0  0  0  0  0  0  0  0  0  0  0
   34.0550   28.8910   48.4210 C   0  0  0  0  0  0  0  0  0  0  0  0
   34.8180   28.3380   49.4130 C   0  0  0  0  0  0  0  0  0  0  0  0
   35.9760   28.9010   49.9060 C   0  0  0  0  0  0  0  0  0  0  0  0
   36.4340   30.0810   49.4090 C   0  0  0  0  0  0  0  0  0  0  0  0
   35.6580   30.6520   48.3910 C   0  0  0  0  0  0  0  0  0  0  0  0
   34.5270   30.0770   47.9280 N   0  0  0  0  0  0  0  0  0  0  0  0
   34.5380   27.4000   49.8750 H   0  0  0  0  0  0  0  0  0  0  0  0
   36.5780   28.4600   50.6930 H   0  0  0  0  0  0  0  0  0  0  0  0
   35.9470   31.5950   47.9340 H   0  0  0  0  0  0  0  0  0  0  0  0
   31.9440   27.5950   48.6960 C   0  0  0  0  0  0  0  0  0  0  0  0
   32.8620   28.2960   47.9170 C   0  0  0  0  0  0  0  0  0  0  0  0
   32.5800   28.4030   46.5750 C   0  0  0  0  0  0  0  0  0  0  0  0
   31.4410   27.8360   46.0590 N   0  0  0  0  0  0  0  0  0  0  0  0
   30.5850   27.1650   46.8690 C   0  0  0  0  0  0  0  0  0  0  0  0
   30.8210   27.0330   48.2020 N   0  0  0  0  0  0  0  0  0  0  0  0
   32.1290   27.4900   49.7530 H   0  0  0  0  0  0  0  0  0  0  0  0
   33.2600   28.9390   45.9140 H   0  0  0  0  0  0  0  0  0  0  0  0
   29.6910   26.7230   46.4480 H   0  0  0  0  0  0  0  0  0  0  0  0
  1  2  1  0  0  0  0
  1 22  1  0  0  0  0
  2  6  1  0  0  0  0
  3  7  1  0  0  0  0
  3  2  2  0  0  0  0
  4  5  1  0  0  0  0
  4  3  1  0  0  0  0
  5  1  2  0  0  0  0
  8  4  1  0  0  0  0
  9  8  1  0  0  0  0
 10  8  1  0  0  0  0
 11 12  1  0  0  0  0
 11  8  1  0  0  0  0
 13 11  1  0  0  0  0
 14 21  1  0  0  0  0
 14 11  1  0  0  0  0
 15 14  2  0  0  0  0
 16 15  1  0  0  0  0
 17 15  1  0  0  0  0
 17 19  1  0  0  0  0
 18 17  1  0  0  0  0
 19 21  2  0  0  0  0
 20 19  1  0  0  0  0
 23 24  1  0  0  0  0
 24 29  1  0  0  0  0
 24 25  2  0  0  0  0
 25 30  1  0  0  0  0
 26 22  1  0  0  0  0
 26 25  1  0  0  0  0
 27 26  2  0  0  0  0
 28 27  1  0  0  0  0
 28 23  2  0  0  0  0
 31 27  1  0  0  0  0
 32 38  1  0  0  0  0
 33 23  1  0  0  0  0
 33 32  2  0  0  0  0
 34 33  1  0  0  0  0
 35 34  2  0  0  0  0
 35 36  1  0  0  0  0
 36 37  2  0  0  0  0
 37 32  1  0  0  0  0
 39 34  1  0  0  0  0
 40 36  1  0  0  0  0
M  END
>  <minimizedAffinity>
-6.06652117

>  <minimizedRMSD>
1.98013055

$$$$
