
 OpenBabel03272503153D

 24 26  0  0  0  0  0  0  0  0999 V2000
   37.8280   31.3050   48.2410 C   0  0  0  0  0  0  0  0  0  0  0  0
   38.8070   32.2080   48.1370 C   0  0  0  0  0  0  0  0  0  0  0  0
   39.1730   32.7030   46.9430 C   0  0  0  0  0  0  0  0  0  0  0  0
   38.4750   32.2220   45.8440 C   0  0  0  0  0  0  0  0  0  0  0  0
   37.2870   31.0420   46.5890 S   0  0  0  0  0  0  0  0  0  0  0  0
   39.3040   32.5300   49.0710 H   0  0  0  0  0  0  0  0  0  0  0  0
   39.9360   33.4240   46.7400 H   0  0  0  0  0  0  0  0  0  0  0  0
   37.2390   29.9800   51.7090 C   0  0  0  0  0  0  0  0  0  0  0  0
   37.8690   30.6680   50.6520 C   0  0  0  0  0  0  0  0  0  0  0  0
   37.2540   30.6260   49.3950 C   0  0  0  0  0  0  0  0  0  0  0  0
   36.1040   29.9410   49.2490 N   0  0  0  0  0  0  0  0  0  0  0  0
   35.5280   29.2950   50.2760 C   0  0  0  0  0  0  0  0  0  0  0  0
   36.0900   29.3130   51.4940 N   0  0  0  0  0  0  0  0  0  0  0  0
   37.7650   30.0550   52.6390 H   0  0  0  0  0  0  0  0  0  0  0  0
   38.7910   31.2200   50.7560 H   0  0  0  0  0  0  0  0  0  0  0  0
   34.5920   28.7590   50.0800 H   0  0  0  0  0  0  0  0  0  0  0  0
   38.5940   32.5250   44.4310 C   0  0  0  0  0  0  0  0  0  0  0  0
   39.7450   32.8430   43.7890 C   0  0  0  0  0  0  0  0  0  0  0  0
   40.7140   32.9120   44.2430 H   0  0  0  0  0  0  0  0  0  0  0  0
   39.3740   33.0390   42.5000 N   0  0  0  0  0  0  0  0  0  0  0  0
   40.0320   33.3020   41.7310 H   0  0  0  0  0  0  0  0  0  0  0  0
   38.0390   32.8520   42.3350 C   0  0  0  0  0  0  0  0  0  0  0  0
   37.4630   32.9370   41.4420 H   0  0  0  0  0  0  0  0  0  0  0  0
   37.5840   32.5290   43.5730 N   0  0  0  0  0  0  0  0  0  0  0  0
  1 10  1  0  0  0  0
  2  1  2  0  0  0  0
  2  6  1  0  0  0  0
  3  2  1  0  0  0  0
  4  5  1  0  0  0  0
  4  3  2  0  0  0  0
  5  1  1  0  0  0  0
  7  3  1  0  0  0  0
  8 14  1  0  0  0  0
  9 15  1  0  0  0  0
  9  8  2  0  0  0  0
 10  9  1  0  0  0  0
 11 10  2  0  0  0  0
 11 12  1  0  0  0  0
 12 13  2  0  0  0  0
 13  8  1  0  0  0  0
 16 12  1  0  0  0  0
 17  4  1  0  0  0  0
 18 19  1  0  0  0  0
 18 17  2  0  0  0  0
 20 18  1  0  0  0  0
 21 20  1  0  0  0  0
 22 20  1  0  0  0  0
 22 24  2  0  0  0  0
 23 22  1  0  0  0  0
 24 17  1  0  0  0  0
M  END
>  <minimizedAffinity>
-5.25240564

>  <minimizedRMSD>
0.548292518

$$$$
