
 OpenBabel03272502363D

 35 37  0  0  1  0  0  0  0  0999 V2000
   36.5570   28.0320   34.6350 C   0  0  0  0  0  3  0  0  0  0  0  0
   36.1040   28.6480   33.5920 C   0  0  0  0  0  3  0  0  0  0  0  0
   38.1520   25.0050   33.1550 C   0  0  0  0  0  0  0  0  0  0  0  0
   37.5180   26.2270   33.3140 C   0  0  0  0  0  0  0  0  0  0  0  0
   37.2320   26.7550   34.5450 C   0  0  0  0  0  0  0  0  0  0  0  0
   37.6010   26.0230   35.6070 N   0  0  0  0  0  0  0  0  0  0  0  0
   38.2090   24.8500   35.4760 C   0  0  0  0  0  0  0  0  0  0  0  0
   38.4890   24.3320   34.2660 N   0  0  0  0  0  0  0  0  0  0  0  0
   38.3980   24.5500   32.2130 H   0  0  0  0  0  0  0  0  0  0  0  0
   37.3000   26.6710   32.3600 H   0  0  0  0  0  0  0  0  0  0  0  0
   38.6170   24.0390   36.6320 C   0  0  0  0  0  0  0  0  0  0  0  0
   39.5040   22.9940   36.8080 C   0  0  0  0  0  0  0  0  0  0  0  0
   40.0670   22.6230   35.9670 H   0  0  0  0  0  0  0  0  0  0  0  0
   39.4260   22.6820   38.1100 N   0  0  0  0  0  0  0  0  0  0  0  0
   40.0120   21.9040   38.5130 H   0  0  0  0  0  0  0  0  0  0  0  0
   38.5270   23.4980   38.7280 C   0  0  0  0  0  0  0  0  0  0  0  0
   38.2790   23.4520   39.7850 H   0  0  0  0  0  0  0  0  0  0  0  0
   38.0210   24.3440   37.8130 N   0  0  0  0  0  0  0  0  0  0  0  0
   35.4140   29.9640   33.8070 C   0  0  1  0  0  0  0  0  0  0  0  0
   35.7350   30.6800   33.0280 H   0  0  0  0  0  0  0  0  0  0  0  0
   33.9560   29.7610   33.8230 C   0  0  0  0  0  0  0  0  0  0  0  0
   33.3930   29.8640   35.1220 C   0  0  0  0  0  0  0  0  0  0  0  0
   32.0520   29.7110   35.3820 C   0  0  0  0  0  0  0  0  0  0  0  0
   31.1470   29.4380   34.3420 C   0  0  0  0  0  0  0  0  0  0  0  0
   31.7800   29.3530   33.1070 C   0  0  0  0  0  0  0  0  0  0  0  0
   33.0810   29.4970   32.8280 N   0  0  0  0  0  0  0  0  0  0  0  0
   33.8810   30.0700   36.0860 H   0  0  0  0  0  0  0  0  0  0  0  0
   31.5610   29.7770   36.3430 H   0  0  0  0  0  0  0  0  0  0  0  0
   30.0980   29.2930   34.3620 H   0  0  0  0  0  0  0  0  0  0  0  0
   31.2120   29.1450   32.1970 H   0  0  0  0  0  0  0  0  0  0  0  0
   35.8610   30.5410   35.4800 S   0  0  0  0  0  0  0  0  0  0  0  0
   35.8560   32.3220   35.5670 C   0  0  0  0  0  0  0  0  0  0  0  0
   37.1130   32.8810   35.3990 F   0  0  0  0  0  0  0  0  0  0  0  0
   34.9330   32.8810   34.7090 F   0  0  0  0  0  0  0  0  0  0  0  0
   35.4080   32.6560   36.8620 F   0  0  0  0  0  0  0  0  0  0  0  0
  2 19  1  0  0  0  0
  2  1  2  0  0  0  0
  3  4  2  0  0  0  0
  3  8  1  0  0  0  0
  4  5  1  0  0  0  0
  5  1  1  0  0  0  0
  5  6  2  0  0  0  0
  7  6  1  0  0  0  0
  7 11  1  0  0  0  0
  8  7  2  0  0  0  0
  9  3  1  0  0  0  0
 10  4  1  0  0  0  0
 11 12  2  0  0  0  0
 11 18  1  0  0  0  0
 12 14  1  0  0  0  0
 13 12  1  0  0  0  0
 14 15  1  0  0  0  0
 14 16  1  0  0  0  0
 16 17  1  0  0  0  0
 18 16  2  0  0  0  0
 19 20  1  6  0  0  0
 19 21  1  0  0  0  0
 19 31  1  0  0  0  0
 21 22  1  0  0  0  0
 22 23  2  0  0  0  0
 22 27  1  0  0  0  0
 23 28  1  0  0  0  0
 24 29  1  0  0  0  0
 24 23  1  0  0  0  0
 25 24  2  0  0  0  0
 26 25  1  0  0  0  0
 26 21  2  0  0  0  0
 30 25  1  0  0  0  0
 31 32  1  0  0  0  0
 32 35  1  0  0  0  0
 33 32  1  0  0  0  0
 34 32  1  0  0  0  0
M  END
>  <minimizedAffinity>
-5.80022669

$$$$

 OpenBabel03272502363D

 35 37  0  0  1  0  0  0  0  0999 V2000
   36.6650   27.1390   33.6750 C   0  0  0  0  0  3  0  0  0  0  0  0
   36.5430   28.3860   33.9940 C   0  0  0  0  0  3  0  0  0  0  0  0
   40.0680   25.6170   33.6490 C   0  0  0  0  0  0  0  0  0  0  0  0
   38.9450   26.3600   33.3230 C   0  0  0  0  0  0  0  0  0  0  0  0
   37.8060   26.3460   34.0830 C   0  0  0  0  0  0  0  0  0  0  0  0
   37.8290   25.5680   35.1760 N   0  0  0  0  0  0  0  0  0  0  0  0
   38.8940   24.8490   35.5060 C   0  0  0  0  0  0  0  0  0  0  0  0
   40.0130   24.8630   34.7580 N   0  0  0  0  0  0  0  0  0  0  0  0
   40.9850   25.5950   33.0870 H   0  0  0  0  0  0  0  0  0  0  0  0
   39.1070   26.9210   32.4220 H   0  0  0  0  0  0  0  0  0  0  0  0
   38.9300   23.9930   36.7000 C   0  0  0  0  0  0  0  0  0  0  0  0
   39.7330   22.9430   37.1060 C   0  0  0  0  0  0  0  0  0  0  0  0
   40.5360   22.6080   36.4710 H   0  0  0  0  0  0  0  0  0  0  0  0
   39.2540   22.5790   38.3050 N   0  0  0  0  0  0  0  0  0  0  0  0
   39.6950   21.7860   38.8420 H   0  0  0  0  0  0  0  0  0  0  0  0
   38.1950   23.3680   38.6400 C   0  0  0  0  0  0  0  0  0  0  0  0
   37.6280   23.2790   39.5630 H   0  0  0  0  0  0  0  0  0  0  0  0
   37.9900   24.2490   37.6450 N   0  0  0  0  0  0  0  0  0  0  0  0
   35.3210   29.1100   33.5090 C   0  0  1  0  0  0  0  0  0  0  0  0
   34.5670   28.3760   33.1720 H   0  0  0  0  0  0  0  0  0  0  0  0
   34.8160   29.9940   34.5720 C   0  0  0  0  0  0  0  0  0  0  0  0
   35.8340   30.7740   35.1790 C   0  0  0  0  0  0  0  0  0  0  0  0
   35.5990   31.6700   36.1950 C   0  0  0  0  0  0  0  0  0  0  0  0
   34.2990   31.8610   36.6960 C   0  0  0  0  0  0  0  0  0  0  0  0
   33.3660   31.0610   36.0470 C   0  0  0  0  0  0  0  0  0  0  0  0
   33.5690   30.1820   35.0580 N   0  0  0  0  0  0  0  0  0  0  0  0
   36.9120   30.8090   34.9700 H   0  0  0  0  0  0  0  0  0  0  0  0
   36.3250   32.2920   36.6990 H   0  0  0  0  0  0  0  0  0  0  0  0
   33.9430   32.5000   37.4620 H   0  0  0  0  0  0  0  0  0  0  0  0
   32.3090   31.0930   36.3230 H   0  0  0  0  0  0  0  0  0  0  0  0
   35.8480   30.2090   32.1490 S   0  0  0  0  0  0  0  0  0  0  0  0
   36.5020   29.2690   30.7820 C   0  0  0  0  0  0  0  0  0  0  0  0
   35.8880   28.0370   30.6230 F   0  0  0  0  0  0  0  0  0  0  0  0
   36.5020   29.9920   29.6090 F   0  0  0  0  0  0  0  0  0  0  0  0
   37.8620   29.0360   31.0750 F   0  0  0  0  0  0  0  0  0  0  0  0
  1  2  2  0  0  0  0
  1  5  1  0  0  0  0
  3  8  1  0  0  0  0
  4  3  2  0  0  0  0
  4  5  1  0  0  0  0
  5  6  2  0  0  0  0
  6  7  1  0  0  0  0
  7 11  1  0  0  0  0
  8  7  2  0  0  0  0
  9  3  1  0  0  0  0
 10  4  1  0  0  0  0
 11 12  2  0  0  0  0
 11 18  1  0  0  0  0
 12 14  1  0  0  0  0
 13 12  1  0  0  0  0
 14 16  1  0  0  0  0
 14 15  1  0  0  0  0
 16 17  1  0  0  0  0
 18 16  2  0  0  0  0
 19 20  1  6  0  0  0
 19  2  1  0  0  0  0
 19 21  1  0  0  0  0
 21 26  2  0  0  0  0
 21 22  1  0  0  0  0
 22 23  2  0  0  0  0
 23 24  1  0  0  0  0
 23 28  1  0  0  0  0
 24 29  1  0  0  0  0
 25 30  1  0  0  0  0
 25 24  2  0  0  0  0
 26 25  1  0  0  0  0
 27 22  1  0  0  0  0
 31 19  1  0  0  0  0
 32 35  1  0  0  0  0
 32 31  1  0  0  0  0
 33 32  1  0  0  0  0
 34 32  1  0  0  0  0
M  END
>  <minimizedAffinity>
-5.76636457

$$$$

 OpenBabel03272502363D

 35 37  0  0  1  0  0  0  0  0999 V2000
   36.3230   28.6700   34.7090 C   0  0  0  0  0  3  0  0  0  0  0  0
   35.4700   29.2140   33.9030 C   0  0  0  0  0  3  0  0  0  0  0  0
   37.9990   25.9930   32.7290 C   0  0  0  0  0  0  0  0  0  0  0  0
   37.3610   27.1650   33.1000 C   0  0  0  0  0  0  0  0  0  0  0  0
   36.9990   27.4290   34.3950 C   0  0  0  0  0  0  0  0  0  0  0  0
   37.2970   26.4850   35.3000 N   0  0  0  0  0  0  0  0  0  0  0  0
   37.9090   25.3560   34.9650 C   0  0  0  0  0  0  0  0  0  0  0  0
   38.2630   25.0980   33.6920 N   0  0  0  0  0  0  0  0  0  0  0  0
   38.3040   25.7400   31.7290 H   0  0  0  0  0  0  0  0  0  0  0  0
   37.2050   27.8010   32.2490 H   0  0  0  0  0  0  0  0  0  0  0  0
   38.2390   24.3150   35.9480 C   0  0  0  0  0  0  0  0  0  0  0  0
   38.9250   23.1160   35.8850 C   0  0  0  0  0  0  0  0  0  0  0  0
   39.3470   22.7900   34.9490 H   0  0  0  0  0  0  0  0  0  0  0  0
   38.8850   22.6230   37.1310 N   0  0  0  0  0  0  0  0  0  0  0  0
   39.3420   21.7010   37.3600 H   0  0  0  0  0  0  0  0  0  0  0  0
   38.2010   23.4750   37.9450 C   0  0  0  0  0  0  0  0  0  0  0  0
   38.0260   23.3080   39.0050 H   0  0  0  0  0  0  0  0  0  0  0  0
   37.7980   24.5300   37.2140 N   0  0  0  0  0  0  0  0  0  0  0  0
   34.8260   30.4980   34.3380 C   0  0  1  0  0  0  0  0  0  0  0  0
   34.6460   31.1380   33.4530 H   0  0  0  0  0  0  0  0  0  0  0  0
   33.5920   30.2050   35.0840 C   0  0  0  0  0  0  0  0  0  0  0  0
   33.3870   31.0750   36.1870 C   0  0  0  0  0  0  0  0  0  0  0  0
   32.3040   30.9910   37.0280 C   0  0  0  0  0  0  0  0  0  0  0  0
   31.3170   30.0090   36.8310 C   0  0  0  0  0  0  0  0  0  0  0  0
   31.5950   29.2020   35.7340 C   0  0  0  0  0  0  0  0  0  0  0  0
   32.6410   29.2630   34.9010 N   0  0  0  0  0  0  0  0  0  0  0  0
   34.0030   31.9120   36.5450 H   0  0  0  0  0  0  0  0  0  0  0  0
   32.0880   31.6190   37.8820 H   0  0  0  0  0  0  0  0  0  0  0  0
   30.4310   29.8050   37.3740 H   0  0  0  0  0  0  0  0  0  0  0  0
   30.9220   28.3900   35.4490 H   0  0  0  0  0  0  0  0  0  0  0  0
   35.9570   31.2960   35.5280 S   0  0  0  0  0  0  0  0  0  0  0  0
   36.4500   32.9130   34.9600 C   0  0  0  0  0  0  0  0  0  0  0  0
   37.4920   33.4560   35.6950 F   0  0  0  0  0  0  0  0  0  0  0  0
   36.7190   32.9280   33.6090 F   0  0  0  0  0  0  0  0  0  0  0  0
   35.3270   33.7500   35.1250 F   0  0  0  0  0  0  0  0  0  0  0  0
  2 19  1  0  0  0  0
  2  1  2  0  0  0  0
  3  4  2  0  0  0  0
  3  8  1  0  0  0  0
  4  5  1  0  0  0  0
  5  1  1  0  0  0  0
  5  6  2  0  0  0  0
  7  6  1  0  0  0  0
  7 11  1  0  0  0  0
  8  7  2  0  0  0  0
  9  3  1  0  0  0  0
 10  4  1  0  0  0  0
 11 18  1  0  0  0  0
 12 11  2  0  0  0  0
 12 14  1  0  0  0  0
 13 12  1  0  0  0  0
 14 15  1  0  0  0  0
 14 16  1  0  0  0  0
 16 17  1  0  0  0  0
 18 16  2  0  0  0  0
 19 20  1  6  0  0  0
 19 21  1  0  0  0  0
 19 31  1  0  0  0  0
 21 22  1  0  0  0  0
 22 27  1  0  0  0  0
 22 23  2  0  0  0  0
 23 28  1  0  0  0  0
 24 23  1  0  0  0  0
 24 29  1  0  0  0  0
 25 24  2  0  0  0  0
 26 21  2  0  0  0  0
 26 25  1  0  0  0  0
 30 25  1  0  0  0  0
 32 35  1  0  0  0  0
 32 31  1  0  0  0  0
 32 33  1  0  0  0  0
 34 32  1  0  0  0  0
M  END
>  <minimizedAffinity>
-5.62066412

$$$$

 OpenBabel03272502363D

 35 37  0  0  1  0  0  0  0  0999 V2000
   36.7540   27.8510   34.6510 C   0  0  0  0  0  3  0  0  0  0  0  0
   36.0420   28.3600   33.7000 C   0  0  0  0  0  3  0  0  0  0  0  0
   37.7990   24.5580   33.2520 C   0  0  0  0  0  0  0  0  0  0  0  0
   37.3190   25.8500   33.3840 C   0  0  0  0  0  0  0  0  0  0  0  0
   37.2810   26.5040   34.5870 C   0  0  0  0  0  0  0  0  0  0  0  0
   37.7380   25.8240   35.6490 N   0  0  0  0  0  0  0  0  0  0  0  0
   38.2030   24.5850   35.5440 C   0  0  0  0  0  0  0  0  0  0  0  0
   38.2390   23.9440   34.3610 N   0  0  0  0  0  0  0  0  0  0  0  0
   37.8500   24.0030   32.3320 H   0  0  0  0  0  0  0  0  0  0  0  0
   36.9980   26.2370   32.4350 H   0  0  0  0  0  0  0  0  0  0  0  0
   38.7060   23.8300   36.7000 C   0  0  0  0  0  0  0  0  0  0  0  0
   38.2070   23.5570   37.9600 C   0  0  0  0  0  0  0  0  0  0  0  0
   37.2430   23.9410   38.2480 H   0  0  0  0  0  0  0  0  0  0  0  0
   39.1480   22.8090   38.5560 N   0  0  0  0  0  0  0  0  0  0  0  0
   39.0140   22.4610   39.5410 H   0  0  0  0  0  0  0  0  0  0  0  0
   40.1960   22.6200   37.7050 C   0  0  0  0  0  0  0  0  0  0  0  0
   41.0880   22.0480   37.9450 H   0  0  0  0  0  0  0  0  0  0  0  0
   39.9250   23.2520   36.5500 N   0  0  0  0  0  0  0  0  0  0  0  0
   35.5430   29.7640   33.8790 C   0  0  1  0  0  0  0  0  0  0  0  0
   35.9360   30.1760   34.8270 H   0  0  0  0  0  0  0  0  0  0  0  0
   35.9180   30.5750   32.7100 C   0  0  0  0  0  0  0  0  0  0  0  0
   36.1310   29.8010   31.5400 C   0  0  0  0  0  0  0  0  0  0  0  0
   36.4900   30.3410   30.3280 C   0  0  0  0  0  0  0  0  0  0  0  0
   36.6680   31.7290   30.1860 C   0  0  0  0  0  0  0  0  0  0  0  0
   36.4400   32.4090   31.3760 C   0  0  0  0  0  0  0  0  0  0  0  0
   36.0910   31.9080   32.5680 N   0  0  0  0  0  0  0  0  0  0  0  0
   36.0550   28.7150   31.3920 H   0  0  0  0  0  0  0  0  0  0  0  0
   36.6670   29.8120   29.4020 H   0  0  0  0  0  0  0  0  0  0  0  0
   36.9380   32.3060   29.3400 H   0  0  0  0  0  0  0  0  0  0  0  0
   36.5390   33.4960   31.4310 H   0  0  0  0  0  0  0  0  0  0  0  0
   33.7190   29.6940   33.8800 S   0  0  0  0  0  0  0  0  0  0  0  0
   33.0360   30.7450   35.1480 C   0  0  0  0  0  0  0  0  0  0  0  0
   31.9080   31.4350   34.7370 F   0  0  0  0  0  0  0  0  0  0  0  0
   32.8140   30.0610   36.3240 F   0  0  0  0  0  0  0  0  0  0  0  0
   34.0330   31.6950   35.4550 F   0  0  0  0  0  0  0  0  0  0  0  0
  2 19  1  0  0  0  0
  2  1  2  0  0  0  0
  3  4  2  0  0  0  0
  3  8  1  0  0  0  0
  4  5  1  0  0  0  0
  5  1  1  0  0  0  0
  5  6  2  0  0  0  0
  7  6  1  0  0  0  0
  7 11  1  0  0  0  0
  8  7  2  0  0  0  0
  9  3  1  0  0  0  0
 10  4  1  0  0  0  0
 11 12  2  0  0  0  0
 12 13  1  0  0  0  0
 12 14  1  0  0  0  0
 14 15  1  0  0  0  0
 16 17  1  0  0  0  0
 16 14  1  0  0  0  0
 18 11  1  0  0  0  0
 18 16  2  0  0  0  0
 19 31  1  0  0  0  0
 19 20  1  1  0  0  0
 21 19  1  0  0  0  0
 22 21  2  0  0  0  0
 23 22  1  0  0  0  0
 24 23  2  0  0  0  0
 24 25  1  0  0  0  0
 25 30  1  0  0  0  0
 25 26  2  0  0  0  0
 26 21  1  0  0  0  0
 27 22  1  0  0  0  0
 28 23  1  0  0  0  0
 29 24  1  0  0  0  0
 31 32  1  0  0  0  0
 32 35  1  0  0  0  0
 32 34  1  0  0  0  0
 33 32  1  0  0  0  0
M  END
>  <minimizedAffinity>
-5.5009985

$$$$

 OpenBabel03272502363D

 35 37  0  0  1  0  0  0  0  0999 V2000
   38.0630   25.0310   34.1250 C   0  0  0  0  0  3  0  0  0  0  0  0
   38.6960   23.9180   34.3040 C   0  0  0  0  0  3  0  0  0  0  0  0
   38.9090   25.8770   30.5940 C   0  0  0  0  0  0  0  0  0  0  0  0
   38.8480   25.2560   31.8300 C   0  0  0  0  0  0  0  0  0  0  0  0
   38.0680   25.7250   32.8540 C   0  0  0  0  0  0  0  0  0  0  0  0
   37.3540   26.8320   32.5990 N   0  0  0  0  0  0  0  0  0  0  0  0
   37.3980   27.4420   31.4220 C   0  0  0  0  0  0  0  0  0  0  0  0
   38.1650   26.9800   30.4160 N   0  0  0  0  0  0  0  0  0  0  0  0
   39.5030   25.5480   29.7600 H   0  0  0  0  0  0  0  0  0  0  0  0
   39.4800   24.3880   31.8530 H   0  0  0  0  0  0  0  0  0  0  0  0
   36.6210   28.6550   31.1320 C   0  0  0  0  0  0  0  0  0  0  0  0
   36.6490   29.5960   30.1180 C   0  0  0  0  0  0  0  0  0  0  0  0
   37.3660   29.5000   29.3200 H   0  0  0  0  0  0  0  0  0  0  0  0
   35.6770   30.4690   30.4230 N   0  0  0  0  0  0  0  0  0  0  0  0
   35.4850   31.2980   29.8010 H   0  0  0  0  0  0  0  0  0  0  0  0
   35.0630   30.0940   31.5790 C   0  0  0  0  0  0  0  0  0  0  0  0
   34.2420   30.6320   32.0440 H   0  0  0  0  0  0  0  0  0  0  0  0
   35.6460   28.9660   32.0240 N   0  0  0  0  0  0  0  0  0  0  0  0
   38.6260   23.2910   35.6670 C   0  0  1  0  0  0  0  0  0  0  0  0
   37.8900   22.4660   35.6550 H   0  0  0  0  0  0  0  0  0  0  0  0
   39.9680   22.8470   36.0760 C   0  0  0  0  0  0  0  0  0  0  0  0
   40.9970   23.7360   35.6700 C   0  0  0  0  0  0  0  0  0  0  0  0
   42.3290   23.5290   35.9390 C   0  0  0  0  0  0  0  0  0  0  0  0
   42.7470   22.3910   36.6520 C   0  0  0  0  0  0  0  0  0  0  0  0
   41.6790   21.5760   37.0090 C   0  0  0  0  0  0  0  0  0  0  0  0
   40.3770   21.7550   36.7590 N   0  0  0  0  0  0  0  0  0  0  0  0
   40.9310   24.6810   35.1120 H   0  0  0  0  0  0  0  0  0  0  0  0
   43.1590   24.1620   35.6610 H   0  0  0  0  0  0  0  0  0  0  0  0
   43.7170   22.0780   36.9420 H   0  0  0  0  0  0  0  0  0  0  0  0
   41.8400   20.6510   37.5670 H   0  0  0  0  0  0  0  0  0  0  0  0
   38.1490   24.6040   36.8420 S   0  0  0  0  0  0  0  0  0  0  0  0
   38.0780   23.9770   38.5100 C   0  0  0  0  0  0  0  0  0  0  0  0
   37.2680   22.8600   38.6390 F   0  0  0  0  0  0  0  0  0  0  0  0
   39.3320   23.7590   39.0360 F   0  0  0  0  0  0  0  0  0  0  0  0
   37.5190   25.0060   39.2970 F   0  0  0  0  0  0  0  0  0  0  0  0
  1  2  2  0  0  0  0
  2 19  1  0  0  0  0
  3  4  1  0  0  0  0
  4 10  1  0  0  0  0
  4  5  2  0  0  0  0
  5  1  1  0  0  0  0
  6  5  1  0  0  0  0
  7  6  2  0  0  0  0
  8  3  2  0  0  0  0
  8  7  1  0  0  0  0
  9  3  1  0  0  0  0
 11  7  1  0  0  0  0
 11 18  1  0  0  0  0
 12 14  1  0  0  0  0
 12 11  2  0  0  0  0
 13 12  1  0  0  0  0
 14 16  1  0  0  0  0
 15 14  1  0  0  0  0
 16 18  2  0  0  0  0
 16 17  1  0  0  0  0
 19 20  1  1  0  0  0
 19 21  1  0  0  0  0
 19 31  1  0  0  0  0
 21 26  1  0  0  0  0
 22 23  1  0  0  0  0
 22 21  2  0  0  0  0
 23 24  2  0  0  0  0
 24 29  1  0  0  0  0
 24 25  1  0  0  0  0
 25 30  1  0  0  0  0
 26 25  2  0  0  0  0
 27 22  1  0  0  0  0
 28 23  1  0  0  0  0
 31 32  1  0  0  0  0
 32 33  1  0  0  0  0
 32 34  1  0  0  0  0
 32 35  1  0  0  0  0
M  END
>  <minimizedAffinity>
-5.49934816

$$$$

 OpenBabel03272502363D

 35 37  0  0  1  0  0  0  0  0999 V2000
   36.2070   28.6260   34.6290 C   0  0  0  0  0  3  0  0  0  0  0  0
   35.5720   29.3250   33.7460 C   0  0  0  0  0  3  0  0  0  0  0  0
   38.0650   26.1120   32.5980 C   0  0  0  0  0  0  0  0  0  0  0  0
   37.3740   27.2440   32.9990 C   0  0  0  0  0  0  0  0  0  0  0  0
   36.9330   27.4220   34.2840 C   0  0  0  0  0  0  0  0  0  0  0  0
   37.2060   26.4340   35.1490 N   0  0  0  0  0  0  0  0  0  0  0  0
   37.8670   25.3420   34.7860 C   0  0  0  0  0  0  0  0  0  0  0  0
   38.2990   25.1680   33.5230 N   0  0  0  0  0  0  0  0  0  0  0  0
   38.4320   25.9260   31.6050 H   0  0  0  0  0  0  0  0  0  0  0  0
   37.2480   27.9250   32.1790 H   0  0  0  0  0  0  0  0  0  0  0  0
   38.1710   24.2540   35.7250 C   0  0  0  0  0  0  0  0  0  0  0  0
   38.9760   23.1310   35.6670 C   0  0  0  0  0  0  0  0  0  0  0  0
   39.5450   22.9260   34.7750 H   0  0  0  0  0  0  0  0  0  0  0  0
   38.8250   22.5300   36.8560 N   0  0  0  0  0  0  0  0  0  0  0  0
   39.3390   21.6360   37.0760 H   0  0  0  0  0  0  0  0  0  0  0  0
   37.9610   23.2440   37.6300 C   0  0  0  0  0  0  0  0  0  0  0  0
   37.6680   22.9700   38.6410 H   0  0  0  0  0  0  0  0  0  0  0  0
   37.5520   24.3170   36.9310 N   0  0  0  0  0  0  0  0  0  0  0  0
   34.8470   30.5510   34.2210 C   0  0  1  0  0  0  0  0  0  0  0  0
   34.5430   30.4140   35.2760 H   0  0  0  0  0  0  0  0  0  0  0  0
   35.6980   31.7350   34.0270 C   0  0  0  0  0  0  0  0  0  0  0  0
   36.1070   32.3350   35.2470 C   0  0  0  0  0  0  0  0  0  0  0  0
   36.9050   33.4520   35.3140 C   0  0  0  0  0  0  0  0  0  0  0  0
   37.3690   34.0720   34.1410 C   0  0  0  0  0  0  0  0  0  0  0  0
   36.9230   33.4240   32.9950 C   0  0  0  0  0  0  0  0  0  0  0  0
   36.1470   32.3370   32.9030 N   0  0  0  0  0  0  0  0  0  0  0  0
   35.8840   32.0430   36.2830 H   0  0  0  0  0  0  0  0  0  0  0  0
   37.2520   33.9560   36.2050 H   0  0  0  0  0  0  0  0  0  0  0  0
   37.9820   34.9260   34.0090 H   0  0  0  0  0  0  0  0  0  0  0  0
   37.1970   33.7860   32.0010 H   0  0  0  0  0  0  0  0  0  0  0  0
   33.4030   30.7830   33.1280 S   0  0  0  0  0  0  0  0  0  0  0  0
   32.2170   29.4700   33.3450 C   0  0  0  0  0  0  0  0  0  0  0  0
   30.9080   29.8770   33.1410 F   0  0  0  0  0  0  0  0  0  0  0  0
   32.5280   28.3600   32.5900 F   0  0  0  0  0  0  0  0  0  0  0  0
   32.3310   29.0500   34.6870 F   0  0  0  0  0  0  0  0  0  0  0  0
  2 19  1  0  0  0  0
  2  1  2  0  0  0  0
  3  4  2  0  0  0  0
  3  8  1  0  0  0  0
  4  5  1  0  0  0  0
  5  1  1  0  0  0  0
  5  6  2  0  0  0  0
  7  6  1  0  0  0  0
  7 11  1  0  0  0  0
  8  7  2  0  0  0  0
  9  3  1  0  0  0  0
 10  4  1  0  0  0  0
 11 18  1  0  0  0  0
 12 11  2  0  0  0  0
 12 14  1  0  0  0  0
 13 12  1  0  0  0  0
 14 15  1  0  0  0  0
 14 16  1  0  0  0  0
 16 17  1  0  0  0  0
 18 16  2  0  0  0  0
 19 20  1  1  0  0  0
 21 19  1  0  0  0  0
 21 22  1  0  0  0  0
 22 23  2  0  0  0  0
 22 27  1  0  0  0  0
 23 28  1  0  0  0  0
 24 23  1  0  0  0  0
 25 24  2  0  0  0  0
 26 25  1  0  0  0  0
 26 21  2  0  0  0  0
 29 24  1  0  0  0  0
 30 25  1  0  0  0  0
 31 32  1  0  0  0  0
 31 19  1  0  0  0  0
 32 35  1  0  0  0  0
 33 32  1  0  0  0  0
 34 32  1  0  0  0  0
M  END
>  <minimizedAffinity>
-5.38437557

$$$$

 OpenBabel03272502363D

 35 37  0  0  1  0  0  0  0  0999 V2000
   36.1340   27.9420   34.5540 C   0  0  0  0  0  3  0  0  0  0  0  0
   35.8240   28.6640   33.5270 C   0  0  0  0  0  3  0  0  0  0  0  0
   39.3420   26.3550   33.5130 C   0  0  0  0  0  0  0  0  0  0  0  0
   38.2270   27.1740   33.5750 C   0  0  0  0  0  0  0  0  0  0  0  0
   37.2810   27.0590   34.5580 C   0  0  0  0  0  0  0  0  0  0  0  0
   37.4890   26.1010   35.4750 N   0  0  0  0  0  0  0  0  0  0  0  0
   38.5510   25.3070   35.4340 C   0  0  0  0  0  0  0  0  0  0  0  0
   39.4800   25.4200   34.4660 N   0  0  0  0  0  0  0  0  0  0  0  0
   40.1110   26.4060   32.7630 H   0  0  0  0  0  0  0  0  0  0  0  0
   38.2260   27.8800   32.7650 H   0  0  0  0  0  0  0  0  0  0  0  0
   38.7880   24.2540   36.4320 C   0  0  0  0  0  0  0  0  0  0  0  0
   39.5700   23.1140   36.4590 C   0  0  0  0  0  0  0  0  0  0  0  0
   40.1740   22.8590   35.6040 H   0  0  0  0  0  0  0  0  0  0  0  0
   39.3530   22.5680   37.6640 N   0  0  0  0  0  0  0  0  0  0  0  0
   39.8360   21.6740   37.9450 H   0  0  0  0  0  0  0  0  0  0  0  0
   38.4710   23.3320   38.3670 C   0  0  0  0  0  0  0  0  0  0  0  0
   38.1270   23.1090   39.3730 H   0  0  0  0  0  0  0  0  0  0  0  0
   38.1170   24.3830   37.6050 N   0  0  0  0  0  0  0  0  0  0  0  0
   34.6080   29.5370   33.6330 C   0  0  1  0  0  0  0  0  0  0  0  0
   33.7170   28.9080   33.8170 H   0  0  0  0  0  0  0  0  0  0  0  0
   34.8140   30.5460   34.6840 C   0  0  0  0  0  0  0  0  0  0  0  0
   33.6990   30.6840   35.5520 C   0  0  0  0  0  0  0  0  0  0  0  0
   33.6630   31.5650   36.6060 C   0  0  0  0  0  0  0  0  0  0  0  0
   34.7610   32.3980   36.8830 C   0  0  0  0  0  0  0  0  0  0  0  0
   35.8060   32.1990   35.9880 C   0  0  0  0  0  0  0  0  0  0  0  0
   35.8660   31.3500   34.9550 N   0  0  0  0  0  0  0  0  0  0  0  0
   32.7360   30.1550   35.5480 H   0  0  0  0  0  0  0  0  0  0  0  0
   32.8500   31.7190   37.3020 H   0  0  0  0  0  0  0  0  0  0  0  0
   34.9020   33.1220   37.6430 H   0  0  0  0  0  0  0  0  0  0  0  0
   36.7330   32.7730   36.0690 H   0  0  0  0  0  0  0  0  0  0  0  0
   34.4680   30.4630   32.0660 S   0  0  0  0  0  0  0  0  0  0  0  0
   32.7980   31.0300   31.8020 C   0  0  0  0  0  0  0  0  0  0  0  0
   32.5230   31.3230   30.4760 F   0  0  0  0  0  0  0  0  0  0  0  0
   31.8670   30.1650   32.3350 F   0  0  0  0  0  0  0  0  0  0  0  0
   32.6620   32.2230   32.5420 F   0  0  0  0  0  0  0  0  0  0  0  0
  1  5  1  0  0  0  0
  2 19  1  0  0  0  0
  2  1  2  0  0  0  0
  3  4  2  0  0  0  0
  3  8  1  0  0  0  0
  4  5  1  0  0  0  0
  5  6  2  0  0  0  0
  7  6  1  0  0  0  0
  7 11  1  0  0  0  0
  8  7  2  0  0  0  0
  9  3  1  0  0  0  0
 10  4  1  0  0  0  0
 11 12  2  0  0  0  0
 11 18  1  0  0  0  0
 12 14  1  0  0  0  0
 13 12  1  0  0  0  0
 14 15  1  0  0  0  0
 14 16  1  0  0  0  0
 16 17  1  0  0  0  0
 18 16  2  0  0  0  0
 19 20  1  1  0  0  0
 19 21  1  0  0  0  0
 21 26  2  0  0  0  0
 21 22  1  0  0  0  0
 22 23  2  0  0  0  0
 23 24  1  0  0  0  0
 23 28  1  0  0  0  0
 24 29  1  0  0  0  0
 25 30  1  0  0  0  0
 25 24  2  0  0  0  0
 26 25  1  0  0  0  0
 27 22  1  0  0  0  0
 31 19  1  0  0  0  0
 32 31  1  0  0  0  0
 32 34  1  0  0  0  0
 32 35  1  0  0  0  0
 33 32  1  0  0  0  0
M  END
>  <minimizedAffinity>
-5.38389683

$$$$

 OpenBabel03272502363D

 35 37  0  0  1  0  0  0  0  0999 V2000
   36.3570   29.0090   34.9700 C   0  0  0  0  0  3  0  0  0  0  0  0
   35.7040   29.6460   34.0540 C   0  0  0  0  0  3  0  0  0  0  0  0
   38.8510   26.2660   35.3640 C   0  0  0  0  0  0  0  0  0  0  0  0
   38.0670   27.3870   35.5830 C   0  0  0  0  0  0  0  0  0  0  0  0
   37.1330   27.8200   34.6800 C   0  0  0  0  0  0  0  0  0  0  0  0
   37.0090   27.0970   33.5570 N   0  0  0  0  0  0  0  0  0  0  0  0
   37.7490   26.0190   33.3290 C   0  0  0  0  0  0  0  0  0  0  0  0
   38.6680   25.5950   34.2170 N   0  0  0  0  0  0  0  0  0  0  0  0
   39.5960   25.8850   36.0400 H   0  0  0  0  0  0  0  0  0  0  0  0
   38.3010   27.8370   36.5290 H   0  0  0  0  0  0  0  0  0  0  0  0
   37.6230   25.2200   32.1030 C   0  0  0  0  0  0  0  0  0  0  0  0
   38.2450   25.2480   30.8680 C   0  0  0  0  0  0  0  0  0  0  0  0
   39.0050   25.9850   30.6700 H   0  0  0  0  0  0  0  0  0  0  0  0
   37.6850   24.2490   30.1700 N   0  0  0  0  0  0  0  0  0  0  0  0
   37.9860   24.0500   29.1800 H   0  0  0  0  0  0  0  0  0  0  0  0
   36.7490   23.6180   30.9330 C   0  0  0  0  0  0  0  0  0  0  0  0
   36.1510   22.7740   30.6020 H   0  0  0  0  0  0  0  0  0  0  0  0
   36.7070   24.2180   32.1360 N   0  0  0  0  0  0  0  0  0  0  0  0
   34.9280   30.8610   34.4720 C   0  0  1  0  0  0  0  0  0  0  0  0
   34.7200   31.4880   33.5860 H   0  0  0  0  0  0  0  0  0  0  0  0
   33.7020   30.4470   35.1730 C   0  0  0  0  0  0  0  0  0  0  0  0
   33.4520   31.2000   36.3510 C   0  0  0  0  0  0  0  0  0  0  0  0
   32.3670   30.9920   37.1680 C   0  0  0  0  0  0  0  0  0  0  0  0
   31.4240   29.9940   36.8670 C   0  0  0  0  0  0  0  0  0  0  0  0
   31.7430   29.3070   35.7020 C   0  0  0  0  0  0  0  0  0  0  0  0
   32.7920   29.4890   34.8900 N   0  0  0  0  0  0  0  0  0  0  0  0
   34.0300   32.0230   36.7950 H   0  0  0  0  0  0  0  0  0  0  0  0
   32.1190   31.5260   38.0750 H   0  0  0  0  0  0  0  0  0  0  0  0
   30.5430   29.7020   37.3780 H   0  0  0  0  0  0  0  0  0  0  0  0
   31.1070   28.4990   35.3330 H   0  0  0  0  0  0  0  0  0  0  0  0
   35.9380   31.7500   35.7060 S   0  0  0  0  0  0  0  0  0  0  0  0
   36.5910   33.2650   35.0290 C   0  0  0  0  0  0  0  0  0  0  0  0
   35.6920   34.3180   35.0800 F   0  0  0  0  0  0  0  0  0  0  0  0
   37.8030   33.6040   35.5910 F   0  0  0  0  0  0  0  0  0  0  0  0
   36.8710   33.0040   33.6720 F   0  0  0  0  0  0  0  0  0  0  0  0
  2 19  1  0  0  0  0
  2  1  2  0  0  0  0
  3  4  1  0  0  0  0
  3  9  1  0  0  0  0
  4 10  1  0  0  0  0
  5  1  1  0  0  0  0
  5  4  2  0  0  0  0
  6  5  1  0  0  0  0
  7  6  2  0  0  0  0
  7  8  1  0  0  0  0
  8  3  2  0  0  0  0
 11 18  1  0  0  0  0
 11  7  1  0  0  0  0
 12 11  2  0  0  0  0
 13 12  1  0  0  0  0
 14 12  1  0  0  0  0
 14 16  1  0  0  0  0
 15 14  1  0  0  0  0
 16 18  2  0  0  0  0
 17 16  1  0  0  0  0
 19 20  1  6  0  0  0
 19 21  1  0  0  0  0
 19 31  1  0  0  0  0
 21 22  1  0  0  0  0
 22 27  1  0  0  0  0
 22 23  2  0  0  0  0
 23 28  1  0  0  0  0
 24 23  1  0  0  0  0
 24 29  1  0  0  0  0
 25 24  2  0  0  0  0
 26 21  2  0  0  0  0
 26 25  1  0  0  0  0
 30 25  1  0  0  0  0
 32 33  1  0  0  0  0
 32 34  1  0  0  0  0
 32 31  1  0  0  0  0
 35 32  1  0  0  0  0
M  END
>  <minimizedAffinity>
-5.3720665

$$$$

 OpenBabel03272502363D

 35 37  0  0  1  0  0  0  0  0999 V2000
   37.9310   25.9530   34.0130 C   0  0  0  0  0  3  0  0  0  0  0  0
   37.7430   27.0070   33.2880 C   0  0  0  0  0  3  0  0  0  0  0  0
   41.6350   25.9220   34.4350 C   0  0  0  0  0  0  0  0  0  0  0  0
   40.3450   26.2670   34.0630 C   0  0  0  0  0  0  0  0  0  0  0  0
   39.2490   25.5410   34.4480 C   0  0  0  0  0  0  0  0  0  0  0  0
   39.4860   24.4660   35.2140 N   0  0  0  0  0  0  0  0  0  0  0  0
   40.7130   24.1190   35.5810 C   0  0  0  0  0  0  0  0  0  0  0  0
   41.7900   24.8330   35.2020 N   0  0  0  0  0  0  0  0  0  0  0  0
   42.5260   26.4580   34.1600 H   0  0  0  0  0  0  0  0  0  0  0  0
   40.3460   27.1520   33.4550 H   0  0  0  0  0  0  0  0  0  0  0  0
   40.9850   22.9430   36.4200 C   0  0  0  0  0  0  0  0  0  0  0  0
   40.3610   22.3810   37.5180 C   0  0  0  0  0  0  0  0  0  0  0  0
   39.4710   22.8370   37.9190 H   0  0  0  0  0  0  0  0  0  0  0  0
   41.0990   21.3050   37.8280 N   0  0  0  0  0  0  0  0  0  0  0  0
   40.8360   20.6890   38.6420 H   0  0  0  0  0  0  0  0  0  0  0  0
   42.1440   21.1950   36.9620 C   0  0  0  0  0  0  0  0  0  0  0  0
   42.8930   20.4080   36.9960 H   0  0  0  0  0  0  0  0  0  0  0  0
   42.0770   22.2110   36.0830 N   0  0  0  0  0  0  0  0  0  0  0  0
   36.3320   27.3320   32.8890 C   0  0  1  0  0  0  0  0  0  0  0  0
   35.6290   26.7710   33.5310 H   0  0  0  0  0  0  0  0  0  0  0  0
   36.1230   28.7870   32.9580 C   0  0  0  0  0  0  0  0  0  0  0  0
   35.8030   29.2440   34.2630 C   0  0  0  0  0  0  0  0  0  0  0  0
   35.5640   30.5620   34.5690 C   0  0  0  0  0  0  0  0  0  0  0  0
   35.6270   31.5520   33.5720 C   0  0  0  0  0  0  0  0  0  0  0  0
   35.9450   31.0210   32.3280 C   0  0  0  0  0  0  0  0  0  0  0  0
   36.1810   29.7430   32.0040 N   0  0  0  0  0  0  0  0  0  0  0  0
   35.6960   28.6780   35.1990 H   0  0  0  0  0  0  0  0  0  0  0  0
   35.3160   30.9750   35.5370 H   0  0  0  0  0  0  0  0  0  0  0  0
   35.4750   32.5980   33.6300 H   0  0  0  0  0  0  0  0  0  0  0  0
   36.0320   31.6630   31.4470 H   0  0  0  0  0  0  0  0  0  0  0  0
   36.1490   26.8790   31.1300 S   0  0  0  0  0  0  0  0  0  0  0  0
   35.8280   25.1350   30.9470 C   0  0  0  0  0  0  0  0  0  0  0  0
   36.8340   24.4610   30.2740 F   0  0  0  0  0  0  0  0  0  0  0  0
   35.5300   24.5330   32.1510 F   0  0  0  0  0  0  0  0  0  0  0  0
   34.6500   25.0270   30.1780 F   0  0  0  0  0  0  0  0  0  0  0  0
  1  5  1  0  0  0  0
  2  1  2  0  0  0  0
  3  8  1  0  0  0  0
  4  3  2  0  0  0  0
  4  5  1  0  0  0  0
  5  6  2  0  0  0  0
  6  7  1  0  0  0  0
  7 11  1  0  0  0  0
  8  7  2  0  0  0  0
  9  3  1  0  0  0  0
 10  4  1  0  0  0  0
 11 12  2  0  0  0  0
 12 14  1  0  0  0  0
 12 13  1  0  0  0  0
 14 15  1  0  0  0  0
 16 17  1  0  0  0  0
 16 14  1  0  0  0  0
 18 11  1  0  0  0  0
 18 16  2  0  0  0  0
 19 21  1  0  0  0  0
 19  2  1  0  0  0  0
 19 20  1  1  0  0  0
 21 22  1  0  0  0  0
 22 23  2  0  0  0  0
 22 27  1  0  0  0  0
 23 28  1  0  0  0  0
 24 29  1  0  0  0  0
 24 23  1  0  0  0  0
 25 24  2  0  0  0  0
 26 25  1  0  0  0  0
 26 21  2  0  0  0  0
 30 25  1  0  0  0  0
 31 19  1  0  0  0  0
 32 31  1  0  0  0  0
 32 34  1  0  0  0  0
 33 32  1  0  0  0  0
 35 32  1  0  0  0  0
M  END
>  <minimizedAffinity>
-5.37140608

$$$$
