
 OpenBabel03262521403D

 42 46  0  0  0  0  0  0  0  0999 V2000
   38.3780   31.4530   46.7570 C   0  0  0  0  0  0  0  0  0  0  0  0
   38.7430   31.4310   45.4370 N   0  0  0  0  0  0  0  0  0  0  0  0
   39.5690   32.3930   44.9560 C   0  0  0  0  0  0  0  0  0  0  0  0
   40.0600   33.3850   45.7080 N   0  0  0  0  0  0  0  0  0  0  0  0
   39.7350   33.4550   47.0080 C   0  0  0  0  0  0  0  0  0  0  0  0
   40.2250   34.4830   47.7770 C   0  0  0  0  0  0  0  0  0  0  0  0
   39.8790   34.5730   49.1220 C   0  0  0  0  0  0  0  0  0  0  0  0
   39.0350   33.6060   49.6670 C   0  0  0  0  0  0  0  0  0  0  0  0
   38.5640   32.5760   48.8430 C   0  0  0  0  0  0  0  0  0  0  0  0
   38.8910   32.4800   47.5280 C   0  0  0  0  0  0  0  0  0  0  0  0
   39.8680   32.3940   43.9220 H   0  0  0  0  0  0  0  0  0  0  0  0
   40.8700   35.1940   47.3010 H   0  0  0  0  0  0  0  0  0  0  0  0
   40.3130   35.4160   49.6410 H   0  0  0  0  0  0  0  0  0  0  0  0
   38.8650   33.8120   50.7030 H   0  0  0  0  0  0  0  0  0  0  0  0
   37.7450   31.7200   49.6840 C   0  0  0  0  0  0  0  0  0  0  0  0
   36.3700   31.5460   49.8340 C   0  0  0  0  0  0  0  0  0  0  0  0
   35.6180   32.1520   49.3040 H   0  0  0  0  0  0  0  0  0  0  0  0
   36.0410   30.5490   50.6670 N   0  0  0  0  0  0  0  0  0  0  0  0
   35.0640   30.2720   50.9030 H   0  0  0  0  0  0  0  0  0  0  0  0
   37.2190   30.0560   51.0760 C   0  0  0  0  0  0  0  0  0  0  0  0
   37.3120   29.2270   51.7680 H   0  0  0  0  0  0  0  0  0  0  0  0
   38.1970   30.7370   50.5040 N   0  0  0  0  0  0  0  0  0  0  0  0
   37.2890   30.3130   47.5300 S   0  0  0  0  0  0  0  0  0  0  0  0
   34.9430   28.7740   48.3680 F   0  0  0  0  0  0  0  0  0  0  0  0
   34.8290   29.1900   47.0610 C   0  0  0  0  0  0  0  0  0  0  0  0
   33.7140   28.8750   46.3110 C   0  0  0  0  0  0  0  0  0  0  0  0
   33.6430   29.3170   44.9850 C   0  0  0  0  0  0  0  0  0  0  0  0
   34.6760   30.0620   44.4240 C   0  0  0  0  0  0  0  0  0  0  0  0
   35.7640   30.3410   45.2350 C   0  0  0  0  0  0  0  0  0  0  0  0
   35.8600   29.9210   46.5390 C   0  0  0  0  0  0  0  0  0  0  0  0
   32.7520   29.0460   44.4390 H   0  0  0  0  0  0  0  0  0  0  0  0
   34.5890   30.3870   43.3970 H   0  0  0  0  0  0  0  0  0  0  0  0
   36.5270   30.9240   44.7390 H   0  0  0  0  0  0  0  0  0  0  0  0
   33.0270   26.8010   47.2330 C   0  0  0  0  0  0  0  0  0  0  0  0
   32.6970   28.1110   46.9500 C   0  0  0  0  0  0  0  0  0  0  0  0
   31.4130   28.5450   47.3190 C   0  0  0  0  0  0  0  0  0  0  0  0
   30.5750   27.6580   47.9280 N   0  0  0  0  0  0  0  0  0  0  0  0
   30.9330   26.4120   48.1790 C   0  0  0  0  0  0  0  0  0  0  0  0
   32.1460   25.9690   47.8420 N   0  0  0  0  0  0  0  0  0  0  0  0
   33.9720   26.2990   47.0200 H   0  0  0  0  0  0  0  0  0  0  0  0
   31.1970   29.5670   47.0830 H   0  0  0  0  0  0  0  0  0  0  0  0
   30.1850   25.7970   48.6680 H   0  0  0  0  0  0  0  0  0  0  0  0
  1 10  1  0  0  0  0
  1 23  1  0  0  0  0
  2  1  2  0  0  0  0
  3  2  1  0  0  0  0
  3  4  2  0  0  0  0
  4  5  1  0  0  0  0
  5 10  2  0  0  0  0
  5  6  1  0  0  0  0
  6  7  2  0  0  0  0
  7 13  1  0  0  0  0
  7  8  1  0  0  0  0
  8 14  1  0  0  0  0
  9  8  2  0  0  0  0
  9 15  1  0  0  0  0
 10  9  1  0  0  0  0
 11  3  1  0  0  0  0
 12  6  1  0  0  0  0
 15 16  2  0  0  0  0
 15 22  1  0  0  0  0
 16 18  1  0  0  0  0
 17 16  1  0  0  0  0
 18 19  1  0  0  0  0
 18 20  1  0  0  0  0
 20 21  1  0  0  0  0
 22 20  2  0  0  0  0
 25 24  1  0  0  0  0
 26 35  1  0  0  0  0
 26 25  2  0  0  0  0
 27 26  1  0  0  0  0
 28 27  2  0  0  0  0
 28 29  1  0  0  0  0
 29 30  2  0  0  0  0
 30 25  1  0  0  0  0
 30 23  1  0  0  0  0
 31 27  1  0  0  0  0
 32 28  1  0  0  0  0
 33 29  1  0  0  0  0
 34 39  1  0  0  0  0
 35 34  2  0  0  0  0
 35 36  1  0  0  0  0
 36 37  2  0  0  0  0
 37 38  1  0  0  0  0
 38 42  1  0  0  0  0
 39 38  2  0  0  0  0
 40 34  1  0  0  0  0
 41 36  1  0  0  0  0
M  END
>  <minimizedAffinity>
-6.19146395

>  <minimizedRMSD>
1.10449195

$$$$
