
 OpenBabel03272509573D

 45 48  0  0  0  0  0  0  0  0999 V2000
   34.5260   28.4970   48.2720 C   0  0  0  0  0  0  0  0  0  0  0  0
   35.5030   28.3170   47.7550 H   0  0  0  0  0  0  0  0  0  0  0  0
   34.1880   29.4780   47.9380 H   0  0  0  0  0  0  0  0  0  0  0  0
   33.5660   27.3920   47.9510 C   0  0  0  0  0  0  0  0  0  0  0  0
   33.4400   26.7080   48.8080 H   0  0  0  0  0  0  0  0  0  0  0  0
   33.9690   26.8190   47.0820 H   0  0  0  0  0  0  0  0  0  0  0  0
   32.2310   27.9010   47.5250 C   0  0  0  0  0  0  0  0  0  0  0  0
   31.1750   27.7570   48.4060 C   0  0  0  0  0  0  0  0  0  0  0  0
   29.9040   28.1930   48.1060 C   0  0  0  0  0  0  0  0  0  0  0  0
   29.6850   28.7750   46.9210 N   0  0  0  0  0  0  0  0  0  0  0  0
   30.7420   28.9080   46.0640 C   0  0  0  0  0  0  0  0  0  0  0  0
   31.9840   28.4910   46.3340 N   0  0  0  0  0  0  0  0  0  0  0  0
   31.2850   27.2910   49.3910 H   0  0  0  0  0  0  0  0  0  0  0  0
   29.0860   28.0840   48.7860 H   0  0  0  0  0  0  0  0  0  0  0  0
   30.4240   29.5650   44.7630 C   0  0  0  0  0  0  0  0  0  0  0  0
   31.0520   29.0430   43.9990 H   0  0  0  0  0  0  0  0  0  0  0  0
   29.3800   29.3190   44.4700 H   0  0  0  0  0  0  0  0  0  0  0  0
   30.6670   31.0230   44.7790 C   0  0  0  0  0  0  0  0  0  0  0  0
   29.7210   31.9670   44.4330 C   0  0  0  0  0  0  0  0  0  0  0  0
   28.6930   31.8730   44.1030 H   0  0  0  0  0  0  0  0  0  0  0  0
   30.2390   33.1990   44.5490 N   0  0  0  0  0  0  0  0  0  0  0  0
   29.8570   34.1570   44.3840 H   0  0  0  0  0  0  0  0  0  0  0  0
   31.5280   33.0550   44.9730 C   0  0  0  0  0  0  0  0  0  0  0  0
   32.2680   33.8390   45.1790 H   0  0  0  0  0  0  0  0  0  0  0  0
   31.7550   31.7150   45.1040 N   0  0  0  0  0  0  0  0  0  0  0  0
   34.8390   28.4920   49.6660 O   0  0  0  0  0  0  0  0  0  0  0  0
   37.3860   30.1690   51.6050 C   0  0  0  0  0  0  0  0  0  0  0  0
   38.0950   30.8220   50.5760 C   0  0  0  0  0  0  0  0  0  0  0  0
   37.6510   30.6450   49.2650 C   0  0  0  0  0  0  0  0  0  0  0  0
   36.5560   29.8430   49.1090 N   0  0  0  0  0  0  0  0  0  0  0  0
   35.8960   29.2320   50.1020 C   0  0  0  0  0  0  0  0  0  0  0  0
   36.3300   29.4070   51.3630 N   0  0  0  0  0  0  0  0  0  0  0  0
   37.7760   30.3430   52.6020 H   0  0  0  0  0  0  0  0  0  0  0  0
   38.9460   31.4450   50.6900 H   0  0  0  0  0  0  0  0  0  0  0  0
   38.9870   33.1970   49.0150 F   0  0  0  0  0  0  0  0  0  0  0  0
   38.8740   32.4090   47.9490 C   0  0  0  0  0  0  0  0  0  0  0  0
   38.2480   31.2290   48.0940 C   0  0  0  0  0  0  0  0  0  0  0  0
   38.1860   30.4850   46.9150 C   0  0  0  0  0  0  0  0  0  0  0  0
   38.7090   30.9110   45.7210 C   0  0  0  0  0  0  0  0  0  0  0  0
   39.3410   32.1340   45.6310 C   0  0  0  0  0  0  0  0  0  0  0  0
   39.4130   32.8800   46.7780 C   0  0  0  0  0  0  0  0  0  0  0  0
   37.6980   29.4990   46.9010 H   0  0  0  0  0  0  0  0  0  0  0  0
   38.6370   30.2990   44.8310 H   0  0  0  0  0  0  0  0  0  0  0  0
   39.7560   32.4810   44.7000 H   0  0  0  0  0  0  0  0  0  0  0  0
   39.9090   33.8440   46.7170 H   0  0  0  0  0  0  0  0  0  0  0  0
  1 26  1  0  0  0  0
  2  1  1  0  0  0  0
  3  1  1  0  0  0  0
  4  1  1  0  0  0  0
  4  5  1  0  0  0  0
  6  4  1  0  0  0  0
  7  4  1  0  0  0  0
  7  8  1  0  0  0  0
  8 13  1  0  0  0  0
  9  8  2  0  0  0  0
  9 14  1  0  0  0  0
 10  9  1  0  0  0  0
 11 12  1  0  0  0  0
 11 10  2  0  0  0  0
 12  7  2  0  0  0  0
 15 18  1  0  0  0  0
 15 11  1  0  0  0  0
 16 15  1  0  0  0  0
 17 15  1  0  0  0  0
 18 25  1  0  0  0  0
 19 21  1  0  0  0  0
 19 18  2  0  0  0  0
 20 19  1  0  0  0  0
 21 23  1  0  0  0  0
 22 21  1  0  0  0  0
 23 25  2  0  0  0  0
 23 24  1  0  0  0  0
 26 31  1  0  0  0  0
 27 33  1  0  0  0  0
 28 34  1  0  0  0  0
 28 27  2  0  0  0  0
 29 28  1  0  0  0  0
 30 29  2  0  0  0  0
 30 31  1  0  0  0  0
 31 32  2  0  0  0  0
 32 27  1  0  0  0  0
 36 37  1  0  0  0  0
 36 35  1  0  0  0  0
 37 29  1  0  0  0  0
 38 37  2  0  0  0  0
 39 38  1  0  0  0  0
 40 39  2  0  0  0  0
 40 41  1  0  0  0  0
 41 36  2  0  0  0  0
 42 38  1  0  0  0  0
 43 39  1  0  0  0  0
 44 40  1  0  0  0  0
 45 41  1  0  0  0  0
M  END
>  <minimizedAffinity>
-6.4671216

>  <minimizedRMSD>
1.05941832

$$$$
