
 OpenBabel03262523463D

 37 40  0  0  0  0  0  0  0  0999 V2000
   38.6660   32.9470   49.7720 Cl  0  0  0  0  0  0  0  0  0  0  0  0
   38.6380   32.2790   48.1510 C   0  0  0  0  0  0  0  0  0  0  0  0
   37.8880   31.1540   47.8670 C   0  0  0  0  0  0  0  0  0  0  0  0
   37.9120   30.6850   46.5770 C   0  0  0  0  0  0  0  0  0  0  0  0
   38.6390   31.2830   45.5850 C   0  0  0  0  0  0  0  0  0  0  0  0
   39.3890   32.4230   45.9060 C   0  0  0  0  0  0  0  0  0  0  0  0
   40.3000   33.1550   44.6150 Cl  0  0  0  0  0  0  0  0  0  0  0  0
   39.3930   32.9260   47.1880 C   0  0  0  0  0  0  0  0  0  0  0  0
   37.3100   29.8030   46.4040 H   0  0  0  0  0  0  0  0  0  0  0  0
   39.9830   33.8030   47.3870 H   0  0  0  0  0  0  0  0  0  0  0  0
   36.8790   32.5920   43.4840 Cl  0  0  0  0  0  0  0  0  0  0  0  0
   37.8370   31.1230   43.1850 C   0  0  0  0  0  0  0  0  0  0  0  0
   38.5730   30.6780   44.2570 C   0  0  0  0  0  0  0  0  0  0  0  0
   39.3510   29.5380   44.1210 C   0  0  0  0  0  0  0  0  0  0  0  0
   39.3920   28.8460   42.9090 C   0  0  0  0  0  0  0  0  0  0  0  0
   38.6410   29.3300   41.8670 C   0  0  0  0  0  0  0  0  0  0  0  0
   37.8490   30.4750   41.9810 C   0  0  0  0  0  0  0  0  0  0  0  0
   39.9530   29.1280   44.9110 H   0  0  0  0  0  0  0  0  0  0  0  0
   39.9930   27.9510   42.7700 H   0  0  0  0  0  0  0  0  0  0  0  0
   38.6190   28.8450   40.8890 H   0  0  0  0  0  0  0  0  0  0  0  0
   37.0410   31.0100   40.8920 C   0  0  0  0  0  0  0  0  0  0  0  0
   37.5730   31.8850   39.9400 C   0  0  0  0  0  0  0  0  0  0  0  0
   38.5500   32.3110   39.7980 H   0  0  0  0  0  0  0  0  0  0  0  0
   36.5160   32.1400   39.1200 N   0  0  0  0  0  0  0  0  0  0  0  0
   36.5760   32.7800   38.2780 H   0  0  0  0  0  0  0  0  0  0  0  0
   35.4100   31.4720   39.5350 C   0  0  0  0  0  0  0  0  0  0  0  0
   34.4510   31.5210   39.0390 H   0  0  0  0  0  0  0  0  0  0  0  0
   35.7430   30.7730   40.6340 N   0  0  0  0  0  0  0  0  0  0  0  0
   37.0230   29.3680   51.0870 C   0  0  0  0  0  0  0  0  0  0  0  0
   37.7840   29.9260   50.0430 C   0  0  0  0  0  0  0  0  0  0  0  0
   37.1270   30.5570   48.9800 C   0  0  0  0  0  0  0  0  0  0  0  0
   35.7660   30.6030   49.0000 N   0  0  0  0  0  0  0  0  0  0  0  0
   35.0830   30.0460   50.0330 C   0  0  0  0  0  0  0  0  0  0  0  0
   35.6940   29.4430   51.0530 N   0  0  0  0  0  0  0  0  0  0  0  0
   37.5840   28.8940   51.8810 H   0  0  0  0  0  0  0  0  0  0  0  0
   38.8640   29.8950   50.0180 H   0  0  0  0  0  0  0  0  0  0  0  0
   34.0040   30.1220   49.9790 H   0  0  0  0  0  0  0  0  0  0  0  0
  2  1  1  0  0  0  0
  3  2  1  0  0  0  0
  3 31  1  0  0  0  0
  4  3  2  0  0  0  0
  5  6  2  0  0  0  0
  5  4  1  0  0  0  0
  6  8  1  0  0  0  0
  7  6  1  0  0  0  0
  8 10  1  0  0  0  0
  8  2  2  0  0  0  0
  9  4  1  0  0  0  0
 12 11  1  0  0  0  0
 12 13  1  0  0  0  0
 13  5  1  0  0  0  0
 14 13  2  0  0  0  0
 14 18  1  0  0  0  0
 15 14  1  0  0  0  0
 16 17  1  0  0  0  0
 16 15  2  0  0  0  0
 17 12  2  0  0  0  0
 19 15  1  0  0  0  0
 20 16  1  0  0  0  0
 21 17  1  0  0  0  0
 22 21  2  0  0  0  0
 23 22  1  0  0  0  0
 24 26  1  0  0  0  0
 24 22  1  0  0  0  0
 25 24  1  0  0  0  0
 26 28  2  0  0  0  0
 27 26  1  0  0  0  0
 28 21  1  0  0  0  0
 29 35  1  0  0  0  0
 30 29  2  0  0  0  0
 31 32  2  0  0  0  0
 31 30  1  0  0  0  0
 32 33  1  0  0  0  0
 33 34  2  0  0  0  0
 34 29  1  0  0  0  0
 36 30  1  0  0  0  0
 37 33  1  0  0  0  0
M  END
>  <minimizedAffinity>
-6.35963726

>  <minimizedRMSD>
0.115561895

$$$$
