
 OpenBabel03272509573D

 45 48  0  0  0  0  0  0  0  0999 V2000
   33.5160   28.1030   47.6610 C   0  0  0  0  0  0  0  0  0  0  0  0
   34.6030   27.8550   47.7670 H   0  0  0  0  0  0  0  0  0  0  0  0
   33.1380   27.4560   46.8690 H   0  0  0  0  0  0  0  0  0  0  0  0
   32.8180   27.9130   48.9730 C   0  0  0  0  0  0  0  0  0  0  0  0
   32.9520   28.7890   49.6310 H   0  0  0  0  0  0  0  0  0  0  0  0
   33.2490   27.0120   49.4720 H   0  0  0  0  0  0  0  0  0  0  0  0
   31.3620   27.6350   48.8110 C   0  0  0  0  0  0  0  0  0  0  0  0
   30.9580   26.9460   47.6820 C   0  0  0  0  0  0  0  0  0  0  0  0
   29.6370   26.6420   47.4410 C   0  0  0  0  0  0  0  0  0  0  0  0
   28.7140   27.0270   48.3310 N   0  0  0  0  0  0  0  0  0  0  0  0
   29.1330   27.7070   49.4400 C   0  0  0  0  0  0  0  0  0  0  0  0
   30.4110   28.0140   49.6940 N   0  0  0  0  0  0  0  0  0  0  0  0
   31.6610   26.6020   46.9160 H   0  0  0  0  0  0  0  0  0  0  0  0
   29.3220   26.1090   46.5690 H   0  0  0  0  0  0  0  0  0  0  0  0
   28.0510   28.1030   50.3870 C   0  0  0  0  0  0  0  0  0  0  0  0
   27.6110   27.1450   50.7610 H   0  0  0  0  0  0  0  0  0  0  0  0
   28.5010   28.5660   51.2910 H   0  0  0  0  0  0  0  0  0  0  0  0
   27.0320   28.9750   49.7650 C   0  0  0  0  0  0  0  0  0  0  0  0
   25.6920   28.6550   49.6810 C   0  0  0  0  0  0  0  0  0  0  0  0
   25.1320   27.7880   50.0130 H   0  0  0  0  0  0  0  0  0  0  0  0
   25.0230   29.6420   49.0640 N   0  0  0  0  0  0  0  0  0  0  0  0
   24.0200   29.7790   48.8110 H   0  0  0  0  0  0  0  0  0  0  0  0
   25.9340   30.6070   48.7450 C   0  0  0  0  0  0  0  0  0  0  0  0
   25.7610   31.5630   48.2350 H   0  0  0  0  0  0  0  0  0  0  0  0
   27.1490   30.1680   49.1870 N   0  0  0  0  0  0  0  0  0  0  0  0
   33.4860   29.4800   47.2790 O   0  0  0  0  0  0  0  0  0  0  0  0
   34.0670   30.3240   43.8140 C   0  0  0  0  0  0  0  0  0  0  0  0
   35.4520   30.5870   43.8490 C   0  0  0  0  0  0  0  0  0  0  0  0
   36.1090   30.4570   45.0730 C   0  0  0  0  0  0  0  0  0  0  0  0
   35.3310   30.0820   46.1310 N   0  0  0  0  0  0  0  0  0  0  0  0
   34.0150   29.8360   46.0760 C   0  0  0  0  0  0  0  0  0  0  0  0
   33.3880   29.9630   44.8930 N   0  0  0  0  0  0  0  0  0  0  0  0
   33.6100   30.4400   42.8370 H   0  0  0  0  0  0  0  0  0  0  0  0
   36.0620   30.8780   43.0310 H   0  0  0  0  0  0  0  0  0  0  0  0
   38.3550   29.4530   43.5540 F   0  0  0  0  0  0  0  0  0  0  0  0
   38.5740   30.2320   44.6090 C   0  0  0  0  0  0  0  0  0  0  0  0
   37.5110   30.6840   45.2970 C   0  0  0  0  0  0  0  0  0  0  0  0
   37.8550   31.4910   46.3820 C   0  0  0  0  0  0  0  0  0  0  0  0
   39.1480   31.7960   46.7210 C   0  0  0  0  0  0  0  0  0  0  0  0
   40.2010   31.3020   45.9790 C   0  0  0  0  0  0  0  0  0  0  0  0
   39.8850   30.5080   44.9070 C   0  0  0  0  0  0  0  0  0  0  0  0
   37.0760   31.9240   47.0270 H   0  0  0  0  0  0  0  0  0  0  0  0
   39.3670   32.4270   47.5730 H   0  0  0  0  0  0  0  0  0  0  0  0
   41.2210   31.5340   46.2330 H   0  0  0  0  0  0  0  0  0  0  0  0
   40.7070   30.1160   44.3160 H   0  0  0  0  0  0  0  0  0  0  0  0
  1  2  1  0  0  0  0
  1  4  1  0  0  0  0
  3  1  1  0  0  0  0
  4  6  1  0  0  0  0
  4  5  1  0  0  0  0
  7  4  1  0  0  0  0
  7 12  1  0  0  0  0
  8  7  2  0  0  0  0
  9  8  1  0  0  0  0
  9 10  2  0  0  0  0
 10 11  1  0  0  0  0
 11 12  2  0  0  0  0
 11 15  1  0  0  0  0
 13  8  1  0  0  0  0
 14  9  1  0  0  0  0
 15 16  1  0  0  0  0
 15 17  1  0  0  0  0
 18 15  1  0  0  0  0
 19 18  2  0  0  0  0
 19 20  1  0  0  0  0
 21 19  1  0  0  0  0
 22 21  1  0  0  0  0
 23 21  1  0  0  0  0
 23 25  2  0  0  0  0
 24 23  1  0  0  0  0
 25 18  1  0  0  0  0
 26  1  1  0  0  0  0
 27 28  2  0  0  0  0
 27 32  1  0  0  0  0
 28 29  1  0  0  0  0
 29 37  1  0  0  0  0
 29 30  2  0  0  0  0
 31 30  1  0  0  0  0
 31 26  1  0  0  0  0
 32 31  2  0  0  0  0
 33 27  1  0  0  0  0
 34 28  1  0  0  0  0
 35 36  1  0  0  0  0
 36 41  2  0  0  0  0
 36 37  1  0  0  0  0
 37 38  2  0  0  0  0
 38 39  1  0  0  0  0
 38 42  1  0  0  0  0
 39 43  1  0  0  0  0
 40 44  1  0  0  0  0
 40 39  2  0  0  0  0
 41 40  1  0  0  0  0
 45 41  1  0  0  0  0
M  END
>  <minimizedAffinity>
-5.6572094

>  <minimizedRMSD>
4.31704378

$$$$
