
 OpenBabel03272509523D

 42 45  0  0  0  0  0  0  0  0999 V2000
   34.4460   28.6530   48.1320 C   0  0  0  0  0  0  0  0  0  0  0  0
   33.8540   29.5980   48.1400 H   0  0  0  0  0  0  0  0  0  0  0  0
   35.2640   28.7970   47.3790 H   0  0  0  0  0  0  0  0  0  0  0  0
   33.5680   27.5330   47.6670 C   0  0  0  0  0  0  0  0  0  0  0  0
   33.7570   26.6290   48.2420 H   0  0  0  0  0  0  0  0  0  0  0  0
   33.7790   27.2830   46.5930 H   0  0  0  0  0  0  0  0  0  0  0  0
   32.1200   27.8810   47.7260 C   0  0  0  0  0  0  0  0  0  0  0  0
   31.3680   27.3800   48.7810 C   0  0  0  0  0  0  0  0  0  0  0  0
   30.0310   27.6460   48.9180 C   0  0  0  0  0  0  0  0  0  0  0  0
   29.4300   28.4080   48.0150 N   0  0  0  0  0  0  0  0  0  0  0  0
   30.1720   28.9060   46.9690 C   0  0  0  0  0  0  0  0  0  0  0  0
   31.4850   28.6550   46.8180 N   0  0  0  0  0  0  0  0  0  0  0  0
   31.8440   26.7550   49.5290 H   0  0  0  0  0  0  0  0  0  0  0  0
   29.4920   27.2310   49.7590 H   0  0  0  0  0  0  0  0  0  0  0  0
   29.4900   29.7450   45.9820 C   0  0  0  0  0  0  0  0  0  0  0  0
   28.0920   29.7590   45.9290 C   0  0  0  0  0  0  0  0  0  0  0  0
   27.3860   29.2110   46.5440 H   0  0  0  0  0  0  0  0  0  0  0  0
   27.6740   30.6010   44.9460 N   0  0  0  0  0  0  0  0  0  0  0  0
   26.6760   30.8030   44.6860 H   0  0  0  0  0  0  0  0  0  0  0  0
   28.7960   31.1010   44.3970 C   0  0  0  0  0  0  0  0  0  0  0  0
   28.7620   31.7950   43.5940 H   0  0  0  0  0  0  0  0  0  0  0  0
   29.8970   30.5950   45.0110 N   0  0  0  0  0  0  0  0  0  0  0  0
   34.9680   28.3820   49.4250 O   0  0  0  0  0  0  0  0  0  0  0  0
   37.3160   30.1580   51.5070 C   0  0  0  0  0  0  0  0  0  0  0  0
   38.0670   30.8530   50.5150 C   0  0  0  0  0  0  0  0  0  0  0  0
   37.7020   30.6550   49.1920 C   0  0  0  0  0  0  0  0  0  0  0  0
   36.6490   29.8050   48.9600 N   0  0  0  0  0  0  0  0  0  0  0  0
   35.9680   29.1690   49.9170 C   0  0  0  0  0  0  0  0  0  0  0  0
   36.3200   29.3600   51.1980 N   0  0  0  0  0  0  0  0  0  0  0  0
   37.6690   30.3720   52.5000 H   0  0  0  0  0  0  0  0  0  0  0  0
   38.8930   31.5200   50.7090 H   0  0  0  0  0  0  0  0  0  0  0  0
   38.9350   33.2610   49.0080 F   0  0  0  0  0  0  0  0  0  0  0  0
   38.9140   32.4800   47.9430 C   0  0  0  0  0  0  0  0  0  0  0  0
   38.3310   31.2610   48.0550 C   0  0  0  0  0  0  0  0  0  0  0  0
   38.3700   30.5240   46.8620 C   0  0  0  0  0  0  0  0  0  0  0  0
   38.9400   30.9850   45.7020 C   0  0  0  0  0  0  0  0  0  0  0  0
   39.5150   32.2180   45.6440 C   0  0  0  0  0  0  0  0  0  0  0  0
   39.4980   32.9770   46.7960 C   0  0  0  0  0  0  0  0  0  0  0  0
   37.9230   29.5200   46.8420 H   0  0  0  0  0  0  0  0  0  0  0  0
   38.9280   30.3520   44.8270 H   0  0  0  0  0  0  0  0  0  0  0  0
   39.9430   32.5250   44.7150 H   0  0  0  0  0  0  0  0  0  0  0  0
   39.9450   33.9520   46.7710 H   0  0  0  0  0  0  0  0  0  0  0  0
  1  2  1  0  0  0  0
  1 23  1  0  0  0  0
  3  1  1  0  0  0  0
  4  7  1  0  0  0  0
  4  1  1  0  0  0  0
  4  5  1  0  0  0  0
  6  4  1  0  0  0  0
  7  8  1  0  0  0  0
  8  9  2  0  0  0  0
  8 13  1  0  0  0  0
  9 14  1  0  0  0  0
 10  9  1  0  0  0  0
 11 10  2  0  0  0  0
 12 11  1  0  0  0  0
 12  7  2  0  0  0  0
 15 11  1  0  0  0  0
 16 15  2  0  0  0  0
 16 17  1  0  0  0  0
 18 16  1  0  0  0  0
 19 18  1  0  0  0  0
 20 18  1  0  0  0  0
 20 22  2  0  0  0  0
 21 20  1  0  0  0  0
 22 15  1  0  0  0  0
 23 28  1  0  0  0  0
 24 30  1  0  0  0  0
 25 31  1  0  0  0  0
 25 24  2  0  0  0  0
 26 25  1  0  0  0  0
 27 26  2  0  0  0  0
 27 28  1  0  0  0  0
 28 29  2  0  0  0  0
 29 24  1  0  0  0  0
 33 34  1  0  0  0  0
 33 32  1  0  0  0  0
 34 26  1  0  0  0  0
 35 34  2  0  0  0  0
 36 35  1  0  0  0  0
 37 36  2  0  0  0  0
 37 38  1  0  0  0  0
 38 33  2  0  0  0  0
 39 35  1  0  0  0  0
 40 36  1  0  0  0  0
 41 37  1  0  0  0  0
 42 38  1  0  0  0  0
M  END
>  <minimizedAffinity>
-6.50779724

>  <minimizedRMSD>
0.205261454

$$$$
