
 OpenBabel03272509533D

 42 45  0  0  0  0  0  0  0  0999 V2000
   34.4530   28.6440   48.1440 C   0  0  0  0  0  0  0  0  0  0  0  0
   33.8550   29.5860   48.1600 H   0  0  0  0  0  0  0  0  0  0  0  0
   35.2650   28.7970   47.3860 H   0  0  0  0  0  0  0  0  0  0  0  0
   33.5800   27.5210   47.6790 C   0  0  0  0  0  0  0  0  0  0  0  0
   33.7700   26.6180   48.2560 H   0  0  0  0  0  0  0  0  0  0  0  0
   33.7930   27.2690   46.6070 H   0  0  0  0  0  0  0  0  0  0  0  0
   32.1300   27.8640   47.7360 C   0  0  0  0  0  0  0  0  0  0  0  0
   31.3760   27.3520   48.7830 C   0  0  0  0  0  0  0  0  0  0  0  0
   30.0370   27.6140   48.9170 C   0  0  0  0  0  0  0  0  0  0  0  0
   29.4380   28.3810   48.0180 N   0  0  0  0  0  0  0  0  0  0  0  0
   30.1820   28.8900   46.9800 C   0  0  0  0  0  0  0  0  0  0  0  0
   31.4970   28.6440   46.8320 N   0  0  0  0  0  0  0  0  0  0  0  0
   31.8500   26.7220   49.5280 H   0  0  0  0  0  0  0  0  0  0  0  0
   29.4960   27.1900   49.7520 H   0  0  0  0  0  0  0  0  0  0  0  0
   29.5020   29.7350   45.9970 C   0  0  0  0  0  0  0  0  0  0  0  0
   28.1300   29.9770   46.1200 C   0  0  0  0  0  0  0  0  0  0  0  0
   27.4430   29.6140   46.8790 H   0  0  0  0  0  0  0  0  0  0  0  0
   27.7080   30.7820   45.1070 N   0  0  0  0  0  0  0  0  0  0  0  0
   26.7260   31.1230   44.9540 H   0  0  0  0  0  0  0  0  0  0  0  0
   28.8030   31.0350   44.3680 C   0  0  0  0  0  0  0  0  0  0  0  0
   28.7590   31.6480   43.5010 H   0  0  0  0  0  0  0  0  0  0  0  0
   29.8900   30.4120   44.8920 N   0  0  0  0  0  0  0  0  0  0  0  0
   34.9860   28.3710   49.4330 O   0  0  0  0  0  0  0  0  0  0  0  0
   37.3230   30.1650   51.5110 C   0  0  0  0  0  0  0  0  0  0  0  0
   38.0710   30.8610   50.5170 C   0  0  0  0  0  0  0  0  0  0  0  0
   37.7080   30.6570   49.1940 C   0  0  0  0  0  0  0  0  0  0  0  0
   36.6600   29.8010   48.9640 N   0  0  0  0  0  0  0  0  0  0  0  0
   35.9810   29.1640   49.9220 C   0  0  0  0  0  0  0  0  0  0  0  0
   36.3320   29.3600   51.2030 N   0  0  0  0  0  0  0  0  0  0  0  0
   37.6750   30.3830   52.5030 H   0  0  0  0  0  0  0  0  0  0  0  0
   38.8940   31.5320   50.7100 H   0  0  0  0  0  0  0  0  0  0  0  0
   38.9380   33.2650   49.0070 F   0  0  0  0  0  0  0  0  0  0  0  0
   38.9160   32.4820   47.9430 C   0  0  0  0  0  0  0  0  0  0  0  0
   38.3340   31.2640   48.0560 C   0  0  0  0  0  0  0  0  0  0  0  0
   38.3720   30.5260   46.8630 C   0  0  0  0  0  0  0  0  0  0  0  0
   38.9400   30.9870   45.7020 C   0  0  0  0  0  0  0  0  0  0  0  0
   39.5140   32.2200   45.6420 C   0  0  0  0  0  0  0  0  0  0  0  0
   39.4970   32.9800   46.7940 C   0  0  0  0  0  0  0  0  0  0  0  0
   37.9260   29.5220   46.8440 H   0  0  0  0  0  0  0  0  0  0  0  0
   38.9270   30.3540   44.8270 H   0  0  0  0  0  0  0  0  0  0  0  0
   39.9390   32.5280   44.7120 H   0  0  0  0  0  0  0  0  0  0  0  0
   39.9440   33.9550   46.7680 H   0  0  0  0  0  0  0  0  0  0  0  0
  1  2  1  0  0  0  0
  1 23  1  0  0  0  0
  3  1  1  0  0  0  0
  4  7  1  0  0  0  0
  4  1  1  0  0  0  0
  4  5  1  0  0  0  0
  6  4  1  0  0  0  0
  7  8  1  0  0  0  0
  8  9  2  0  0  0  0
  8 13  1  0  0  0  0
  9 14  1  0  0  0  0
 10  9  1  0  0  0  0
 11 10  2  0  0  0  0
 12 11  1  0  0  0  0
 12  7  2  0  0  0  0
 15 16  2  0  0  0  0
 15 11  1  0  0  0  0
 16 17  1  0  0  0  0
 18 16  1  0  0  0  0
 19 18  1  0  0  0  0
 20 22  2  0  0  0  0
 20 18  1  0  0  0  0
 21 20  1  0  0  0  0
 22 15  1  0  0  0  0
 23 28  1  0  0  0  0
 24 30  1  0  0  0  0
 25 31  1  0  0  0  0
 25 24  2  0  0  0  0
 26 25  1  0  0  0  0
 27 26  2  0  0  0  0
 27 28  1  0  0  0  0
 28 29  2  0  0  0  0
 29 24  1  0  0  0  0
 33 34  1  0  0  0  0
 33 32  1  0  0  0  0
 34 26  1  0  0  0  0
 35 34  2  0  0  0  0
 36 35  1  0  0  0  0
 37 36  2  0  0  0  0
 37 38  1  0  0  0  0
 38 33  2  0  0  0  0
 39 35  1  0  0  0  0
 40 36  1  0  0  0  0
 41 37  1  0  0  0  0
 42 38  1  0  0  0  0
M  END
>  <minimizedAffinity>
-6.51981115

>  <minimizedRMSD>
0.187337667

$$$$
