
 OpenBabel03272508403D

 41 44  0  0  1  0  0  0  0  0999 V2000
   31.1410   27.8990   47.4180 N   0  0  0  0  0  0  0  0  0  0  0  0
   32.2340   28.5820   48.1060 C   0  0  0  0  0  0  0  0  0  0  0  0
   33.5150   28.5460   47.4010 C   0  0  2  0  0  0  0  0  0  0  0  0
   33.8090   27.1920   46.8510 N   0  0  0  0  0  0  0  0  0  0  0  0
   32.6600   26.8140   46.0050 C   0  0  0  0  0  0  0  0  0  0  0  0
   31.5540   26.6010   47.0160 C   0  0  0  0  0  0  0  0  0  0  0  0
   32.3500   27.8890   49.0100 H   0  0  0  0  0  0  0  0  0  0  0  0
   31.9050   29.5810   48.3740 H   0  0  0  0  0  0  0  0  0  0  0  0
   33.5830   29.1260   46.4620 H   0  0  0  0  0  0  0  0  0  0  0  0
   33.8420   26.5220   47.6440 H   0  0  0  0  0  0  0  0  0  0  0  0
   32.9150   25.8840   45.4950 H   0  0  0  0  0  0  0  0  0  0  0  0
   32.4180   27.6530   45.3280 H   0  0  0  0  0  0  0  0  0  0  0  0
   31.9810   25.9810   47.8330 H   0  0  0  0  0  0  0  0  0  0  0  0
   30.7240   26.0590   46.5190 H   0  0  0  0  0  0  0  0  0  0  0  0
   35.5660   30.3470   46.2250 Cl  0  0  0  0  0  0  0  0  0  0  0  0
   35.5880   29.7860   47.8980 C   0  0  0  0  0  0  0  0  0  0  0  0
   34.5950   28.9320   48.2930 C   0  0  0  0  0  0  0  0  0  0  0  0
   34.4810   28.4010   49.5880 C   0  0  0  0  0  0  0  0  0  0  0  0
   35.4770   28.7990   50.4910 C   0  0  0  0  0  0  0  0  0  0  0  0
   36.4980   29.6690   50.0950 C   0  0  0  0  0  0  0  0  0  0  0  0
   36.5370   30.1480   48.8090 C   0  0  0  0  0  0  0  0  0  0  0  0
   33.8430   27.7590   50.1420 H   0  0  0  0  0  0  0  0  0  0  0  0
   35.6030   28.5270   51.5280 H   0  0  0  0  0  0  0  0  0  0  0  0
   37.3010   30.0220   50.7250 H   0  0  0  0  0  0  0  0  0  0  0  0
   37.5760   31.0560   48.3470 C   0  0  0  0  0  0  0  0  0  0  0  0
   38.5250   30.7380   47.3780 C   0  0  0  0  0  0  0  0  0  0  0  0
   38.6230   29.8050   46.8480 H   0  0  0  0  0  0  0  0  0  0  0  0
   39.3470   31.7690   47.1640 N   0  0  0  0  0  0  0  0  0  0  0  0
   40.1580   31.8390   46.4980 H   0  0  0  0  0  0  0  0  0  0  0  0
   38.9090   32.7360   48.0040 C   0  0  0  0  0  0  0  0  0  0  0  0
   39.3920   33.7060   48.0510 H   0  0  0  0  0  0  0  0  0  0  0  0
   37.8490   32.3170   48.7170 N   0  0  0  0  0  0  0  0  0  0  0  0
   29.8710   28.4940   47.2240 C   0  0  0  0  0  0  0  0  0  0  0  0
   29.4480   28.9530   45.9720 C   0  0  0  0  0  0  0  0  0  0  0  0
   28.1840   29.5230   45.8640 C   0  0  0  0  0  0  0  0  0  0  0  0
   27.4080   29.6050   47.0120 N   0  0  0  0  0  0  0  0  0  0  0  0
   27.8600   29.1490   48.1950 C   0  0  0  0  0  0  0  0  0  0  0  0
   29.0640   28.6010   48.3130 N   0  0  0  0  0  0  0  0  0  0  0  0
   30.0920   28.8630   45.1190 H   0  0  0  0  0  0  0  0  0  0  0  0
   27.8060   29.8940   44.9220 H   0  0  0  0  0  0  0  0  0  0  0  0
   27.2460   29.2180   49.0800 H   0  0  0  0  0  0  0  0  0  0  0  0
  1  2  1  0  0  0  0
  2  8  1  0  0  0  0
  2  7  1  0  0  0  0
  3  9  1  6  0  0  0
  3  2  1  0  0  0  0
  3 17  1  0  0  0  0
  4  3  1  0  0  0  0
  4 10  1  0  0  0  0
  5  4  1  0  0  0  0
  5  6  1  0  0  0  0
  6  1  1  0  0  0  0
  6 13  1  0  0  0  0
 11  5  1  0  0  0  0
 12  5  1  0  0  0  0
 14  6  1  0  0  0  0
 15 16  1  0  0  0  0
 16 17  2  0  0  0  0
 16 21  1  0  0  0  0
 17 18  1  0  0  0  0
 18 22  1  0  0  0  0
 18 19  2  0  0  0  0
 19 23  1  0  0  0  0
 20 19  1  0  0  0  0
 20 24  1  0  0  0  0
 21 20  2  0  0  0  0
 25 32  1  0  0  0  0
 25 21  1  0  0  0  0
 26 25  2  0  0  0  0
 27 26  1  0  0  0  0
 28 26  1  0  0  0  0
 28 30  1  0  0  0  0
 29 28  1  0  0  0  0
 30 31  1  0  0  0  0
 30 32  2  0  0  0  0
 33  1  1  0  0  0  0
 33 38  1  0  0  0  0
 34 33  2  0  0  0  0
 35 34  1  0  0  0  0
 35 36  2  0  0  0  0
 36 37  1  0  0  0  0
 37 38  2  0  0  0  0
 37 41  1  0  0  0  0
 39 34  1  0  0  0  0
 40 35  1  0  0  0  0
M  END
>  <minimizedAffinity>
-5.7269969

>  <minimizedRMSD>
4.04044628

$$$$
