
 OpenBabel03272509523D

 42 45  0  0  0  0  0  0  0  0999 V2000
   34.2390   28.7790   48.1160 C   0  0  0  0  0  0  0  0  0  0  0  0
   33.6190   29.6990   48.2360 H   0  0  0  0  0  0  0  0  0  0  0  0
   35.0450   29.0340   47.3790 H   0  0  0  0  0  0  0  0  0  0  0  0
   33.3900   27.6940   47.5310 C   0  0  0  0  0  0  0  0  0  0  0  0
   33.6870   26.7210   47.9160 H   0  0  0  0  0  0  0  0  0  0  0  0
   33.5130   27.6520   46.4160 H   0  0  0  0  0  0  0  0  0  0  0  0
   31.9350   27.9150   47.7720 C   0  0  0  0  0  0  0  0  0  0  0  0
   31.3710   27.3680   48.9170 C   0  0  0  0  0  0  0  0  0  0  0  0
   30.0430   27.5180   49.2220 C   0  0  0  0  0  0  0  0  0  0  0  0
   29.2680   28.2090   48.3980 N   0  0  0  0  0  0  0  0  0  0  0  0
   29.8230   28.7500   47.2630 C   0  0  0  0  0  0  0  0  0  0  0  0
   31.1250   28.6130   46.9470 N   0  0  0  0  0  0  0  0  0  0  0  0
   31.9910   26.8010   49.6030 H   0  0  0  0  0  0  0  0  0  0  0  0
   29.6550   27.0730   50.1270 H   0  0  0  0  0  0  0  0  0  0  0  0
   28.9500   29.5080   46.3650 C   0  0  0  0  0  0  0  0  0  0  0  0
   27.6780   29.8950   46.7980 C   0  0  0  0  0  0  0  0  0  0  0  0
   27.2030   29.7090   47.7550 H   0  0  0  0  0  0  0  0  0  0  0  0
   27.0420   30.5840   45.8110 N   0  0  0  0  0  0  0  0  0  0  0  0
   26.0750   30.9920   45.8630 H   0  0  0  0  0  0  0  0  0  0  0  0
   27.9090   30.6240   44.7830 C   0  0  0  0  0  0  0  0  0  0  0  0
   27.6670   31.1080   43.8690 H   0  0  0  0  0  0  0  0  0  0  0  0
   29.0610   29.9810   45.1030 N   0  0  0  0  0  0  0  0  0  0  0  0
   34.7820   28.3780   49.3660 O   0  0  0  0  0  0  0  0  0  0  0  0
   37.1150   29.9870   51.5940 C   0  0  0  0  0  0  0  0  0  0  0  0
   37.9050   30.7170   50.6590 C   0  0  0  0  0  0  0  0  0  0  0  0
   37.5680   30.5980   49.3190 C   0  0  0  0  0  0  0  0  0  0  0  0
   36.5030   29.7850   49.0170 N   0  0  0  0  0  0  0  0  0  0  0  0
   35.7860   29.1150   49.9220 C   0  0  0  0  0  0  0  0  0  0  0  0
   36.1100   29.2290   51.2190 N   0  0  0  0  0  0  0  0  0  0  0  0
   37.4490   30.1400   52.6060 H   0  0  0  0  0  0  0  0  0  0  0  0
   38.7400   31.3540   50.9080 H   0  0  0  0  0  0  0  0  0  0  0  0
   38.7850   33.2180   49.2790 F   0  0  0  0  0  0  0  0  0  0  0  0
   38.8140   32.4750   48.1870 C   0  0  0  0  0  0  0  0  0  0  0  0
   38.2370   31.2500   48.2310 C   0  0  0  0  0  0  0  0  0  0  0  0
   38.3310   30.5560   47.0150 C   0  0  0  0  0  0  0  0  0  0  0  0
   38.9440   31.0640   45.8960 C   0  0  0  0  0  0  0  0  0  0  0  0
   39.5100   32.3010   45.9060 C   0  0  0  0  0  0  0  0  0  0  0  0
   39.4390   33.0180   47.0830 C   0  0  0  0  0  0  0  0  0  0  0  0
   37.8940   29.5510   46.9400 H   0  0  0  0  0  0  0  0  0  0  0  0
   38.9730   30.4620   44.9990 H   0  0  0  0  0  0  0  0  0  0  0  0
   39.9720   32.6450   45.0070 H   0  0  0  0  0  0  0  0  0  0  0  0
   39.8790   33.9960   47.1120 H   0  0  0  0  0  0  0  0  0  0  0  0
  1  2  1  0  0  0  0
  1 23  1  0  0  0  0
  3  1  1  0  0  0  0
  4  7  1  0  0  0  0
  4  5  1  0  0  0  0
  4  1  1  0  0  0  0
  6  4  1  0  0  0  0
  7  8  1  0  0  0  0
  8  9  2  0  0  0  0
  8 13  1  0  0  0  0
  9 14  1  0  0  0  0
 10  9  1  0  0  0  0
 11 10  2  0  0  0  0
 12 11  1  0  0  0  0
 12  7  2  0  0  0  0
 15 16  2  0  0  0  0
 15 11  1  0  0  0  0
 16 17  1  0  0  0  0
 18 19  1  0  0  0  0
 18 16  1  0  0  0  0
 20 22  2  0  0  0  0
 20 18  1  0  0  0  0
 21 20  1  0  0  0  0
 22 15  1  0  0  0  0
 23 28  1  0  0  0  0
 24 30  1  0  0  0  0
 25 31  1  0  0  0  0
 25 24  2  0  0  0  0
 26 25  1  0  0  0  0
 27 26  2  0  0  0  0
 27 28  1  0  0  0  0
 28 29  2  0  0  0  0
 29 24  1  0  0  0  0
 33 34  1  0  0  0  0
 33 32  1  0  0  0  0
 34 26  1  0  0  0  0
 35 34  2  0  0  0  0
 36 37  2  0  0  0  0
 36 35  1  0  0  0  0
 37 38  1  0  0  0  0
 38 42  1  0  0  0  0
 38 33  2  0  0  0  0
 39 35  1  0  0  0  0
 40 36  1  0  0  0  0
 41 37  1  0  0  0  0
M  END
>  <minimizedAffinity>
-6.59939814

>  <minimizedRMSD>
0.59078896

$$$$
