
 OpenBabel03272509103D

 39 42  0  0  0  0  0  0  0  0999 V2000
   35.1520   29.5270   33.4260 C   0  0  0  0  0  0  0  0  0  0  0  0
   34.3650   29.2280   32.6680 H   0  0  0  0  0  0  0  0  0  0  0  0
   34.5840   29.6770   34.3490 H   0  0  0  0  0  0  0  0  0  0  0  0
   35.7510   30.7640   32.8610 C   0  0  0  0  0  0  0  0  0  0  0  0
   36.3200   30.8060   31.5900 C   0  0  0  0  0  0  0  0  0  0  0  0
   36.8770   31.9420   31.0740 C   0  0  0  0  0  0  0  0  0  0  0  0
   36.8930   33.1100   31.8060 C   0  0  0  0  0  0  0  0  0  0  0  0
   36.3430   33.0790   33.0410 C   0  0  0  0  0  0  0  0  0  0  0  0
   35.7740   31.9370   33.5800 C   0  0  0  0  0  0  0  0  0  0  0  0
   36.3010   29.8730   31.0230 H   0  0  0  0  0  0  0  0  0  0  0  0
   37.2990   31.8940   30.0830 H   0  0  0  0  0  0  0  0  0  0  0  0
   37.3390   33.9980   31.3780 H   0  0  0  0  0  0  0  0  0  0  0  0
   36.3520   33.9990   33.6260 H   0  0  0  0  0  0  0  0  0  0  0  0
   35.2070   32.0310   34.9210 C   0  0  0  0  0  0  0  0  0  0  0  0
   35.8660   31.8040   36.1150 C   0  0  0  0  0  0  0  0  0  0  0  0
   36.9160   31.5180   36.2680 H   0  0  0  0  0  0  0  0  0  0  0  0
   35.0610   31.9720   37.1790 N   0  0  0  0  0  0  0  0  0  0  0  0
   35.3000   31.8660   38.1900 H   0  0  0  0  0  0  0  0  0  0  0  0
   33.8680   32.3110   36.6740 C   0  0  0  0  0  0  0  0  0  0  0  0
   32.9520   32.5320   37.2130 H   0  0  0  0  0  0  0  0  0  0  0  0
   33.9900   32.3360   35.3560 N   0  0  0  0  0  0  0  0  0  0  0  0
   36.6690   27.8780   34.5180 C   0  0  0  0  0  3  0  0  0  0  0  0
   36.0840   28.3860   33.4610 C   0  0  0  0  0  3  0  0  0  0  0  0
   38.9690   25.4140   33.1110 C   0  0  0  0  0  0  0  0  0  0  0  0
   39.2060   24.5820   34.2200 C   0  0  0  0  0  0  0  0  0  0  0  0
   38.5630   24.8980   35.4300 C   0  0  0  0  0  0  0  0  0  0  0  0
   37.7390   25.9960   35.4640 N   0  0  0  0  0  0  0  0  0  0  0  0
   37.5610   26.7490   34.3540 C   0  0  0  0  0  0  0  0  0  0  0  0
   38.1560   26.4730   33.2010 N   0  0  0  0  0  0  0  0  0  0  0  0
   39.4980   25.1060   32.2210 H   0  0  0  0  0  0  0  0  0  0  0  0
   39.8420   23.7160   34.2330 H   0  0  0  0  0  0  0  0  0  0  0  0
   38.7320   24.1010   36.6550 C   0  0  0  0  0  0  0  0  0  0  0  0
   37.9930   24.3120   37.7890 C   0  0  0  0  0  0  0  0  0  0  0  0
   38.4080   23.3890   38.7480 C   0  0  0  0  0  0  0  0  0  0  0  0
   39.3860   22.6520   38.1530 N   0  0  0  0  0  0  0  0  0  0  0  0
   39.5650   23.0890   36.9100 N   0  0  0  0  0  0  0  0  0  0  0  0
   37.2130   25.0350   37.9980 H   0  0  0  0  0  0  0  0  0  0  0  0
   38.0480   23.2630   39.7540 H   0  0  0  0  0  0  0  0  0  0  0  0
   39.9020   21.8700   38.6140 H   0  0  0  0  0  0  0  0  0  0  0  0
  1 23  1  0  0  0  0
  1  3  1  0  0  0  0
  2  1  1  0  0  0  0
  4  1  1  0  0  0  0
  4  9  1  0  0  0  0
  5  4  2  0  0  0  0
  6  5  1  0  0  0  0
  6  7  2  0  0  0  0
  7  8  1  0  0  0  0
  8  9  2  0  0  0  0
  8 13  1  0  0  0  0
  9 14  1  0  0  0  0
 10  5  1  0  0  0  0
 11  6  1  0  0  0  0
 12  7  1  0  0  0  0
 14 21  1  0  0  0  0
 14 15  2  0  0  0  0
 15 16  1  0  0  0  0
 15 17  1  0  0  0  0
 17 18  1  0  0  0  0
 19 17  1  0  0  0  0
 19 20  1  0  0  0  0
 21 19  2  0  0  0  0
 23 22  2  0  0  0  0
 24 29  2  0  0  0  0
 24 25  1  0  0  0  0
 25 31  1  0  0  0  0
 25 26  2  0  0  0  0
 26 27  1  0  0  0  0
 26 32  1  0  0  0  0
 28 22  1  0  0  0  0
 28 27  2  0  0  0  0
 29 28  1  0  0  0  0
 30 24  1  0  0  0  0
 32 36  2  0  0  0  0
 32 33  1  0  0  0  0
 33 37  1  0  0  0  0
 33 34  2  0  0  0  0
 34 38  1  0  0  0  0
 35 39  1  0  0  0  0
 35 34  1  0  0  0  0
 36 35  1  0  0  0  0
M  END
>  <minimizedAffinity>
-6.34883499

$$$$

 OpenBabel03272509103D

 39 42  0  0  0  0  0  0  0  0999 V2000
   34.9350   29.6570   33.5340 C   0  0  0  0  0  0  0  0  0  0  0  0
   35.2120   30.3340   32.6680 H   0  0  0  0  0  0  0  0  0  0  0  0
   33.9760   29.2250   33.2330 H   0  0  0  0  0  0  0  0  0  0  0  0
   34.8610   30.5730   34.7020 C   0  0  0  0  0  0  0  0  0  0  0  0
   35.9180   31.4010   35.0710 C   0  0  0  0  0  0  0  0  0  0  0  0
   35.8520   32.2380   36.1500 C   0  0  0  0  0  0  0  0  0  0  0  0
   34.7130   32.2930   36.9250 C   0  0  0  0  0  0  0  0  0  0  0  0
   33.6810   31.4930   36.5740 C   0  0  0  0  0  0  0  0  0  0  0  0
   33.7300   30.6390   35.4840 C   0  0  0  0  0  0  0  0  0  0  0  0
   36.8130   31.3450   34.4480 H   0  0  0  0  0  0  0  0  0  0  0  0
   36.7130   32.8470   36.3710 H   0  0  0  0  0  0  0  0  0  0  0  0
   34.6830   32.9630   37.7740 H   0  0  0  0  0  0  0  0  0  0  0  0
   32.7770   31.5320   37.1830 H   0  0  0  0  0  0  0  0  0  0  0  0
   32.5510   29.8290   35.2050 C   0  0  0  0  0  0  0  0  0  0  0  0
   31.5210   30.1380   34.3360 C   0  0  0  0  0  0  0  0  0  0  0  0
   31.4070   31.0350   33.7100 H   0  0  0  0  0  0  0  0  0  0  0  0
   30.5780   29.1810   34.3040 N   0  0  0  0  0  0  0  0  0  0  0  0
   29.7000   29.1600   33.7390 H   0  0  0  0  0  0  0  0  0  0  0  0
   30.9950   28.2390   35.1600 C   0  0  0  0  0  0  0  0  0  0  0  0
   30.5080   27.3030   35.4140 H   0  0  0  0  0  0  0  0  0  0  0  0
   32.1480   28.6490   35.6660 N   0  0  0  0  0  0  0  0  0  0  0  0
   36.3480   27.9250   34.6350 C   0  0  0  0  0  3  0  0  0  0  0  0
   36.0420   28.6890   33.6160 C   0  0  0  0  0  3  0  0  0  0  0  0
   39.3590   26.2200   33.4670 C   0  0  0  0  0  0  0  0  0  0  0  0
   39.5590   25.2690   34.4850 C   0  0  0  0  0  0  0  0  0  0  0  0
   38.6440   25.2450   35.5530 C   0  0  0  0  0  0  0  0  0  0  0  0
   37.6080   26.1450   35.5440 N   0  0  0  0  0  0  0  0  0  0  0  0
   37.4820   27.0300   34.5290 C   0  0  0  0  0  0  0  0  0  0  0  0
   38.3310   27.0740   33.5110 N   0  0  0  0  0  0  0  0  0  0  0  0
   40.1020   26.1740   32.6850 H   0  0  0  0  0  0  0  0  0  0  0  0
   40.3570   24.5500   34.5270 H   0  0  0  0  0  0  0  0  0  0  0  0
   38.7500   24.2960   36.6720 C   0  0  0  0  0  0  0  0  0  0  0  0
   37.9430   24.3550   37.7780 C   0  0  0  0  0  0  0  0  0  0  0  0
   38.3100   23.3160   38.6310 C   0  0  0  0  0  0  0  0  0  0  0  0
   39.3290   22.6650   38.0060 N   0  0  0  0  0  0  0  0  0  0  0  0
   39.5760   23.2610   36.8430 N   0  0  0  0  0  0  0  0  0  0  0  0
   37.1450   25.0420   38.0320 H   0  0  0  0  0  0  0  0  0  0  0  0
   37.8920   23.0590   39.5890 H   0  0  0  0  0  0  0  0  0  0  0  0
   39.8250   21.8320   38.3910 H   0  0  0  0  0  0  0  0  0  0  0  0
  1 23  1  0  0  0  0
  1  4  1  0  0  0  0
  2  1  1  0  0  0  0
  3  1  1  0  0  0  0
  4  5  2  0  0  0  0
  4  9  1  0  0  0  0
  5  6  1  0  0  0  0
  6 11  1  0  0  0  0
  6  7  2  0  0  0  0
  7 12  1  0  0  0  0
  8  7  1  0  0  0  0
  8 13  1  0  0  0  0
  9  8  2  0  0  0  0
 10  5  1  0  0  0  0
 14  9  1  0  0  0  0
 14 21  1  0  0  0  0
 15 14  2  0  0  0  0
 16 15  1  0  0  0  0
 17 15  1  0  0  0  0
 17 19  1  0  0  0  0
 18 17  1  0  0  0  0
 19 20  1  0  0  0  0
 19 21  2  0  0  0  0
 23 22  2  0  0  0  0
 24 29  2  0  0  0  0
 24 25  1  0  0  0  0
 25 31  1  0  0  0  0
 25 26  2  0  0  0  0
 26 32  1  0  0  0  0
 27 26  1  0  0  0  0
 28 22  1  0  0  0  0
 28 27  2  0  0  0  0
 29 28  1  0  0  0  0
 30 24  1  0  0  0  0
 32 36  2  0  0  0  0
 32 33  1  0  0  0  0
 33 37  1  0  0  0  0
 33 34  2  0  0  0  0
 34 38  1  0  0  0  0
 35 39  1  0  0  0  0
 35 34  1  0  0  0  0
 36 35  1  0  0  0  0
M  END
>  <minimizedAffinity>
-6.31241703

$$$$

 OpenBabel03272509103D

 39 42  0  0  0  0  0  0  0  0999 V2000
   35.6040   29.8880   34.1570 C   0  0  0  0  0  0  0  0  0  0  0  0
   35.7700   30.1310   35.2510 H   0  0  0  0  0  0  0  0  0  0  0  0
   36.1700   30.6610   33.6280 H   0  0  0  0  0  0  0  0  0  0  0  0
   34.1300   29.9740   33.9850 C   0  0  0  0  0  0  0  0  0  0  0  0
   33.4310   29.1460   33.1110 C   0  0  0  0  0  0  0  0  0  0  0  0
   32.0760   29.2300   32.9470 C   0  0  0  0  0  0  0  0  0  0  0  0
   31.3410   30.1550   33.6570 C   0  0  0  0  0  0  0  0  0  0  0  0
   32.0120   30.9630   34.5090 C   0  0  0  0  0  0  0  0  0  0  0  0
   33.3840   30.8920   34.6870 C   0  0  0  0  0  0  0  0  0  0  0  0
   34.0270   28.4190   32.5550 H   0  0  0  0  0  0  0  0  0  0  0  0
   31.6070   28.5540   32.2510 H   0  0  0  0  0  0  0  0  0  0  0  0
   30.2700   30.2040   33.5130 H   0  0  0  0  0  0  0  0  0  0  0  0
   31.4360   31.6970   35.0740 H   0  0  0  0  0  0  0  0  0  0  0  0
   33.9920   31.8150   35.6380 C   0  0  0  0  0  0  0  0  0  0  0  0
   34.0700   31.6590   37.0090 C   0  0  0  0  0  0  0  0  0  0  0  0
   33.6950   30.8250   37.6200 H   0  0  0  0  0  0  0  0  0  0  0  0
   34.6930   32.6910   37.6040 N   0  0  0  0  0  0  0  0  0  0  0  0
   34.8860   32.8270   38.6220 H   0  0  0  0  0  0  0  0  0  0  0  0
   35.0240   33.5280   36.6130 C   0  0  0  0  0  0  0  0  0  0  0  0
   35.5430   34.4780   36.6850 H   0  0  0  0  0  0  0  0  0  0  0  0
   34.6000   32.9860   35.4810 N   0  0  0  0  0  0  0  0  0  0  0  0
   36.8560   27.8510   34.8590 C   0  0  0  0  0  3  0  0  0  0  0  0
   36.1360   28.5230   33.9960 C   0  0  0  0  0  3  0  0  0  0  0  0
   37.6020   24.7720   33.0430 C   0  0  0  0  0  0  0  0  0  0  0  0
   38.1600   23.9720   34.0580 C   0  0  0  0  0  0  0  0  0  0  0  0
   38.2650   24.5230   35.3470 C   0  0  0  0  0  0  0  0  0  0  0  0
   37.8170   25.8050   35.5470 N   0  0  0  0  0  0  0  0  0  0  0  0
   37.2920   26.5120   34.5200 C   0  0  0  0  0  0  0  0  0  0  0  0
   37.1830   26.0160   33.2950 N   0  0  0  0  0  0  0  0  0  0  0  0
   37.5570   24.2780   32.0840 H   0  0  0  0  0  0  0  0  0  0  0  0
   38.5210   22.9660   33.9400 H   0  0  0  0  0  0  0  0  0  0  0  0
   38.8290   23.7830   36.4870 C   0  0  0  0  0  0  0  0  0  0  0  0
   40.0580   23.1790   36.4490 C   0  0  0  0  0  0  0  0  0  0  0  0
   40.2770   22.5760   37.6870 C   0  0  0  0  0  0  0  0  0  0  0  0
   39.1660   22.8400   38.4290 N   0  0  0  0  0  0  0  0  0  0  0  0
   38.3170   23.5580   37.7000 N   0  0  0  0  0  0  0  0  0  0  0  0
   40.7920   23.1250   35.6540 H   0  0  0  0  0  0  0  0  0  0  0  0
   41.1340   22.0140   38.0130 H   0  0  0  0  0  0  0  0  0  0  0  0
   39.0220   22.5220   39.4120 H   0  0  0  0  0  0  0  0  0  0  0  0
  1  2  1  0  0  0  0
  3  1  1  0  0  0  0
  4  1  1  0  0  0  0
  4  9  1  0  0  0  0
  5  4  2  0  0  0  0
  6  5  1  0  0  0  0
  6  7  2  0  0  0  0
  7  8  1  0  0  0  0
  8  9  2  0  0  0  0
  8 13  1  0  0  0  0
  9 14  1  0  0  0  0
 10  5  1  0  0  0  0
 11  6  1  0  0  0  0
 12  7  1  0  0  0  0
 14 15  2  0  0  0  0
 15 17  1  0  0  0  0
 15 16  1  0  0  0  0
 17 18  1  0  0  0  0
 19 20  1  0  0  0  0
 19 17  1  0  0  0  0
 21 14  1  0  0  0  0
 21 19  2  0  0  0  0
 23  1  1  0  0  0  0
 23 22  2  0  0  0  0
 24 29  2  0  0  0  0
 24 25  1  0  0  0  0
 25 26  2  0  0  0  0
 26 27  1  0  0  0  0
 26 32  1  0  0  0  0
 28 22  1  0  0  0  0
 28 27  2  0  0  0  0
 29 28  1  0  0  0  0
 30 24  1  0  0  0  0
 31 25  1  0  0  0  0
 32 36  2  0  0  0  0
 33 32  1  0  0  0  0
 33 34  2  0  0  0  0
 34 38  1  0  0  0  0
 34 35  1  0  0  0  0
 35 39  1  0  0  0  0
 36 35  1  0  0  0  0
 37 33  1  0  0  0  0
M  END
>  <minimizedAffinity>
-6.18553686

$$$$

 OpenBabel03272509103D

 39 42  0  0  0  0  0  0  0  0999 V2000
   36.8210   28.2260   35.0750 C   0  0  0  0  0  0  0  0  0  0  0  0
   35.8530   28.0570   35.6390 H   0  0  0  0  0  0  0  0  0  0  0  0
   37.3760   28.9230   35.7110 H   0  0  0  0  0  0  0  0  0  0  0  0
   36.3890   28.7900   33.7700 C   0  0  0  0  0  0  0  0  0  0  0  0
   36.7110   28.1920   32.5540 C   0  0  0  0  0  0  0  0  0  0  0  0
   36.3190   28.7150   31.3540 C   0  0  0  0  0  0  0  0  0  0  0  0
   35.5760   29.8750   31.3040 C   0  0  0  0  0  0  0  0  0  0  0  0
   35.2590   30.4630   32.4790 C   0  0  0  0  0  0  0  0  0  0  0  0
   35.6460   29.9470   33.7050 C   0  0  0  0  0  0  0  0  0  0  0  0
   37.3010   27.2750   32.6100 H   0  0  0  0  0  0  0  0  0  0  0  0
   36.6090   28.1940   30.4560 H   0  0  0  0  0  0  0  0  0  0  0  0
   35.2770   30.2710   30.3420 H   0  0  0  0  0  0  0  0  0  0  0  0
   34.6710   31.3810   32.4470 H   0  0  0  0  0  0  0  0  0  0  0  0
   35.2380   30.6700   34.9040 C   0  0  0  0  0  0  0  0  0  0  0  0
   36.0500   31.4190   35.7350 C   0  0  0  0  0  0  0  0  0  0  0  0
   37.1300   31.6030   35.6440 H   0  0  0  0  0  0  0  0  0  0  0  0
   35.3670   31.9600   36.7590 N   0  0  0  0  0  0  0  0  0  0  0  0
   35.7320   32.5660   37.5280 H   0  0  0  0  0  0  0  0  0  0  0  0
   34.1000   31.5600   36.5950 C   0  0  0  0  0  0  0  0  0  0  0  0
   33.2410   31.7890   37.2170 H   0  0  0  0  0  0  0  0  0  0  0  0
   34.0610   30.8110   35.5040 N   0  0  0  0  0  0  0  0  0  0  0  0
   38.5110   26.4600   35.5600 C   0  0  0  0  0  3  0  0  0  0  0  0
   37.4250   26.8860   34.9660 C   0  0  0  0  0  3  0  0  0  0  0  0
   40.5820   23.5070   34.9850 C   0  0  0  0  0  0  0  0  0  0  0  0
   39.6100   22.4940   34.8910 C   0  0  0  0  0  0  0  0  0  0  0  0
   38.2600   22.8610   35.0310 C   0  0  0  0  0  0  0  0  0  0  0  0
   37.9630   24.1830   35.2500 N   0  0  0  0  0  0  0  0  0  0  0  0
   38.9540   25.1010   35.3280 C   0  0  0  0  0  0  0  0  0  0  0  0
   40.2350   24.7810   35.2000 N   0  0  0  0  0  0  0  0  0  0  0  0
   41.5920   23.1460   34.8670 H   0  0  0  0  0  0  0  0  0  0  0  0
   39.8030   21.4500   34.7210 H   0  0  0  0  0  0  0  0  0  0  0  0
   37.1570   21.8910   34.9500 C   0  0  0  0  0  0  0  0  0  0  0  0
   36.7140   21.3640   33.7650 C   0  0  0  0  0  0  0  0  0  0  0  0
   35.6690   20.4860   34.0520 C   0  0  0  0  0  0  0  0  0  0  0  0
   35.5200   20.5170   35.4050 N   0  0  0  0  0  0  0  0  0  0  0  0
   36.4130   21.3570   35.9220 N   0  0  0  0  0  0  0  0  0  0  0  0
   37.0470   21.5350   32.7490 H   0  0  0  0  0  0  0  0  0  0  0  0
   35.0860   19.8960   33.3680 H   0  0  0  0  0  0  0  0  0  0  0  0
   34.8130   19.9620   35.9360 H   0  0  0  0  0  0  0  0  0  0  0  0
  1  2  1  0  0  0  0
  1  3  1  0  0  0  0
  4  1  1  0  0  0  0
  5 10  1  0  0  0  0
  5  4  2  0  0  0  0
  6  5  1  0  0  0  0
  7  6  2  0  0  0  0
  7  8  1  0  0  0  0
  8  9  2  0  0  0  0
  9  4  1  0  0  0  0
  9 14  1  0  0  0  0
 11  6  1  0  0  0  0
 12  7  1  0  0  0  0
 13  8  1  0  0  0  0
 14 21  1  0  0  0  0
 14 15  2  0  0  0  0
 15 17  1  0  0  0  0
 16 15  1  0  0  0  0
 17 18  1  0  0  0  0
 19 17  1  0  0  0  0
 19 20  1  0  0  0  0
 21 19  2  0  0  0  0
 23  1  1  0  0  0  0
 23 22  2  0  0  0  0
 24 29  1  0  0  0  0
 25 24  2  0  0  0  0
 25 26  1  0  0  0  0
 26 27  2  0  0  0  0
 27 28  1  0  0  0  0
 28 22  1  0  0  0  0
 29 28  2  0  0  0  0
 30 24  1  0  0  0  0
 31 25  1  0  0  0  0
 32 26  1  0  0  0  0
 32 36  2  0  0  0  0
 33 34  2  0  0  0  0
 33 32  1  0  0  0  0
 34 35  1  0  0  0  0
 35 36  1  0  0  0  0
 35 39  1  0  0  0  0
 37 33  1  0  0  0  0
 38 34  1  0  0  0  0
M  END
>  <minimizedAffinity>
-5.99724865

$$$$

 OpenBabel03272509103D

 39 42  0  0  0  0  0  0  0  0999 V2000
   38.9070   26.5920   35.8560 C   0  0  0  0  0  0  0  0  0  0  0  0
   39.4470   27.1720   36.6650 H   0  0  0  0  0  0  0  0  0  0  0  0
   38.4800   25.7360   36.3880 H   0  0  0  0  0  0  0  0  0  0  0  0
   39.9750   26.2430   34.8830 C   0  0  0  0  0  0  0  0  0  0  0  0
   40.7820   27.2070   34.2830 C   0  0  0  0  0  0  0  0  0  0  0  0
   41.7600   26.8860   33.3830 C   0  0  0  0  0  0  0  0  0  0  0  0
   41.9850   25.5730   33.0310 C   0  0  0  0  0  0  0  0  0  0  0  0
   41.2060   24.6310   33.6080 C   0  0  0  0  0  0  0  0  0  0  0  0
   40.2110   24.9360   34.5220 C   0  0  0  0  0  0  0  0  0  0  0  0
   40.5910   28.2420   34.5710 H   0  0  0  0  0  0  0  0  0  0  0  0
   42.3430   27.6890   32.9620 H   0  0  0  0  0  0  0  0  0  0  0  0
   42.7640   25.3420   32.3160 H   0  0  0  0  0  0  0  0  0  0  0  0
   41.3780   23.5890   33.3340 H   0  0  0  0  0  0  0  0  0  0  0  0
   39.4400   23.8310   35.0790 C   0  0  0  0  0  0  0  0  0  0  0  0
   39.7840   23.0450   36.1630 C   0  0  0  0  0  0  0  0  0  0  0  0
   40.6850   23.1100   36.7890 H   0  0  0  0  0  0  0  0  0  0  0  0
   38.8580   22.1070   36.4250 N   0  0  0  0  0  0  0  0  0  0  0  0
   38.8670   21.3870   37.1810 H   0  0  0  0  0  0  0  0  0  0  0  0
   37.9010   22.2820   35.5040 C   0  0  0  0  0  0  0  0  0  0  0  0
   36.9800   21.7200   35.3810 H   0  0  0  0  0  0  0  0  0  0  0  0
   38.2730   23.2960   34.7370 N   0  0  0  0  0  0  0  0  0  0  0  0
   37.1880   27.3950   34.2400 C   0  0  0  0  0  3  0  0  0  0  0  0
   37.9110   27.5380   35.3230 C   0  0  0  0  0  3  0  0  0  0  0  0
   34.9370   29.5690   32.3580 C   0  0  0  0  0  0  0  0  0  0  0  0
   34.5110   30.4660   33.3540 C   0  0  0  0  0  0  0  0  0  0  0  0
   35.0150   30.2940   34.6550 C   0  0  0  0  0  0  0  0  0  0  0  0
   35.8940   29.2640   34.8830 N   0  0  0  0  0  0  0  0  0  0  0  0
   36.2570   28.4410   33.8720 C   0  0  0  0  0  0  0  0  0  0  0  0
   35.7950   28.5820   32.6370 N   0  0  0  0  0  0  0  0  0  0  0  0
   34.5060   29.7680   31.3880 H   0  0  0  0  0  0  0  0  0  0  0  0
   33.8260   31.2830   33.2150 H   0  0  0  0  0  0  0  0  0  0  0  0
   34.6440   31.1700   35.7770 C   0  0  0  0  0  0  0  0  0  0  0  0
   33.3460   31.3820   36.1600 C   0  0  0  0  0  0  0  0  0  0  0  0
   33.3570   32.2550   37.2460 C   0  0  0  0  0  0  0  0  0  0  0  0
   34.6680   32.5390   37.4800 N   0  0  0  0  0  0  0  0  0  0  0  0
   35.4180   31.8850   36.5980 N   0  0  0  0  0  0  0  0  0  0  0  0
   32.4190   30.9900   35.7560 H   0  0  0  0  0  0  0  0  0  0  0  0
   32.5200   32.6400   37.8020 H   0  0  0  0  0  0  0  0  0  0  0  0
   35.0110   33.1710   38.2360 H   0  0  0  0  0  0  0  0  0  0  0  0
  1  3  1  0  0  0  0
  1  2  1  0  0  0  0
  4  1  1  0  0  0  0
  5 10  1  0  0  0  0
  5  4  2  0  0  0  0
  6  5  1  0  0  0  0
  7  6  2  0  0  0  0
  7  8  1  0  0  0  0
  8  9  2  0  0  0  0
  9  4  1  0  0  0  0
  9 14  1  0  0  0  0
 11  6  1  0  0  0  0
 12  7  1  0  0  0  0
 13  8  1  0  0  0  0
 14 15  2  0  0  0  0
 15 17  1  0  0  0  0
 15 16  1  0  0  0  0
 17 18  1  0  0  0  0
 19 17  1  0  0  0  0
 20 19  1  0  0  0  0
 21 14  1  0  0  0  0
 21 19  2  0  0  0  0
 22 23  2  0  0  0  0
 23  1  1  0  0  0  0
 24 29  2  0  0  0  0
 24 25  1  0  0  0  0
 25 26  2  0  0  0  0
 26 27  1  0  0  0  0
 26 32  1  0  0  0  0
 28 22  1  0  0  0  0
 28 27  2  0  0  0  0
 29 28  1  0  0  0  0
 30 24  1  0  0  0  0
 31 25  1  0  0  0  0
 32 33  1  0  0  0  0
 32 36  2  0  0  0  0
 33 34  2  0  0  0  0
 34 35  1  0  0  0  0
 34 38  1  0  0  0  0
 35 39  1  0  0  0  0
 36 35  1  0  0  0  0
 37 33  1  0  0  0  0
M  END
>  <minimizedAffinity>
-5.96721697

$$$$

 OpenBabel03272509103D

 39 42  0  0  0  0  0  0  0  0999 V2000
   37.7610   26.5630   35.4410 C   0  0  0  0  0  0  0  0  0  0  0  0
   37.8540   27.2410   36.3430 H   0  0  0  0  0  0  0  0  0  0  0  0
   37.1660   25.7200   35.8060 H   0  0  0  0  0  0  0  0  0  0  0  0
   39.1660   26.2230   35.0940 C   0  0  0  0  0  0  0  0  0  0  0  0
   40.0700   27.1730   34.6260 C   0  0  0  0  0  0  0  0  0  0  0  0
   41.3600   26.8590   34.3000 C   0  0  0  0  0  0  0  0  0  0  0  0
   41.8190   25.5650   34.4270 C   0  0  0  0  0  0  0  0  0  0  0  0
   40.9480   24.6360   34.8800 C   0  0  0  0  0  0  0  0  0  0  0  0
   39.6370   24.9360   35.2150 C   0  0  0  0  0  0  0  0  0  0  0  0
   39.6910   28.1930   34.5300 H   0  0  0  0  0  0  0  0  0  0  0  0
   42.0000   27.6500   33.9450 H   0  0  0  0  0  0  0  0  0  0  0  0
   42.8440   25.3390   34.1640 H   0  0  0  0  0  0  0  0  0  0  0  0
   41.3050   23.6110   34.9830 H   0  0  0  0  0  0  0  0  0  0  0  0
   38.7950   23.8480   35.6970 C   0  0  0  0  0  0  0  0  0  0  0  0
   38.5810   23.4880   37.0150 C   0  0  0  0  0  0  0  0  0  0  0  0
   38.9990   23.9500   37.9210 H   0  0  0  0  0  0  0  0  0  0  0  0
   37.7500   22.4380   37.1260 N   0  0  0  0  0  0  0  0  0  0  0  0
   37.4210   21.9660   37.9980 H   0  0  0  0  0  0  0  0  0  0  0  0
   37.4190   22.1090   35.8710 C   0  0  0  0  0  0  0  0  0  0  0  0
   36.7630   21.3100   35.5400 H   0  0  0  0  0  0  0  0  0  0  0  0
   38.0460   22.9520   35.0640 N   0  0  0  0  0  0  0  0  0  0  0  0
   36.4310   28.5060   34.6240 C   0  0  0  0  0  3  0  0  0  0  0  0
   37.0880   27.3910   34.4240 C   0  0  0  0  0  3  0  0  0  0  0  0
   34.2060   30.4890   32.5130 C   0  0  0  0  0  0  0  0  0  0  0  0
   34.8400   30.3890   31.2610 C   0  0  0  0  0  0  0  0  0  0  0  0
   36.0250   29.6360   31.1810 C   0  0  0  0  0  0  0  0  0  0  0  0
   36.4980   29.0400   32.3240 N   0  0  0  0  0  0  0  0  0  0  0  0
   35.8320   29.1830   33.4930 C   0  0  0  0  0  0  0  0  0  0  0  0
   34.7130   29.8880   33.5950 N   0  0  0  0  0  0  0  0  0  0  0  0
   33.3050   31.0820   32.4920 H   0  0  0  0  0  0  0  0  0  0  0  0
   34.5010   30.8400   30.3460 H   0  0  0  0  0  0  0  0  0  0  0  0
   36.7740   29.4580   29.9270 C   0  0  0  0  0  0  0  0  0  0  0  0
   37.2670   30.5080   29.1980 C   0  0  0  0  0  0  0  0  0  0  0  0
   37.9170   29.9860   28.0820 C   0  0  0  0  0  0  0  0  0  0  0  0
   37.7920   28.6340   28.1790 N   0  0  0  0  0  0  0  0  0  0  0  0
   37.1110   28.3390   29.2820 N   0  0  0  0  0  0  0  0  0  0  0  0
   37.2110   31.5760   29.3740 H   0  0  0  0  0  0  0  0  0  0  0  0
   38.4210   30.5170   27.2930 H   0  0  0  0  0  0  0  0  0  0  0  0
   38.1780   27.9520   27.4890 H   0  0  0  0  0  0  0  0  0  0  0  0
  1  3  1  0  0  0  0
  1  2  1  0  0  0  0
  4  9  1  0  0  0  0
  4  1  1  0  0  0  0
  5  4  2  0  0  0  0
  6  7  2  0  0  0  0
  6  5  1  0  0  0  0
  7  8  1  0  0  0  0
  8 13  1  0  0  0  0
  8  9  2  0  0  0  0
  9 14  1  0  0  0  0
 10  5  1  0  0  0  0
 11  6  1  0  0  0  0
 12  7  1  0  0  0  0
 14 15  2  0  0  0  0
 15 17  1  0  0  0  0
 15 16  1  0  0  0  0
 17 18  1  0  0  0  0
 19 17  1  0  0  0  0
 20 19  1  0  0  0  0
 21 14  1  0  0  0  0
 21 19  2  0  0  0  0
 23 22  2  0  0  0  0
 23  1  1  0  0  0  0
 24 29  1  0  0  0  0
 25 24  2  0  0  0  0
 26 25  1  0  0  0  0
 26 27  2  0  0  0  0
 27 28  1  0  0  0  0
 28 29  2  0  0  0  0
 28 22  1  0  0  0  0
 30 24  1  0  0  0  0
 31 25  1  0  0  0  0
 32 26  1  0  0  0  0
 33 37  1  0  0  0  0
 33 32  1  0  0  0  0
 34 35  1  0  0  0  0
 34 33  2  0  0  0  0
 35 36  1  0  0  0  0
 36 32  2  0  0  0  0
 38 34  1  0  0  0  0
 39 35  1  0  0  0  0
M  END
>  <minimizedAffinity>
-5.91046667

$$$$

 OpenBabel03272509103D

 39 42  0  0  0  0  0  0  0  0999 V2000
   38.8740   25.1770   34.0960 C   0  0  0  0  0  0  0  0  0  0  0  0
   39.7950   25.1820   33.4370 H   0  0  0  0  0  0  0  0  0  0  0  0
   39.2770   25.1320   35.1120 H   0  0  0  0  0  0  0  0  0  0  0  0
   38.1280   23.9630   33.6720 C   0  0  0  0  0  0  0  0  0  0  0  0
   37.4770   23.8770   32.4440 C   0  0  0  0  0  0  0  0  0  0  0  0
   36.7860   22.7630   32.0570 C   0  0  0  0  0  0  0  0  0  0  0  0
   36.7090   21.6640   32.8860 C   0  0  0  0  0  0  0  0  0  0  0  0
   37.3380   21.7380   34.0800 C   0  0  0  0  0  0  0  0  0  0  0  0
   38.0440   22.8590   34.4880 C   0  0  0  0  0  0  0  0  0  0  0  0
   37.5470   24.7560   31.7990 H   0  0  0  0  0  0  0  0  0  0  0  0
   36.3080   22.7730   31.0910 H   0  0  0  0  0  0  0  0  0  0  0  0
   36.1570   20.7920   32.5590 H   0  0  0  0  0  0  0  0  0  0  0  0
   37.2820   20.8720   34.7400 H   0  0  0  0  0  0  0  0  0  0  0  0
   38.6830   22.8170   35.7980 C   0  0  0  0  0  0  0  0  0  0  0  0
   38.0970   23.1080   37.0150 C   0  0  0  0  0  0  0  0  0  0  0  0
   37.0610   23.4180   37.2130 H   0  0  0  0  0  0  0  0  0  0  0  0
   38.9580   22.9750   38.0390 N   0  0  0  0  0  0  0  0  0  0  0  0
   38.7780   23.1310   39.0560 H   0  0  0  0  0  0  0  0  0  0  0  0
   40.1160   22.5940   37.4850 C   0  0  0  0  0  0  0  0  0  0  0  0
   41.0570   22.3820   37.9820 H   0  0  0  0  0  0  0  0  0  0  0  0
   39.9190   22.5110   36.1780 N   0  0  0  0  0  0  0  0  0  0  0  0
   37.0850   26.8980   34.3220 C   0  0  0  0  0  3  0  0  0  0  0  0
   38.1800   26.4360   33.7700 C   0  0  0  0  0  3  0  0  0  0  0  0
   36.0160   29.6910   32.2250 C   0  0  0  0  0  0  0  0  0  0  0  0
   35.5020   30.5840   33.1830 C   0  0  0  0  0  0  0  0  0  0  0  0
   35.5380   30.1930   34.5330 C   0  0  0  0  0  0  0  0  0  0  0  0
   36.0720   28.9670   34.8440 N   0  0  0  0  0  0  0  0  0  0  0  0
   36.5470   28.1630   33.8660 C   0  0  0  0  0  0  0  0  0  0  0  0
   36.5250   28.5070   32.5850 N   0  0  0  0  0  0  0  0  0  0  0  0
   35.9530   30.0630   31.2130 H   0  0  0  0  0  0  0  0  0  0  0  0
   35.0760   31.5500   32.9790 H   0  0  0  0  0  0  0  0  0  0  0  0
   35.0310   31.0430   35.6230 C   0  0  0  0  0  0  0  0  0  0  0  0
   33.7030   31.1230   35.9490 C   0  0  0  0  0  0  0  0  0  0  0  0
   33.5780   32.0090   37.0180 C   0  0  0  0  0  0  0  0  0  0  0  0
   34.8420   32.4320   37.2980 N   0  0  0  0  0  0  0  0  0  0  0  0
   35.6920   31.8470   36.4600 N   0  0  0  0  0  0  0  0  0  0  0  0
   32.8400   30.6320   35.5160 H   0  0  0  0  0  0  0  0  0  0  0  0
   32.6840   32.3130   37.5320 H   0  0  0  0  0  0  0  0  0  0  0  0
   35.0860   33.1070   38.0550 H   0  0  0  0  0  0  0  0  0  0  0  0
  1  3  1  0  0  0  0
  2  1  1  0  0  0  0
  4  1  1  0  0  0  0
  4  9  1  0  0  0  0
  5  4  2  0  0  0  0
  6  5  1  0  0  0  0
  6  7  2  0  0  0  0
  7  8  1  0  0  0  0
  8  9  2  0  0  0  0
  8 13  1  0  0  0  0
  9 14  1  0  0  0  0
 10  5  1  0  0  0  0
 11  6  1  0  0  0  0
 12  7  1  0  0  0  0
 14 21  1  0  0  0  0
 14 15  2  0  0  0  0
 15 16  1  0  0  0  0
 15 17  1  0  0  0  0
 17 18  1  0  0  0  0
 19 20  1  0  0  0  0
 19 17  1  0  0  0  0
 21 19  2  0  0  0  0
 23  1  1  0  0  0  0
 23 22  2  0  0  0  0
 24 29  2  0  0  0  0
 24 25  1  0  0  0  0
 25 26  2  0  0  0  0
 26 27  1  0  0  0  0
 26 32  1  0  0  0  0
 28 22  1  0  0  0  0
 28 27  2  0  0  0  0
 29 28  1  0  0  0  0
 30 24  1  0  0  0  0
 31 25  1  0  0  0  0
 32 33  1  0  0  0  0
 32 36  2  0  0  0  0
 33 34  2  0  0  0  0
 34 35  1  0  0  0  0
 34 38  1  0  0  0  0
 35 39  1  0  0  0  0
 36 35  1  0  0  0  0
 37 33  1  0  0  0  0
M  END
>  <minimizedAffinity>
-5.85465574

$$$$

 OpenBabel03272509103D

 39 42  0  0  0  0  0  0  0  0999 V2000
   35.4840   29.8860   34.2520 C   0  0  0  0  0  0  0  0  0  0  0  0
   35.4940   30.1010   35.3640 H   0  0  0  0  0  0  0  0  0  0  0  0
   36.1150   30.6720   33.8270 H   0  0  0  0  0  0  0  0  0  0  0  0
   34.0480   29.9760   33.8780 C   0  0  0  0  0  0  0  0  0  0  0  0
   33.0260   29.5740   34.7340 C   0  0  0  0  0  0  0  0  0  0  0  0
   31.7060   29.6500   34.3870 C   0  0  0  0  0  0  0  0  0  0  0  0
   31.3340   30.1390   33.1520 C   0  0  0  0  0  0  0  0  0  0  0  0
   32.3190   30.5320   32.3140 C   0  0  0  0  0  0  0  0  0  0  0  0
   33.6620   30.4620   32.6500 C   0  0  0  0  0  0  0  0  0  0  0  0
   33.3370   29.1890   35.7070 H   0  0  0  0  0  0  0  0  0  0  0  0
   30.9740   29.3190   35.1050 H   0  0  0  0  0  0  0  0  0  0  0  0
   30.2830   30.1910   32.8990 H   0  0  0  0  0  0  0  0  0  0  0  0
   32.0320   30.9190   31.3360 H   0  0  0  0  0  0  0  0  0  0  0  0
   34.6310   30.9200   31.6620 C   0  0  0  0  0  0  0  0  0  0  0  0
   35.4300   30.1300   30.8570 C   0  0  0  0  0  0  0  0  0  0  0  0
   35.4770   29.0320   30.8170 H   0  0  0  0  0  0  0  0  0  0  0  0
   36.2200   30.8590   30.0510 N   0  0  0  0  0  0  0  0  0  0  0  0
   36.9140   30.5190   29.3480 H   0  0  0  0  0  0  0  0  0  0  0  0
   35.9350   32.1370   30.3320 C   0  0  0  0  0  0  0  0  0  0  0  0
   36.3630   33.0310   29.8900 H   0  0  0  0  0  0  0  0  0  0  0  0
   35.0050   32.1350   31.2750 N   0  0  0  0  0  0  0  0  0  0  0  0
   36.9820   27.9920   34.8670 C   0  0  0  0  0  3  0  0  0  0  0  0
   36.0380   28.5260   34.1330 C   0  0  0  0  0  3  0  0  0  0  0  0
   37.7780   24.8470   33.1910 C   0  0  0  0  0  0  0  0  0  0  0  0
   38.2150   24.0540   34.2690 C   0  0  0  0  0  0  0  0  0  0  0  0
   38.2230   24.6320   35.5510 C   0  0  0  0  0  0  0  0  0  0  0  0
   37.8050   25.9330   35.6820 N   0  0  0  0  0  0  0  0  0  0  0  0
   37.3990   26.6320   34.5970 C   0  0  0  0  0  0  0  0  0  0  0  0
   37.3830   26.1100   33.3780 N   0  0  0  0  0  0  0  0  0  0  0  0
   37.8020   24.3310   32.2420 H   0  0  0  0  0  0  0  0  0  0  0  0
   38.5490   23.0340   34.2060 H   0  0  0  0  0  0  0  0  0  0  0  0
   38.6560   23.9020   36.7520 C   0  0  0  0  0  0  0  0  0  0  0  0
   38.1370   24.1410   37.9970 C   0  0  0  0  0  0  0  0  0  0  0  0
   38.7650   23.2800   38.8950 C   0  0  0  0  0  0  0  0  0  0  0  0
   39.6440   22.5490   38.1550 N   0  0  0  0  0  0  0  0  0  0  0  0
   39.5650   22.9320   36.8840 N   0  0  0  0  0  0  0  0  0  0  0  0
   37.3810   24.8460   38.3220 H   0  0  0  0  0  0  0  0  0  0  0  0
   38.6080   23.1900   39.9560 H   0  0  0  0  0  0  0  0  0  0  0  0
   40.2710   21.8090   38.5400 H   0  0  0  0  0  0  0  0  0  0  0  0
  1  2  1  0  0  0  0
  3  1  1  0  0  0  0
  4  1  1  0  0  0  0
  4  5  1  0  0  0  0
  5 10  1  0  0  0  0
  6  5  2  0  0  0  0
  6 11  1  0  0  0  0
  7  6  1  0  0  0  0
  8  9  1  0  0  0  0
  8  7  2  0  0  0  0
  9  4  2  0  0  0  0
 12  7  1  0  0  0  0
 13  8  1  0  0  0  0
 14  9  1  0  0  0  0
 15 14  2  0  0  0  0
 16 15  1  0  0  0  0
 17 19  1  0  0  0  0
 17 15  1  0  0  0  0
 18 17  1  0  0  0  0
 19 21  2  0  0  0  0
 20 19  1  0  0  0  0
 21 14  1  0  0  0  0
 23  1  1  0  0  0  0
 23 22  2  0  0  0  0
 24 29  2  0  0  0  0
 24 25  1  0  0  0  0
 25 26  2  0  0  0  0
 26 27  1  0  0  0  0
 26 32  1  0  0  0  0
 28 22  1  0  0  0  0
 28 27  2  0  0  0  0
 29 28  1  0  0  0  0
 30 24  1  0  0  0  0
 31 25  1  0  0  0  0
 32 36  2  0  0  0  0
 32 33  1  0  0  0  0
 33 37  1  0  0  0  0
 33 34  2  0  0  0  0
 34 38  1  0  0  0  0
 35 39  1  0  0  0  0
 35 34  1  0  0  0  0
 36 35  1  0  0  0  0
M  END
>  <minimizedAffinity>
-5.8424654

$$$$

 OpenBabel03272509103D

 39 42  0  0  0  0  0  0  0  0999 V2000
   34.4400   30.1700   33.5300 C   0  0  0  0  0  0  0  0  0  0  0  0
   35.1290   31.0690   33.5540 H   0  0  0  0  0  0  0  0  0  0  0  0
   33.8280   30.3330   32.6370 H   0  0  0  0  0  0  0  0  0  0  0  0
   33.6940   30.2490   34.8130 C   0  0  0  0  0  0  0  0  0  0  0  0
   32.7220   29.3180   35.1710 C   0  0  0  0  0  0  0  0  0  0  0  0
   32.0310   29.3940   36.3480 C   0  0  0  0  0  0  0  0  0  0  0  0
   32.2780   30.4160   37.2400 C   0  0  0  0  0  0  0  0  0  0  0  0
   33.2200   31.3250   36.9010 C   0  0  0  0  0  0  0  0  0  0  0  0
   33.9300   31.2630   35.7130 C   0  0  0  0  0  0  0  0  0  0  0  0
   32.5380   28.5150   34.4540 H   0  0  0  0  0  0  0  0  0  0  0  0
   31.2940   28.6350   36.5520 H   0  0  0  0  0  0  0  0  0  0  0  0
   31.7200   30.4570   38.1650 H   0  0  0  0  0  0  0  0  0  0  0  0
   33.4200   32.1360   37.6020 H   0  0  0  0  0  0  0  0  0  0  0  0
   34.9240   32.3000   35.4630 C   0  0  0  0  0  0  0  0  0  0  0  0
   36.2720   32.2450   35.7660 C   0  0  0  0  0  0  0  0  0  0  0  0
   36.8280   31.4250   36.2420 H   0  0  0  0  0  0  0  0  0  0  0  0
   36.9190   33.3680   35.4080 N   0  0  0  0  0  0  0  0  0  0  0  0
   37.9340   33.5900   35.5210 H   0  0  0  0  0  0  0  0  0  0  0  0
   35.9860   34.1620   34.8670 C   0  0  0  0  0  0  0  0  0  0  0  0
   36.1130   35.1580   34.4550 H   0  0  0  0  0  0  0  0  0  0  0  0
   34.8360   33.5070   34.9150 N   0  0  0  0  0  0  0  0  0  0  0  0
   36.1470   28.5670   34.3840 C   0  0  0  0  0  3  0  0  0  0  0  0
   35.3460   29.0110   33.4470 C   0  0  0  0  0  3  0  0  0  0  0  0
   38.2590   26.0840   32.7380 C   0  0  0  0  0  0  0  0  0  0  0  0
   38.4870   25.1690   33.7820 C   0  0  0  0  0  0  0  0  0  0  0  0
   37.9020   25.4370   35.0320 C   0  0  0  0  0  0  0  0  0  0  0  0
   37.1420   26.5730   35.1670 N   0  0  0  0  0  0  0  0  0  0  0  0
   36.9690   27.4060   34.1150 C   0  0  0  0  0  0  0  0  0  0  0  0
   37.5100   27.1760   32.9260 N   0  0  0  0  0  0  0  0  0  0  0  0
   38.7410   25.8070   31.8120 H   0  0  0  0  0  0  0  0  0  0  0  0
   39.0740   24.2710   33.7160 H   0  0  0  0  0  0  0  0  0  0  0  0
   38.0680   24.5540   36.1970 C   0  0  0  0  0  0  0  0  0  0  0  0
   37.8500   24.9690   37.4840 C   0  0  0  0  0  0  0  0  0  0  0  0
   38.0950   23.8880   38.3290 C   0  0  0  0  0  0  0  0  0  0  0  0
   38.4540   22.8560   37.5160 N   0  0  0  0  0  0  0  0  0  0  0  0
   38.4310   23.2700   36.2530 N   0  0  0  0  0  0  0  0  0  0  0  0
   37.5450   25.9330   37.8720 H   0  0  0  0  0  0  0  0  0  0  0  0
   38.0250   23.8490   39.4020 H   0  0  0  0  0  0  0  0  0  0  0  0
   38.7020   21.8980   37.8490 H   0  0  0  0  0  0  0  0  0  0  0  0
  1  2  1  0  0  0  0
  1  4  1  0  0  0  0
  3  1  1  0  0  0  0
  4  5  2  0  0  0  0
  4  9  1  0  0  0  0
  5  6  1  0  0  0  0
  6 11  1  0  0  0  0
  6  7  2  0  0  0  0
  7 12  1  0  0  0  0
  8  7  1  0  0  0  0
  8 13  1  0  0  0  0
  9  8  2  0  0  0  0
 10  5  1  0  0  0  0
 14  9  1  0  0  0  0
 14 15  2  0  0  0  0
 15 16  1  0  0  0  0
 17 18  1  0  0  0  0
 17 15  1  0  0  0  0
 19 21  2  0  0  0  0
 19 17  1  0  0  0  0
 20 19  1  0  0  0  0
 21 14  1  0  0  0  0
 23  1  1  0  0  0  0
 23 22  2  0  0  0  0
 24 29  2  0  0  0  0
 24 25  1  0  0  0  0
 25 26  2  0  0  0  0
 26 27  1  0  0  0  0
 26 32  1  0  0  0  0
 28 22  1  0  0  0  0
 28 27  2  0  0  0  0
 29 28  1  0  0  0  0
 30 24  1  0  0  0  0
 31 25  1  0  0  0  0
 32 36  2  0  0  0  0
 32 33  1  0  0  0  0
 33 37  1  0  0  0  0
 33 34  2  0  0  0  0
 34 38  1  0  0  0  0
 35 39  1  0  0  0  0
 35 34  1  0  0  0  0
 36 35  1  0  0  0  0
M  END
>  <minimizedAffinity>
-5.81965923

$$$$
