
 OpenBabel03272510133D

 40 43  0  0  0  0  0  0  0  0999 V2000
   38.2370   31.6190   48.9340 C   0  0  0  0  0  0  0  0  0  0  0  0
   38.4500   32.9140   49.4120 C   0  0  0  0  0  0  0  0  0  0  0  0
   39.1430   33.5990   48.4190 C   0  0  0  0  0  0  0  0  0  0  0  0
   39.3240   32.7490   47.4130 N   0  0  0  0  0  0  0  0  0  0  0  0
   38.7900   31.5800   47.7150 N   0  0  0  0  0  0  0  0  0  0  0  0
   38.2030   33.4520   50.3360 H   0  0  0  0  0  0  0  0  0  0  0  0
   39.4900   34.6330   48.4210 H   0  0  0  0  0  0  0  0  0  0  0  0
   40.0020   33.0580   46.1770 C   0  0  0  0  0  0  0  0  0  0  0  0
   40.2040   34.1470   46.1680 H   0  0  0  0  0  0  0  0  0  0  0  0
   40.9320   32.4590   46.1360 H   0  0  0  0  0  0  0  0  0  0  0  0
   39.0680   32.7190   45.0330 C   0  0  0  0  0  0  0  0  0  0  0  0
   38.0470   32.6620   45.4260 H   0  0  0  0  0  0  0  0  0  0  0  0
   39.0970   33.5830   44.3260 H   0  0  0  0  0  0  0  0  0  0  0  0
   39.4560   31.4450   44.3760 C   0  0  0  0  0  0  0  0  0  0  0  0
   39.2090   30.1030   44.5080 C   0  0  0  0  0  0  0  0  0  0  0  0
   38.5420   29.8100   45.3080 H   0  0  0  0  0  0  0  0  0  0  0  0
   39.8850   29.4240   43.5680 N   0  0  0  0  0  0  0  0  0  0  0  0
   39.8380   28.4040   43.4920 H   0  0  0  0  0  0  0  0  0  0  0  0
   40.5540   30.3400   42.8490 C   0  0  0  0  0  0  0  0  0  0  0  0
   41.2010   30.0910   42.0020 H   0  0  0  0  0  0  0  0  0  0  0  0
   40.3050   31.5720   43.3240 N   0  0  0  0  0  0  0  0  0  0  0  0
   37.5540   30.8000   49.8070 O   0  0  0  0  0  0  0  0  0  0  0  0
   34.0490   28.8910   48.4330 C   0  0  0  0  0  0  0  0  0  0  0  0
   34.8030   28.3500   49.4380 C   0  0  0  0  0  0  0  0  0  0  0  0
   35.9560   28.9180   49.9360 C   0  0  0  0  0  0  0  0  0  0  0  0
   36.4190   30.0920   49.4290 C   0  0  0  0  0  0  0  0  0  0  0  0
   35.6520   30.6520   48.3980 C   0  0  0  0  0  0  0  0  0  0  0  0
   34.5250   30.0710   47.9310 N   0  0  0  0  0  0  0  0  0  0  0  0
   34.5180   27.4170   49.9090 H   0  0  0  0  0  0  0  0  0  0  0  0
   36.5510   28.4860   50.7330 H   0  0  0  0  0  0  0  0  0  0  0  0
   35.9450   31.5890   47.9330 H   0  0  0  0  0  0  0  0  0  0  0  0
   31.9410   27.5880   48.7010 C   0  0  0  0  0  0  0  0  0  0  0  0
   32.8610   28.2900   47.9250 C   0  0  0  0  0  0  0  0  0  0  0  0
   32.5840   28.3920   46.5820 C   0  0  0  0  0  0  0  0  0  0  0  0
   31.4500   27.8190   46.0620 N   0  0  0  0  0  0  0  0  0  0  0  0
   30.5930   27.1480   46.8690 C   0  0  0  0  0  0  0  0  0  0  0  0
   30.8230   27.0200   48.2040 N   0  0  0  0  0  0  0  0  0  0  0  0
   32.1210   27.4870   49.7600 H   0  0  0  0  0  0  0  0  0  0  0  0
   33.2650   28.9280   45.9220 H   0  0  0  0  0  0  0  0  0  0  0  0
   29.7030   26.7010   46.4450 H   0  0  0  0  0  0  0  0  0  0  0  0
  1  2  1  0  0  0  0
  1 22  1  0  0  0  0
  2  6  1  0  0  0  0
  3  7  1  0  0  0  0
  3  2  2  0  0  0  0
  4  5  1  0  0  0  0
  4  3  1  0  0  0  0
  5  1  2  0  0  0  0
  8  4  1  0  0  0  0
  9  8  1  0  0  0  0
 10  8  1  0  0  0  0
 11 12  1  0  0  0  0
 11  8  1  0  0  0  0
 13 11  1  0  0  0  0
 14 15  2  0  0  0  0
 14 11  1  0  0  0  0
 15 16  1  0  0  0  0
 17 15  1  0  0  0  0
 18 17  1  0  0  0  0
 19 21  2  0  0  0  0
 19 17  1  0  0  0  0
 20 19  1  0  0  0  0
 21 14  1  0  0  0  0
 23 24  1  0  0  0  0
 24 29  1  0  0  0  0
 24 25  2  0  0  0  0
 25 30  1  0  0  0  0
 26 22  1  0  0  0  0
 26 25  1  0  0  0  0
 27 26  2  0  0  0  0
 28 27  1  0  0  0  0
 28 23  2  0  0  0  0
 31 27  1  0  0  0  0
 32 38  1  0  0  0  0
 33 23  1  0  0  0  0
 33 32  2  0  0  0  0
 34 33  1  0  0  0  0
 35 34  2  0  0  0  0
 35 36  1  0  0  0  0
 36 37  2  0  0  0  0
 37 32  1  0  0  0  0
 39 34  1  0  0  0  0
 40 36  1  0  0  0  0
M  END
>  <minimizedAffinity>
-6.12894821

>  <minimizedRMSD>
1.9775852

$$$$
