
 OpenBabel03272510133D

 40 43  0  0  0  0  0  0  0  0999 V2000
   38.1780   31.5390   48.9360 C   0  0  0  0  0  0  0  0  0  0  0  0
   38.4100   32.8210   49.4400 C   0  0  0  0  0  0  0  0  0  0  0  0
   39.1040   33.5190   48.4580 C   0  0  0  0  0  0  0  0  0  0  0  0
   39.2690   32.6890   47.4330 N   0  0  0  0  0  0  0  0  0  0  0  0
   38.7240   31.5200   47.7130 N   0  0  0  0  0  0  0  0  0  0  0  0
   38.1730   33.3420   50.3770 H   0  0  0  0  0  0  0  0  0  0  0  0
   39.4630   34.5490   48.4800 H   0  0  0  0  0  0  0  0  0  0  0  0
   39.9440   33.0170   46.2000 C   0  0  0  0  0  0  0  0  0  0  0  0
   40.1290   34.1090   46.1980 H   0  0  0  0  0  0  0  0  0  0  0  0
   40.8830   32.4330   46.1550 H   0  0  0  0  0  0  0  0  0  0  0  0
   39.0150   32.6730   45.0520 C   0  0  0  0  0  0  0  0  0  0  0  0
   37.9960   32.5930   45.4450 H   0  0  0  0  0  0  0  0  0  0  0  0
   39.0280   33.5430   44.3540 H   0  0  0  0  0  0  0  0  0  0  0  0
   39.4270   31.4130   44.3830 C   0  0  0  0  0  0  0  0  0  0  0  0
   39.1890   30.0660   44.4910 C   0  0  0  0  0  0  0  0  0  0  0  0
   38.5110   29.7560   45.2730 H   0  0  0  0  0  0  0  0  0  0  0  0
   39.8870   29.4070   43.5530 N   0  0  0  0  0  0  0  0  0  0  0  0
   39.8510   28.3880   43.4610 H   0  0  0  0  0  0  0  0  0  0  0  0
   40.5620   30.3400   42.8590 C   0  0  0  0  0  0  0  0  0  0  0  0
   41.2250   30.1100   42.0220 H   0  0  0  0  0  0  0  0  0  0  0  0
   40.2930   31.5630   43.3500 N   0  0  0  0  0  0  0  0  0  0  0  0
   37.4920   30.7090   49.7950 O   0  0  0  0  0  0  0  0  0  0  0  0
   33.9630   28.8640   48.3950 C   0  0  0  0  0  0  0  0  0  0  0  0
   34.6980   28.3100   49.4080 C   0  0  0  0  0  0  0  0  0  0  0  0
   35.8580   28.8580   49.9140 C   0  0  0  0  0  0  0  0  0  0  0  0
   36.3460   30.0220   49.4090 C   0  0  0  0  0  0  0  0  0  0  0  0
   35.5990   30.5940   48.3700 C   0  0  0  0  0  0  0  0  0  0  0  0
   34.4650   30.0340   47.8950 N   0  0  0  0  0  0  0  0  0  0  0  0
   34.3920   27.3840   49.8780 H   0  0  0  0  0  0  0  0  0  0  0  0
   36.4370   28.4160   50.7170 H   0  0  0  0  0  0  0  0  0  0  0  0
   35.9130   31.5250   47.9060 H   0  0  0  0  0  0  0  0  0  0  0  0
   31.9460   27.4120   48.5890 C   0  0  0  0  0  0  0  0  0  0  0  0
   32.7680   28.2840   47.8780 C   0  0  0  0  0  0  0  0  0  0  0  0
   32.3820   28.5870   46.5940 C   0  0  0  0  0  0  0  0  0  0  0  0
   31.2380   28.0410   46.0660 N   0  0  0  0  0  0  0  0  0  0  0  0
   30.4800   27.1970   46.8080 C   0  0  0  0  0  0  0  0  0  0  0  0
   30.8210   26.8670   48.0830 N   0  0  0  0  0  0  0  0  0  0  0  0
   32.2140   27.1490   49.6000 H   0  0  0  0  0  0  0  0  0  0  0  0
   32.9830   29.2640   45.9870 H   0  0  0  0  0  0  0  0  0  0  0  0
   29.5810   26.7730   46.3780 H   0  0  0  0  0  0  0  0  0  0  0  0
  1  2  1  0  0  0  0
  1 22  1  0  0  0  0
  2  6  1  0  0  0  0
  3  7  1  0  0  0  0
  3  2  2  0  0  0  0
  4  5  1  0  0  0  0
  4  3  1  0  0  0  0
  5  1  2  0  0  0  0
  8  4  1  0  0  0  0
  9  8  1  0  0  0  0
 10  8  1  0  0  0  0
 11 12  1  0  0  0  0
 11  8  1  0  0  0  0
 13 11  1  0  0  0  0
 14 15  2  0  0  0  0
 14 11  1  0  0  0  0
 15 16  1  0  0  0  0
 17 15  1  0  0  0  0
 18 17  1  0  0  0  0
 19 21  2  0  0  0  0
 19 17  1  0  0  0  0
 20 19  1  0  0  0  0
 21 14  1  0  0  0  0
 23 24  1  0  0  0  0
 24 29  1  0  0  0  0
 24 25  2  0  0  0  0
 25 30  1  0  0  0  0
 26 22  1  0  0  0  0
 26 25  1  0  0  0  0
 27 26  2  0  0  0  0
 28 27  1  0  0  0  0
 28 23  2  0  0  0  0
 31 27  1  0  0  0  0
 32 38  1  0  0  0  0
 33 23  1  0  0  0  0
 33 32  2  0  0  0  0
 34 33  1  0  0  0  0
 35 34  2  0  0  0  0
 35 36  1  0  0  0  0
 36 37  2  0  0  0  0
 37 32  1  0  0  0  0
 39 34  1  0  0  0  0
 40 36  1  0  0  0  0
M  END
>  <minimizedAffinity>
-6.13001013

>  <minimizedRMSD>
2.02854657

$$$$
