
 OpenBabel03272510133D

 40 43  0  0  0  0  0  0  0  0999 V2000
   38.3870   31.6420   48.8620 C   0  0  0  0  0  0  0  0  0  0  0  0
   38.5310   32.9230   49.3990 C   0  0  0  0  0  0  0  0  0  0  0  0
   39.1850   33.6890   48.4390 C   0  0  0  0  0  0  0  0  0  0  0  0
   39.4090   32.8980   47.3950 N   0  0  0  0  0  0  0  0  0  0  0  0
   38.9400   31.6890   47.6420 N   0  0  0  0  0  0  0  0  0  0  0  0
   38.2560   33.4040   50.3460 H   0  0  0  0  0  0  0  0  0  0  0  0
   39.4750   34.7390   48.4890 H   0  0  0  0  0  0  0  0  0  0  0  0
   40.0690   33.2990   46.1760 C   0  0  0  0  0  0  0  0  0  0  0  0
   40.1530   34.4040   46.1880 H   0  0  0  0  0  0  0  0  0  0  0  0
   41.0580   32.8040   46.1400 H   0  0  0  0  0  0  0  0  0  0  0  0
   39.1920   32.8840   45.0110 C   0  0  0  0  0  0  0  0  0  0  0  0
   38.2370   32.5240   45.4080 H   0  0  0  0  0  0  0  0  0  0  0  0
   38.9740   33.8090   44.4250 H   0  0  0  0  0  0  0  0  0  0  0  0
   39.8500   31.8400   44.1840 C   0  0  0  0  0  0  0  0  0  0  0  0
   40.6820   30.7650   44.3580 C   0  0  0  0  0  0  0  0  0  0  0  0
   40.9960   30.5520   45.3700 H   0  0  0  0  0  0  0  0  0  0  0  0
   40.9320   30.1900   43.1690 N   0  0  0  0  0  0  0  0  0  0  0  0
   41.5350   29.3680   43.0770 H   0  0  0  0  0  0  0  0  0  0  0  0
   40.2560   30.9070   42.2550 C   0  0  0  0  0  0  0  0  0  0  0  0
   40.2630   30.6810   41.1840 H   0  0  0  0  0  0  0  0  0  0  0  0
   39.5940   31.9110   42.8530 N   0  0  0  0  0  0  0  0  0  0  0  0
   37.7510   30.7480   49.6950 O   0  0  0  0  0  0  0  0  0  0  0  0
   34.1870   28.9480   48.3240 C   0  0  0  0  0  0  0  0  0  0  0  0
   34.8990   28.4090   49.3590 C   0  0  0  0  0  0  0  0  0  0  0  0
   36.0690   28.9430   49.8580 C   0  0  0  0  0  0  0  0  0  0  0  0
   36.5910   30.0780   49.3200 C   0  0  0  0  0  0  0  0  0  0  0  0
   35.8670   30.6350   48.2580 C   0  0  0  0  0  0  0  0  0  0  0  0
   34.7220   30.0890   47.7910 N   0  0  0  0  0  0  0  0  0  0  0  0
   34.5670   27.5060   49.8550 H   0  0  0  0  0  0  0  0  0  0  0  0
   36.6310   28.5120   50.6790 H   0  0  0  0  0  0  0  0  0  0  0  0
   36.2080   31.5430   47.7670 H   0  0  0  0  0  0  0  0  0  0  0  0
   32.2050   27.4450   48.4930 C   0  0  0  0  0  0  0  0  0  0  0  0
   32.9810   28.3830   47.8150 C   0  0  0  0  0  0  0  0  0  0  0  0
   32.5370   28.7690   46.5720 C   0  0  0  0  0  0  0  0  0  0  0  0
   31.3820   28.2380   46.0530 N   0  0  0  0  0  0  0  0  0  0  0  0
   30.6710   27.3280   46.7620 C   0  0  0  0  0  0  0  0  0  0  0  0
   31.0690   26.9150   47.9950 N   0  0  0  0  0  0  0  0  0  0  0  0
   32.5200   27.1170   49.4720 H   0  0  0  0  0  0  0  0  0  0  0  0
   33.1000   29.4990   45.9920 H   0  0  0  0  0  0  0  0  0  0  0  0
   29.7620   26.9180   46.3400 H   0  0  0  0  0  0  0  0  0  0  0  0
  1  2  1  0  0  0  0
  1 22  1  0  0  0  0
  2  6  1  0  0  0  0
  3  7  1  0  0  0  0
  3  2  2  0  0  0  0
  4  5  1  0  0  0  0
  4  3  1  0  0  0  0
  5  1  2  0  0  0  0
  8  9  1  0  0  0  0
  8  4  1  0  0  0  0
 10  8  1  0  0  0  0
 11 12  1  0  0  0  0
 11  8  1  0  0  0  0
 13 11  1  0  0  0  0
 14 15  2  0  0  0  0
 14 11  1  0  0  0  0
 15 16  1  0  0  0  0
 17 15  1  0  0  0  0
 18 17  1  0  0  0  0
 19 21  2  0  0  0  0
 19 17  1  0  0  0  0
 20 19  1  0  0  0  0
 21 14  1  0  0  0  0
 23 24  1  0  0  0  0
 24 29  1  0  0  0  0
 24 25  2  0  0  0  0
 25 30  1  0  0  0  0
 26 22  1  0  0  0  0
 26 25  1  0  0  0  0
 27 26  2  0  0  0  0
 28 27  1  0  0  0  0
 28 23  2  0  0  0  0
 31 27  1  0  0  0  0
 32 38  1  0  0  0  0
 33 23  1  0  0  0  0
 33 32  2  0  0  0  0
 34 33  1  0  0  0  0
 35 34  2  0  0  0  0
 35 36  1  0  0  0  0
 36 37  2  0  0  0  0
 37 32  1  0  0  0  0
 39 34  1  0  0  0  0
 40 36  1  0  0  0  0
M  END
>  <minimizedAffinity>
-6.05702448

>  <minimizedRMSD>
2.0104754

$$$$
