
 OpenBabel03262521423D

 42 46  0  0  0  0  0  0  0  0999 V2000
   40.1780   25.6710   34.5910 C   0  0  0  0  0  0  0  0  0  0  0  0
   40.6640   26.7400   33.8860 N   0  0  0  0  0  0  0  0  0  0  0  0
   42.0040   26.9220   33.7860 C   0  0  0  0  0  0  0  0  0  0  0  0
   42.9010   26.1020   34.3480 N   0  0  0  0  0  0  0  0  0  0  0  0
   42.4810   25.0390   35.0490 C   0  0  0  0  0  0  0  0  0  0  0  0
   43.4000   24.2070   35.6400 C   0  0  0  0  0  0  0  0  0  0  0  0
   42.9730   23.1120   36.3840 C   0  0  0  0  0  0  0  0  0  0  0  0
   41.6040   22.8780   36.5140 C   0  0  0  0  0  0  0  0  0  0  0  0
   40.7060   23.7540   35.8920 C   0  0  0  0  0  0  0  0  0  0  0  0
   41.1100   24.8280   35.1660 C   0  0  0  0  0  0  0  0  0  0  0  0
   42.4060   27.7550   33.2370 H   0  0  0  0  0  0  0  0  0  0  0  0
   44.4380   24.4390   35.5020 H   0  0  0  0  0  0  0  0  0  0  0  0
   43.7710   22.5200   36.8090 H   0  0  0  0  0  0  0  0  0  0  0  0
   41.4380   22.0060   37.1110 H   0  0  0  0  0  0  0  0  0  0  0  0
   39.3750   23.2450   36.1750 C   0  0  0  0  0  0  0  0  0  0  0  0
   38.5780   22.2550   35.6010 C   0  0  0  0  0  0  0  0  0  0  0  0
   38.8660   21.6870   34.7020 H   0  0  0  0  0  0  0  0  0  0  0  0
   37.4330   22.0350   36.2600 N   0  0  0  0  0  0  0  0  0  0  0  0
   36.7120   21.3350   35.9800 H   0  0  0  0  0  0  0  0  0  0  0  0
   37.4710   22.8950   37.2890 C   0  0  0  0  0  0  0  0  0  0  0  0
   36.6840   22.9770   38.0290 H   0  0  0  0  0  0  0  0  0  0  0  0
   38.5960   23.5880   37.2330 N   0  0  0  0  0  0  0  0  0  0  0  0
   38.4790   25.3130   34.8530 S   0  0  0  0  0  0  0  0  0  0  0  0
   37.3260   27.8480   33.9490 F   0  0  0  0  0  0  0  0  0  0  0  0
   36.9980   26.8170   33.0990 C   0  0  0  0  0  0  0  0  0  0  0  0
   36.2180   27.0390   31.9830 C   0  0  0  0  0  0  0  0  0  0  0  0
   35.9070   25.9600   31.1470 C   0  0  0  0  0  0  0  0  0  0  0  0
   36.3740   24.6800   31.4310 C   0  0  0  0  0  0  0  0  0  0  0  0
   37.1520   24.5310   32.5670 C   0  0  0  0  0  0  0  0  0  0  0  0
   37.4730   25.5720   33.4050 C   0  0  0  0  0  0  0  0  0  0  0  0
   35.2940   26.1830   30.2870 H   0  0  0  0  0  0  0  0  0  0  0  0
   36.1160   23.8690   30.7650 H   0  0  0  0  0  0  0  0  0  0  0  0
   37.4830   23.5150   32.7280 H   0  0  0  0  0  0  0  0  0  0  0  0
   36.4890   29.0830   30.8110 C   0  0  0  0  0  0  0  0  0  0  0  0
   35.7760   28.3740   31.7550 C   0  0  0  0  0  0  0  0  0  0  0  0
   34.7040   29.0320   32.3810 C   0  0  0  0  0  0  0  0  0  0  0  0
   34.4340   30.3210   32.0250 N   0  0  0  0  0  0  0  0  0  0  0  0
   35.1440   30.9620   31.1160 C   0  0  0  0  0  0  0  0  0  0  0  0
   36.1670   30.3640   30.5020 N   0  0  0  0  0  0  0  0  0  0  0  0
   37.3440   28.7330   30.2310 H   0  0  0  0  0  0  0  0  0  0  0  0
   34.1770   28.4470   33.1060 H   0  0  0  0  0  0  0  0  0  0  0  0
   34.8370   31.9820   30.9130 H   0  0  0  0  0  0  0  0  0  0  0  0
  1 23  1  0  0  0  0
  1 10  1  0  0  0  0
  2  1  2  0  0  0  0
  3  2  1  0  0  0  0
  3  4  2  0  0  0  0
  4  5  1  0  0  0  0
  5 10  2  0  0  0  0
  5  6  1  0  0  0  0
  6  7  2  0  0  0  0
  7  8  1  0  0  0  0
  7 13  1  0  0  0  0
  8 14  1  0  0  0  0
  9 15  1  0  0  0  0
  9  8  2  0  0  0  0
 10  9  1  0  0  0  0
 11  3  1  0  0  0  0
 12  6  1  0  0  0  0
 15 22  1  0  0  0  0
 16 15  2  0  0  0  0
 16 18  1  0  0  0  0
 17 16  1  0  0  0  0
 18 20  1  0  0  0  0
 19 18  1  0  0  0  0
 20 21  1  0  0  0  0
 22 20  2  0  0  0  0
 25 30  1  0  0  0  0
 25 24  1  0  0  0  0
 26 25  2  0  0  0  0
 27 28  2  0  0  0  0
 27 26  1  0  0  0  0
 28 29  1  0  0  0  0
 29 33  1  0  0  0  0
 29 30  2  0  0  0  0
 30 23  1  0  0  0  0
 31 27  1  0  0  0  0
 32 28  1  0  0  0  0
 34 35  1  0  0  0  0
 35 26  1  0  0  0  0
 35 36  2  0  0  0  0
 36 41  1  0  0  0  0
 37 36  1  0  0  0  0
 38 37  2  0  0  0  0
 39 34  2  0  0  0  0
 39 38  1  0  0  0  0
 40 34  1  0  0  0  0
 42 38  1  0  0  0  0
M  END
>  <minimizedAffinity>
-6.40742302

$$$$

 OpenBabel03262521423D

 42 46  0  0  0  0  0  0  0  0999 V2000
   38.7620   24.5160   35.6150 C   0  0  0  0  0  0  0  0  0  0  0  0
   37.7220   24.6740   36.4910 N   0  0  0  0  0  0  0  0  0  0  0  0
   37.7340   24.0040   37.6700 C   0  0  0  0  0  0  0  0  0  0  0  0
   38.7220   23.1790   38.0370 N   0  0  0  0  0  0  0  0  0  0  0  0
   39.7660   22.9880   37.2170 C   0  0  0  0  0  0  0  0  0  0  0  0
   40.7720   22.1280   37.5860 C   0  0  0  0  0  0  0  0  0  0  0  0
   41.8500   21.9100   36.7340 C   0  0  0  0  0  0  0  0  0  0  0  0
   41.8880   22.5790   35.5100 C   0  0  0  0  0  0  0  0  0  0  0  0
   40.8390   23.4460   35.1800 C   0  0  0  0  0  0  0  0  0  0  0  0
   39.7800   23.6650   36.0020 C   0  0  0  0  0  0  0  0  0  0  0  0
   36.9270   24.1140   38.3730 H   0  0  0  0  0  0  0  0  0  0  0  0
   40.6870   21.6450   38.5390 H   0  0  0  0  0  0  0  0  0  0  0  0
   42.5880   21.2170   37.1120 H   0  0  0  0  0  0  0  0  0  0  0  0
   42.7730   22.3080   34.9740 H   0  0  0  0  0  0  0  0  0  0  0  0
   41.1670   24.0090   33.8820 C   0  0  0  0  0  0  0  0  0  0  0  0
   41.8040   25.1800   33.4700 C   0  0  0  0  0  0  0  0  0  0  0  0
   42.1410   25.9660   34.1650 H   0  0  0  0  0  0  0  0  0  0  0  0
   41.9950   25.2530   32.1460 N   0  0  0  0  0  0  0  0  0  0  0  0
   42.4520   26.0510   31.6560 H   0  0  0  0  0  0  0  0  0  0  0  0
   41.4750   24.1110   31.6720 C   0  0  0  0  0  0  0  0  0  0  0  0
   41.4660   23.8500   30.6210 H   0  0  0  0  0  0  0  0  0  0  0  0
   41.0000   23.3990   32.6800 N   0  0  0  0  0  0  0  0  0  0  0  0
   38.8850   25.2740   34.0350 S   0  0  0  0  0  0  0  0  0  0  0  0
   38.0770   22.5470   33.3390 F   0  0  0  0  0  0  0  0  0  0  0  0
   37.3040   23.4810   32.6880 C   0  0  0  0  0  0  0  0  0  0  0  0
   36.2940   23.0920   31.8310 C   0  0  0  0  0  0  0  0  0  0  0  0
   35.5350   24.0770   31.1880 C   0  0  0  0  0  0  0  0  0  0  0  0
   35.7870   25.4280   31.4050 C   0  0  0  0  0  0  0  0  0  0  0  0
   36.8150   25.7450   32.2780 C   0  0  0  0  0  0  0  0  0  0  0  0
   37.5760   24.8000   32.9220 C   0  0  0  0  0  0  0  0  0  0  0  0
   34.7570   23.7240   30.5270 H   0  0  0  0  0  0  0  0  0  0  0  0
   35.1820   26.1620   30.8920 H   0  0  0  0  0  0  0  0  0  0  0  0
   36.9560   26.8090   32.4030 H   0  0  0  0  0  0  0  0  0  0  0  0
   35.0990   21.1350   32.4350 C   0  0  0  0  0  0  0  0  0  0  0  0
   36.0930   21.6930   31.6570 C   0  0  0  0  0  0  0  0  0  0  0  0
   36.7890   20.8360   30.7890 C   0  0  0  0  0  0  0  0  0  0  0  0
   36.4480   19.5150   30.7650 N   0  0  0  0  0  0  0  0  0  0  0  0
   35.4890   19.0240   31.5270 C   0  0  0  0  0  0  0  0  0  0  0  0
   34.8080   19.8120   32.3620 N   0  0  0  0  0  0  0  0  0  0  0  0
   34.4620   21.6460   33.1580 H   0  0  0  0  0  0  0  0  0  0  0  0
   37.5510   21.3080   30.2040 H   0  0  0  0  0  0  0  0  0  0  0  0
   35.3040   17.9600   31.4230 H   0  0  0  0  0  0  0  0  0  0  0  0
  1 10  2  0  0  0  0
  1  2  1  0  0  0  0
  2  3  2  0  0  0  0
  3  4  1  0  0  0  0
  3 11  1  0  0  0  0
  5  6  1  0  0  0  0
  5  4  2  0  0  0  0
  6 12  1  0  0  0  0
  7 13  1  0  0  0  0
  7  6  2  0  0  0  0
  8  7  1  0  0  0  0
  9  8  2  0  0  0  0
  9 10  1  0  0  0  0
 10  5  1  0  0  0  0
 14  8  1  0  0  0  0
 15  9  1  0  0  0  0
 16 15  2  0  0  0  0
 16 17  1  0  0  0  0
 18 16  1  0  0  0  0
 19 18  1  0  0  0  0
 20 18  1  0  0  0  0
 20 22  2  0  0  0  0
 21 20  1  0  0  0  0
 22 15  1  0  0  0  0
 23  1  1  0  0  0  0
 25 30  1  0  0  0  0
 25 24  1  0  0  0  0
 26 25  2  0  0  0  0
 27 28  2  0  0  0  0
 27 26  1  0  0  0  0
 28 29  1  0  0  0  0
 29 33  1  0  0  0  0
 29 30  2  0  0  0  0
 30 23  1  0  0  0  0
 31 27  1  0  0  0  0
 32 28  1  0  0  0  0
 34 40  1  0  0  0  0
 35 26  1  0  0  0  0
 35 34  2  0  0  0  0
 36 35  1  0  0  0  0
 37 36  2  0  0  0  0
 37 38  1  0  0  0  0
 38 39  2  0  0  0  0
 39 34  1  0  0  0  0
 41 36  1  0  0  0  0
 42 38  1  0  0  0  0
M  END
>  <minimizedAffinity>
-6.38352728

$$$$

 OpenBabel03262521423D

 42 46  0  0  0  0  0  0  0  0999 V2000
   40.4810   25.9080   34.4600 C   0  0  0  0  0  0  0  0  0  0  0  0
   41.0280   26.9840   33.8120 N   0  0  0  0  0  0  0  0  0  0  0  0
   42.3760   27.1250   33.7720 C   0  0  0  0  0  0  0  0  0  0  0  0
   43.2230   26.2600   34.3410 N   0  0  0  0  0  0  0  0  0  0  0  0
   42.7420   25.1880   34.9890 C   0  0  0  0  0  0  0  0  0  0  0  0
   43.6100   24.3070   35.5870 C   0  0  0  0  0  0  0  0  0  0  0  0
   43.1190   23.2030   36.2750 C   0  0  0  0  0  0  0  0  0  0  0  0
   41.7400   23.0090   36.3420 C   0  0  0  0  0  0  0  0  0  0  0  0
   40.8950   23.9330   35.7140 C   0  0  0  0  0  0  0  0  0  0  0  0
   41.3620   25.0170   35.0430 C   0  0  0  0  0  0  0  0  0  0  0  0
   42.8260   27.9630   33.2690 H   0  0  0  0  0  0  0  0  0  0  0  0
   44.6600   24.5100   35.4990 H   0  0  0  0  0  0  0  0  0  0  0  0
   43.8810   22.5710   36.7120 H   0  0  0  0  0  0  0  0  0  0  0  0
   41.5220   22.1240   36.9010 H   0  0  0  0  0  0  0  0  0  0  0  0
   39.5390   23.4580   35.9270 C   0  0  0  0  0  0  0  0  0  0  0  0
   38.7130   22.5620   35.2480 C   0  0  0  0  0  0  0  0  0  0  0  0
   38.9960   22.0700   34.3040 H   0  0  0  0  0  0  0  0  0  0  0  0
   37.5460   22.3320   35.8640 N   0  0  0  0  0  0  0  0  0  0  0  0
   36.8030   21.6930   35.5080 H   0  0  0  0  0  0  0  0  0  0  0  0
   37.6000   23.0880   36.9710 C   0  0  0  0  0  0  0  0  0  0  0  0
   36.8020   23.1340   37.7020 H   0  0  0  0  0  0  0  0  0  0  0  0
   38.7530   23.7340   36.9990 N   0  0  0  0  0  0  0  0  0  0  0  0
   38.7620   25.5960   34.6400 S   0  0  0  0  0  0  0  0  0  0  0  0
   37.1490   27.7620   35.7720 F   0  0  0  0  0  0  0  0  0  0  0  0
   37.0350   27.7150   34.4020 C   0  0  0  0  0  0  0  0  0  0  0  0
   36.2370   28.6160   33.7260 C   0  0  0  0  0  0  0  0  0  0  0  0
   36.1490   28.5290   32.3310 C   0  0  0  0  0  0  0  0  0  0  0  0
   36.8530   27.5540   31.6300 C   0  0  0  0  0  0  0  0  0  0  0  0
   37.6340   26.6840   32.3740 C   0  0  0  0  0  0  0  0  0  0  0  0
   37.7390   26.7460   33.7430 C   0  0  0  0  0  0  0  0  0  0  0  0
   35.5130   29.2550   31.8470 H   0  0  0  0  0  0  0  0  0  0  0  0
   36.7620   27.5160   30.5540 H   0  0  0  0  0  0  0  0  0  0  0  0
   38.1540   25.9550   31.7700 H   0  0  0  0  0  0  0  0  0  0  0  0
   34.1730   29.4720   34.5190 C   0  0  0  0  0  0  0  0  0  0  0  0
   35.5480   29.5860   34.5070 C   0  0  0  0  0  0  0  0  0  0  0  0
   36.1130   30.6300   35.2580 C   0  0  0  0  0  0  0  0  0  0  0  0
   35.2810   31.4630   35.9470 N   0  0  0  0  0  0  0  0  0  0  0  0
   33.9690   31.3170   35.9290 C   0  0  0  0  0  0  0  0  0  0  0  0
   33.4010   30.3340   35.2260 N   0  0  0  0  0  0  0  0  0  0  0  0
   33.5690   28.7280   33.9980 H   0  0  0  0  0  0  0  0  0  0  0  0
   37.1820   30.6830   35.2230 H   0  0  0  0  0  0  0  0  0  0  0  0
   33.4070   32.0370   36.5140 H   0  0  0  0  0  0  0  0  0  0  0  0
  1 23  1  0  0  0  0
  1 10  1  0  0  0  0
  2  1  2  0  0  0  0
  3  2  1  0  0  0  0
  3  4  2  0  0  0  0
  4  5  1  0  0  0  0
  5 10  2  0  0  0  0
  5  6  1  0  0  0  0
  6  7  2  0  0  0  0
  7  8  1  0  0  0  0
  7 13  1  0  0  0  0
  8 14  1  0  0  0  0
  9 15  1  0  0  0  0
  9  8  2  0  0  0  0
 10  9  1  0  0  0  0
 11  3  1  0  0  0  0
 12  6  1  0  0  0  0
 15 22  1  0  0  0  0
 16 18  1  0  0  0  0
 16 15  2  0  0  0  0
 17 16  1  0  0  0  0
 18 20  1  0  0  0  0
 19 18  1  0  0  0  0
 20 22  2  0  0  0  0
 20 21  1  0  0  0  0
 25 24  1  0  0  0  0
 26 25  2  0  0  0  0
 26 35  1  0  0  0  0
 27 26  1  0  0  0  0
 28 27  2  0  0  0  0
 28 29  1  0  0  0  0
 29 30  2  0  0  0  0
 30 25  1  0  0  0  0
 30 23  1  0  0  0  0
 31 27  1  0  0  0  0
 32 28  1  0  0  0  0
 33 29  1  0  0  0  0
 34 39  1  0  0  0  0
 35 34  2  0  0  0  0
 35 36  1  0  0  0  0
 36 37  2  0  0  0  0
 38 37  1  0  0  0  0
 38 42  1  0  0  0  0
 39 38  2  0  0  0  0
 40 34  1  0  0  0  0
 41 36  1  0  0  0  0
M  END
>  <minimizedAffinity>
-6.30923796

$$$$

 OpenBabel03262521423D

 42 46  0  0  0  0  0  0  0  0999 V2000
   36.7160   25.6580   32.0790 C   0  0  0  0  0  0  0  0  0  0  0  0
   35.6950   25.6230   31.1660 N   0  0  0  0  0  0  0  0  0  0  0  0
   35.1420   24.4330   30.8270 C   0  0  0  0  0  0  0  0  0  0  0  0
   35.5420   23.2630   31.3400 N   0  0  0  0  0  0  0  0  0  0  0  0
   36.5380   23.2380   32.2380 C   0  0  0  0  0  0  0  0  0  0  0  0
   36.9600   22.0370   32.7530 C   0  0  0  0  0  0  0  0  0  0  0  0
   38.0030   22.0000   33.6730 C   0  0  0  0  0  0  0  0  0  0  0  0
   38.6040   23.1980   34.0580 C   0  0  0  0  0  0  0  0  0  0  0  0
   38.1370   24.3980   33.5070 C   0  0  0  0  0  0  0  0  0  0  0  0
   37.1220   24.4460   32.6060 C   0  0  0  0  0  0  0  0  0  0  0  0
   34.3400   24.3830   30.1120 H   0  0  0  0  0  0  0  0  0  0  0  0
   36.4580   21.1510   32.4190 H   0  0  0  0  0  0  0  0  0  0  0  0
   38.2630   21.0090   34.0170 H   0  0  0  0  0  0  0  0  0  0  0  0
   39.3840   23.0050   34.7650 H   0  0  0  0  0  0  0  0  0  0  0  0
   38.9220   25.4600   34.1120 C   0  0  0  0  0  0  0  0  0  0  0  0
   38.7310   26.2940   35.2130 C   0  0  0  0  0  0  0  0  0  0  0  0
   37.8130   26.2970   35.8220 H   0  0  0  0  0  0  0  0  0  0  0  0
   39.7830   27.0790   35.4840 N   0  0  0  0  0  0  0  0  0  0  0  0
   39.8240   27.7660   36.2670 H   0  0  0  0  0  0  0  0  0  0  0  0
   40.6860   26.7590   34.5450 C   0  0  0  0  0  0  0  0  0  0  0  0
   41.6650   27.2180   34.4770 H   0  0  0  0  0  0  0  0  0  0  0  0
   40.1820   25.8240   33.7580 N   0  0  0  0  0  0  0  0  0  0  0  0
   37.5680   27.1040   32.5980 S   0  0  0  0  0  0  0  0  0  0  0  0
   36.3560   28.5410   34.8420 F   0  0  0  0  0  0  0  0  0  0  0  0
   36.0680   29.1500   33.6420 C   0  0  0  0  0  0  0  0  0  0  0  0
   35.2950   30.2930   33.5940 C   0  0  0  0  0  0  0  0  0  0  0  0
   35.0250   30.8760   32.3500 C   0  0  0  0  0  0  0  0  0  0  0  0
   35.5240   30.3190   31.1770 C   0  0  0  0  0  0  0  0  0  0  0  0
   36.2920   29.1730   31.3000 C   0  0  0  0  0  0  0  0  0  0  0  0
   36.5730   28.5790   32.5070 C   0  0  0  0  0  0  0  0  0  0  0  0
   34.4160   31.7680   32.3640 H   0  0  0  0  0  0  0  0  0  0  0  0
   35.2960   30.7950   30.2340 H   0  0  0  0  0  0  0  0  0  0  0  0
   36.6490   28.7940   30.3530 H   0  0  0  0  0  0  0  0  0  0  0  0
   33.5250   30.4600   35.1640 C   0  0  0  0  0  0  0  0  0  0  0  0
   34.8190   30.8070   34.8340 C   0  0  0  0  0  0  0  0  0  0  0  0
   35.5210   31.6160   35.7430 C   0  0  0  0  0  0  0  0  0  0  0  0
   34.8900   32.0090   36.8860 N   0  0  0  0  0  0  0  0  0  0  0  0
   33.6490   31.6540   37.1620 C   0  0  0  0  0  0  0  0  0  0  0  0
   32.9560   30.8840   36.3190 N   0  0  0  0  0  0  0  0  0  0  0  0
   32.8390   29.8430   34.5820 H   0  0  0  0  0  0  0  0  0  0  0  0
   36.5210   31.8620   35.4500 H   0  0  0  0  0  0  0  0  0  0  0  0
   33.2500   32.0250   38.1000 H   0  0  0  0  0  0  0  0  0  0  0  0
  1 23  1  0  0  0  0
  1 10  1  0  0  0  0
  2  1  2  0  0  0  0
  3  2  1  0  0  0  0
  3  4  2  0  0  0  0
  4  5  1  0  0  0  0
  5 10  2  0  0  0  0
  5  6  1  0  0  0  0
  6  7  2  0  0  0  0
  7 13  1  0  0  0  0
  7  8  1  0  0  0  0
  8 14  1  0  0  0  0
  9  8  2  0  0  0  0
  9 15  1  0  0  0  0
 10  9  1  0  0  0  0
 11  3  1  0  0  0  0
 12  6  1  0  0  0  0
 15 16  2  0  0  0  0
 16 18  1  0  0  0  0
 16 17  1  0  0  0  0
 18 19  1  0  0  0  0
 20 18  1  0  0  0  0
 21 20  1  0  0  0  0
 22 15  1  0  0  0  0
 22 20  2  0  0  0  0
 25 24  1  0  0  0  0
 26 25  1  0  0  0  0
 26 35  1  0  0  0  0
 27 31  1  0  0  0  0
 27 26  2  0  0  0  0
 28 29  2  0  0  0  0
 28 27  1  0  0  0  0
 29 30  1  0  0  0  0
 30 23  1  0  0  0  0
 30 25  2  0  0  0  0
 32 28  1  0  0  0  0
 33 29  1  0  0  0  0
 34 39  1  0  0  0  0
 35 34  2  0  0  0  0
 35 36  1  0  0  0  0
 36 37  2  0  0  0  0
 37 38  1  0  0  0  0
 38 42  1  0  0  0  0
 39 38  2  0  0  0  0
 40 34  1  0  0  0  0
 41 36  1  0  0  0  0
M  END
>  <minimizedAffinity>
-6.30405426

$$$$

 OpenBabel03262521423D

 42 46  0  0  0  0  0  0  0  0999 V2000
   40.4990   24.7750   34.4330 C   0  0  0  0  0  0  0  0  0  0  0  0
   41.1670   25.4870   33.4730 N   0  0  0  0  0  0  0  0  0  0  0  0
   42.5020   25.3090   33.3170 C   0  0  0  0  0  0  0  0  0  0  0  0
   43.2230   24.4620   34.0610 N   0  0  0  0  0  0  0  0  0  0  0  0
   42.6200   23.7390   35.0160 C   0  0  0  0  0  0  0  0  0  0  0  0
   43.3610   22.8810   35.7910 C   0  0  0  0  0  0  0  0  0  0  0  0
   42.7460   22.1400   36.7950 C   0  0  0  0  0  0  0  0  0  0  0  0
   41.3730   22.2830   36.9940 C   0  0  0  0  0  0  0  0  0  0  0  0
   40.6600   23.1690   36.1770 C   0  0  0  0  0  0  0  0  0  0  0  0
   41.2500   23.9000   35.1960 C   0  0  0  0  0  0  0  0  0  0  0  0
   43.0470   25.8590   32.5690 H   0  0  0  0  0  0  0  0  0  0  0  0
   44.4120   22.8130   35.5890 H   0  0  0  0  0  0  0  0  0  0  0  0
   43.4140   21.4960   37.3510 H   0  0  0  0  0  0  0  0  0  0  0  0
   41.0530   21.6520   37.7960 H   0  0  0  0  0  0  0  0  0  0  0  0
   39.2710   23.0830   36.5940 C   0  0  0  0  0  0  0  0  0  0  0  0
   38.2050   22.2590   36.2330 C   0  0  0  0  0  0  0  0  0  0  0  0
   38.2650   21.4980   35.4390 H   0  0  0  0  0  0  0  0  0  0  0  0
   37.0980   22.4600   36.9620 N   0  0  0  0  0  0  0  0  0  0  0  0
   36.2030   21.9400   36.8370 H   0  0  0  0  0  0  0  0  0  0  0  0
   37.4380   23.4330   37.8200 C   0  0  0  0  0  0  0  0  0  0  0  0
   36.7600   23.8390   38.5620 H   0  0  0  0  0  0  0  0  0  0  0  0
   38.6930   23.7860   37.6010 N   0  0  0  0  0  0  0  0  0  0  0  0
   38.7860   24.9140   34.7940 S   0  0  0  0  0  0  0  0  0  0  0  0
   38.3640   22.3750   33.3990 F   0  0  0  0  0  0  0  0  0  0  0  0
   37.6360   23.3910   32.8230 C   0  0  0  0  0  0  0  0  0  0  0  0
   36.8330   23.1530   31.7250 C   0  0  0  0  0  0  0  0  0  0  0  0
   36.1130   24.2170   31.1700 C   0  0  0  0  0  0  0  0  0  0  0  0
   36.1990   25.4970   31.7100 C   0  0  0  0  0  0  0  0  0  0  0  0
   37.0240   25.6620   32.8120 C   0  0  0  0  0  0  0  0  0  0  0  0
   37.7420   24.6360   33.3770 C   0  0  0  0  0  0  0  0  0  0  0  0
   35.4990   23.9830   30.3130 H   0  0  0  0  0  0  0  0  0  0  0  0
   35.6300   26.2960   31.2570 H   0  0  0  0  0  0  0  0  0  0  0  0
   37.0440   26.6760   33.1820 H   0  0  0  0  0  0  0  0  0  0  0  0
   35.6810   21.0850   31.5820 C   0  0  0  0  0  0  0  0  0  0  0  0
   36.7940   21.8200   31.2260 C   0  0  0  0  0  0  0  0  0  0  0  0
   37.7530   21.1860   30.4200 C   0  0  0  0  0  0  0  0  0  0  0  0
   37.5340   19.8940   30.0400 N   0  0  0  0  0  0  0  0  0  0  0  0
   36.4550   19.2280   30.4050 C   0  0  0  0  0  0  0  0  0  0  0  0
   35.5240   19.8030   31.1700 N   0  0  0  0  0  0  0  0  0  0  0  0
   34.8430   21.4140   32.1980 H   0  0  0  0  0  0  0  0  0  0  0  0
   38.6000   21.7900   30.1660 H   0  0  0  0  0  0  0  0  0  0  0  0
   36.3870   18.2080   30.0440 H   0  0  0  0  0  0  0  0  0  0  0  0
  1 23  1  0  0  0  0
  1 10  1  0  0  0  0
  2  1  2  0  0  0  0
  3  2  1  0  0  0  0
  3  4  2  0  0  0  0
  4  5  1  0  0  0  0
  5 10  2  0  0  0  0
  5  6  1  0  0  0  0
  6  7  2  0  0  0  0
  7  8  1  0  0  0  0
  7 13  1  0  0  0  0
  8 14  1  0  0  0  0
  9 15  1  0  0  0  0
  9  8  2  0  0  0  0
 10  9  1  0  0  0  0
 11  3  1  0  0  0  0
 12  6  1  0  0  0  0
 15 22  1  0  0  0  0
 16 15  2  0  0  0  0
 16 18  1  0  0  0  0
 17 16  1  0  0  0  0
 18 20  1  0  0  0  0
 19 18  1  0  0  0  0
 20 21  1  0  0  0  0
 22 20  2  0  0  0  0
 25 30  1  0  0  0  0
 25 24  1  0  0  0  0
 26 25  2  0  0  0  0
 27 28  2  0  0  0  0
 27 26  1  0  0  0  0
 28 29  1  0  0  0  0
 29 33  1  0  0  0  0
 29 30  2  0  0  0  0
 30 23  1  0  0  0  0
 31 27  1  0  0  0  0
 32 28  1  0  0  0  0
 34 40  1  0  0  0  0
 35 34  1  0  0  0  0
 35 26  1  0  0  0  0
 36 35  2  0  0  0  0
 37 38  2  0  0  0  0
 37 36  1  0  0  0  0
 38 39  1  0  0  0  0
 39 34  2  0  0  0  0
 41 36  1  0  0  0  0
 42 38  1  0  0  0  0
M  END
>  <minimizedAffinity>
-5.99856329

$$$$

 OpenBabel03262521423D

 42 46  0  0  0  0  0  0  0  0999 V2000
   39.1080   24.5930   35.6430 C   0  0  0  0  0  0  0  0  0  0  0  0
   37.9980   24.7750   36.4230 N   0  0  0  0  0  0  0  0  0  0  0  0
   37.8470   24.0400   37.5520 C   0  0  0  0  0  0  0  0  0  0  0  0
   38.7370   23.1280   37.9610 N   0  0  0  0  0  0  0  0  0  0  0  0
   39.8430   22.9090   37.2350 C   0  0  0  0  0  0  0  0  0  0  0  0
   40.7490   21.9610   37.6440 C   0  0  0  0  0  0  0  0  0  0  0  0
   41.8910   21.7150   36.8880 C   0  0  0  0  0  0  0  0  0  0  0  0
   42.0950   22.4470   35.7190 C   0  0  0  0  0  0  0  0  0  0  0  0
   41.1440   23.4050   35.3440 C   0  0  0  0  0  0  0  0  0  0  0  0
   40.0240   23.6510   36.0720 C   0  0  0  0  0  0  0  0  0  0  0  0
   36.9810   24.1670   38.1800 H   0  0  0  0  0  0  0  0  0  0  0  0
   40.5370   21.4320   38.5520 H   0  0  0  0  0  0  0  0  0  0  0  0
   42.5400   20.9510   37.2920 H   0  0  0  0  0  0  0  0  0  0  0  0
   43.0100   22.1450   35.2540 H   0  0  0  0  0  0  0  0  0  0  0  0
   41.6370   24.0150   34.1220 C   0  0  0  0  0  0  0  0  0  0  0  0
   42.4630   25.1060   33.8530 C   0  0  0  0  0  0  0  0  0  0  0  0
   42.8620   25.7740   34.6330 H   0  0  0  0  0  0  0  0  0  0  0  0
   42.7520   25.2570   32.5530 N   0  0  0  0  0  0  0  0  0  0  0  0
   43.3520   26.0140   32.1630 H   0  0  0  0  0  0  0  0  0  0  0  0
   42.1050   24.2480   31.9510 C   0  0  0  0  0  0  0  0  0  0  0  0
   42.1300   24.0770   30.8810 H   0  0  0  0  0  0  0  0  0  0  0  0
   41.4650   23.5360   32.8630 N   0  0  0  0  0  0  0  0  0  0  0  0
   39.4380   25.4280   34.1330 S   0  0  0  0  0  0  0  0  0  0  0  0
   38.1290   27.8930   33.2500 F   0  0  0  0  0  0  0  0  0  0  0  0
   37.5020   26.7810   32.7370 C   0  0  0  0  0  0  0  0  0  0  0  0
   36.3980   26.9040   31.9180 C   0  0  0  0  0  0  0  0  0  0  0  0
   35.7910   25.7450   31.4210 C   0  0  0  0  0  0  0  0  0  0  0  0
   36.2850   24.4850   31.7440 C   0  0  0  0  0  0  0  0  0  0  0  0
   37.3960   24.4370   32.5710 C   0  0  0  0  0  0  0  0  0  0  0  0
   38.0120   25.5580   33.0730 C   0  0  0  0  0  0  0  0  0  0  0  0
   34.9310   25.8920   30.7840 H   0  0  0  0  0  0  0  0  0  0  0  0
   35.7920   23.6100   31.3440 H   0  0  0  0  0  0  0  0  0  0  0  0
   37.7290   23.4310   32.7810 H   0  0  0  0  0  0  0  0  0  0  0  0
   34.9450   28.7020   32.4480 C   0  0  0  0  0  0  0  0  0  0  0  0
   35.9480   28.2240   31.6300 C   0  0  0  0  0  0  0  0  0  0  0  0
   36.4130   29.0780   30.6160 C   0  0  0  0  0  0  0  0  0  0  0  0
   35.8530   30.3160   30.4980 N   0  0  0  0  0  0  0  0  0  0  0  0
   34.8940   30.7320   31.3040 C   0  0  0  0  0  0  0  0  0  0  0  0
   34.4310   29.9450   32.2780 N   0  0  0  0  0  0  0  0  0  0  0  0
   34.4680   28.1800   33.2790 H   0  0  0  0  0  0  0  0  0  0  0  0
   37.1920   28.6700   30.0040 H   0  0  0  0  0  0  0  0  0  0  0  0
   34.5240   31.7340   31.1170 H   0  0  0  0  0  0  0  0  0  0  0  0
  1 10  2  0  0  0  0
  1  2  1  0  0  0  0
  2  3  2  0  0  0  0
  3  4  1  0  0  0  0
  3 11  1  0  0  0  0
  5  6  1  0  0  0  0
  5  4  2  0  0  0  0
  6 12  1  0  0  0  0
  7 13  1  0  0  0  0
  7  6  2  0  0  0  0
  8  7  1  0  0  0  0
  9  8  2  0  0  0  0
  9 10  1  0  0  0  0
 10  5  1  0  0  0  0
 14  8  1  0  0  0  0
 15  9  1  0  0  0  0
 16 15  2  0  0  0  0
 16 17  1  0  0  0  0
 18 16  1  0  0  0  0
 19 18  1  0  0  0  0
 20 18  1  0  0  0  0
 20 22  2  0  0  0  0
 21 20  1  0  0  0  0
 22 15  1  0  0  0  0
 23  1  1  0  0  0  0
 25 30  1  0  0  0  0
 25 24  1  0  0  0  0
 26 25  2  0  0  0  0
 27 28  2  0  0  0  0
 27 26  1  0  0  0  0
 28 29  1  0  0  0  0
 29 33  1  0  0  0  0
 29 30  2  0  0  0  0
 30 23  1  0  0  0  0
 31 27  1  0  0  0  0
 32 28  1  0  0  0  0
 34 40  1  0  0  0  0
 35 26  1  0  0  0  0
 35 34  2  0  0  0  0
 36 35  1  0  0  0  0
 37 36  2  0  0  0  0
 37 38  1  0  0  0  0
 38 39  2  0  0  0  0
 39 34  1  0  0  0  0
 41 36  1  0  0  0  0
 42 38  1  0  0  0  0
M  END
>  <minimizedAffinity>
-5.96530771

$$$$

 OpenBabel03262521423D

 42 46  0  0  0  0  0  0  0  0999 V2000
   39.3020   27.1810   31.8790 C   0  0  0  0  0  0  0  0  0  0  0  0
   39.2200   27.5410   30.5610 N   0  0  0  0  0  0  0  0  0  0  0  0
   40.3490   27.8730   29.8870 C   0  0  0  0  0  0  0  0  0  0  0  0
   41.5660   27.8710   30.4440 N   0  0  0  0  0  0  0  0  0  0  0  0
   41.7050   27.5250   31.7320 C   0  0  0  0  0  0  0  0  0  0  0  0
   42.9510   27.5380   32.3100 C   0  0  0  0  0  0  0  0  0  0  0  0
   43.1020   27.1980   33.6500 C   0  0  0  0  0  0  0  0  0  0  0  0
   41.9720   26.8440   34.3880 C   0  0  0  0  0  0  0  0  0  0  0  0
   40.7240   26.8440   33.7540 C   0  0  0  0  0  0  0  0  0  0  0  0
   40.5630   27.1780   32.4470 C   0  0  0  0  0  0  0  0  0  0  0  0
   40.3060   28.1600   28.8500 H   0  0  0  0  0  0  0  0  0  0  0  0
   43.7810   27.8170   31.6910 H   0  0  0  0  0  0  0  0  0  0  0  0
   44.1210   27.2400   34.0120 H   0  0  0  0  0  0  0  0  0  0  0  0
   42.2510   26.6120   35.3940 H   0  0  0  0  0  0  0  0  0  0  0  0
   39.7590   26.4120   34.7500 C   0  0  0  0  0  0  0  0  0  0  0  0
   39.3410   25.1640   35.2100 C   0  0  0  0  0  0  0  0  0  0  0  0
   39.6930   24.2100   34.7870 H   0  0  0  0  0  0  0  0  0  0  0  0
   38.4860   25.2270   36.2400 N   0  0  0  0  0  0  0  0  0  0  0  0
   38.0660   24.3990   36.7150 H   0  0  0  0  0  0  0  0  0  0  0  0
   38.3340   26.5410   36.4650 C   0  0  0  0  0  0  0  0  0  0  0  0
   37.6980   26.9440   37.2440 H   0  0  0  0  0  0  0  0  0  0  0  0
   39.0730   27.2170   35.6020 N   0  0  0  0  0  0  0  0  0  0  0  0
   37.9400   26.7630   32.9060 S   0  0  0  0  0  0  0  0  0  0  0  0
   37.9210   23.8350   32.9040 F   0  0  0  0  0  0  0  0  0  0  0  0
   36.8620   24.3450   32.1870 C   0  0  0  0  0  0  0  0  0  0  0  0
   35.9530   23.5070   31.5740 C   0  0  0  0  0  0  0  0  0  0  0  0
   34.8930   24.0690   30.8520 C   0  0  0  0  0  0  0  0  0  0  0  0
   34.7520   25.4500   30.7500 C   0  0  0  0  0  0  0  0  0  0  0  0
   35.7020   26.2300   31.3900 C   0  0  0  0  0  0  0  0  0  0  0  0
   36.7520   25.7050   32.1050 C   0  0  0  0  0  0  0  0  0  0  0  0
   34.2080   23.3740   30.3910 H   0  0  0  0  0  0  0  0  0  0  0  0
   33.9230   25.8510   30.1850 H   0  0  0  0  0  0  0  0  0  0  0  0
   35.5330   27.2900   31.2730 H   0  0  0  0  0  0  0  0  0  0  0  0
   35.4000   21.4930   32.6970 C   0  0  0  0  0  0  0  0  0  0  0  0
   36.1590   22.1060   31.7220 C   0  0  0  0  0  0  0  0  0  0  0  0
   37.0400   21.2950   30.9880 C   0  0  0  0  0  0  0  0  0  0  0  0
   37.0960   19.9630   31.2780 N   0  0  0  0  0  0  0  0  0  0  0  0
   36.3500   19.4190   32.2210 C   0  0  0  0  0  0  0  0  0  0  0  0
   35.5020   20.1610   32.9360 N   0  0  0  0  0  0  0  0  0  0  0  0
   34.6700   21.9630   33.3570 H   0  0  0  0  0  0  0  0  0  0  0  0
   37.6100   21.8090   30.2410 H   0  0  0  0  0  0  0  0  0  0  0  0
   36.4770   18.3510   32.3640 H   0  0  0  0  0  0  0  0  0  0  0  0
  1 10  1  0  0  0  0
  1 23  1  0  0  0  0
  2  1  2  0  0  0  0
  3  4  2  0  0  0  0
  3  2  1  0  0  0  0
  4  5  1  0  0  0  0
  5  6  2  0  0  0  0
  5 10  1  0  0  0  0
  6  7  1  0  0  0  0
  7 13  1  0  0  0  0
  7  8  2  0  0  0  0
  8 14  1  0  0  0  0
  9  8  1  0  0  0  0
  9 15  1  0  0  0  0
 10  9  2  0  0  0  0
 11  3  1  0  0  0  0
 12  6  1  0  0  0  0
 15 16  2  0  0  0  0
 15 22  1  0  0  0  0
 16 18  1  0  0  0  0
 17 16  1  0  0  0  0
 18 20  1  0  0  0  0
 18 19  1  0  0  0  0
 20 21  1  0  0  0  0
 22 20  2  0  0  0  0
 25 24  1  0  0  0  0
 26 35  1  0  0  0  0
 26 25  2  0  0  0  0
 27 26  1  0  0  0  0
 28 27  2  0  0  0  0
 28 29  1  0  0  0  0
 29 30  2  0  0  0  0
 30 25  1  0  0  0  0
 30 23  1  0  0  0  0
 31 27  1  0  0  0  0
 32 28  1  0  0  0  0
 33 29  1  0  0  0  0
 34 39  1  0  0  0  0
 34 40  1  0  0  0  0
 35 34  2  0  0  0  0
 36 37  2  0  0  0  0
 36 35  1  0  0  0  0
 37 38  1  0  0  0  0
 38 42  1  0  0  0  0
 38 39  2  0  0  0  0
 41 36  1  0  0  0  0
M  END
>  <minimizedAffinity>
-5.95856524

$$$$

 OpenBabel03262521423D

 42 46  0  0  0  0  0  0  0  0999 V2000
   33.1440   29.8350   33.5340 C   0  0  0  0  0  0  0  0  0  0  0  0
   32.4100   28.9030   32.8500 N   0  0  0  0  0  0  0  0  0  0  0  0
   31.3950   28.2590   33.4770 C   0  0  0  0  0  0  0  0  0  0  0  0
   31.0600   28.4830   34.7540 N   0  0  0  0  0  0  0  0  0  0  0  0
   31.7450   29.3860   35.4710 C   0  0  0  0  0  0  0  0  0  0  0  0
   31.4120   29.6050   36.7860 C   0  0  0  0  0  0  0  0  0  0  0  0
   32.1280   30.5270   37.5420 C   0  0  0  0  0  0  0  0  0  0  0  0
   33.1800   31.2190   36.9420 C   0  0  0  0  0  0  0  0  0  0  0  0
   33.4800   30.9630   35.5980 C   0  0  0  0  0  0  0  0  0  0  0  0
   32.7900   30.0620   34.8500 C   0  0  0  0  0  0  0  0  0  0  0  0
   30.8060   27.5230   32.9580 H   0  0  0  0  0  0  0  0  0  0  0  0
   30.5930   29.0430   37.1890 H   0  0  0  0  0  0  0  0  0  0  0  0
   31.7910   30.6270   38.5640 H   0  0  0  0  0  0  0  0  0  0  0  0
   33.6280   31.8860   37.6480 H   0  0  0  0  0  0  0  0  0  0  0  0
   34.5840   31.8400   35.2500 C   0  0  0  0  0  0  0  0  0  0  0  0
   34.6700   33.0720   34.6010 C   0  0  0  0  0  0  0  0  0  0  0  0
   33.8030   33.5890   34.1590 H   0  0  0  0  0  0  0  0  0  0  0  0
   35.9060   33.5890   34.5870 N   0  0  0  0  0  0  0  0  0  0  0  0
   36.1630   34.4990   34.1480 H   0  0  0  0  0  0  0  0  0  0  0  0
   36.6520   32.6830   35.2370 C   0  0  0  0  0  0  0  0  0  0  0  0
   37.7170   32.7960   35.4040 H   0  0  0  0  0  0  0  0  0  0  0  0
   35.8810   31.6780   35.6160 N   0  0  0  0  0  0  0  0  0  0  0  0
   34.5130   30.7260   32.8870 S   0  0  0  0  0  0  0  0  0  0  0  0
   35.9150   28.6050   34.3390 F   0  0  0  0  0  0  0  0  0  0  0  0
   36.3740   28.7170   33.0460 C   0  0  0  0  0  0  0  0  0  0  0  0
   37.3760   27.8910   32.5760 C   0  0  0  0  0  0  0  0  0  0  0  0
   37.8140   28.0430   31.2550 C   0  0  0  0  0  0  0  0  0  0  0  0
   37.2530   29.0070   30.4230 C   0  0  0  0  0  0  0  0  0  0  0  0
   36.2530   29.8000   30.9620 C   0  0  0  0  0  0  0  0  0  0  0  0
   35.8040   29.6740   32.2540 C   0  0  0  0  0  0  0  0  0  0  0  0
   38.5980   27.3750   30.9320 H   0  0  0  0  0  0  0  0  0  0  0  0
   37.6150   29.0980   29.4080 H   0  0  0  0  0  0  0  0  0  0  0  0
   35.8610   30.5260   30.2640 H   0  0  0  0  0  0  0  0  0  0  0  0
   37.3800   25.6550   33.3660 C   0  0  0  0  0  0  0  0  0  0  0  0
   37.9020   26.9280   33.4820 C   0  0  0  0  0  0  0  0  0  0  0  0
   38.8820   27.1340   34.4670 C   0  0  0  0  0  0  0  0  0  0  0  0
   39.2590   26.0770   35.2430 N   0  0  0  0  0  0  0  0  0  0  0  0
   38.7320   24.8760   35.0970 C   0  0  0  0  0  0  0  0  0  0  0  0
   37.7990   24.6470   34.1700 N   0  0  0  0  0  0  0  0  0  0  0  0
   36.6180   25.3170   32.6630 H   0  0  0  0  0  0  0  0  0  0  0  0
   39.2610   28.1340   34.5240 H   0  0  0  0  0  0  0  0  0  0  0  0
   39.1080   24.1120   35.7690 H   0  0  0  0  0  0  0  0  0  0  0  0
  1 10  1  0  0  0  0
  2  3  1  0  0  0  0
  2  1  2  0  0  0  0
  3  4  2  0  0  0  0
  4  5  1  0  0  0  0
  5  6  1  0  0  0  0
  6 12  1  0  0  0  0
  6  7  2  0  0  0  0
  7 13  1  0  0  0  0
  8  7  1  0  0  0  0
  8 14  1  0  0  0  0
  9  8  2  0  0  0  0
 10  5  2  0  0  0  0
 10  9  1  0  0  0  0
 11  3  1  0  0  0  0
 15  9  1  0  0  0  0
 15 22  1  0  0  0  0
 16 15  2  0  0  0  0
 17 16  1  0  0  0  0
 18 16  1  0  0  0  0
 18 20  1  0  0  0  0
 19 18  1  0  0  0  0
 20 21  1  0  0  0  0
 20 22  2  0  0  0  0
 23  1  1  0  0  0  0
 25 24  1  0  0  0  0
 26 25  1  0  0  0  0
 26 35  1  0  0  0  0
 27 26  2  0  0  0  0
 28 29  2  0  0  0  0
 28 27  1  0  0  0  0
 29 30  1  0  0  0  0
 30 23  1  0  0  0  0
 30 25  2  0  0  0  0
 31 27  1  0  0  0  0
 32 28  1  0  0  0  0
 33 29  1  0  0  0  0
 34 35  2  0  0  0  0
 34 39  1  0  0  0  0
 35 36  1  0  0  0  0
 36 41  1  0  0  0  0
 36 37  2  0  0  0  0
 38 37  1  0  0  0  0
 38 42  1  0  0  0  0
 39 38  2  0  0  0  0
 40 34  1  0  0  0  0
M  END
>  <minimizedAffinity>
-5.90526009

$$$$

 OpenBabel03262521423D

 42 46  0  0  0  0  0  0  0  0999 V2000
   40.4350   23.1540   35.0570 C   0  0  0  0  0  0  0  0  0  0  0  0
   41.3110   22.1210   35.2630 N   0  0  0  0  0  0  0  0  0  0  0  0
   41.3760   21.5320   36.4820 C   0  0  0  0  0  0  0  0  0  0  0  0
   40.6190   21.9070   37.5210 N   0  0  0  0  0  0  0  0  0  0  0  0
   39.7440   22.9120   37.3760 C   0  0  0  0  0  0  0  0  0  0  0  0
   38.9780   23.3090   38.4450 C   0  0  0  0  0  0  0  0  0  0  0  0
   38.0800   24.3620   38.3080 C   0  0  0  0  0  0  0  0  0  0  0  0
   37.9730   25.0000   37.0720 C   0  0  0  0  0  0  0  0  0  0  0  0
   38.7720   24.5580   36.0110 C   0  0  0  0  0  0  0  0  0  0  0  0
   39.6560   23.5330   36.1330 C   0  0  0  0  0  0  0  0  0  0  0  0
   42.0570   20.7200   36.6650 H   0  0  0  0  0  0  0  0  0  0  0  0
   39.1060   22.7780   39.3690 H   0  0  0  0  0  0  0  0  0  0  0  0
   37.5260   24.5990   39.2060 H   0  0  0  0  0  0  0  0  0  0  0  0
   37.2460   25.7820   37.1280 H   0  0  0  0  0  0  0  0  0  0  0  0
   38.4230   25.3790   34.8650 C   0  0  0  0  0  0  0  0  0  0  0  0
   37.4000   25.3280   33.9180 C   0  0  0  0  0  0  0  0  0  0  0  0
   36.6530   24.5200   33.8720 H   0  0  0  0  0  0  0  0  0  0  0  0
   37.3920   26.3720   33.0770 N   0  0  0  0  0  0  0  0  0  0  0  0
   36.7050   26.5050   32.3050 H   0  0  0  0  0  0  0  0  0  0  0  0
   38.4270   27.1270   33.4750 C   0  0  0  0  0  0  0  0  0  0  0  0
   38.7040   28.0600   32.9980 H   0  0  0  0  0  0  0  0  0  0  0  0
   39.0150   26.5470   34.5070 N   0  0  0  0  0  0  0  0  0  0  0  0
   40.2540   24.0510   33.5580 S   0  0  0  0  0  0  0  0  0  0  0  0
   38.0000   22.1840   33.6230 F   0  0  0  0  0  0  0  0  0  0  0  0
   38.5850   22.2210   32.3770 C   0  0  0  0  0  0  0  0  0  0  0  0
   38.1050   21.4400   31.3450 C   0  0  0  0  0  0  0  0  0  0  0  0
   38.7340   21.5080   30.0960 C   0  0  0  0  0  0  0  0  0  0  0  0
   39.8260   22.3460   29.8910 C   0  0  0  0  0  0  0  0  0  0  0  0
   40.2530   23.1000   30.9710 C   0  0  0  0  0  0  0  0  0  0  0  0
   39.6560   23.0540   32.2080 C   0  0  0  0  0  0  0  0  0  0  0  0
   38.3230   20.8790   29.3200 H   0  0  0  0  0  0  0  0  0  0  0  0
   40.2880   22.3730   28.9140 H   0  0  0  0  0  0  0  0  0  0  0  0
   41.1020   23.7300   30.7440 H   0  0  0  0  0  0  0  0  0  0  0  0
   37.2780   19.2820   31.8780 C   0  0  0  0  0  0  0  0  0  0  0  0
   36.9860   20.6070   31.6280 C   0  0  0  0  0  0  0  0  0  0  0  0
   35.6350   20.9890   31.6790 C   0  0  0  0  0  0  0  0  0  0  0  0
   34.7000   20.0400   31.9700 N   0  0  0  0  0  0  0  0  0  0  0  0
   35.0250   18.7820   32.2020 C   0  0  0  0  0  0  0  0  0  0  0  0
   36.3000   18.3870   32.1620 N   0  0  0  0  0  0  0  0  0  0  0  0
   38.2630   18.8140   31.8810 H   0  0  0  0  0  0  0  0  0  0  0  0
   35.4510   22.0250   31.4800 H   0  0  0  0  0  0  0  0  0  0  0  0
   34.1990   18.1150   32.4230 H   0  0  0  0  0  0  0  0  0  0  0  0
  1  2  2  0  0  0  0
  1 10  1  0  0  0  0
  2  3  1  0  0  0  0
  3 11  1  0  0  0  0
  3  4  2  0  0  0  0
  5  4  1  0  0  0  0
  5  6  1  0  0  0  0
  6 12  1  0  0  0  0
  7  6  2  0  0  0  0
  7 13  1  0  0  0  0
  8 14  1  0  0  0  0
  8  7  1  0  0  0  0
  9 10  1  0  0  0  0
  9  8  2  0  0  0  0
 10  5  2  0  0  0  0
 15  9  1  0  0  0  0
 16 15  2  0  0  0  0
 17 16  1  0  0  0  0
 18 20  1  0  0  0  0
 18 16  1  0  0  0  0
 19 18  1  0  0  0  0
 20 22  2  0  0  0  0
 21 20  1  0  0  0  0
 22 15  1  0  0  0  0
 23  1  1  0  0  0  0
 25 24  1  0  0  0  0
 26 35  1  0  0  0  0
 26 25  2  0  0  0  0
 27 26  1  0  0  0  0
 28 27  2  0  0  0  0
 28 29  1  0  0  0  0
 29 30  2  0  0  0  0
 30 25  1  0  0  0  0
 30 23  1  0  0  0  0
 31 27  1  0  0  0  0
 32 28  1  0  0  0  0
 33 29  1  0  0  0  0
 34 40  1  0  0  0  0
 34 39  1  0  0  0  0
 35 36  1  0  0  0  0
 35 34  2  0  0  0  0
 36 37  2  0  0  0  0
 37 38  1  0  0  0  0
 38 42  1  0  0  0  0
 39 38  2  0  0  0  0
 41 36  1  0  0  0  0
M  END
>  <minimizedAffinity>
-5.88784599

$$$$
