
 OpenBabel03272510133D

 40 43  0  0  0  0  0  0  0  0999 V2000
   38.1790   31.5400   48.9360 C   0  0  0  0  0  0  0  0  0  0  0  0
   38.4100   32.8220   49.4400 C   0  0  0  0  0  0  0  0  0  0  0  0
   39.1050   33.5200   48.4570 C   0  0  0  0  0  0  0  0  0  0  0  0
   39.2700   32.6900   47.4320 N   0  0  0  0  0  0  0  0  0  0  0  0
   38.7250   31.5210   47.7120 N   0  0  0  0  0  0  0  0  0  0  0  0
   38.1740   33.3430   50.3760 H   0  0  0  0  0  0  0  0  0  0  0  0
   39.4630   34.5500   48.4790 H   0  0  0  0  0  0  0  0  0  0  0  0
   39.9440   33.0180   46.1990 C   0  0  0  0  0  0  0  0  0  0  0  0
   40.1300   34.1100   46.1980 H   0  0  0  0  0  0  0  0  0  0  0  0
   40.8830   32.4330   46.1540 H   0  0  0  0  0  0  0  0  0  0  0  0
   39.0160   32.6730   45.0520 C   0  0  0  0  0  0  0  0  0  0  0  0
   37.9960   32.5930   45.4440 H   0  0  0  0  0  0  0  0  0  0  0  0
   39.0290   33.5440   44.3530 H   0  0  0  0  0  0  0  0  0  0  0  0
   39.4270   31.4130   44.3830 C   0  0  0  0  0  0  0  0  0  0  0  0
   39.1890   30.0670   44.4910 C   0  0  0  0  0  0  0  0  0  0  0  0
   38.5110   29.7560   45.2740 H   0  0  0  0  0  0  0  0  0  0  0  0
   39.8880   29.4070   43.5530 N   0  0  0  0  0  0  0  0  0  0  0  0
   39.8510   28.3890   43.4610 H   0  0  0  0  0  0  0  0  0  0  0  0
   40.5620   30.3400   42.8590 C   0  0  0  0  0  0  0  0  0  0  0  0
   41.2250   30.1090   42.0210 H   0  0  0  0  0  0  0  0  0  0  0  0
   40.2930   31.5630   43.3490 N   0  0  0  0  0  0  0  0  0  0  0  0
   37.4930   30.7100   49.7950 O   0  0  0  0  0  0  0  0  0  0  0  0
   33.9640   28.8640   48.3960 C   0  0  0  0  0  0  0  0  0  0  0  0
   34.6990   28.3110   49.4080 C   0  0  0  0  0  0  0  0  0  0  0  0
   35.8590   28.8580   49.9140 C   0  0  0  0  0  0  0  0  0  0  0  0
   36.3470   30.0230   49.4090 C   0  0  0  0  0  0  0  0  0  0  0  0
   35.6000   30.5950   48.3710 C   0  0  0  0  0  0  0  0  0  0  0  0
   34.4660   30.0340   47.8950 N   0  0  0  0  0  0  0  0  0  0  0  0
   34.3930   27.3840   49.8780 H   0  0  0  0  0  0  0  0  0  0  0  0
   36.4380   28.4170   50.7170 H   0  0  0  0  0  0  0  0  0  0  0  0
   35.9140   31.5250   47.9060 H   0  0  0  0  0  0  0  0  0  0  0  0
   31.9470   27.4130   48.5900 C   0  0  0  0  0  0  0  0  0  0  0  0
   32.7690   28.2850   47.8790 C   0  0  0  0  0  0  0  0  0  0  0  0
   32.3830   28.5870   46.5940 C   0  0  0  0  0  0  0  0  0  0  0  0
   31.2400   28.0410   46.0660 N   0  0  0  0  0  0  0  0  0  0  0  0
   30.4810   27.1970   46.8080 C   0  0  0  0  0  0  0  0  0  0  0  0
   30.8210   26.8680   48.0840 N   0  0  0  0  0  0  0  0  0  0  0  0
   32.2140   27.1510   49.6010 H   0  0  0  0  0  0  0  0  0  0  0  0
   32.9840   29.2630   45.9870 H   0  0  0  0  0  0  0  0  0  0  0  0
   29.5820   26.7730   46.3790 H   0  0  0  0  0  0  0  0  0  0  0  0
  1  2  1  0  0  0  0
  1 22  1  0  0  0  0
  2  6  1  0  0  0  0
  3  7  1  0  0  0  0
  3  2  2  0  0  0  0
  4  5  1  0  0  0  0
  4  3  1  0  0  0  0
  5  1  2  0  0  0  0
  8  4  1  0  0  0  0
  9  8  1  0  0  0  0
 10  8  1  0  0  0  0
 11 12  1  0  0  0  0
 11  8  1  0  0  0  0
 13 11  1  0  0  0  0
 14 15  2  0  0  0  0
 14 11  1  0  0  0  0
 15 16  1  0  0  0  0
 17 15  1  0  0  0  0
 18 17  1  0  0  0  0
 19 21  2  0  0  0  0
 19 17  1  0  0  0  0
 20 19  1  0  0  0  0
 21 14  1  0  0  0  0
 23 24  1  0  0  0  0
 24 29  1  0  0  0  0
 24 25  2  0  0  0  0
 25 30  1  0  0  0  0
 26 22  1  0  0  0  0
 26 25  1  0  0  0  0
 27 26  2  0  0  0  0
 28 27  1  0  0  0  0
 28 23  2  0  0  0  0
 31 27  1  0  0  0  0
 32 38  1  0  0  0  0
 33 23  1  0  0  0  0
 33 32  2  0  0  0  0
 34 33  1  0  0  0  0
 35 34  2  0  0  0  0
 35 36  1  0  0  0  0
 36 37  2  0  0  0  0
 37 32  1  0  0  0  0
 39 34  1  0  0  0  0
 40 36  1  0  0  0  0
M  END
>  <minimizedAffinity>
-6.12974977

>  <minimizedRMSD>
2.01070261

$$$$
