
 OpenBabel03272502033D

 41 45  0  0  0  0  0  0  0  0999 V2000
   35.7020   29.4100   32.1330 C   0  0  0  0  0  0  0  0  0  0  0  0
   34.8630   28.9420   31.5920 H   0  0  0  0  0  0  0  0  0  0  0  0
   36.2600   30.1210   31.4920 H   0  0  0  0  0  0  0  0  0  0  0  0
   36.6500   28.3090   32.5270 C   0  0  0  0  0  0  0  0  0  0  0  0
   37.6430   27.7530   31.7270 C   0  0  0  0  0  0  0  0  0  0  0  0
   38.2930   26.7690   32.4610 C   0  0  0  0  0  0  0  0  0  0  0  0
   37.6770   26.7610   33.6730 N   0  0  0  0  0  0  0  0  0  0  0  0
   36.7140   27.6680   33.7030 N   0  0  0  0  0  0  0  0  0  0  0  0
   39.1650   24.9810   34.5920 N   0  0  0  0  0  0  0  0  0  0  0  0
   38.1390   25.8370   34.6490 C   0  0  0  0  0  0  0  0  0  0  0  0
   37.5670   25.6730   35.8730 N   0  0  0  0  0  0  0  0  0  0  0  0
   38.2300   24.7330   36.5560 C   0  0  0  0  0  0  0  0  0  0  0  0
   38.0110   24.2410   37.8220 C   0  0  0  0  0  0  0  0  0  0  0  0
   38.8270   23.2830   38.2950 N   0  0  0  0  0  0  0  0  0  0  0  0
   39.8410   22.8260   37.5130 C   0  0  0  0  0  0  0  0  0  0  0  0
   40.0430   23.3170   36.2750 N   0  0  0  0  0  0  0  0  0  0  0  0
   39.2510   24.2810   35.7570 C   0  0  0  0  0  0  0  0  0  0  0  0
   37.8580   28.0510   30.7060 H   0  0  0  0  0  0  0  0  0  0  0  0
   39.0990   26.2040   32.0400 H   0  0  0  0  0  0  0  0  0  0  0  0
   39.8080   24.8500   33.8010 H   0  0  0  0  0  0  0  0  0  0  0  0
   37.2070   24.5830   38.4780 H   0  0  0  0  0  0  0  0  0  0  0  0
   40.5730   22.0600   37.7630 H   0  0  0  0  0  0  0  0  0  0  0  0
   35.2450   30.0380   33.4200 C   0  0  0  0  0  0  0  0  0  0  0  0
   35.6920   29.5010   34.3030 H   0  0  0  0  0  0  0  0  0  0  0  0
   35.5660   31.0970   33.4390 H   0  0  0  0  0  0  0  0  0  0  0  0
   31.6000   30.1040   32.8120 C   0  0  0  0  0  0  0  0  0  0  0  0
   31.1010   29.5090   33.9770 C   0  0  0  0  0  0  0  0  0  0  0  0
   32.0190   29.0900   34.9620 C   0  0  0  0  0  0  0  0  0  0  0  0
   33.3320   29.2830   34.7340 N   0  0  0  0  0  0  0  0  0  0  0  0
   33.7760   29.8670   33.5820 C   0  0  0  0  0  0  0  0  0  0  0  0
   32.9110   30.2630   32.6540 N   0  0  0  0  0  0  0  0  0  0  0  0
   30.8460   30.4080   32.0850 H   0  0  0  0  0  0  0  0  0  0  0  0
   30.0400   29.3670   34.1310 H   0  0  0  0  0  0  0  0  0  0  0  0
   31.5510   28.4650   36.1920 C   0  0  0  0  0  0  0  0  0  0  0  0
   31.7470   28.9630   37.4570 C   0  0  0  0  0  0  0  0  0  0  0  0
   32.2800   29.8880   37.6690 H   0  0  0  0  0  0  0  0  0  0  0  0
   31.2070   28.1770   38.4000 N   0  0  0  0  0  0  0  0  0  0  0  0
   31.2470   28.3810   39.4340 H   0  0  0  0  0  0  0  0  0  0  0  0
   30.6460   27.1400   37.7120 C   0  0  0  0  0  0  0  0  0  0  0  0
   30.1330   26.3440   38.2340 H   0  0  0  0  0  0  0  0  0  0  0  0
   30.8620   27.3300   36.3980 N   0  0  0  0  0  0  0  0  0  0  0  0
  1  4  1  0  0  0  0
  1 23  1  0  0  0  0
  2  1  1  0  0  0  0
  3  1  1  0  0  0  0
  4  8  2  0  0  0  0
  5  6  2  0  0  0  0
  5  4  1  0  0  0  0
  6  7  1  0  0  0  0
  7  8  1  0  0  0  0
  7 10  1  0  0  0  0
  9 10  1  0  0  0  0
  9 17  1  0  0  0  0
 10 11  2  0  0  0  0
 11 12  1  0  0  0  0
 12 13  1  0  0  0  0
 13 14  2  0  0  0  0
 13 21  1  0  0  0  0
 15 22  1  0  0  0  0
 15 14  1  0  0  0  0
 16 15  2  0  0  0  0
 17 16  1  0  0  0  0
 17 12  2  0  0  0  0
 18  5  1  0  0  0  0
 19  6  1  0  0  0  0
 20  9  1  0  0  0  0
 23 25  1  0  0  0  0
 23 30  1  0  0  0  0
 23 24  1  0  0  0  0
 26 27  1  0  0  0  0
 27 33  1  0  0  0  0
 27 28  2  0  0  0  0
 28 34  1  0  0  0  0
 29 28  1  0  0  0  0
 30 29  2  0  0  0  0
 31 26  2  0  0  0  0
 31 30  1  0  0  0  0
 32 26  1  0  0  0  0
 34 41  1  0  0  0  0
 34 35  2  0  0  0  0
 35 36  1  0  0  0  0
 35 37  1  0  0  0  0
 37 38  1  0  0  0  0
 39 40  1  0  0  0  0
 39 37  1  0  0  0  0
 41 39  2  0  0  0  0
M  END
>  <minimizedAffinity>
-6.41523647

$$$$

 OpenBabel03272502033D

 41 45  0  0  0  0  0  0  0  0999 V2000
   35.5000   28.7060   32.0130 C   0  0  0  0  0  0  0  0  0  0  0  0
   35.1250   29.2100   32.9180 H   0  0  0  0  0  0  0  0  0  0  0  0
   34.7000   28.1430   31.4930 H   0  0  0  0  0  0  0  0  0  0  0  0
   36.5450   27.7150   32.4520 C   0  0  0  0  0  0  0  0  0  0  0  0
   37.6000   27.2370   31.6820 C   0  0  0  0  0  0  0  0  0  0  0  0
   38.3320   26.3440   32.4530 C   0  0  0  0  0  0  0  0  0  0  0  0
   37.7000   26.3090   33.6560 N   0  0  0  0  0  0  0  0  0  0  0  0
   36.6530   27.1170   33.6470 N   0  0  0  0  0  0  0  0  0  0  0  0
   39.3400   24.7110   34.6480 N   0  0  0  0  0  0  0  0  0  0  0  0
   38.2350   25.4620   34.6660 C   0  0  0  0  0  0  0  0  0  0  0  0
   37.6620   25.2770   35.8870 N   0  0  0  0  0  0  0  0  0  0  0  0
   38.4020   24.4270   36.6060 C   0  0  0  0  0  0  0  0  0  0  0  0
   38.2120   23.9520   37.8830 C   0  0  0  0  0  0  0  0  0  0  0  0
   39.1100   23.0920   38.3950 N   0  0  0  0  0  0  0  0  0  0  0  0
   40.1770   22.7160   37.6410 C   0  0  0  0  0  0  0  0  0  0  0  0
   40.3500   23.1900   36.3920 N   0  0  0  0  0  0  0  0  0  0  0  0
   39.4750   24.0550   35.8350 C   0  0  0  0  0  0  0  0  0  0  0  0
   37.8020   27.5270   30.6550 H   0  0  0  0  0  0  0  0  0  0  0  0
   39.1960   25.8490   32.0610 H   0  0  0  0  0  0  0  0  0  0  0  0
   40.0060   24.6210   33.8700 H   0  0  0  0  0  0  0  0  0  0  0  0
   37.3680   24.2310   38.5180 H   0  0  0  0  0  0  0  0  0  0  0  0
   40.9770   22.0340   37.9230 H   0  0  0  0  0  0  0  0  0  0  0  0
   36.2050   29.6690   31.1000 C   0  0  0  0  0  0  0  0  0  0  0  0
   37.2660   29.3360   30.9160 H   0  0  0  0  0  0  0  0  0  0  0  0
   35.6660   29.7130   30.1350 H   0  0  0  0  0  0  0  0  0  0  0  0
   37.0410   33.2090   31.7550 C   0  0  0  0  0  0  0  0  0  0  0  0
   36.5360   33.3910   33.0490 C   0  0  0  0  0  0  0  0  0  0  0  0
   35.9130   32.2980   33.6860 C   0  0  0  0  0  0  0  0  0  0  0  0
   35.8340   31.1310   33.0180 N   0  0  0  0  0  0  0  0  0  0  0  0
   36.3400   30.9970   31.7570 C   0  0  0  0  0  0  0  0  0  0  0  0
   36.9270   32.0270   31.1560 N   0  0  0  0  0  0  0  0  0  0  0  0
   37.5110   34.0870   31.3110 H   0  0  0  0  0  0  0  0  0  0  0  0
   36.6140   34.3420   33.5580 H   0  0  0  0  0  0  0  0  0  0  0  0
   35.3710   32.4350   35.0310 C   0  0  0  0  0  0  0  0  0  0  0  0
   35.6770   31.6220   36.0940 C   0  0  0  0  0  0  0  0  0  0  0  0
   36.3650   30.7810   36.0360 H   0  0  0  0  0  0  0  0  0  0  0  0
   35.0290   31.9850   37.2110 N   0  0  0  0  0  0  0  0  0  0  0  0
   35.1250   31.4880   38.1380 H   0  0  0  0  0  0  0  0  0  0  0  0
   34.2830   33.0680   36.8480 C   0  0  0  0  0  0  0  0  0  0  0  0
   33.6510   33.5700   37.5680 H   0  0  0  0  0  0  0  0  0  0  0  0
   34.5000   33.3210   35.5450 N   0  0  0  0  0  0  0  0  0  0  0  0
  1  4  1  0  0  0  0
  1  2  1  0  0  0  0
  3  1  1  0  0  0  0
  4  8  2  0  0  0  0
  5  4  1  0  0  0  0
  5  6  2  0  0  0  0
  6  7  1  0  0  0  0
  7 10  1  0  0  0  0
  8  7  1  0  0  0  0
  9 10  1  0  0  0  0
  9 17  1  0  0  0  0
 10 11  2  0  0  0  0
 11 12  1  0  0  0  0
 12 13  1  0  0  0  0
 13 14  2  0  0  0  0
 13 21  1  0  0  0  0
 15 22  1  0  0  0  0
 15 14  1  0  0  0  0
 16 15  2  0  0  0  0
 17 16  1  0  0  0  0
 17 12  2  0  0  0  0
 18  5  1  0  0  0  0
 19  6  1  0  0  0  0
 20  9  1  0  0  0  0
 23 30  1  0  0  0  0
 23  1  1  0  0  0  0
 24 23  1  0  0  0  0
 25 23  1  0  0  0  0
 26 27  1  0  0  0  0
 27 33  1  0  0  0  0
 27 28  2  0  0  0  0
 28 34  1  0  0  0  0
 29 28  1  0  0  0  0
 30 29  2  0  0  0  0
 31 26  2  0  0  0  0
 31 30  1  0  0  0  0
 32 26  1  0  0  0  0
 34 41  1  0  0  0  0
 34 35  2  0  0  0  0
 35 37  1  0  0  0  0
 36 35  1  0  0  0  0
 37 38  1  0  0  0  0
 39 37  1  0  0  0  0
 39 40  1  0  0  0  0
 41 39  2  0  0  0  0
M  END
>  <minimizedAffinity>
-6.12134314

$$$$

 OpenBabel03272502033D

 41 45  0  0  0  0  0  0  0  0999 V2000
   36.4080   26.1690   31.7820 C   0  0  0  0  0  0  0  0  0  0  0  0
   36.3720   25.9760   30.6970 H   0  0  0  0  0  0  0  0  0  0  0  0
   35.5860   25.6570   32.3200 H   0  0  0  0  0  0  0  0  0  0  0  0
   36.2300   27.6510   31.9790 C   0  0  0  0  0  0  0  0  0  0  0  0
   36.3590   28.6320   31.0010 C   0  0  0  0  0  0  0  0  0  0  0  0
   36.1160   29.8670   31.5890 C   0  0  0  0  0  0  0  0  0  0  0  0
   35.8500   29.5950   32.8950 N   0  0  0  0  0  0  0  0  0  0  0  0
   35.9190   28.2920   33.1150 N   0  0  0  0  0  0  0  0  0  0  0  0
   35.4370   31.9880   33.4710 N   0  0  0  0  0  0  0  0  0  0  0  0
   35.5600   30.6870   33.7570 C   0  0  0  0  0  0  0  0  0  0  0  0
   35.3490   30.5650   35.0960 N   0  0  0  0  0  0  0  0  0  0  0  0
   35.1000   31.7690   35.6230 C   0  0  0  0  0  0  0  0  0  0  0  0
   34.8330   32.1250   36.9250 C   0  0  0  0  0  0  0  0  0  0  0  0
   34.6130   33.4210   37.2100 N   0  0  0  0  0  0  0  0  0  0  0  0
   34.6620   34.3410   36.2090 C   0  0  0  0  0  0  0  0  0  0  0  0
   34.9260   33.9760   34.9390 N   0  0  0  0  0  0  0  0  0  0  0  0
   35.1520   32.6880   34.6040 C   0  0  0  0  0  0  0  0  0  0  0  0
   36.6060   28.4440   29.9610 H   0  0  0  0  0  0  0  0  0  0  0  0
   36.1610   30.7720   31.0200 H   0  0  0  0  0  0  0  0  0  0  0  0
   35.5370   32.4220   32.5440 H   0  0  0  0  0  0  0  0  0  0  0  0
   34.7850   31.4160   37.7540 H   0  0  0  0  0  0  0  0  0  0  0  0
   34.5060   35.4150   36.2910 H   0  0  0  0  0  0  0  0  0  0  0  0
   37.7580   25.8380   32.3540 C   0  0  0  0  0  0  0  0  0  0  0  0
   38.5210   25.7330   31.5310 H   0  0  0  0  0  0  0  0  0  0  0  0
   38.0710   26.6510   33.0360 H   0  0  0  0  0  0  0  0  0  0  0  0
   37.3280   22.2170   32.9530 C   0  0  0  0  0  0  0  0  0  0  0  0
   37.7050   22.0990   34.2970 C   0  0  0  0  0  0  0  0  0  0  0  0
   38.1040   23.2630   34.9860 C   0  0  0  0  0  0  0  0  0  0  0  0
   38.1030   24.4320   34.3180 N   0  0  0  0  0  0  0  0  0  0  0  0
   37.7270   24.5020   33.0070 C   0  0  0  0  0  0  0  0  0  0  0  0
   37.3510   23.4060   32.3570 N   0  0  0  0  0  0  0  0  0  0  0  0
   37.0290   21.2860   32.4700 H   0  0  0  0  0  0  0  0  0  0  0  0
   37.6960   21.1450   34.8060 H   0  0  0  0  0  0  0  0  0  0  0  0
   38.5070   23.1940   36.3850 C   0  0  0  0  0  0  0  0  0  0  0  0
   39.6080   22.5260   36.8590 C   0  0  0  0  0  0  0  0  0  0  0  0
   40.3010   21.9730   36.2280 H   0  0  0  0  0  0  0  0  0  0  0  0
   39.7310   22.6340   38.1910 N   0  0  0  0  0  0  0  0  0  0  0  0
   40.5100   22.1930   38.7500 H   0  0  0  0  0  0  0  0  0  0  0  0
   38.6700   23.3980   38.5790 C   0  0  0  0  0  0  0  0  0  0  0  0
   38.5200   23.6460   39.6210 H   0  0  0  0  0  0  0  0  0  0  0  0
   37.9510   23.7210   37.4890 N   0  0  0  0  0  0  0  0  0  0  0  0
  1  4  1  0  0  0  0
  1  3  1  0  0  0  0
  1 23  1  0  0  0  0
  2  1  1  0  0  0  0
  4  8  2  0  0  0  0
  5  6  2  0  0  0  0
  5  4  1  0  0  0  0
  6  7  1  0  0  0  0
  7  8  1  0  0  0  0
  7 10  1  0  0  0  0
  9 10  1  0  0  0  0
  9 17  1  0  0  0  0
 10 11  2  0  0  0  0
 11 12  1  0  0  0  0
 12 13  1  0  0  0  0
 13 14  2  0  0  0  0
 13 21  1  0  0  0  0
 15 22  1  0  0  0  0
 15 14  1  0  0  0  0
 16 15  2  0  0  0  0
 17 16  1  0  0  0  0
 17 12  2  0  0  0  0
 18  5  1  0  0  0  0
 19  6  1  0  0  0  0
 20  9  1  0  0  0  0
 23 30  1  0  0  0  0
 23 25  1  0  0  0  0
 24 23  1  0  0  0  0
 26 27  1  0  0  0  0
 27 33  1  0  0  0  0
 27 28  2  0  0  0  0
 28 34  1  0  0  0  0
 29 28  1  0  0  0  0
 30 29  2  0  0  0  0
 31 26  2  0  0  0  0
 31 30  1  0  0  0  0
 32 26  1  0  0  0  0
 34 35  2  0  0  0  0
 34 41  1  0  0  0  0
 35 37  1  0  0  0  0
 36 35  1  0  0  0  0
 37 39  1  0  0  0  0
 37 38  1  0  0  0  0
 39 40  1  0  0  0  0
 41 39  2  0  0  0  0
M  END
>  <minimizedAffinity>
-6.09531546

$$$$

 OpenBabel03272502033D

 41 45  0  0  0  0  0  0  0  0999 V2000
   35.7390   29.4460   32.4780 C   0  0  0  0  0  0  0  0  0  0  0  0
   36.1110   29.9200   31.5550 H   0  0  0  0  0  0  0  0  0  0  0  0
   35.7210   30.1560   33.3280 H   0  0  0  0  0  0  0  0  0  0  0  0
   36.6950   28.3370   32.8280 C   0  0  0  0  0  0  0  0  0  0  0  0
   37.6870   27.8160   32.0050 C   0  0  0  0  0  0  0  0  0  0  0  0
   38.3470   26.8110   32.7000 C   0  0  0  0  0  0  0  0  0  0  0  0
   37.7360   26.7560   33.9130 N   0  0  0  0  0  0  0  0  0  0  0  0
   36.7680   27.6550   33.9800 N   0  0  0  0  0  0  0  0  0  0  0  0
   39.2380   24.9530   34.7630 N   0  0  0  0  0  0  0  0  0  0  0  0
   38.2080   25.8000   34.8540 C   0  0  0  0  0  0  0  0  0  0  0  0
   37.6420   25.5890   36.0740 N   0  0  0  0  0  0  0  0  0  0  0  0
   38.3140   24.6290   36.7200 C   0  0  0  0  0  0  0  0  0  0  0  0
   38.1030   24.0910   37.9690 C   0  0  0  0  0  0  0  0  0  0  0  0
   38.9260   23.1210   38.4040 N   0  0  0  0  0  0  0  0  0  0  0  0
   39.9400   22.6990   37.6020 C   0  0  0  0  0  0  0  0  0  0  0  0
   40.1330   23.2350   36.3810 N   0  0  0  0  0  0  0  0  0  0  0  0
   39.3330   24.2120   35.9020 C   0  0  0  0  0  0  0  0  0  0  0  0
   37.8960   28.1520   30.9940 H   0  0  0  0  0  0  0  0  0  0  0  0
   39.1540   26.2660   32.2560 H   0  0  0  0  0  0  0  0  0  0  0  0
   39.8790   24.8540   33.9640 H   0  0  0  0  0  0  0  0  0  0  0  0
   37.3010   24.4050   38.6400 H   0  0  0  0  0  0  0  0  0  0  0  0
   40.6780   21.9290   37.8200 H   0  0  0  0  0  0  0  0  0  0  0  0
   34.4070   28.7860   32.2580 C   0  0  0  0  0  0  0  0  0  0  0  0
   34.0240   29.0040   31.2210 H   0  0  0  0  0  0  0  0  0  0  0  0
   34.5210   27.6920   32.3800 H   0  0  0  0  0  0  0  0  0  0  0  0
   31.1880   29.6220   33.8680 C   0  0  0  0  0  0  0  0  0  0  0  0
   31.5890   30.5060   34.8780 C   0  0  0  0  0  0  0  0  0  0  0  0
   32.9610   30.8070   34.9980 C   0  0  0  0  0  0  0  0  0  0  0  0
   33.8190   30.2300   34.1350 N   0  0  0  0  0  0  0  0  0  0  0  0
   33.3840   29.3740   33.1640 C   0  0  0  0  0  0  0  0  0  0  0  0
   32.0910   29.0890   33.0510 N   0  0  0  0  0  0  0  0  0  0  0  0
   30.1150   29.4250   33.8210 H   0  0  0  0  0  0  0  0  0  0  0  0
   30.8750   30.9520   35.5560 H   0  0  0  0  0  0  0  0  0  0  0  0
   33.4310   31.7200   36.0320 C   0  0  0  0  0  0  0  0  0  0  0  0
   34.6720   31.6800   36.6180 C   0  0  0  0  0  0  0  0  0  0  0  0
   35.4400   30.9520   36.3640 H   0  0  0  0  0  0  0  0  0  0  0  0
   34.8280   32.6430   37.5390 N   0  0  0  0  0  0  0  0  0  0  0  0
   35.7080   32.7850   38.1030 H   0  0  0  0  0  0  0  0  0  0  0  0
   33.6440   33.3210   37.5400 C   0  0  0  0  0  0  0  0  0  0  0  0
   33.4900   34.1630   38.2010 H   0  0  0  0  0  0  0  0  0  0  0  0
   32.8240   32.7550   36.6360 N   0  0  0  0  0  0  0  0  0  0  0  0
  1  4  1  0  0  0  0
  1  3  1  0  0  0  0
  2  1  1  0  0  0  0
  4  8  2  0  0  0  0
  5  6  2  0  0  0  0
  5  4  1  0  0  0  0
  6  7  1  0  0  0  0
  7  8  1  0  0  0  0
  7 10  1  0  0  0  0
  9 10  1  0  0  0  0
  9 17  1  0  0  0  0
 10 11  2  0  0  0  0
 11 12  1  0  0  0  0
 12 13  1  0  0  0  0
 13 14  2  0  0  0  0
 13 21  1  0  0  0  0
 15 22  1  0  0  0  0
 15 14  1  0  0  0  0
 16 15  2  0  0  0  0
 17 16  1  0  0  0  0
 17 12  2  0  0  0  0
 18  5  1  0  0  0  0
 19  6  1  0  0  0  0
 20  9  1  0  0  0  0
 23 25  1  0  0  0  0
 23  1  1  0  0  0  0
 23 30  1  0  0  0  0
 24 23  1  0  0  0  0
 26 27  1  0  0  0  0
 27 28  2  0  0  0  0
 27 33  1  0  0  0  0
 28 34  1  0  0  0  0
 29 28  1  0  0  0  0
 30 29  2  0  0  0  0
 31 30  1  0  0  0  0
 31 26  2  0  0  0  0
 32 26  1  0  0  0  0
 34 35  2  0  0  0  0
 34 41  1  0  0  0  0
 35 37  1  0  0  0  0
 36 35  1  0  0  0  0
 37 39  1  0  0  0  0
 37 38  1  0  0  0  0
 39 40  1  0  0  0  0
 41 39  2  0  0  0  0
M  END
>  <minimizedAffinity>
-6.02978706

$$$$

 OpenBabel03272502033D

 41 45  0  0  0  0  0  0  0  0999 V2000
   36.0560   26.4110   30.8060 C   0  0  0  0  0  0  0  0  0  0  0  0
   37.0860   26.1950   30.4780 H   0  0  0  0  0  0  0  0  0  0  0  0
   35.4990   27.0020   30.0530 H   0  0  0  0  0  0  0  0  0  0  0  0
   36.1500   27.2400   32.0590 C   0  0  0  0  0  0  0  0  0  0  0  0
   36.9450   26.9690   33.1670 C   0  0  0  0  0  0  0  0  0  0  0  0
   36.7430   27.9730   34.1050 C   0  0  0  0  0  0  0  0  0  0  0  0
   35.8380   28.8140   33.5380 N   0  0  0  0  0  0  0  0  0  0  0  0
   35.4950   28.3770   32.3370 N   0  0  0  0  0  0  0  0  0  0  0  0
   35.8590   30.3930   35.4710 N   0  0  0  0  0  0  0  0  0  0  0  0
   35.4320   29.9560   34.2810 C   0  0  0  0  0  0  0  0  0  0  0  0
   34.4820   30.8380   33.8660 N   0  0  0  0  0  0  0  0  0  0  0  0
   34.3290   31.7980   34.7830 C   0  0  0  0  0  0  0  0  0  0  0  0
   33.4890   32.8880   34.7890 C   0  0  0  0  0  0  0  0  0  0  0  0
   33.5200   33.7240   35.8420 N   0  0  0  0  0  0  0  0  0  0  0  0
   34.3750   33.4710   36.8690 C   0  0  0  0  0  0  0  0  0  0  0  0
   35.1910   32.3990   36.8480 N   0  0  0  0  0  0  0  0  0  0  0  0
   35.1970   31.5330   35.8130 C   0  0  0  0  0  0  0  0  0  0  0  0
   37.6060   26.1120   33.2640 H   0  0  0  0  0  0  0  0  0  0  0  0
   37.2570   27.9680   35.0440 H   0  0  0  0  0  0  0  0  0  0  0  0
   36.5780   29.9530   36.0610 H   0  0  0  0  0  0  0  0  0  0  0  0
   32.7890   33.1230   33.9840 H   0  0  0  0  0  0  0  0  0  0  0  0
   34.5070   34.0560   37.7770 H   0  0  0  0  0  0  0  0  0  0  0  0
   35.3290   25.1550   31.1980 C   0  0  0  0  0  0  0  0  0  0  0  0
   35.0650   25.1760   32.2930 H   0  0  0  0  0  0  0  0  0  0  0  0
   34.4000   25.0740   30.6020 H   0  0  0  0  0  0  0  0  0  0  0  0
   38.2660   23.0250   30.4970 C   0  0  0  0  0  0  0  0  0  0  0  0
   37.7840   21.7500   30.8190 C   0  0  0  0  0  0  0  0  0  0  0  0
   36.4540   21.6320   31.2740 C   0  0  0  0  0  0  0  0  0  0  0  0
   35.7130   22.7520   31.3760 N   0  0  0  0  0  0  0  0  0  0  0  0
   36.2240   23.9750   31.0520 C   0  0  0  0  0  0  0  0  0  0  0  0
   37.4770   24.0870   30.6230 N   0  0  0  0  0  0  0  0  0  0  0  0
   39.3010   23.0570   30.1510 H   0  0  0  0  0  0  0  0  0  0  0  0
   38.4040   20.8690   30.7260 H   0  0  0  0  0  0  0  0  0  0  0  0
   35.9040   20.3290   31.6220 C   0  0  0  0  0  0  0  0  0  0  0  0
   34.5770   20.0680   31.8600 C   0  0  0  0  0  0  0  0  0  0  0  0
   33.7920   20.8210   31.8110 H   0  0  0  0  0  0  0  0  0  0  0  0
   34.3600   18.7790   32.1590 N   0  0  0  0  0  0  0  0  0  0  0  0
   33.4100   18.3740   32.3760 H   0  0  0  0  0  0  0  0  0  0  0  0
   35.5930   18.1960   32.1110 C   0  0  0  0  0  0  0  0  0  0  0  0
   35.7130   17.1410   32.3150 H   0  0  0  0  0  0  0  0  0  0  0  0
   36.5000   19.1360   31.7900 N   0  0  0  0  0  0  0  0  0  0  0  0
  1 23  1  0  0  0  0
  1  4  1  0  0  0  0
  2  1  1  0  0  0  0
  3  1  1  0  0  0  0
  4  8  2  0  0  0  0
  4  5  1  0  0  0  0
  5 18  1  0  0  0  0
  5  6  2  0  0  0  0
  6 19  1  0  0  0  0
  7  6  1  0  0  0  0
  7 10  1  0  0  0  0
  8  7  1  0  0  0  0
  9 17  1  0  0  0  0
  9 20  1  0  0  0  0
 10  9  1  0  0  0  0
 11 10  2  0  0  0  0
 11 12  1  0  0  0  0
 12 13  2  0  0  0  0
 12 17  1  0  0  0  0
 13 14  1  0  0  0  0
 14 15  2  0  0  0  0
 15 22  1  0  0  0  0
 16 15  1  0  0  0  0
 17 16  2  0  0  0  0
 21 13  1  0  0  0  0
 23 24  1  0  0  0  0
 25 23  1  0  0  0  0
 26 31  2  0  0  0  0
 26 27  1  0  0  0  0
 27 28  2  0  0  0  0
 28 29  1  0  0  0  0
 28 34  1  0  0  0  0
 30 23  1  0  0  0  0
 30 29  2  0  0  0  0
 31 30  1  0  0  0  0
 32 26  1  0  0  0  0
 33 27  1  0  0  0  0
 34 41  1  0  0  0  0
 34 35  2  0  0  0  0
 35 37  1  0  0  0  0
 36 35  1  0  0  0  0
 37 38  1  0  0  0  0
 39 37  1  0  0  0  0
 39 40  1  0  0  0  0
 41 39  2  0  0  0  0
M  END
>  <minimizedAffinity>
-6.00549555

$$$$

 OpenBabel03272502033D

 41 45  0  0  0  0  0  0  0  0999 V2000
   36.9830   27.6100   31.7120 C   0  0  0  0  0  0  0  0  0  0  0  0
   36.3260   28.3050   31.1640 H   0  0  0  0  0  0  0  0  0  0  0  0
   38.0230   27.6380   31.3310 H   0  0  0  0  0  0  0  0  0  0  0  0
   36.4520   26.2200   31.4850 C   0  0  0  0  0  0  0  0  0  0  0  0
   35.1440   25.8840   31.1480 C   0  0  0  0  0  0  0  0  0  0  0  0
   35.0670   24.5020   31.0310 C   0  0  0  0  0  0  0  0  0  0  0  0
   36.3200   24.0490   31.2990 N   0  0  0  0  0  0  0  0  0  0  0  0
   37.1270   25.0640   31.5640 N   0  0  0  0  0  0  0  0  0  0  0  0
   35.7090   21.6600   30.9140 N   0  0  0  0  0  0  0  0  0  0  0  0
   36.5460   22.6460   31.2540 C   0  0  0  0  0  0  0  0  0  0  0  0
   37.7300   22.0550   31.5710 N   0  0  0  0  0  0  0  0  0  0  0  0
   37.6230   20.7300   31.4280 C   0  0  0  0  0  0  0  0  0  0  0  0
   38.5560   19.7400   31.6360 C   0  0  0  0  0  0  0  0  0  0  0  0
   38.2020   18.4610   31.4210 N   0  0  0  0  0  0  0  0  0  0  0  0
   36.9370   18.1800   31.0070 C   0  0  0  0  0  0  0  0  0  0  0  0
   36.0350   19.1600   30.8090 N   0  0  0  0  0  0  0  0  0  0  0  0
   36.3430   20.4590   31.0110 C   0  0  0  0  0  0  0  0  0  0  0  0
   34.3370   26.5950   31.0050 H   0  0  0  0  0  0  0  0  0  0  0  0
   34.1470   24.0170   30.7760 H   0  0  0  0  0  0  0  0  0  0  0  0
   34.7290   21.7650   30.6200 H   0  0  0  0  0  0  0  0  0  0  0  0
   39.5790   19.9270   31.9670 H   0  0  0  0  0  0  0  0  0  0  0  0
   36.5150   17.1990   30.7960 H   0  0  0  0  0  0  0  0  0  0  0  0
   36.9120   27.8400   33.1950 C   0  0  0  0  0  0  0  0  0  0  0  0
   37.0930   28.9260   33.4360 H   0  0  0  0  0  0  0  0  0  0  0  0
   35.9080   27.5510   33.5580 H   0  0  0  0  0  0  0  0  0  0  0  0
   40.2710   26.6960   34.2260 C   0  0  0  0  0  0  0  0  0  0  0  0
   39.9650   25.7360   35.1990 C   0  0  0  0  0  0  0  0  0  0  0  0
   38.6080   25.4890   35.4930 C   0  0  0  0  0  0  0  0  0  0  0  0
   37.6720   26.1890   34.8230 N   0  0  0  0  0  0  0  0  0  0  0  0
   38.0150   27.1170   33.8820 C   0  0  0  0  0  0  0  0  0  0  0  0
   39.2940   27.3500   33.6050 N   0  0  0  0  0  0  0  0  0  0  0  0
   41.3360   26.8460   34.0400 H   0  0  0  0  0  0  0  0  0  0  0  0
   40.7390   25.1900   35.7200 H   0  0  0  0  0  0  0  0  0  0  0  0
   38.2350   24.5010   36.4970 C   0  0  0  0  0  0  0  0  0  0  0  0
   37.9180   23.1910   36.2380 C   0  0  0  0  0  0  0  0  0  0  0  0
   37.9130   22.7530   35.2410 H   0  0  0  0  0  0  0  0  0  0  0  0
   37.6150   22.5130   37.3550 N   0  0  0  0  0  0  0  0  0  0  0  0
   37.3430   21.4930   37.3720 H   0  0  0  0  0  0  0  0  0  0  0  0
   37.7440   23.4230   38.3620 C   0  0  0  0  0  0  0  0  0  0  0  0
   37.5550   23.1410   39.3890 H   0  0  0  0  0  0  0  0  0  0  0  0
   38.1140   24.6020   37.8310 N   0  0  0  0  0  0  0  0  0  0  0  0
  1 23  1  0  0  0  0
  2  1  1  0  0  0  0
  3  1  1  0  0  0  0
  4  8  2  0  0  0  0
  4  1  1  0  0  0  0
  5  4  1  0  0  0  0
  6  5  2  0  0  0  0
  6  7  1  0  0  0  0
  7  8  1  0  0  0  0
  9 17  1  0  0  0  0
  9 10  1  0  0  0  0
 10  7  1  0  0  0  0
 10 11  2  0  0  0  0
 12 11  1  0  0  0  0
 12 13  1  0  0  0  0
 13 21  1  0  0  0  0
 14 13  2  0  0  0  0
 15 14  1  0  0  0  0
 16 15  2  0  0  0  0
 16 17  1  0  0  0  0
 17 12  2  0  0  0  0
 18  5  1  0  0  0  0
 19  6  1  0  0  0  0
 20  9  1  0  0  0  0
 22 15  1  0  0  0  0
 23 24  1  0  0  0  0
 23 25  1  0  0  0  0
 23 30  1  0  0  0  0
 26 27  1  0  0  0  0
 27 28  2  0  0  0  0
 27 33  1  0  0  0  0
 28 34  1  0  0  0  0
 29 28  1  0  0  0  0
 30 29  2  0  0  0  0
 31 30  1  0  0  0  0
 31 26  2  0  0  0  0
 32 26  1  0  0  0  0
 34 41  1  0  0  0  0
 35 34  2  0  0  0  0
 35 37  1  0  0  0  0
 36 35  1  0  0  0  0
 37 38  1  0  0  0  0
 37 39  1  0  0  0  0
 39 40  1  0  0  0  0
 41 39  2  0  0  0  0
M  END
>  <minimizedAffinity>
-5.98441744

$$$$

 OpenBabel03272502033D

 41 45  0  0  0  0  0  0  0  0999 V2000
   37.8620   27.2910   31.5930 C   0  0  0  0  0  0  0  0  0  0  0  0
   38.6070   27.7380   30.9150 H   0  0  0  0  0  0  0  0  0  0  0  0
   37.4000   26.3830   31.1570 H   0  0  0  0  0  0  0  0  0  0  0  0
   36.7700   28.3090   31.7900 C   0  0  0  0  0  0  0  0  0  0  0  0
   36.4200   29.3220   30.9040 C   0  0  0  0  0  0  0  0  0  0  0  0
   35.3680   30.0400   31.4570 C   0  0  0  0  0  0  0  0  0  0  0  0
   35.1180   29.4440   32.6530 N   0  0  0  0  0  0  0  0  0  0  0  0
   35.9450   28.4290   32.8400 N   0  0  0  0  0  0  0  0  0  0  0  0
   33.2170   30.9680   33.1930 N   0  0  0  0  0  0  0  0  0  0  0  0
   34.0730   29.9750   33.4570 C   0  0  0  0  0  0  0  0  0  0  0  0
   33.7650   29.5220   34.7040 N   0  0  0  0  0  0  0  0  0  0  0  0
   32.7390   30.2240   35.1960 C   0  0  0  0  0  0  0  0  0  0  0  0
   32.0970   30.1180   36.4080 C   0  0  0  0  0  0  0  0  0  0  0  0
   31.0750   30.9500   36.6750 N   0  0  0  0  0  0  0  0  0  0  0  0
   30.7060   31.8710   35.7450 C   0  0  0  0  0  0  0  0  0  0  0  0
   31.3450   31.9630   34.5620 N   0  0  0  0  0  0  0  0  0  0  0  0
   32.3750   31.1490   34.2490 C   0  0  0  0  0  0  0  0  0  0  0  0
   36.8980   29.5030   29.9460 H   0  0  0  0  0  0  0  0  0  0  0  0
   34.9330   30.8730   30.9440 H   0  0  0  0  0  0  0  0  0  0  0  0
   33.1770   31.5270   32.3310 H   0  0  0  0  0  0  0  0  0  0  0  0
   32.3650   29.3920   37.1780 H   0  0  0  0  0  0  0  0  0  0  0  0
   29.9040   32.6030   35.8230 H   0  0  0  0  0  0  0  0  0  0  0  0
   38.4410   27.0400   32.9570 C   0  0  0  0  0  0  0  0  0  0  0  0
   39.5560   27.2000   32.9490 H   0  0  0  0  0  0  0  0  0  0  0  0
   37.9790   27.7380   33.6800 H   0  0  0  0  0  0  0  0  0  0  0  0
   37.7550   23.4120   32.7990 C   0  0  0  0  0  0  0  0  0  0  0  0
   37.9900   23.0140   34.1210 C   0  0  0  0  0  0  0  0  0  0  0  0
   38.3820   23.9950   35.0560 C   0  0  0  0  0  0  0  0  0  0  0  0
   38.5110   25.2660   34.6320 N   0  0  0  0  0  0  0  0  0  0  0  0
   38.2720   25.6100   33.3320 C   0  0  0  0  0  0  0  0  0  0  0  0
   37.9020   24.6870   32.4500 N   0  0  0  0  0  0  0  0  0  0  0  0
   37.4550   22.6130   32.1190 H   0  0  0  0  0  0  0  0  0  0  0  0
   37.8780   21.9850   34.4310 H   0  0  0  0  0  0  0  0  0  0  0  0
   38.6390   23.6330   36.4440 C   0  0  0  0  0  0  0  0  0  0  0  0
   39.5890   22.7360   36.8650 C   0  0  0  0  0  0  0  0  0  0  0  0
   40.2550   22.1970   36.1940 H   0  0  0  0  0  0  0  0  0  0  0  0
   39.6010   22.6010   38.2000 N   0  0  0  0  0  0  0  0  0  0  0  0
   40.2560   21.9600   38.7230 H   0  0  0  0  0  0  0  0  0  0  0  0
   38.6240   23.4420   38.6460 C   0  0  0  0  0  0  0  0  0  0  0  0
   38.4140   23.5330   39.7030 H   0  0  0  0  0  0  0  0  0  0  0  0
   38.0620   24.0490   37.5850 N   0  0  0  0  0  0  0  0  0  0  0  0
  1  4  1  0  0  0  0
  1 23  1  0  0  0  0
  2  1  1  0  0  0  0
  3  1  1  0  0  0  0
  4  8  2  0  0  0  0
  5  6  2  0  0  0  0
  5  4  1  0  0  0  0
  6  7  1  0  0  0  0
  7  8  1  0  0  0  0
  7 10  1  0  0  0  0
  9 10  1  0  0  0  0
  9 17  1  0  0  0  0
 10 11  2  0  0  0  0
 11 12  1  0  0  0  0
 12 13  1  0  0  0  0
 13 14  2  0  0  0  0
 13 21  1  0  0  0  0
 15 22  1  0  0  0  0
 15 14  1  0  0  0  0
 16 15  2  0  0  0  0
 17 16  1  0  0  0  0
 17 12  2  0  0  0  0
 18  5  1  0  0  0  0
 19  6  1  0  0  0  0
 20  9  1  0  0  0  0
 23 30  1  0  0  0  0
 23 25  1  0  0  0  0
 24 23  1  0  0  0  0
 26 27  1  0  0  0  0
 27 33  1  0  0  0  0
 27 28  2  0  0  0  0
 28 34  1  0  0  0  0
 29 28  1  0  0  0  0
 30 29  2  0  0  0  0
 31 26  2  0  0  0  0
 31 30  1  0  0  0  0
 32 26  1  0  0  0  0
 34 35  2  0  0  0  0
 34 41  1  0  0  0  0
 35 37  1  0  0  0  0
 36 35  1  0  0  0  0
 37 39  1  0  0  0  0
 37 38  1  0  0  0  0
 39 40  1  0  0  0  0
 41 39  2  0  0  0  0
M  END
>  <minimizedAffinity>
-5.89124775

$$$$

 OpenBabel03272502033D

 41 45  0  0  0  0  0  0  0  0999 V2000
   38.2070   27.5370   31.8590 C   0  0  0  0  0  0  0  0  0  0  0  0
   39.2180   27.9560   31.7370 H   0  0  0  0  0  0  0  0  0  0  0  0
   38.0480   26.6490   31.2160 H   0  0  0  0  0  0  0  0  0  0  0  0
   37.2280   28.5960   31.4250 C   0  0  0  0  0  0  0  0  0  0  0  0
   37.4360   29.5540   30.4380 C   0  0  0  0  0  0  0  0  0  0  0  0
   36.2940   30.3370   30.3450 C   0  0  0  0  0  0  0  0  0  0  0  0
   35.4370   29.8330   31.2720 N   0  0  0  0  0  0  0  0  0  0  0  0
   35.9930   28.8110   31.9010 N   0  0  0  0  0  0  0  0  0  0  0  0
   33.6190   31.4420   30.6960 N   0  0  0  0  0  0  0  0  0  0  0  0
   34.1620   30.4480   31.4050 C   0  0  0  0  0  0  0  0  0  0  0  0
   33.2380   30.0910   32.3400 N   0  0  0  0  0  0  0  0  0  0  0  0
   32.1480   30.8530   32.2070 C   0  0  0  0  0  0  0  0  0  0  0  0
   30.9750   30.8490   32.9250 C   0  0  0  0  0  0  0  0  0  0  0  0
   30.0100   31.7260   32.5950 N   0  0  0  0  0  0  0  0  0  0  0  0
   30.2190   32.5900   31.5660 C   0  0  0  0  0  0  0  0  0  0  0  0
   31.3730   32.5820   30.8720 N   0  0  0  0  0  0  0  0  0  0  0  0
   32.3700   31.7200   31.1650 C   0  0  0  0  0  0  0  0  0  0  0  0
   38.3440   29.6540   29.8520 H   0  0  0  0  0  0  0  0  0  0  0  0
   36.2290   31.1440   29.6440 H   0  0  0  0  0  0  0  0  0  0  0  0
   34.0550   31.9410   29.9100 H   0  0  0  0  0  0  0  0  0  0  0  0
   30.7710   30.1720   33.7570 H   0  0  0  0  0  0  0  0  0  0  0  0
   29.5330   33.3470   31.1910 H   0  0  0  0  0  0  0  0  0  0  0  0
   37.8970   27.2590   33.3030 C   0  0  0  0  0  0  0  0  0  0  0  0
   38.7030   27.6800   33.9690 H   0  0  0  0  0  0  0  0  0  0  0  0
   36.9300   27.7290   33.5630 H   0  0  0  0  0  0  0  0  0  0  0  0
   37.6950   23.5960   32.8580 C   0  0  0  0  0  0  0  0  0  0  0  0
   38.0070   23.1300   34.1410 C   0  0  0  0  0  0  0  0  0  0  0  0
   38.2850   24.0760   35.1490 C   0  0  0  0  0  0  0  0  0  0  0  0
   38.2350   25.3830   34.8280 N   0  0  0  0  0  0  0  0  0  0  0  0
   37.9270   25.7940   33.5630 C   0  0  0  0  0  0  0  0  0  0  0  0
   37.6650   24.9020   32.6130 N   0  0  0  0  0  0  0  0  0  0  0  0
   37.4890   22.8200   32.1190 H   0  0  0  0  0  0  0  0  0  0  0  0
   38.0380   22.0730   34.3680 H   0  0  0  0  0  0  0  0  0  0  0  0
   38.6150   23.6440   36.5010 C   0  0  0  0  0  0  0  0  0  0  0  0
   39.6520   22.8070   36.8320 C   0  0  0  0  0  0  0  0  0  0  0  0
   40.3400   22.3760   36.1070 H   0  0  0  0  0  0  0  0  0  0  0  0
   39.7170   22.5810   38.1530 N   0  0  0  0  0  0  0  0  0  0  0  0
   40.4410   21.9660   38.6120 H   0  0  0  0  0  0  0  0  0  0  0  0
   38.6860   23.3000   38.6820 C   0  0  0  0  0  0  0  0  0  0  0  0
   38.5020   23.2990   39.7480 H   0  0  0  0  0  0  0  0  0  0  0  0
   38.0400   23.9260   37.6820 N   0  0  0  0  0  0  0  0  0  0  0  0
  1 23  1  0  0  0  0
  2  1  1  0  0  0  0
  3  1  1  0  0  0  0
  4  1  1  0  0  0  0
  4  8  2  0  0  0  0
  5  4  1  0  0  0  0
  6  5  2  0  0  0  0
  6  7  1  0  0  0  0
  7 10  1  0  0  0  0
  7  8  1  0  0  0  0
  9 17  1  0  0  0  0
  9 10  1  0  0  0  0
 10 11  2  0  0  0  0
 12 11  1  0  0  0  0
 12 13  1  0  0  0  0
 13 21  1  0  0  0  0
 14 13  2  0  0  0  0
 15 14  1  0  0  0  0
 16 17  1  0  0  0  0
 16 15  2  0  0  0  0
 17 12  2  0  0  0  0
 18  5  1  0  0  0  0
 19  6  1  0  0  0  0
 20  9  1  0  0  0  0
 22 15  1  0  0  0  0
 23 25  1  0  0  0  0
 23 30  1  0  0  0  0
 23 24  1  0  0  0  0
 26 27  1  0  0  0  0
 27 33  1  0  0  0  0
 27 28  2  0  0  0  0
 28 34  1  0  0  0  0
 29 28  1  0  0  0  0
 30 29  2  0  0  0  0
 31 26  2  0  0  0  0
 31 30  1  0  0  0  0
 32 26  1  0  0  0  0
 34 35  2  0  0  0  0
 34 41  1  0  0  0  0
 35 37  1  0  0  0  0
 36 35  1  0  0  0  0
 37 38  1  0  0  0  0
 37 39  1  0  0  0  0
 39 40  1  0  0  0  0
 41 39  2  0  0  0  0
M  END
>  <minimizedAffinity>
-5.82627726

$$$$

 OpenBabel03272502033D

 41 45  0  0  0  0  0  0  0  0999 V2000
   36.3490   22.0390   32.4150 C   0  0  0  0  0  0  0  0  0  0  0  0
   35.4280   21.6700   31.9350 H   0  0  0  0  0  0  0  0  0  0  0  0
   36.1820   22.3040   33.4780 H   0  0  0  0  0  0  0  0  0  0  0  0
   36.7590   23.2940   31.6910 C   0  0  0  0  0  0  0  0  0  0  0  0
   37.7180   23.3880   30.6870 C   0  0  0  0  0  0  0  0  0  0  0  0
   37.7970   24.7140   30.2850 C   0  0  0  0  0  0  0  0  0  0  0  0
   36.8910   25.3760   31.0530 N   0  0  0  0  0  0  0  0  0  0  0  0
   36.2870   24.5350   31.8750 N   0  0  0  0  0  0  0  0  0  0  0  0
   37.3420   27.5760   29.9640 N   0  0  0  0  0  0  0  0  0  0  0  0
   36.7510   26.7780   30.8590 C   0  0  0  0  0  0  0  0  0  0  0  0
   35.9370   27.5720   31.6060 N   0  0  0  0  0  0  0  0  0  0  0  0
   36.0260   28.8360   31.1780 C   0  0  0  0  0  0  0  0  0  0  0  0
   35.3910   29.9690   31.6310 C   0  0  0  0  0  0  0  0  0  0  0  0
   35.6500   31.1420   31.0280 N   0  0  0  0  0  0  0  0  0  0  0  0
   36.5300   31.1780   29.9910 C   0  0  0  0  0  0  0  0  0  0  0  0
   37.1440   30.0600   29.5590 N   0  0  0  0  0  0  0  0  0  0  0  0
   36.9160   28.8590   30.1330 C   0  0  0  0  0  0  0  0  0  0  0  0
   38.2940   22.5540   30.2980 H   0  0  0  0  0  0  0  0  0  0  0  0
   38.4760   25.0220   29.5160 H   0  0  0  0  0  0  0  0  0  0  0  0
   38.0200   27.2920   29.2440 H   0  0  0  0  0  0  0  0  0  0  0  0
   34.6800   29.9790   32.4600 H   0  0  0  0  0  0  0  0  0  0  0  0
   36.8330   32.0490   29.4130 H   0  0  0  0  0  0  0  0  0  0  0  0
   37.4860   21.0720   32.2390 C   0  0  0  0  0  0  0  0  0  0  0  0
   37.1810   20.0390   32.5700 H   0  0  0  0  0  0  0  0  0  0  0  0
   37.7720   21.0420   31.1710 H   0  0  0  0  0  0  0  0  0  0  0  0
   40.8820   21.6770   33.5660 C   0  0  0  0  0  0  0  0  0  0  0  0
   40.6110   22.1230   34.8650 C   0  0  0  0  0  0  0  0  0  0  0  0
   39.2640   22.2140   35.2750 C   0  0  0  0  0  0  0  0  0  0  0  0
   38.3050   21.8650   34.3970 N   0  0  0  0  0  0  0  0  0  0  0  0
   38.6140   21.4350   33.1390 C   0  0  0  0  0  0  0  0  0  0  0  0
   39.8830   21.3490   32.7510 N   0  0  0  0  0  0  0  0  0  0  0  0
   41.9390   21.6270   33.3020 H   0  0  0  0  0  0  0  0  0  0  0  0
   41.4040   22.3960   35.5470 H   0  0  0  0  0  0  0  0  0  0  0  0
   38.9280   22.6730   36.6170 C   0  0  0  0  0  0  0  0  0  0  0  0
   39.7710   22.6370   37.7000 C   0  0  0  0  0  0  0  0  0  0  0  0
   40.7900   22.2570   37.6630 H   0  0  0  0  0  0  0  0  0  0  0  0
   39.1940   23.1260   38.8070 N   0  0  0  0  0  0  0  0  0  0  0  0
   39.6720   23.1870   39.7460 H   0  0  0  0  0  0  0  0  0  0  0  0
   37.9370   23.4860   38.4160 C   0  0  0  0  0  0  0  0  0  0  0  0
   37.2410   23.9170   39.1230 H   0  0  0  0  0  0  0  0  0  0  0  0
   37.7980   23.2080   37.1080 N   0  0  0  0  0  0  0  0  0  0  0  0
  1  3  1  0  0  0  0
  2  1  1  0  0  0  0
  4  8  2  0  0  0  0
  4  1  1  0  0  0  0
  5  4  1  0  0  0  0
  6  5  2  0  0  0  0
  6  7  1  0  0  0  0
  7  8  1  0  0  0  0
  9 17  1  0  0  0  0
  9 10  1  0  0  0  0
 10  7  1  0  0  0  0
 10 11  2  0  0  0  0
 12 11  1  0  0  0  0
 12 13  1  0  0  0  0
 13 21  1  0  0  0  0
 14 13  2  0  0  0  0
 15 14  1  0  0  0  0
 16 15  2  0  0  0  0
 16 17  1  0  0  0  0
 17 12  2  0  0  0  0
 18  5  1  0  0  0  0
 19  6  1  0  0  0  0
 20  9  1  0  0  0  0
 22 15  1  0  0  0  0
 23  1  1  0  0  0  0
 23 24  1  0  0  0  0
 23 30  1  0  0  0  0
 25 23  1  0  0  0  0
 26 27  1  0  0  0  0
 27 28  2  0  0  0  0
 27 33  1  0  0  0  0
 28 34  1  0  0  0  0
 29 28  1  0  0  0  0
 30 29  2  0  0  0  0
 31 30  1  0  0  0  0
 31 26  2  0  0  0  0
 32 26  1  0  0  0  0
 34 41  1  0  0  0  0
 34 35  2  0  0  0  0
 35 37  1  0  0  0  0
 36 35  1  0  0  0  0
 37 38  1  0  0  0  0
 39 37  1  0  0  0  0
 39 40  1  0  0  0  0
 41 39  2  0  0  0  0
M  END
>  <minimizedAffinity>
-5.80153227

$$$$
