
 OpenBabel03272509253D

 23 24  0  0  0  0  0  0  0  0999 V2000
   38.4230   26.5780   36.1100 C   0  0  0  0  0  0  0  0  0  0  0  0
   37.6970   27.3930   36.2650 H   0  0  0  0  0  0  0  0  0  0  0  0
   39.2120   26.5630   36.8910 H   0  0  0  0  0  0  0  0  0  0  0  0
   41.1110   27.0650   33.4820 C   0  0  0  0  0  0  0  0  0  0  0  0
   40.5300   26.8440   34.7380 C   0  0  0  0  0  0  0  0  0  0  0  0
   39.1470   26.8060   34.8280 C   0  0  0  0  0  0  0  0  0  0  0  0
   38.4220   26.9850   33.7030 N   0  0  0  0  0  0  0  0  0  0  0  0
   39.0070   27.1990   32.5000 C   0  0  0  0  0  0  0  0  0  0  0  0
   40.3510   27.2380   32.3900 N   0  0  0  0  0  0  0  0  0  0  0  0
   42.1930   27.0980   33.3890 H   0  0  0  0  0  0  0  0  0  0  0  0
   41.1240   26.7010   35.6360 H   0  0  0  0  0  0  0  0  0  0  0  0
   38.3520   27.3330   31.6400 H   0  0  0  0  0  0  0  0  0  0  0  0
   37.7380   25.2240   36.0910 C   0  0  0  0  0  0  0  0  0  0  0  0
   37.8280   24.8490   35.0310 H   0  0  0  0  0  0  0  0  0  0  0  0
   36.6520   25.3740   36.2520 H   0  0  0  0  0  0  0  0  0  0  0  0
   38.3580   24.2550   36.9930 C   0  0  0  0  0  0  0  0  0  0  0  0
   38.1210   23.7720   38.2630 C   0  0  0  0  0  0  0  0  0  0  0  0
   37.2730   24.1520   38.8190 H   0  0  0  0  0  0  0  0  0  0  0  0
   39.0370   22.8530   38.6240 N   0  0  0  0  0  0  0  0  0  0  0  0
   39.0450   22.3580   39.5460 H   0  0  0  0  0  0  0  0  0  0  0  0
   39.8490   22.7690   37.5610 C   0  0  0  0  0  0  0  0  0  0  0  0
   40.7200   22.0960   37.5250 H   0  0  0  0  0  0  0  0  0  0  0  0
   39.4680   23.5930   36.5750 N   0  0  0  0  0  0  0  0  0  0  0  0
  1  2  1  0  0  0  0
  1  3  1  0  0  0  0
  4  5  1  0  0  0  0
  5  6  2  0  0  0  0
  5 11  1  0  0  0  0
  6  1  1  0  0  0  0
  7  6  1  0  0  0  0
  8  7  2  0  0  0  0
  9  8  1  0  0  0  0
  9  4  2  0  0  0  0
 10  4  1  0  0  0  0
 12  8  1  0  0  0  0
 13  1  1  0  0  0  0
 13 15  1  0  0  0  0
 13 16  1  0  0  0  0
 14 13  1  0  0  0  0
 16 17  2  0  0  0  0
 17 19  1  0  0  0  0
 17 18  1  0  0  0  0
 19 20  1  0  0  0  0
 21 19  1  0  0  0  0
 22 21  1  0  0  0  0
 23 16  1  0  0  0  0
 23 21  2  0  0  0  0
M  END
>  <minimizedAffinity>
-4.14833784

$$$$

 OpenBabel03272509253D

 23 24  0  0  0  0  0  0  0  0999 V2000
   37.9860   26.1440   35.6800 C   0  0  0  0  0  0  0  0  0  0  0  0
   37.3170   26.1980   36.5560 H   0  0  0  0  0  0  0  0  0  0  0  0
   38.9010   26.7580   35.8120 H   0  0  0  0  0  0  0  0  0  0  0  0
   36.0820   28.4400   33.3400 C   0  0  0  0  0  0  0  0  0  0  0  0
   36.7110   27.9860   34.5070 C   0  0  0  0  0  0  0  0  0  0  0  0
   37.2910   26.7260   34.4980 C   0  0  0  0  0  0  0  0  0  0  0  0
   37.2230   25.9930   33.3660 N   0  0  0  0  0  0  0  0  0  0  0  0
   36.6080   26.4530   32.2510 C   0  0  0  0  0  0  0  0  0  0  0  0
   36.0380   27.6760   32.2370 N   0  0  0  0  0  0  0  0  0  0  0  0
   35.6220   29.4230   33.3260 H   0  0  0  0  0  0  0  0  0  0  0  0
   36.7600   28.5850   35.4120 H   0  0  0  0  0  0  0  0  0  0  0  0
   36.5970   25.8000   31.3780 H   0  0  0  0  0  0  0  0  0  0  0  0
   38.4030   24.7140   35.3910 C   0  0  0  0  0  0  0  0  0  0  0  0
   39.3140   24.7870   34.7300 H   0  0  0  0  0  0  0  0  0  0  0  0
   37.6270   24.2380   34.7600 H   0  0  0  0  0  0  0  0  0  0  0  0
   38.7490   23.9630   36.5960 C   0  0  0  0  0  0  0  0  0  0  0  0
   39.6350   22.9600   36.9350 C   0  0  0  0  0  0  0  0  0  0  0  0
   40.2890   22.5600   36.1710 H   0  0  0  0  0  0  0  0  0  0  0  0
   39.5340   22.6260   38.2350 N   0  0  0  0  0  0  0  0  0  0  0  0
   40.1130   21.8890   38.7020 H   0  0  0  0  0  0  0  0  0  0  0  0
   38.5730   23.4330   38.7050 C   0  0  0  0  0  0  0  0  0  0  0  0
   38.2380   23.4180   39.7540 H   0  0  0  0  0  0  0  0  0  0  0  0
   38.0880   24.2400   37.7500 N   0  0  0  0  0  0  0  0  0  0  0  0
  1  3  1  0  0  0  0
  1  2  1  0  0  0  0
  4  5  1  0  0  0  0
  5 11  1  0  0  0  0
  6  5  2  0  0  0  0
  6  1  1  0  0  0  0
  7  6  1  0  0  0  0
  8  7  2  0  0  0  0
  9  8  1  0  0  0  0
  9  4  2  0  0  0  0
 10  4  1  0  0  0  0
 12  8  1  0  0  0  0
 13  1  1  0  0  0  0
 13 16  1  0  0  0  0
 14 13  1  0  0  0  0
 15 13  1  0  0  0  0
 16 17  2  0  0  0  0
 16 23  1  0  0  0  0
 17 19  1  0  0  0  0
 18 17  1  0  0  0  0
 19 20  1  0  0  0  0
 19 21  1  0  0  0  0
 21 22  1  0  0  0  0
 23 21  2  0  0  0  0
M  END
>  <minimizedAffinity>
-4.14577818

$$$$

 OpenBabel03272509253D

 23 24  0  0  0  0  0  0  0  0999 V2000
   38.6890   26.2220   35.6720 C   0  0  0  0  0  0  0  0  0  0  0  0
   38.8760   26.9470   36.4820 H   0  0  0  0  0  0  0  0  0  0  0  0
   39.6280   25.7790   35.2800 H   0  0  0  0  0  0  0  0  0  0  0  0
   36.3940   28.2630   33.4490 C   0  0  0  0  0  0  0  0  0  0  0  0
   36.8820   27.6300   34.6000 C   0  0  0  0  0  0  0  0  0  0  0  0
   38.0770   26.9310   34.5140 C   0  0  0  0  0  0  0  0  0  0  0  0
   38.7160   26.8910   33.3250 N   0  0  0  0  0  0  0  0  0  0  0  0
   38.2230   27.5100   32.2260 C   0  0  0  0  0  0  0  0  0  0  0  0
   37.0630   28.1960   32.2880 N   0  0  0  0  0  0  0  0  0  0  0  0
   35.4600   28.8160   33.4950 H   0  0  0  0  0  0  0  0  0  0  0  0
   36.3600   27.6700   35.5520 H   0  0  0  0  0  0  0  0  0  0  0  0
   38.8000   27.4300   31.3040 H   0  0  0  0  0  0  0  0  0  0  0  0
   37.7820   25.0970   36.1360 C   0  0  0  0  0  0  0  0  0  0  0  0
   37.4580   24.5580   35.2000 H   0  0  0  0  0  0  0  0  0  0  0  0
   36.8540   25.5370   36.5500 H   0  0  0  0  0  0  0  0  0  0  0  0
   38.4530   24.1480   37.0230 C   0  0  0  0  0  0  0  0  0  0  0  0
   38.2700   23.6710   38.3050 C   0  0  0  0  0  0  0  0  0  0  0  0
   37.4340   24.0380   38.8860 H   0  0  0  0  0  0  0  0  0  0  0  0
   39.2170   22.7740   38.6400 N   0  0  0  0  0  0  0  0  0  0  0  0
   39.2680   22.2880   39.5650 H   0  0  0  0  0  0  0  0  0  0  0  0
   39.9940   22.6980   37.5500 C   0  0  0  0  0  0  0  0  0  0  0  0
   40.8770   22.0420   37.4890 H   0  0  0  0  0  0  0  0  0  0  0  0
   39.5610   23.5060   36.5720 N   0  0  0  0  0  0  0  0  0  0  0  0
  1 13  1  0  0  0  0
  1  2  1  0  0  0  0
  3  1  1  0  0  0  0
  4 10  1  0  0  0  0
  4  5  1  0  0  0  0
  5 11  1  0  0  0  0
  6  5  2  0  0  0  0
  6  1  1  0  0  0  0
  7  6  1  0  0  0  0
  8  9  1  0  0  0  0
  8  7  2  0  0  0  0
  9  4  2  0  0  0  0
 12  8  1  0  0  0  0
 13 15  1  0  0  0  0
 13 16  1  0  0  0  0
 14 13  1  0  0  0  0
 16 17  2  0  0  0  0
 17 19  1  0  0  0  0
 17 18  1  0  0  0  0
 19 20  1  0  0  0  0
 21 19  1  0  0  0  0
 22 21  1  0  0  0  0
 23 16  1  0  0  0  0
 23 21  2  0  0  0  0
M  END
>  <minimizedAffinity>
-4.13765764

$$$$

 OpenBabel03272509253D

 23 24  0  0  0  0  0  0  0  0999 V2000
   38.6340   25.3690   34.7860 C   0  0  0  0  0  0  0  0  0  0  0  0
   39.0000   26.4050   34.6940 H   0  0  0  0  0  0  0  0  0  0  0  0
   39.4580   24.6270   34.7550 H   0  0  0  0  0  0  0  0  0  0  0  0
   36.2830   25.6020   31.8210 C   0  0  0  0  0  0  0  0  0  0  0  0
   37.0600   26.0100   32.9130 C   0  0  0  0  0  0  0  0  0  0  0  0
   37.7760   25.0490   33.6110 C   0  0  0  0  0  0  0  0  0  0  0  0
   37.6910   23.7630   33.2070 N   0  0  0  0  0  0  0  0  0  0  0  0
   36.9310   23.3930   32.1480 C   0  0  0  0  0  0  0  0  0  0  0  0
   36.2280   24.3120   31.4550 N   0  0  0  0  0  0  0  0  0  0  0  0
   35.7150   26.3400   31.2610 H   0  0  0  0  0  0  0  0  0  0  0  0
   37.1210   27.0480   33.2280 H   0  0  0  0  0  0  0  0  0  0  0  0
   36.9170   22.3350   31.8860 H   0  0  0  0  0  0  0  0  0  0  0  0
   37.8550   25.1700   36.0730 C   0  0  0  0  0  0  0  0  0  0  0  0
   36.8360   24.7990   35.7620 H   0  0  0  0  0  0  0  0  0  0  0  0
   37.6720   26.1610   36.5330 H   0  0  0  0  0  0  0  0  0  0  0  0
   38.4650   24.1880   36.9670 C   0  0  0  0  0  0  0  0  0  0  0  0
   38.2260   23.6990   38.2340 C   0  0  0  0  0  0  0  0  0  0  0  0
   37.3830   24.0840   38.7940 H   0  0  0  0  0  0  0  0  0  0  0  0
   39.1320   22.7670   38.5870 N   0  0  0  0  0  0  0  0  0  0  0  0
   39.1360   22.2670   39.5060 H   0  0  0  0  0  0  0  0  0  0  0  0
   39.9420   22.6820   37.5220 C   0  0  0  0  0  0  0  0  0  0  0  0
   40.8050   21.9990   37.4800 H   0  0  0  0  0  0  0  0  0  0  0  0
   39.5680   23.5170   36.5430 N   0  0  0  0  0  0  0  0  0  0  0  0
  1 13  1  0  0  0  0
  2  1  1  0  0  0  0
  3  1  1  0  0  0  0
  4  5  1  0  0  0  0
  5 11  1  0  0  0  0
  5  6  2  0  0  0  0
  6  1  1  0  0  0  0
  7  6  1  0  0  0  0
  8  7  2  0  0  0  0
  9  4  2  0  0  0  0
  9  8  1  0  0  0  0
 10  4  1  0  0  0  0
 12  8  1  0  0  0  0
 13 15  1  0  0  0  0
 13 16  1  0  0  0  0
 14 13  1  0  0  0  0
 16 17  2  0  0  0  0
 17 19  1  0  0  0  0
 17 18  1  0  0  0  0
 19 20  1  0  0  0  0
 21 19  1  0  0  0  0
 22 21  1  0  0  0  0
 23 16  1  0  0  0  0
 23 21  2  0  0  0  0
M  END
>  <minimizedAffinity>
-3.87608147

$$$$

 OpenBabel03272509253D

 23 24  0  0  0  0  0  0  0  0999 V2000
   38.6280   22.8500   33.8640 C   0  0  0  0  0  0  0  0  0  0  0  0
   39.1160   23.4260   33.0610 H   0  0  0  0  0  0  0  0  0  0  0  0
   39.2410   21.9850   34.1930 H   0  0  0  0  0  0  0  0  0  0  0  0
   35.5950   22.0240   31.7440 C   0  0  0  0  0  0  0  0  0  0  0  0
   36.7860   22.6460   32.1440 C   0  0  0  0  0  0  0  0  0  0  0  0
   37.3640   22.2570   33.3430 C   0  0  0  0  0  0  0  0  0  0  0  0
   36.7540   21.2990   34.0720 N   0  0  0  0  0  0  0  0  0  0  0  0
   35.6030   20.7130   33.6650 C   0  0  0  0  0  0  0  0  0  0  0  0
   35.0240   21.0750   32.5020 N   0  0  0  0  0  0  0  0  0  0  0  0
   35.1260   22.3130   30.8090 H   0  0  0  0  0  0  0  0  0  0  0  0
   37.2680   23.4160   31.5480 H   0  0  0  0  0  0  0  0  0  0  0  0
   35.1740   19.9470   34.3120 H   0  0  0  0  0  0  0  0  0  0  0  0
   38.3390   23.7220   35.0720 C   0  0  0  0  0  0  0  0  0  0  0  0
   37.2190   23.6990   35.2070 H   0  0  0  0  0  0  0  0  0  0  0  0
   38.5750   24.7730   34.8150 H   0  0  0  0  0  0  0  0  0  0  0  0
   38.9750   23.2380   36.2950 C   0  0  0  0  0  0  0  0  0  0  0  0
   38.6980   23.2580   37.6470 C   0  0  0  0  0  0  0  0  0  0  0  0
   37.7890   23.7380   37.9880 H   0  0  0  0  0  0  0  0  0  0  0  0
   39.6580   22.6410   38.3600 N   0  0  0  0  0  0  0  0  0  0  0  0
   39.6480   22.5410   39.4020 H   0  0  0  0  0  0  0  0  0  0  0  0
   40.5400   22.2350   37.4360 C   0  0  0  0  0  0  0  0  0  0  0  0
   41.4620   21.6870   37.6880 H   0  0  0  0  0  0  0  0  0  0  0  0
   40.1580   22.5770   36.1980 N   0  0  0  0  0  0  0  0  0  0  0  0
  1  3  1  0  0  0  0
  1 13  1  0  0  0  0
  2  1  1  0  0  0  0
  4  5  2  0  0  0  0
  4  9  1  0  0  0  0
  5  6  1  0  0  0  0
  6  1  1  0  0  0  0
  6  7  2  0  0  0  0
  8  7  1  0  0  0  0
  8 12  1  0  0  0  0
  9  8  2  0  0  0  0
 10  4  1  0  0  0  0
 11  5  1  0  0  0  0
 13 14  1  0  0  0  0
 13 16  1  0  0  0  0
 15 13  1  0  0  0  0
 16 17  2  0  0  0  0
 17 18  1  0  0  0  0
 17 19  1  0  0  0  0
 19 20  1  0  0  0  0
 21 22  1  0  0  0  0
 21 19  1  0  0  0  0
 23 16  1  0  0  0  0
 23 21  2  0  0  0  0
M  END
>  <minimizedAffinity>
-3.82237053

$$$$

 OpenBabel03272509253D

 23 24  0  0  0  0  0  0  0  0999 V2000
   38.8130   23.8700   34.1130 C   0  0  0  0  0  0  0  0  0  0  0  0
   38.7570   24.7440   34.7830 H   0  0  0  0  0  0  0  0  0  0  0  0
   39.7420   23.8630   33.5060 H   0  0  0  0  0  0  0  0  0  0  0  0
   36.0660   22.9920   31.6520 C   0  0  0  0  0  0  0  0  0  0  0  0
   37.1050   22.8140   32.5750 C   0  0  0  0  0  0  0  0  0  0  0  0
   37.7010   23.9400   33.1240 C   0  0  0  0  0  0  0  0  0  0  0  0
   37.2530   25.1560   32.7450 N   0  0  0  0  0  0  0  0  0  0  0  0
   36.2470   25.3020   31.8500 C   0  0  0  0  0  0  0  0  0  0  0  0
   35.6530   24.2210   31.3040 N   0  0  0  0  0  0  0  0  0  0  0  0
   35.5860   22.1230   31.2100 H   0  0  0  0  0  0  0  0  0  0  0  0
   37.4570   21.8310   32.8720 H   0  0  0  0  0  0  0  0  0  0  0  0
   35.9430   26.3180   31.5970 H   0  0  0  0  0  0  0  0  0  0  0  0
   38.7380   22.5710   34.8940 C   0  0  0  0  0  0  0  0  0  0  0  0
   39.6150   21.9520   34.5470 H   0  0  0  0  0  0  0  0  0  0  0  0
   37.8420   22.0090   34.5630 H   0  0  0  0  0  0  0  0  0  0  0  0
   38.8350   22.7640   36.3390 C   0  0  0  0  0  0  0  0  0  0  0  0
   39.7850   22.5550   37.3180 C   0  0  0  0  0  0  0  0  0  0  0  0
   40.7460   22.1430   37.0370 H   0  0  0  0  0  0  0  0  0  0  0  0
   39.3350   22.9220   38.5330 N   0  0  0  0  0  0  0  0  0  0  0  0
   39.8920   22.8490   39.4160 H   0  0  0  0  0  0  0  0  0  0  0  0
   38.0900   23.3610   38.3000 C   0  0  0  0  0  0  0  0  0  0  0  0
   37.4300   23.7410   39.0960 H   0  0  0  0  0  0  0  0  0  0  0  0
   37.7670   23.2780   37.0020 N   0  0  0  0  0  0  0  0  0  0  0  0
  1  2  1  0  0  0  0
  1 13  1  0  0  0  0
  3  1  1  0  0  0  0
  4  5  1  0  0  0  0
  5 11  1  0  0  0  0
  5  6  2  0  0  0  0
  6  1  1  0  0  0  0
  7  6  1  0  0  0  0
  8  7  2  0  0  0  0
  9  4  2  0  0  0  0
  9  8  1  0  0  0  0
 10  4  1  0  0  0  0
 12  8  1  0  0  0  0
 13 16  1  0  0  0  0
 14 13  1  0  0  0  0
 15 13  1  0  0  0  0
 16 23  1  0  0  0  0
 16 17  2  0  0  0  0
 17 19  1  0  0  0  0
 18 17  1  0  0  0  0
 19 20  1  0  0  0  0
 21 19  1  0  0  0  0
 21 22  1  0  0  0  0
 23 21  2  0  0  0  0
M  END
>  <minimizedAffinity>
-3.77310371

$$$$

 OpenBabel03272509253D

 23 24  0  0  0  0  0  0  0  0999 V2000
   37.9070   22.1420   34.7290 C   0  0  0  0  0  0  0  0  0  0  0  0
   38.7660   21.6660   34.2250 H   0  0  0  0  0  0  0  0  0  0  0  0
   37.5800   23.0700   34.2150 H   0  0  0  0  0  0  0  0  0  0  0  0
   37.9530   23.5900   38.2320 C   0  0  0  0  0  0  0  0  0  0  0  0
   37.4640   23.2250   36.9710 C   0  0  0  0  0  0  0  0  0  0  0  0
   38.3200   22.5750   36.0930 C   0  0  0  0  0  0  0  0  0  0  0  0
   39.5850   22.3240   36.4930 N   0  0  0  0  0  0  0  0  0  0  0  0
   40.0340   22.6870   37.7180 C   0  0  0  0  0  0  0  0  0  0  0  0
   39.2190   23.3200   38.5870 N   0  0  0  0  0  0  0  0  0  0  0  0
   37.3000   24.1000   38.9340 H   0  0  0  0  0  0  0  0  0  0  0  0
   36.4440   23.4320   36.6590 H   0  0  0  0  0  0  0  0  0  0  0  0
   41.0690   22.4470   37.9650 H   0  0  0  0  0  0  0  0  0  0  0  0
   36.7240   21.1950   34.8150 C   0  0  0  0  0  0  0  0  0  0  0  0
   36.0010   21.6720   35.5380 H   0  0  0  0  0  0  0  0  0  0  0  0
   37.0530   20.2610   35.3110 H   0  0  0  0  0  0  0  0  0  0  0  0
   36.0530   20.9990   33.5320 C   0  0  0  0  0  0  0  0  0  0  0  0
   35.8700   21.7240   32.3720 C   0  0  0  0  0  0  0  0  0  0  0  0
   36.3030   22.7140   32.3000 H   0  0  0  0  0  0  0  0  0  0  0  0
   35.1420   21.0420   31.4680 N   0  0  0  0  0  0  0  0  0  0  0  0
   34.8850   21.4060   30.5220 H   0  0  0  0  0  0  0  0  0  0  0  0
   34.8710   19.8790   32.0790 C   0  0  0  0  0  0  0  0  0  0  0  0
   34.2810   19.0780   31.6070 H   0  0  0  0  0  0  0  0  0  0  0  0
   35.4020   19.8270   33.3090 N   0  0  0  0  0  0  0  0  0  0  0  0
  1 13  1  0  0  0  0
  1  6  1  0  0  0  0
  2  1  1  0  0  0  0
  3  1  1  0  0  0  0
  4  9  1  0  0  0  0
  4 10  1  0  0  0  0
  5  4  2  0  0  0  0
  6  7  2  0  0  0  0
  6  5  1  0  0  0  0
  7  8  1  0  0  0  0
  8 12  1  0  0  0  0
  8  9  2  0  0  0  0
 11  5  1  0  0  0  0
 13 15  1  0  0  0  0
 13 14  1  0  0  0  0
 16 13  1  0  0  0  0
 17 16  2  0  0  0  0
 18 17  1  0  0  0  0
 19 21  1  0  0  0  0
 19 17  1  0  0  0  0
 20 19  1  0  0  0  0
 21 23  2  0  0  0  0
 22 21  1  0  0  0  0
 23 16  1  0  0  0  0
M  END
>  <minimizedAffinity>
-3.72077608

$$$$

 OpenBabel03272509253D

 23 24  0  0  0  0  0  0  0  0999 V2000
   37.9510   25.2920   34.6290 C   0  0  0  0  0  0  0  0  0  0  0  0
   38.6250   26.1490   34.4660 H   0  0  0  0  0  0  0  0  0  0  0  0
   36.9280   25.6110   34.9210 H   0  0  0  0  0  0  0  0  0  0  0  0
   38.3670   23.6560   38.0240 C   0  0  0  0  0  0  0  0  0  0  0  0
   37.8110   24.4450   37.0080 C   0  0  0  0  0  0  0  0  0  0  0  0
   38.4520   24.4870   35.7790 C   0  0  0  0  0  0  0  0  0  0  0  0
   39.5820   23.7660   35.6160 N   0  0  0  0  0  0  0  0  0  0  0  0
   40.1000   23.0110   36.6130 C   0  0  0  0  0  0  0  0  0  0  0  0
   39.4930   22.9550   37.8170 N   0  0  0  0  0  0  0  0  0  0  0  0
   37.8810   23.6090   38.9940 H   0  0  0  0  0  0  0  0  0  0  0  0
   36.9010   25.0210   37.1510 H   0  0  0  0  0  0  0  0  0  0  0  0
   41.0150   22.4580   36.4010 H   0  0  0  0  0  0  0  0  0  0  0  0
   37.8490   24.4250   33.3880 C   0  0  0  0  0  0  0  0  0  0  0  0
   37.4160   23.4420   33.7330 H   0  0  0  0  0  0  0  0  0  0  0  0
   38.8730   24.1820   33.0400 H   0  0  0  0  0  0  0  0  0  0  0  0
   36.9780   24.9930   32.3610 C   0  0  0  0  0  0  0  0  0  0  0  0
   36.3290   24.5390   31.2310 C   0  0  0  0  0  0  0  0  0  0  0  0
   36.4320   23.4990   30.9510 H   0  0  0  0  0  0  0  0  0  0  0  0
   35.6310   25.5220   30.6300 N   0  0  0  0  0  0  0  0  0  0  0  0
   35.0660   25.3960   29.7590 H   0  0  0  0  0  0  0  0  0  0  0  0
   35.8550   26.5970   31.4000 C   0  0  0  0  0  0  0  0  0  0  0  0
   35.4220   27.5860   31.1850 H   0  0  0  0  0  0  0  0  0  0  0  0
   36.6530   26.3100   32.4370 N   0  0  0  0  0  0  0  0  0  0  0  0
  1  3  1  0  0  0  0
  1  6  1  0  0  0  0
  2  1  1  0  0  0  0
  4 10  1  0  0  0  0
  5 11  1  0  0  0  0
  5  4  2  0  0  0  0
  6  5  1  0  0  0  0
  7  6  2  0  0  0  0
  7  8  1  0  0  0  0
  8  9  2  0  0  0  0
  9  4  1  0  0  0  0
 12  8  1  0  0  0  0
 13 14  1  0  0  0  0
 13  1  1  0  0  0  0
 15 13  1  0  0  0  0
 16 23  1  0  0  0  0
 16 13  1  0  0  0  0
 17 16  2  0  0  0  0
 18 17  1  0  0  0  0
 19 17  1  0  0  0  0
 19 21  1  0  0  0  0
 20 19  1  0  0  0  0
 21 23  2  0  0  0  0
 22 21  1  0  0  0  0
M  END
>  <minimizedAffinity>
-3.67843819

$$$$

 OpenBabel03272509253D

 23 24  0  0  0  0  0  0  0  0999 V2000
   37.8240   25.8330   35.6150 C   0  0  0  0  0  0  0  0  0  0  0  0
   36.8440   26.0950   36.0490 H   0  0  0  0  0  0  0  0  0  0  0  0
   37.7320   25.4100   34.5930 H   0  0  0  0  0  0  0  0  0  0  0  0
   39.9660   22.9370   36.7990 C   0  0  0  0  0  0  0  0  0  0  0  0
   39.4490   23.9240   35.9490 C   0  0  0  0  0  0  0  0  0  0  0  0
   38.4460   24.7520   36.4300 C   0  0  0  0  0  0  0  0  0  0  0  0
   38.0120   24.5700   37.6960 N   0  0  0  0  0  0  0  0  0  0  0  0
   38.5280   23.6090   38.4990 C   0  0  0  0  0  0  0  0  0  0  0  0
   39.5040   22.7930   38.0510 N   0  0  0  0  0  0  0  0  0  0  0  0
   40.7510   22.2780   36.4410 H   0  0  0  0  0  0  0  0  0  0  0  0
   39.8050   24.0610   34.9320 H   0  0  0  0  0  0  0  0  0  0  0  0
   38.1240   23.5270   39.5080 H   0  0  0  0  0  0  0  0  0  0  0  0
   38.7420   27.0390   35.5570 C   0  0  0  0  0  0  0  0  0  0  0  0
   39.4100   26.9620   36.4630 H   0  0  0  0  0  0  0  0  0  0  0  0
   38.1390   27.9530   35.7230 H   0  0  0  0  0  0  0  0  0  0  0  0
   39.5740   27.0700   34.3550 C   0  0  0  0  0  0  0  0  0  0  0  0
   40.9230   27.0770   34.0680 C   0  0  0  0  0  0  0  0  0  0  0  0
   41.6330   27.0550   34.8850 H   0  0  0  0  0  0  0  0  0  0  0  0
   41.1480   27.1110   32.7410 N   0  0  0  0  0  0  0  0  0  0  0  0
   42.0990   27.1220   32.3040 H   0  0  0  0  0  0  0  0  0  0  0  0
   39.9210   27.1260   32.2030 C   0  0  0  0  0  0  0  0  0  0  0  0
   39.7440   27.1540   31.1160 H   0  0  0  0  0  0  0  0  0  0  0  0
   38.9650   27.1020   33.1420 N   0  0  0  0  0  0  0  0  0  0  0  0
  1  2  1  0  0  0  0
  1  6  1  0  0  0  0
  3  1  1  0  0  0  0
  4  9  1  0  0  0  0
  5  6  1  0  0  0  0
  5  4  2  0  0  0  0
  6  7  2  0  0  0  0
  7  8  1  0  0  0  0
  8 12  1  0  0  0  0
  9  8  2  0  0  0  0
 10  4  1  0  0  0  0
 11  5  1  0  0  0  0
 13  1  1  0  0  0  0
 13 15  1  0  0  0  0
 13 14  1  0  0  0  0
 16 13  1  0  0  0  0
 17 16  2  0  0  0  0
 17 18  1  0  0  0  0
 19 17  1  0  0  0  0
 20 19  1  0  0  0  0
 21 19  1  0  0  0  0
 21 23  2  0  0  0  0
 22 21  1  0  0  0  0
 23 16  1  0  0  0  0
M  END
>  <minimizedAffinity>
-3.66172385

$$$$
