
 OpenBabel03272509243D

 23 24  0  0  0  0  0  0  0  0999 V2000
   36.6770   30.5970   47.3390 C   0  0  0  0  0  0  0  0  0  0  0  0
   36.2870   31.6150   47.1740 H   0  0  0  0  0  0  0  0  0  0  0  0
   36.8890   30.0690   46.3860 H   0  0  0  0  0  0  0  0  0  0  0  0
   34.7250   28.5430   49.8570 C   0  0  0  0  0  0  0  0  0  0  0  0
   35.7660   29.3070   49.3140 C   0  0  0  0  0  0  0  0  0  0  0  0
   35.6340   29.7770   48.0160 C   0  0  0  0  0  0  0  0  0  0  0  0
   34.5080   29.4780   47.3340 N   0  0  0  0  0  0  0  0  0  0  0  0
   33.5140   28.7370   47.8810 C   0  0  0  0  0  0  0  0  0  0  0  0
   33.6230   28.2710   49.1420 N   0  0  0  0  0  0  0  0  0  0  0  0
   34.8080   28.1650   50.8720 H   0  0  0  0  0  0  0  0  0  0  0  0
   36.6680   29.5410   49.8730 H   0  0  0  0  0  0  0  0  0  0  0  0
   32.6370   28.5400   47.2640 H   0  0  0  0  0  0  0  0  0  0  0  0
   37.9470   30.6200   48.1700 C   0  0  0  0  0  0  0  0  0  0  0  0
   38.6810   29.9560   47.6290 H   0  0  0  0  0  0  0  0  0  0  0  0
   37.7510   30.1070   49.1320 H   0  0  0  0  0  0  0  0  0  0  0  0
   38.5220   31.9570   48.3010 C   0  0  0  0  0  0  0  0  0  0  0  0
   39.1530   32.8640   47.4740 C   0  0  0  0  0  0  0  0  0  0  0  0
   39.3070   32.6060   46.4340 H   0  0  0  0  0  0  0  0  0  0  0  0
   39.4920   33.9870   48.1350 N   0  0  0  0  0  0  0  0  0  0  0  0
   39.9790   34.8040   47.6990 H   0  0  0  0  0  0  0  0  0  0  0  0
   39.0650   33.7690   49.3870 C   0  0  0  0  0  0  0  0  0  0  0  0
   39.1880   34.5040   50.1980 H   0  0  0  0  0  0  0  0  0  0  0  0
   38.4840   32.5680   49.5140 N   0  0  0  0  0  0  0  0  0  0  0  0
  1  6  1  0  0  0  0
  1 13  1  0  0  0  0
  2  1  1  0  0  0  0
  3  1  1  0  0  0  0
  4 10  1  0  0  0  0
  5  4  1  0  0  0  0
  5 11  1  0  0  0  0
  6  5  2  0  0  0  0
  7  8  2  0  0  0  0
  7  6  1  0  0  0  0
  8  9  1  0  0  0  0
  9  4  2  0  0  0  0
 12  8  1  0  0  0  0
 13 16  1  0  0  0  0
 13 15  1  0  0  0  0
 14 13  1  0  0  0  0
 16 23  1  0  0  0  0
 17 19  1  0  0  0  0
 17 16  2  0  0  0  0
 18 17  1  0  0  0  0
 19 21  1  0  0  0  0
 20 19  1  0  0  0  0
 21 23  2  0  0  0  0
 21 22  1  0  0  0  0
M  END
>  <minimizedAffinity>
-4.47814274

>  <minimizedRMSD>
2.8505547

$$$$
