
 OpenBabel03272504133D

 20 21  0  0  0  0  0  0  0  0999 V2000
   38.3770   23.7480   36.9970 C   0  0  0  0  0  0  0  0  0  0  0  0
   37.8750   24.8810   36.3640 C   0  0  0  0  0  0  0  0  0  0  0  0
   37.9330   24.9270   34.9620 C   0  0  0  0  0  0  0  0  0  0  0  0
   38.4750   23.8650   34.3080 N   0  0  0  0  0  0  0  0  0  0  0  0
   38.9510   22.7840   34.9690 C   0  0  0  0  0  0  0  0  0  0  0  0
   38.8960   22.7390   36.3090 N   0  0  0  0  0  0  0  0  0  0  0  0
   37.4490   25.7190   36.8690 H   0  0  0  0  0  0  0  0  0  0  0  0
   39.3850   21.9280   34.4840 H   0  0  0  0  0  0  0  0  0  0  0  0
   37.4300   26.0710   34.2500 C   0  0  0  0  0  0  0  0  0  0  0  0
   37.1090   27.2790   34.8190 C   0  0  0  0  0  0  0  0  0  0  0  0
   37.1600   27.5980   35.8300 H   0  0  0  0  0  0  0  0  0  0  0  0
   36.6830   28.0380   33.7670 N   0  0  0  0  0  0  0  0  0  0  0  0
   36.3640   29.0420   33.9060 H   0  0  0  0  0  0  0  0  0  0  0  0
   36.7360   27.3390   32.5970 C   0  0  0  0  0  0  0  0  0  0  0  0
   36.4240   27.8190   31.6620 H   0  0  0  0  0  0  0  0  0  0  0  0
   37.2080   26.1050   32.9240 N   0  0  0  0  0  0  0  0  0  0  0  0
   38.3180   23.6910   38.4920 C   0  0  0  0  0  0  0  0  0  0  0  0
   37.3530   22.7670   38.8870 F   0  0  0  0  0  0  0  0  0  0  0  0
   39.5600   23.4320   38.9760 F   0  0  0  0  0  0  0  0  0  0  0  0
   37.8690   24.9420   38.9320 F   0  0  0  0  0  0  0  0  0  0  0  0
  1 17  1  0  0  0  0
  2  7  1  0  0  0  0
  2  1  1  0  0  0  0
  3  2  2  0  0  0  0
  4  3  1  0  0  0  0
  4  5  2  0  0  0  0
  5  6  1  0  0  0  0
  6  1  2  0  0  0  0
  8  5  1  0  0  0  0
  9 10  2  0  0  0  0
  9  3  1  0  0  0  0
 10 11  1  0  0  0  0
 12 13  1  0  0  0  0
 12 10  1  0  0  0  0
 14 16  2  0  0  0  0
 14 12  1  0  0  0  0
 15 14  1  0  0  0  0
 16  9  1  0  0  0  0
 17 18  1  0  0  0  0
 17 20  1  0  0  0  0
 17 19  1  0  0  0  0
M  END
>  <minimizedAffinity>
-4.74298382

$$$$

 OpenBabel03272504133D

 20 21  0  0  0  0  0  0  0  0999 V2000
   37.5870   25.8390   33.6930 C   0  0  0  0  0  0  0  0  0  0  0  0
   37.9600   25.4710   34.9820 C   0  0  0  0  0  0  0  0  0  0  0  0
   38.1840   24.1090   35.2350 C   0  0  0  0  0  0  0  0  0  0  0  0
   38.0230   23.2320   34.2090 N   0  0  0  0  0  0  0  0  0  0  0  0
   37.6590   23.6380   32.9700 C   0  0  0  0  0  0  0  0  0  0  0  0
   37.4440   24.9400   32.7270 N   0  0  0  0  0  0  0  0  0  0  0  0
   38.0880   26.1520   35.7930 H   0  0  0  0  0  0  0  0  0  0  0  0
   37.5230   22.9730   32.1360 H   0  0  0  0  0  0  0  0  0  0  0  0
   38.5720   23.6670   36.5480 C   0  0  0  0  0  0  0  0  0  0  0  0
   39.5530   22.7430   36.8140 C   0  0  0  0  0  0  0  0  0  0  0  0
   40.1840   22.2010   36.1550 H   0  0  0  0  0  0  0  0  0  0  0  0
   39.5590   22.6510   38.1760 N   0  0  0  0  0  0  0  0  0  0  0  0
   40.2300   21.9990   38.6810 H   0  0  0  0  0  0  0  0  0  0  0  0
   38.6270   23.4750   38.7340 C   0  0  0  0  0  0  0  0  0  0  0  0
   38.5150   23.5100   39.8250 H   0  0  0  0  0  0  0  0  0  0  0  0
   38.0190   24.1050   37.6930 N   0  0  0  0  0  0  0  0  0  0  0  0
   37.3470   27.2910   33.4150 C   0  0  0  0  0  0  0  0  0  0  0  0
   37.2190   27.9820   34.6180 F   0  0  0  0  0  0  0  0  0  0  0  0
   38.3370   27.7600   32.6140 F   0  0  0  0  0  0  0  0  0  0  0  0
   36.1070   27.3850   32.7730 F   0  0  0  0  0  0  0  0  0  0  0  0
  1  2  1  0  0  0  0
  2  3  2  0  0  0  0
  2  7  1  0  0  0  0
  3  9  1  0  0  0  0
  4  3  1  0  0  0  0
  5  4  2  0  0  0  0
  6  5  1  0  0  0  0
  6  1  2  0  0  0  0
  8  5  1  0  0  0  0
  9 10  2  0  0  0  0
  9 16  1  0  0  0  0
 10 12  1  0  0  0  0
 11 10  1  0  0  0  0
 12 13  1  0  0  0  0
 12 14  1  0  0  0  0
 14 15  1  0  0  0  0
 16 14  2  0  0  0  0
 17  1  1  0  0  0  0
 17 18  1  0  0  0  0
 19 17  1  0  0  0  0
 20 17  1  0  0  0  0
M  END
>  <minimizedAffinity>
-4.5016489

$$$$

 OpenBabel03272504133D

 20 21  0  0  0  0  0  0  0  0999 V2000
   38.1560   24.0580   36.9640 C   0  0  0  0  0  0  0  0  0  0  0  0
   38.1140   22.9640   36.1060 C   0  0  0  0  0  0  0  0  0  0  0  0
   38.0800   23.2150   34.7260 C   0  0  0  0  0  0  0  0  0  0  0  0
   38.0890   24.5100   34.3100 N   0  0  0  0  0  0  0  0  0  0  0  0
   38.1310   25.5430   35.1850 C   0  0  0  0  0  0  0  0  0  0  0  0
   38.1640   25.3030   36.5040 N   0  0  0  0  0  0  0  0  0  0  0  0
   38.1060   21.9450   36.4230 H   0  0  0  0  0  0  0  0  0  0  0  0
   38.1400   26.5770   34.8910 H   0  0  0  0  0  0  0  0  0  0  0  0
   38.0350   22.1250   33.7880 C   0  0  0  0  0  0  0  0  0  0  0  0
   39.1300   21.5480   33.1930 C   0  0  0  0  0  0  0  0  0  0  0  0
   40.1630   21.7690   33.2930 H   0  0  0  0  0  0  0  0  0  0  0  0
   38.6000   20.5740   32.3980 N   0  0  0  0  0  0  0  0  0  0  0  0
   39.2210   19.9480   31.8040 H   0  0  0  0  0  0  0  0  0  0  0  0
   37.2390   20.5430   32.4910 C   0  0  0  0  0  0  0  0  0  0  0  0
   36.6700   19.8090   31.9070 H   0  0  0  0  0  0  0  0  0  0  0  0
   36.9060   21.5270   33.3700 N   0  0  0  0  0  0  0  0  0  0  0  0
   38.1940   23.7980   38.4380 C   0  0  0  0  0  0  0  0  0  0  0  0
   38.0020   24.9930   39.1300 F   0  0  0  0  0  0  0  0  0  0  0  0
   37.2890   22.8340   38.7430 F   0  0  0  0  0  0  0  0  0  0  0  0
   39.4920   23.3710   38.7450 F   0  0  0  0  0  0  0  0  0  0  0  0
  1 17  1  0  0  0  0
  2  7  1  0  0  0  0
  2  1  2  0  0  0  0
  3  2  1  0  0  0  0
  4  3  2  0  0  0  0
  4  5  1  0  0  0  0
  5  6  2  0  0  0  0
  6  1  1  0  0  0  0
  8  5  1  0  0  0  0
  9  3  1  0  0  0  0
 10 11  1  0  0  0  0
 10  9  2  0  0  0  0
 12 14  1  0  0  0  0
 12 10  1  0  0  0  0
 13 12  1  0  0  0  0
 14 16  2  0  0  0  0
 15 14  1  0  0  0  0
 16  9  1  0  0  0  0
 17 19  1  0  0  0  0
 17 20  1  0  0  0  0
 17 18  1  0  0  0  0
M  END
>  <minimizedAffinity>
-4.48155403

$$$$

 OpenBabel03272504133D

 20 21  0  0  0  0  0  0  0  0999 V2000
   36.9890   21.9480   33.2440 C   0  0  0  0  0  0  0  0  0  0  0  0
   37.4450   21.8750   34.5570 C   0  0  0  0  0  0  0  0  0  0  0  0
   38.2110   22.9450   35.0440 C   0  0  0  0  0  0  0  0  0  0  0  0
   38.4630   23.9860   34.2060 N   0  0  0  0  0  0  0  0  0  0  0  0
   37.9980   24.0110   32.9350 C   0  0  0  0  0  0  0  0  0  0  0  0
   37.2650   22.9890   32.4690 N   0  0  0  0  0  0  0  0  0  0  0  0
   37.2520   21.0630   35.2210 H   0  0  0  0  0  0  0  0  0  0  0  0
   38.1770   24.8170   32.2460 H   0  0  0  0  0  0  0  0  0  0  0  0
   38.7110   22.9290   36.3930 C   0  0  0  0  0  0  0  0  0  0  0  0
   39.8640   22.3060   36.8020 C   0  0  0  0  0  0  0  0  0  0  0  0
   40.5770   21.7460   36.2490 H   0  0  0  0  0  0  0  0  0  0  0  0
   39.9210   22.5600   38.1420 N   0  0  0  0  0  0  0  0  0  0  0  0
   40.7210   22.1960   38.7390 H   0  0  0  0  0  0  0  0  0  0  0  0
   38.8540   23.3060   38.5510 C   0  0  0  0  0  0  0  0  0  0  0  0
   38.7620   23.5920   39.6060 H   0  0  0  0  0  0  0  0  0  0  0  0
   38.1070   23.5270   37.4350 N   0  0  0  0  0  0  0  0  0  0  0  0
   36.1700   20.8100   32.7180 C   0  0  0  0  0  0  0  0  0  0  0  0
   35.0190   21.3060   32.1080 F   0  0  0  0  0  0  0  0  0  0  0  0
   36.9400   20.0480   31.9010 F   0  0  0  0  0  0  0  0  0  0  0  0
   35.7400   20.0690   33.8250 F   0  0  0  0  0  0  0  0  0  0  0  0
  1  2  1  0  0  0  0
  2  3  2  0  0  0  0
  2  7  1  0  0  0  0
  3  9  1  0  0  0  0
  4  3  1  0  0  0  0
  5  4  2  0  0  0  0
  6  5  1  0  0  0  0
  6  1  2  0  0  0  0
  8  5  1  0  0  0  0
  9 10  2  0  0  0  0
  9 16  1  0  0  0  0
 10 12  1  0  0  0  0
 11 10  1  0  0  0  0
 12 14  1  0  0  0  0
 12 13  1  0  0  0  0
 14 15  1  0  0  0  0
 16 14  2  0  0  0  0
 17  1  1  0  0  0  0
 17 20  1  0  0  0  0
 18 17  1  0  0  0  0
 19 17  1  0  0  0  0
M  END
>  <minimizedAffinity>
-4.41230822

$$$$

 OpenBabel03272504133D

 20 21  0  0  0  0  0  0  0  0999 V2000
   40.0040   22.9820   37.0690 C   0  0  0  0  0  0  0  0  0  0  0  0
   39.5600   23.7030   35.9650 C   0  0  0  0  0  0  0  0  0  0  0  0
   38.3940   24.4710   36.1100 C   0  0  0  0  0  0  0  0  0  0  0  0
   37.7690   24.4630   37.3180 N   0  0  0  0  0  0  0  0  0  0  0  0
   38.2390   23.7450   38.3640 C   0  0  0  0  0  0  0  0  0  0  0  0
   39.3540   23.0110   38.2260 N   0  0  0  0  0  0  0  0  0  0  0  0
   40.0440   23.7140   35.0140 H   0  0  0  0  0  0  0  0  0  0  0  0
   37.7710   23.7160   39.3310 H   0  0  0  0  0  0  0  0  0  0  0  0
   37.8850   25.2380   35.0050 C   0  0  0  0  0  0  0  0  0  0  0  0
   37.3660   26.5060   35.0940 C   0  0  0  0  0  0  0  0  0  0  0  0
   37.2400   27.1400   35.9360 H   0  0  0  0  0  0  0  0  0  0  0  0
   37.0210   26.8140   33.8100 N   0  0  0  0  0  0  0  0  0  0  0  0
   36.5850   27.7520   33.5660 H   0  0  0  0  0  0  0  0  0  0  0  0
   37.3100   25.7880   32.9590 C   0  0  0  0  0  0  0  0  0  0  0  0
   37.0890   25.8890   31.8890 H   0  0  0  0  0  0  0  0  0  0  0  0
   37.8530   24.8080   33.7310 N   0  0  0  0  0  0  0  0  0  0  0  0
   41.2480   22.1620   36.9230 C   0  0  0  0  0  0  0  0  0  0  0  0
   41.3770   21.3080   38.0160 F   0  0  0  0  0  0  0  0  0  0  0  0
   41.2210   21.5230   35.7250 F   0  0  0  0  0  0  0  0  0  0  0  0
   42.3310   23.0470   36.9850 F   0  0  0  0  0  0  0  0  0  0  0  0
  1  6  1  0  0  0  0
  2  3  1  0  0  0  0
  2  1  2  0  0  0  0
  3  4  2  0  0  0  0
  4  5  1  0  0  0  0
  5  8  1  0  0  0  0
  6  5  2  0  0  0  0
  7  2  1  0  0  0  0
  9 10  2  0  0  0  0
  9  3  1  0  0  0  0
 10 11  1  0  0  0  0
 12 10  1  0  0  0  0
 13 12  1  0  0  0  0
 14 16  2  0  0  0  0
 14 12  1  0  0  0  0
 15 14  1  0  0  0  0
 16  9  1  0  0  0  0
 17 20  1  0  0  0  0
 17  1  1  0  0  0  0
 17 18  1  0  0  0  0
 19 17  1  0  0  0  0
M  END
>  <minimizedAffinity>
-4.35236073

$$$$

 OpenBabel03272504133D

 20 21  0  0  0  0  0  0  0  0999 V2000
   37.5200   25.1720   33.5410 C   0  0  0  0  0  0  0  0  0  0  0  0
   38.1470   24.2520   34.3760 C   0  0  0  0  0  0  0  0  0  0  0  0
   38.4430   24.6540   35.6880 C   0  0  0  0  0  0  0  0  0  0  0  0
   38.1000   25.9150   36.0640 N   0  0  0  0  0  0  0  0  0  0  0  0
   37.4910   26.7750   35.2150 C   0  0  0  0  0  0  0  0  0  0  0  0
   37.2080   26.3920   33.9610 N   0  0  0  0  0  0  0  0  0  0  0  0
   38.4200   23.2610   34.0890 H   0  0  0  0  0  0  0  0  0  0  0  0
   37.2060   27.7780   35.4790 H   0  0  0  0  0  0  0  0  0  0  0  0
   39.0900   23.7480   36.5980 C   0  0  0  0  0  0  0  0  0  0  0  0
   38.6370   23.4310   37.8550 C   0  0  0  0  0  0  0  0  0  0  0  0
   37.7780   23.7640   38.3810 H   0  0  0  0  0  0  0  0  0  0  0  0
   39.5650   22.5490   38.3290 N   0  0  0  0  0  0  0  0  0  0  0  0
   39.4760   22.1230   39.2990 H   0  0  0  0  0  0  0  0  0  0  0  0
   40.5510   22.3250   37.4130 C   0  0  0  0  0  0  0  0  0  0  0  0
   41.3700   21.6360   37.6520 H   0  0  0  0  0  0  0  0  0  0  0  0
   40.2320   23.0890   36.3320 N   0  0  0  0  0  0  0  0  0  0  0  0
   37.2010   24.7510   32.1400 C   0  0  0  0  0  0  0  0  0  0  0  0
   35.8340   24.8940   31.9090 F   0  0  0  0  0  0  0  0  0  0  0  0
   37.9810   25.4490   31.2770 F   0  0  0  0  0  0  0  0  0  0  0  0
   37.4730   23.3800   32.0540 F   0  0  0  0  0  0  0  0  0  0  0  0
  1  6  2  0  0  0  0
  1  2  1  0  0  0  0
  2  3  2  0  0  0  0
  3  4  1  0  0  0  0
  3  9  1  0  0  0  0
  5  8  1  0  0  0  0
  5  4  2  0  0  0  0
  6  5  1  0  0  0  0
  7  2  1  0  0  0  0
  9 10  2  0  0  0  0
 10 12  1  0  0  0  0
 10 11  1  0  0  0  0
 12 13  1  0  0  0  0
 14 15  1  0  0  0  0
 14 12  1  0  0  0  0
 16  9  1  0  0  0  0
 16 14  2  0  0  0  0
 17  1  1  0  0  0  0
 18 17  1  0  0  0  0
 19 17  1  0  0  0  0
 20 17  1  0  0  0  0
M  END
>  <minimizedAffinity>
-4.2891264

$$$$

 OpenBabel03272504133D

 20 21  0  0  0  0  0  0  0  0999 V2000
   38.1270   25.3020   36.2770 C   0  0  0  0  0  0  0  0  0  0  0  0
   37.8720   24.8180   34.9980 C   0  0  0  0  0  0  0  0  0  0  0  0
   37.8310   25.7430   33.9440 C   0  0  0  0  0  0  0  0  0  0  0  0
   38.0420   27.0550   34.2350 N   0  0  0  0  0  0  0  0  0  0  0  0
   38.2870   27.4780   35.4970 C   0  0  0  0  0  0  0  0  0  0  0  0
   38.3270   26.5940   36.5050 N   0  0  0  0  0  0  0  0  0  0  0  0
   37.7050   23.7910   34.7610 H   0  0  0  0  0  0  0  0  0  0  0  0
   38.4590   28.5060   35.7620 H   0  0  0  0  0  0  0  0  0  0  0  0
   37.5710   25.3040   32.5990 C   0  0  0  0  0  0  0  0  0  0  0  0
   37.9300   25.9840   31.4610 C   0  0  0  0  0  0  0  0  0  0  0  0
   38.4370   26.9090   31.3440 H   0  0  0  0  0  0  0  0  0  0  0  0
   37.4800   25.1900   30.4460 N   0  0  0  0  0  0  0  0  0  0  0  0
   37.6180   25.4650   29.4280 H   0  0  0  0  0  0  0  0  0  0  0  0
   36.8690   24.0690   30.9250 C   0  0  0  0  0  0  0  0  0  0  0  0
   36.4550   23.3330   30.2250 H   0  0  0  0  0  0  0  0  0  0  0  0
   36.9380   24.1610   32.2810 N   0  0  0  0  0  0  0  0  0  0  0  0
   38.1740   24.3200   37.4070 C   0  0  0  0  0  0  0  0  0  0  0  0
   39.3430   23.5660   37.3240 F   0  0  0  0  0  0  0  0  0  0  0  0
   38.0320   24.9870   38.5810 F   0  0  0  0  0  0  0  0  0  0  0  0
   37.1140   23.4260   37.2160 F   0  0  0  0  0  0  0  0  0  0  0  0
  1  6  1  0  0  0  0
  1 17  1  0  0  0  0
  2  1  2  0  0  0  0
  3  4  2  0  0  0  0
  3  2  1  0  0  0  0
  4  5  1  0  0  0  0
  5  8  1  0  0  0  0
  5  6  2  0  0  0  0
  7  2  1  0  0  0  0
  9  3  1  0  0  0  0
 10  9  2  0  0  0  0
 11 10  1  0  0  0  0
 12 14  1  0  0  0  0
 12 10  1  0  0  0  0
 13 12  1  0  0  0  0
 14 16  2  0  0  0  0
 15 14  1  0  0  0  0
 16  9  1  0  0  0  0
 17 19  1  0  0  0  0
 18 17  1  0  0  0  0
 20 17  1  0  0  0  0
M  END
>  <minimizedAffinity>
-4.27588844

$$$$

 OpenBabel03272504133D

 20 21  0  0  0  0  0  0  0  0999 V2000
   38.3050   23.6240   36.8980 C   0  0  0  0  0  0  0  0  0  0  0  0
   38.9290   24.6490   36.1930 C   0  0  0  0  0  0  0  0  0  0  0  0
   38.9870   24.5400   34.7940 C   0  0  0  0  0  0  0  0  0  0  0  0
   38.4320   23.4420   34.2140 N   0  0  0  0  0  0  0  0  0  0  0  0
   37.8360   22.4700   34.9440 C   0  0  0  0  0  0  0  0  0  0  0  0
   37.7800   22.5740   36.2810 N   0  0  0  0  0  0  0  0  0  0  0  0
   39.3660   25.5130   36.6390 H   0  0  0  0  0  0  0  0  0  0  0  0
   37.3870   21.5900   34.5190 H   0  0  0  0  0  0  0  0  0  0  0  0
   39.6180   25.5670   34.0090 C   0  0  0  0  0  0  0  0  0  0  0  0
   39.4430   25.7510   32.6600 C   0  0  0  0  0  0  0  0  0  0  0  0
   38.8490   25.2130   31.9640 H   0  0  0  0  0  0  0  0  0  0  0  0
   40.2310   26.8270   32.3680 N   0  0  0  0  0  0  0  0  0  0  0  0
   40.2990   27.2080   31.3780 H   0  0  0  0  0  0  0  0  0  0  0  0
   40.8680   27.2920   33.4810 C   0  0  0  0  0  0  0  0  0  0  0  0
   41.5380   28.1580   33.4030 H   0  0  0  0  0  0  0  0  0  0  0  0
   40.4670   26.4860   34.5010 N   0  0  0  0  0  0  0  0  0  0  0  0
   38.2380   23.7350   38.3900 C   0  0  0  0  0  0  0  0  0  0  0  0
   39.4590   23.3500   38.9430 F   0  0  0  0  0  0  0  0  0  0  0  0
   37.8540   24.9920   38.7260 F   0  0  0  0  0  0  0  0  0  0  0  0
   37.2960   22.7960   38.8280 F   0  0  0  0  0  0  0  0  0  0  0  0
  1 17  1  0  0  0  0
  2  7  1  0  0  0  0
  2  1  2  0  0  0  0
  3  2  1  0  0  0  0
  4  3  2  0  0  0  0
  4  5  1  0  0  0  0
  5  6  2  0  0  0  0
  6  1  1  0  0  0  0
  8  5  1  0  0  0  0
  9 16  1  0  0  0  0
  9  3  1  0  0  0  0
 10  9  2  0  0  0  0
 11 10  1  0  0  0  0
 12 10  1  0  0  0  0
 12 14  1  0  0  0  0
 13 12  1  0  0  0  0
 14 16  2  0  0  0  0
 15 14  1  0  0  0  0
 17 19  1  0  0  0  0
 17 20  1  0  0  0  0
 17 18  1  0  0  0  0
M  END
>  <minimizedAffinity>
-4.21148682

$$$$

 OpenBabel03272504133D

 20 21  0  0  0  0  0  0  0  0999 V2000
   34.7670   30.6970   34.8460 C   0  0  0  0  0  0  0  0  0  0  0  0
   35.5260   30.2250   33.7790 C   0  0  0  0  0  0  0  0  0  0  0  0
   34.8800   29.4320   32.8180 C   0  0  0  0  0  0  0  0  0  0  0  0
   33.5560   29.1720   32.9850 N   0  0  0  0  0  0  0  0  0  0  0  0
   32.8600   29.6550   34.0410 C   0  0  0  0  0  0  0  0  0  0  0  0
   33.4760   30.4130   34.9610 N   0  0  0  0  0  0  0  0  0  0  0  0
   36.5640   30.4240   33.6400 H   0  0  0  0  0  0  0  0  0  0  0  0
   31.8130   29.4700   34.2050 H   0  0  0  0  0  0  0  0  0  0  0  0
   35.6110   28.9140   31.6920 C   0  0  0  0  0  0  0  0  0  0  0  0
   35.7280   27.5850   31.3680 C   0  0  0  0  0  0  0  0  0  0  0  0
   35.3320   26.7240   31.8450 H   0  0  0  0  0  0  0  0  0  0  0  0
   36.4990   27.5860   30.2420 N   0  0  0  0  0  0  0  0  0  0  0  0
   36.7620   26.6790   29.7530 H   0  0  0  0  0  0  0  0  0  0  0  0
   36.8480   28.8530   29.8790 C   0  0  0  0  0  0  0  0  0  0  0  0
   37.4700   29.0140   28.9900 H   0  0  0  0  0  0  0  0  0  0  0  0
   36.2790   29.6730   30.8050 N   0  0  0  0  0  0  0  0  0  0  0  0
   35.4480   31.5450   35.8750 C   0  0  0  0  0  0  0  0  0  0  0  0
   34.6670   31.5990   37.0280 F   0  0  0  0  0  0  0  0  0  0  0  0
   36.7030   31.0710   36.0820 F   0  0  0  0  0  0  0  0  0  0  0  0
   35.4900   32.8500   35.3680 F   0  0  0  0  0  0  0  0  0  0  0  0
  1  6  1  0  0  0  0
  1 17  1  0  0  0  0
  2  1  2  0  0  0  0
  3  4  2  0  0  0  0
  3  2  1  0  0  0  0
  4  5  1  0  0  0  0
  5  8  1  0  0  0  0
  5  6  2  0  0  0  0
  7  2  1  0  0  0  0
  9  3  1  0  0  0  0
 10  9  2  0  0  0  0
 10 11  1  0  0  0  0
 12 10  1  0  0  0  0
 13 12  1  0  0  0  0
 14 12  1  0  0  0  0
 14 16  2  0  0  0  0
 15 14  1  0  0  0  0
 16  9  1  0  0  0  0
 17 19  1  0  0  0  0
 17 18  1  0  0  0  0
 20 17  1  0  0  0  0
M  END
>  <minimizedAffinity>
-4.13262081

$$$$
