
 OpenBabel03272506193D

 33 35  0  0  0  0  0  0  0  0999 V2000
   37.0850   21.9730   31.9780 C   0  0  0  0  0  0  0  0  0  0  0  0
   35.5980   22.0440   31.6960 C   0  0  0  0  0  0  0  0  0  0  0  0
   34.8380   20.9020   32.2990 C   0  0  0  0  0  0  0  0  0  0  0  0
   35.3750   19.5550   31.8960 C   0  0  0  0  0  0  0  0  0  0  0  0
   36.8700   19.4800   31.9320 C   0  0  0  0  0  0  0  0  0  0  0  0
   37.5050   20.6840   32.5990 C   0  0  0  0  0  0  0  0  0  0  0  0
   37.6740   22.1760   31.0560 H   0  0  0  0  0  0  0  0  0  0  0  0
   35.1200   22.9770   31.9900 H   0  0  0  0  0  0  0  0  0  0  0  0
   35.4820   21.9530   30.5760 H   0  0  0  0  0  0  0  0  0  0  0  0
   34.9260   20.9490   33.4040 H   0  0  0  0  0  0  0  0  0  0  0  0
   33.7910   20.9790   32.0120 H   0  0  0  0  0  0  0  0  0  0  0  0
   34.9320   18.8080   32.6100 H   0  0  0  0  0  0  0  0  0  0  0  0
   34.9790   19.2400   30.9000 H   0  0  0  0  0  0  0  0  0  0  0  0
   37.1790   18.5740   32.4820 H   0  0  0  0  0  0  0  0  0  0  0  0
   37.2470   19.3970   30.8750 H   0  0  0  0  0  0  0  0  0  0  0  0
   37.1680   20.6580   33.6680 H   0  0  0  0  0  0  0  0  0  0  0  0
   38.5960   20.5630   32.5170 H   0  0  0  0  0  0  0  0  0  0  0  0
   37.4710   23.0740   32.9150 C   0  0  0  0  0  0  0  0  0  0  0  0
   37.8700   22.6730   34.2030 C   0  0  0  0  0  0  0  0  0  0  0  0
   38.2240   23.7100   35.0870 C   0  0  0  0  0  0  0  0  0  0  0  0
   38.1680   25.0130   34.6760 N   0  0  0  0  0  0  0  0  0  0  0  0
   37.7720   25.3420   33.4070 C   0  0  0  0  0  0  0  0  0  0  0  0
   37.4320   24.3780   32.5510 N   0  0  0  0  0  0  0  0  0  0  0  0
   37.9290   21.6810   34.5710 H   0  0  0  0  0  0  0  0  0  0  0  0
   37.7150   26.3450   33.0470 H   0  0  0  0  0  0  0  0  0  0  0  0
   38.6480   23.3830   36.4410 C   0  0  0  0  0  0  0  0  0  0  0  0
   39.7210   22.5830   36.7610 C   0  0  0  0  0  0  0  0  0  0  0  0
   40.4250   22.0640   36.1380 H   0  0  0  0  0  0  0  0  0  0  0  0
   39.7090   22.5800   38.1140 N   0  0  0  0  0  0  0  0  0  0  0  0
   40.3860   22.0730   38.7540 H   0  0  0  0  0  0  0  0  0  0  0  0
   38.6930   23.3340   38.6210 C   0  0  0  0  0  0  0  0  0  0  0  0
   38.4850   23.4810   39.6650 H   0  0  0  0  0  0  0  0  0  0  0  0
   38.0430   23.8250   37.5530 N   0  0  0  0  0  0  0  0  0  0  0  0
  1  6  1  0  0  0  0
  1 18  1  0  0  0  0
  2  1  1  0  0  0  0
  2  8  1  0  0  0  0
  2  3  1  0  0  0  0
  3 10  1  0  0  0  0
  4  5  1  0  0  0  0
  4  3  1  0  0  0  0
  4 12  1  0  0  0  0
  5 14  1  0  0  0  0
  5  6  1  0  0  0  0
  6 16  1  0  0  0  0
  7  1  1  0  0  0  0
  9  2  1  0  0  0  0
 11  3  1  0  0  0  0
 13  4  1  0  0  0  0
 15  5  1  0  0  0  0
 17  6  1  0  0  0  0
 18 19  1  0  0  0  0
 19 24  1  0  0  0  0
 19 20  2  0  0  0  0
 20 26  1  0  0  0  0
 21 20  1  0  0  0  0
 22 21  2  0  0  0  0
 23 18  2  0  0  0  0
 23 22  1  0  0  0  0
 25 22  1  0  0  0  0
 26 27  2  0  0  0  0
 26 33  1  0  0  0  0
 27 29  1  0  0  0  0
 28 27  1  0  0  0  0
 29 31  1  0  0  0  0
 29 30  1  0  0  0  0
 31 32  1  0  0  0  0
 33 31  2  0  0  0  0
M  END
>  <minimizedAffinity>
-5.14127207

$$$$

 OpenBabel03272506193D

 33 35  0  0  0  0  0  0  0  0999 V2000
   37.1580   27.1550   33.6880 C   0  0  0  0  0  0  0  0  0  0  0  0
   37.4200   26.9470   35.1650 C   0  0  0  0  0  0  0  0  0  0  0  0
   38.8280   27.2800   35.5570 C   0  0  0  0  0  0  0  0  0  0  0  0
   39.8590   26.5470   34.7420 C   0  0  0  0  0  0  0  0  0  0  0  0
   39.5420   26.5160   33.2780 C   0  0  0  0  0  0  0  0  0  0  0  0
   38.3950   27.4330   32.9040 C   0  0  0  0  0  0  0  0  0  0  0  0
   36.6040   26.2910   33.2570 H   0  0  0  0  0  0  0  0  0  0  0  0
   36.7370   27.4720   35.8310 H   0  0  0  0  0  0  0  0  0  0  0  0
   37.2850   25.8420   35.3590 H   0  0  0  0  0  0  0  0  0  0  0  0
   39.0080   28.3610   35.3810 H   0  0  0  0  0  0  0  0  0  0  0  0
   38.9680   27.0540   36.6120 H   0  0  0  0  0  0  0  0  0  0  0  0
   40.8370   27.0740   34.9160 H   0  0  0  0  0  0  0  0  0  0  0  0
   40.0350   25.5180   35.1390 H   0  0  0  0  0  0  0  0  0  0  0  0
   40.4340   26.8210   32.7030 H   0  0  0  0  0  0  0  0  0  0  0  0
   39.2830   25.4580   32.9940 H   0  0  0  0  0  0  0  0  0  0  0  0
   38.7480   28.4750   33.1220 H   0  0  0  0  0  0  0  0  0  0  0  0
   38.2020   27.2890   31.8290 H   0  0  0  0  0  0  0  0  0  0  0  0
   36.2330   28.3170   33.5020 C   0  0  0  0  0  0  0  0  0  0  0  0
   35.9440   29.0640   34.6590 C   0  0  0  0  0  0  0  0  0  0  0  0
   35.0670   30.1510   34.4860 C   0  0  0  0  0  0  0  0  0  0  0  0
   34.5500   30.4270   33.2500 N   0  0  0  0  0  0  0  0  0  0  0  0
   34.8690   29.6630   32.1590 C   0  0  0  0  0  0  0  0  0  0  0  0
   35.6980   28.6280   32.2980 N   0  0  0  0  0  0  0  0  0  0  0  0
   36.3160   28.8920   35.6370 H   0  0  0  0  0  0  0  0  0  0  0  0
   34.4880   29.8440   31.1790 H   0  0  0  0  0  0  0  0  0  0  0  0
   34.7150   30.9770   35.6320 C   0  0  0  0  0  0  0  0  0  0  0  0
   35.5950   31.7600   36.3420 C   0  0  0  0  0  0  0  0  0  0  0  0
   36.6500   31.9220   36.2220 H   0  0  0  0  0  0  0  0  0  0  0  0
   34.8110   32.3220   37.2910 N   0  0  0  0  0  0  0  0  0  0  0  0
   35.1160   33.0000   38.0460 H   0  0  0  0  0  0  0  0  0  0  0  0
   33.5120   31.9220   37.1870 C   0  0  0  0  0  0  0  0  0  0  0  0
   32.7090   32.2360   37.8280 H   0  0  0  0  0  0  0  0  0  0  0  0
   33.4780   31.0800   36.1410 N   0  0  0  0  0  0  0  0  0  0  0  0
  1  2  1  0  0  0  0
  2  9  1  0  0  0  0
  2  3  1  0  0  0  0
  2  8  1  0  0  0  0
  3 11  1  0  0  0  0
  4 12  1  0  0  0  0
  4 13  1  0  0  0  0
  4  3  1  0  0  0  0
  5  4  1  0  0  0  0
  6 16  1  0  0  0  0
  6  5  1  0  0  0  0
  6  1  1  0  0  0  0
  7  1  1  0  0  0  0
 10  3  1  0  0  0  0
 14  5  1  0  0  0  0
 15  5  1  0  0  0  0
 17  6  1  0  0  0  0
 18  1  1  0  0  0  0
 18 19  1  0  0  0  0
 19 24  1  0  0  0  0
 20 19  2  0  0  0  0
 20 26  1  0  0  0  0
 21 20  1  0  0  0  0
 22 23  1  0  0  0  0
 22 21  2  0  0  0  0
 23 18  2  0  0  0  0
 25 22  1  0  0  0  0
 26 33  1  0  0  0  0
 26 27  2  0  0  0  0
 27 29  1  0  0  0  0
 28 27  1  0  0  0  0
 29 30  1  0  0  0  0
 31 29  1  0  0  0  0
 31 32  1  0  0  0  0
 33 31  2  0  0  0  0
M  END
>  <minimizedAffinity>
-5.12561846

$$$$

 OpenBabel03272506193D

 33 35  0  0  0  0  0  0  0  0999 V2000
   37.7750   27.2960   33.3890 C   0  0  0  0  0  0  0  0  0  0  0  0
   37.1460   28.0110   34.5660 C   0  0  0  0  0  0  0  0  0  0  0  0
   35.7920   28.5700   34.2490 C   0  0  0  0  0  0  0  0  0  0  0  0
   35.7900   29.4680   33.0410 C   0  0  0  0  0  0  0  0  0  0  0  0
   36.5930   28.9240   31.9000 C   0  0  0  0  0  0  0  0  0  0  0  0
   37.0240   27.4870   32.1150 C   0  0  0  0  0  0  0  0  0  0  0  0
   38.8410   27.5950   33.2660 H   0  0  0  0  0  0  0  0  0  0  0  0
   37.0760   27.4190   35.4780 H   0  0  0  0  0  0  0  0  0  0  0  0
   37.8130   28.8930   34.7970 H   0  0  0  0  0  0  0  0  0  0  0  0
   35.1000   27.7360   34.0130 H   0  0  0  0  0  0  0  0  0  0  0  0
   35.4210   29.1190   35.1130 H   0  0  0  0  0  0  0  0  0  0  0  0
   34.7150   29.5900   32.7360 H   0  0  0  0  0  0  0  0  0  0  0  0
   36.1120   30.5040   33.3040 H   0  0  0  0  0  0  0  0  0  0  0  0
   35.9950   28.9730   30.9740 H   0  0  0  0  0  0  0  0  0  0  0  0
   37.5040   29.5720   31.7670 H   0  0  0  0  0  0  0  0  0  0  0  0
   36.0810   26.8820   32.1440 H   0  0  0  0  0  0  0  0  0  0  0  0
   37.6560   27.2060   31.2580 H   0  0  0  0  0  0  0  0  0  0  0  0
   37.8320   25.8270   33.6650 C   0  0  0  0  0  0  0  0  0  0  0  0
   38.1990   25.4620   34.9740 C   0  0  0  0  0  0  0  0  0  0  0  0
   38.2620   24.0790   35.2310 C   0  0  0  0  0  0  0  0  0  0  0  0
   37.9760   23.1820   34.2390 N   0  0  0  0  0  0  0  0  0  0  0  0
   37.6230   23.5980   32.9840 C   0  0  0  0  0  0  0  0  0  0  0  0
   37.5570   24.9030   32.7150 N   0  0  0  0  0  0  0  0  0  0  0  0
   38.4320   26.1150   35.7750 H   0  0  0  0  0  0  0  0  0  0  0  0
   37.3930   22.9310   32.1830 H   0  0  0  0  0  0  0  0  0  0  0  0
   38.6350   23.6150   36.5590 C   0  0  0  0  0  0  0  0  0  0  0  0
   39.6070   22.6780   36.8250 C   0  0  0  0  0  0  0  0  0  0  0  0
   40.2530   22.1250   36.1670 H   0  0  0  0  0  0  0  0  0  0  0  0
   39.5840   22.5840   38.1740 N   0  0  0  0  0  0  0  0  0  0  0  0
   40.1930   21.9610   38.7780 H   0  0  0  0  0  0  0  0  0  0  0  0
   38.6560   23.4120   38.7310 C   0  0  0  0  0  0  0  0  0  0  0  0
   38.4570   23.5100   39.7830 H   0  0  0  0  0  0  0  0  0  0  0  0
   38.0750   24.0460   37.6990 N   0  0  0  0  0  0  0  0  0  0  0  0
  1 18  1  0  0  0  0
  1  2  1  0  0  0  0
  2  9  1  0  0  0  0
  2  8  1  0  0  0  0
  3  2  1  0  0  0  0
  3 11  1  0  0  0  0
  4 13  1  0  0  0  0
  4  3  1  0  0  0  0
  5  6  1  0  0  0  0
  5  4  1  0  0  0  0
  6 16  1  0  0  0  0
  6  1  1  0  0  0  0
  7  1  1  0  0  0  0
 10  3  1  0  0  0  0
 12  4  1  0  0  0  0
 14  5  1  0  0  0  0
 15  5  1  0  0  0  0
 17  6  1  0  0  0  0
 18 19  1  0  0  0  0
 19 20  2  0  0  0  0
 19 24  1  0  0  0  0
 20 26  1  0  0  0  0
 21 20  1  0  0  0  0
 22 21  2  0  0  0  0
 23 22  1  0  0  0  0
 23 18  2  0  0  0  0
 25 22  1  0  0  0  0
 26 27  2  0  0  0  0
 26 33  1  0  0  0  0
 27 29  1  0  0  0  0
 28 27  1  0  0  0  0
 29 31  1  0  0  0  0
 29 30  1  0  0  0  0
 31 32  1  0  0  0  0
 33 31  2  0  0  0  0
M  END
>  <minimizedAffinity>
-5.11977148

$$$$

 OpenBabel03272506193D

 33 35  0  0  0  0  0  0  0  0999 V2000
   39.0370   23.6810   35.4620 C   0  0  0  0  0  0  0  0  0  0  0  0
   38.3830   23.1460   36.7200 C   0  0  0  0  0  0  0  0  0  0  0  0
   39.3380   23.0370   37.8690 C   0  0  0  0  0  0  0  0  0  0  0  0
   40.5660   22.2290   37.5440 C   0  0  0  0  0  0  0  0  0  0  0  0
   41.1430   22.5470   36.1990 C   0  0  0  0  0  0  0  0  0  0  0  0
   40.5210   23.7760   35.5670 C   0  0  0  0  0  0  0  0  0  0  0  0
   38.7420   23.0770   34.5740 H   0  0  0  0  0  0  0  0  0  0  0  0
   37.5010   23.6960   37.0470 H   0  0  0  0  0  0  0  0  0  0  0  0
   38.0450   22.0960   36.4800 H   0  0  0  0  0  0  0  0  0  0  0  0
   39.6990   24.0510   38.1390 H   0  0  0  0  0  0  0  0  0  0  0  0
   38.8230   22.5940   38.7190 H   0  0  0  0  0  0  0  0  0  0  0  0
   41.3170   22.4520   38.3510 H   0  0  0  0  0  0  0  0  0  0  0  0
   40.3730   21.1350   37.6530 H   0  0  0  0  0  0  0  0  0  0  0  0
   42.2290   22.7180   36.2970 H   0  0  0  0  0  0  0  0  0  0  0  0
   40.9830   21.6590   35.5260 H   0  0  0  0  0  0  0  0  0  0  0  0
   40.7940   24.6370   36.2310 H   0  0  0  0  0  0  0  0  0  0  0  0
   40.9640   23.8850   34.5640 H   0  0  0  0  0  0  0  0  0  0  0  0
   38.5140   25.0520   35.1680 C   0  0  0  0  0  0  0  0  0  0  0  0
   38.0180   25.2550   33.8670 C   0  0  0  0  0  0  0  0  0  0  0  0
   37.5360   26.5470   33.5880 C   0  0  0  0  0  0  0  0  0  0  0  0
   37.5670   27.5150   34.5540 N   0  0  0  0  0  0  0  0  0  0  0  0
   38.0610   27.2570   35.8040 C   0  0  0  0  0  0  0  0  0  0  0  0
   38.5240   26.0410   36.0930 N   0  0  0  0  0  0  0  0  0  0  0  0
   37.9740   24.5410   33.0850 H   0  0  0  0  0  0  0  0  0  0  0  0
   38.1020   27.9840   36.5840 H   0  0  0  0  0  0  0  0  0  0  0  0
   37.0060   26.8430   32.2650 C   0  0  0  0  0  0  0  0  0  0  0  0
   36.1230   26.0480   31.5720 C   0  0  0  0  0  0  0  0  0  0  0  0
   35.6660   25.1100   31.8280 H   0  0  0  0  0  0  0  0  0  0  0  0
   35.9320   26.7320   30.4200 N   0  0  0  0  0  0  0  0  0  0  0  0
   35.3100   26.4490   29.6090 H   0  0  0  0  0  0  0  0  0  0  0  0
   36.6490   27.8910   30.3860 C   0  0  0  0  0  0  0  0  0  0  0  0
   36.6560   28.5970   29.5750 H   0  0  0  0  0  0  0  0  0  0  0  0
   37.3130   27.9380   31.5530 N   0  0  0  0  0  0  0  0  0  0  0  0
  1  6  1  0  0  0  0
  1  2  1  0  0  0  0
  2  8  1  0  0  0  0
  2  3  1  0  0  0  0
  3 10  1  0  0  0  0
  3 11  1  0  0  0  0
  4 13  1  0  0  0  0
  4  3  1  0  0  0  0
  4 12  1  0  0  0  0
  5 14  1  0  0  0  0
  5  4  1  0  0  0  0
  6  5  1  0  0  0  0
  6 16  1  0  0  0  0
  7  1  1  0  0  0  0
  9  2  1  0  0  0  0
 15  5  1  0  0  0  0
 17  6  1  0  0  0  0
 18  1  1  0  0  0  0
 18 23  1  0  0  0  0
 19 18  2  0  0  0  0
 20 19  1  0  0  0  0
 20 21  2  0  0  0  0
 21 22  1  0  0  0  0
 22 23  2  0  0  0  0
 22 25  1  0  0  0  0
 24 19  1  0  0  0  0
 26 20  1  0  0  0  0
 27 28  1  0  0  0  0
 27 26  2  0  0  0  0
 29 27  1  0  0  0  0
 30 29  1  0  0  0  0
 31 29  1  0  0  0  0
 31 33  2  0  0  0  0
 32 31  1  0  0  0  0
 33 26  1  0  0  0  0
M  END
>  <minimizedAffinity>
-4.93828249

$$$$

 OpenBabel03272506193D

 33 35  0  0  0  0  0  0  0  0999 V2000
   38.6930   24.5690   35.8820 C   0  0  0  0  0  0  0  0  0  0  0  0
   39.9300   23.7350   36.1420 C   0  0  0  0  0  0  0  0  0  0  0  0
   39.7090   22.6760   37.1780 C   0  0  0  0  0  0  0  0  0  0  0  0
   39.1720   23.2190   38.4760 C   0  0  0  0  0  0  0  0  0  0  0  0
   38.0870   24.2330   38.2870 C   0  0  0  0  0  0  0  0  0  0  0  0
   37.5940   24.3100   36.8560 C   0  0  0  0  0  0  0  0  0  0  0  0
   38.9450   25.6540   35.8520 H   0  0  0  0  0  0  0  0  0  0  0  0
   40.3670   23.2740   35.2570 H   0  0  0  0  0  0  0  0  0  0  0  0
   40.7070   24.4400   36.5620 H   0  0  0  0  0  0  0  0  0  0  0  0
   38.9480   21.9580   36.8080 H   0  0  0  0  0  0  0  0  0  0  0  0
   40.6460   22.1530   37.3610 H   0  0  0  0  0  0  0  0  0  0  0  0
   38.7830   22.3370   39.0540 H   0  0  0  0  0  0  0  0  0  0  0  0
   39.9920   23.6200   39.1190 H   0  0  0  0  0  0  0  0  0  0  0  0
   37.2310   23.9800   38.9370 H   0  0  0  0  0  0  0  0  0  0  0  0
   38.4830   25.2390   38.6010 H   0  0  0  0  0  0  0  0  0  0  0  0
   37.1280   23.3150   36.6360 H   0  0  0  0  0  0  0  0  0  0  0  0
   36.8510   25.1220   36.8120 H   0  0  0  0  0  0  0  0  0  0  0  0
   38.1660   24.2720   34.5140 C   0  0  0  0  0  0  0  0  0  0  0  0
   37.9720   25.3850   33.6750 C   0  0  0  0  0  0  0  0  0  0  0  0
   37.4670   25.1070   32.3910 C   0  0  0  0  0  0  0  0  0  0  0  0
   37.1950   23.8170   32.0250 N   0  0  0  0  0  0  0  0  0  0  0  0
   37.4050   22.7740   32.8860 C   0  0  0  0  0  0  0  0  0  0  0  0
   37.8830   23.0120   34.1070 N   0  0  0  0  0  0  0  0  0  0  0  0
   38.1650   26.4010   33.9110 H   0  0  0  0  0  0  0  0  0  0  0  0
   37.2060   21.7550   32.6390 H   0  0  0  0  0  0  0  0  0  0  0  0
   37.2370   26.2010   31.4600 C   0  0  0  0  0  0  0  0  0  0  0  0
   36.0120   26.5510   30.9390 C   0  0  0  0  0  0  0  0  0  0  0  0
   35.0350   26.1300   31.0900 H   0  0  0  0  0  0  0  0  0  0  0  0
   36.3050   27.6040   30.1430 N   0  0  0  0  0  0  0  0  0  0  0  0
   35.6240   28.1660   29.5570 H   0  0  0  0  0  0  0  0  0  0  0  0
   37.6340   27.9050   30.1580 C   0  0  0  0  0  0  0  0  0  0  0  0
   38.1010   28.7010   29.6050 H   0  0  0  0  0  0  0  0  0  0  0  0
   38.1960   27.0130   30.9900 N   0  0  0  0  0  0  0  0  0  0  0  0
  1  2  1  0  0  0  0
  1  6  1  0  0  0  0
  2  9  1  0  0  0  0
  2  3  1  0  0  0  0
  3 11  1  0  0  0  0
  3  4  1  0  0  0  0
  4 12  1  0  0  0  0
  4 13  1  0  0  0  0
  5  4  1  0  0  0  0
  5 15  1  0  0  0  0
  5 14  1  0  0  0  0
  6  5  1  0  0  0  0
  7  1  1  0  0  0  0
  8  2  1  0  0  0  0
 10  3  1  0  0  0  0
 16  6  1  0  0  0  0
 17  6  1  0  0  0  0
 18  1  1  0  0  0  0
 19 24  1  0  0  0  0
 19 18  2  0  0  0  0
 20 19  1  0  0  0  0
 21 20  2  0  0  0  0
 21 22  1  0  0  0  0
 22 23  2  0  0  0  0
 23 18  1  0  0  0  0
 25 22  1  0  0  0  0
 26 20  1  0  0  0  0
 27 28  1  0  0  0  0
 27 26  2  0  0  0  0
 29 31  1  0  0  0  0
 29 27  1  0  0  0  0
 30 29  1  0  0  0  0
 31 33  2  0  0  0  0
 32 31  1  0  0  0  0
 33 26  1  0  0  0  0
M  END
>  <minimizedAffinity>
-4.90089321

$$$$

 OpenBabel03272506193D

 33 35  0  0  0  0  0  0  0  0999 V2000
   38.5080   24.9640   33.5790 C   0  0  0  0  0  0  0  0  0  0  0  0
   38.0790   24.8780   35.0290 C   0  0  0  0  0  0  0  0  0  0  0  0
   37.9310   26.2240   35.6710 C   0  0  0  0  0  0  0  0  0  0  0  0
   39.1650   27.0770   35.5490 C   0  0  0  0  0  0  0  0  0  0  0  0
   39.7830   27.0300   34.1850 C   0  0  0  0  0  0  0  0  0  0  0  0
   38.9030   26.3400   33.1630 C   0  0  0  0  0  0  0  0  0  0  0  0
   39.3250   24.2380   33.3630 H   0  0  0  0  0  0  0  0  0  0  0  0
   37.1700   24.3040   35.2050 H   0  0  0  0  0  0  0  0  0  0  0  0
   38.9130   24.3490   35.5770 H   0  0  0  0  0  0  0  0  0  0  0  0
   37.1190   26.7830   35.1610 H   0  0  0  0  0  0  0  0  0  0  0  0
   37.6800   26.0930   36.7210 H   0  0  0  0  0  0  0  0  0  0  0  0
   38.8520   28.1280   35.7970 H   0  0  0  0  0  0  0  0  0  0  0  0
   39.9130   26.8270   36.3390 H   0  0  0  0  0  0  0  0  0  0  0  0
   39.9800   28.0590   33.8360 H   0  0  0  0  0  0  0  0  0  0  0  0
   40.7660   26.4870   34.2600 H   0  0  0  0  0  0  0  0  0  0  0  0
   37.9850   26.9770   33.0640 H   0  0  0  0  0  0  0  0  0  0  0  0
   39.4690   26.3020   32.2190 H   0  0  0  0  0  0  0  0  0  0  0  0
   37.3810   24.5280   32.6950 C   0  0  0  0  0  0  0  0  0  0  0  0
   37.2180   23.1390   32.5470 C   0  0  0  0  0  0  0  0  0  0  0  0
   36.1650   22.7290   31.7090 C   0  0  0  0  0  0  0  0  0  0  0  0
   35.3730   23.6610   31.0950 N   0  0  0  0  0  0  0  0  0  0  0  0
   35.5810   25.0020   31.2790 C   0  0  0  0  0  0  0  0  0  0  0  0
   36.5720   25.4150   32.0690 N   0  0  0  0  0  0  0  0  0  0  0  0
   37.8040   22.3780   32.9970 H   0  0  0  0  0  0  0  0  0  0  0  0
   34.9860   25.7600   30.8190 H   0  0  0  0  0  0  0  0  0  0  0  0
   35.9270   21.3090   31.5000 C   0  0  0  0  0  0  0  0  0  0  0  0
   34.8900   20.5920   32.0510 C   0  0  0  0  0  0  0  0  0  0  0  0
   34.0930   20.8930   32.7050 H   0  0  0  0  0  0  0  0  0  0  0  0
   35.0910   19.3430   31.5720 N   0  0  0  0  0  0  0  0  0  0  0  0
   34.4980   18.4850   31.7670 H   0  0  0  0  0  0  0  0  0  0  0  0
   36.1860   19.2720   30.7650 C   0  0  0  0  0  0  0  0  0  0  0  0
   36.5420   18.3850   30.2710 H   0  0  0  0  0  0  0  0  0  0  0  0
   36.6930   20.5150   30.7350 N   0  0  0  0  0  0  0  0  0  0  0  0
  1  2  1  0  0  0  0
  2  8  1  0  0  0  0
  2  9  1  0  0  0  0
  2  3  1  0  0  0  0
  3 11  1  0  0  0  0
  4  3  1  0  0  0  0
  4 12  1  0  0  0  0
  4 13  1  0  0  0  0
  5 15  1  0  0  0  0
  5  4  1  0  0  0  0
  6  1  1  0  0  0  0
  6  5  1  0  0  0  0
  7  1  1  0  0  0  0
 10  3  1  0  0  0  0
 14  5  1  0  0  0  0
 16  6  1  0  0  0  0
 17  6  1  0  0  0  0
 18  1  1  0  0  0  0
 19 18  1  0  0  0  0
 19 24  1  0  0  0  0
 20 19  2  0  0  0  0
 21 22  2  0  0  0  0
 21 20  1  0  0  0  0
 22 23  1  0  0  0  0
 23 18  2  0  0  0  0
 25 22  1  0  0  0  0
 26 20  1  0  0  0  0
 26 27  2  0  0  0  0
 27 28  1  0  0  0  0
 29 30  1  0  0  0  0
 29 27  1  0  0  0  0
 31 29  1  0  0  0  0
 32 31  1  0  0  0  0
 33 31  2  0  0  0  0
 33 26  1  0  0  0  0
M  END
>  <minimizedAffinity>
-4.82046223

$$$$

 OpenBabel03272506193D

 33 35  0  0  0  0  0  0  0  0999 V2000
   37.4930   27.0400   33.2220 C   0  0  0  0  0  0  0  0  0  0  0  0
   38.9520   26.9520   32.8270 C   0  0  0  0  0  0  0  0  0  0  0  0
   39.8070   26.3450   33.8970 C   0  0  0  0  0  0  0  0  0  0  0  0
   39.6750   27.0400   35.2260 C   0  0  0  0  0  0  0  0  0  0  0  0
   38.2580   27.3670   35.5820 C   0  0  0  0  0  0  0  0  0  0  0  0
   37.2510   26.7150   34.6570 C   0  0  0  0  0  0  0  0  0  0  0  0
   37.0730   28.0400   32.9700 H   0  0  0  0  0  0  0  0  0  0  0  0
   39.1420   26.4320   31.8890 H   0  0  0  0  0  0  0  0  0  0  0  0
   39.3100   28.0140   32.6920 H   0  0  0  0  0  0  0  0  0  0  0  0
   39.4890   25.2960   34.0660 H   0  0  0  0  0  0  0  0  0  0  0  0
   40.8470   26.3640   33.5770 H   0  0  0  0  0  0  0  0  0  0  0  0
   40.1180   26.3480   35.9930 H   0  0  0  0  0  0  0  0  0  0  0  0
   40.3250   27.9470   35.2770 H   0  0  0  0  0  0  0  0  0  0  0  0
   38.0520   27.0320   36.6140 H   0  0  0  0  0  0  0  0  0  0  0  0
   38.1320   28.4850   35.5430 H   0  0  0  0  0  0  0  0  0  0  0  0
   37.3610   25.6090   34.8120 H   0  0  0  0  0  0  0  0  0  0  0  0
   36.2530   27.0670   34.9620 H   0  0  0  0  0  0  0  0  0  0  0  0
   36.6900   26.0830   32.3990 C   0  0  0  0  0  0  0  0  0  0  0  0
   37.0520   24.7270   32.5060 C   0  0  0  0  0  0  0  0  0  0  0  0
   36.3030   23.8280   31.7240 C   0  0  0  0  0  0  0  0  0  0  0  0
   35.2950   24.2880   30.9230 N   0  0  0  0  0  0  0  0  0  0  0  0
   34.9890   25.6210   30.8600 C   0  0  0  0  0  0  0  0  0  0  0  0
   35.6830   26.4930   31.5920 N   0  0  0  0  0  0  0  0  0  0  0  0
   37.8230   24.3200   33.1090 H   0  0  0  0  0  0  0  0  0  0  0  0
   34.2110   26.0200   30.2490 H   0  0  0  0  0  0  0  0  0  0  0  0
   36.6120   22.4060   31.7750 C   0  0  0  0  0  0  0  0  0  0  0  0
   35.8760   21.4150   31.1680 C   0  0  0  0  0  0  0  0  0  0  0  0
   34.9840   21.4640   30.5710 H   0  0  0  0  0  0  0  0  0  0  0  0
   36.5480   20.2880   31.4960 N   0  0  0  0  0  0  0  0  0  0  0  0
   36.2980   19.2960   31.2160 H   0  0  0  0  0  0  0  0  0  0  0  0
   37.6430   20.5470   32.2630 C   0  0  0  0  0  0  0  0  0  0  0  0
   38.3290   19.8110   32.6440 H   0  0  0  0  0  0  0  0  0  0  0  0
   37.6620   21.8810   32.4240 N   0  0  0  0  0  0  0  0  0  0  0  0
  1  6  1  0  0  0  0
  2  1  1  0  0  0  0
  2  3  1  0  0  0  0
  3 10  1  0  0  0  0
  3  4  1  0  0  0  0
  4 13  1  0  0  0  0
  4  5  1  0  0  0  0
  4 12  1  0  0  0  0
  5 14  1  0  0  0  0
  6 16  1  0  0  0  0
  6 17  1  0  0  0  0
  6  5  1  0  0  0  0
  7  1  1  0  0  0  0
  8  2  1  0  0  0  0
  9  2  1  0  0  0  0
 11  3  1  0  0  0  0
 15  5  1  0  0  0  0
 18 19  1  0  0  0  0
 18  1  1  0  0  0  0
 19 24  1  0  0  0  0
 20 26  1  0  0  0  0
 20 19  2  0  0  0  0
 21 20  1  0  0  0  0
 22 21  2  0  0  0  0
 22 23  1  0  0  0  0
 23 18  2  0  0  0  0
 25 22  1  0  0  0  0
 26 33  1  0  0  0  0
 27 29  1  0  0  0  0
 27 26  2  0  0  0  0
 28 27  1  0  0  0  0
 29 31  1  0  0  0  0
 30 29  1  0  0  0  0
 31 33  2  0  0  0  0
 31 32  1  0  0  0  0
M  END
>  <minimizedAffinity>
-4.76872301

$$$$

 OpenBabel03272506193D

 33 35  0  0  0  0  0  0  0  0999 V2000
   38.9750   22.9300   35.5890 C   0  0  0  0  0  0  0  0  0  0  0  0
   37.7070   23.3810   36.2840 C   0  0  0  0  0  0  0  0  0  0  0  0
   37.9770   24.1370   37.5490 C   0  0  0  0  0  0  0  0  0  0  0  0
   38.8530   23.3840   38.5140 C   0  0  0  0  0  0  0  0  0  0  0  0
   40.0180   22.7130   37.8540 C   0  0  0  0  0  0  0  0  0  0  0  0
   40.2020   23.1370   36.4110 C   0  0  0  0  0  0  0  0  0  0  0  0
   38.8940   21.8680   35.2640 H   0  0  0  0  0  0  0  0  0  0  0  0
   37.0280   23.9640   35.6650 H   0  0  0  0  0  0  0  0  0  0  0  0
   37.1560   22.4410   36.5810 H   0  0  0  0  0  0  0  0  0  0  0  0
   38.5210   25.0720   37.3050 H   0  0  0  0  0  0  0  0  0  0  0  0
   37.0300   24.3800   38.0280 H   0  0  0  0  0  0  0  0  0  0  0  0
   39.2150   24.1350   39.2690 H   0  0  0  0  0  0  0  0  0  0  0  0
   38.2600   22.6590   39.1220 H   0  0  0  0  0  0  0  0  0  0  0  0
   40.9420   22.9530   38.4080 H   0  0  0  0  0  0  0  0  0  0  0  0
   39.8570   21.6000   37.8990 H   0  0  0  0  0  0  0  0  0  0  0  0
   40.4510   24.2300   36.4390 H   0  0  0  0  0  0  0  0  0  0  0  0
   41.0360   22.5450   36.0020 H   0  0  0  0  0  0  0  0  0  0  0  0
   39.1490   23.6950   34.3150 C   0  0  0  0  0  0  0  0  0  0  0  0
   37.9630   24.0740   33.6600 C   0  0  0  0  0  0  0  0  0  0  0  0
   38.1260   24.7860   32.4560 C   0  0  0  0  0  0  0  0  0  0  0  0
   39.3810   25.0690   31.9900 N   0  0  0  0  0  0  0  0  0  0  0  0
   40.4990   24.6740   32.6730 C   0  0  0  0  0  0  0  0  0  0  0  0
   40.3700   23.9990   33.8160 N   0  0  0  0  0  0  0  0  0  0  0  0
   36.9700   23.8790   33.9770 H   0  0  0  0  0  0  0  0  0  0  0  0
   41.4940   24.8750   32.3440 H   0  0  0  0  0  0  0  0  0  0  0  0
   36.9500   25.2160   31.7130 C   0  0  0  0  0  0  0  0  0  0  0  0
   36.8420   26.3990   31.0200 C   0  0  0  0  0  0  0  0  0  0  0  0
   37.5420   27.2040   30.8850 H   0  0  0  0  0  0  0  0  0  0  0  0
   35.5910   26.3440   30.5090 N   0  0  0  0  0  0  0  0  0  0  0  0
   35.1190   27.0760   29.9050 H   0  0  0  0  0  0  0  0  0  0  0  0
   34.9450   25.1950   30.8550 C   0  0  0  0  0  0  0  0  0  0  0  0
   33.9440   24.9300   30.5660 H   0  0  0  0  0  0  0  0  0  0  0  0
   35.8170   24.5050   31.6090 N   0  0  0  0  0  0  0  0  0  0  0  0
  1  2  1  0  0  0  0
  1  6  1  0  0  0  0
  2  9  1  0  0  0  0
  2  3  1  0  0  0  0
  3 11  1  0  0  0  0
  3  4  1  0  0  0  0
  4 13  1  0  0  0  0
  4 12  1  0  0  0  0
  5 15  1  0  0  0  0
  5 14  1  0  0  0  0
  5  4  1  0  0  0  0
  6 16  1  0  0  0  0
  6  5  1  0  0  0  0
  7  1  1  0  0  0  0
  8  2  1  0  0  0  0
 10  3  1  0  0  0  0
 17  6  1  0  0  0  0
 18  1  1  0  0  0  0
 19 24  1  0  0  0  0
 19 18  2  0  0  0  0
 20 19  1  0  0  0  0
 21 20  2  0  0  0  0
 21 22  1  0  0  0  0
 22 23  2  0  0  0  0
 23 18  1  0  0  0  0
 25 22  1  0  0  0  0
 26 20  1  0  0  0  0
 27 26  2  0  0  0  0
 28 27  1  0  0  0  0
 29 31  1  0  0  0  0
 29 27  1  0  0  0  0
 30 29  1  0  0  0  0
 31 33  2  0  0  0  0
 32 31  1  0  0  0  0
 33 26  1  0  0  0  0
M  END
>  <minimizedAffinity>
-4.76222134

$$$$

 OpenBabel03272506193D

 33 35  0  0  0  0  0  0  0  0999 V2000
   38.0540   23.4220   31.7740 C   0  0  0  0  0  0  0  0  0  0  0  0
   37.7740   24.8330   31.3020 C   0  0  0  0  0  0  0  0  0  0  0  0
   36.4020   25.3080   31.6750 C   0  0  0  0  0  0  0  0  0  0  0  0
   35.3090   24.3830   31.2110 C   0  0  0  0  0  0  0  0  0  0  0  0
   35.6210   22.9370   31.4430 C   0  0  0  0  0  0  0  0  0  0  0  0
   36.8470   22.7300   32.3090 C   0  0  0  0  0  0  0  0  0  0  0  0
   38.5270   22.8190   30.9660 H   0  0  0  0  0  0  0  0  0  0  0  0
   38.5020   25.5770   31.6220 H   0  0  0  0  0  0  0  0  0  0  0  0
   37.8090   24.8030   30.1730 H   0  0  0  0  0  0  0  0  0  0  0  0
   36.3200   25.3510   32.7800 H   0  0  0  0  0  0  0  0  0  0  0  0
   36.2420   26.3000   31.2570 H   0  0  0  0  0  0  0  0  0  0  0  0
   34.3820   24.6750   31.7780 H   0  0  0  0  0  0  0  0  0  0  0  0
   35.0400   24.5730   30.1440 H   0  0  0  0  0  0  0  0  0  0  0  0
   34.7610   22.4490   31.9330 H   0  0  0  0  0  0  0  0  0  0  0  0
   35.7840   22.4450   30.4430 H   0  0  0  0  0  0  0  0  0  0  0  0
   36.5890   23.1540   33.3150 H   0  0  0  0  0  0  0  0  0  0  0  0
   37.0260   21.6440   32.3650 H   0  0  0  0  0  0  0  0  0  0  0  0
   39.0800   23.4510   32.8630 C   0  0  0  0  0  0  0  0  0  0  0  0
   38.5860   23.3380   34.1760 C   0  0  0  0  0  0  0  0  0  0  0  0
   39.5500   23.3760   35.2000 C   0  0  0  0  0  0  0  0  0  0  0  0
   40.8760   23.5160   34.8920 N   0  0  0  0  0  0  0  0  0  0  0  0
   41.2960   23.6210   33.5930 C   0  0  0  0  0  0  0  0  0  0  0  0
   40.4020   23.5870   32.6050 N   0  0  0  0  0  0  0  0  0  0  0  0
   37.5730   23.2300   34.4670 H   0  0  0  0  0  0  0  0  0  0  0  0
   42.3200   23.7310   33.3110 H   0  0  0  0  0  0  0  0  0  0  0  0
   39.1250   23.2660   36.5880 C   0  0  0  0  0  0  0  0  0  0  0  0
   39.8970   22.7710   37.6140 C   0  0  0  0  0  0  0  0  0  0  0  0
   40.9000   22.3850   37.6200 H   0  0  0  0  0  0  0  0  0  0  0  0
   39.0810   22.8710   38.6890 N   0  0  0  0  0  0  0  0  0  0  0  0
   39.3070   22.5910   39.6860 H   0  0  0  0  0  0  0  0  0  0  0  0
   37.8670   23.4000   38.3650 C   0  0  0  0  0  0  0  0  0  0  0  0
   37.0590   23.5750   39.0510 H   0  0  0  0  0  0  0  0  0  0  0  0
   37.9200   23.6380   37.0440 N   0  0  0  0  0  0  0  0  0  0  0  0
  1  6  1  0  0  0  0
  1 18  1  0  0  0  0
  2  8  1  0  0  0  0
  2  3  1  0  0  0  0
  2  1  1  0  0  0  0
  3 10  1  0  0  0  0
  4  5  1  0  0  0  0
  4  3  1  0  0  0  0
  4 12  1  0  0  0  0
  5 14  1  0  0  0  0
  5  6  1  0  0  0  0
  6 17  1  0  0  0  0
  6 16  1  0  0  0  0
  7  1  1  0  0  0  0
  9  2  1  0  0  0  0
 11  3  1  0  0  0  0
 13  4  1  0  0  0  0
 15  5  1  0  0  0  0
 18 19  1  0  0  0  0
 19 24  1  0  0  0  0
 19 20  2  0  0  0  0
 20 26  1  0  0  0  0
 21 20  1  0  0  0  0
 22 21  2  0  0  0  0
 23 18  2  0  0  0  0
 23 22  1  0  0  0  0
 25 22  1  0  0  0  0
 26 33  1  0  0  0  0
 26 27  2  0  0  0  0
 27 28  1  0  0  0  0
 27 29  1  0  0  0  0
 29 30  1  0  0  0  0
 31 29  1  0  0  0  0
 31 32  1  0  0  0  0
 33 31  2  0  0  0  0
M  END
>  <minimizedAffinity>
-4.73515987

$$$$
