
 OpenBabel03272510193D

 35 38  0  0  0  0  0  0  0  0999 V2000
   37.3000   29.3260   51.0120 Br  0  0  0  0  0  0  0  0  0  0  0  0
   35.9550   29.3190   49.6640 C   0  0  0  0  0  0  0  0  0  0  0  0
   35.9910   30.2370   48.6290 C   0  0  0  0  0  0  0  0  0  0  0  0
   34.9910   30.1800   47.6870 C   0  0  0  0  0  0  0  0  0  0  0  0
   33.9610   29.2460   47.7380 C   0  0  0  0  0  0  0  0  0  0  0  0
   33.9530   28.3580   48.7650 C   0  0  0  0  0  0  0  0  0  0  0  0
   34.9510   28.4050   49.7180 C   0  0  0  0  0  0  0  0  0  0  0  0
   34.9640   30.8670   46.8580 H   0  0  0  0  0  0  0  0  0  0  0  0
   33.1750   27.6020   48.8640 H   0  0  0  0  0  0  0  0  0  0  0  0
   34.9300   27.6980   50.5210 H   0  0  0  0  0  0  0  0  0  0  0  0
   37.9900   33.1850   49.4430 C   0  0  0  0  0  0  0  0  0  0  0  0
   39.0200   33.1610   48.4500 C   0  0  0  0  0  0  0  0  0  0  0  0
   39.0020   32.1320   47.5250 C   0  0  0  0  0  0  0  0  0  0  0  0
   38.0080   31.1940   47.6020 N   0  0  0  0  0  0  0  0  0  0  0  0
   37.0510   31.2310   48.5380 C   0  0  0  0  0  0  0  0  0  0  0  0
   37.0440   32.2380   49.4660 N   0  0  0  0  0  0  0  0  0  0  0  0
   37.9290   33.9390   50.1900 H   0  0  0  0  0  0  0  0  0  0  0  0
   39.7590   33.9410   48.4680 H   0  0  0  0  0  0  0  0  0  0  0  0
   39.7670   32.0870   46.7620 H   0  0  0  0  0  0  0  0  0  0  0  0
   32.9010   29.1840   46.7400 C   0  0  0  0  0  0  0  0  0  0  0  0
   32.3040   28.0310   46.2920 C   0  0  0  0  0  0  0  0  0  0  0  0
   31.3010   28.0190   45.3440 C   0  0  0  0  0  0  0  0  0  0  0  0
   30.8740   29.1650   44.8260 N   0  0  0  0  0  0  0  0  0  0  0  0
   31.4420   30.3220   45.2470 C   0  0  0  0  0  0  0  0  0  0  0  0
   32.4110   30.3080   46.1630 N   0  0  0  0  0  0  0  0  0  0  0  0
   32.6490   27.0860   46.7150 H   0  0  0  0  0  0  0  0  0  0  0  0
   30.8430   27.1020   45.0050 H   0  0  0  0  0  0  0  0  0  0  0  0
   31.1050   31.6850   44.7890 C   0  0  0  0  0  0  0  0  0  0  0  0
   29.8410   32.0630   44.3270 C   0  0  0  0  0  0  0  0  0  0  0  0
   28.9620   31.4640   44.2350 H   0  0  0  0  0  0  0  0  0  0  0  0
   29.9180   33.3810   44.0010 N   0  0  0  0  0  0  0  0  0  0  0  0
   29.1370   33.9530   43.6270 H   0  0  0  0  0  0  0  0  0  0  0  0
   31.1730   33.8230   44.2430 C   0  0  0  0  0  0  0  0  0  0  0  0
   31.5960   34.8110   44.1030 H   0  0  0  0  0  0  0  0  0  0  0  0
   31.8840   32.7850   44.7220 N   0  0  0  0  0  0  0  0  0  0  0  0
  2  7  1  0  0  0  0
  2  1  1  0  0  0  0
  3  2  2  0  0  0  0
  4  5  2  0  0  0  0
  4  3  1  0  0  0  0
  5  6  1  0  0  0  0
  6  9  1  0  0  0  0
  6  7  2  0  0  0  0
  7 10  1  0  0  0  0
  8  4  1  0  0  0  0
 11 16  1  0  0  0  0
 11 17  1  0  0  0  0
 12 18  1  0  0  0  0
 12 11  2  0  0  0  0
 13 14  2  0  0  0  0
 13 12  1  0  0  0  0
 14 15  1  0  0  0  0
 15  3  1  0  0  0  0
 15 16  2  0  0  0  0
 19 13  1  0  0  0  0
 20  5  1  0  0  0  0
 21 26  1  0  0  0  0
 21 20  1  0  0  0  0
 22 21  2  0  0  0  0
 23 24  2  0  0  0  0
 23 22  1  0  0  0  0
 24 25  1  0  0  0  0
 25 20  2  0  0  0  0
 27 22  1  0  0  0  0
 28 24  1  0  0  0  0
 29 28  2  0  0  0  0
 30 29  1  0  0  0  0
 31 33  1  0  0  0  0
 31 29  1  0  0  0  0
 32 31  1  0  0  0  0
 33 35  2  0  0  0  0
 34 33  1  0  0  0  0
 35 28  1  0  0  0  0
M  END
>  <minimizedAffinity>
-6.67196846

>  <minimizedRMSD>
0.110469639

$$$$
