
 OpenBabel03272506173D

 33 35  0  0  0  0  0  0  0  0999 V2000
   35.4600   30.3640   49.9270 C   0  0  0  0  0  0  0  0  0  0  0  0
   36.4520   31.2320   49.1810 C   0  0  0  0  0  0  0  0  0  0  0  0
   37.8660   30.7590   49.3320 C   0  0  0  0  0  0  0  0  0  0  0  0
   38.2900   30.6110   50.7690 C   0  0  0  0  0  0  0  0  0  0  0  0
   37.2520   29.9570   51.6270 C   0  0  0  0  0  0  0  0  0  0  0  0
   36.1100   29.3660   50.8240 C   0  0  0  0  0  0  0  0  0  0  0  0
   34.7340   30.9890   50.4950 H   0  0  0  0  0  0  0  0  0  0  0  0
   36.2380   31.3660   48.1220 H   0  0  0  0  0  0  0  0  0  0  0  0
   36.4010   32.2550   49.6580 H   0  0  0  0  0  0  0  0  0  0  0  0
   37.9630   29.7520   48.8770 H   0  0  0  0  0  0  0  0  0  0  0  0
   38.5310   31.4550   48.8250 H   0  0  0  0  0  0  0  0  0  0  0  0
   39.2310   29.9950   50.7620 H   0  0  0  0  0  0  0  0  0  0  0  0
   38.6140   31.5880   51.2010 H   0  0  0  0  0  0  0  0  0  0  0  0
   37.7180   29.1480   52.2160 H   0  0  0  0  0  0  0  0  0  0  0  0
   36.8470   30.7260   52.3420 H   0  0  0  0  0  0  0  0  0  0  0  0
   36.5600   28.5460   50.2040 H   0  0  0  0  0  0  0  0  0  0  0  0
   35.3770   28.9700   51.5440 H   0  0  0  0  0  0  0  0  0  0  0  0
   34.6150   29.6120   48.9480 C   0  0  0  0  0  0  0  0  0  0  0  0
   34.2410   30.3180   47.7900 C   0  0  0  0  0  0  0  0  0  0  0  0
   33.4390   29.6130   46.8730 C   0  0  0  0  0  0  0  0  0  0  0  0
   33.0690   28.3220   47.1340 N   0  0  0  0  0  0  0  0  0  0  0  0
   33.4650   27.6870   48.2800 C   0  0  0  0  0  0  0  0  0  0  0  0
   34.2260   28.3330   49.1640 N   0  0  0  0  0  0  0  0  0  0  0  0
   34.4990   31.3160   47.5420 H   0  0  0  0  0  0  0  0  0  0  0  0
   33.1990   26.6820   48.5210 H   0  0  0  0  0  0  0  0  0  0  0  0
   33.0060   30.2690   45.6480 C   0  0  0  0  0  0  0  0  0  0  0  0
   33.6550   30.1920   44.4380 C   0  0  0  0  0  0  0  0  0  0  0  0
   34.5520   29.6750   44.1500 H   0  0  0  0  0  0  0  0  0  0  0  0
   32.8860   30.9520   43.6260 N   0  0  0  0  0  0  0  0  0  0  0  0
   33.0480   31.1470   42.5960 H   0  0  0  0  0  0  0  0  0  0  0  0
   31.8120   31.4780   44.2800 C   0  0  0  0  0  0  0  0  0  0  0  0
   31.0630   32.1120   43.8420 H   0  0  0  0  0  0  0  0  0  0  0  0
   31.9100   31.0360   45.5450 N   0  0  0  0  0  0  0  0  0  0  0  0
  1  7  1  0  0  0  0
  1  6  1  0  0  0  0
  2  3  1  0  0  0  0
  2  9  1  0  0  0  0
  2  1  1  0  0  0  0
  3  4  1  0  0  0  0
  4 13  1  0  0  0  0
  4  5  1  0  0  0  0
  5 14  1  0  0  0  0
  5 15  1  0  0  0  0
  6 17  1  0  0  0  0
  6  5  1  0  0  0  0
  8  2  1  0  0  0  0
 10  3  1  0  0  0  0
 11  3  1  0  0  0  0
 12  4  1  0  0  0  0
 16  6  1  0  0  0  0
 18 23  1  0  0  0  0
 18  1  1  0  0  0  0
 19 18  2  0  0  0  0
 20 21  2  0  0  0  0
 20 19  1  0  0  0  0
 21 22  1  0  0  0  0
 22 25  1  0  0  0  0
 22 23  2  0  0  0  0
 24 19  1  0  0  0  0
 26 20  1  0  0  0  0
 27 26  2  0  0  0  0
 28 27  1  0  0  0  0
 29 31  1  0  0  0  0
 29 27  1  0  0  0  0
 30 29  1  0  0  0  0
 31 33  2  0  0  0  0
 32 31  1  0  0  0  0
 33 26  1  0  0  0  0
M  END
>  <minimizedAffinity>
-5.18876266

>  <minimizedRMSD>
0.587544024

$$$$
