
 OpenBabel03272505073D

 32 34  0  0  1  0  0  0  0  0999 V2000
   35.6450   23.9280   31.5220 C   0  0  0  0  0  0  0  0  0  0  0  0
   36.7220   24.7610   31.8350 C   0  0  0  0  0  0  0  0  0  0  0  0
   37.7840   24.2300   32.5400 C   0  0  0  0  0  0  0  0  0  0  0  0
   37.7160   22.9290   32.8860 N   0  0  0  0  0  0  0  0  0  0  0  0
   36.6840   22.1360   32.5860 C   0  0  0  0  0  0  0  0  0  0  0  0
   35.6270   22.6370   31.8920 N   0  0  0  0  0  0  0  0  0  0  0  0
   38.9670   24.8990   32.9590 N   0  0  0  0  0  0  0  0  0  0  0  0
   39.7160   25.8060   32.1300 C   0  0  0  0  0  0  0  0  0  0  0  0
   40.1370   27.0810   32.7370 C   0  0  0  0  0  0  0  0  0  0  0  0
   40.4930   27.0570   34.1780 C   0  0  0  0  0  0  0  0  0  0  0  0
   39.5370   26.1810   34.9280 C   0  0  0  0  0  0  0  0  0  0  0  0
   39.6040   24.7940   34.2320 C   0  0  1  0  0  0  0  0  0  0  0  0
   34.8790   24.4620   30.9680 H   0  0  0  0  0  0  0  0  0  0  0  0
   36.8210   25.8020   31.5800 H   0  0  0  0  0  0  0  0  0  0  0  0
   36.6400   21.0850   32.8720 H   0  0  0  0  0  0  0  0  0  0  0  0
   40.6540   25.2410   31.8540 H   0  0  0  0  0  0  0  0  0  0  0  0
   39.1490   25.9830   31.2020 H   0  0  0  0  0  0  0  0  0  0  0  0
   41.0640   27.4320   32.1950 H   0  0  0  0  0  0  0  0  0  0  0  0
   39.3750   27.8570   32.4960 H   0  0  0  0  0  0  0  0  0  0  0  0
   41.5480   26.8510   34.4020 H   0  0  0  0  0  0  0  0  0  0  0  0
   40.3080   28.0970   34.5670 H   0  0  0  0  0  0  0  0  0  0  0  0
   38.5070   26.5410   34.7420 H   0  0  0  0  0  0  0  0  0  0  0  0
   39.7900   26.0590   35.9820 H   0  0  0  0  0  0  0  0  0  0  0  0
   40.6860   24.5550   34.1920 H   0  0  0  0  0  0  0  0  0  0  0  0
   38.9830   23.7840   35.1510 C   0  0  0  0  0  0  0  0  0  0  0  0
   39.2810   22.4630   35.4050 C   0  0  0  0  0  0  0  0  0  0  0  0
   40.0980   21.9380   34.9020 H   0  0  0  0  0  0  0  0  0  0  0  0
   38.4650   21.9300   36.3120 N   0  0  0  0  0  0  0  0  0  0  0  0
   38.4860   20.9500   36.6710 H   0  0  0  0  0  0  0  0  0  0  0  0
   37.6120   22.9000   36.6720 C   0  0  0  0  0  0  0  0  0  0  0  0
   36.7960   22.8640   37.3870 H   0  0  0  0  0  0  0  0  0  0  0  0
   37.9210   23.9870   35.9860 N   0  0  0  0  0  0  0  0  0  0  0  0
  1  2  2  0  0  0  0
  1  6  1  0  0  0  0
  2  3  1  0  0  0  0
  3  4  2  0  0  0  0
  3  7  1  0  0  0  0
  5 15  1  0  0  0  0
  5  4  1  0  0  0  0
  6  5  2  0  0  0  0
  7 12  1  0  0  0  0
  8  9  1  0  0  0  0
  8  7  1  0  0  0  0
  9 10  1  0  0  0  0
 10 20  1  0  0  0  0
 10 21  1  0  0  0  0
 10 11  1  0  0  0  0
 11 23  1  0  0  0  0
 12 24  1  6  0  0  0
 12 11  1  0  0  0  0
 12 25  1  0  0  0  0
 13  1  1  0  0  0  0
 14  2  1  0  0  0  0
 16  8  1  0  0  0  0
 17  8  1  0  0  0  0
 18  9  1  0  0  0  0
 19  9  1  0  0  0  0
 22 11  1  0  0  0  0
 25 26  2  0  0  0  0
 25 32  1  0  0  0  0
 26 28  1  0  0  0  0
 27 26  1  0  0  0  0
 28 29  1  0  0  0  0
 28 30  1  0  0  0  0
 30 31  1  0  0  0  0
 32 30  2  0  0  0  0
M  END
>  <minimizedAffinity>
-4.59029579

$$$$

 OpenBabel03272505073D

 32 34  0  0  1  0  0  0  0  0999 V2000
   38.7610   26.8580   36.0540 C   0  0  0  0  0  0  0  0  0  0  0  0
   37.9550   27.8130   35.4310 C   0  0  0  0  0  0  0  0  0  0  0  0
   37.1280   27.4090   34.4010 C   0  0  0  0  0  0  0  0  0  0  0  0
   37.1500   26.1060   34.0570 N   0  0  0  0  0  0  0  0  0  0  0  0
   37.9230   25.1950   34.6540 C   0  0  0  0  0  0  0  0  0  0  0  0
   38.7460   25.5700   35.6710 N   0  0  0  0  0  0  0  0  0  0  0  0
   36.2370   28.2140   33.6380 N   0  0  0  0  0  0  0  0  0  0  0  0
   35.3720   29.2150   34.2050 C   0  0  0  0  0  0  0  0  0  0  0  0
   35.3290   30.5250   33.5310 C   0  0  0  0  0  0  0  0  0  0  0  0
   35.4660   30.5290   32.0530 C   0  0  0  0  0  0  0  0  0  0  0  0
   36.5040   29.5350   31.6310 C   0  0  0  0  0  0  0  0  0  0  0  0
   36.0460   28.1740   32.2250 C   0  0  1  0  0  0  0  0  0  0  0  0
   39.3610   27.3000   36.8430 H   0  0  0  0  0  0  0  0  0  0  0  0
   37.9030   28.8610   35.6700 H   0  0  0  0  0  0  0  0  0  0  0  0
   37.9330   24.1440   34.3670 H   0  0  0  0  0  0  0  0  0  0  0  0
   34.3350   28.7730   34.1410 H   0  0  0  0  0  0  0  0  0  0  0  0
   35.6190   29.3310   35.2720 H   0  0  0  0  0  0  0  0  0  0  0  0
   34.3240   30.9930   33.7510 H   0  0  0  0  0  0  0  0  0  0  0  0
   36.0570   31.2050   34.0320 H   0  0  0  0  0  0  0  0  0  0  0  0
   34.5270   30.4520   31.4900 H   0  0  0  0  0  0  0  0  0  0  0  0
   35.8920   31.5350   31.7780 H   0  0  0  0  0  0  0  0  0  0  0  0
   37.4500   29.7680   32.1550 H   0  0  0  0  0  0  0  0  0  0  0  0
   36.5980   29.4330   30.5490 H   0  0  0  0  0  0  0  0  0  0  0  0
   34.9900   28.0700   31.9010 H   0  0  0  0  0  0  0  0  0  0  0  0
   36.8080   27.0860   31.5300 C   0  0  0  0  0  0  0  0  0  0  0  0
   36.4340   25.8360   31.0880 C   0  0  0  0  0  0  0  0  0  0  0  0
   35.4200   25.4480   31.2120 H   0  0  0  0  0  0  0  0  0  0  0  0
   37.4420   25.1850   30.5110 N   0  0  0  0  0  0  0  0  0  0  0  0
   37.4110   24.2260   30.0980 H   0  0  0  0  0  0  0  0  0  0  0  0
   38.5030   26.0030   30.5640 C   0  0  0  0  0  0  0  0  0  0  0  0
   39.5130   25.8410   30.2010 H   0  0  0  0  0  0  0  0  0  0  0  0
   38.1240   27.1190   31.1640 N   0  0  0  0  0  0  0  0  0  0  0  0
  1 13  1  0  0  0  0
  2 14  1  0  0  0  0
  2  1  2  0  0  0  0
  3  2  1  0  0  0  0
  4  3  2  0  0  0  0
  4  5  1  0  0  0  0
  5  6  2  0  0  0  0
  6  1  1  0  0  0  0
  7  8  1  0  0  0  0
  7  3  1  0  0  0  0
  8 17  1  0  0  0  0
  9 18  1  0  0  0  0
  9 19  1  0  0  0  0
  9  8  1  0  0  0  0
 10  9  1  0  0  0  0
 11 10  1  0  0  0  0
 11 22  1  0  0  0  0
 11 12  1  0  0  0  0
 12 24  1  6  0  0  0
 12  7  1  0  0  0  0
 15  5  1  0  0  0  0
 16  8  1  0  0  0  0
 20 10  1  0  0  0  0
 21 10  1  0  0  0  0
 23 11  1  0  0  0  0
 25 12  1  0  0  0  0
 26 27  1  0  0  0  0
 26 25  2  0  0  0  0
 28 30  1  0  0  0  0
 28 26  1  0  0  0  0
 29 28  1  0  0  0  0
 30 32  2  0  0  0  0
 31 30  1  0  0  0  0
 32 25  1  0  0  0  0
M  END
>  <minimizedAffinity>
-4.56012583

$$$$

 OpenBabel03272505073D

 32 34  0  0  1  0  0  0  0  0999 V2000
   40.8430   27.0700   29.9800 C   0  0  0  0  0  0  0  0  0  0  0  0
   40.4600   27.1580   31.3200 C   0  0  0  0  0  0  0  0  0  0  0  0
   39.4970   26.2860   31.7900 C   0  0  0  0  0  0  0  0  0  0  0  0
   38.9830   25.3950   30.9200 N   0  0  0  0  0  0  0  0  0  0  0  0
   39.3520   25.3140   29.6380 C   0  0  0  0  0  0  0  0  0  0  0  0
   40.2980   26.1630   29.1530 N   0  0  0  0  0  0  0  0  0  0  0  0
   38.9660   26.2090   33.1080 N   0  0  0  0  0  0  0  0  0  0  0  0
   39.7650   26.2840   34.3030 C   0  0  0  0  0  0  0  0  0  0  0  0
   39.2820   27.1680   35.3790 C   0  0  0  0  0  0  0  0  0  0  0  0
   37.8130   27.2730   35.5580 C   0  0  0  0  0  0  0  0  0  0  0  0
   37.1350   27.3260   34.2240 C   0  0  0  0  0  0  0  0  0  0  0  0
   37.5950   26.0480   33.4690 C   0  0  1  0  0  0  0  0  0  0  0  0
   41.6030   27.8060   29.7360 H   0  0  0  0  0  0  0  0  0  0  0  0
   40.8410   27.8500   32.0510 H   0  0  0  0  0  0  0  0  0  0  0  0
   38.9280   24.5900   28.9420 H   0  0  0  0  0  0  0  0  0  0  0  0
   39.7740   25.2320   34.7130 H   0  0  0  0  0  0  0  0  0  0  0  0
   40.7980   26.5400   34.0190 H   0  0  0  0  0  0  0  0  0  0  0  0
   39.6870   26.7720   36.3570 H   0  0  0  0  0  0  0  0  0  0  0  0
   39.7730   28.1620   35.2680 H   0  0  0  0  0  0  0  0  0  0  0  0
   37.3670   26.5470   36.2510 H   0  0  0  0  0  0  0  0  0  0  0  0
   37.6230   28.2790   36.0260 H   0  0  0  0  0  0  0  0  0  0  0  0
   37.5620   28.1660   33.6440 H   0  0  0  0  0  0  0  0  0  0  0  0
   36.0460   27.3250   34.2850 H   0  0  0  0  0  0  0  0  0  0  0  0
   37.3960   25.2190   34.1780 H   0  0  0  0  0  0  0  0  0  0  0  0
   36.6710   25.8390   32.3070 C   0  0  0  0  0  0  0  0  0  0  0  0
   36.1460   26.7110   31.3780 C   0  0  0  0  0  0  0  0  0  0  0  0
   36.3660   27.7810   31.3880 H   0  0  0  0  0  0  0  0  0  0  0  0
   35.3580   26.0940   30.5000 N   0  0  0  0  0  0  0  0  0  0  0  0
   34.8460   26.5340   29.7040 H   0  0  0  0  0  0  0  0  0  0  0  0
   35.3540   24.7970   30.8390 C   0  0  0  0  0  0  0  0  0  0  0  0
   34.8330   23.9680   30.3710 H   0  0  0  0  0  0  0  0  0  0  0  0
   36.1270   24.6530   31.9020 N   0  0  0  0  0  0  0  0  0  0  0  0
  1  2  1  0  0  0  0
  2  3  2  0  0  0  0
  2 14  1  0  0  0  0
  3  7  1  0  0  0  0
  4  3  1  0  0  0  0
  5  4  2  0  0  0  0
  6  5  1  0  0  0  0
  6  1  2  0  0  0  0
  7 12  1  0  0  0  0
  7  8  1  0  0  0  0
  8 16  1  0  0  0  0
  8  9  1  0  0  0  0
  9 10  1  0  0  0  0
  9 18  1  0  0  0  0
 10 21  1  0  0  0  0
 10 20  1  0  0  0  0
 11 23  1  0  0  0  0
 11 10  1  0  0  0  0
 12 24  1  1  0  0  0
 12 11  1  0  0  0  0
 13  1  1  0  0  0  0
 15  5  1  0  0  0  0
 17  8  1  0  0  0  0
 19  9  1  0  0  0  0
 22 11  1  0  0  0  0
 25 12  1  0  0  0  0
 26 27  1  0  0  0  0
 26 25  2  0  0  0  0
 28 30  1  0  0  0  0
 28 26  1  0  0  0  0
 29 28  1  0  0  0  0
 30 32  2  0  0  0  0
 31 30  1  0  0  0  0
 32 25  1  0  0  0  0
M  END
>  <minimizedAffinity>
-4.51978111

$$$$

 OpenBabel03272505073D

 32 34  0  0  1  0  0  0  0  0999 V2000
   38.5230   27.5350   35.1510 C   0  0  0  0  0  0  0  0  0  0  0  0
   39.6910   26.7970   35.3550 C   0  0  0  0  0  0  0  0  0  0  0  0
   39.7270   25.4850   34.9240 C   0  0  0  0  0  0  0  0  0  0  0  0
   38.6230   24.9940   34.3260 N   0  0  0  0  0  0  0  0  0  0  0  0
   37.5070   25.7030   34.1340 C   0  0  0  0  0  0  0  0  0  0  0  0
   37.4490   26.9960   34.5510 N   0  0  0  0  0  0  0  0  0  0  0  0
   40.8070   24.5650   35.0340 N   0  0  0  0  0  0  0  0  0  0  0  0
   42.1800   24.9000   34.7630 C   0  0  0  0  0  0  0  0  0  0  0  0
   43.1870   24.4530   35.7410 C   0  0  0  0  0  0  0  0  0  0  0  0
   42.9440   23.1520   36.4140 C   0  0  0  0  0  0  0  0  0  0  0  0
   41.4920   23.0160   36.7580 C   0  0  0  0  0  0  0  0  0  0  0  0
   40.7260   23.1940   35.4190 C   0  0  1  0  0  0  0  0  0  0  0  0
   38.6220   28.5460   35.5330 H   0  0  0  0  0  0  0  0  0  0  0  0
   40.5950   27.1450   35.8250 H   0  0  0  0  0  0  0  0  0  0  0  0
   36.6200   25.2940   33.6500 H   0  0  0  0  0  0  0  0  0  0  0  0
   42.4150   24.3890   33.7840 H   0  0  0  0  0  0  0  0  0  0  0  0
   42.2500   25.9870   34.5960 H   0  0  0  0  0  0  0  0  0  0  0  0
   44.1710   24.3420   35.1980 H   0  0  0  0  0  0  0  0  0  0  0  0
   43.3710   25.2820   36.4640 H   0  0  0  0  0  0  0  0  0  0  0  0
   43.3620   22.2730   35.9080 H   0  0  0  0  0  0  0  0  0  0  0  0
   43.4790   23.2030   37.4030 H   0  0  0  0  0  0  0  0  0  0  0  0
   41.1920   23.8840   37.3740 H   0  0  0  0  0  0  0  0  0  0  0  0
   41.2330   22.0460   37.1860 H   0  0  0  0  0  0  0  0  0  0  0  0
   41.2160   22.4850   34.7210 H   0  0  0  0  0  0  0  0  0  0  0  0
   39.3270   22.6900   35.6160 C   0  0  0  0  0  0  0  0  0  0  0  0
   38.4590   22.7720   36.6840 C   0  0  0  0  0  0  0  0  0  0  0  0
   38.7260   23.2680   37.6200 H   0  0  0  0  0  0  0  0  0  0  0  0
   37.2940   22.1820   36.4290 N   0  0  0  0  0  0  0  0  0  0  0  0
   36.4760   22.1090   37.0750 H   0  0  0  0  0  0  0  0  0  0  0  0
   37.3760   21.6990   35.1810 C   0  0  0  0  0  0  0  0  0  0  0  0
   36.6350   21.1530   34.6070 H   0  0  0  0  0  0  0  0  0  0  0  0
   38.5740   22.0010   34.7080 N   0  0  0  0  0  0  0  0  0  0  0  0
  1  2  1  0  0  0  0
  1 13  1  0  0  0  0
  2 14  1  0  0  0  0
  3  7  1  0  0  0  0
  3  2  2  0  0  0  0
  4  3  1  0  0  0  0
  5  4  2  0  0  0  0
  5  6  1  0  0  0  0
  6  1  2  0  0  0  0
  7 12  1  0  0  0  0
  8  7  1  0  0  0  0
  8  9  1  0  0  0  0
  9 10  1  0  0  0  0
  9 19  1  0  0  0  0
 10 11  1  0  0  0  0
 10 21  1  0  0  0  0
 11 23  1  0  0  0  0
 11 22  1  0  0  0  0
 12 24  1  6  0  0  0
 12 25  1  0  0  0  0
 12 11  1  0  0  0  0
 15  5  1  0  0  0  0
 16  8  1  0  0  0  0
 17  8  1  0  0  0  0
 18  9  1  0  0  0  0
 20 10  1  0  0  0  0
 25 26  2  0  0  0  0
 26 27  1  0  0  0  0
 28 26  1  0  0  0  0
 28 29  1  0  0  0  0
 30 28  1  0  0  0  0
 31 30  1  0  0  0  0
 32 30  2  0  0  0  0
 32 25  1  0  0  0  0
M  END
>  <minimizedAffinity>
-4.48388672

$$$$

 OpenBabel03272505073D

 32 34  0  0  1  0  0  0  0  0999 V2000
   36.0340   22.3630   31.4060 C   0  0  0  0  0  0  0  0  0  0  0  0
   36.2370   23.6470   31.9190 C   0  0  0  0  0  0  0  0  0  0  0  0
   37.3990   23.9000   32.6230 C   0  0  0  0  0  0  0  0  0  0  0  0
   38.2720   22.8850   32.7730 N   0  0  0  0  0  0  0  0  0  0  0  0
   38.0730   21.6580   32.2820 C   0  0  0  0  0  0  0  0  0  0  0  0
   36.9370   21.3850   31.5850 N   0  0  0  0  0  0  0  0  0  0  0  0
   37.7970   25.1250   33.2250 N   0  0  0  0  0  0  0  0  0  0  0  0
   37.6640   26.4120   32.5950 C   0  0  0  0  0  0  0  0  0  0  0  0
   37.1040   27.5050   33.4100 C   0  0  0  0  0  0  0  0  0  0  0  0
   37.4380   27.5080   34.8560 C   0  0  0  0  0  0  0  0  0  0  0  0
   37.3970   26.1110   35.3960 C   0  0  0  0  0  0  0  0  0  0  0  0
   38.3810   25.2930   34.5160 C   0  0  1  0  0  0  0  0  0  0  0  0
   35.0890   22.2940   30.8760 H   0  0  0  0  0  0  0  0  0  0  0  0
   35.5720   24.4870   31.8240 H   0  0  0  0  0  0  0  0  0  0  0  0
   38.7860   20.8440   32.4110 H   0  0  0  0  0  0  0  0  0  0  0  0
   38.7170   26.7100   32.3160 H   0  0  0  0  0  0  0  0  0  0  0  0
   37.0950   26.2890   31.6600 H   0  0  0  0  0  0  0  0  0  0  0  0
   37.4990   28.4800   32.9980 H   0  0  0  0  0  0  0  0  0  0  0  0
   36.0060   27.5590   33.2230 H   0  0  0  0  0  0  0  0  0  0  0  0
   38.3460   28.0610   35.1310 H   0  0  0  0  0  0  0  0  0  0  0  0
   36.5970   28.0500   35.3740 H   0  0  0  0  0  0  0  0  0  0  0  0
   36.4010   25.6790   35.1820 H   0  0  0  0  0  0  0  0  0  0  0  0
   37.7090   26.0350   36.4380 H   0  0  0  0  0  0  0  0  0  0  0  0
   39.3210   25.8830   34.5280 H   0  0  0  0  0  0  0  0  0  0  0  0
   38.6810   24.0090   35.2290 C   0  0  0  0  0  0  0  0  0  0  0  0
   37.8870   23.1520   35.9600 C   0  0  0  0  0  0  0  0  0  0  0  0
   36.8220   23.3370   36.1260 H   0  0  0  0  0  0  0  0  0  0  0  0
   38.5690   22.1070   36.4230 N   0  0  0  0  0  0  0  0  0  0  0  0
   38.1930   21.3230   37.0020 H   0  0  0  0  0  0  0  0  0  0  0  0
   39.8320   22.2600   36.0010 C   0  0  0  0  0  0  0  0  0  0  0  0
   40.6930   21.6210   36.1690 H   0  0  0  0  0  0  0  0  0  0  0  0
   39.8920   23.3800   35.3000 N   0  0  0  0  0  0  0  0  0  0  0  0
  1  6  2  0  0  0  0
  1  2  1  0  0  0  0
  2  3  2  0  0  0  0
  3  4  1  0  0  0  0
  3  7  1  0  0  0  0
  5 15  1  0  0  0  0
  5  4  2  0  0  0  0
  6  5  1  0  0  0  0
  7 12  1  0  0  0  0
  8  7  1  0  0  0  0
  8  9  1  0  0  0  0
  9 10  1  0  0  0  0
 10 20  1  0  0  0  0
 10 21  1  0  0  0  0
 10 11  1  0  0  0  0
 11 23  1  0  0  0  0
 12 24  1  6  0  0  0
 12 25  1  0  0  0  0
 12 11  1  0  0  0  0
 13  1  1  0  0  0  0
 14  2  1  0  0  0  0
 16  8  1  0  0  0  0
 17  8  1  0  0  0  0
 18  9  1  0  0  0  0
 19  9  1  0  0  0  0
 22 11  1  0  0  0  0
 25 32  1  0  0  0  0
 25 26  2  0  0  0  0
 26 27  1  0  0  0  0
 26 28  1  0  0  0  0
 28 29  1  0  0  0  0
 30 31  1  0  0  0  0
 30 28  1  0  0  0  0
 32 30  2  0  0  0  0
M  END
>  <minimizedAffinity>
-4.47997952

$$$$

 OpenBabel03272505073D

 32 34  0  0  1  0  0  0  0  0999 V2000
   37.9060   22.9060   35.8400 C   0  0  0  0  0  0  0  0  0  0  0  0
   37.7110   21.9470   34.8430 C   0  0  0  0  0  0  0  0  0  0  0  0
   37.9130   22.3130   33.5260 C   0  0  0  0  0  0  0  0  0  0  0  0
   38.2880   23.5840   33.2820 N   0  0  0  0  0  0  0  0  0  0  0  0
   38.4720   24.4990   34.2380 C   0  0  0  0  0  0  0  0  0  0  0  0
   38.2800   24.1610   35.5420 N   0  0  0  0  0  0  0  0  0  0  0  0
   37.7680   21.4990   32.3680 N   0  0  0  0  0  0  0  0  0  0  0  0
   38.2470   20.1450   32.2720 C   0  0  0  0  0  0  0  0  0  0  0  0
   37.3250   19.1460   31.7010 C   0  0  0  0  0  0  0  0  0  0  0  0
   36.4160   19.6050   30.6210 C   0  0  0  0  0  0  0  0  0  0  0  0
   35.8920   20.9720   30.9380 C   0  0  0  0  0  0  0  0  0  0  0  0
   37.1460   21.8660   31.1370 C   0  0  1  0  0  0  0  0  0  0  0  0
   37.7170   22.4950   36.8260 H   0  0  0  0  0  0  0  0  0  0  0  0
   37.4140   20.9230   34.9890 H   0  0  0  0  0  0  0  0  0  0  0  0
   38.7750   25.5250   34.0280 H   0  0  0  0  0  0  0  0  0  0  0  0
   39.1430   20.2020   31.5880 H   0  0  0  0  0  0  0  0  0  0  0  0
   38.6040   19.8270   33.2640 H   0  0  0  0  0  0  0  0  0  0  0  0
   37.9500   18.3190   31.2510 H   0  0  0  0  0  0  0  0  0  0  0  0
   36.7820   18.6480   32.5370 H   0  0  0  0  0  0  0  0  0  0  0  0
   36.8080   19.5080   29.6000 H   0  0  0  0  0  0  0  0  0  0  0  0
   35.5170   18.9280   30.6570 H   0  0  0  0  0  0  0  0  0  0  0  0
   35.4050   20.9420   31.9310 H   0  0  0  0  0  0  0  0  0  0  0  0
   35.2770   21.3990   30.1440 H   0  0  0  0  0  0  0  0  0  0  0  0
   37.7630   21.6860   30.2330 H   0  0  0  0  0  0  0  0  0  0  0  0
   36.7090   23.2990   31.0700 C   0  0  0  0  0  0  0  0  0  0  0  0
   37.3290   24.4300   30.5870 C   0  0  0  0  0  0  0  0  0  0  0  0
   38.3310   24.4090   30.1500 H   0  0  0  0  0  0  0  0  0  0  0  0
   36.5700   25.5150   30.7230 N   0  0  0  0  0  0  0  0  0  0  0  0
   36.8160   26.4890   30.4350 H   0  0  0  0  0  0  0  0  0  0  0  0
   35.4300   25.1120   31.3010 C   0  0  0  0  0  0  0  0  0  0  0  0
   34.5590   25.6950   31.5790 H   0  0  0  0  0  0  0  0  0  0  0  0
   35.5180   23.8080   31.5030 N   0  0  0  0  0  0  0  0  0  0  0  0
  1 13  1  0  0  0  0
  2 14  1  0  0  0  0
  2  1  2  0  0  0  0
  3  2  1  0  0  0  0
  4  3  2  0  0  0  0
  4  5  1  0  0  0  0
  5  6  2  0  0  0  0
  6  1  1  0  0  0  0
  7  3  1  0  0  0  0
  8  7  1  0  0  0  0
  8 17  1  0  0  0  0
  9  8  1  0  0  0  0
  9 19  1  0  0  0  0
 10 21  1  0  0  0  0
 10 11  1  0  0  0  0
 10  9  1  0  0  0  0
 11 12  1  0  0  0  0
 11 22  1  0  0  0  0
 12 24  1  6  0  0  0
 12  7  1  0  0  0  0
 15  5  1  0  0  0  0
 16  8  1  0  0  0  0
 18  9  1  0  0  0  0
 20 10  1  0  0  0  0
 23 11  1  0  0  0  0
 25 12  1  0  0  0  0
 25 32  1  0  0  0  0
 26 28  1  0  0  0  0
 26 25  2  0  0  0  0
 27 26  1  0  0  0  0
 28 30  1  0  0  0  0
 29 28  1  0  0  0  0
 30 32  2  0  0  0  0
 30 31  1  0  0  0  0
M  END
>  <minimizedAffinity>
-4.4454031

$$$$

 OpenBabel03272505073D

 32 34  0  0  1  0  0  0  0  0999 V2000
   39.3720   27.1760   34.1000 C   0  0  0  0  0  0  0  0  0  0  0  0
   39.0210   25.9940   33.4440 C   0  0  0  0  0  0  0  0  0  0  0  0
   38.2990   25.0420   34.1390 C   0  0  0  0  0  0  0  0  0  0  0  0
   37.9740   25.3160   35.4180 N   0  0  0  0  0  0  0  0  0  0  0  0
   38.3130   26.4470   36.0420 C   0  0  0  0  0  0  0  0  0  0  0  0
   39.0240   27.3980   35.3790 N   0  0  0  0  0  0  0  0  0  0  0  0
   37.8460   23.7800   33.6630 N   0  0  0  0  0  0  0  0  0  0  0  0
   37.2500   23.5750   32.3700 C   0  0  0  0  0  0  0  0  0  0  0  0
   37.7320   22.4250   31.5830 C   0  0  0  0  0  0  0  0  0  0  0  0
   38.1150   21.2050   32.3360 C   0  0  0  0  0  0  0  0  0  0  0  0
   38.8500   21.5820   33.5860 C   0  0  0  0  0  0  0  0  0  0  0  0
   37.8980   22.5360   34.3590 C   0  0  1  0  0  0  0  0  0  0  0  0
   39.9340   27.8380   33.4490 H   0  0  0  0  0  0  0  0  0  0  0  0
   39.2560   25.7320   32.4270 H   0  0  0  0  0  0  0  0  0  0  0  0
   38.0460   26.6570   37.0780 H   0  0  0  0  0  0  0  0  0  0  0  0
   36.1540   23.4010   32.5790 H   0  0  0  0  0  0  0  0  0  0  0  0
   37.3340   24.5080   31.7910 H   0  0  0  0  0  0  0  0  0  0  0  0
   36.8990   22.1110   30.8860 H   0  0  0  0  0  0  0  0  0  0  0  0
   38.5370   22.7770   30.8980 H   0  0  0  0  0  0  0  0  0  0  0  0
   37.3090   20.4770   32.5010 H   0  0  0  0  0  0  0  0  0  0  0  0
   38.8720   20.6660   31.7000 H   0  0  0  0  0  0  0  0  0  0  0  0
   39.7170   22.2110   33.3100 H   0  0  0  0  0  0  0  0  0  0  0  0
   39.0920   20.7320   34.2250 H   0  0  0  0  0  0  0  0  0  0  0  0
   36.9340   21.9890   34.4060 H   0  0  0  0  0  0  0  0  0  0  0  0
   38.3930   22.6390   35.7710 C   0  0  0  0  0  0  0  0  0  0  0  0
   37.7340   22.8010   36.9700 C   0  0  0  0  0  0  0  0  0  0  0  0
   36.6460   22.8870   37.0340 H   0  0  0  0  0  0  0  0  0  0  0  0
   38.5720   22.8400   38.0030 N   0  0  0  0  0  0  0  0  0  0  0  0
   38.3180   22.9550   39.0090 H   0  0  0  0  0  0  0  0  0  0  0  0
   39.8060   22.7020   37.4960 C   0  0  0  0  0  0  0  0  0  0  0  0
   40.7600   22.6840   38.0120 H   0  0  0  0  0  0  0  0  0  0  0  0
   39.6940   22.5850   36.1840 N   0  0  0  0  0  0  0  0  0  0  0  0
  1  6  1  0  0  0  0
  2  1  2  0  0  0  0
  2  3  1  0  0  0  0
  3  4  2  0  0  0  0
  4  5  1  0  0  0  0
  5 15  1  0  0  0  0
  6  5  2  0  0  0  0
  7  3  1  0  0  0  0
  7 12  1  0  0  0  0
  8 16  1  0  0  0  0
  8  7  1  0  0  0  0
  9 10  1  0  0  0  0
  9  8  1  0  0  0  0
 10 20  1  0  0  0  0
 10 11  1  0  0  0  0
 11 23  1  0  0  0  0
 11 12  1  0  0  0  0
 12 24  1  1  0  0  0
 12 25  1  0  0  0  0
 13  1  1  0  0  0  0
 14  2  1  0  0  0  0
 17  8  1  0  0  0  0
 18  9  1  0  0  0  0
 19  9  1  0  0  0  0
 21 10  1  0  0  0  0
 22 11  1  0  0  0  0
 25 32  1  0  0  0  0
 25 26  2  0  0  0  0
 26 27  1  0  0  0  0
 26 28  1  0  0  0  0
 28 29  1  0  0  0  0
 30 28  1  0  0  0  0
 30 31  1  0  0  0  0
 32 30  2  0  0  0  0
M  END
>  <minimizedAffinity>
-4.4068718

$$$$

 OpenBabel03272505073D

 32 34  0  0  1  0  0  0  0  0999 V2000
   35.1830   29.3770   32.8030 C   0  0  0  0  0  0  0  0  0  0  0  0
   35.9370   28.6630   33.7380 C   0  0  0  0  0  0  0  0  0  0  0  0
   36.9860   27.8860   33.2850 C   0  0  0  0  0  0  0  0  0  0  0  0
   37.2190   27.8640   31.9570 N   0  0  0  0  0  0  0  0  0  0  0  0
   36.4940   28.5470   31.0670 C   0  0  0  0  0  0  0  0  0  0  0  0
   35.4570   29.3190   31.4900 N   0  0  0  0  0  0  0  0  0  0  0  0
   37.8700   27.0850   34.0600 N   0  0  0  0  0  0  0  0  0  0  0  0
   38.4620   27.5110   35.3010 C   0  0  0  0  0  0  0  0  0  0  0  0
   38.4300   26.5560   36.4230 C   0  0  0  0  0  0  0  0  0  0  0  0
   38.5600   25.1160   36.0880 C   0  0  0  0  0  0  0  0  0  0  0  0
   37.7740   24.8030   34.8520 C   0  0  0  0  0  0  0  0  0  0  0  0
   38.3140   25.7630   33.7580 C   0  0  1  0  0  0  0  0  0  0  0  0
   34.3930   29.9450   33.2840 H   0  0  0  0  0  0  0  0  0  0  0  0
   35.7900   28.6490   34.8040 H   0  0  0  0  0  0  0  0  0  0  0  0
   36.6920   28.5220   29.9950 H   0  0  0  0  0  0  0  0  0  0  0  0
   39.5470   27.7010   35.0550 H   0  0  0  0  0  0  0  0  0  0  0  0
   38.0130   28.4740   35.5920 H   0  0  0  0  0  0  0  0  0  0  0  0
   39.2990   26.7960   37.1050 H   0  0  0  0  0  0  0  0  0  0  0  0
   37.5320   26.7730   37.0460 H   0  0  0  0  0  0  0  0  0  0  0  0
   39.5860   24.7260   36.0690 H   0  0  0  0  0  0  0  0  0  0  0  0
   38.0470   24.5520   36.9160 H   0  0  0  0  0  0  0  0  0  0  0  0
   36.7250   25.1180   35.0120 H   0  0  0  0  0  0  0  0  0  0  0  0
   37.8910   23.7750   34.5080 H   0  0  0  0  0  0  0  0  0  0  0  0
   39.4140   25.6250   33.7840 H   0  0  0  0  0  0  0  0  0  0  0  0
   37.8580   25.2490   32.4250 C   0  0  0  0  0  0  0  0  0  0  0  0
   38.4840   25.1800   31.1990 C   0  0  0  0  0  0  0  0  0  0  0  0
   39.5050   25.5400   31.0410 H   0  0  0  0  0  0  0  0  0  0  0  0
   37.7040   24.6390   30.2670 N   0  0  0  0  0  0  0  0  0  0  0  0
   37.9490   24.4780   29.2640 H   0  0  0  0  0  0  0  0  0  0  0  0
   36.5440   24.3400   30.8680 C   0  0  0  0  0  0  0  0  0  0  0  0
   35.6520   23.8850   30.4490 H   0  0  0  0  0  0  0  0  0  0  0  0
   36.6400   24.7010   32.1360 N   0  0  0  0  0  0  0  0  0  0  0  0
  1 13  1  0  0  0  0
  1  2  1  0  0  0  0
  2 14  1  0  0  0  0
  3  2  2  0  0  0  0
  3  7  1  0  0  0  0
  4  3  1  0  0  0  0
  5  6  1  0  0  0  0
  5  4  2  0  0  0  0
  6  1  2  0  0  0  0
  7  8  1  0  0  0  0
  8 17  1  0  0  0  0
  8  9  1  0  0  0  0
  9 19  1  0  0  0  0
  9 18  1  0  0  0  0
 10  9  1  0  0  0  0
 10 21  1  0  0  0  0
 11 22  1  0  0  0  0
 11 10  1  0  0  0  0
 12 24  1  1  0  0  0
 12  7  1  0  0  0  0
 12 11  1  0  0  0  0
 15  5  1  0  0  0  0
 16  8  1  0  0  0  0
 20 10  1  0  0  0  0
 23 11  1  0  0  0  0
 25 12  1  0  0  0  0
 26 25  2  0  0  0  0
 27 26  1  0  0  0  0
 28 30  1  0  0  0  0
 28 26  1  0  0  0  0
 29 28  1  0  0  0  0
 30 32  2  0  0  0  0
 31 30  1  0  0  0  0
 32 25  1  0  0  0  0
M  END
>  <minimizedAffinity>
-4.36434793

$$$$

 OpenBabel03272505073D

 32 34  0  0  1  0  0  0  0  0999 V2000
   35.6400   23.4710   31.3010 C   0  0  0  0  0  0  0  0  0  0  0  0
   35.5580   24.8640   31.3640 C   0  0  0  0  0  0  0  0  0  0  0  0
   36.6400   25.5680   31.8540 C   0  0  0  0  0  0  0  0  0  0  0  0
   37.7200   24.8620   32.2440 N   0  0  0  0  0  0  0  0  0  0  0  0
   37.7950   23.5290   32.1840 C   0  0  0  0  0  0  0  0  0  0  0  0
   36.7410   22.8150   31.7050 N   0  0  0  0  0  0  0  0  0  0  0  0
   36.7620   26.9770   32.0050 N   0  0  0  0  0  0  0  0  0  0  0  0
   36.3380   27.9320   31.0140 C   0  0  0  0  0  0  0  0  0  0  0  0
   35.5570   29.0890   31.4860 C   0  0  0  0  0  0  0  0  0  0  0  0
   35.8970   29.6320   32.8250 C   0  0  0  0  0  0  0  0  0  0  0  0
   36.1740   28.5110   33.7790 C   0  0  0  0  0  0  0  0  0  0  0  0
   37.3080   27.6740   33.1240 C   0  0  1  0  0  0  0  0  0  0  0  0
   34.7290   23.0380   30.9000 H   0  0  0  0  0  0  0  0  0  0  0  0
   34.7200   25.4700   31.0650 H   0  0  0  0  0  0  0  0  0  0  0  0
   38.6730   22.9680   32.5030 H   0  0  0  0  0  0  0  0  0  0  0  0
   37.2950   28.3340   30.5700 H   0  0  0  0  0  0  0  0  0  0  0  0
   35.8010   27.3950   30.2160 H   0  0  0  0  0  0  0  0  0  0  0  0
   35.7200   29.9360   30.7570 H   0  0  0  0  0  0  0  0  0  0  0  0
   34.4730   28.8500   31.3830 H   0  0  0  0  0  0  0  0  0  0  0  0
   36.6620   30.4200   32.8360 H   0  0  0  0  0  0  0  0  0  0  0  0
   34.9620   30.1250   33.2130 H   0  0  0  0  0  0  0  0  0  0  0  0
   35.2980   27.8360   33.7950 H   0  0  0  0  0  0  0  0  0  0  0  0
   36.5070   28.8450   34.7630 H   0  0  0  0  0  0  0  0  0  0  0  0
   38.0920   28.4170   32.8720 H   0  0  0  0  0  0  0  0  0  0  0  0
   37.8940   26.7840   34.1780 C   0  0  0  0  0  0  0  0  0  0  0  0
   39.1860   26.3730   34.4240 C   0  0  0  0  0  0  0  0  0  0  0  0
   40.0290   26.6840   33.8010 H   0  0  0  0  0  0  0  0  0  0  0  0
   39.2650   25.5720   35.4840 N   0  0  0  0  0  0  0  0  0  0  0  0
   40.1300   25.1320   35.8710 H   0  0  0  0  0  0  0  0  0  0  0  0
   38.0170   25.4430   35.9570 C   0  0  0  0  0  0  0  0  0  0  0  0
   37.6630   24.8720   36.8090 H   0  0  0  0  0  0  0  0  0  0  0  0
   37.2160   26.1570   35.1850 N   0  0  0  0  0  0  0  0  0  0  0  0
  1  2  2  0  0  0  0
  1  6  1  0  0  0  0
  2  3  1  0  0  0  0
  3  7  1  0  0  0  0
  3  4  2  0  0  0  0
  5  4  1  0  0  0  0
  5 15  1  0  0  0  0
  6  5  2  0  0  0  0
  7 12  1  0  0  0  0
  8  9  1  0  0  0  0
  8  7  1  0  0  0  0
  9 10  1  0  0  0  0
 10 20  1  0  0  0  0
 10 21  1  0  0  0  0
 10 11  1  0  0  0  0
 11 22  1  0  0  0  0
 11 23  1  0  0  0  0
 12 24  1  6  0  0  0
 12 11  1  0  0  0  0
 12 25  1  0  0  0  0
 13  1  1  0  0  0  0
 14  2  1  0  0  0  0
 16  8  1  0  0  0  0
 17  8  1  0  0  0  0
 18  9  1  0  0  0  0
 19  9  1  0  0  0  0
 25 26  2  0  0  0  0
 25 32  1  0  0  0  0
 26 28  1  0  0  0  0
 27 26  1  0  0  0  0
 28 29  1  0  0  0  0
 28 30  1  0  0  0  0
 30 31  1  0  0  0  0
 32 30  2  0  0  0  0
M  END
>  <minimizedAffinity>
-4.33041334

$$$$
