
 OpenBabel03272510193D

 35 38  0  0  0  0  0  0  0  0999 V2000
   37.3910   29.2090   50.8540 Br  0  0  0  0  0  0  0  0  0  0  0  0
   35.9990   29.2740   49.5550 C   0  0  0  0  0  0  0  0  0  0  0  0
   35.9990   30.2480   48.5720 C   0  0  0  0  0  0  0  0  0  0  0  0
   34.9670   30.2420   47.6640 C   0  0  0  0  0  0  0  0  0  0  0  0
   33.9390   29.3050   47.6980 C   0  0  0  0  0  0  0  0  0  0  0  0
   33.9670   28.3600   48.6740 C   0  0  0  0  0  0  0  0  0  0  0  0
   34.9980   28.3560   49.5920 C   0  0  0  0  0  0  0  0  0  0  0  0
   34.9100   30.9740   46.8760 H   0  0  0  0  0  0  0  0  0  0  0  0
   33.1940   27.5990   48.7570 H   0  0  0  0  0  0  0  0  0  0  0  0
   35.0050   27.6060   50.3550 H   0  0  0  0  0  0  0  0  0  0  0  0
   37.9950   33.1800   49.4510 C   0  0  0  0  0  0  0  0  0  0  0  0
   39.0160   33.1870   48.4490 C   0  0  0  0  0  0  0  0  0  0  0  0
   38.9930   32.1850   47.4950 C   0  0  0  0  0  0  0  0  0  0  0  0
   38.0040   31.2410   47.5540 N   0  0  0  0  0  0  0  0  0  0  0  0
   37.0550   31.2490   48.5000 C   0  0  0  0  0  0  0  0  0  0  0  0
   37.0530   32.2290   49.4560 N   0  0  0  0  0  0  0  0  0  0  0  0
   37.9380   33.9120   50.2200 H   0  0  0  0  0  0  0  0  0  0  0  0
   39.7530   33.9690   48.4820 H   0  0  0  0  0  0  0  0  0  0  0  0
   39.7520   32.1640   46.7250 H   0  0  0  0  0  0  0  0  0  0  0  0
   32.8450   29.2950   46.7360 C   0  0  0  0  0  0  0  0  0  0  0  0
   32.1460   28.1800   46.3440 C   0  0  0  0  0  0  0  0  0  0  0  0
   31.1140   28.2180   45.4280 C   0  0  0  0  0  0  0  0  0  0  0  0
   30.7600   29.3780   44.8860 N   0  0  0  0  0  0  0  0  0  0  0  0
   31.4300   30.4990   45.2520 C   0  0  0  0  0  0  0  0  0  0  0  0
   32.4240   30.4370   46.1390 N   0  0  0  0  0  0  0  0  0  0  0  0
   32.4310   27.2240   46.7860 H   0  0  0  0  0  0  0  0  0  0  0  0
   30.5760   27.3300   45.1330 H   0  0  0  0  0  0  0  0  0  0  0  0
   31.1840   31.8700   44.7620 C   0  0  0  0  0  0  0  0  0  0  0  0
   30.0080   32.2700   44.1200 C   0  0  0  0  0  0  0  0  0  0  0  0
   29.1450   31.6850   43.8910 H   0  0  0  0  0  0  0  0  0  0  0  0
   30.1510   33.5890   43.8200 N   0  0  0  0  0  0  0  0  0  0  0  0
   29.4440   34.1760   43.3380 H   0  0  0  0  0  0  0  0  0  0  0  0
   31.3630   34.0110   44.2510 C   0  0  0  0  0  0  0  0  0  0  0  0
   31.8160   34.9920   44.1850 H   0  0  0  0  0  0  0  0  0  0  0  0
   31.9800   32.9570   44.8200 N   0  0  0  0  0  0  0  0  0  0  0  0
  2  7  1  0  0  0  0
  2  1  1  0  0  0  0
  3  2  2  0  0  0  0
  4  5  2  0  0  0  0
  4  3  1  0  0  0  0
  5  6  1  0  0  0  0
  6  9  1  0  0  0  0
  6  7  2  0  0  0  0
  7 10  1  0  0  0  0
  8  4  1  0  0  0  0
 11 16  1  0  0  0  0
 11 17  1  0  0  0  0
 12 18  1  0  0  0  0
 12 11  2  0  0  0  0
 13 14  2  0  0  0  0
 13 12  1  0  0  0  0
 14 15  1  0  0  0  0
 15  3  1  0  0  0  0
 15 16  2  0  0  0  0
 19 13  1  0  0  0  0
 20  5  1  0  0  0  0
 21 20  1  0  0  0  0
 21 26  1  0  0  0  0
 22 21  2  0  0  0  0
 23 24  2  0  0  0  0
 23 22  1  0  0  0  0
 24 25  1  0  0  0  0
 25 20  2  0  0  0  0
 27 22  1  0  0  0  0
 28 35  1  0  0  0  0
 28 24  1  0  0  0  0
 29 28  2  0  0  0  0
 30 29  1  0  0  0  0
 31 29  1  0  0  0  0
 31 33  1  0  0  0  0
 32 31  1  0  0  0  0
 33 35  2  0  0  0  0
 34 33  1  0  0  0  0
M  END
>  <minimizedAffinity>
-6.63076496

>  <minimizedRMSD>
0.186153278

$$$$
