
 OpenBabel03272504113D

 20 21  0  0  0  0  0  0  0  0999 V2000
   36.8200   29.9740   49.8460 C   0  0  0  0  0  0  0  0  0  0  0  0
   37.7650   30.9080   49.4320 C   0  0  0  0  0  0  0  0  0  0  0  0
   37.6760   31.3900   48.1160 C   0  0  0  0  0  0  0  0  0  0  0  0
   36.6750   30.9160   47.3270 N   0  0  0  0  0  0  0  0  0  0  0  0
   35.7790   30.0060   47.7760 C   0  0  0  0  0  0  0  0  0  0  0  0
   35.8630   29.5450   49.0330 N   0  0  0  0  0  0  0  0  0  0  0  0
   38.5530   31.2850   50.0440 H   0  0  0  0  0  0  0  0  0  0  0  0
   34.9760   29.6110   47.1800 H   0  0  0  0  0  0  0  0  0  0  0  0
   38.6230   32.3570   47.6300 C   0  0  0  0  0  0  0  0  0  0  0  0
   39.0750   33.4460   48.3330 C   0  0  0  0  0  0  0  0  0  0  0  0
   38.8360   33.7790   49.3120 H   0  0  0  0  0  0  0  0  0  0  0  0
   39.9440   34.0570   47.4760 N   0  0  0  0  0  0  0  0  0  0  0  0
   40.4580   34.9450   47.7530 H   0  0  0  0  0  0  0  0  0  0  0  0
   40.0320   33.3820   46.2940 C   0  0  0  0  0  0  0  0  0  0  0  0
   40.6940   33.7550   45.5030 H   0  0  0  0  0  0  0  0  0  0  0  0
   39.1940   32.3170   46.4130 N   0  0  0  0  0  0  0  0  0  0  0  0
   36.9080   29.4560   51.2480 C   0  0  0  0  0  0  0  0  0  0  0  0
   35.6320   29.1350   51.7090 F   0  0  0  0  0  0  0  0  0  0  0  0
   37.7840   28.4200   51.2860 F   0  0  0  0  0  0  0  0  0  0  0  0
   37.3600   30.5140   52.0470 F   0  0  0  0  0  0  0  0  0  0  0  0
  1 17  1  0  0  0  0
  2  1  1  0  0  0  0
  2  7  1  0  0  0  0
  3  2  2  0  0  0  0
  4  5  2  0  0  0  0
  4  3  1  0  0  0  0
  5  6  1  0  0  0  0
  6  1  2  0  0  0  0
  8  5  1  0  0  0  0
  9  3  1  0  0  0  0
  9 10  2  0  0  0  0
 10 11  1  0  0  0  0
 12 13  1  0  0  0  0
 12 10  1  0  0  0  0
 14 16  2  0  0  0  0
 14 12  1  0  0  0  0
 15 14  1  0  0  0  0
 16  9  1  0  0  0  0
 17 19  1  0  0  0  0
 17 18  1  0  0  0  0
 17 20  1  0  0  0  0
M  END
>  <minimizedAffinity>
-5.43434429

>  <minimizedRMSD>
1.46777773

$$$$
