
 OpenBabel03272510193D

 35 38  0  0  0  0  0  0  0  0999 V2000
   37.3930   29.1670   50.8210 Br  0  0  0  0  0  0  0  0  0  0  0  0
   36.0090   29.3050   49.5190 C   0  0  0  0  0  0  0  0  0  0  0  0
   36.0220   30.3260   48.5840 C   0  0  0  0  0  0  0  0  0  0  0  0
   34.9960   30.3710   47.6710 C   0  0  0  0  0  0  0  0  0  0  0  0
   33.9620   29.4400   47.6530 C   0  0  0  0  0  0  0  0  0  0  0  0
   33.9770   28.4500   48.5820 C   0  0  0  0  0  0  0  0  0  0  0  0
   35.0030   28.3940   49.5060 C   0  0  0  0  0  0  0  0  0  0  0  0
   34.9490   31.1410   46.9190 H   0  0  0  0  0  0  0  0  0  0  0  0
   33.1990   27.6900   48.6240 H   0  0  0  0  0  0  0  0  0  0  0  0
   35.0000   27.6070   50.2310 H   0  0  0  0  0  0  0  0  0  0  0  0
   37.9930   33.2390   49.5770 C   0  0  0  0  0  0  0  0  0  0  0  0
   39.0560   33.2500   48.6190 C   0  0  0  0  0  0  0  0  0  0  0  0
   39.0690   32.2570   47.6560 C   0  0  0  0  0  0  0  0  0  0  0  0
   38.0730   31.3180   47.6640 N   0  0  0  0  0  0  0  0  0  0  0  0
   37.0850   31.3220   48.5670 C   0  0  0  0  0  0  0  0  0  0  0  0
   37.0470   32.2930   49.5320 N   0  0  0  0  0  0  0  0  0  0  0  0
   37.9070   33.9640   50.3490 H   0  0  0  0  0  0  0  0  0  0  0  0
   39.7950   34.0280   48.6920 H   0  0  0  0  0  0  0  0  0  0  0  0
   39.8600   32.2390   46.9190 H   0  0  0  0  0  0  0  0  0  0  0  0
   32.8730   29.4850   46.6850 C   0  0  0  0  0  0  0  0  0  0  0  0
   32.0270   28.4420   46.3980 C   0  0  0  0  0  0  0  0  0  0  0  0
   31.0070   28.5310   45.4720 C   0  0  0  0  0  0  0  0  0  0  0  0
   30.8140   29.6680   44.8150 N   0  0  0  0  0  0  0  0  0  0  0  0
   31.6330   30.7180   45.0750 C   0  0  0  0  0  0  0  0  0  0  0  0
   32.6110   30.6090   45.9740 N   0  0  0  0  0  0  0  0  0  0  0  0
   32.1800   27.5060   46.9360 H   0  0  0  0  0  0  0  0  0  0  0  0
   30.3520   27.6990   45.2600 H   0  0  0  0  0  0  0  0  0  0  0  0
   31.5760   32.0540   44.4490 C   0  0  0  0  0  0  0  0  0  0  0  0
   31.5030   32.2670   43.0690 C   0  0  0  0  0  0  0  0  0  0  0  0
   31.4800   31.5410   42.2860 H   0  0  0  0  0  0  0  0  0  0  0  0
   31.4680   33.6130   42.8780 N   0  0  0  0  0  0  0  0  0  0  0  0
   31.4130   34.0890   41.9580 H   0  0  0  0  0  0  0  0  0  0  0  0
   31.5150   34.2300   44.0830 C   0  0  0  0  0  0  0  0  0  0  0  0
   31.5060   35.2870   44.3170 H   0  0  0  0  0  0  0  0  0  0  0  0
   31.5800   33.2730   45.0270 N   0  0  0  0  0  0  0  0  0  0  0  0
  2  1  1  0  0  0  0
  3  2  2  0  0  0  0
  4  3  1  0  0  0  0
  5  4  2  0  0  0  0
  5  6  1  0  0  0  0
  6  9  1  0  0  0  0
  6  7  2  0  0  0  0
  7  2  1  0  0  0  0
  7 10  1  0  0  0  0
  8  4  1  0  0  0  0
 11 17  1  0  0  0  0
 12 18  1  0  0  0  0
 12 11  2  0  0  0  0
 13 14  2  0  0  0  0
 13 12  1  0  0  0  0
 14 15  1  0  0  0  0
 15  3  1  0  0  0  0
 15 16  2  0  0  0  0
 16 11  1  0  0  0  0
 19 13  1  0  0  0  0
 20  5  1  0  0  0  0
 21 20  1  0  0  0  0
 21 26  1  0  0  0  0
 22 21  2  0  0  0  0
 23 24  2  0  0  0  0
 23 22  1  0  0  0  0
 24 25  1  0  0  0  0
 25 20  2  0  0  0  0
 27 22  1  0  0  0  0
 28 35  1  0  0  0  0
 28 24  1  0  0  0  0
 29 28  2  0  0  0  0
 30 29  1  0  0  0  0
 31 29  1  0  0  0  0
 31 33  1  0  0  0  0
 32 31  1  0  0  0  0
 33 34  1  0  0  0  0
 33 35  2  0  0  0  0
M  END
>  <minimizedAffinity>
-6.4143014

>  <minimizedRMSD>
0.457304209

$$$$
