
 OpenBabel03272510193D

 35 38  0  0  0  0  0  0  0  0999 V2000
   37.3830   29.1900   50.8390 Br  0  0  0  0  0  0  0  0  0  0  0  0
   35.9830   29.2660   49.5490 C   0  0  0  0  0  0  0  0  0  0  0  0
   35.9800   30.2450   48.5710 C   0  0  0  0  0  0  0  0  0  0  0  0
   34.9430   30.2470   47.6690 C   0  0  0  0  0  0  0  0  0  0  0  0
   33.9110   29.3140   47.7060 C   0  0  0  0  0  0  0  0  0  0  0  0
   33.9420   28.3660   48.6780 C   0  0  0  0  0  0  0  0  0  0  0  0
   34.9790   28.3530   49.5900 C   0  0  0  0  0  0  0  0  0  0  0  0
   34.8840   30.9830   46.8850 H   0  0  0  0  0  0  0  0  0  0  0  0
   33.1660   27.6070   48.7630 H   0  0  0  0  0  0  0  0  0  0  0  0
   34.9870   27.5990   50.3490 H   0  0  0  0  0  0  0  0  0  0  0  0
   37.9920   33.1680   49.4460 C   0  0  0  0  0  0  0  0  0  0  0  0
   39.0090   33.1720   48.4400 C   0  0  0  0  0  0  0  0  0  0  0  0
   38.9790   32.1710   47.4860 C   0  0  0  0  0  0  0  0  0  0  0  0
   37.9860   31.2310   47.5480 N   0  0  0  0  0  0  0  0  0  0  0  0
   37.0410   31.2410   48.4960 C   0  0  0  0  0  0  0  0  0  0  0  0
   37.0450   32.2210   49.4530 N   0  0  0  0  0  0  0  0  0  0  0  0
   37.9400   33.9000   50.2150 H   0  0  0  0  0  0  0  0  0  0  0  0
   39.7490   33.9510   48.4720 H   0  0  0  0  0  0  0  0  0  0  0  0
   39.7350   32.1470   46.7130 H   0  0  0  0  0  0  0  0  0  0  0  0
   32.8100   29.3130   46.7510 C   0  0  0  0  0  0  0  0  0  0  0  0
   32.0520   28.2180   46.4200 C   0  0  0  0  0  0  0  0  0  0  0  0
   31.0170   28.2640   45.5090 C   0  0  0  0  0  0  0  0  0  0  0  0
   30.7190   29.4120   44.9110 N   0  0  0  0  0  0  0  0  0  0  0  0
   31.4490   30.5140   45.2160 C   0  0  0  0  0  0  0  0  0  0  0  0
   32.4450   30.4440   46.1000 N   0  0  0  0  0  0  0  0  0  0  0  0
   32.2900   27.2720   46.9080 H   0  0  0  0  0  0  0  0  0  0  0  0
   30.4310   27.3910   45.2610 H   0  0  0  0  0  0  0  0  0  0  0  0
   31.2710   31.8700   44.6580 C   0  0  0  0  0  0  0  0  0  0  0  0
   30.4810   32.1560   43.5400 C   0  0  0  0  0  0  0  0  0  0  0  0
   29.9100   31.4820   42.9410 H   0  0  0  0  0  0  0  0  0  0  0  0
   30.5630   33.4970   43.3320 N   0  0  0  0  0  0  0  0  0  0  0  0
   30.0840   34.0180   42.5730 H   0  0  0  0  0  0  0  0  0  0  0  0
   31.3690   34.0410   44.2740 C   0  0  0  0  0  0  0  0  0  0  0  0
   31.6620   35.0740   44.4190 H   0  0  0  0  0  0  0  0  0  0  0  0
   31.7920   33.0430   45.0730 N   0  0  0  0  0  0  0  0  0  0  0  0
  2  7  1  0  0  0  0
  2  1  1  0  0  0  0
  3  2  2  0  0  0  0
  4  5  2  0  0  0  0
  4  3  1  0  0  0  0
  5  6  1  0  0  0  0
  6  9  1  0  0  0  0
  6  7  2  0  0  0  0
  7 10  1  0  0  0  0
  8  4  1  0  0  0  0
 11 16  1  0  0  0  0
 11 17  1  0  0  0  0
 12 18  1  0  0  0  0
 12 11  2  0  0  0  0
 13 14  2  0  0  0  0
 13 12  1  0  0  0  0
 14 15  1  0  0  0  0
 15  3  1  0  0  0  0
 15 16  2  0  0  0  0
 19 13  1  0  0  0  0
 20  5  1  0  0  0  0
 21 20  1  0  0  0  0
 21 26  1  0  0  0  0
 22 21  2  0  0  0  0
 23 24  2  0  0  0  0
 23 22  1  0  0  0  0
 24 25  1  0  0  0  0
 25 20  2  0  0  0  0
 27 22  1  0  0  0  0
 28 35  1  0  0  0  0
 28 24  1  0  0  0  0
 29 28  2  0  0  0  0
 30 29  1  0  0  0  0
 31 29  1  0  0  0  0
 31 33  1  0  0  0  0
 32 31  1  0  0  0  0
 33 34  1  0  0  0  0
 33 35  2  0  0  0  0
M  END
>  <minimizedAffinity>
-6.45175266

>  <minimizedRMSD>
0.215198949

$$$$
