
 OpenBabel03272505453D

 24 26  0  0  0  0  0  0  0  0999 V2000
   36.0350   30.2460   48.2950 C   0  0  0  0  0  0  0  0  0  0  0  0
   35.1140   29.1910   47.9150 C   0  0  0  0  0  0  0  0  0  0  0  0
   34.5850   30.5580   48.2030 C   0  0  0  0  0  0  0  0  0  0  0  0
   34.8730   28.3500   48.5860 H   0  0  0  0  0  0  0  0  0  0  0  0
   35.0950   28.8860   46.8400 H   0  0  0  0  0  0  0  0  0  0  0  0
   33.9240   30.6140   49.0840 H   0  0  0  0  0  0  0  0  0  0  0  0
   34.2730   31.2210   47.3530 H   0  0  0  0  0  0  0  0  0  0  0  0
   38.7330   32.3380   46.8450 C   0  0  0  0  0  0  0  0  0  0  0  0
   38.5890   32.1230   45.4670 C   0  0  0  0  0  0  0  0  0  0  0  0
   37.5660   31.2600   45.0450 C   0  0  0  0  0  0  0  0  0  0  0  0
   36.7810   30.6890   45.9990 N   0  0  0  0  0  0  0  0  0  0  0  0
   36.9490   30.9190   47.3230 C   0  0  0  0  0  0  0  0  0  0  0  0
   37.9200   31.7400   47.7510 N   0  0  0  0  0  0  0  0  0  0  0  0
   39.5450   33.0190   47.1460 H   0  0  0  0  0  0  0  0  0  0  0  0
   39.1820   32.5510   44.6960 H   0  0  0  0  0  0  0  0  0  0  0  0
   37.3190   30.9870   44.0270 H   0  0  0  0  0  0  0  0  0  0  0  0
   36.6900   30.0980   49.6260 C   0  0  0  0  0  0  0  0  0  0  0  0
   37.1050   30.9870   50.6070 C   0  0  0  0  0  0  0  0  0  0  0  0
   36.9590   32.0550   50.4610 H   0  0  0  0  0  0  0  0  0  0  0  0
   37.6450   30.2520   51.6060 N   0  0  0  0  0  0  0  0  0  0  0  0
   38.0340   30.6940   52.4690 H   0  0  0  0  0  0  0  0  0  0  0  0
   37.5780   28.9310   51.2780 C   0  0  0  0  0  0  0  0  0  0  0  0
   37.9340   28.1040   51.8880 H   0  0  0  0  0  0  0  0  0  0  0  0
   36.9920   28.8450   50.0640 N   0  0  0  0  0  0  0  0  0  0  0  0
  1 17  1  0  0  0  0
  2  3  1  0  0  0  0
  2  1  1  0  0  0  0
  2  4  1  0  0  0  0
  3  1  1  0  0  0  0
  3  6  1  0  0  0  0
  5  2  1  0  0  0  0
  7  3  1  0  0  0  0
  8 14  1  0  0  0  0
  8 13  1  0  0  0  0
  9  8  2  0  0  0  0
 10  9  1  0  0  0  0
 10 11  2  0  0  0  0
 11 12  1  0  0  0  0
 12 13  2  0  0  0  0
 12  1  1  0  0  0  0
 15  9  1  0  0  0  0
 16 10  1  0  0  0  0
 17 24  1  0  0  0  0
 17 18  2  0  0  0  0
 18 20  1  0  0  0  0
 19 18  1  0  0  0  0
 20 21  1  0  0  0  0
 22 20  1  0  0  0  0
 22 23  1  0  0  0  0
 24 22  2  0  0  0  0
M  END
>  <minimizedAffinity>
-4.27682734

>  <minimizedRMSD>
2.87739706

$$$$
