
 OpenBabel03272509393D

 29 31  0  0  1  0  0  0  0  0999 V2000
   38.1200   24.7590   34.2510 C   0  0  0  0  0  0  0  0  0  0  0  0
   37.5290   25.8620   33.5880 C   0  0  0  0  0  0  0  0  0  0  0  0
   37.3890   27.1030   34.1930 C   0  0  0  0  0  0  0  0  0  0  0  0
   37.8420   27.2740   35.4910 C   0  0  0  0  0  0  0  0  0  0  0  0
   38.4080   26.1840   36.1030 C   0  0  0  0  0  0  0  0  0  0  0  0
   38.5580   24.9340   35.5220 C   0  0  0  0  0  0  0  0  0  0  0  0
   37.1820   25.7200   32.5760 H   0  0  0  0  0  0  0  0  0  0  0  0
   36.9280   27.8710   33.6020 H   0  0  0  0  0  0  0  0  0  0  0  0
   37.7000   28.2580   35.8890 H   0  0  0  0  0  0  0  0  0  0  0  0
   38.7140   26.4750   37.1210 H   0  0  0  0  0  0  0  0  0  0  0  0
   39.1640   23.9390   36.3770 C   0  0  0  0  0  0  0  0  0  0  0  0
   38.6090   23.5060   37.5630 C   0  0  0  0  0  0  0  0  0  0  0  0
   37.6550   23.7960   38.0530 H   0  0  0  0  0  0  0  0  0  0  0  0
   39.3040   22.6070   38.2440 N   0  0  0  0  0  0  0  0  0  0  0  0
   39.1590   22.1050   39.1400 H   0  0  0  0  0  0  0  0  0  0  0  0
   40.3860   22.4110   37.4920 C   0  0  0  0  0  0  0  0  0  0  0  0
   41.2710   21.7920   37.5670 H   0  0  0  0  0  0  0  0  0  0  0  0
   40.2460   23.1950   36.4490 N   0  0  0  0  0  0  0  0  0  0  0  0
   38.2390   23.5260   33.4970 C   0  0  1  0  0  3  0  0  0  0  0  0
   39.4140   23.3180   33.0020 O   0  0  0  0  0  1  0  0  0  0  0  0
   35.5390   21.8480   31.7540 C   0  0  0  0  0  0  0  0  0  0  0  0
   35.1840   20.8040   32.5860 C   0  0  0  0  0  0  0  0  0  0  0  0
   35.8730   20.6870   33.7700 C   0  0  0  0  0  0  0  0  0  0  0  0
   36.8780   21.5660   34.1220 N   0  0  0  0  0  0  0  0  0  0  0  0
   37.1820   22.5600   33.2750 C   0  0  0  0  0  0  0  0  0  0  0  0
   36.5130   22.6740   32.1290 N   0  0  0  0  0  0  0  0  0  0  0  0
   34.9960   21.9340   30.8340 H   0  0  0  0  0  0  0  0  0  0  0  0
   34.4210   20.0610   32.4190 H   0  0  0  0  0  0  0  0  0  0  0  0
   35.7420   19.9340   34.5560 H   0  0  0  0  0  0  0  0  0  0  0  0
  1  6  1  0  0  0  0
  2  3  1  0  0  0  0
  2  1  2  0  0  0  0
  3  4  2  0  0  0  0
  4  9  1  0  0  0  0
  4  5  1  0  0  0  0
  5 10  1  0  0  0  0
  6  5  2  0  0  0  0
  6 11  1  0  0  0  0
  7  2  1  0  0  0  0
  8  3  1  0  0  0  0
 11 18  1  0  0  0  0
 11 12  2  0  0  0  0
 12 13  1  0  0  0  0
 12 14  1  0  0  0  0
 14 15  1  0  0  0  0
 16 17  1  0  0  0  0
 16 14  1  0  0  0  0
 18 16  2  0  0  0  0
 19 20  1  1  0  0  0
 19  1  1  0  0  0  0
 21 26  2  0  0  0  0
 21 22  1  0  0  0  0
 22 23  2  0  0  0  0
 23 24  1  0  0  0  0
 23 29  1  0  0  0  0
 25 19  1  0  0  0  0
 25 24  2  0  0  0  0
 26 25  1  0  0  0  0
 27 21  1  0  0  0  0
 28 22  1  0  0  0  0
M  END
>  <minimizedAffinity>
-5.44991255

$$$$

 OpenBabel03272509393D

 29 31  0  0  1  0  0  0  0  0999 V2000
   36.8880   21.6300   33.2830 C   0  0  0  0  0  0  0  0  0  0  0  0
   36.3760   20.3650   33.6650 C   0  0  0  0  0  0  0  0  0  0  0  0
   35.2960   19.7780   33.0220 C   0  0  0  0  0  0  0  0  0  0  0  0
   34.6920   20.4470   31.9700 C   0  0  0  0  0  0  0  0  0  0  0  0
   35.2130   21.6710   31.6280 C   0  0  0  0  0  0  0  0  0  0  0  0
   36.2900   22.2800   32.2540 C   0  0  0  0  0  0  0  0  0  0  0  0
   36.8540   19.8510   34.4840 H   0  0  0  0  0  0  0  0  0  0  0  0
   34.9880   18.8180   33.3900 H   0  0  0  0  0  0  0  0  0  0  0  0
   33.8670   19.9320   31.5250 H   0  0  0  0  0  0  0  0  0  0  0  0
   34.6320   22.0740   30.7840 H   0  0  0  0  0  0  0  0  0  0  0  0
   36.6390   23.5800   31.7280 C   0  0  0  0  0  0  0  0  0  0  0  0
   37.4800   23.7720   30.6520 C   0  0  0  0  0  0  0  0  0  0  0  0
   38.0020   23.0280   30.0120 H   0  0  0  0  0  0  0  0  0  0  0  0
   37.7210   25.0290   30.3100 N   0  0  0  0  0  0  0  0  0  0  0  0
   38.2900   25.4840   29.5720 H   0  0  0  0  0  0  0  0  0  0  0  0
   37.0130   25.7350   31.1900 C   0  0  0  0  0  0  0  0  0  0  0  0
   36.8450   26.7890   31.3720 H   0  0  0  0  0  0  0  0  0  0  0  0
   36.4230   24.8550   31.9660 N   0  0  0  0  0  0  0  0  0  0  0  0
   38.0420   22.1190   34.0110 C   0  0  2  0  0  3  0  0  0  0  0  0
   39.1700   21.6390   33.6020 O   0  0  0  0  0  1  0  0  0  0  0  0
   37.7180   23.2770   37.4320 C   0  0  0  0  0  0  0  0  0  0  0  0
   37.9850   24.6310   37.3670 C   0  0  0  0  0  0  0  0  0  0  0  0
   38.2650   25.1540   36.1260 C   0  0  0  0  0  0  0  0  0  0  0  0
   38.2820   24.3710   34.9890 N   0  0  0  0  0  0  0  0  0  0  0  0
   38.0170   23.0620   35.1110 C   0  0  0  0  0  0  0  0  0  0  0  0
   37.7450   22.5560   36.3130 N   0  0  0  0  0  0  0  0  0  0  0  0
   37.5000   22.8770   38.4020 H   0  0  0  0  0  0  0  0  0  0  0  0
   38.0000   25.3370   38.1810 H   0  0  0  0  0  0  0  0  0  0  0  0
   38.5000   26.1930   35.8690 H   0  0  0  0  0  0  0  0  0  0  0  0
  1  2  1  0  0  0  0
  1 19  1  0  0  0  0
  2  7  1  0  0  0  0
  3  8  1  0  0  0  0
  3  2  2  0  0  0  0
  4  3  1  0  0  0  0
  5  4  2  0  0  0  0
  5  6  1  0  0  0  0
  6  1  2  0  0  0  0
  9  4  1  0  0  0  0
 10  5  1  0  0  0  0
 11 18  1  0  0  0  0
 11  6  1  0  0  0  0
 12 11  2  0  0  0  0
 13 12  1  0  0  0  0
 14 12  1  0  0  0  0
 14 16  1  0  0  0  0
 15 14  1  0  0  0  0
 16 17  1  0  0  0  0
 16 18  2  0  0  0  0
 19 20  1  1  0  0  0
 19 25  1  0  0  0  0
 21 27  1  0  0  0  0
 22 21  1  0  0  0  0
 22 28  1  0  0  0  0
 23 22  2  0  0  0  0
 24 25  2  0  0  0  0
 24 23  1  0  0  0  0
 25 26  1  0  0  0  0
 26 21  2  0  0  0  0
 29 23  1  0  0  0  0
M  END
>  <minimizedAffinity>
-5.0532937

$$$$

 OpenBabel03272509393D

 29 31  0  0  1  0  0  0  0  0999 V2000
   39.4520   26.3320   34.5140 C   0  0  0  0  0  0  0  0  0  0  0  0
   40.4630   27.1300   33.9240 C   0  0  0  0  0  0  0  0  0  0  0  0
   41.8030   26.7740   33.9600 C   0  0  0  0  0  0  0  0  0  0  0  0
   42.1710   25.5980   34.5930 C   0  0  0  0  0  0  0  0  0  0  0  0
   41.1660   24.8510   35.1550 C   0  0  0  0  0  0  0  0  0  0  0  0
   39.8200   25.1840   35.1340 C   0  0  0  0  0  0  0  0  0  0  0  0
   40.1660   28.0430   33.4310 H   0  0  0  0  0  0  0  0  0  0  0  0
   42.4870   27.4490   33.4830 H   0  0  0  0  0  0  0  0  0  0  0  0
   43.2210   25.3910   34.5790 H   0  0  0  0  0  0  0  0  0  0  0  0
   41.6120   23.9560   35.6170 H   0  0  0  0  0  0  0  0  0  0  0  0
   38.9540   24.2480   35.8140 C   0  0  0  0  0  0  0  0  0  0  0  0
   38.9010   22.9010   35.5220 C   0  0  0  0  0  0  0  0  0  0  0  0
   39.4760   22.3080   34.7790 H   0  0  0  0  0  0  0  0  0  0  0  0
   38.0340   22.1820   36.2190 N   0  0  0  0  0  0  0  0  0  0  0  0
   37.7660   21.1800   36.2320 H   0  0  0  0  0  0  0  0  0  0  0  0
   37.4650   23.0750   37.0280 C   0  0  0  0  0  0  0  0  0  0  0  0
   36.7020   23.0380   37.7960 H   0  0  0  0  0  0  0  0  0  0  0  0
   38.0300   24.2250   36.7490 N   0  0  0  0  0  0  0  0  0  0  0  0
   38.0850   26.7980   34.3780 C   0  0  1  0  0  3  0  0  0  0  0  0
   37.6490   27.4670   35.3940 O   0  0  0  0  0  1  0  0  0  0  0  0
   36.2880   24.9290   31.8430 C   0  0  0  0  0  0  0  0  0  0  0  0
   35.5750   25.8860   31.1460 C   0  0  0  0  0  0  0  0  0  0  0  0
   35.7280   27.1930   31.5460 C   0  0  0  0  0  0  0  0  0  0  0  0
   36.5540   27.5460   32.5950 N   0  0  0  0  0  0  0  0  0  0  0  0
   37.2210   26.5760   33.2370 C   0  0  0  0  0  0  0  0  0  0  0  0
   37.0730   25.3100   32.8490 N   0  0  0  0  0  0  0  0  0  0  0  0
   36.1650   23.9140   31.5250 H   0  0  0  0  0  0  0  0  0  0  0  0
   34.9060   25.7310   30.3160 H   0  0  0  0  0  0  0  0  0  0  0  0
   35.2540   28.0870   31.1250 H   0  0  0  0  0  0  0  0  0  0  0  0
  1  6  1  0  0  0  0
  2  3  1  0  0  0  0
  2  1  2  0  0  0  0
  3  4  2  0  0  0  0
  4  5  1  0  0  0  0
  5 10  1  0  0  0  0
  6  5  2  0  0  0  0
  6 11  1  0  0  0  0
  7  2  1  0  0  0  0
  8  3  1  0  0  0  0
  9  4  1  0  0  0  0
 11 18  1  0  0  0  0
 12 11  2  0  0  0  0
 12 14  1  0  0  0  0
 13 12  1  0  0  0  0
 14 15  1  0  0  0  0
 14 16  1  0  0  0  0
 16 17  1  0  0  0  0
 18 16  2  0  0  0  0
 19  1  1  0  0  0  0
 19 20  1  6  0  0  0
 21 26  1  0  0  0  0
 22 23  1  0  0  0  0
 22 21  2  0  0  0  0
 23 24  2  0  0  0  0
 24 25  1  0  0  0  0
 25 19  1  0  0  0  0
 26 25  2  0  0  0  0
 27 21  1  0  0  0  0
 28 22  1  0  0  0  0
 29 23  1  0  0  0  0
M  END
>  <minimizedAffinity>
-4.98027849

$$$$

 OpenBabel03272509393D

 29 31  0  0  1  0  0  0  0  0999 V2000
   37.2960   23.2540   32.7140 C   0  0  0  0  0  0  0  0  0  0  0  0
   36.3210   23.1070   31.6980 C   0  0  0  0  0  0  0  0  0  0  0  0
   35.4680   22.0140   31.6410 C   0  0  0  0  0  0  0  0  0  0  0  0
   35.5710   21.0280   32.6090 C   0  0  0  0  0  0  0  0  0  0  0  0
   36.5280   21.2030   33.5780 C   0  0  0  0  0  0  0  0  0  0  0  0
   37.3920   22.2840   33.6570 C   0  0  0  0  0  0  0  0  0  0  0  0
   36.2470   23.8810   30.9490 H   0  0  0  0  0  0  0  0  0  0  0  0
   34.7660   22.0000   30.8300 H   0  0  0  0  0  0  0  0  0  0  0  0
   34.8810   20.2180   32.4990 H   0  0  0  0  0  0  0  0  0  0  0  0
   36.4870   20.3450   34.2670 H   0  0  0  0  0  0  0  0  0  0  0  0
   38.3290   22.2310   34.7570 C   0  0  0  0  0  0  0  0  0  0  0  0
   37.9760   22.4280   36.0750 C   0  0  0  0  0  0  0  0  0  0  0  0
   36.9800   22.6320   36.5250 H   0  0  0  0  0  0  0  0  0  0  0  0
   38.9580   22.3730   36.9610 N   0  0  0  0  0  0  0  0  0  0  0  0
   39.0120   22.4760   37.9920 H   0  0  0  0  0  0  0  0  0  0  0  0
   40.0370   22.1270   36.2190 C   0  0  0  0  0  0  0  0  0  0  0  0
   41.0910   21.9860   36.4210 H   0  0  0  0  0  0  0  0  0  0  0  0
   39.6130   22.0580   34.9790 N   0  0  0  0  0  0  0  0  0  0  0  0
   38.1020   24.4590   32.6820 C   0  0  1  0  0  3  0  0  0  0  0  0
   38.8810   24.5490   31.6550 O   0  0  0  0  0  1  0  0  0  0  0  0
   39.3990   26.6630   35.2520 C   0  0  0  0  0  0  0  0  0  0  0  0
   38.3470   27.5090   35.5480 C   0  0  0  0  0  0  0  0  0  0  0  0
   37.1720   27.3070   34.8640 C   0  0  0  0  0  0  0  0  0  0  0  0
   37.0360   26.3070   33.9210 N   0  0  0  0  0  0  0  0  0  0  0  0
   38.0910   25.5160   33.6720 C   0  0  0  0  0  0  0  0  0  0  0  0
   39.2290   25.7120   34.3360 N   0  0  0  0  0  0  0  0  0  0  0  0
   40.3120   26.8260   35.7900 H   0  0  0  0  0  0  0  0  0  0  0  0
   38.3360   28.3190   36.2590 H   0  0  0  0  0  0  0  0  0  0  0  0
   36.2340   27.8650   34.9550 H   0  0  0  0  0  0  0  0  0  0  0  0
  1  6  1  0  0  0  0
  2  1  2  0  0  0  0
  3  2  1  0  0  0  0
  3  4  2  0  0  0  0
  4  5  1  0  0  0  0
  5  6  2  0  0  0  0
  5 10  1  0  0  0  0
  6 11  1  0  0  0  0
  7  2  1  0  0  0  0
  8  3  1  0  0  0  0
  9  4  1  0  0  0  0
 11 18  1  0  0  0  0
 11 12  2  0  0  0  0
 12 13  1  0  0  0  0
 12 14  1  0  0  0  0
 14 15  1  0  0  0  0
 16 17  1  0  0  0  0
 16 14  1  0  0  0  0
 18 16  2  0  0  0  0
 19 20  1  6  0  0  0
 19  1  1  0  0  0  0
 19 25  1  0  0  0  0
 21 22  1  0  0  0  0
 21 27  1  0  0  0  0
 22 28  1  0  0  0  0
 23 29  1  0  0  0  0
 23 22  2  0  0  0  0
 24 23  1  0  0  0  0
 25 24  2  0  0  0  0
 25 26  1  0  0  0  0
 26 21  2  0  0  0  0
M  END
>  <minimizedAffinity>
-4.95513296

$$$$

 OpenBabel03272509393D

 29 31  0  0  1  0  0  0  0  0999 V2000
   39.7410   26.8670   33.9910 C   0  0  0  0  0  0  0  0  0  0  0  0
   41.1100   26.9780   34.3390 C   0  0  0  0  0  0  0  0  0  0  0  0
   42.0890   27.2920   33.4060 C   0  0  0  0  0  0  0  0  0  0  0  0
   41.7200   27.5050   32.0880 C   0  0  0  0  0  0  0  0  0  0  0  0
   40.3860   27.3880   31.7870 C   0  0  0  0  0  0  0  0  0  0  0  0
   39.3890   27.0750   32.6980 C   0  0  0  0  0  0  0  0  0  0  0  0
   41.3870   26.8130   35.3690 H   0  0  0  0  0  0  0  0  0  0  0  0
   43.0940   27.3510   33.7760 H   0  0  0  0  0  0  0  0  0  0  0  0
   42.5290   27.7420   31.4300 H   0  0  0  0  0  0  0  0  0  0  0  0
   40.2530   27.5830   30.7110 H   0  0  0  0  0  0  0  0  0  0  0  0
   38.0610   26.9860   32.1340 C   0  0  0  0  0  0  0  0  0  0  0  0
   37.6900   26.0560   31.1870 C   0  0  0  0  0  0  0  0  0  0  0  0
   38.2810   25.2410   30.7160 H   0  0  0  0  0  0  0  0  0  0  0  0
   36.4410   26.1250   30.7520 N   0  0  0  0  0  0  0  0  0  0  0  0
   35.8800   25.5860   30.0660 H   0  0  0  0  0  0  0  0  0  0  0  0
   35.9280   27.1500   31.4310 C   0  0  0  0  0  0  0  0  0  0  0  0
   34.9630   27.6390   31.4710 H   0  0  0  0  0  0  0  0  0  0  0  0
   36.8970   27.5940   32.1970 N   0  0  0  0  0  0  0  0  0  0  0  0
   38.8130   26.5680   35.0630 C   0  0  1  0  0  3  0  0  0  0  0  0
   38.2920   27.6120   35.6210 O   0  0  0  0  0  1  0  0  0  0  0  0
   37.7130   24.0140   37.3900 C   0  0  0  0  0  0  0  0  0  0  0  0
   37.6420   22.8610   36.6320 C   0  0  0  0  0  0  0  0  0  0  0  0
   37.9930   22.9620   35.3060 C   0  0  0  0  0  0  0  0  0  0  0  0
   38.3980   24.1580   34.7460 N   0  0  0  0  0  0  0  0  0  0  0  0
   38.4470   25.2460   35.5280 C   0  0  0  0  0  0  0  0  0  0  0  0
   38.1090   25.1470   36.8120 N   0  0  0  0  0  0  0  0  0  0  0  0
   37.4400   23.9270   38.4220 H   0  0  0  0  0  0  0  0  0  0  0  0
   37.3420   21.8780   36.9570 H   0  0  0  0  0  0  0  0  0  0  0  0
   38.0030   22.1710   34.5480 H   0  0  0  0  0  0  0  0  0  0  0  0
  1  2  1  0  0  0  0
  1 19  1  0  0  0  0
  2  7  1  0  0  0  0
  3  8  1  0  0  0  0
  3  2  2  0  0  0  0
  4  3  1  0  0  0  0
  5  4  2  0  0  0  0
  5  6  1  0  0  0  0
  6  1  2  0  0  0  0
  9  4  1  0  0  0  0
 10  5  1  0  0  0  0
 11 18  1  0  0  0  0
 11  6  1  0  0  0  0
 12 11  2  0  0  0  0
 13 12  1  0  0  0  0
 14 12  1  0  0  0  0
 14 16  1  0  0  0  0
 15 14  1  0  0  0  0
 16 17  1  0  0  0  0
 16 18  2  0  0  0  0
 19 25  1  0  0  0  0
 19 20  1  6  0  0  0
 21 27  1  0  0  0  0
 22 28  1  0  0  0  0
 22 21  2  0  0  0  0
 23 22  1  0  0  0  0
 24 23  2  0  0  0  0
 24 25  1  0  0  0  0
 25 26  2  0  0  0  0
 26 21  1  0  0  0  0
 29 23  1  0  0  0  0
M  END
>  <minimizedAffinity>
-4.89510584

$$$$

 OpenBabel03272509393D

 29 31  0  0  1  0  0  0  0  0999 V2000
   37.0010   27.9310   32.7220 C   0  0  0  0  0  0  0  0  0  0  0  0
   36.2760   28.3610   33.8600 C   0  0  0  0  0  0  0  0  0  0  0  0
   35.6060   29.5760   33.8970 C   0  0  0  0  0  0  0  0  0  0  0  0
   35.6450   30.4000   32.7850 C   0  0  0  0  0  0  0  0  0  0  0  0
   36.3580   29.9530   31.7010 C   0  0  0  0  0  0  0  0  0  0  0  0
   37.0370   28.7450   31.6390 C   0  0  0  0  0  0  0  0  0  0  0  0
   36.2490   27.7100   34.7210 H   0  0  0  0  0  0  0  0  0  0  0  0
   35.0870   29.8050   34.8080 H   0  0  0  0  0  0  0  0  0  0  0  0
   35.1050   31.3190   32.8890 H   0  0  0  0  0  0  0  0  0  0  0  0
   36.2970   30.7120   30.9050 H   0  0  0  0  0  0  0  0  0  0  0  0
   37.7350   28.5070   30.3960 C   0  0  0  0  0  0  0  0  0  0  0  0
   37.1910   28.7490   29.1520 C   0  0  0  0  0  0  0  0  0  0  0  0
   36.1960   29.1600   28.8750 H   0  0  0  0  0  0  0  0  0  0  0  0
   37.9510   28.4520   28.1090 N   0  0  0  0  0  0  0  0  0  0  0  0
   37.8310   28.5170   27.0810 H   0  0  0  0  0  0  0  0  0  0  0  0
   39.0710   27.9840   28.6600 C   0  0  0  0  0  0  0  0  0  0  0  0
   40.0120   27.6040   28.2830 H   0  0  0  0  0  0  0  0  0  0  0  0
   38.8840   28.0410   29.9580 N   0  0  0  0  0  0  0  0  0  0  0  0
   37.6280   26.6260   32.7980 C   0  0  1  0  0  3  0  0  0  0  0  0
   38.8320   26.6420   33.2670 O   0  0  0  0  0  1  0  0  0  0  0  0
   35.3010   24.3940   31.1400 C   0  0  0  0  0  0  0  0  0  0  0  0
   35.7470   23.1260   31.4610 C   0  0  0  0  0  0  0  0  0  0  0  0
   36.8550   23.0400   32.2710 C   0  0  0  0  0  0  0  0  0  0  0  0
   37.5020   24.1630   32.7490 N   0  0  0  0  0  0  0  0  0  0  0  0
   37.0260   25.3690   32.4040 C   0  0  0  0  0  0  0  0  0  0  0  0
   35.9520   25.4510   31.6210 N   0  0  0  0  0  0  0  0  0  0  0  0
   34.4370   24.4530   30.5100 H   0  0  0  0  0  0  0  0  0  0  0  0
   35.3270   22.1830   31.1500 H   0  0  0  0  0  0  0  0  0  0  0  0
   37.3570   22.1360   32.6340 H   0  0  0  0  0  0  0  0  0  0  0  0
  1 19  1  0  0  0  0
  1  2  1  0  0  0  0
  2  3  2  0  0  0  0
  2  7  1  0  0  0  0
  3  8  1  0  0  0  0
  4  9  1  0  0  0  0
  4  3  1  0  0  0  0
  5  4  2  0  0  0  0
  6  5  1  0  0  0  0
  6  1  2  0  0  0  0
 10  5  1  0  0  0  0
 11  6  1  0  0  0  0
 12 11  2  0  0  0  0
 13 12  1  0  0  0  0
 14 16  1  0  0  0  0
 14 12  1  0  0  0  0
 15 14  1  0  0  0  0
 16 18  2  0  0  0  0
 17 16  1  0  0  0  0
 18 11  1  0  0  0  0
 19 20  1  1  0  0  0
 21 22  2  0  0  0  0
 21 26  1  0  0  0  0
 22 23  1  0  0  0  0
 23 29  1  0  0  0  0
 23 24  2  0  0  0  0
 25 24  1  0  0  0  0
 25 19  1  0  0  0  0
 26 25  2  0  0  0  0
 27 21  1  0  0  0  0
 28 22  1  0  0  0  0
M  END
>  <minimizedAffinity>
-4.85101128

$$$$

 OpenBabel03272509393D

 29 31  0  0  1  0  0  0  0  0999 V2000
   37.6020   23.3230   33.3240 C   0  0  0  0  0  0  0  0  0  0  0  0
   36.8040   22.5660   32.4310 C   0  0  0  0  0  0  0  0  0  0  0  0
   35.9860   23.1630   31.4810 C   0  0  0  0  0  0  0  0  0  0  0  0
   35.9440   24.5450   31.4010 C   0  0  0  0  0  0  0  0  0  0  0  0
   36.7290   25.2450   32.2830 C   0  0  0  0  0  0  0  0  0  0  0  0
   37.5530   24.6750   33.2400 C   0  0  0  0  0  0  0  0  0  0  0  0
   36.8460   21.4900   32.5000 H   0  0  0  0  0  0  0  0  0  0  0  0
   35.4240   22.4980   30.8540 H   0  0  0  0  0  0  0  0  0  0  0  0
   35.2910   24.9290   30.6450 H   0  0  0  0  0  0  0  0  0  0  0  0
   36.5870   26.3220   32.0960 H   0  0  0  0  0  0  0  0  0  0  0  0
   38.2640   25.6230   34.0680 C   0  0  0  0  0  0  0  0  0  0  0  0
   39.5670   26.0140   33.8410 C   0  0  0  0  0  0  0  0  0  0  0  0
   40.2710   25.7190   33.0330 H   0  0  0  0  0  0  0  0  0  0  0  0
   40.0840   26.8710   34.7080 N   0  0  0  0  0  0  0  0  0  0  0  0
   41.0050   27.3370   34.8070 H   0  0  0  0  0  0  0  0  0  0  0  0
   39.0910   27.0800   35.5720 C   0  0  0  0  0  0  0  0  0  0  0  0
   38.9640   27.6810   36.4640 H   0  0  0  0  0  0  0  0  0  0  0  0
   38.0890   26.3440   35.1530 N   0  0  0  0  0  0  0  0  0  0  0  0
   38.4390   22.5800   34.2460 C   0  0  1  0  0  3  0  0  0  0  0  0
   39.1560   21.6610   33.6890 O   0  0  0  0  0  1  0  0  0  0  0  0
   39.9960   22.8990   37.5050 C   0  0  0  0  0  0  0  0  0  0  0  0
   38.9560   23.2210   38.3570 C   0  0  0  0  0  0  0  0  0  0  0  0
   37.7020   23.3150   37.8030 C   0  0  0  0  0  0  0  0  0  0  0  0
   37.4770   23.1000   36.4570 N   0  0  0  0  0  0  0  0  0  0  0  0
   38.5230   22.7910   35.6770 C   0  0  0  0  0  0  0  0  0  0  0  0
   39.7380   22.6980   36.2140 N   0  0  0  0  0  0  0  0  0  0  0  0
   40.9710   22.8260   37.9440 H   0  0  0  0  0  0  0  0  0  0  0  0
   39.0100   23.4100   39.4160 H   0  0  0  0  0  0  0  0  0  0  0  0
   36.7580   23.5580   38.3050 H   0  0  0  0  0  0  0  0  0  0  0  0
  1 19  1  0  0  0  0
  2  7  1  0  0  0  0
  2  1  2  0  0  0  0
  3  2  1  0  0  0  0
  4  3  2  0  0  0  0
  4  5  1  0  0  0  0
  5  6  2  0  0  0  0
  6  1  1  0  0  0  0
  6 11  1  0  0  0  0
  8  3  1  0  0  0  0
  9  4  1  0  0  0  0
 10  5  1  0  0  0  0
 11 18  1  0  0  0  0
 12 11  2  0  0  0  0
 12 14  1  0  0  0  0
 13 12  1  0  0  0  0
 14 15  1  0  0  0  0
 14 16  1  0  0  0  0
 16 17  1  0  0  0  0
 18 16  2  0  0  0  0
 19 20  1  6  0  0  0
 19 25  1  0  0  0  0
 21 27  1  0  0  0  0
 21 22  1  0  0  0  0
 22 28  1  0  0  0  0
 23 29  1  0  0  0  0
 23 22  2  0  0  0  0
 24 23  1  0  0  0  0
 25 26  1  0  0  0  0
 25 24  2  0  0  0  0
 26 21  2  0  0  0  0
M  END
>  <minimizedAffinity>
-4.82255602

$$$$

 OpenBabel03272509393D

 29 31  0  0  1  0  0  0  0  0999 V2000
   34.9250   30.6290   34.7690 C   0  0  0  0  0  0  0  0  0  0  0  0
   35.8590   31.5630   35.2800 C   0  0  0  0  0  0  0  0  0  0  0  0
   35.5870   32.3510   36.3900 C   0  0  0  0  0  0  0  0  0  0  0  0
   34.3620   32.2240   37.0230 C   0  0  0  0  0  0  0  0  0  0  0  0
   33.4810   31.3100   36.5000 C   0  0  0  0  0  0  0  0  0  0  0  0
   33.7270   30.5120   35.3930 C   0  0  0  0  0  0  0  0  0  0  0  0
   36.8120   31.6540   34.7810 H   0  0  0  0  0  0  0  0  0  0  0  0
   36.3640   33.0270   36.6940 H   0  0  0  0  0  0  0  0  0  0  0  0
   34.2270   32.8640   37.8700 H   0  0  0  0  0  0  0  0  0  0  0  0
   32.5620   31.3260   37.1060 H   0  0  0  0  0  0  0  0  0  0  0  0
   32.6340   29.6430   35.0200 C   0  0  0  0  0  0  0  0  0  0  0  0
   32.0120   28.7740   35.8930 C   0  0  0  0  0  0  0  0  0  0  0  0
   32.1970   28.5940   36.9740 H   0  0  0  0  0  0  0  0  0  0  0  0
   31.0440   28.0250   35.3870 N   0  0  0  0  0  0  0  0  0  0  0  0
   30.4090   27.3020   35.7730 H   0  0  0  0  0  0  0  0  0  0  0  0
   30.9960   28.3960   34.1080 C   0  0  0  0  0  0  0  0  0  0  0  0
   30.4000   28.1140   33.2490 H   0  0  0  0  0  0  0  0  0  0  0  0
   31.9220   29.3150   33.9650 N   0  0  0  0  0  0  0  0  0  0  0  0
   35.3420   29.8410   33.6260 C   0  0  1  0  0  3  0  0  0  0  0  0
   35.0710   30.3800   32.4830 O   0  0  0  0  0  1  0  0  0  0  0  0
   36.6650   26.6970   32.3970 C   0  0  0  0  0  0  0  0  0  0  0  0
   37.2880   26.1300   33.4930 C   0  0  0  0  0  0  0  0  0  0  0  0
   37.2380   26.8340   34.6730 C   0  0  0  0  0  0  0  0  0  0  0  0
   36.5970   28.0540   34.7720 N   0  0  0  0  0  0  0  0  0  0  0  0
   36.0110   28.5570   33.6760 C   0  0  0  0  0  0  0  0  0  0  0  0
   36.0580   27.8740   32.5330 N   0  0  0  0  0  0  0  0  0  0  0  0
   36.7070   26.1410   31.4820 H   0  0  0  0  0  0  0  0  0  0  0  0
   37.8140   25.1910   33.5360 H   0  0  0  0  0  0  0  0  0  0  0  0
   37.6660   26.5570   35.6430 H   0  0  0  0  0  0  0  0  0  0  0  0
  1  2  2  0  0  0  0
  1  6  1  0  0  0  0
  2  3  1  0  0  0  0
  3  8  1  0  0  0  0
  3  4  2  0  0  0  0
  4  9  1  0  0  0  0
  5  4  1  0  0  0  0
  5 10  1  0  0  0  0
  6  5  2  0  0  0  0
  7  2  1  0  0  0  0
 11  6  1  0  0  0  0
 11 12  2  0  0  0  0
 12 13  1  0  0  0  0
 14 15  1  0  0  0  0
 14 12  1  0  0  0  0
 16 14  1  0  0  0  0
 17 16  1  0  0  0  0
 18 16  2  0  0  0  0
 18 11  1  0  0  0  0
 19 20  1  1  0  0  0
 19 25  1  0  0  0  0
 19  1  1  0  0  0  0
 21 26  2  0  0  0  0
 21 22  1  0  0  0  0
 22 28  1  0  0  0  0
 22 23  2  0  0  0  0
 23 24  1  0  0  0  0
 23 29  1  0  0  0  0
 25 24  2  0  0  0  0
 26 25  1  0  0  0  0
 27 21  1  0  0  0  0
M  END
>  <minimizedAffinity>
-4.82145929

$$$$

 OpenBabel03272509393D

 29 31  0  0  1  0  0  0  0  0999 V2000
   38.1290   24.1600   34.1220 C   0  0  0  0  0  0  0  0  0  0  0  0
   37.7260   23.9180   32.7850 C   0  0  0  0  0  0  0  0  0  0  0  0
   37.2650   22.6790   32.3630 C   0  0  0  0  0  0  0  0  0  0  0  0
   37.1940   21.6400   33.2760 C   0  0  0  0  0  0  0  0  0  0  0  0
   37.5940   21.9100   34.5620 C   0  0  0  0  0  0  0  0  0  0  0  0
   38.0590   23.1370   35.0080 C   0  0  0  0  0  0  0  0  0  0  0  0
   37.7830   24.7350   32.0820 H   0  0  0  0  0  0  0  0  0  0  0  0
   36.9850   22.6030   31.3300 H   0  0  0  0  0  0  0  0  0  0  0  0
   36.8280   20.7170   32.8770 H   0  0  0  0  0  0  0  0  0  0  0  0
   37.4810   20.9930   35.1620 H   0  0  0  0  0  0  0  0  0  0  0  0
   38.4420   23.1670   36.4020 C   0  0  0  0  0  0  0  0  0  0  0  0
   39.5790   22.5660   36.8980 C   0  0  0  0  0  0  0  0  0  0  0  0
   40.3760   21.9980   36.3710 H   0  0  0  0  0  0  0  0  0  0  0  0
   39.7730   22.6620   38.2050 N   0  0  0  0  0  0  0  0  0  0  0  0
   40.5080   22.3280   38.8560 H   0  0  0  0  0  0  0  0  0  0  0  0
   38.7220   23.3630   38.6270 C   0  0  0  0  0  0  0  0  0  0  0  0
   38.3780   23.7280   39.5870 H   0  0  0  0  0  0  0  0  0  0  0  0
   38.0060   23.6180   37.5580 N   0  0  0  0  0  0  0  0  0  0  0  0
   38.5600   25.5070   34.4440 C   0  0  1  0  0  3  0  0  0  0  0  0
   37.6430   26.2420   34.9810 O   0  0  0  0  0  1  0  0  0  0  0  0
   42.1650   25.7880   34.7050 C   0  0  0  0  0  0  0  0  0  0  0  0
   42.4900   26.8550   33.8890 C   0  0  0  0  0  0  0  0  0  0  0  0
   41.4520   27.4940   33.2530 C   0  0  0  0  0  0  0  0  0  0  0  0
   40.1390   27.0970   33.4140 N   0  0  0  0  0  0  0  0  0  0  0  0
   39.8820   26.0540   34.2170 C   0  0  0  0  0  0  0  0  0  0  0  0
   40.8870   25.4370   34.8340 N   0  0  0  0  0  0  0  0  0  0  0  0
   42.9790   25.2960   35.1990 H   0  0  0  0  0  0  0  0  0  0  0  0
   43.4720   27.2530   33.6880 H   0  0  0  0  0  0  0  0  0  0  0  0
   41.5030   28.3510   32.5720 H   0  0  0  0  0  0  0  0  0  0  0  0
  1 19  1  0  0  0  0
  1  6  1  0  0  0  0
  2  1  2  0  0  0  0
  3  2  1  0  0  0  0
  3  4  2  0  0  0  0
  4  5  1  0  0  0  0
  5  6  2  0  0  0  0
  5 10  1  0  0  0  0
  6 11  1  0  0  0  0
  7  2  1  0  0  0  0
  8  3  1  0  0  0  0
  9  4  1  0  0  0  0
 11 12  2  0  0  0  0
 11 18  1  0  0  0  0
 12 14  1  0  0  0  0
 13 12  1  0  0  0  0
 14 16  1  0  0  0  0
 14 15  1  0  0  0  0
 16 17  1  0  0  0  0
 18 16  2  0  0  0  0
 19 20  1  1  0  0  0
 21 26  1  0  0  0  0
 21 27  1  0  0  0  0
 22 21  2  0  0  0  0
 23 24  2  0  0  0  0
 23 22  1  0  0  0  0
 24 25  1  0  0  0  0
 25 19  1  0  0  0  0
 25 26  2  0  0  0  0
 28 22  1  0  0  0  0
 29 23  1  0  0  0  0
M  END
>  <minimizedAffinity>
-4.7828846

$$$$
