
 OpenBabel03272506593D

 27 29  0  0  0  0  0  0  0  0999 V2000
   38.4380   25.4340   35.4210 C   0  0  0  0  0  0  0  0  0  0  0  0
   38.4450   26.7210   35.9400 C   0  0  0  0  0  0  0  0  0  0  0  0
   37.8450   27.8200   35.3760 C   0  0  0  0  0  0  0  0  0  0  0  0
   37.1930   27.6030   34.2050 N   0  0  0  0  0  0  0  0  0  0  0  0
   37.1690   26.3500   33.6710 C   0  0  0  0  0  0  0  0  0  0  0  0
   37.7740   25.3040   34.2640 N   0  0  0  0  0  0  0  0  0  0  0  0
   38.9620   26.9000   36.8730 H   0  0  0  0  0  0  0  0  0  0  0  0
   37.8740   28.7940   35.8080 H   0  0  0  0  0  0  0  0  0  0  0  0
   40.8070   22.7690   36.0540 C   0  0  0  0  0  0  0  0  0  0  0  0
   40.4680   22.2670   37.3220 C   0  0  0  0  0  0  0  0  0  0  0  0
   39.3830   22.8910   37.9490 C   0  0  0  0  0  0  0  0  0  0  0  0
   38.7520   23.9000   37.3180 N   0  0  0  0  0  0  0  0  0  0  0  0
   39.1150   24.3390   36.1120 C   0  0  0  0  0  0  0  0  0  0  0  0
   40.1630   23.7930   35.4180 N   0  0  0  0  0  0  0  0  0  0  0  0
   41.6390   22.3400   35.4970 H   0  0  0  0  0  0  0  0  0  0  0  0
   39.1200   22.5150   38.9110 H   0  0  0  0  0  0  0  0  0  0  0  0
   41.2100   21.1980   37.8830 N   0  0  0  0  0  0  0  0  0  0  0  0
   41.6900   20.5530   37.2130 H   0  0  0  0  0  0  0  0  0  0  0  0
   41.2600   21.0830   38.9200 H   0  0  0  0  0  0  0  0  0  0  0  0
   36.5010   25.9980   32.4210 C   0  0  0  0  0  0  0  0  0  0  0  0
   36.3670   27.0010   31.4800 C   0  0  0  0  0  0  0  0  0  0  0  0
   36.6610   28.0620   31.4460 H   0  0  0  0  0  0  0  0  0  0  0  0
   35.7280   26.5140   30.3820 N   0  0  0  0  0  0  0  0  0  0  0  0
   35.4350   26.9280   29.4700 H   0  0  0  0  0  0  0  0  0  0  0  0
   35.4670   25.2080   30.6500 C   0  0  0  0  0  0  0  0  0  0  0  0
   34.9690   24.4920   30.0090 H   0  0  0  0  0  0  0  0  0  0  0  0
   35.9380   24.8920   31.8910 N   0  0  0  0  0  0  0  0  0  0  0  0
  1  2  1  0  0  0  0
  1 13  1  0  0  0  0
  2  7  1  0  0  0  0
  3  8  1  0  0  0  0
  3  2  2  0  0  0  0
  4  3  1  0  0  0  0
  5  4  2  0  0  0  0
  5  6  1  0  0  0  0
  6  1  2  0  0  0  0
  9 10  1  0  0  0  0
 10 17  1  0  0  0  0
 10 11  2  0  0  0  0
 11 16  1  0  0  0  0
 12 11  1  0  0  0  0
 13 12  2  0  0  0  0
 14  9  2  0  0  0  0
 14 13  1  0  0  0  0
 15  9  1  0  0  0  0
 17 19  1  0  0  0  0
 18 17  1  0  0  0  0
 20  5  1  0  0  0  0
 21 20  2  0  0  0  0
 22 21  1  0  0  0  0
 23 25  1  0  0  0  0
 23 21  1  0  0  0  0
 24 23  1  0  0  0  0
 25 27  2  0  0  0  0
 26 25  1  0  0  0  0
 27 20  1  0  0  0  0
M  END
>  <minimizedAffinity>
-5.33011103

$$$$

 OpenBabel03272506593D

 27 29  0  0  0  0  0  0  0  0999 V2000
   37.7700   24.2940   33.0950 C   0  0  0  0  0  0  0  0  0  0  0  0
   37.8860   23.1000   32.3970 C   0  0  0  0  0  0  0  0  0  0  0  0
   38.2090   21.8800   32.9390 C   0  0  0  0  0  0  0  0  0  0  0  0
   38.4290   21.8650   34.2780 N   0  0  0  0  0  0  0  0  0  0  0  0
   38.3220   23.0220   34.9890 C   0  0  0  0  0  0  0  0  0  0  0  0
   38.0020   24.1950   34.4110 N   0  0  0  0  0  0  0  0  0  0  0  0
   37.7120   23.1050   31.3300 H   0  0  0  0  0  0  0  0  0  0  0  0
   38.2900   20.9840   32.3660 H   0  0  0  0  0  0  0  0  0  0  0  0
   35.8560   26.6770   31.1530 C   0  0  0  0  0  0  0  0  0  0  0  0
   36.6560   27.8300   31.0910 C   0  0  0  0  0  0  0  0  0  0  0  0
   37.8890   27.7470   31.7500 C   0  0  0  0  0  0  0  0  0  0  0  0
   38.2190   26.6050   32.3810 N   0  0  0  0  0  0  0  0  0  0  0  0
   37.4210   25.5360   32.4100 C   0  0  0  0  0  0  0  0  0  0  0  0
   36.1960   25.5210   31.7960 N   0  0  0  0  0  0  0  0  0  0  0  0
   34.8820   26.6580   30.6670 H   0  0  0  0  0  0  0  0  0  0  0  0
   38.5020   28.6180   31.7060 H   0  0  0  0  0  0  0  0  0  0  0  0
   36.1980   28.9750   30.3930 N   0  0  0  0  0  0  0  0  0  0  0  0
   35.5100   28.8150   29.6210 H   0  0  0  0  0  0  0  0  0  0  0  0
   36.5460   29.9240   30.6580 H   0  0  0  0  0  0  0  0  0  0  0  0
   38.5340   23.1270   36.4310 C   0  0  0  0  0  0  0  0  0  0  0  0
   39.6590   22.5100   36.9430 C   0  0  0  0  0  0  0  0  0  0  0  0
   40.4800   21.9250   36.4990 H   0  0  0  0  0  0  0  0  0  0  0  0
   39.7100   22.7000   38.2890 N   0  0  0  0  0  0  0  0  0  0  0  0
   40.3750   22.4080   39.0390 H   0  0  0  0  0  0  0  0  0  0  0  0
   38.6120   23.4360   38.6050 C   0  0  0  0  0  0  0  0  0  0  0  0
   38.3140   23.7840   39.5850 H   0  0  0  0  0  0  0  0  0  0  0  0
   37.8960   23.6980   37.4740 N   0  0  0  0  0  0  0  0  0  0  0  0
  1  6  1  0  0  0  0
  2  3  1  0  0  0  0
  2  1  2  0  0  0  0
  3  4  2  0  0  0  0
  4  5  1  0  0  0  0
  5 20  1  0  0  0  0
  6  5  2  0  0  0  0
  7  2  1  0  0  0  0
  8  3  1  0  0  0  0
  9 14  1  0  0  0  0
 10  9  2  0  0  0  0
 10 11  1  0  0  0  0
 11 12  2  0  0  0  0
 12 13  1  0  0  0  0
 13  1  1  0  0  0  0
 14 13  2  0  0  0  0
 15  9  1  0  0  0  0
 16 11  1  0  0  0  0
 17 19  1  0  0  0  0
 17 10  1  0  0  0  0
 18 17  1  0  0  0  0
 20 21  2  0  0  0  0
 20 27  1  0  0  0  0
 21 23  1  0  0  0  0
 22 21  1  0  0  0  0
 23 25  1  0  0  0  0
 23 24  1  0  0  0  0
 25 26  1  0  0  0  0
 27 25  2  0  0  0  0
M  END
>  <minimizedAffinity>
-5.00256538

$$$$

 OpenBabel03272506593D

 27 29  0  0  0  0  0  0  0  0999 V2000
   36.1830   24.0590   31.8200 C   0  0  0  0  0  0  0  0  0  0  0  0
   35.5100   24.9310   30.9770 C   0  0  0  0  0  0  0  0  0  0  0  0
   35.5540   26.3020   31.0370 C   0  0  0  0  0  0  0  0  0  0  0  0
   36.3320   26.8290   32.0170 N   0  0  0  0  0  0  0  0  0  0  0  0
   37.0050   25.9970   32.8600 C   0  0  0  0  0  0  0  0  0  0  0  0
   36.9290   24.6560   32.7600 N   0  0  0  0  0  0  0  0  0  0  0  0
   34.8880   24.5180   30.1940 H   0  0  0  0  0  0  0  0  0  0  0  0
   35.0190   26.9390   30.3690 H   0  0  0  0  0  0  0  0  0  0  0  0
   36.9500   20.6830   30.7580 C   0  0  0  0  0  0  0  0  0  0  0  0
   35.9300   19.8830   31.3020 C   0  0  0  0  0  0  0  0  0  0  0  0
   34.9640   20.5640   32.0540 C   0  0  0  0  0  0  0  0  0  0  0  0
   35.0690   21.8980   32.2020 N   0  0  0  0  0  0  0  0  0  0  0  0
   36.0590   22.6120   31.6620 C   0  0  0  0  0  0  0  0  0  0  0  0
   37.0510   22.0360   30.9120 N   0  0  0  0  0  0  0  0  0  0  0  0
   37.7410   20.2320   30.1610 H   0  0  0  0  0  0  0  0  0  0  0  0
   34.1870   19.9640   32.4700 H   0  0  0  0  0  0  0  0  0  0  0  0
   35.9280   18.4850   31.0760 N   0  0  0  0  0  0  0  0  0  0  0  0
   36.4050   18.1450   30.2080 H   0  0  0  0  0  0  0  0  0  0  0  0
   35.4640   17.8440   31.7590 H   0  0  0  0  0  0  0  0  0  0  0  0
   37.8700   26.4470   33.9470 C   0  0  0  0  0  0  0  0  0  0  0  0
   37.3000   27.2720   34.8970 C   0  0  0  0  0  0  0  0  0  0  0  0
   36.2940   27.6950   35.0390 H   0  0  0  0  0  0  0  0  0  0  0  0
   38.2320   27.6000   35.8340 N   0  0  0  0  0  0  0  0  0  0  0  0
   38.2180   28.1860   36.6970 H   0  0  0  0  0  0  0  0  0  0  0  0
   39.3770   26.9740   35.4570 C   0  0  0  0  0  0  0  0  0  0  0  0
   40.3360   26.9990   35.9580 H   0  0  0  0  0  0  0  0  0  0  0  0
   39.1580   26.2710   34.3080 N   0  0  0  0  0  0  0  0  0  0  0  0
  1  6  1  0  0  0  0
  2  3  1  0  0  0  0
  2  1  2  0  0  0  0
  3  4  2  0  0  0  0
  4  5  1  0  0  0  0
  5 20  1  0  0  0  0
  6  5  2  0  0  0  0
  7  2  1  0  0  0  0
  8  3  1  0  0  0  0
  9 14  2  0  0  0  0
  9 10  1  0  0  0  0
 10 11  2  0  0  0  0
 11 12  1  0  0  0  0
 11 16  1  0  0  0  0
 13  1  1  0  0  0  0
 13 12  2  0  0  0  0
 14 13  1  0  0  0  0
 15  9  1  0  0  0  0
 17 10  1  0  0  0  0
 17 19  1  0  0  0  0
 18 17  1  0  0  0  0
 20 27  1  0  0  0  0
 20 21  2  0  0  0  0
 21 22  1  0  0  0  0
 21 23  1  0  0  0  0
 23 24  1  0  0  0  0
 25 23  1  0  0  0  0
 25 26  1  0  0  0  0
 27 25  2  0  0  0  0
M  END
>  <minimizedAffinity>
-4.9989171

$$$$

 OpenBabel03272506593D

 27 29  0  0  0  0  0  0  0  0999 V2000
   38.1980   25.8570   34.6940 C   0  0  0  0  0  0  0  0  0  0  0  0
   37.2810   26.7850   35.1650 C   0  0  0  0  0  0  0  0  0  0  0  0
   36.7190   27.8030   34.4340 C   0  0  0  0  0  0  0  0  0  0  0  0
   37.1120   27.8890   33.1370 N   0  0  0  0  0  0  0  0  0  0  0  0
   38.0110   26.9910   32.6470 C   0  0  0  0  0  0  0  0  0  0  0  0
   38.5340   26.0090   33.4050 N   0  0  0  0  0  0  0  0  0  0  0  0
   36.9640   26.7220   36.1970 H   0  0  0  0  0  0  0  0  0  0  0  0
   36.0160   28.4980   34.8350 H   0  0  0  0  0  0  0  0  0  0  0  0
   40.4590   23.3410   35.9870 C   0  0  0  0  0  0  0  0  0  0  0  0
   39.8350   22.8430   37.1440 C   0  0  0  0  0  0  0  0  0  0  0  0
   38.5960   23.4160   37.4570 C   0  0  0  0  0  0  0  0  0  0  0  0
   38.0970   24.3760   36.6560 N   0  0  0  0  0  0  0  0  0  0  0  0
   38.7310   24.8140   35.5660 C   0  0  0  0  0  0  0  0  0  0  0  0
   39.9480   24.3160   35.1780 N   0  0  0  0  0  0  0  0  0  0  0  0
   41.4250   22.9500   35.6730 H   0  0  0  0  0  0  0  0  0  0  0  0
   38.1170   23.0430   38.3330 H   0  0  0  0  0  0  0  0  0  0  0  0
   40.4630   21.8280   37.9070 N   0  0  0  0  0  0  0  0  0  0  0  0
   41.1280   21.1980   37.4010 H   0  0  0  0  0  0  0  0  0  0  0  0
   40.2540   21.7330   38.9260 H   0  0  0  0  0  0  0  0  0  0  0  0
   38.5050   26.9850   31.2720 C   0  0  0  0  0  0  0  0  0  0  0  0
   38.5280   25.7660   30.6230 C   0  0  0  0  0  0  0  0  0  0  0  0
   38.2460   24.7400   30.9100 H   0  0  0  0  0  0  0  0  0  0  0  0
   39.0120   25.9300   29.3620 N   0  0  0  0  0  0  0  0  0  0  0  0
   39.1880   25.2830   28.5620 H   0  0  0  0  0  0  0  0  0  0  0  0
   39.2870   27.2550   29.2370 C   0  0  0  0  0  0  0  0  0  0  0  0
   39.6880   27.7640   28.3700 H   0  0  0  0  0  0  0  0  0  0  0  0
   38.9790   27.8980   30.3990 N   0  0  0  0  0  0  0  0  0  0  0  0
  1  2  1  0  0  0  0
  1 13  1  0  0  0  0
  2  7  1  0  0  0  0
  3  8  1  0  0  0  0
  3  2  2  0  0  0  0
  4  3  1  0  0  0  0
  5  4  2  0  0  0  0
  5  6  1  0  0  0  0
  6  1  2  0  0  0  0
  9 10  1  0  0  0  0
 10 11  2  0  0  0  0
 10 17  1  0  0  0  0
 11 16  1  0  0  0  0
 12 11  1  0  0  0  0
 13 12  2  0  0  0  0
 14 13  1  0  0  0  0
 14  9  2  0  0  0  0
 15  9  1  0  0  0  0
 17 19  1  0  0  0  0
 18 17  1  0  0  0  0
 20  5  1  0  0  0  0
 21 22  1  0  0  0  0
 21 20  2  0  0  0  0
 23 21  1  0  0  0  0
 24 23  1  0  0  0  0
 25 23  1  0  0  0  0
 25 27  2  0  0  0  0
 26 25  1  0  0  0  0
 27 20  1  0  0  0  0
M  END
>  <minimizedAffinity>
-4.84788322

$$$$

 OpenBabel03272506593D

 27 29  0  0  0  0  0  0  0  0999 V2000
   37.7610   25.6550   33.6480 C   0  0  0  0  0  0  0  0  0  0  0  0
   38.4170   24.9360   32.6590 C   0  0  0  0  0  0  0  0  0  0  0  0
   39.1990   23.8240   32.8570 C   0  0  0  0  0  0  0  0  0  0  0  0
   39.3270   23.4110   34.1440 N   0  0  0  0  0  0  0  0  0  0  0  0
   38.6950   24.0980   35.1360 C   0  0  0  0  0  0  0  0  0  0  0  0
   37.9370   25.1840   34.8900 N   0  0  0  0  0  0  0  0  0  0  0  0
   38.3180   25.2600   31.6320 H   0  0  0  0  0  0  0  0  0  0  0  0
   39.6870   23.2990   32.0680 H   0  0  0  0  0  0  0  0  0  0  0  0
   35.7710   27.9660   31.6940 C   0  0  0  0  0  0  0  0  0  0  0  0
   35.4190   28.9940   32.5840 C   0  0  0  0  0  0  0  0  0  0  0  0
   35.9000   28.8540   33.8920 C   0  0  0  0  0  0  0  0  0  0  0  0
   36.6470   27.7780   34.2030 N   0  0  0  0  0  0  0  0  0  0  0  0
   36.9540   26.8270   33.3180 C   0  0  0  0  0  0  0  0  0  0  0  0
   36.5290   26.8760   32.0160 N   0  0  0  0  0  0  0  0  0  0  0  0
   35.4380   27.9980   30.6590 H   0  0  0  0  0  0  0  0  0  0  0  0
   35.6380   29.6310   34.5730 H   0  0  0  0  0  0  0  0  0  0  0  0
   34.6260   30.0790   32.1370 N   0  0  0  0  0  0  0  0  0  0  0  0
   34.6720   30.3100   31.1170 H   0  0  0  0  0  0  0  0  0  0  0  0
   34.0310   30.6080   32.8140 H   0  0  0  0  0  0  0  0  0  0  0  0
   38.7590   23.7470   36.5530 C   0  0  0  0  0  0  0  0  0  0  0  0
   39.6750   22.7790   36.9150 C   0  0  0  0  0  0  0  0  0  0  0  0
   40.4100   22.1750   36.3610 H   0  0  0  0  0  0  0  0  0  0  0  0
   39.6100   22.5700   38.2580 N   0  0  0  0  0  0  0  0  0  0  0  0
   40.1150   21.9420   38.9210 H   0  0  0  0  0  0  0  0  0  0  0  0
   38.6490   23.4120   38.7220 C   0  0  0  0  0  0  0  0  0  0  0  0
   38.3160   23.5300   39.7440 H   0  0  0  0  0  0  0  0  0  0  0  0
   38.1310   24.1310   37.6840 N   0  0  0  0  0  0  0  0  0  0  0  0
  1  6  1  0  0  0  0
  2  3  1  0  0  0  0
  2  1  2  0  0  0  0
  3  4  2  0  0  0  0
  4  5  1  0  0  0  0
  5 20  1  0  0  0  0
  6  5  2  0  0  0  0
  7  2  1  0  0  0  0
  8  3  1  0  0  0  0
  9 14  2  0  0  0  0
  9 10  1  0  0  0  0
 10 11  2  0  0  0  0
 11 12  1  0  0  0  0
 11 16  1  0  0  0  0
 13  1  1  0  0  0  0
 13 12  2  0  0  0  0
 14 13  1  0  0  0  0
 15  9  1  0  0  0  0
 17 10  1  0  0  0  0
 17 19  1  0  0  0  0
 18 17  1  0  0  0  0
 20 21  2  0  0  0  0
 20 27  1  0  0  0  0
 21 23  1  0  0  0  0
 22 21  1  0  0  0  0
 23 25  1  0  0  0  0
 23 24  1  0  0  0  0
 25 26  1  0  0  0  0
 27 25  2  0  0  0  0
M  END
>  <minimizedAffinity>
-4.84593964

$$$$

 OpenBabel03272506593D

 27 29  0  0  0  0  0  0  0  0999 V2000
   37.6750   25.9650   33.7400 C   0  0  0  0  0  0  0  0  0  0  0  0
   38.1540   25.1620   32.7150 C   0  0  0  0  0  0  0  0  0  0  0  0
   38.7740   23.9460   32.8670 C   0  0  0  0  0  0  0  0  0  0  0  0
   38.9210   23.5120   34.1460 N   0  0  0  0  0  0  0  0  0  0  0  0
   38.4610   24.2790   35.1720 C   0  0  0  0  0  0  0  0  0  0  0  0
   37.8570   25.4660   34.9700 N   0  0  0  0  0  0  0  0  0  0  0  0
   38.0390   25.5020   31.6940 H   0  0  0  0  0  0  0  0  0  0  0  0
   39.1290   23.3590   32.0510 H   0  0  0  0  0  0  0  0  0  0  0  0
   35.8630   29.0500   34.2990 C   0  0  0  0  0  0  0  0  0  0  0  0
   35.7900   29.6700   33.0400 C   0  0  0  0  0  0  0  0  0  0  0  0
   36.3960   28.9720   31.9870 C   0  0  0  0  0  0  0  0  0  0  0  0
   36.9890   27.7910   32.2390 N   0  0  0  0  0  0  0  0  0  0  0  0
   37.0300   27.2450   33.4560 C   0  0  0  0  0  0  0  0  0  0  0  0
   36.4670   27.8510   34.5490 N   0  0  0  0  0  0  0  0  0  0  0  0
   35.4180   29.5260   35.1710 H   0  0  0  0  0  0  0  0  0  0  0  0
   36.3440   29.4360   31.0280 H   0  0  0  0  0  0  0  0  0  0  0  0
   35.1360   30.9180   32.9000 N   0  0  0  0  0  0  0  0  0  0  0  0
   34.3890   31.1420   33.5990 H   0  0  0  0  0  0  0  0  0  0  0  0
   35.4040   31.5670   32.1270 H   0  0  0  0  0  0  0  0  0  0  0  0
   38.5620   23.9160   36.5840 C   0  0  0  0  0  0  0  0  0  0  0  0
   39.4230   22.8850   36.9030 C   0  0  0  0  0  0  0  0  0  0  0  0
   40.0900   22.2350   36.3150 H   0  0  0  0  0  0  0  0  0  0  0  0
   39.4020   22.6720   38.2470 N   0  0  0  0  0  0  0  0  0  0  0  0
   39.8910   22.0060   38.8840 H   0  0  0  0  0  0  0  0  0  0  0  0
   38.5220   23.5750   38.7540 C   0  0  0  0  0  0  0  0  0  0  0  0
   38.2420   23.7090   39.7910 H   0  0  0  0  0  0  0  0  0  0  0  0
   38.0100   24.3340   37.7420 N   0  0  0  0  0  0  0  0  0  0  0  0
  1  6  1  0  0  0  0
  2  3  1  0  0  0  0
  2  1  2  0  0  0  0
  3  4  2  0  0  0  0
  4  5  1  0  0  0  0
  5 20  1  0  0  0  0
  6  5  2  0  0  0  0
  7  2  1  0  0  0  0
  8  3  1  0  0  0  0
  9 14  1  0  0  0  0
  9 15  1  0  0  0  0
 10  9  2  0  0  0  0
 11 12  2  0  0  0  0
 11 10  1  0  0  0  0
 12 13  1  0  0  0  0
 13  1  1  0  0  0  0
 13 14  2  0  0  0  0
 16 11  1  0  0  0  0
 17 10  1  0  0  0  0
 17 18  1  0  0  0  0
 19 17  1  0  0  0  0
 20 21  2  0  0  0  0
 20 27  1  0  0  0  0
 21 23  1  0  0  0  0
 22 21  1  0  0  0  0
 23 25  1  0  0  0  0
 23 24  1  0  0  0  0
 25 26  1  0  0  0  0
 27 25  2  0  0  0  0
M  END
>  <minimizedAffinity>
-4.82982302

$$$$

 OpenBabel03272506593D

 27 29  0  0  0  0  0  0  0  0999 V2000
   38.8240   25.4810   33.4410 C   0  0  0  0  0  0  0  0  0  0  0  0
   39.6930   26.5590   33.3660 C   0  0  0  0  0  0  0  0  0  0  0  0
   40.8210   26.7390   34.1280 C   0  0  0  0  0  0  0  0  0  0  0  0
   41.0890   25.7600   35.0310 N   0  0  0  0  0  0  0  0  0  0  0  0
   40.2530   24.6890   35.1270 C   0  0  0  0  0  0  0  0  0  0  0  0
   39.1570   24.5590   34.3550 N   0  0  0  0  0  0  0  0  0  0  0  0
   39.4850   27.3420   32.6490 H   0  0  0  0  0  0  0  0  0  0  0  0
   41.4640   27.5850   34.0390 H   0  0  0  0  0  0  0  0  0  0  0  0
   36.1600   26.5290   31.2230 C   0  0  0  0  0  0  0  0  0  0  0  0
   35.4460   25.3570   30.9230 C   0  0  0  0  0  0  0  0  0  0  0  0
   35.9270   24.1850   31.5220 C   0  0  0  0  0  0  0  0  0  0  0  0
   37.0070   24.2550   32.3230 N   0  0  0  0  0  0  0  0  0  0  0  0
   37.6490   25.3970   32.5770 C   0  0  0  0  0  0  0  0  0  0  0  0
   37.2550   26.5930   32.0370 N   0  0  0  0  0  0  0  0  0  0  0  0
   35.8520   27.4830   30.7980 H   0  0  0  0  0  0  0  0  0  0  0  0
   35.3900   23.2920   31.3000 H   0  0  0  0  0  0  0  0  0  0  0  0
   34.3210   25.4110   30.0640 N   0  0  0  0  0  0  0  0  0  0  0  0
   33.8080   26.3220   30.0130 H   0  0  0  0  0  0  0  0  0  0  0  0
   34.0370   24.5670   29.5170 H   0  0  0  0  0  0  0  0  0  0  0  0
   40.4390   23.5780   36.0570 C   0  0  0  0  0  0  0  0  0  0  0  0
   39.4210   23.3440   36.9610 C   0  0  0  0  0  0  0  0  0  0  0  0
   38.4480   23.8200   37.1590 H   0  0  0  0  0  0  0  0  0  0  0  0
   39.7470   22.2840   37.7500 N   0  0  0  0  0  0  0  0  0  0  0  0
   39.2710   21.7910   38.5370 H   0  0  0  0  0  0  0  0  0  0  0  0
   40.9700   21.8670   37.3290 C   0  0  0  0  0  0  0  0  0  0  0  0
   41.5550   21.0440   37.7200 H   0  0  0  0  0  0  0  0  0  0  0  0
   41.3930   22.6540   36.2980 N   0  0  0  0  0  0  0  0  0  0  0  0
  1  6  1  0  0  0  0
  2  1  2  0  0  0  0
  2  3  1  0  0  0  0
  3  4  2  0  0  0  0
  4  5  1  0  0  0  0
  5 20  1  0  0  0  0
  6  5  2  0  0  0  0
  7  2  1  0  0  0  0
  8  3  1  0  0  0  0
  9 14  1  0  0  0  0
 10  9  2  0  0  0  0
 10 11  1  0  0  0  0
 11 12  2  0  0  0  0
 12 13  1  0  0  0  0
 13  1  1  0  0  0  0
 14 13  2  0  0  0  0
 15  9  1  0  0  0  0
 16 11  1  0  0  0  0
 17 10  1  0  0  0  0
 18 17  1  0  0  0  0
 19 17  1  0  0  0  0
 20 27  1  0  0  0  0
 20 21  2  0  0  0  0
 21 22  1  0  0  0  0
 21 23  1  0  0  0  0
 23 24  1  0  0  0  0
 25 26  1  0  0  0  0
 25 23  1  0  0  0  0
 27 25  2  0  0  0  0
M  END
>  <minimizedAffinity>
-4.82767916

$$$$

 OpenBabel03272506593D

 27 29  0  0  0  0  0  0  0  0999 V2000
   36.0530   29.0350   32.6620 C   0  0  0  0  0  0  0  0  0  0  0  0
   36.3960   29.9660   31.6920 C   0  0  0  0  0  0  0  0  0  0  0  0
   36.2540   31.3280   31.7970 C   0  0  0  0  0  0  0  0  0  0  0  0
   35.7290   31.7810   32.9640 N   0  0  0  0  0  0  0  0  0  0  0  0
   35.3830   30.8910   33.9360 C   0  0  0  0  0  0  0  0  0  0  0  0
   35.5420   29.5620   33.7840 N   0  0  0  0  0  0  0  0  0  0  0  0
   36.8140   29.6110   30.7600 H   0  0  0  0  0  0  0  0  0  0  0  0
   36.5300   32.0110   31.0260 H   0  0  0  0  0  0  0  0  0  0  0  0
   37.2720   25.6600   33.1450 C   0  0  0  0  0  0  0  0  0  0  0  0
   36.6860   24.9040   32.1140 C   0  0  0  0  0  0  0  0  0  0  0  0
   35.8490   25.6150   31.2440 C   0  0  0  0  0  0  0  0  0  0  0  0
   35.6660   26.9340   31.4420 N   0  0  0  0  0  0  0  0  0  0  0  0
   36.2480   27.6050   32.4380 C   0  0  0  0  0  0  0  0  0  0  0  0
   37.0820   26.9980   33.3410 N   0  0  0  0  0  0  0  0  0  0  0  0
   37.9350   25.1840   33.8650 H   0  0  0  0  0  0  0  0  0  0  0  0
   35.4020   25.0490   30.4600 H   0  0  0  0  0  0  0  0  0  0  0  0
   36.9560   23.5180   32.0090 N   0  0  0  0  0  0  0  0  0  0  0  0
   37.8640   23.1810   32.4060 H   0  0  0  0  0  0  0  0  0  0  0  0
   36.2650   22.8820   31.5520 H   0  0  0  0  0  0  0  0  0  0  0  0
   34.8120   31.2600   35.2290 C   0  0  0  0  0  0  0  0  0  0  0  0
   35.6710   31.8250   36.1520 C   0  0  0  0  0  0  0  0  0  0  0  0
   36.7420   32.0780   36.1450 H   0  0  0  0  0  0  0  0  0  0  0  0
   34.9880   32.1080   37.2940 N   0  0  0  0  0  0  0  0  0  0  0  0
   35.2530   32.5300   38.2120 H   0  0  0  0  0  0  0  0  0  0  0  0
   33.7070   31.7150   37.0720 C   0  0  0  0  0  0  0  0  0  0  0  0
   32.8710   31.7830   37.7560 H   0  0  0  0  0  0  0  0  0  0  0  0
   33.5980   31.1990   35.8140 N   0  0  0  0  0  0  0  0  0  0  0  0
  1  6  1  0  0  0  0
  2  3  1  0  0  0  0
  2  1  2  0  0  0  0
  3  4  2  0  0  0  0
  4  5  1  0  0  0  0
  5 20  1  0  0  0  0
  6  5  2  0  0  0  0
  7  2  1  0  0  0  0
  8  3  1  0  0  0  0
  9 14  1  0  0  0  0
  9 15  1  0  0  0  0
 10  9  2  0  0  0  0
 11 12  2  0  0  0  0
 11 10  1  0  0  0  0
 12 13  1  0  0  0  0
 13  1  1  0  0  0  0
 13 14  2  0  0  0  0
 16 11  1  0  0  0  0
 17 10  1  0  0  0  0
 17 18  1  0  0  0  0
 19 17  1  0  0  0  0
 20 27  1  0  0  0  0
 20 21  2  0  0  0  0
 21 23  1  0  0  0  0
 22 21  1  0  0  0  0
 23 24  1  0  0  0  0
 25 23  1  0  0  0  0
 25 26  1  0  0  0  0
 27 25  2  0  0  0  0
M  END
>  <minimizedAffinity>
-4.76680279

$$$$

 OpenBabel03272506593D

 27 29  0  0  0  0  0  0  0  0999 V2000
   37.7910   25.2040   33.8120 C   0  0  0  0  0  0  0  0  0  0  0  0
   37.9330   24.6040   32.5690 C   0  0  0  0  0  0  0  0  0  0  0  0
   37.5990   25.1660   31.3610 C   0  0  0  0  0  0  0  0  0  0  0  0
   37.0860   26.4220   31.4130 N   0  0  0  0  0  0  0  0  0  0  0  0
   36.9350   27.0360   32.6200 C   0  0  0  0  0  0  0  0  0  0  0  0
   37.2790   26.4420   33.7780 N   0  0  0  0  0  0  0  0  0  0  0  0
   38.3420   23.6040   32.5210 H   0  0  0  0  0  0  0  0  0  0  0  0
   37.7240   24.6700   30.4260 H   0  0  0  0  0  0  0  0  0  0  0  0
   38.1010   24.4580   37.3420 C   0  0  0  0  0  0  0  0  0  0  0  0
   38.8540   23.2740   37.4050 C   0  0  0  0  0  0  0  0  0  0  0  0
   39.2510   22.7430   36.1710 C   0  0  0  0  0  0  0  0  0  0  0  0
   38.8980   23.3820   35.0390 N   0  0  0  0  0  0  0  0  0  0  0  0
   38.1810   24.5070   35.0350 C   0  0  0  0  0  0  0  0  0  0  0  0
   37.7460   25.1020   36.1910 N   0  0  0  0  0  0  0  0  0  0  0  0
   37.7520   24.9360   38.2560 H   0  0  0  0  0  0  0  0  0  0  0  0
   39.8240   21.8450   36.2100 H   0  0  0  0  0  0  0  0  0  0  0  0
   39.1630   22.6950   38.6600 N   0  0  0  0  0  0  0  0  0  0  0  0
   39.1980   23.3410   39.4830 H   0  0  0  0  0  0  0  0  0  0  0  0
   39.3430   21.6690   38.7350 H   0  0  0  0  0  0  0  0  0  0  0  0
   36.3960   28.3820   32.7990 C   0  0  0  0  0  0  0  0  0  0  0  0
   35.9870   28.7260   34.0720 C   0  0  0  0  0  0  0  0  0  0  0  0
   35.9700   28.1990   35.0390 H   0  0  0  0  0  0  0  0  0  0  0  0
   35.5130   30.0020   34.0700 N   0  0  0  0  0  0  0  0  0  0  0  0
   35.1180   30.6310   34.8030 H   0  0  0  0  0  0  0  0  0  0  0  0
   35.6310   30.4420   32.7900 C   0  0  0  0  0  0  0  0  0  0  0  0
   35.3560   31.4140   32.4010 H   0  0  0  0  0  0  0  0  0  0  0  0
   36.1690   29.4570   32.0140 N   0  0  0  0  0  0  0  0  0  0  0  0
  1 13  1  0  0  0  0
  2  1  2  0  0  0  0
  3  4  2  0  0  0  0
  3  2  1  0  0  0  0
  4  5  1  0  0  0  0
  5 20  1  0  0  0  0
  5  6  2  0  0  0  0
  6  1  1  0  0  0  0
  7  2  1  0  0  0  0
  8  3  1  0  0  0  0
  9 10  1  0  0  0  0
  9 15  1  0  0  0  0
 10 17  1  0  0  0  0
 11 16  1  0  0  0  0
 11 10  2  0  0  0  0
 12 11  1  0  0  0  0
 13 12  2  0  0  0  0
 13 14  1  0  0  0  0
 14  9  2  0  0  0  0
 17 19  1  0  0  0  0
 17 18  1  0  0  0  0
 20 21  2  0  0  0  0
 21 22  1  0  0  0  0
 23 21  1  0  0  0  0
 23 24  1  0  0  0  0
 25 23  1  0  0  0  0
 26 25  1  0  0  0  0
 27 25  2  0  0  0  0
 27 20  1  0  0  0  0
M  END
>  <minimizedAffinity>
-4.76670694

$$$$
