
 OpenBabel03262523223D

 32 34  0  0  1  0  0  0  0  0999 V2000
   39.1230   32.8430   45.4100 C   0  0  0  0  0  0  0  0  0  0  0  0
   39.7980   31.8280   44.7170 C   0  0  0  0  0  0  0  0  0  0  0  0
   39.6830   30.5160   45.1910 C   0  0  0  0  0  0  0  0  0  0  0  0
   38.9230   30.2990   46.3010 N   0  0  0  0  0  0  0  0  0  0  0  0
   38.2860   31.3080   46.9440 C   0  0  0  0  0  0  0  0  0  0  0  0
   38.3830   32.5680   46.5050 N   0  0  0  0  0  0  0  0  0  0  0  0
   37.5000   31.0070   48.1100 N   0  0  0  0  0  0  0  0  0  0  0  0
   37.5990   31.8650   49.2860 C   0  0  0  0  0  0  0  0  0  0  0  0
   37.3860   31.1030   50.5760 C   0  0  0  0  0  0  0  0  0  0  0  0
   37.5950   29.6390   50.3130 C   0  0  0  0  0  0  0  0  0  0  0  0
   36.4280   29.2270   49.4250 C   0  0  0  0  0  0  0  0  0  0  0  0
   36.6230   29.8520   48.0860 C   0  0  1  0  0  0  0  0  0  0  0  0
   39.1570   33.8870   45.1100 H   0  0  0  0  0  0  0  0  0  0  0  0
   40.3780   32.0780   43.8480 H   0  0  0  0  0  0  0  0  0  0  0  0
   40.1910   29.7070   44.6820 H   0  0  0  0  0  0  0  0  0  0  0  0
   36.9780   32.7800   49.2080 H   0  0  0  0  0  0  0  0  0  0  0  0
   38.6690   32.2210   49.3090 H   0  0  0  0  0  0  0  0  0  0  0  0
   38.0410   31.4760   51.3870 H   0  0  0  0  0  0  0  0  0  0  0  0
   36.3210   31.2370   50.8570 H   0  0  0  0  0  0  0  0  0  0  0  0
   37.6800   29.0310   51.2210 H   0  0  0  0  0  0  0  0  0  0  0  0
   38.4950   29.5260   49.6820 H   0  0  0  0  0  0  0  0  0  0  0  0
   35.5250   29.7120   49.8860 H   0  0  0  0  0  0  0  0  0  0  0  0
   36.2430   28.1540   49.4160 H   0  0  0  0  0  0  0  0  0  0  0  0
   37.1950   29.0800   47.4900 H   0  0  0  0  0  0  0  0  0  0  0  0
   35.3720   30.0700   47.3390 C   0  0  0  0  0  0  0  0  0  0  0  0
   34.1370   30.5090   47.8270 C   0  0  0  0  0  0  0  0  0  0  0  0
   34.0350   30.7310   48.8840 H   0  0  0  0  0  0  0  0  0  0  0  0
   33.2620   30.5710   46.8040 N   0  0  0  0  0  0  0  0  0  0  0  0
   32.2930   30.8900   47.0500 H   0  0  0  0  0  0  0  0  0  0  0  0
   33.9190   30.1840   45.7020 C   0  0  0  0  0  0  0  0  0  0  0  0
   33.3570   30.1740   44.7710 H   0  0  0  0  0  0  0  0  0  0  0  0
   35.1890   29.8820   46.0190 N   0  0  0  0  0  0  0  0  0  0  0  0
  1  6  1  0  0  0  0
  2  3  1  0  0  0  0
  2  1  2  0  0  0  0
  3  4  2  0  0  0  0
  4  5  1  0  0  0  0
  5  7  1  0  0  0  0
  6  5  2  0  0  0  0
  7  8  1  0  0  0  0
  8 17  1  0  0  0  0
  8  9  1  0  0  0  0
  9 19  1  0  0  0  0
  9 18  1  0  0  0  0
 10  9  1  0  0  0  0
 10 20  1  0  0  0  0
 11 22  1  0  0  0  0
 11 10  1  0  0  0  0
 12 24  1  6  0  0  0
 12  7  1  0  0  0  0
 12 11  1  0  0  0  0
 13  1  1  0  0  0  0
 14  2  1  0  0  0  0
 15  3  1  0  0  0  0
 16  8  1  0  0  0  0
 21 10  1  0  0  0  0
 23 11  1  0  0  0  0
 25 26  2  0  0  0  0
 25 12  1  0  0  0  0
 26 27  1  0  0  0  0
 28 29  1  0  0  0  0
 28 26  1  0  0  0  0
 30 32  2  0  0  0  0
 30 28  1  0  0  0  0
 31 30  1  0  0  0  0
 32 25  1  0  0  0  0
M  END
>  <minimizedAffinity>
-5.34017277

>  <minimizedRMSD>
2.41059422

$$$$
