
 OpenBabel03272503593D

 23 24  0  0  0  0  0  0  0  0999 V2000
   37.8120   30.3920   46.7870 C   0  0  0  0  0  0  0  0  0  0  0  0
   37.1160   30.1970   45.9140 H   0  0  0  0  0  0  0  0  0  0  0  0
   38.1320   29.3800   47.0740 H   0  0  0  0  0  0  0  0  0  0  0  0
   38.8890   31.2110   46.2230 C   0  0  0  0  0  0  0  0  0  0  0  0
   39.1320   32.5360   46.5580 C   0  0  0  0  0  0  0  0  0  0  0  0
   40.1700   33.2350   45.9590 C   0  0  0  0  0  0  0  0  0  0  0  0
   40.9140   32.5600   45.0470 N   0  0  0  0  0  0  0  0  0  0  0  0
   40.6810   31.2700   44.7180 C   0  0  0  0  0  0  0  0  0  0  0  0
   39.6770   30.6230   45.3100 N   0  0  0  0  0  0  0  0  0  0  0  0
   38.4840   32.9820   47.2940 H   0  0  0  0  0  0  0  0  0  0  0  0
   40.3610   34.2630   46.2160 H   0  0  0  0  0  0  0  0  0  0  0  0
   41.3120   30.7680   43.9740 H   0  0  0  0  0  0  0  0  0  0  0  0
   37.0290   31.0650   47.8560 C   0  0  0  0  0  0  0  0  0  0  0  0
   35.9410   30.8730   47.6250 H   0  0  0  0  0  0  0  0  0  0  0  0
   37.1120   32.1760   47.7730 H   0  0  0  0  0  0  0  0  0  0  0  0
   37.3660   30.5910   49.2210 C   0  0  0  0  0  0  0  0  0  0  0  0
   38.2500   31.0790   50.1630 C   0  0  0  0  0  0  0  0  0  0  0  0
   38.8630   31.9520   50.0050 H   0  0  0  0  0  0  0  0  0  0  0  0
   38.1370   30.2520   51.2050 N   0  0  0  0  0  0  0  0  0  0  0  0
   38.6780   30.3410   52.1000 H   0  0  0  0  0  0  0  0  0  0  0  0
   37.2510   29.2750   51.0000 C   0  0  0  0  0  0  0  0  0  0  0  0
   36.9100   28.4530   51.6010 H   0  0  0  0  0  0  0  0  0  0  0  0
   36.7690   29.4930   49.7490 N   0  0  0  0  0  0  0  0  0  0  0  0
  1  3  1  0  0  0  0
  1 13  1  0  0  0  0
  2  1  1  0  0  0  0
  4  5  1  0  0  0  0
  4  1  1  0  0  0  0
  5 10  1  0  0  0  0
  6 11  1  0  0  0  0
  6  5  2  0  0  0  0
  7  6  1  0  0  0  0
  8  7  2  0  0  0  0
  8  9  1  0  0  0  0
  9  4  2  0  0  0  0
 12  8  1  0  0  0  0
 13 16  1  0  0  0  0
 14 13  1  0  0  0  0
 15 13  1  0  0  0  0
 16 23  1  0  0  0  0
 16 17  2  0  0  0  0
 17 19  1  0  0  0  0
 18 17  1  0  0  0  0
 19 20  1  0  0  0  0
 21 19  1  0  0  0  0
 21 22  1  0  0  0  0
 23 21  2  0  0  0  0
M  END
>  <minimizedAffinity>
-4.45005226

>  <minimizedRMSD>
3.12782168

$$$$
