
 OpenBabel03272507013D

 45 48  0  0  1  0  0  0  0  0999 V2000
   35.1130   30.1820   49.1090 C   0  0  2  0  0  0  0  0  0  0  0  0
   36.0110   30.7160   48.0430 C   0  0  0  0  0  0  0  0  0  0  0  0
   37.3580   30.0370   48.0550 C   0  0  2  0  0  0  0  0  0  0  0  0
   38.0560   30.1950   49.3680 C   0  0  0  0  0  0  0  0  0  0  0  0
   37.1440   29.9560   50.5430 C   0  0  0  0  0  0  0  0  0  0  0  0
   35.8250   29.3330   50.1330 C   0  0  0  0  0  0  0  0  0  0  0  0
   34.6050   30.9750   49.7330 H   0  0  0  0  0  0  0  0  0  0  0  0
   36.0800   31.7930   48.3100 H   0  0  0  0  0  0  0  0  0  0  0  0
   35.6830   30.6780   47.0100 H   0  0  0  0  0  0  0  0  0  0  0  0
   37.1830   28.9590   47.8780 H   0  0  0  0  0  0  0  0  0  0  0  0
   38.9290   29.5220   49.3920 H   0  0  0  0  0  0  0  0  0  0  0  0
   38.4160   31.2550   49.4140 H   0  0  0  0  0  0  0  0  0  0  0  0
   37.6010   29.3590   51.3330 H   0  0  0  0  0  0  0  0  0  0  0  0
   36.8670   30.9330   51.0220 H   0  0  0  0  0  0  0  0  0  0  0  0
   35.1830   29.2160   51.0010 H   0  0  0  0  0  0  0  0  0  0  0  0
   35.9820   28.3420   49.6520 H   0  0  0  0  0  0  0  0  0  0  0  0
   38.1030   30.5630   46.9770 N   0  0  1  0  0  0  0  0  0  0  0  0
   37.3540   30.8320   45.7920 C   0  0  0  0  0  0  0  0  0  0  0  0
   38.4980   31.0280   44.7930 C   0  0  0  0  0  0  0  0  0  0  0  0
   39.4440   31.8280   45.6530 C   0  0  0  0  0  0  0  0  0  0  0  0
   39.1490   31.3770   47.1190 C   0  0  1  0  0  0  0  0  0  0  0  0
   36.7240   29.9590   45.4770 H   0  0  0  0  0  0  0  0  0  0  0  0
   36.7680   31.7680   45.8360 H   0  0  0  0  0  0  0  0  0  0  0  0
   38.9320   30.0350   44.5770 H   0  0  0  0  0  0  0  0  0  0  0  0
   38.1560   31.5770   43.9000 H   0  0  0  0  0  0  0  0  0  0  0  0
   39.1380   32.8860   45.5100 H   0  0  0  0  0  0  0  0  0  0  0  0
   40.5000   31.6730   45.3930 H   0  0  0  0  0  0  0  0  0  0  0  0
   40.0420   30.7660   47.3810 H   0  0  0  0  0  0  0  0  0  0  0  0
   39.2600   32.6330   47.8320 C   0  0  0  0  0  0  0  0  0  0  0  0
   39.8400   33.8320   47.3910 C   0  0  0  0  0  0  0  0  0  0  0  0
   40.3100   33.8980   46.3970 H   0  0  0  0  0  0  0  0  0  0  0  0
   39.6830   34.7130   48.3620 N   0  0  0  0  0  0  0  0  0  0  0  0
   40.0730   35.6840   48.1840 H   0  0  0  0  0  0  0  0  0  0  0  0
   39.0420   34.1740   49.4050 C   0  0  0  0  0  0  0  0  0  0  0  0
   38.8710   34.8240   50.2440 H   0  0  0  0  0  0  0  0  0  0  0  0
   38.7790   32.8960   49.0880 N   0  0  0  0  0  0  0  0  0  0  0  0
   33.9940   29.3870   48.5620 C   0  0  0  0  0  0  0  0  0  0  0  0
   33.6720   29.6510   47.2320 C   0  0  0  0  0  0  0  0  0  0  0  0
   32.6250   28.9110   46.6690 C   0  0  0  0  0  0  0  0  0  0  0  0
   31.9720   27.9730   47.4490 N   0  0  0  0  0  0  0  0  0  0  0  0
   32.3240   27.7520   48.7490 C   0  0  0  0  0  0  0  0  0  0  0  0
   33.3140   28.4540   49.2700 N   0  0  0  0  0  0  0  0  0  0  0  0
   33.9830   30.2940   46.4350 H   0  0  0  0  0  0  0  0  0  0  0  0
   32.1930   28.9220   45.6880 H   0  0  0  0  0  0  0  0  0  0  0  0
   31.7790   27.0040   49.3150 H   0  0  0  0  0  0  0  0  0  0  0  0
  1  7  1  1  0  0  0
  1  6  1  0  0  0  0
  2  3  1  0  0  0  0
  2  8  1  0  0  0  0
  2  1  1  0  0  0  0
  3 10  1  6  0  0  0
  3  4  1  0  0  0  0
  4 11  1  0  0  0  0
  4 12  1  0  0  0  0
  4  5  1  0  0  0  0
  5 14  1  0  0  0  0
  5 13  1  0  0  0  0
  6  5  1  0  0  0  0
  6 15  1  0  0  0  0
  9  2  1  0  0  0  0
 16  6  1  0  0  0  0
 17 18  1  6  0  0  0
 17 21  1  0  0  0  0
 17  3  1  0  0  0  0
 18 23  1  0  0  0  0
 19 20  1  0  0  0  0
 19 18  1  0  0  0  0
 20 21  1  0  0  0  0
 21 28  1  1  0  0  0
 21 29  1  0  0  0  0
 22 18  1  0  0  0  0
 24 19  1  0  0  0  0
 25 19  1  0  0  0  0
 26 20  1  0  0  0  0
 27 20  1  0  0  0  0
 29 36  1  0  0  0  0
 30 29  2  0  0  0  0
 30 32  1  0  0  0  0
 31 30  1  0  0  0  0
 32 34  1  0  0  0  0
 33 32  1  0  0  0  0
 34 35  1  0  0  0  0
 36 34  2  0  0  0  0
 37  1  1  0  0  0  0
 37 42  1  0  0  0  0
 38 37  2  0  0  0  0
 39 38  1  0  0  0  0
 39 40  2  0  0  0  0
 40 41  1  0  0  0  0
 41 42  2  0  0  0  0
 41 45  1  0  0  0  0
 43 38  1  0  0  0  0
 44 39  1  0  0  0  0
M  END
>  <minimizedAffinity>
-5.98234224

>  <minimizedRMSD>
1.47979021

$$$$
