
 OpenBabel03272509443D

 37 39  0  0  1  0  0  0  0  0999 V2000
   36.5340   28.6230   32.3910 C   0  0  0  0  0  0  0  0  0  0  0  0
   35.9880   29.6800   31.6570 C   0  0  0  0  0  0  0  0  0  0  0  0
   35.2690   30.6940   32.2660 C   0  0  0  0  0  0  0  0  0  0  0  0
   35.0770   30.6710   33.6490 C   0  0  0  0  0  0  0  0  0  0  0  0
   35.6180   29.6290   34.3530 C   0  0  0  0  0  0  0  0  0  0  0  0
   36.3320   28.6290   33.7140 C   0  0  0  0  0  0  0  0  0  0  0  0
   36.1470   29.6840   30.5810 H   0  0  0  0  0  0  0  0  0  0  0  0
   34.8950   31.4550   31.6100 H   0  0  0  0  0  0  0  0  0  0  0  0
   34.5070   31.4970   34.0490 H   0  0  0  0  0  0  0  0  0  0  0  0
   35.3850   29.7450   35.4150 H   0  0  0  0  0  0  0  0  0  0  0  0
   37.2580   27.5450   31.7530 C   0  0  2  0  0  0  0  0  0  0  0  0
   37.2070   27.7720   30.6200 H   0  0  0  0  0  0  0  0  0  0  0  0
   36.8990   23.9340   31.9190 C   0  0  0  0  0  0  0  0  0  0  0  0
   35.6240   23.7010   31.4330 C   0  0  0  0  0  0  0  0  0  0  0  0
   34.8920   24.7830   30.9810 C   0  0  0  0  0  0  0  0  0  0  0  0
   35.4480   26.0420   31.0310 N   0  0  0  0  0  0  0  0  0  0  0  0
   36.6650   26.2020   31.5070 C   0  0  0  0  0  0  0  0  0  0  0  0
   37.3990   25.1540   31.9510 N   0  0  0  0  0  0  0  0  0  0  0  0
   37.4970   23.1000   32.2800 H   0  0  0  0  0  0  0  0  0  0  0  0
   35.2800   22.6870   31.4360 H   0  0  0  0  0  0  0  0  0  0  0  0
   33.8990   24.6110   30.5990 H   0  0  0  0  0  0  0  0  0  0  0  0
   38.5330   27.6660   31.8740 O   0  0  0  0  0  0  0  0  0  0  0  0
   38.8040   28.4490   32.3760 H   0  0  0  0  0  0  0  0  0  0  0  0
   36.8220   27.5770   34.5740 C   0  0  0  0  0  3  0  0  0  0  0  0
   37.8610   27.7190   35.4060 C   0  0  0  0  0  3  0  0  0  0  0  0
   38.4250   26.7320   36.3560 C   0  0  0  0  0  0  0  0  0  0  0  0
   37.8750   26.8560   37.3270 H   0  0  0  0  0  0  0  0  0  0  0  0
   39.4900   26.9130   36.6010 H   0  0  0  0  0  0  0  0  0  0  0  0
   38.0960   25.0690   35.7660 S   0  0  0  0  0  0  0  0  0  0  0  0
   39.0090   23.8410   36.7070 C   0  0  0  0  0  0  0  0  0  0  0  0
   38.6130   23.4170   37.9710 C   0  0  0  0  0  0  0  0  0  0  0  0
   37.7410   23.7660   38.5130 H   0  0  0  0  0  0  0  0  0  0  0  0
   39.5230   22.5080   38.3570 N   0  0  0  0  0  0  0  0  0  0  0  0
   39.4700   22.0200   39.2800 H   0  0  0  0  0  0  0  0  0  0  0  0
   40.4640   22.3370   37.4110 C   0  0  0  0  0  0  0  0  0  0  0  0
   41.3210   21.6750   37.4370 H   0  0  0  0  0  0  0  0  0  0  0  0
   40.1380   23.1670   36.3930 N   0  0  0  0  0  0  0  0  0  0  0  0
  1  6  1  0  0  0  0
  2  3  1  0  0  0  0
  2  1  2  0  0  0  0
  3  4  2  0  0  0  0
  4  9  1  0  0  0  0
  4  5  1  0  0  0  0
  5 10  1  0  0  0  0
  6  5  2  0  0  0  0
  6 24  1  0  0  0  0
  7  2  1  0  0  0  0
  8  3  1  0  0  0  0
 11 12  1  6  0  0  0
 11 22  1  0  0  0  0
 11  1  1  0  0  0  0
 13 18  1  0  0  0  0
 13 19  1  0  0  0  0
 14 20  1  0  0  0  0
 14 13  2  0  0  0  0
 15 16  2  0  0  0  0
 15 14  1  0  0  0  0
 16 17  1  0  0  0  0
 17 11  1  0  0  0  0
 17 18  2  0  0  0  0
 21 15  1  0  0  0  0
 22 23  1  0  0  0  0
 24 25  2  0  0  0  0
 25 26  1  0  0  0  0
 26 28  1  0  0  0  0
 26 27  1  0  0  0  0
 29 26  1  0  0  0  0
 29 30  1  0  0  0  0
 30 31  2  0  0  0  0
 31 33  1  0  0  0  0
 31 32  1  0  0  0  0
 33 34  1  0  0  0  0
 35 36  1  0  0  0  0
 35 33  1  0  0  0  0
 37 30  1  0  0  0  0
 37 35  2  0  0  0  0
M  END
>  <minimizedAffinity>
-6.01747847

$$$$

 OpenBabel03272509443D

 37 39  0  0  1  0  0  0  0  0999 V2000
   35.6120   29.9340   33.4770 C   0  0  0  0  0  0  0  0  0  0  0  0
   35.3060   30.5510   32.2610 C   0  0  0  0  0  0  0  0  0  0  0  0
   35.6560   29.9830   31.0480 C   0  0  0  0  0  0  0  0  0  0  0  0
   36.3320   28.7620   31.0270 C   0  0  0  0  0  0  0  0  0  0  0  0
   36.6250   28.1700   32.2270 C   0  0  0  0  0  0  0  0  0  0  0  0
   36.2620   28.7650   33.4230 C   0  0  0  0  0  0  0  0  0  0  0  0
   34.7780   31.5020   32.2950 H   0  0  0  0  0  0  0  0  0  0  0  0
   35.3730   30.5390   30.1770 H   0  0  0  0  0  0  0  0  0  0  0  0
   36.5690   28.3830   30.0430 H   0  0  0  0  0  0  0  0  0  0  0  0
   37.1540   27.2300   32.0510 H   0  0  0  0  0  0  0  0  0  0  0  0
   35.2770   30.5420   34.7460 C   0  0  2  0  0  0  0  0  0  0  0  0
   35.7360   29.8460   35.5480 H   0  0  0  0  0  0  0  0  0  0  0  0
   32.5070   31.2850   36.9770 C   0  0  0  0  0  0  0  0  0  0  0  0
   31.4710   30.5040   36.4970 C   0  0  0  0  0  0  0  0  0  0  0  0
   31.7310   29.6600   35.4330 C   0  0  0  0  0  0  0  0  0  0  0  0
   32.9970   29.6270   34.8920 N   0  0  0  0  0  0  0  0  0  0  0  0
   33.9420   30.3960   35.3900 C   0  0  0  0  0  0  0  0  0  0  0  0
   33.7080   31.2270   36.4340 N   0  0  0  0  0  0  0  0  0  0  0  0
   32.3310   31.9570   37.8140 H   0  0  0  0  0  0  0  0  0  0  0  0
   30.5230   30.6010   36.9840 H   0  0  0  0  0  0  0  0  0  0  0  0
   30.9300   29.0460   35.0540 H   0  0  0  0  0  0  0  0  0  0  0  0
   36.0010   31.5730   35.0080 O   0  0  0  0  0  0  0  0  0  0  0  0
   36.6440   31.7820   34.3150 H   0  0  0  0  0  0  0  0  0  0  0  0
   36.6580   28.0470   34.6120 C   0  0  0  0  0  3  0  0  0  0  0  0
   37.7980   27.3540   34.7170 C   0  0  0  0  0  3  0  0  0  0  0  0
   38.3250   26.6150   35.8890 C   0  0  0  0  0  0  0  0  0  0  0  0
   37.8800   27.0860   36.8050 H   0  0  0  0  0  0  0  0  0  0  0  0
   39.4220   26.7130   36.0160 H   0  0  0  0  0  0  0  0  0  0  0  0
   37.7590   24.9130   35.8350 S   0  0  0  0  0  0  0  0  0  0  0  0
   38.8130   23.8330   36.8090 C   0  0  0  0  0  0  0  0  0  0  0  0
   38.4920   23.4390   38.1030 C   0  0  0  0  0  0  0  0  0  0  0  0
   37.6020   23.7270   38.6520 H   0  0  0  0  0  0  0  0  0  0  0  0
   39.4990   22.6480   38.5080 N   0  0  0  0  0  0  0  0  0  0  0  0
   39.5170   22.2050   39.4550 H   0  0  0  0  0  0  0  0  0  0  0  0
   40.4300   22.5220   37.5450 C   0  0  0  0  0  0  0  0  0  0  0  0
   41.3500   21.9510   37.5790 H   0  0  0  0  0  0  0  0  0  0  0  0
   39.9970   23.2600   36.4970 N   0  0  0  0  0  0  0  0  0  0  0  0
  1 11  1  0  0  0  0
  2  7  1  0  0  0  0
  2  1  2  0  0  0  0
  3  2  1  0  0  0  0
  4  3  2  0  0  0  0
  4  5  1  0  0  0  0
  5  6  2  0  0  0  0
  6  1  1  0  0  0  0
  6 24  1  0  0  0  0
  8  3  1  0  0  0  0
  9  4  1  0  0  0  0
 10  5  1  0  0  0  0
 11 22  1  0  0  0  0
 11 17  1  0  0  0  0
 11 12  1  1  0  0  0
 13 19  1  0  0  0  0
 14 13  1  0  0  0  0
 14 20  1  0  0  0  0
 15 14  2  0  0  0  0
 16 17  2  0  0  0  0
 16 15  1  0  0  0  0
 17 18  1  0  0  0  0
 18 13  2  0  0  0  0
 21 15  1  0  0  0  0
 23 22  1  0  0  0  0
 24 25  2  0  0  0  0
 25 26  1  0  0  0  0
 26 28  1  0  0  0  0
 26 27  1  0  0  0  0
 29 26  1  0  0  0  0
 29 30  1  0  0  0  0
 30 31  2  0  0  0  0
 31 33  1  0  0  0  0
 31 32  1  0  0  0  0
 33 34  1  0  0  0  0
 35 36  1  0  0  0  0
 35 33  1  0  0  0  0
 37 30  1  0  0  0  0
 37 35  2  0  0  0  0
M  END
>  <minimizedAffinity>
-5.57527113

$$$$

 OpenBabel03272509443D

 37 39  0  0  1  0  0  0  0  0999 V2000
   36.4860   28.1490   32.0560 C   0  0  0  0  0  0  0  0  0  0  0  0
   35.4580   29.0940   32.1230 C   0  0  0  0  0  0  0  0  0  0  0  0
   35.0350   29.6240   33.3310 C   0  0  0  0  0  0  0  0  0  0  0  0
   35.6440   29.2110   34.5180 C   0  0  0  0  0  0  0  0  0  0  0  0
   36.6490   28.2860   34.4340 C   0  0  0  0  0  0  0  0  0  0  0  0
   37.0480   27.7740   33.2110 C   0  0  0  0  0  0  0  0  0  0  0  0
   34.9940   29.4050   31.1900 H   0  0  0  0  0  0  0  0  0  0  0  0
   34.2410   30.3410   33.2690 H   0  0  0  0  0  0  0  0  0  0  0  0
   35.2600   29.6710   35.4170 H   0  0  0  0  0  0  0  0  0  0  0  0
   37.0240   28.0610   35.4360 H   0  0  0  0  0  0  0  0  0  0  0  0
   36.9070   27.5690   30.7990 C   0  0  2  0  0  0  0  0  0  0  0  0
   37.6840   26.7610   31.0820 H   0  0  0  0  0  0  0  0  0  0  0  0
   38.1880   29.7310   28.1750 C   0  0  0  0  0  0  0  0  0  0  0  0
   39.5590   29.7100   28.3640 C   0  0  0  0  0  0  0  0  0  0  0  0
   40.0670   28.8990   29.3610 C   0  0  0  0  0  0  0  0  0  0  0  0
   39.2020   28.1480   30.1260 N   0  0  0  0  0  0  0  0  0  0  0  0
   37.9070   28.2120   29.9020 C   0  0  0  0  0  0  0  0  0  0  0  0
   37.3900   28.9980   28.9270 N   0  0  0  0  0  0  0  0  0  0  0  0
   37.7620   30.3590   27.3970 H   0  0  0  0  0  0  0  0  0  0  0  0
   40.1480   30.3290   27.7190 H   0  0  0  0  0  0  0  0  0  0  0  0
   41.1340   28.8750   29.5140 H   0  0  0  0  0  0  0  0  0  0  0  0
   36.0290   26.7680   30.3040 O   0  0  0  0  0  0  0  0  0  0  0  0
   35.2280   26.6880   30.8440 H   0  0  0  0  0  0  0  0  0  0  0  0
   38.0990   26.7840   33.2720 C   0  0  0  0  0  3  0  0  0  0  0  0
   38.8720   26.5860   34.3460 C   0  0  0  0  0  3  0  0  0  0  0  0
   39.9470   25.5830   34.5390 C   0  0  0  0  0  0  0  0  0  0  0  0
   40.5160   25.8800   35.4590 H   0  0  0  0  0  0  0  0  0  0  0  0
   40.6970   25.5780   33.7230 H   0  0  0  0  0  0  0  0  0  0  0  0
   39.2210   23.9720   34.8560 S   0  0  0  0  0  0  0  0  0  0  0  0
   38.9090   23.7210   36.6070 C   0  0  0  0  0  0  0  0  0  0  0  0
   39.6460   22.8300   37.3790 C   0  0  0  0  0  0  0  0  0  0  0  0
   40.4620   22.2080   37.0270 H   0  0  0  0  0  0  0  0  0  0  0  0
   39.1360   22.9080   38.6200 N   0  0  0  0  0  0  0  0  0  0  0  0
   39.5060   22.3380   39.4140 H   0  0  0  0  0  0  0  0  0  0  0  0
   38.1260   23.7950   38.6690 C   0  0  0  0  0  0  0  0  0  0  0  0
   37.5250   24.0710   39.5270 H   0  0  0  0  0  0  0  0  0  0  0  0
   37.9920   24.2920   37.4190 N   0  0  0  0  0  0  0  0  0  0  0  0
  1  2  2  0  0  0  0
  1  6  1  0  0  0  0
  2  3  1  0  0  0  0
  3  4  2  0  0  0  0
  4  9  1  0  0  0  0
  5  4  1  0  0  0  0
  5 10  1  0  0  0  0
  6 24  1  0  0  0  0
  6  5  2  0  0  0  0
  7  2  1  0  0  0  0
  8  3  1  0  0  0  0
 11 12  1  1  0  0  0
 11  1  1  0  0  0  0
 13 14  2  0  0  0  0
 13 18  1  0  0  0  0
 14 15  1  0  0  0  0
 15 21  1  0  0  0  0
 15 16  2  0  0  0  0
 17 16  1  0  0  0  0
 17 11  1  0  0  0  0
 18 17  2  0  0  0  0
 19 13  1  0  0  0  0
 20 14  1  0  0  0  0
 22 11  1  0  0  0  0
 22 23  1  0  0  0  0
 24 25  2  0  0  0  0
 25 26  1  0  0  0  0
 26 29  1  0  0  0  0
 26 27  1  0  0  0  0
 28 26  1  0  0  0  0
 29 30  1  0  0  0  0
 30 31  2  0  0  0  0
 30 37  1  0  0  0  0
 31 33  1  0  0  0  0
 32 31  1  0  0  0  0
 33 35  1  0  0  0  0
 33 34  1  0  0  0  0
 35 36  1  0  0  0  0
 37 35  2  0  0  0  0
M  END
>  <minimizedAffinity>
-5.48818874

$$$$

 OpenBabel03272509443D

 37 39  0  0  1  0  0  0  0  0999 V2000
   35.4180   30.9690   33.3150 C   0  0  0  0  0  0  0  0  0  0  0  0
   35.3790   32.3560   33.4860 C   0  0  0  0  0  0  0  0  0  0  0  0
   35.6880   32.9490   34.6990 C   0  0  0  0  0  0  0  0  0  0  0  0
   36.0500   32.1510   35.7860 C   0  0  0  0  0  0  0  0  0  0  0  0
   36.0830   30.7940   35.6020 C   0  0  0  0  0  0  0  0  0  0  0  0
   35.7670   30.2320   34.3760 C   0  0  0  0  0  0  0  0  0  0  0  0
   35.0960   32.9640   32.6300 H   0  0  0  0  0  0  0  0  0  0  0  0
   35.6270   34.0190   34.7200 H   0  0  0  0  0  0  0  0  0  0  0  0
   36.2770   32.6870   36.6960 H   0  0  0  0  0  0  0  0  0  0  0  0
   36.3780   30.3060   36.5350 H   0  0  0  0  0  0  0  0  0  0  0  0
   35.0630   30.3460   32.0590 C   0  0  2  0  0  0  0  0  0  0  0  0
   35.0200   29.2120   32.2840 H   0  0  0  0  0  0  0  0  0  0  0  0
   37.0740   28.4410   29.7080 C   0  0  0  0  0  0  0  0  0  0  0  0
   37.5750   29.3980   28.8440 C   0  0  0  0  0  0  0  0  0  0  0  0
   37.2770   30.7230   29.0970 C   0  0  0  0  0  0  0  0  0  0  0  0
   36.4990   31.0440   30.1870 N   0  0  0  0  0  0  0  0  0  0  0  0
   36.0480   30.0890   30.9730 C   0  0  0  0  0  0  0  0  0  0  0  0
   36.3320   28.7850   30.7430 N   0  0  0  0  0  0  0  0  0  0  0  0
   37.2930   27.3900   29.5330 H   0  0  0  0  0  0  0  0  0  0  0  0
   38.1690   29.0490   28.0240 H   0  0  0  0  0  0  0  0  0  0  0  0
   37.6650   31.4760   28.4300 H   0  0  0  0  0  0  0  0  0  0  0  0
   33.8180   30.4900   31.7690 O   0  0  0  0  0  0  0  0  0  0  0  0
   33.3210   30.9980   32.4280 H   0  0  0  0  0  0  0  0  0  0  0  0
   35.8160   28.7890   34.3320 C   0  0  0  0  0  3  0  0  0  0  0  0
   36.8910   28.0700   34.6770 C   0  0  0  0  0  3  0  0  0  0  0  0
   37.0440   26.5960   34.7080 C   0  0  0  0  0  0  0  0  0  0  0  0
   37.1890   26.2560   33.6490 H   0  0  0  0  0  0  0  0  0  0  0  0
   36.1380   26.0650   35.0630 H   0  0  0  0  0  0  0  0  0  0  0  0
   38.5310   26.1630   35.6170 S   0  0  0  0  0  0  0  0  0  0  0  0
   38.2730   24.7230   36.6580 C   0  0  0  0  0  0  0  0  0  0  0  0
   38.3800   23.4220   36.1790 C   0  0  0  0  0  0  0  0  0  0  0  0
   38.6220   23.1380   35.1610 H   0  0  0  0  0  0  0  0  0  0  0  0
   38.1250   22.6200   37.2270 N   0  0  0  0  0  0  0  0  0  0  0  0
   38.1380   21.5780   37.1510 H   0  0  0  0  0  0  0  0  0  0  0  0
   37.8650   23.3420   38.3320 C   0  0  0  0  0  0  0  0  0  0  0  0
   37.6250   22.9770   39.3240 H   0  0  0  0  0  0  0  0  0  0  0  0
   37.9590   24.6420   37.9710 N   0  0  0  0  0  0  0  0  0  0  0  0
  1  2  2  0  0  0  0
  1  6  1  0  0  0  0
  2  3  1  0  0  0  0
  3  8  1  0  0  0  0
  3  4  2  0  0  0  0
  4  9  1  0  0  0  0
  5  4  1  0  0  0  0
  5 10  1  0  0  0  0
  6  5  2  0  0  0  0
  7  2  1  0  0  0  0
 11 12  1  1  0  0  0
 11  1  1  0  0  0  0
 13 18  1  0  0  0  0
 14 15  1  0  0  0  0
 14 13  2  0  0  0  0
 15 16  2  0  0  0  0
 16 17  1  0  0  0  0
 17 11  1  0  0  0  0
 18 17  2  0  0  0  0
 19 13  1  0  0  0  0
 20 14  1  0  0  0  0
 21 15  1  0  0  0  0
 22 11  1  0  0  0  0
 22 23  1  0  0  0  0
 24  6  1  0  0  0  0
 24 25  2  0  0  0  0
 25 26  1  0  0  0  0
 26 28  1  0  0  0  0
 26 29  1  0  0  0  0
 27 26  1  0  0  0  0
 29 30  1  0  0  0  0
 30 37  1  0  0  0  0
 31 30  2  0  0  0  0
 31 33  1  0  0  0  0
 32 31  1  0  0  0  0
 33 35  1  0  0  0  0
 34 33  1  0  0  0  0
 35 36  1  0  0  0  0
 37 35  2  0  0  0  0
M  END
>  <minimizedAffinity>
-5.44382954

$$$$

 OpenBabel03272509443D

 37 39  0  0  1  0  0  0  0  0999 V2000
   36.3120   28.4080   32.3150 C   0  0  0  0  0  0  0  0  0  0  0  0
   35.8750   29.5040   31.5660 C   0  0  0  0  0  0  0  0  0  0  0  0
   35.4280   30.6680   32.1700 C   0  0  0  0  0  0  0  0  0  0  0  0
   35.4100   30.7590   33.5630 C   0  0  0  0  0  0  0  0  0  0  0  0
   35.8410   29.6770   34.2820 C   0  0  0  0  0  0  0  0  0  0  0  0
   36.2810   28.5270   33.6480 C   0  0  0  0  0  0  0  0  0  0  0  0
   35.8960   29.4170   30.4820 H   0  0  0  0  0  0  0  0  0  0  0  0
   35.1170   31.4460   31.5020 H   0  0  0  0  0  0  0  0  0  0  0  0
   35.0490   31.6980   33.9580 H   0  0  0  0  0  0  0  0  0  0  0  0
   35.7660   29.8950   35.3510 H   0  0  0  0  0  0  0  0  0  0  0  0
   36.7470   27.1800   31.6870 C   0  0  2  0  0  0  0  0  0  0  0  0
   36.7790   26.3970   32.5380 H   0  0  0  0  0  0  0  0  0  0  0  0
   40.1510   27.7980   30.5770 C   0  0  0  0  0  0  0  0  0  0  0  0
   40.8480   26.6780   30.9950 C   0  0  0  0  0  0  0  0  0  0  0  0
   40.1410   25.6640   31.6110 C   0  0  0  0  0  0  0  0  0  0  0  0
   38.7820   25.8000   31.7890 N   0  0  0  0  0  0  0  0  0  0  0  0
   38.1740   26.8900   31.3730 C   0  0  0  0  0  0  0  0  0  0  0  0
   38.8490   27.8940   30.7630 N   0  0  0  0  0  0  0  0  0  0  0  0
   40.6830   28.6110   30.0880 H   0  0  0  0  0  0  0  0  0  0  0  0
   41.9030   26.6670   30.8130 H   0  0  0  0  0  0  0  0  0  0  0  0
   40.6760   24.7870   31.9380 H   0  0  0  0  0  0  0  0  0  0  0  0
   35.8160   26.6180   30.9990 O   0  0  0  0  0  0  0  0  0  0  0  0
   34.9800   27.1080   31.0040 H   0  0  0  0  0  0  0  0  0  0  0  0
   36.6800   27.4540   34.5290 C   0  0  0  0  0  3  0  0  0  0  0  0
   37.8000   27.4700   35.2610 C   0  0  0  0  0  3  0  0  0  0  0  0
   38.2900   26.4530   36.2220 C   0  0  0  0  0  0  0  0  0  0  0  0
   37.4700   26.2810   36.9680 H   0  0  0  0  0  0  0  0  0  0  0  0
   39.1600   26.7920   36.8190 H   0  0  0  0  0  0  0  0  0  0  0  0
   38.5680   24.8990   35.3670 S   0  0  0  0  0  0  0  0  0  0  0  0
   39.3710   23.6950   36.4290 C   0  0  0  0  0  0  0  0  0  0  0  0
   38.8800   23.3560   37.6860 C   0  0  0  0  0  0  0  0  0  0  0  0
   37.9900   23.7650   38.1510 H   0  0  0  0  0  0  0  0  0  0  0  0
   39.7290   22.4390   38.1790 N   0  0  0  0  0  0  0  0  0  0  0  0
   39.5990   22.0050   39.1210 H   0  0  0  0  0  0  0  0  0  0  0  0
   40.7210   22.1830   37.3060 C   0  0  0  0  0  0  0  0  0  0  0  0
   41.5480   21.4940   37.4230 H   0  0  0  0  0  0  0  0  0  0  0  0
   40.4910   22.9650   36.2270 N   0  0  0  0  0  0  0  0  0  0  0  0
  1  6  1  0  0  0  0
  2  3  1  0  0  0  0
  2  1  2  0  0  0  0
  3  4  2  0  0  0  0
  4  9  1  0  0  0  0
  4  5  1  0  0  0  0
  5 10  1  0  0  0  0
  6  5  2  0  0  0  0
  6 24  1  0  0  0  0
  7  2  1  0  0  0  0
  8  3  1  0  0  0  0
 11  1  1  0  0  0  0
 11 12  1  1  0  0  0
 13 18  2  0  0  0  0
 13 14  1  0  0  0  0
 14 15  2  0  0  0  0
 15 16  1  0  0  0  0
 15 21  1  0  0  0  0
 17 11  1  0  0  0  0
 17 16  2  0  0  0  0
 18 17  1  0  0  0  0
 19 13  1  0  0  0  0
 20 14  1  0  0  0  0
 22 23  1  0  0  0  0
 22 11  1  0  0  0  0
 24 25  2  0  0  0  0
 25 26  1  0  0  0  0
 26 28  1  0  0  0  0
 26 27  1  0  0  0  0
 29 26  1  0  0  0  0
 29 30  1  0  0  0  0
 30 31  2  0  0  0  0
 31 32  1  0  0  0  0
 31 33  1  0  0  0  0
 33 34  1  0  0  0  0
 35 36  1  0  0  0  0
 35 33  1  0  0  0  0
 37 30  1  0  0  0  0
 37 35  2  0  0  0  0
M  END
>  <minimizedAffinity>
-5.23702431

$$$$

 OpenBabel03272509443D

 37 39  0  0  1  0  0  0  0  0999 V2000
   38.2760   26.5050   33.2060 C   0  0  0  0  0  0  0  0  0  0  0  0
   39.4150   26.0310   33.8640 C   0  0  0  0  0  0  0  0  0  0  0  0
   39.7150   26.4070   35.1630 C   0  0  0  0  0  0  0  0  0  0  0  0
   38.8650   27.2830   35.8410 C   0  0  0  0  0  0  0  0  0  0  0  0
   37.7540   27.7380   35.1820 C   0  0  0  0  0  0  0  0  0  0  0  0
   37.4830   27.3430   33.8830 C   0  0  0  0  0  0  0  0  0  0  0  0
   40.0660   25.3490   33.3220 H   0  0  0  0  0  0  0  0  0  0  0  0
   40.6110   25.9850   35.5720 H   0  0  0  0  0  0  0  0  0  0  0  0
   39.1660   27.5280   36.8500 H   0  0  0  0  0  0  0  0  0  0  0  0
   37.1920   28.4120   35.8350 H   0  0  0  0  0  0  0  0  0  0  0  0
   37.9780   26.1380   31.8390 C   0  0  2  0  0  0  0  0  0  0  0  0
   36.9850   26.6760   31.5890 H   0  0  0  0  0  0  0  0  0  0  0  0
   37.8120   22.6370   30.8850 C   0  0  0  0  0  0  0  0  0  0  0  0
   36.4750   22.3120   31.0370 C   0  0  0  0  0  0  0  0  0  0  0  0
   35.6000   23.3140   31.4110 C   0  0  0  0  0  0  0  0  0  0  0  0
   36.0810   24.5870   31.6190 N   0  0  0  0  0  0  0  0  0  0  0  0
   37.3640   24.8360   31.4620 C   0  0  0  0  0  0  0  0  0  0  0  0
   38.2370   23.8680   31.0930 N   0  0  0  0  0  0  0  0  0  0  0  0
   38.5220   21.8680   30.5910 H   0  0  0  0  0  0  0  0  0  0  0  0
   36.1990   21.2940   30.8530 H   0  0  0  0  0  0  0  0  0  0  0  0
   34.5560   23.0700   31.5300 H   0  0  0  0  0  0  0  0  0  0  0  0
   38.7100   26.7680   30.9870 O   0  0  0  0  0  0  0  0  0  0  0  0
   39.3450   27.3760   31.3940 H   0  0  0  0  0  0  0  0  0  0  0  0
   36.2940   27.9210   33.3010 C   0  0  0  0  0  3  0  0  0  0  0  0
   35.6530   28.9780   33.8140 C   0  0  0  0  0  3  0  0  0  0  0  0
   34.4570   29.6770   33.2880 C   0  0  0  0  0  0  0  0  0  0  0  0
   34.0050   29.0150   32.5030 H   0  0  0  0  0  0  0  0  0  0  0  0
   34.6930   30.6260   32.7670 H   0  0  0  0  0  0  0  0  0  0  0  0
   33.2400   29.8600   34.5950 S   0  0  0  0  0  0  0  0  0  0  0  0
   33.7640   31.0600   35.8230 C   0  0  0  0  0  0  0  0  0  0  0  0
   33.0320   31.3210   36.9770 C   0  0  0  0  0  0  0  0  0  0  0  0
   32.0970   30.8480   37.2570 H   0  0  0  0  0  0  0  0  0  0  0  0
   33.7210   32.2610   37.6460 N   0  0  0  0  0  0  0  0  0  0  0  0
   33.3960   32.6480   38.5610 H   0  0  0  0  0  0  0  0  0  0  0  0
   34.8390   32.6030   36.9800 C   0  0  0  0  0  0  0  0  0  0  0  0
   35.5890   33.3290   37.2690 H   0  0  0  0  0  0  0  0  0  0  0  0
   34.8570   31.8550   35.8540 N   0  0  0  0  0  0  0  0  0  0  0  0
  1  2  2  0  0  0  0
  1  6  1  0  0  0  0
  2  3  1  0  0  0  0
  3  8  1  0  0  0  0
  3  4  2  0  0  0  0
  4  9  1  0  0  0  0
  5 10  1  0  0  0  0
  5  4  1  0  0  0  0
  6  5  2  0  0  0  0
  7  2  1  0  0  0  0
 11 12  1  6  0  0  0
 11  1  1  0  0  0  0
 13 14  2  0  0  0  0
 13 18  1  0  0  0  0
 14 15  1  0  0  0  0
 15 21  1  0  0  0  0
 15 16  2  0  0  0  0
 17 16  1  0  0  0  0
 17 11  1  0  0  0  0
 18 17  2  0  0  0  0
 19 13  1  0  0  0  0
 20 14  1  0  0  0  0
 22 23  1  0  0  0  0
 22 11  1  0  0  0  0
 24 25  2  0  0  0  0
 24  6  1  0  0  0  0
 26 25  1  0  0  0  0
 26 29  1  0  0  0  0
 27 26  1  0  0  0  0
 28 26  1  0  0  0  0
 29 30  1  0  0  0  0
 30 37  1  0  0  0  0
 30 31  2  0  0  0  0
 31 32  1  0  0  0  0
 31 33  1  0  0  0  0
 33 34  1  0  0  0  0
 35 36  1  0  0  0  0
 35 33  1  0  0  0  0
 37 35  2  0  0  0  0
M  END
>  <minimizedAffinity>
-5.18512106

$$$$

 OpenBabel03272509443D

 37 39  0  0  1  0  0  0  0  0999 V2000
   33.4370   31.1650   35.5670 C   0  0  0  0  0  0  0  0  0  0  0  0
   33.6060   32.2450   36.4390 C   0  0  0  0  0  0  0  0  0  0  0  0
   34.8620   32.7340   36.7560 C   0  0  0  0  0  0  0  0  0  0  0  0
   35.9960   32.1420   36.1960 C   0  0  0  0  0  0  0  0  0  0  0  0
   35.8130   31.0860   35.3440 C   0  0  0  0  0  0  0  0  0  0  0  0
   34.5440   30.6190   35.0480 C   0  0  0  0  0  0  0  0  0  0  0  0
   32.7140   32.6950   36.8660 H   0  0  0  0  0  0  0  0  0  0  0  0
   34.8780   33.5650   37.4330 H   0  0  0  0  0  0  0  0  0  0  0  0
   36.9380   32.5810   36.4910 H   0  0  0  0  0  0  0  0  0  0  0  0
   36.7850   30.7290   34.9910 H   0  0  0  0  0  0  0  0  0  0  0  0
   32.1290   30.6310   35.2600 C   0  0  2  0  0  0  0  0  0  0  0  0
   31.3820   31.3130   35.8210 H   0  0  0  0  0  0  0  0  0  0  0  0
   30.6750   27.3220   35.6290 C   0  0  0  0  0  0  0  0  0  0  0  0
   30.7500   27.0730   36.9880 C   0  0  0  0  0  0  0  0  0  0  0  0
   31.2460   28.0700   37.8060 C   0  0  0  0  0  0  0  0  0  0  0  0
   31.6460   29.2640   37.2480 N   0  0  0  0  0  0  0  0  0  0  0  0
   31.5540   29.4420   35.9480 C   0  0  0  0  0  0  0  0  0  0  0  0
   31.0680   28.4780   35.1290 N   0  0  0  0  0  0  0  0  0  0  0  0
   30.2880   26.5550   34.9620 H   0  0  0  0  0  0  0  0  0  0  0  0
   30.4150   26.1140   37.3260 H   0  0  0  0  0  0  0  0  0  0  0  0
   31.3060   27.8860   38.8670 H   0  0  0  0  0  0  0  0  0  0  0  0
   31.7400   30.9280   34.0690 O   0  0  0  0  0  0  0  0  0  0  0  0
   32.3840   31.4510   33.5690 H   0  0  0  0  0  0  0  0  0  0  0  0
   34.4990   29.4820   34.1580 C   0  0  0  0  0  3  0  0  0  0  0  0
   35.2690   29.3590   33.0700 C   0  0  0  0  0  3  0  0  0  0  0  0
   35.3390   28.2300   32.1120 C   0  0  0  0  0  0  0  0  0  0  0  0
   35.5050   28.6700   31.0930 H   0  0  0  0  0  0  0  0  0  0  0  0
   34.3920   27.6610   32.0310 H   0  0  0  0  0  0  0  0  0  0  0  0
   36.7630   27.2040   32.4890 S   0  0  0  0  0  0  0  0  0  0  0  0
   36.4690   25.4840   32.0670 C   0  0  0  0  0  0  0  0  0  0  0  0
   35.4600   25.0860   31.1960 C   0  0  0  0  0  0  0  0  0  0  0  0
   34.7620   25.7440   30.6910 H   0  0  0  0  0  0  0  0  0  0  0  0
   35.5420   23.7470   31.1240 N   0  0  0  0  0  0  0  0  0  0  0  0
   34.8950   23.1790   30.5310 H   0  0  0  0  0  0  0  0  0  0  0  0
   36.5410   23.2840   31.8960 C   0  0  0  0  0  0  0  0  0  0  0  0
   36.8470   22.2550   32.0400 H   0  0  0  0  0  0  0  0  0  0  0  0
   37.1090   24.3650   32.4760 N   0  0  0  0  0  0  0  0  0  0  0  0
  1  2  1  0  0  0  0
  2  3  2  0  0  0  0
  2  7  1  0  0  0  0
  3  8  1  0  0  0  0
  4  9  1  0  0  0  0
  4  3  1  0  0  0  0
  5  4  2  0  0  0  0
  6  5  1  0  0  0  0
  6  1  2  0  0  0  0
 10  5  1  0  0  0  0
 11  1  1  0  0  0  0
 11 12  1  1  0  0  0
 11 17  1  0  0  0  0
 13 14  1  0  0  0  0
 14 20  1  0  0  0  0
 14 15  2  0  0  0  0
 15 21  1  0  0  0  0
 16 15  1  0  0  0  0
 17 16  2  0  0  0  0
 18 13  2  0  0  0  0
 18 17  1  0  0  0  0
 19 13  1  0  0  0  0
 22 11  1  0  0  0  0
 23 22  1  0  0  0  0
 24  6  1  0  0  0  0
 25 24  2  0  0  0  0
 26 29  1  0  0  0  0
 26 25  1  0  0  0  0
 27 26  1  0  0  0  0
 28 26  1  0  0  0  0
 30 37  1  0  0  0  0
 30 29  1  0  0  0  0
 31 30  2  0  0  0  0
 32 31  1  0  0  0  0
 33 31  1  0  0  0  0
 33 35  1  0  0  0  0
 34 33  1  0  0  0  0
 35 36  1  0  0  0  0
 35 37  2  0  0  0  0
M  END
>  <minimizedAffinity>
-5.12396669

$$$$

 OpenBabel03272509443D

 37 39  0  0  1  0  0  0  0  0999 V2000
   38.1210   27.1340   34.2750 C   0  0  0  0  0  0  0  0  0  0  0  0
   36.8260   27.5920   34.0120 C   0  0  0  0  0  0  0  0  0  0  0  0
   36.4390   27.9910   32.7430 C   0  0  0  0  0  0  0  0  0  0  0  0
   37.3570   27.9370   31.6920 C   0  0  0  0  0  0  0  0  0  0  0  0
   38.6200   27.4860   31.9670 C   0  0  0  0  0  0  0  0  0  0  0  0
   38.9770   27.0950   33.2470 C   0  0  0  0  0  0  0  0  0  0  0  0
   36.1240   27.6270   34.8400 H   0  0  0  0  0  0  0  0  0  0  0  0
   35.4250   28.3240   32.6520 H   0  0  0  0  0  0  0  0  0  0  0  0
   36.9800   28.2630   30.7340 H   0  0  0  0  0  0  0  0  0  0  0  0
   39.2220   27.5030   31.0530 H   0  0  0  0  0  0  0  0  0  0  0  0
   38.5370   26.7480   35.6050 C   0  0  2  0  0  0  0  0  0  0  0  0
   39.6780   26.5780   35.5300 H   0  0  0  0  0  0  0  0  0  0  0  0
   37.8450   24.1300   38.0280 C   0  0  0  0  0  0  0  0  0  0  0  0
   37.7380   22.9840   37.2600 C   0  0  0  0  0  0  0  0  0  0  0  0
   37.9660   23.0860   35.9010 C   0  0  0  0  0  0  0  0  0  0  0  0
   38.2860   24.3130   35.3610 N   0  0  0  0  0  0  0  0  0  0  0  0
   38.3700   25.3690   36.1410 C   0  0  0  0  0  0  0  0  0  0  0  0
   38.1540   25.2880   37.4760 N   0  0  0  0  0  0  0  0  0  0  0  0
   37.6720   24.0780   39.1000 H   0  0  0  0  0  0  0  0  0  0  0  0
   37.4840   22.0780   37.7720 H   0  0  0  0  0  0  0  0  0  0  0  0
   37.8870   22.1980   35.2950 H   0  0  0  0  0  0  0  0  0  0  0  0
   38.5850   27.7450   36.4180 O   0  0  0  0  0  0  0  0  0  0  0  0
   38.3290   28.5880   36.0140 H   0  0  0  0  0  0  0  0  0  0  0  0
   40.3480   26.6680   33.3990 C   0  0  0  0  0  3  0  0  0  0  0  0
   41.4030   27.4600   33.1750 C   0  0  0  0  0  3  0  0  0  0  0  0
   42.8430   27.1470   33.3340 C   0  0  0  0  0  0  0  0  0  0  0  0
   43.1250   27.4110   34.3870 H   0  0  0  0  0  0  0  0  0  0  0  0
   43.5030   27.7640   32.6930 H   0  0  0  0  0  0  0  0  0  0  0  0
   43.1030   25.3810   33.1400 S   0  0  0  0  0  0  0  0  0  0  0  0
   43.1610   24.5430   34.7270 C   0  0  0  0  0  0  0  0  0  0  0  0
   42.1190   23.7490   35.1950 C   0  0  0  0  0  0  0  0  0  0  0  0
   41.1880   23.5520   34.6750 H   0  0  0  0  0  0  0  0  0  0  0  0
   42.5120   23.2950   36.3970 N   0  0  0  0  0  0  0  0  0  0  0  0
   41.9140   22.6660   36.9800 H   0  0  0  0  0  0  0  0  0  0  0  0
   43.7360   23.7560   36.7090 C   0  0  0  0  0  0  0  0  0  0  0  0
   44.3110   23.5630   37.6060 H   0  0  0  0  0  0  0  0  0  0  0  0
   44.1300   24.5280   35.6700 N   0  0  0  0  0  0  0  0  0  0  0  0
  1 11  1  0  0  0  0
  2  1  1  0  0  0  0
  2  7  1  0  0  0  0
  3  2  2  0  0  0  0
  4  5  2  0  0  0  0
  4  3  1  0  0  0  0
  5  6  1  0  0  0  0
  6 24  1  0  0  0  0
  6  1  2  0  0  0  0
  8  3  1  0  0  0  0
  9  4  1  0  0  0  0
 10  5  1  0  0  0  0
 11 12  1  6  0  0  0
 11 17  1  0  0  0  0
 11 22  1  0  0  0  0
 13 19  1  0  0  0  0
 14 20  1  0  0  0  0
 14 13  2  0  0  0  0
 15 14  1  0  0  0  0
 16 15  2  0  0  0  0
 16 17  1  0  0  0  0
 17 18  2  0  0  0  0
 18 13  1  0  0  0  0
 21 15  1  0  0  0  0
 23 22  1  0  0  0  0
 25 26  1  0  0  0  0
 25 24  2  0  0  0  0
 26 27  1  0  0  0  0
 28 26  1  0  0  0  0
 29 26  1  0  0  0  0
 29 30  1  0  0  0  0
 30 31  2  0  0  0  0
 30 37  1  0  0  0  0
 31 33  1  0  0  0  0
 32 31  1  0  0  0  0
 33 35  1  0  0  0  0
 33 34  1  0  0  0  0
 35 36  1  0  0  0  0
 37 35  2  0  0  0  0
M  END
>  <minimizedAffinity>
-5.12150192

$$$$

 OpenBabel03272509443D

 37 39  0  0  1  0  0  0  0  0999 V2000
   38.1650   26.9600   33.0120 C   0  0  0  0  0  0  0  0  0  0  0  0
   39.4300   26.5110   33.4020 C   0  0  0  0  0  0  0  0  0  0  0  0
   39.8690   26.6170   34.7110 C   0  0  0  0  0  0  0  0  0  0  0  0
   39.0350   27.1850   35.6750 C   0  0  0  0  0  0  0  0  0  0  0  0
   37.7990   27.6200   35.2780 C   0  0  0  0  0  0  0  0  0  0  0  0
   37.3900   27.5000   33.9600 C   0  0  0  0  0  0  0  0  0  0  0  0
   40.0680   26.0710   32.6390 H   0  0  0  0  0  0  0  0  0  0  0  0
   40.8550   26.2410   34.9000 H   0  0  0  0  0  0  0  0  0  0  0  0
   39.4480   27.2310   36.6730 H   0  0  0  0  0  0  0  0  0  0  0  0
   37.2660   28.0400   36.1350 H   0  0  0  0  0  0  0  0  0  0  0  0
   37.7170   26.8810   31.6390 C   0  0  2  0  0  0  0  0  0  0  0  0
   38.4940   26.2110   31.1040 H   0  0  0  0  0  0  0  0  0  0  0  0
   37.0640   29.8510   29.6520 C   0  0  0  0  0  0  0  0  0  0  0  0
   38.2930   30.1580   29.0950 C   0  0  0  0  0  0  0  0  0  0  0  0
   39.3530   29.3080   29.3480 C   0  0  0  0  0  0  0  0  0  0  0  0
   39.1540   28.1970   30.1370 N   0  0  0  0  0  0  0  0  0  0  0  0
   37.9620   27.9580   30.6410 C   0  0  0  0  0  0  0  0  0  0  0  0
   36.9100   28.7770   30.4020 N   0  0  0  0  0  0  0  0  0  0  0  0
   36.2120   30.5020   29.4680 H   0  0  0  0  0  0  0  0  0  0  0  0
   38.3480   31.0450   28.4970 H   0  0  0  0  0  0  0  0  0  0  0  0
   40.3140   29.5390   28.9170 H   0  0  0  0  0  0  0  0  0  0  0  0
   36.7110   26.0920   31.4920 O   0  0  0  0  0  0  0  0  0  0  0  0
   36.4100   25.6870   32.3190 H   0  0  0  0  0  0  0  0  0  0  0  0
   36.0750   28.0260   33.6750 C   0  0  0  0  0  3  0  0  0  0  0  0
   35.7300   29.3060   33.8540 C   0  0  0  0  0  3  0  0  0  0  0  0
   34.4340   29.9640   33.5630 C   0  0  0  0  0  0  0  0  0  0  0  0
   33.7050   29.6170   34.3420 H   0  0  0  0  0  0  0  0  0  0  0  0
   33.9920   29.6570   32.5940 H   0  0  0  0  0  0  0  0  0  0  0  0
   34.6040   31.7420   33.7440 S   0  0  0  0  0  0  0  0  0  0  0  0
   34.3930   32.2560   35.4520 C   0  0  0  0  0  0  0  0  0  0  0  0
   35.2260   31.8170   36.4750 C   0  0  0  0  0  0  0  0  0  0  0  0
   36.0660   31.1400   36.3640 H   0  0  0  0  0  0  0  0  0  0  0  0
   34.7710   32.4010   37.5960 N   0  0  0  0  0  0  0  0  0  0  0  0
   35.2170   32.2450   38.5290 H   0  0  0  0  0  0  0  0  0  0  0  0
   33.7050   33.1780   37.3350 C   0  0  0  0  0  0  0  0  0  0  0  0
   33.1270   33.7710   38.0340 H   0  0  0  0  0  0  0  0  0  0  0  0
   33.4780   33.0820   36.0060 N   0  0  0  0  0  0  0  0  0  0  0  0
  1  2  2  0  0  0  0
  1  6  1  0  0  0  0
  2  3  1  0  0  0  0
  3  8  1  0  0  0  0
  3  4  2  0  0  0  0
  4  9  1  0  0  0  0
  5  4  1  0  0  0  0
  5 10  1  0  0  0  0
  6  5  2  0  0  0  0
  7  2  1  0  0  0  0
 11 12  1  6  0  0  0
 11  1  1  0  0  0  0
 13 18  1  0  0  0  0
 14 15  1  0  0  0  0
 14 13  2  0  0  0  0
 15 16  2  0  0  0  0
 16 17  1  0  0  0  0
 17 11  1  0  0  0  0
 18 17  2  0  0  0  0
 19 13  1  0  0  0  0
 20 14  1  0  0  0  0
 21 15  1  0  0  0  0
 22 11  1  0  0  0  0
 22 23  1  0  0  0  0
 24 25  2  0  0  0  0
 24  6  1  0  0  0  0
 26 29  1  0  0  0  0
 26 25  1  0  0  0  0
 26 27  1  0  0  0  0
 28 26  1  0  0  0  0
 29 30  1  0  0  0  0
 30 37  1  0  0  0  0
 30 31  2  0  0  0  0
 31 33  1  0  0  0  0
 32 31  1  0  0  0  0
 33 34  1  0  0  0  0
 35 33  1  0  0  0  0
 35 36  1  0  0  0  0
 37 35  2  0  0  0  0
M  END
>  <minimizedAffinity>
-5.04477119

$$$$
