
 OpenBabel03272508143D

 27 29  0  0  0  0  0  0  0  0999 V2000
   39.1130   31.3120   47.2310 Cl  0  0  0  0  0  0  0  0  0  0  0  0
   37.5820   30.8410   46.5450 C   0  0  0  0  0  0  0  0  0  0  0  0
   36.6810   30.3720   47.4620 C   0  0  0  0  0  0  0  0  0  0  0  0
   35.4120   29.9640   47.0170 C   0  0  0  0  0  0  0  0  0  0  0  0
   35.0680   30.0270   45.7000 C   0  0  0  0  0  0  0  0  0  0  0  0
   35.9870   30.5020   44.7920 C   0  0  0  0  0  0  0  0  0  0  0  0
   35.5800   30.5970   43.0970 Cl  0  0  0  0  0  0  0  0  0  0  0  0
   37.2180   30.8980   45.2200 C   0  0  0  0  0  0  0  0  0  0  0  0
   34.6380   29.5810   47.6680 H   0  0  0  0  0  0  0  0  0  0  0  0
   34.0920   29.7180   45.3280 H   0  0  0  0  0  0  0  0  0  0  0  0
   37.8810   30.9130   49.5550 C   0  0  0  0  0  0  0  0  0  0  0  0
   36.8330   30.2160   48.9210 C   0  0  0  0  0  0  0  0  0  0  0  0
   35.9980   29.4150   49.7100 C   0  0  0  0  0  0  0  0  0  0  0  0
   36.2430   29.3540   51.0450 N   0  0  0  0  0  0  0  0  0  0  0  0
   37.2580   30.0370   51.6230 C   0  0  0  0  0  0  0  0  0  0  0  0
   38.0820   30.8200   50.8750 N   0  0  0  0  0  0  0  0  0  0  0  0
   38.5410   31.5380   48.9670 H   0  0  0  0  0  0  0  0  0  0  0  0
   35.2190   28.9070   49.1890 H   0  0  0  0  0  0  0  0  0  0  0  0
   37.3450   29.9020   52.6940 H   0  0  0  0  0  0  0  0  0  0  0  0
   38.2550   31.4150   44.3210 C   0  0  0  0  0  0  0  0  0  0  0  0
   38.5050   32.7180   43.9310 C   0  0  0  0  0  0  0  0  0  0  0  0
   37.9040   33.5430   44.2860 H   0  0  0  0  0  0  0  0  0  0  0  0
   39.5610   32.6640   43.1000 N   0  0  0  0  0  0  0  0  0  0  0  0
   39.9380   33.5440   42.6720 H   0  0  0  0  0  0  0  0  0  0  0  0
   39.9870   31.3850   42.9520 C   0  0  0  0  0  0  0  0  0  0  0  0
   40.8160   31.0620   42.3420 H   0  0  0  0  0  0  0  0  0  0  0  0
   39.1670   30.6330   43.7130 N   0  0  0  0  0  0  0  0  0  0  0  0
  2  1  1  0  0  0  0
  2  3  1  0  0  0  0
  3 12  1  0  0  0  0
  4  3  2  0  0  0  0
  4  9  1  0  0  0  0
  5  4  1  0  0  0  0
  6  8  1  0  0  0  0
  6  5  2  0  0  0  0
  7  6  1  0  0  0  0
  8  2  2  0  0  0  0
 10  5  1  0  0  0  0
 11 16  1  0  0  0  0
 12 11  2  0  0  0  0
 12 13  1  0  0  0  0
 13 14  2  0  0  0  0
 14 15  1  0  0  0  0
 15 19  1  0  0  0  0
 16 15  2  0  0  0  0
 17 11  1  0  0  0  0
 18 13  1  0  0  0  0
 20  8  1  0  0  0  0
 21 22  1  0  0  0  0
 21 20  2  0  0  0  0
 23 21  1  0  0  0  0
 24 23  1  0  0  0  0
 25 23  1  0  0  0  0
 25 27  2  0  0  0  0
 26 25  1  0  0  0  0
 27 20  1  0  0  0  0
M  END
>  <minimizedAffinity>
-5.44766951

>  <minimizedRMSD>
3.82752204

$$$$
