
 OpenBabel03272500493D

 38 42  0  0  1  0  0  0  0  0999 V2000
   37.6750   25.8380   35.8970 C   0  0  1  0  0  0  0  0  0  0  0  0
   38.3900   27.2290   35.9800 C   0  0  0  0  0  0  0  0  0  0  0  0
   38.2290   26.4940   34.7000 C   0  0  2  0  0  0  0  0  0  0  0  0
   36.5900   25.8500   36.0650 H   0  0  0  0  0  0  0  0  0  0  0  0
   39.3680   27.2160   36.5150 H   0  0  0  0  0  0  0  0  0  0  0  0
   37.7250   28.0870   36.1880 H   0  0  0  0  0  0  0  0  0  0  0  0
   39.1230   26.0400   34.2780 H   0  0  0  0  0  0  0  0  0  0  0  0
   39.8570   23.0790   36.6740 C   0  0  0  0  0  0  0  0  0  0  0  0
   39.0740   23.1120   37.8280 C   0  0  0  0  0  0  0  0  0  0  0  0
   38.1460   24.1590   37.6890 C   0  0  0  0  0  0  0  0  0  0  0  0
   38.3860   24.7140   36.4850 N   0  0  0  0  0  0  0  0  0  0  0  0
   39.3810   24.0640   35.9280 N   0  0  0  0  0  0  0  0  0  0  0  0
   39.1030   22.4830   38.7260 H   0  0  0  0  0  0  0  0  0  0  0  0
   37.3980   24.4400   38.4190 H   0  0  0  0  0  0  0  0  0  0  0  0
   41.4200   21.8150   35.1840 C   0  0  0  0  0  0  0  0  0  0  0  0
   40.9140   22.1290   36.4680 C   0  0  0  0  0  0  0  0  0  0  0  0
   41.4830   21.4800   37.5560 C   0  0  0  0  0  0  0  0  0  0  0  0
   42.4860   20.5830   37.3310 N   0  0  0  0  0  0  0  0  0  0  0  0
   42.9350   20.3150   36.0810 C   0  0  0  0  0  0  0  0  0  0  0  0
   42.3960   20.9390   34.9880 N   0  0  0  0  0  0  0  0  0  0  0  0
   40.9800   22.3190   34.3390 H   0  0  0  0  0  0  0  0  0  0  0  0
   41.1770   21.6410   38.5810 H   0  0  0  0  0  0  0  0  0  0  0  0
   43.7370   19.5840   36.0250 H   0  0  0  0  0  0  0  0  0  0  0  0
   37.2810   27.0350   33.6710 C   0  0  0  0  0  0  0  0  0  0  0  0
   36.8680   26.3200   32.5320 C   0  0  0  0  0  0  0  0  0  0  0  0
   36.0180   27.1170   31.8300 N   0  0  0  0  0  0  0  0  0  0  0  0
   35.9020   28.2800   32.4990 C   0  0  0  0  0  0  0  0  0  0  0  0
   36.6600   28.2340   33.6050 N   0  0  0  0  0  0  0  0  0  0  0  0
   37.1500   25.3130   32.2270 H   0  0  0  0  0  0  0  0  0  0  0  0
   35.5710   26.8300   30.9510 H   0  0  0  0  0  0  0  0  0  0  0  0
   35.0650   29.3800   32.0370 C   0  0  0  0  0  0  0  0  0  0  0  0
   35.3020   30.2950   31.0330 C   0  0  0  0  0  0  0  0  0  0  0  0
   36.2030   30.3160   30.4160 H   0  0  0  0  0  0  0  0  0  0  0  0
   34.2670   31.1410   30.9370 N   0  0  0  0  0  0  0  0  0  0  0  0
   34.1620   31.9400   30.2670 H   0  0  0  0  0  0  0  0  0  0  0  0
   33.3650   30.7620   31.8870 C   0  0  0  0  0  0  0  0  0  0  0  0
   32.4220   31.3140   32.0010 H   0  0  0  0  0  0  0  0  0  0  0  0
   33.8600   29.6930   32.5470 N   0  0  0  0  0  0  0  0  0  0  0  0
  1  2  1  0  0  0  0
  1  4  1  1  0  0  0
  1 11  1  0  0  0  0
  2  6  1  0  0  0  0
  2  5  1  0  0  0  0
  3  7  1  6  0  0  0
  3  1  1  0  0  0  0
  3  2  1  0  0  0  0
  8  9  1  0  0  0  0
  9 13  1  0  0  0  0
 10  9  2  0  0  0  0
 10 14  1  0  0  0  0
 11 10  1  0  0  0  0
 12 11  1  0  0  0  0
 12  8  2  0  0  0  0
 15 16  1  0  0  0  0
 16  8  1  0  0  0  0
 16 17  2  0  0  0  0
 17 22  1  0  0  0  0
 18 17  1  0  0  0  0
 19 18  2  0  0  0  0
 20 15  2  0  0  0  0
 20 19  1  0  0  0  0
 21 15  1  0  0  0  0
 23 19  1  0  0  0  0
 24  3  1  0  0  0  0
 25 24  2  0  0  0  0
 26 27  1  0  0  0  0
 26 25  1  0  0  0  0
 27 28  2  0  0  0  0
 28 24  1  0  0  0  0
 29 25  1  0  0  0  0
 30 26  1  0  0  0  0
 31 27  1  0  0  0  0
 31 38  1  0  0  0  0
 32 31  2  0  0  0  0
 33 32  1  0  0  0  0
 34 32  1  0  0  0  0
 34 36  1  0  0  0  0
 35 34  1  0  0  0  0
 36 37  1  0  0  0  0
 36 38  2  0  0  0  0
M  END
>  <minimizedAffinity>
-5.69807434

$$$$

 OpenBabel03272500493D

 38 42  0  0  1  0  0  0  0  0999 V2000
   37.1300   27.0580   33.0560 C   0  0  1  0  0  0  0  0  0  0  0  0
   38.5910   27.3170   32.5550 C   0  0  0  0  0  0  0  0  0  0  0  0
   38.2950   26.8420   33.9310 C   0  0  2  0  0  0  0  0  0  0  0  0
   36.6210   26.1930   32.6130 H   0  0  0  0  0  0  0  0  0  0  0  0
   38.8360   28.3900   32.3740 H   0  0  0  0  0  0  0  0  0  0  0  0
   38.9680   26.5910   31.8120 H   0  0  0  0  0  0  0  0  0  0  0  0
   38.4260   27.5600   34.7380 H   0  0  0  0  0  0  0  0  0  0  0  0
   35.2630   29.8700   34.3180 C   0  0  0  0  0  0  0  0  0  0  0  0
   34.9930   29.9810   32.9540 C   0  0  0  0  0  0  0  0  0  0  0  0
   35.6630   28.9340   32.2950 C   0  0  0  0  0  0  0  0  0  0  0  0
   36.3010   28.2370   33.2540 N   0  0  0  0  0  0  0  0  0  0  0  0
   36.0470   28.8070   34.4090 N   0  0  0  0  0  0  0  0  0  0  0  0
   34.3860   30.7120   32.4050 H   0  0  0  0  0  0  0  0  0  0  0  0
   35.6490   28.7490   31.2290 H   0  0  0  0  0  0  0  0  0  0  0  0
   33.3560   30.8900   35.5740 C   0  0  0  0  0  0  0  0  0  0  0  0
   34.7390   30.7770   35.2990 C   0  0  0  0  0  0  0  0  0  0  0  0
   35.6040   31.5870   36.0250 C   0  0  0  0  0  0  0  0  0  0  0  0
   35.0790   32.4390   36.9520 N   0  0  0  0  0  0  0  0  0  0  0  0
   33.7450   32.5120   37.1780 C   0  0  0  0  0  0  0  0  0  0  0  0
   32.8670   31.7270   36.4800 N   0  0  0  0  0  0  0  0  0  0  0  0
   32.6830   30.2620   35.0120 H   0  0  0  0  0  0  0  0  0  0  0  0
   36.6790   31.5840   35.9000 H   0  0  0  0  0  0  0  0  0  0  0  0
   33.4430   33.2260   37.9380 H   0  0  0  0  0  0  0  0  0  0  0  0
   38.6640   25.4370   34.3050 C   0  0  0  0  0  0  0  0  0  0  0  0
   38.2010   24.2970   33.6250 C   0  0  0  0  0  0  0  0  0  0  0  0
   38.7340   23.2060   34.2370 N   0  0  0  0  0  0  0  0  0  0  0  0
   39.4970   23.6420   35.2580 C   0  0  0  0  0  0  0  0  0  0  0  0
   39.4570   24.9820   35.3010 N   0  0  0  0  0  0  0  0  0  0  0  0
   37.5380   24.2470   32.7620 H   0  0  0  0  0  0  0  0  0  0  0  0
   38.5530   22.2410   33.9330 H   0  0  0  0  0  0  0  0  0  0  0  0
   40.2290   22.7420   36.1410 C   0  0  0  0  0  0  0  0  0  0  0  0
   39.9930   22.4360   37.4650 C   0  0  0  0  0  0  0  0  0  0  0  0
   39.1770   22.8530   38.0590 H   0  0  0  0  0  0  0  0  0  0  0  0
   40.9100   21.5590   37.8980 N   0  0  0  0  0  0  0  0  0  0  0  0
   40.9860   21.1440   38.8560 H   0  0  0  0  0  0  0  0  0  0  0  0
   41.7350   21.3060   36.8420 C   0  0  0  0  0  0  0  0  0  0  0  0
   42.5750   20.6080   36.9560 H   0  0  0  0  0  0  0  0  0  0  0  0
   41.3120   22.0290   35.7830 N   0  0  0  0  0  0  0  0  0  0  0  0
  1  4  1  6  0  0  0
  1 11  1  0  0  0  0
  1  3  1  0  0  0  0
  2  1  1  0  0  0  0
  2  3  1  0  0  0  0
  3 24  1  0  0  0  0
  3  7  1  1  0  0  0
  5  2  1  0  0  0  0
  6  2  1  0  0  0  0
  8 12  2  0  0  0  0
  8 16  1  0  0  0  0
  9  8  1  0  0  0  0
 10  9  2  0  0  0  0
 10 11  1  0  0  0  0
 11 12  1  0  0  0  0
 13  9  1  0  0  0  0
 14 10  1  0  0  0  0
 15 20  1  0  0  0  0
 16 15  2  0  0  0  0
 16 17  1  0  0  0  0
 17 18  2  0  0  0  0
 18 19  1  0  0  0  0
 19 23  1  0  0  0  0
 20 19  2  0  0  0  0
 21 15  1  0  0  0  0
 22 17  1  0  0  0  0
 24 28  1  0  0  0  0
 25 26  1  0  0  0  0
 25 24  2  0  0  0  0
 26 27  1  0  0  0  0
 27 28  2  0  0  0  0
 27 31  1  0  0  0  0
 29 25  1  0  0  0  0
 30 26  1  0  0  0  0
 31 32  2  0  0  0  0
 32 34  1  0  0  0  0
 32 33  1  0  0  0  0
 34 35  1  0  0  0  0
 36 37  1  0  0  0  0
 36 34  1  0  0  0  0
 38 31  1  0  0  0  0
 38 36  2  0  0  0  0
M  END
>  <minimizedAffinity>
-5.68262053

$$$$

 OpenBabel03272500493D

 38 42  0  0  1  0  0  0  0  0999 V2000
   38.4230   26.7930   34.4200 C   0  0  1  0  0  0  0  0  0  0  0  0
   38.3660   27.3500   35.8820 C   0  0  0  0  0  0  0  0  0  0  0  0
   37.7090   26.0770   35.4910 C   0  0  2  0  0  0  0  0  0  0  0  0
   39.4030   26.4280   34.0880 H   0  0  0  0  0  0  0  0  0  0  0  0
   37.7600   28.2790   36.0010 H   0  0  0  0  0  0  0  0  0  0  0  0
   39.3190   27.3080   36.4380 H   0  0  0  0  0  0  0  0  0  0  0  0
   36.6230   26.0830   35.4280 H   0  0  0  0  0  0  0  0  0  0  0  0
   36.0200   28.7260   32.5560 C   0  0  0  0  0  0  0  0  0  0  0  0
   36.9630   28.4710   31.5610 C   0  0  0  0  0  0  0  0  0  0  0  0
   37.9970   27.7070   32.1320 C   0  0  0  0  0  0  0  0  0  0  0  0
   37.6580   27.5260   33.4230 N   0  0  0  0  0  0  0  0  0  0  0  0
   36.5110   28.1280   33.6310 N   0  0  0  0  0  0  0  0  0  0  0  0
   36.9830   28.7690   30.5050 H   0  0  0  0  0  0  0  0  0  0  0  0
   38.8770   27.3500   31.6140 H   0  0  0  0  0  0  0  0  0  0  0  0
   34.7380   30.5050   31.3530 C   0  0  0  0  0  0  0  0  0  0  0  0
   34.8230   29.4840   32.3290 C   0  0  0  0  0  0  0  0  0  0  0  0
   33.6850   29.2230   33.0830 C   0  0  0  0  0  0  0  0  0  0  0  0
   32.5600   29.9590   32.8450 N   0  0  0  0  0  0  0  0  0  0  0  0
   32.5300   30.9280   31.8990 C   0  0  0  0  0  0  0  0  0  0  0  0
   33.6340   31.2080   31.1400 N   0  0  0  0  0  0  0  0  0  0  0  0
   35.6200   30.7080   30.7680 H   0  0  0  0  0  0  0  0  0  0  0  0
   33.6330   28.4660   33.8540 H   0  0  0  0  0  0  0  0  0  0  0  0
   31.5810   31.4470   31.8000 H   0  0  0  0  0  0  0  0  0  0  0  0
   38.2790   24.7850   35.9980 C   0  0  0  0  0  0  0  0  0  0  0  0
   37.5810   23.8940   36.8320 C   0  0  0  0  0  0  0  0  0  0  0  0
   38.4020   22.8410   37.0900 N   0  0  0  0  0  0  0  0  0  0  0  0
   39.5650   23.0620   36.4480 C   0  0  0  0  0  0  0  0  0  0  0  0
   39.4940   24.2300   35.7910 N   0  0  0  0  0  0  0  0  0  0  0  0
   36.5680   23.9860   37.2230 H   0  0  0  0  0  0  0  0  0  0  0  0
   38.1310   22.0430   37.6790 H   0  0  0  0  0  0  0  0  0  0  0  0
   40.6880   22.1340   36.4990 C   0  0  0  0  0  0  0  0  0  0  0  0
   41.2300   21.4810   37.5860 C   0  0  0  0  0  0  0  0  0  0  0  0
   40.8670   21.5790   38.6100 H   0  0  0  0  0  0  0  0  0  0  0  0
   42.2590   20.7180   37.1880 N   0  0  0  0  0  0  0  0  0  0  0  0
   42.8630   20.1070   37.7880 H   0  0  0  0  0  0  0  0  0  0  0  0
   42.3710   20.8880   35.8400 C   0  0  0  0  0  0  0  0  0  0  0  0
   43.1540   20.3570   35.2820 H   0  0  0  0  0  0  0  0  0  0  0  0
   41.4140   21.7490   35.4340 N   0  0  0  0  0  0  0  0  0  0  0  0
  1  4  1  6  0  0  0
  1  3  1  0  0  0  0
  1  2  1  0  0  0  0
  2  5  1  0  0  0  0
  2  6  1  0  0  0  0
  3  7  1  6  0  0  0
  3  2  1  0  0  0  0
  3 24  1  0  0  0  0
  8 12  2  0  0  0  0
  9 10  2  0  0  0  0
  9  8  1  0  0  0  0
 10 11  1  0  0  0  0
 11 12  1  0  0  0  0
 11  1  1  0  0  0  0
 13  9  1  0  0  0  0
 14 10  1  0  0  0  0
 15 16  1  0  0  0  0
 16  8  1  0  0  0  0
 16 17  2  0  0  0  0
 17 22  1  0  0  0  0
 18 17  1  0  0  0  0
 19 18  2  0  0  0  0
 20 15  2  0  0  0  0
 20 19  1  0  0  0  0
 21 15  1  0  0  0  0
 23 19  1  0  0  0  0
 24 25  2  0  0  0  0
 25 26  1  0  0  0  0
 25 29  1  0  0  0  0
 26 30  1  0  0  0  0
 27 31  1  0  0  0  0
 27 26  1  0  0  0  0
 28 24  1  0  0  0  0
 28 27  2  0  0  0  0
 31 32  2  0  0  0  0
 32 33  1  0  0  0  0
 34 32  1  0  0  0  0
 34 35  1  0  0  0  0
 36 34  1  0  0  0  0
 37 36  1  0  0  0  0
 38 36  2  0  0  0  0
 38 31  1  0  0  0  0
M  END
>  <minimizedAffinity>
-5.63324642

$$$$

 OpenBabel03272500493D

 38 42  0  0  1  0  0  0  0  0999 V2000
   36.6520   27.0070   32.4960 C   0  0  1  0  0  0  0  0  0  0  0  0
   37.5530   27.8970   31.5740 C   0  0  0  0  0  0  0  0  0  0  0  0
   36.1280   28.2190   31.8420 C   0  0  2  0  0  0  0  0  0  0  0  0
   36.8930   27.0340   33.5660 H   0  0  0  0  0  0  0  0  0  0  0  0
   37.8480   27.4170   30.6110 H   0  0  0  0  0  0  0  0  0  0  0  0
   38.3360   28.4740   32.0990 H   0  0  0  0  0  0  0  0  0  0  0  0
   35.4260   28.0550   31.0270 H   0  0  0  0  0  0  0  0  0  0  0  0
   36.3570   23.5180   31.6460 C   0  0  0  0  0  0  0  0  0  0  0  0
   35.3160   24.0510   30.8850 C   0  0  0  0  0  0  0  0  0  0  0  0
   35.2880   25.4400   31.1050 C   0  0  0  0  0  0  0  0  0  0  0  0
   36.2880   25.7010   31.9700 N   0  0  0  0  0  0  0  0  0  0  0  0
   36.8820   24.5680   32.2600 N   0  0  0  0  0  0  0  0  0  0  0  0
   34.6010   23.5590   30.2140 H   0  0  0  0  0  0  0  0  0  0  0  0
   34.5920   26.1350   30.6550 H   0  0  0  0  0  0  0  0  0  0  0  0
   37.9070   21.6260   32.1700 C   0  0  0  0  0  0  0  0  0  0  0  0
   36.6800   22.1200   31.6670 C   0  0  0  0  0  0  0  0  0  0  0  0
   35.7670   21.1910   31.1810 C   0  0  0  0  0  0  0  0  0  0  0  0
   36.1010   19.8680   31.2130 N   0  0  0  0  0  0  0  0  0  0  0  0
   37.2900   19.4450   31.7040 C   0  0  0  0  0  0  0  0  0  0  0  0
   38.2100   20.3350   32.1910 N   0  0  0  0  0  0  0  0  0  0  0  0
   38.6150   22.3450   32.5480 H   0  0  0  0  0  0  0  0  0  0  0  0
   34.8000   21.4530   30.7740 H   0  0  0  0  0  0  0  0  0  0  0  0
   37.4450   18.3700   31.6790 H   0  0  0  0  0  0  0  0  0  0  0  0
   35.8040   29.4120   32.6900 C   0  0  0  0  0  0  0  0  0  0  0  0
   35.9410   30.7430   32.2560 C   0  0  0  0  0  0  0  0  0  0  0  0
   35.5610   31.5530   33.2810 N   0  0  0  0  0  0  0  0  0  0  0  0
   35.2040   30.7650   34.3130 C   0  0  0  0  0  0  0  0  0  0  0  0
   35.3480   29.4780   33.9610 N   0  0  0  0  0  0  0  0  0  0  0  0
   36.2820   31.1070   31.2880 H   0  0  0  0  0  0  0  0  0  0  0  0
   35.5670   32.5790   33.2240 H   0  0  0  0  0  0  0  0  0  0  0  0
   34.7380   31.2930   35.5900 C   0  0  0  0  0  0  0  0  0  0  0  0
   35.4130   32.0640   36.5130 C   0  0  0  0  0  0  0  0  0  0  0  0
   36.4460   32.3990   36.4010 H   0  0  0  0  0  0  0  0  0  0  0  0
   34.6100   32.3310   37.5530 N   0  0  0  0  0  0  0  0  0  0  0  0
   34.8440   32.8940   38.4050 H   0  0  0  0  0  0  0  0  0  0  0  0
   33.4170   31.7260   37.2900 C   0  0  0  0  0  0  0  0  0  0  0  0
   32.5900   31.8060   38.0070 H   0  0  0  0  0  0  0  0  0  0  0  0
   33.5070   31.1000   36.0970 N   0  0  0  0  0  0  0  0  0  0  0  0
  1  4  1  1  0  0  0
  2  3  1  0  0  0  0
  2  6  1  0  0  0  0
  2  1  1  0  0  0  0
  3  7  1  6  0  0  0
  3  1  1  0  0  0  0
  3 24  1  0  0  0  0
  5  2  1  0  0  0  0
  8 16  1  0  0  0  0
  8 12  2  0  0  0  0
  9 10  2  0  0  0  0
  9  8  1  0  0  0  0
 10 11  1  0  0  0  0
 11 12  1  0  0  0  0
 11  1  1  0  0  0  0
 13  9  1  0  0  0  0
 14 10  1  0  0  0  0
 15 20  1  0  0  0  0
 15 21  1  0  0  0  0
 16 15  2  0  0  0  0
 17 18  2  0  0  0  0
 17 16  1  0  0  0  0
 18 19  1  0  0  0  0
 19 20  2  0  0  0  0
 22 17  1  0  0  0  0
 23 19  1  0  0  0  0
 24 28  1  0  0  0  0
 25 24  2  0  0  0  0
 25 26  1  0  0  0  0
 26 27  1  0  0  0  0
 27 31  1  0  0  0  0
 28 27  2  0  0  0  0
 29 25  1  0  0  0  0
 30 26  1  0  0  0  0
 31 38  1  0  0  0  0
 31 32  2  0  0  0  0
 32 34  1  0  0  0  0
 33 32  1  0  0  0  0
 34 35  1  0  0  0  0
 36 34  1  0  0  0  0
 36 37  1  0  0  0  0
 38 36  2  0  0  0  0
M  END
>  <minimizedAffinity>
-5.58564091

$$$$

 OpenBabel03272500493D

 38 42  0  0  1  0  0  0  0  0999 V2000
   36.5290   27.4740   32.9080 C   0  0  1  0  0  0  0  0  0  0  0  0
   37.9060   27.5730   32.1680 C   0  0  0  0  0  0  0  0  0  0  0  0
   37.8040   27.2920   33.6230 C   0  0  2  0  0  0  0  0  0  0  0  0
   35.9180   26.5960   32.6620 H   0  0  0  0  0  0  0  0  0  0  0  0
   38.1690   28.5970   31.8120 H   0  0  0  0  0  0  0  0  0  0  0  0
   38.1300   26.7380   31.4800 H   0  0  0  0  0  0  0  0  0  0  0  0
   38.0910   28.0940   34.3000 H   0  0  0  0  0  0  0  0  0  0  0  0
   34.9710   30.5110   34.0610 C   0  0  0  0  0  0  0  0  0  0  0  0
   34.5680   30.5140   32.7250 C   0  0  0  0  0  0  0  0  0  0  0  0
   35.1040   29.3680   32.1110 C   0  0  0  0  0  0  0  0  0  0  0  0
   35.7960   28.7200   33.0680 N   0  0  0  0  0  0  0  0  0  0  0  0
   35.6960   29.4100   34.1800 N   0  0  0  0  0  0  0  0  0  0  0  0
   33.9530   31.2320   32.1690 H   0  0  0  0  0  0  0  0  0  0  0  0
   34.9690   29.0870   31.0750 H   0  0  0  0  0  0  0  0  0  0  0  0
   35.2200   31.6740   36.2620 C   0  0  0  0  0  0  0  0  0  0  0  0
   34.6050   31.5390   34.9950 C   0  0  0  0  0  0  0  0  0  0  0  0
   33.6120   32.4520   34.6650 C   0  0  0  0  0  0  0  0  0  0  0  0
   33.2860   33.4190   35.5710 N   0  0  0  0  0  0  0  0  0  0  0  0
   33.9030   33.5060   36.7740 C   0  0  0  0  0  0  0  0  0  0  0  0
   34.8870   32.6210   37.1280 N   0  0  0  0  0  0  0  0  0  0  0  0
   35.9920   30.9650   36.5190 H   0  0  0  0  0  0  0  0  0  0  0  0
   33.0750   32.4460   33.7250 H   0  0  0  0  0  0  0  0  0  0  0  0
   33.5600   34.3150   37.4120 H   0  0  0  0  0  0  0  0  0  0  0  0
   38.1610   25.9230   34.1210 C   0  0  0  0  0  0  0  0  0  0  0  0
   37.8920   24.7370   33.4150 C   0  0  0  0  0  0  0  0  0  0  0  0
   38.3490   23.6980   34.1640 N   0  0  0  0  0  0  0  0  0  0  0  0
   38.8810   24.2090   35.2910 C   0  0  0  0  0  0  0  0  0  0  0  0
   38.7700   25.5460   35.2680 N   0  0  0  0  0  0  0  0  0  0  0  0
   37.4090   24.6210   32.4450 H   0  0  0  0  0  0  0  0  0  0  0  0
   38.2760   22.7150   33.8730 H   0  0  0  0  0  0  0  0  0  0  0  0
   39.4730   23.3810   36.3350 C   0  0  0  0  0  0  0  0  0  0  0  0
   39.0420   23.1680   37.6270 C   0  0  0  0  0  0  0  0  0  0  0  0
   38.1470   23.6170   38.0620 H   0  0  0  0  0  0  0  0  0  0  0  0
   39.8830   22.3320   38.2530 N   0  0  0  0  0  0  0  0  0  0  0  0
   39.8150   21.9870   39.2400 H   0  0  0  0  0  0  0  0  0  0  0  0
   40.8560   22.0130   37.3530 C   0  0  0  0  0  0  0  0  0  0  0  0
   41.6690   21.3330   37.6390 H   0  0  0  0  0  0  0  0  0  0  0  0
   40.5960   22.6550   36.1940 N   0  0  0  0  0  0  0  0  0  0  0  0
  1  4  1  6  0  0  0
  1 11  1  0  0  0  0
  1  3  1  0  0  0  0
  2  1  1  0  0  0  0
  2  3  1  0  0  0  0
  3 24  1  0  0  0  0
  3  7  1  1  0  0  0
  5  2  1  0  0  0  0
  6  2  1  0  0  0  0
  8 12  2  0  0  0  0
  8 16  1  0  0  0  0
  9  8  1  0  0  0  0
 10  9  2  0  0  0  0
 10 11  1  0  0  0  0
 11 12  1  0  0  0  0
 13  9  1  0  0  0  0
 14 10  1  0  0  0  0
 15 21  1  0  0  0  0
 15 20  1  0  0  0  0
 16 15  2  0  0  0  0
 17 16  1  0  0  0  0
 17 18  2  0  0  0  0
 18 19  1  0  0  0  0
 19 20  2  0  0  0  0
 19 23  1  0  0  0  0
 22 17  1  0  0  0  0
 24 28  1  0  0  0  0
 25 24  2  0  0  0  0
 25 26  1  0  0  0  0
 26 27  1  0  0  0  0
 27 31  1  0  0  0  0
 28 27  2  0  0  0  0
 29 25  1  0  0  0  0
 30 26  1  0  0  0  0
 31 32  2  0  0  0  0
 32 33  1  0  0  0  0
 32 34  1  0  0  0  0
 34 35  1  0  0  0  0
 36 37  1  0  0  0  0
 36 34  1  0  0  0  0
 38 31  1  0  0  0  0
 38 36  2  0  0  0  0
M  END
>  <minimizedAffinity>
-5.51806164

$$$$

 OpenBabel03272500493D

 38 42  0  0  1  0  0  0  0  0999 V2000
   36.3850   26.1160   32.2030 C   0  0  1  0  0  0  0  0  0  0  0  0
   35.8300   24.8660   31.4390 C   0  0  0  0  0  0  0  0  0  0  0  0
   37.2430   24.9600   31.8880 C   0  0  2  0  0  0  0  0  0  0  0  0
   36.0170   26.2490   33.2290 H   0  0  0  0  0  0  0  0  0  0  0  0
   35.5670   25.0550   30.3720 H   0  0  0  0  0  0  0  0  0  0  0  0
   35.1300   24.2360   32.0170 H   0  0  0  0  0  0  0  0  0  0  0  0
   37.9940   25.1190   31.1170 H   0  0  0  0  0  0  0  0  0  0  0  0
   37.2640   28.7120   29.8650 C   0  0  0  0  0  0  0  0  0  0  0  0
   36.3080   29.3780   30.6330 C   0  0  0  0  0  0  0  0  0  0  0  0
   35.8480   28.4860   31.6180 C   0  0  0  0  0  0  0  0  0  0  0  0
   36.5220   27.3360   31.4240 N   0  0  0  0  0  0  0  0  0  0  0  0
   37.3300   27.5040   30.4040 N   0  0  0  0  0  0  0  0  0  0  0  0
   35.9220   30.4030   30.5570 H   0  0  0  0  0  0  0  0  0  0  0  0
   35.1020   28.7070   32.3700 H   0  0  0  0  0  0  0  0  0  0  0  0
   37.6100   30.6020   28.2630 C   0  0  0  0  0  0  0  0  0  0  0  0
   37.9500   29.3220   28.7610 C   0  0  0  0  0  0  0  0  0  0  0  0
   38.9950   28.6500   28.1400 C   0  0  0  0  0  0  0  0  0  0  0  0
   39.6300   29.2540   27.0940 N   0  0  0  0  0  0  0  0  0  0  0  0
   39.2660   30.4810   26.6520 C   0  0  0  0  0  0  0  0  0  0  0  0
   38.2400   31.1690   27.2440 N   0  0  0  0  0  0  0  0  0  0  0  0
   36.7990   31.1240   28.7440 H   0  0  0  0  0  0  0  0  0  0  0  0
   39.3420   27.6690   28.4360 H   0  0  0  0  0  0  0  0  0  0  0  0
   39.8430   30.8600   25.8130 H   0  0  0  0  0  0  0  0  0  0  0  0
   37.7050   24.0780   33.0090 C   0  0  0  0  0  0  0  0  0  0  0  0
   37.9350   22.6970   32.8770 C   0  0  0  0  0  0  0  0  0  0  0  0
   38.3380   22.2270   34.0880 N   0  0  0  0  0  0  0  0  0  0  0  0
   38.3590   23.2680   34.9430 C   0  0  0  0  0  0  0  0  0  0  0  0
   37.9790   24.3810   34.2980 N   0  0  0  0  0  0  0  0  0  0  0  0
   37.8250   22.0750   31.9900 H   0  0  0  0  0  0  0  0  0  0  0  0
   38.5730   21.2430   34.2640 H   0  0  0  0  0  0  0  0  0  0  0  0
   38.7470   23.1370   36.3430 C   0  0  0  0  0  0  0  0  0  0  0  0
   39.8250   22.4750   36.8910 C   0  0  0  0  0  0  0  0  0  0  0  0
   40.5750   21.9320   36.3120 H   0  0  0  0  0  0  0  0  0  0  0  0
   39.8060   22.6050   38.2250 N   0  0  0  0  0  0  0  0  0  0  0  0
   40.4960   22.2120   38.9090 H   0  0  0  0  0  0  0  0  0  0  0  0
   38.7070   23.3530   38.5270 C   0  0  0  0  0  0  0  0  0  0  0  0
   38.4780   23.5950   39.5740 H   0  0  0  0  0  0  0  0  0  0  0  0
   38.0730   23.6700   37.3790 N   0  0  0  0  0  0  0  0  0  0  0  0
  1  4  1  1  0  0  0
  2  3  1  0  0  0  0
  2  6  1  0  0  0  0
  2  1  1  0  0  0  0
  3  7  1  6  0  0  0
  3  1  1  0  0  0  0
  3 24  1  0  0  0  0
  5  2  1  0  0  0  0
  8 12  2  0  0  0  0
  8  9  1  0  0  0  0
  9 10  2  0  0  0  0
 10 14  1  0  0  0  0
 11 10  1  0  0  0  0
 11  1  1  0  0  0  0
 12 11  1  0  0  0  0
 13  9  1  0  0  0  0
 15 21  1  0  0  0  0
 15 16  1  0  0  0  0
 16  8  1  0  0  0  0
 17 22  1  0  0  0  0
 17 16  2  0  0  0  0
 18 17  1  0  0  0  0
 19 18  2  0  0  0  0
 19 20  1  0  0  0  0
 20 15  2  0  0  0  0
 23 19  1  0  0  0  0
 24 28  1  0  0  0  0
 25 24  2  0  0  0  0
 25 26  1  0  0  0  0
 26 30  1  0  0  0  0
 26 27  1  0  0  0  0
 27 31  1  0  0  0  0
 28 27  2  0  0  0  0
 29 25  1  0  0  0  0
 31 32  2  0  0  0  0
 31 38  1  0  0  0  0
 32 34  1  0  0  0  0
 33 32  1  0  0  0  0
 34 36  1  0  0  0  0
 34 35  1  0  0  0  0
 36 37  1  0  0  0  0
 38 36  2  0  0  0  0
M  END
>  <minimizedAffinity>
-5.43727064

$$$$

 OpenBabel03272500493D

 38 42  0  0  1  0  0  0  0  0999 V2000
   37.1980   27.5210   31.7020 C   0  0  1  0  0  0  0  0  0  0  0  0
   38.5630   27.1080   32.3510 C   0  0  0  0  0  0  0  0  0  0  0  0
   37.3150   26.3310   32.5630 C   0  0  2  0  0  0  0  0  0  0  0  0
   37.1310   27.3950   30.6140 H   0  0  0  0  0  0  0  0  0  0  0  0
   38.9290   27.8040   33.1420 H   0  0  0  0  0  0  0  0  0  0  0  0
   39.3190   26.7190   31.6460 H   0  0  0  0  0  0  0  0  0  0  0  0
   36.8500   26.4030   33.5440 H   0  0  0  0  0  0  0  0  0  0  0  0
   35.5770   30.0580   33.6810 C   0  0  0  0  0  0  0  0  0  0  0  0
   35.7440   30.7460   32.4790 C   0  0  0  0  0  0  0  0  0  0  0  0
   36.3800   29.8800   31.5720 C   0  0  0  0  0  0  0  0  0  0  0  0
   36.5720   28.7220   32.2330 N   0  0  0  0  0  0  0  0  0  0  0  0
   36.0960   28.8630   33.4470 N   0  0  0  0  0  0  0  0  0  0  0  0
   35.4670   31.7710   32.2000 H   0  0  0  0  0  0  0  0  0  0  0  0
   36.6470   30.1220   30.5510 H   0  0  0  0  0  0  0  0  0  0  0  0
   33.5830   30.4830   35.1310 C   0  0  0  0  0  0  0  0  0  0  0  0
   34.9590   30.6390   34.8400 C   0  0  0  0  0  0  0  0  0  0  0  0
   35.7210   31.3860   35.7290 C   0  0  0  0  0  0  0  0  0  0  0  0
   35.1070   31.9260   36.8220 N   0  0  0  0  0  0  0  0  0  0  0  0
   33.7840   31.7490   37.0560 C   0  0  0  0  0  0  0  0  0  0  0  0
   33.0070   31.0170   36.1990 N   0  0  0  0  0  0  0  0  0  0  0  0
   32.9910   29.9030   34.4410 H   0  0  0  0  0  0  0  0  0  0  0  0
   36.7800   31.5700   35.6090 H   0  0  0  0  0  0  0  0  0  0  0  0
   33.4070   32.2250   37.9570 H   0  0  0  0  0  0  0  0  0  0  0  0
   37.1950   24.9740   31.9350 C   0  0  0  0  0  0  0  0  0  0  0  0
   37.8880   24.5820   30.7760 C   0  0  0  0  0  0  0  0  0  0  0  0
   37.5350   23.2980   30.4980 N   0  0  0  0  0  0  0  0  0  0  0  0
   36.6580   22.9020   31.4410 C   0  0  0  0  0  0  0  0  0  0  0  0
   36.4510   23.9070   32.3050 N   0  0  0  0  0  0  0  0  0  0  0  0
   38.5880   25.1630   30.1770 H   0  0  0  0  0  0  0  0  0  0  0  0
   37.9040   22.7710   29.6970 H   0  0  0  0  0  0  0  0  0  0  0  0
   36.0630   21.5710   31.4610 C   0  0  0  0  0  0  0  0  0  0  0  0
   36.4090   20.4500   30.7360 C   0  0  0  0  0  0  0  0  0  0  0  0
   37.2230   20.4110   30.0090 H   0  0  0  0  0  0  0  0  0  0  0  0
   35.5990   19.4330   31.0610 N   0  0  0  0  0  0  0  0  0  0  0  0
   35.6200   18.4590   30.6760 H   0  0  0  0  0  0  0  0  0  0  0  0
   34.7320   19.9100   31.9990 C   0  0  0  0  0  0  0  0  0  0  0  0
   33.9630   19.2510   32.4240 H   0  0  0  0  0  0  0  0  0  0  0  0
   35.0230   21.2070   32.2330 N   0  0  0  0  0  0  0  0  0  0  0  0
  1  4  1  6  0  0  0
  1 11  1  0  0  0  0
  1  2  1  0  0  0  0
  1  3  1  0  0  0  0
  2  3  1  0  0  0  0
  2  5  1  0  0  0  0
  3  7  1  1  0  0  0
  6  2  1  0  0  0  0
  8 16  1  0  0  0  0
  9  8  1  0  0  0  0
 10 11  1  0  0  0  0
 10  9  2  0  0  0  0
 11 12  1  0  0  0  0
 12  8  2  0  0  0  0
 13  9  1  0  0  0  0
 14 10  1  0  0  0  0
 15 20  1  0  0  0  0
 16 15  2  0  0  0  0
 16 17  1  0  0  0  0
 17 18  2  0  0  0  0
 18 19  1  0  0  0  0
 19 23  1  0  0  0  0
 20 19  2  0  0  0  0
 21 15  1  0  0  0  0
 22 17  1  0  0  0  0
 24 28  1  0  0  0  0
 24  3  1  0  0  0  0
 25 24  2  0  0  0  0
 26 25  1  0  0  0  0
 26 27  1  0  0  0  0
 27 31  1  0  0  0  0
 27 28  2  0  0  0  0
 29 25  1  0  0  0  0
 30 26  1  0  0  0  0
 31 38  1  0  0  0  0
 32 34  1  0  0  0  0
 32 31  2  0  0  0  0
 33 32  1  0  0  0  0
 34 36  1  0  0  0  0
 35 34  1  0  0  0  0
 36 38  2  0  0  0  0
 36 37  1  0  0  0  0
M  END
>  <minimizedAffinity>
-5.42866898

$$$$

 OpenBabel03272500493D

 38 42  0  0  1  0  0  0  0  0999 V2000
   37.4300   27.1840   32.7970 C   0  0  1  0  0  0  0  0  0  0  0  0
   37.4290   27.9840   31.4500 C   0  0  0  0  0  0  0  0  0  0  0  0
   36.1860   27.7270   32.2220 C   0  0  2  0  0  0  0  0  0  0  0  0
   37.8940   27.6920   33.6520 H   0  0  0  0  0  0  0  0  0  0  0  0
   37.6640   27.3720   30.5480 H   0  0  0  0  0  0  0  0  0  0  0  0
   37.8870   28.9880   31.5000 H   0  0  0  0  0  0  0  0  0  0  0  0
   35.4930   26.9970   31.8090 H   0  0  0  0  0  0  0  0  0  0  0  0
   37.3440   23.6230   32.2560 C   0  0  0  0  0  0  0  0  0  0  0  0
   38.6320   23.7680   32.7740 C   0  0  0  0  0  0  0  0  0  0  0  0
   38.8360   25.1320   33.0460 C   0  0  0  0  0  0  0  0  0  0  0  0
   37.6950   25.7580   32.6960 N   0  0  0  0  0  0  0  0  0  0  0  0
   36.8580   24.8550   32.2440 N   0  0  0  0  0  0  0  0  0  0  0  0
   39.4100   23.0180   32.9670 H   0  0  0  0  0  0  0  0  0  0  0  0
   39.7390   25.5650   33.4570 H   0  0  0  0  0  0  0  0  0  0  0  0
   35.5690   21.8640   32.3770 C   0  0  0  0  0  0  0  0  0  0  0  0
   36.7920   22.3570   31.8630 C   0  0  0  0  0  0  0  0  0  0  0  0
   37.4650   21.5650   30.9410 C   0  0  0  0  0  0  0  0  0  0  0  0
   36.9160   20.3670   30.5860 N   0  0  0  0  0  0  0  0  0  0  0  0
   35.7420   19.9380   31.1070 C   0  0  0  0  0  0  0  0  0  0  0  0
   35.0550   20.6960   32.0180 N   0  0  0  0  0  0  0  0  0  0  0  0
   35.0460   22.4780   33.0930 H   0  0  0  0  0  0  0  0  0  0  0  0
   38.4050   21.8410   30.4830 H   0  0  0  0  0  0  0  0  0  0  0  0
   35.4050   18.9690   30.7510 H   0  0  0  0  0  0  0  0  0  0  0  0
   35.5150   28.8760   32.9130 C   0  0  0  0  0  0  0  0  0  0  0  0
   34.6980   29.8160   32.2600 C   0  0  0  0  0  0  0  0  0  0  0  0
   34.2670   30.7080   33.1910 N   0  0  0  0  0  0  0  0  0  0  0  0
   34.7910   30.3440   34.3780 C   0  0  0  0  0  0  0  0  0  0  0  0
   35.5410   29.2450   34.2140 N   0  0  0  0  0  0  0  0  0  0  0  0
   34.4310   29.8610   31.2050 H   0  0  0  0  0  0  0  0  0  0  0  0
   33.6510   31.5010   32.9730 H   0  0  0  0  0  0  0  0  0  0  0  0
   34.5410   31.0780   35.6130 C   0  0  0  0  0  0  0  0  0  0  0  0
   35.4190   31.8000   36.3920 C   0  0  0  0  0  0  0  0  0  0  0  0
   36.4810   31.9250   36.1710 H   0  0  0  0  0  0  0  0  0  0  0  0
   34.7710   32.3170   37.4460 N   0  0  0  0  0  0  0  0  0  0  0  0
   35.1760   32.9100   38.2090 H   0  0  0  0  0  0  0  0  0  0  0  0
   33.4720   31.9200   37.3360 C   0  0  0  0  0  0  0  0  0  0  0  0
   32.7380   32.2240   38.0950 H   0  0  0  0  0  0  0  0  0  0  0  0
   33.3440   31.1690   36.2210 N   0  0  0  0  0  0  0  0  0  0  0  0
  1  4  1  1  0  0  0
  2  6  1  0  0  0  0
  2  3  1  0  0  0  0
  2  1  1  0  0  0  0
  3  7  1  6  0  0  0
  3  1  1  0  0  0  0
  3 24  1  0  0  0  0
  5  2  1  0  0  0  0
  8  9  1  0  0  0  0
  9 13  1  0  0  0  0
  9 10  2  0  0  0  0
 10 14  1  0  0  0  0
 11  1  1  0  0  0  0
 11 10  1  0  0  0  0
 12  8  2  0  0  0  0
 12 11  1  0  0  0  0
 15 21  1  0  0  0  0
 16  8  1  0  0  0  0
 16 15  2  0  0  0  0
 17 16  1  0  0  0  0
 18 17  2  0  0  0  0
 18 19  1  0  0  0  0
 19 20  2  0  0  0  0
 20 15  1  0  0  0  0
 22 17  1  0  0  0  0
 23 19  1  0  0  0  0
 24 28  1  0  0  0  0
 25 24  2  0  0  0  0
 25 26  1  0  0  0  0
 26 27  1  0  0  0  0
 27 31  1  0  0  0  0
 28 27  2  0  0  0  0
 29 25  1  0  0  0  0
 30 26  1  0  0  0  0
 31 38  1  0  0  0  0
 31 32  2  0  0  0  0
 32 34  1  0  0  0  0
 33 32  1  0  0  0  0
 34 35  1  0  0  0  0
 36 34  1  0  0  0  0
 36 37  1  0  0  0  0
 38 36  2  0  0  0  0
M  END
>  <minimizedAffinity>
-5.33367968

$$$$

 OpenBabel03272500493D

 38 42  0  0  1  0  0  0  0  0999 V2000
   36.8620   27.0050   32.7750 C   0  0  1  0  0  0  0  0  0  0  0  0
   37.8910   26.9870   31.5940 C   0  0  0  0  0  0  0  0  0  0  0  0
   38.3150   27.0590   33.0150 C   0  0  2  0  0  0  0  0  0  0  0  0
   36.3220   26.0660   32.9500 H   0  0  0  0  0  0  0  0  0  0  0  0
   37.8880   27.9060   30.9620 H   0  0  0  0  0  0  0  0  0  0  0  0
   37.9780   26.0220   31.0620 H   0  0  0  0  0  0  0  0  0  0  0  0
   38.7060   28.0130   33.3640 H   0  0  0  0  0  0  0  0  0  0  0  0
   35.2510   30.0410   33.8530 C   0  0  0  0  0  0  0  0  0  0  0  0
   34.6990   29.9030   32.5800 C   0  0  0  0  0  0  0  0  0  0  0  0
   35.2350   28.7380   32.0020 C   0  0  0  0  0  0  0  0  0  0  0  0
   36.0730   28.2170   32.9190 N   0  0  0  0  0  0  0  0  0  0  0  0
   36.0560   28.9970   33.9750 N   0  0  0  0  0  0  0  0  0  0  0  0
   33.9780   30.5330   32.0440 H   0  0  0  0  0  0  0  0  0  0  0  0
   35.0010   28.3590   31.0160 H   0  0  0  0  0  0  0  0  0  0  0  0
   33.8970   32.0550   34.4610 C   0  0  0  0  0  0  0  0  0  0  0  0
   34.9280   31.1260   34.7360 C   0  0  0  0  0  0  0  0  0  0  0  0
   35.6410   31.2920   35.9180 C   0  0  0  0  0  0  0  0  0  0  0  0
   35.3120   32.3320   36.7380 N   0  0  0  0  0  0  0  0  0  0  0  0
   34.3160   33.1970   36.4290 C   0  0  0  0  0  0  0  0  0  0  0  0
   33.5950   33.0590   35.2730 N   0  0  0  0  0  0  0  0  0  0  0  0
   33.3430   31.9270   33.5450 H   0  0  0  0  0  0  0  0  0  0  0  0
   36.4470   30.6440   36.2310 H   0  0  0  0  0  0  0  0  0  0  0  0
   34.1450   33.9840   37.1570 H   0  0  0  0  0  0  0  0  0  0  0  0
   38.9880   25.8680   33.6300 C   0  0  0  0  0  0  0  0  0  0  0  0
   39.8460   25.0040   32.9270 C   0  0  0  0  0  0  0  0  0  0  0  0
   40.2660   24.0440   33.7950 N   0  0  0  0  0  0  0  0  0  0  0  0
   39.6950   24.2940   34.9890 C   0  0  0  0  0  0  0  0  0  0  0  0
   38.9270   25.3900   34.8930 N   0  0  0  0  0  0  0  0  0  0  0  0
   40.1490   25.0530   31.8820 H   0  0  0  0  0  0  0  0  0  0  0  0
   40.9060   23.2840   33.5320 H   0  0  0  0  0  0  0  0  0  0  0  0
   39.9210   23.4630   36.1650 C   0  0  0  0  0  0  0  0  0  0  0  0
   39.0730   23.1950   37.2190 C   0  0  0  0  0  0  0  0  0  0  0  0
   38.0620   23.5940   37.3150 H   0  0  0  0  0  0  0  0  0  0  0  0
   39.6810   22.3790   38.0930 N   0  0  0  0  0  0  0  0  0  0  0  0
   39.2860   22.0030   38.9870 H   0  0  0  0  0  0  0  0  0  0  0  0
   40.9230   22.1270   37.5910 C   0  0  0  0  0  0  0  0  0  0  0  0
   41.6150   21.4740   38.1380 H   0  0  0  0  0  0  0  0  0  0  0  0
   41.0570   22.7890   36.4220 N   0  0  0  0  0  0  0  0  0  0  0  0
  1 11  1  0  0  0  0
  1  4  1  1  0  0  0
  1  3  1  0  0  0  0
  2  1  1  0  0  0  0
  2  3  1  0  0  0  0
  3  7  1  1  0  0  0
  3 24  1  0  0  0  0
  5  2  1  0  0  0  0
  6  2  1  0  0  0  0
  8 12  2  0  0  0  0
  8 16  1  0  0  0  0
  9  8  1  0  0  0  0
 10  9  2  0  0  0  0
 10 11  1  0  0  0  0
 11 12  1  0  0  0  0
 13  9  1  0  0  0  0
 14 10  1  0  0  0  0
 15 16  2  0  0  0  0
 15 20  1  0  0  0  0
 16 17  1  0  0  0  0
 17 22  1  0  0  0  0
 17 18  2  0  0  0  0
 19 18  1  0  0  0  0
 19 23  1  0  0  0  0
 20 19  2  0  0  0  0
 21 15  1  0  0  0  0
 24 28  1  0  0  0  0
 25 24  2  0  0  0  0
 25 26  1  0  0  0  0
 26 27  1  0  0  0  0
 27 31  1  0  0  0  0
 28 27  2  0  0  0  0
 29 25  1  0  0  0  0
 30 26  1  0  0  0  0
 31 38  1  0  0  0  0
 31 32  2  0  0  0  0
 32 33  1  0  0  0  0
 32 34  1  0  0  0  0
 34 35  1  0  0  0  0
 36 34  1  0  0  0  0
 36 37  1  0  0  0  0
 38 36  2  0  0  0  0
M  END
>  <minimizedAffinity>
-5.29018021

$$$$
