
 OpenBabel03272504133D

 30 31  0  0  0  0  0  0  0  0999 V2000
   38.1810   30.9360   47.5780 Cl  0  0  0  0  0 10  0  0  0  0  0  0
   36.8790   30.6320   46.4220 C   0  0  0  0  0  0  0  0  0  0  0  0
   35.6450   30.1120   46.8110 C   0  0  0  0  0  0  0  0  0  0  0  0
   34.7230   29.9210   45.8340 C   0  0  0  0  0  0  0  0  0  0  0  0
   34.9850   30.2220   44.5210 C   0  0  0  0  0  0  0  0  0  0  0  0
   36.1930   30.7350   44.1130 C   0  0  0  0  0  0  0  0  0  0  0  0
   37.1310   30.9290   45.1070 C   0  0  0  0  0  0  0  0  0  0  0  0
   33.7530   29.5140   46.1260 H   0  0  0  0  0  0  0  0  0  0  0  0
   34.2320   30.0600   43.7600 H   0  0  0  0  0  0  0  0  0  0  0  0
   36.4160   30.9800   43.0710 H   0  0  0  0  0  0  0  0  0  0  0  0
   36.2830   29.6040   50.4740 C   0  0  0  0  0  0  0  0  0  0  0  0
   36.4860   29.8870   49.1280 C   0  0  0  0  0  0  0  0  0  0  0  0
   35.4490   29.8200   48.2150 C   0  0  0  0  0  0  0  0  0  0  0  0
   34.2330   29.4640   48.7210 N   0  0  0  0  0  0  0  0  0  0  0  0
   34.0510   29.1930   50.0210 C   0  0  0  0  0  0  0  0  0  0  0  0
   35.0750   29.2660   50.8800 N   0  0  0  0  0  0  0  0  0  0  0  0
   37.4710   30.1600   48.8070 H   0  0  0  0  0  0  0  0  0  0  0  0
   33.0450   28.9170   50.3370 H   0  0  0  0  0  0  0  0  0  0  0  0
   37.4390   29.6890   51.4280 C   0  0  0  0  0  0  0  0  0  0  0  0
   36.9860   30.1000   52.6620 F   0  0  0  0  0  0  0  0  0  0  0  0
   38.0550   28.4740   51.4410 F   0  0  0  0  0  0  0  0  0  0  0  0
   38.3060   30.6590   50.9400 F   0  0  0  0  0  0  0  0  0  0  0  0
   38.4260   31.4730   44.7160 C   0  0  0  0  0  0  0  0  0  0  0  0
   38.7890   32.7970   44.5810 C   0  0  0  0  0  0  0  0  0  0  0  0
   38.1200   33.6290   44.7610 H   0  0  0  0  0  0  0  0  0  0  0  0
   40.0770   32.8210   44.2030 N   0  0  0  0  0  0  0  0  0  0  0  0
   40.6470   33.6930   44.0180 H   0  0  0  0  0  0  0  0  0  0  0  0
   40.5530   31.5820   44.0890 C   0  0  0  0  0  0  0  0  0  0  0  0
   41.5250   31.1980   43.8110 H   0  0  0  0  0  0  0  0  0  0  0  0
   39.5410   30.7640   44.4030 N   0  0  0  0  0  0  0  0  0  0  0  0
  2  3  1  0  0  0  0
  3 13  1  0  0  0  0
  4  8  1  0  0  0  0
  4  3  2  0  0  0  0
  5  4  1  0  0  0  0
  6  5  2  0  0  0  0
  6  7  1  0  0  0  0
  7  2  2  0  0  0  0
  9  5  1  0  0  0  0
 10  6  1  0  0  0  0
 11 16  1  0  0  0  0
 11 19  1  0  0  0  0
 12 11  2  0  0  0  0
 13 14  2  0  0  0  0
 13 12  1  0  0  0  0
 14 15  1  0  0  0  0
 15 18  1  0  0  0  0
 15 16  2  0  0  0  0
 17 12  1  0  0  0  0
 19 21  1  0  0  0  0
 19 20  1  0  0  0  0
 22 19  1  0  0  0  0
 23  7  1  0  0  0  0
 24 23  2  0  0  0  0
 24 25  1  0  0  0  0
 26 24  1  0  0  0  0
 27 26  1  0  0  0  0
 28 26  1  0  0  0  0
 28 30  2  0  0  0  0
 29 28  1  0  0  0  0
 30 23  1  0  0  0  0
M  END
>  <minimizedAffinity>
-6.37388086

>  <minimizedRMSD>
3.54174924

$$$$
