
 OpenBabel03272510323D

 27 29  0  0  0  0  0  0  0  0999 V2000
   35.9320   30.0400   47.8990 C   0  0  0  0  0  0  0  0  0  0  0  0
   35.1650   30.0240   46.7670 C   0  0  0  0  0  0  0  0  0  0  0  0
   34.1190   29.1340   46.6080 C   0  0  0  0  0  0  0  0  0  0  0  0
   33.8660   28.2500   47.6440 C   0  0  0  0  0  0  0  0  0  0  0  0
   34.6180   28.2400   48.7990 C   0  0  0  0  0  0  0  0  0  0  0  0
   35.6560   29.1440   48.9180 C   0  0  0  0  0  0  0  0  0  0  0  0
   35.3370   30.7050   45.9330 H   0  0  0  0  0  0  0  0  0  0  0  0
   33.4920   29.0960   45.7200 H   0  0  0  0  0  0  0  0  0  0  0  0
   33.0570   27.5140   47.5980 H   0  0  0  0  0  0  0  0  0  0  0  0
   34.4050   27.5440   49.5890 H   0  0  0  0  0  0  0  0  0  0  0  0
   37.9330   32.8390   49.0720 C   0  0  0  0  0  0  0  0  0  0  0  0
   39.0100   32.8920   48.1920 C   0  0  0  0  0  0  0  0  0  0  0  0
   39.0460   31.9340   47.1650 C   0  0  0  0  0  0  0  0  0  0  0  0
   38.0380   31.0370   47.1060 N   0  0  0  0  0  0  0  0  0  0  0  0
   37.0090   31.0120   47.9730 C   0  0  0  0  0  0  0  0  0  0  0  0
   36.9600   31.9230   48.9650 N   0  0  0  0  0  0  0  0  0  0  0  0
   37.9730   33.6090   49.8400 H   0  0  0  0  0  0  0  0  0  0  0  0
   39.8260   33.5820   48.2020 H   0  0  0  0  0  0  0  0  0  0  0  0
   39.8350   31.8760   46.4180 H   0  0  0  0  0  0  0  0  0  0  0  0
   36.4800   29.1740   50.1230 C   0  0  0  0  0  0  0  0  0  0  0  0
   35.9250   29.6370   51.3020 C   0  0  0  0  0  0  0  0  0  0  0  0
   34.9140   30.0090   51.5120 H   0  0  0  0  0  0  0  0  0  0  0  0
   36.8690   29.5710   52.2620 N   0  0  0  0  0  0  0  0  0  0  0  0
   36.7900   29.8400   53.2650 H   0  0  0  0  0  0  0  0  0  0  0  0
   38.0120   29.0750   51.7120 C   0  0  0  0  0  0  0  0  0  0  0  0
   38.9760   28.8850   52.1880 H   0  0  0  0  0  0  0  0  0  0  0  0
   37.7710   28.8350   50.4090 N   0  0  0  0  0  0  0  0  0  0  0  0
  1 15  1  0  0  0  0
  1  6  1  0  0  0  0
  2  1  2  0  0  0  0
  3  2  1  0  0  0  0
  3  4  2  0  0  0  0
  4  5  1  0  0  0  0
  5  6  2  0  0  0  0
  5 10  1  0  0  0  0
  6 20  1  0  0  0  0
  7  2  1  0  0  0  0
  8  3  1  0  0  0  0
  9  4  1  0  0  0  0
 11 17  1  0  0  0  0
 12 18  1  0  0  0  0
 12 11  2  0  0  0  0
 13 12  1  0  0  0  0
 14 13  2  0  0  0  0
 14 15  1  0  0  0  0
 15 16  2  0  0  0  0
 16 11  1  0  0  0  0
 19 13  1  0  0  0  0
 20 27  1  0  0  0  0
 20 21  2  0  0  0  0
 21 22  1  0  0  0  0
 21 23  1  0  0  0  0
 23 24  1  0  0  0  0
 25 26  1  0  0  0  0
 25 23  1  0  0  0  0
 27 25  2  0  0  0  0
M  END
>  <minimizedAffinity>
-4.76606846

>  <minimizedRMSD>
0.8013798

$$$$
