
 OpenBabel03272502103D

 25 27  0  0  0  0  0  0  0  0999 V2000
   37.9350   31.8710   49.1230 C   0  0  0  0  0  0  0  0  0  0  0  0
   38.3750   33.0560   49.6640 C   0  0  0  0  0  0  0  0  0  0  0  0
   39.2280   33.9490   49.0050 C   0  0  0  0  0  0  0  0  0  0  0  0
   39.6320   33.6060   47.7570 N   0  0  0  0  0  0  0  0  0  0  0  0
   39.2010   32.4420   47.2190 C   0  0  0  0  0  0  0  0  0  0  0  0
   38.3870   31.6220   47.8890 N   0  0  0  0  0  0  0  0  0  0  0  0
   38.0810   33.3710   50.6530 H   0  0  0  0  0  0  0  0  0  0  0  0
   39.5490   34.8630   49.4590 H   0  0  0  0  0  0  0  0  0  0  0  0
   37.3690   30.3310   51.0200 C   0  0  0  0  0  0  0  0  0  0  0  0
   37.0630   30.9790   49.8240 C   0  0  0  0  0  0  0  0  0  0  0  0
   35.8020   30.7270   49.2840 C   0  0  0  0  0  0  0  0  0  0  0  0
   34.9570   29.8830   49.9300 N   0  0  0  0  0  0  0  0  0  0  0  0
   35.3060   29.2730   51.1030 C   0  0  0  0  0  0  0  0  0  0  0  0
   36.5200   29.5050   51.6410 N   0  0  0  0  0  0  0  0  0  0  0  0
   38.3530   30.5200   51.4550 H   0  0  0  0  0  0  0  0  0  0  0  0
   35.5180   31.2060   48.3550 H   0  0  0  0  0  0  0  0  0  0  0  0
   34.5030   28.6500   51.4520 H   0  0  0  0  0  0  0  0  0  0  0  0
   39.6820   32.1460   45.8710 C   0  0  0  0  0  0  0  0  0  0  0  0
   40.4880   31.0490   45.6370 C   0  0  0  0  0  0  0  0  0  0  0  0
   40.8620   30.3020   46.3250 H   0  0  0  0  0  0  0  0  0  0  0  0
   40.7900   31.0040   44.3200 N   0  0  0  0  0  0  0  0  0  0  0  0
   41.3930   30.2780   43.8300 H   0  0  0  0  0  0  0  0  0  0  0  0
   40.1810   32.0640   43.7220 C   0  0  0  0  0  0  0  0  0  0  0  0
   40.2420   32.2850   42.6790 H   0  0  0  0  0  0  0  0  0  0  0  0
   39.5040   32.7580   44.6790 N   0  0  0  0  0  0  0  0  0  0  0  0
  1  2  1  0  0  0  0
  1 10  1  0  0  0  0
  2  7  1  0  0  0  0
  3  8  1  0  0  0  0
  3  2  2  0  0  0  0
  4  3  1  0  0  0  0
  5  4  2  0  0  0  0
  5  6  1  0  0  0  0
  6  1  2  0  0  0  0
  9 15  1  0  0  0  0
  9 14  1  0  0  0  0
 10  9  2  0  0  0  0
 11 10  1  0  0  0  0
 11 12  2  0  0  0  0
 12 13  1  0  0  0  0
 13 17  1  0  0  0  0
 13 14  2  0  0  0  0
 16 11  1  0  0  0  0
 18  5  1  0  0  0  0
 19 18  2  0  0  0  0
 19 20  1  0  0  0  0
 21 19  1  0  0  0  0
 22 21  1  0  0  0  0
 23 21  1  0  0  0  0
 23 25  2  0  0  0  0
 24 23  1  0  0  0  0
 25 18  1  0  0  0  0
M  END
>  <minimizedAffinity>
-5.77572584

>  <minimizedRMSD>
0.597324014

$$$$
