
 OpenBabel03272507023D

 45 48  0  0  1  0  0  0  0  0999 V2000
   36.4930   23.0730   31.2990 C   0  0  2  0  0  0  0  0  0  0  0  0
   37.6300   23.7080   32.0300 C   0  0  0  0  0  0  0  0  0  0  0  0
   37.1800   24.9010   32.8350 C   0  0  2  0  0  0  0  0  0  0  0  0
   36.5420   25.9480   31.9790 C   0  0  0  0  0  0  0  0  0  0  0  0
   35.5690   25.3720   30.9840 C   0  0  0  0  0  0  0  0  0  0  0  0
   35.2440   23.9200   31.2700 C   0  0  0  0  0  0  0  0  0  0  0  0
   36.6960   22.8690   30.2060 H   0  0  0  0  0  0  0  0  0  0  0  0
   38.3150   23.9910   31.2010 H   0  0  0  0  0  0  0  0  0  0  0  0
   38.2140   23.1050   32.7180 H   0  0  0  0  0  0  0  0  0  0  0  0
   36.4320   24.5410   33.5650 H   0  0  0  0  0  0  0  0  0  0  0  0
   36.0580   26.6960   32.6300 H   0  0  0  0  0  0  0  0  0  0  0  0
   37.3690   26.4470   31.4110 H   0  0  0  0  0  0  0  0  0  0  0  0
   34.6450   25.9440   30.9000 H   0  0  0  0  0  0  0  0  0  0  0  0
   36.0210   25.3710   29.9570 H   0  0  0  0  0  0  0  0  0  0  0  0
   34.5740   23.5320   30.5080 H   0  0  0  0  0  0  0  0  0  0  0  0
   34.7730   23.8040   32.2710 H   0  0  0  0  0  0  0  0  0  0  0  0
   38.3070   25.3840   33.5340 N   0  0  1  0  0  0  0  0  0  0  0  0
   38.3200   26.7920   33.7730 C   0  0  0  0  0  0  0  0  0  0  0  0
   39.7800   26.9760   34.1990 C   0  0  0  0  0  0  0  0  0  0  0  0
   39.9410   25.7530   35.0660 C   0  0  0  0  0  0  0  0  0  0  0  0
   38.9500   24.6980   34.4790 C   0  0  1  0  0  0  0  0  0  0  0  0
   38.1220   27.3850   32.8420 H   0  0  0  0  0  0  0  0  0  0  0  0
   37.6720   27.1090   34.6100 H   0  0  0  0  0  0  0  0  0  0  0  0
   40.4100   26.8840   33.2970 H   0  0  0  0  0  0  0  0  0  0  0  0
   39.9150   27.9200   34.7530 H   0  0  0  0  0  0  0  0  0  0  0  0
   39.6060   26.0700   36.0760 H   0  0  0  0  0  0  0  0  0  0  0  0
   40.9700   25.3680   35.0830 H   0  0  0  0  0  0  0  0  0  0  0  0
   39.6260   23.9630   33.9860 H   0  0  0  0  0  0  0  0  0  0  0  0
   38.4440   24.0780   35.6870 C   0  0  0  0  0  0  0  0  0  0  0  0
   38.1220   22.7300   35.9010 C   0  0  0  0  0  0  0  0  0  0  0  0
   38.2190   21.9920   35.0880 H   0  0  0  0  0  0  0  0  0  0  0  0
   37.7310   22.6250   37.1570 N   0  0  0  0  0  0  0  0  0  0  0  0
   37.4480   21.6550   37.4820 H   0  0  0  0  0  0  0  0  0  0  0  0
   37.7750   23.8090   37.7780 C   0  0  0  0  0  0  0  0  0  0  0  0
   37.4720   23.8150   38.8090 H   0  0  0  0  0  0  0  0  0  0  0  0
   38.2120   24.7070   36.8820 N   0  0  0  0  0  0  0  0  0  0  0  0
   36.1300   21.7510   31.8490 C   0  0  0  0  0  0  0  0  0  0  0  0
   36.0330   20.7250   30.9100 C   0  0  0  0  0  0  0  0  0  0  0  0
   35.7030   19.4510   31.3890 C   0  0  0  0  0  0  0  0  0  0  0  0
   35.4920   19.2790   32.7460 N   0  0  0  0  0  0  0  0  0  0  0  0
   35.5980   20.3170   33.6250 C   0  0  0  0  0  0  0  0  0  0  0  0
   35.9110   21.5140   33.1640 N   0  0  0  0  0  0  0  0  0  0  0  0
   36.1270   20.5810   29.8540 H   0  0  0  0  0  0  0  0  0  0  0  0
   35.5710   18.5140   30.8850 H   0  0  0  0  0  0  0  0  0  0  0  0
   35.4220   20.1250   34.6790 H   0  0  0  0  0  0  0  0  0  0  0  0
  1  7  1  6  0  0  0
  1 37  1  0  0  0  0
  1  2  1  0  0  0  0
  2  9  1  0  0  0  0
  2  3  1  0  0  0  0
  3 17  1  0  0  0  0
  3 10  1  1  0  0  0
  4 11  1  0  0  0  0
  4  3  1  0  0  0  0
  5  6  1  0  0  0  0
  5  4  1  0  0  0  0
  6  1  1  0  0  0  0
  6 16  1  0  0  0  0
  8  2  1  0  0  0  0
 12  4  1  0  0  0  0
 13  5  1  0  0  0  0
 14  5  1  0  0  0  0
 15  6  1  0  0  0  0
 17 18  1  1  0  0  0
 17 21  1  0  0  0  0
 18 19  1  0  0  0  0
 18 23  1  0  0  0  0
 19 25  1  0  0  0  0
 19 20  1  0  0  0  0
 20 27  1  0  0  0  0
 20 26  1  0  0  0  0
 21 28  1  6  0  0  0
 21 20  1  0  0  0  0
 21 29  1  0  0  0  0
 22 18  1  0  0  0  0
 24 19  1  0  0  0  0
 29 30  2  0  0  0  0
 29 36  1  0  0  0  0
 30 32  1  0  0  0  0
 31 30  1  0  0  0  0
 32 33  1  0  0  0  0
 32 34  1  0  0  0  0
 34 35  1  0  0  0  0
 36 34  2  0  0  0  0
 37 42  1  0  0  0  0
 38 39  1  0  0  0  0
 38 37  2  0  0  0  0
 39 40  2  0  0  0  0
 40 41  1  0  0  0  0
 41 45  1  0  0  0  0
 42 41  2  0  0  0  0
 43 38  1  0  0  0  0
 44 39  1  0  0  0  0
M  END
>  <minimizedAffinity>
-5.89587021

$$$$

 OpenBabel03272507023D

 45 48  0  0  1  0  0  0  0  0999 V2000
   37.6300   26.8290   33.0750 C   0  0  2  0  0  0  0  0  0  0  0  0
   39.0390   26.3400   33.1160 C   0  0  0  0  0  0  0  0  0  0  0  0
   39.4170   25.8410   34.4890 C   0  0  2  0  0  0  0  0  0  0  0  0
   39.2680   26.9010   35.5330 C   0  0  0  0  0  0  0  0  0  0  0  0
   37.9780   27.6690   35.4010 C   0  0  0  0  0  0  0  0  0  0  0  0
   37.0110   27.0100   34.4390 C   0  0  0  0  0  0  0  0  0  0  0  0
   37.5020   27.8440   32.5930 H   0  0  0  0  0  0  0  0  0  0  0  0
   39.6130   27.2450   32.8230 H   0  0  0  0  0  0  0  0  0  0  0  0
   39.3420   25.5510   32.4340 H   0  0  0  0  0  0  0  0  0  0  0  0
   38.7340   25.0070   34.7350 H   0  0  0  0  0  0  0  0  0  0  0  0
   39.3600   26.4370   36.5290 H   0  0  0  0  0  0  0  0  0  0  0  0
   40.1180   27.6160   35.3880 H   0  0  0  0  0  0  0  0  0  0  0  0
   37.4810   27.8500   36.3540 H   0  0  0  0  0  0  0  0  0  0  0  0
   38.1760   28.6830   34.9630 H   0  0  0  0  0  0  0  0  0  0  0  0
   36.1140   27.6150   34.3410 H   0  0  0  0  0  0  0  0  0  0  0  0
   36.7330   25.9900   34.7850 H   0  0  0  0  0  0  0  0  0  0  0  0
   40.7360   25.3420   34.4060 N   0  0  1  0  0  0  0  0  0  0  0  0
   41.7610   26.2650   34.7750 C   0  0  0  0  0  0  0  0  0  0  0  0
   42.9890   25.5270   34.2340 C   0  0  0  0  0  0  0  0  0  0  0  0
   42.6330   24.1200   34.6440 C   0  0  0  0  0  0  0  0  0  0  0  0
   41.0720   24.0760   34.6520 C   0  0  1  0  0  0  0  0  0  0  0  0
   41.6550   27.2520   34.2540 H   0  0  0  0  0  0  0  0  0  0  0  0
   41.8820   26.3860   35.8670 H   0  0  0  0  0  0  0  0  0  0  0  0
   42.9790   25.6140   33.1340 H   0  0  0  0  0  0  0  0  0  0  0  0
   43.9140   25.8950   34.7100 H   0  0  0  0  0  0  0  0  0  0  0  0
   43.0240   24.0130   35.6770 H   0  0  0  0  0  0  0  0  0  0  0  0
   43.0500   23.3560   33.9720 H   0  0  0  0  0  0  0  0  0  0  0  0
   40.8310   23.4640   33.7540 H   0  0  0  0  0  0  0  0  0  0  0  0
   40.8160   23.2550   35.8180 C   0  0  0  0  0  0  0  0  0  0  0  0
   39.5950   23.0320   36.4710 C   0  0  0  0  0  0  0  0  0  0  0  0
   38.6730   23.5270   36.1250 H   0  0  0  0  0  0  0  0  0  0  0  0
   39.8380   22.1930   37.4610 N   0  0  0  0  0  0  0  0  0  0  0  0
   39.0060   21.9200   38.0600 H   0  0  0  0  0  0  0  0  0  0  0  0
   41.1300   21.8520   37.5000 C   0  0  0  0  0  0  0  0  0  0  0  0
   41.4170   21.1680   38.2770 H   0  0  0  0  0  0  0  0  0  0  0  0
   41.7390   22.5000   36.4930 N   0  0  0  0  0  0  0  0  0  0  0  0
   36.7430   25.9460   32.2890 C   0  0  0  0  0  0  0  0  0  0  0  0
   37.0220   24.5850   32.3900 C   0  0  0  0  0  0  0  0  0  0  0  0
   36.1990   23.7090   31.6710 C   0  0  0  0  0  0  0  0  0  0  0  0
   35.1690   24.2320   30.9090 N   0  0  0  0  0  0  0  0  0  0  0  0
   34.9380   25.5750   30.8420 C   0  0  0  0  0  0  0  0  0  0  0  0
   35.7190   26.3920   31.5240 N   0  0  0  0  0  0  0  0  0  0  0  0
   37.7240   23.9340   32.8700 H   0  0  0  0  0  0  0  0  0  0  0  0
   36.2020   22.6410   31.5830 H   0  0  0  0  0  0  0  0  0  0  0  0
   34.1160   25.9300   30.2280 H   0  0  0  0  0  0  0  0  0  0  0  0
  1  7  1  6  0  0  0
  1  2  1  0  0  0  0
  1  6  1  0  0  0  0
  2  3  1  0  0  0  0
  3 10  1  1  0  0  0
  3  4  1  0  0  0  0
  4 11  1  0  0  0  0
  5  4  1  0  0  0  0
  5 13  1  0  0  0  0
  6 16  1  0  0  0  0
  6  5  1  0  0  0  0
  8  2  1  0  0  0  0
  9  2  1  0  0  0  0
 12  4  1  0  0  0  0
 14  5  1  0  0  0  0
 15  6  1  0  0  0  0
 17  3  1  0  0  0  0
 17 21  1  0  0  0  0
 17 18  1  1  0  0  0
 18 23  1  0  0  0  0
 19 20  1  0  0  0  0
 19 25  1  0  0  0  0
 19 18  1  0  0  0  0
 20 21  1  0  0  0  0
 20 26  1  0  0  0  0
 21 28  1  6  0  0  0
 21 29  1  0  0  0  0
 22 18  1  0  0  0  0
 24 19  1  0  0  0  0
 27 20  1  0  0  0  0
 29 30  2  0  0  0  0
 29 36  1  0  0  0  0
 30 32  1  0  0  0  0
 31 30  1  0  0  0  0
 32 34  1  0  0  0  0
 32 33  1  0  0  0  0
 34 35  1  0  0  0  0
 36 34  2  0  0  0  0
 37 38  1  0  0  0  0
 37  1  1  0  0  0  0
 38 43  1  0  0  0  0
 39 38  2  0  0  0  0
 40 39  1  0  0  0  0
 41 40  2  0  0  0  0
 41 42  1  0  0  0  0
 42 37  2  0  0  0  0
 44 39  1  0  0  0  0
 45 41  1  0  0  0  0
M  END
>  <minimizedAffinity>
-5.62216091

$$$$

 OpenBabel03272507023D

 45 48  0  0  1  0  0  0  0  0999 V2000
   39.4580   26.1230   35.2250 C   0  0  2  0  0  0  0  0  0  0  0  0
   38.6570   26.8660   34.2080 C   0  0  0  0  0  0  0  0  0  0  0  0
   39.2980   26.8130   32.8440 C   0  0  2  0  0  0  0  0  0  0  0  0
   40.6790   27.3850   32.8490 C   0  0  0  0  0  0  0  0  0  0  0  0
   41.4980   26.9160   34.0230 C   0  0  0  0  0  0  0  0  0  0  0  0
   40.8460   25.7620   34.7570 C   0  0  0  0  0  0  0  0  0  0  0  0
   39.6450   26.6960   36.1810 H   0  0  0  0  0  0  0  0  0  0  0  0
   38.6400   27.8960   34.6260 H   0  0  0  0  0  0  0  0  0  0  0  0
   37.6210   26.5850   34.0460 H   0  0  0  0  0  0  0  0  0  0  0  0
   39.3600   25.7470   32.5530 H   0  0  0  0  0  0  0  0  0  0  0  0
   41.1700   27.1420   31.8920 H   0  0  0  0  0  0  0  0  0  0  0  0
   40.5650   28.4970   32.9230 H   0  0  0  0  0  0  0  0  0  0  0  0
   42.5220   26.6500   33.7600 H   0  0  0  0  0  0  0  0  0  0  0  0
   41.5820   27.7340   34.7870 H   0  0  0  0  0  0  0  0  0  0  0  0
   41.4460   25.4820   35.6180 H   0  0  0  0  0  0  0  0  0  0  0  0
   40.7230   24.8800   34.0900 H   0  0  0  0  0  0  0  0  0  0  0  0
   38.4360   27.4820   31.9480 N   0  0  1  0  0  0  0  0  0  0  0  0
   39.0210   27.8520   30.7000 C   0  0  0  0  0  0  0  0  0  0  0  0
   37.9530   28.8200   30.1830 C   0  0  0  0  0  0  0  0  0  0  0  0
   36.7140   28.0620   30.5880 C   0  0  0  0  0  0  0  0  0  0  0  0
   37.1280   27.2420   31.8510 C   0  0  1  0  0  0  0  0  0  0  0  0
   39.9930   28.3960   30.8280 H   0  0  0  0  0  0  0  0  0  0  0  0
   39.1080   27.0160   29.9820 H   0  0  0  0  0  0  0  0  0  0  0  0
   38.0320   29.7540   30.7660 H   0  0  0  0  0  0  0  0  0  0  0  0
   38.0380   28.9580   29.0920 H   0  0  0  0  0  0  0  0  0  0  0  0
   36.5040   27.3780   29.7400 H   0  0  0  0  0  0  0  0  0  0  0  0
   35.8580   28.7180   30.8010 H   0  0  0  0  0  0  0  0  0  0  0  0
   36.6070   27.7720   32.6800 H   0  0  0  0  0  0  0  0  0  0  0  0
   36.4240   25.9960   31.6240 C   0  0  0  0  0  0  0  0  0  0  0  0
   35.2630   25.7810   30.8690 C   0  0  0  0  0  0  0  0  0  0  0  0
   34.7500   26.6210   30.3720 H   0  0  0  0  0  0  0  0  0  0  0  0
   35.0060   24.4860   30.9210 N   0  0  0  0  0  0  0  0  0  0  0  0
   34.1470   24.1560   30.3930 H   0  0  0  0  0  0  0  0  0  0  0  0
   35.9180   23.8420   31.6570 C   0  0  0  0  0  0  0  0  0  0  0  0
   35.7860   22.7800   31.7530 H   0  0  0  0  0  0  0  0  0  0  0  0
   36.7930   24.7620   32.0940 N   0  0  0  0  0  0  0  0  0  0  0  0
   38.7950   24.8820   35.6760 C   0  0  0  0  0  0  0  0  0  0  0  0
   38.1860   24.9560   36.9270 C   0  0  0  0  0  0  0  0  0  0  0  0
   37.5350   23.8060   37.3900 C   0  0  0  0  0  0  0  0  0  0  0  0
   37.5310   22.6730   36.5950 N   0  0  0  0  0  0  0  0  0  0  0  0
   38.1430   22.6510   35.3750 C   0  0  0  0  0  0  0  0  0  0  0  0
   38.7540   23.7410   34.9490 N   0  0  0  0  0  0  0  0  0  0  0  0
   38.0490   25.6600   37.7220 H   0  0  0  0  0  0  0  0  0  0  0  0
   37.0000   23.6070   38.2970 H   0  0  0  0  0  0  0  0  0  0  0  0
   38.1090   21.7360   34.7930 H   0  0  0  0  0  0  0  0  0  0  0  0
  1 37  1  0  0  0  0
  1  7  1  1  0  0  0
  2  8  1  0  0  0  0
  2  1  1  0  0  0  0
  3 10  1  6  0  0  0
  3  4  1  0  0  0  0
  3  2  1  0  0  0  0
  4 12  1  0  0  0  0
  4  5  1  0  0  0  0
  5  6  1  0  0  0  0
  5 14  1  0  0  0  0
  6  1  1  0  0  0  0
  6 15  1  0  0  0  0
  9  2  1  0  0  0  0
 11  4  1  0  0  0  0
 13  5  1  0  0  0  0
 16  6  1  0  0  0  0
 17 18  1  6  0  0  0
 17  3  1  0  0  0  0
 18 22  1  0  0  0  0
 19 20  1  0  0  0  0
 19 18  1  0  0  0  0
 19 24  1  0  0  0  0
 20 27  1  0  0  0  0
 20 21  1  0  0  0  0
 21 17  1  0  0  0  0
 21 28  1  1  0  0  0
 23 18  1  0  0  0  0
 25 19  1  0  0  0  0
 26 20  1  0  0  0  0
 29 21  1  0  0  0  0
 29 36  1  0  0  0  0
 30 32  1  0  0  0  0
 30 29  2  0  0  0  0
 31 30  1  0  0  0  0
 32 34  1  0  0  0  0
 33 32  1  0  0  0  0
 34 35  1  0  0  0  0
 34 36  2  0  0  0  0
 37 38  1  0  0  0  0
 38 39  2  0  0  0  0
 38 43  1  0  0  0  0
 39 44  1  0  0  0  0
 40 39  1  0  0  0  0
 41 40  2  0  0  0  0
 42 41  1  0  0  0  0
 42 37  2  0  0  0  0
 45 41  1  0  0  0  0
M  END
>  <minimizedAffinity>
-5.49092102

$$$$

 OpenBabel03272507023D

 45 48  0  0  1  0  0  0  0  0999 V2000
   39.2190   25.7280   32.1270 C   0  0  2  0  0  0  0  0  0  0  0  0
   39.9580   24.5980   32.7640 C   0  0  0  0  0  0  0  0  0  0  0  0
   40.2410   24.8660   34.2210 C   0  0  2  0  0  0  0  0  0  0  0  0
   41.0460   26.1110   34.4180 C   0  0  0  0  0  0  0  0  0  0  0  0
   40.5500   27.2620   33.5810 C   0  0  0  0  0  0  0  0  0  0  0  0
   39.1950   26.9840   32.9640 C   0  0  0  0  0  0  0  0  0  0  0  0
   39.6540   26.0770   31.1450 H   0  0  0  0  0  0  0  0  0  0  0  0
   40.8870   24.5500   32.1550 H   0  0  0  0  0  0  0  0  0  0  0  0
   39.5230   23.6040   32.7380 H   0  0  0  0  0  0  0  0  0  0  0  0
   39.2660   24.9960   34.7270 H   0  0  0  0  0  0  0  0  0  0  0  0
   41.0530   26.3670   35.4900 H   0  0  0  0  0  0  0  0  0  0  0  0
   42.0920   25.8710   34.0970 H   0  0  0  0  0  0  0  0  0  0  0  0
   40.5200   28.2090   34.1190 H   0  0  0  0  0  0  0  0  0  0  0  0
   41.2370   27.4290   32.7080 H   0  0  0  0  0  0  0  0  0  0  0  0
   38.8930   27.8180   32.3370 H   0  0  0  0  0  0  0  0  0  0  0  0
   38.4240   26.8140   33.7480 H   0  0  0  0  0  0  0  0  0  0  0  0
   40.8790   23.7200   34.7430 N   0  0  1  0  0  0  0  0  0  0  0  0
   42.2450   23.8980   35.1160 C   0  0  0  0  0  0  0  0  0  0  0  0
   42.6690   22.4360   35.2780 C   0  0  0  0  0  0  0  0  0  0  0  0
   41.4430   21.8970   35.9710 C   0  0  0  0  0  0  0  0  0  0  0  0
   40.2630   22.7920   35.4760 C   0  0  1  0  0  0  0  0  0  0  0  0
   42.8510   24.3790   34.3050 H   0  0  0  0  0  0  0  0  0  0  0  0
   42.3800   24.4080   36.0880 H   0  0  0  0  0  0  0  0  0  0  0  0
   42.7570   21.9950   34.2690 H   0  0  0  0  0  0  0  0  0  0  0  0
   43.5840   22.3530   35.8890 H   0  0  0  0  0  0  0  0  0  0  0  0
   41.6250   22.0690   37.0530 H   0  0  0  0  0  0  0  0  0  0  0  0
   41.2570   20.8350   35.7560 H   0  0  0  0  0  0  0  0  0  0  0  0
   39.7020   22.1150   34.7930 H   0  0  0  0  0  0  0  0  0  0  0  0
   39.4820   22.9300   36.6880 C   0  0  0  0  0  0  0  0  0  0  0  0
   39.8970   22.7390   38.0130 C   0  0  0  0  0  0  0  0  0  0  0  0
   40.9270   22.4230   38.2410 H   0  0  0  0  0  0  0  0  0  0  0  0
   38.8570   23.0070   38.7820 N   0  0  0  0  0  0  0  0  0  0  0  0
   39.0070   22.9080   39.8280 H   0  0  0  0  0  0  0  0  0  0  0  0
   37.7930   23.3570   38.0520 C   0  0  0  0  0  0  0  0  0  0  0  0
   36.8990   23.5930   38.5990 H   0  0  0  0  0  0  0  0  0  0  0  0
   38.1680   23.3130   36.7630 N   0  0  0  0  0  0  0  0  0  0  0  0
   37.8220   25.3790   31.7960 C   0  0  0  0  0  0  0  0  0  0  0  0
   36.9900   26.4620   31.5190 C   0  0  0  0  0  0  0  0  0  0  0  0
   35.6590   26.1770   31.1880 C   0  0  0  0  0  0  0  0  0  0  0  0
   35.2460   24.8570   31.1530 N   0  0  0  0  0  0  0  0  0  0  0  0
   36.1000   23.8300   31.4330 C   0  0  0  0  0  0  0  0  0  0  0  0
   37.3530   24.1100   31.7440 N   0  0  0  0  0  0  0  0  0  0  0  0
   37.0350   27.5310   31.4840 H   0  0  0  0  0  0  0  0  0  0  0  0
   34.8360   26.8160   30.9370 H   0  0  0  0  0  0  0  0  0  0  0  0
   35.7220   22.8140   31.3910 H   0  0  0  0  0  0  0  0  0  0  0  0
  1  7  1  6  0  0  0
  1  2  1  0  0  0  0
  1  6  1  0  0  0  0
  2  3  1  0  0  0  0
  3  4  1  0  0  0  0
  3 10  1  1  0  0  0
  3 17  1  0  0  0  0
  4 11  1  0  0  0  0
  5 13  1  0  0  0  0
  5  4  1  0  0  0  0
  6  5  1  0  0  0  0
  6 16  1  0  0  0  0
  8  2  1  0  0  0  0
  9  2  1  0  0  0  0
 12  4  1  0  0  0  0
 14  5  1  0  0  0  0
 15  6  1  0  0  0  0
 17 18  1  1  0  0  0
 17 21  1  0  0  0  0
 18 19  1  0  0  0  0
 18 23  1  0  0  0  0
 19 25  1  0  0  0  0
 19 20  1  0  0  0  0
 20 26  1  0  0  0  0
 21 28  1  6  0  0  0
 21 20  1  0  0  0  0
 21 29  1  0  0  0  0
 22 18  1  0  0  0  0
 24 19  1  0  0  0  0
 27 20  1  0  0  0  0
 29 36  1  0  0  0  0
 29 30  2  0  0  0  0
 30 31  1  0  0  0  0
 30 32  1  0  0  0  0
 32 33  1  0  0  0  0
 34 35  1  0  0  0  0
 34 32  1  0  0  0  0
 36 34  2  0  0  0  0
 37  1  1  0  0  0  0
 38 37  2  0  0  0  0
 39 38  1  0  0  0  0
 40 39  2  0  0  0  0
 40 41  1  0  0  0  0
 41 42  2  0  0  0  0
 42 37  1  0  0  0  0
 43 38  1  0  0  0  0
 44 39  1  0  0  0  0
 45 41  1  0  0  0  0
M  END
>  <minimizedAffinity>
-5.37869596

$$$$

 OpenBabel03272507023D

 45 48  0  0  1  0  0  0  0  0999 V2000
   35.5610   30.8420   32.2670 C   0  0  2  0  0  0  0  0  0  0  0  0
   35.6400   29.3530   32.3420 C   0  0  0  0  0  0  0  0  0  0  0  0
   36.8770   28.8240   31.6590 C   0  0  2  0  0  0  0  0  0  0  0  0
   36.9350   29.2150   30.2170 C   0  0  0  0  0  0  0  0  0  0  0  0
   36.5790   30.6620   29.9930 C   0  0  0  0  0  0  0  0  0  0  0  0
   36.5320   31.4510   31.2860 C   0  0  0  0  0  0  0  0  0  0  0  0
   34.5600   31.2390   31.9250 H   0  0  0  0  0  0  0  0  0  0  0  0
   34.7070   29.0400   31.8260 H   0  0  0  0  0  0  0  0  0  0  0  0
   35.6270   28.8740   33.3160 H   0  0  0  0  0  0  0  0  0  0  0  0
   37.7500   29.2630   32.1770 H   0  0  0  0  0  0  0  0  0  0  0  0
   37.9370   28.9800   29.8230 H   0  0  0  0  0  0  0  0  0  0  0  0
   36.1800   28.5830   29.6830 H   0  0  0  0  0  0  0  0  0  0  0  0
   37.2340   31.1650   29.2810 H   0  0  0  0  0  0  0  0  0  0  0  0
   35.5440   30.7440   29.5660 H   0  0  0  0  0  0  0  0  0  0  0  0
   36.2330   32.4760   31.0850 H   0  0  0  0  0  0  0  0  0  0  0  0
   37.5220   31.4480   31.7940 H   0  0  0  0  0  0  0  0  0  0  0  0
   36.8920   27.4240   31.8430 N   0  0  1  0  0  0  0  0  0  0  0  0
   37.5850   26.6840   30.8380 C   0  0  0  0  0  0  0  0  0  0  0  0
   37.0950   25.2700   31.1640 C   0  0  0  0  0  0  0  0  0  0  0  0
   37.1580   25.3280   32.6700 C   0  0  0  0  0  0  0  0  0  0  0  0
   36.9270   26.8280   33.0350 C   0  0  1  0  0  0  0  0  0  0  0  0
   37.2620   26.9650   29.8010 H   0  0  0  0  0  0  0  0  0  0  0  0
   38.6850   26.7040   30.9470 H   0  0  0  0  0  0  0  0  0  0  0  0
   36.0450   25.1910   30.8330 H   0  0  0  0  0  0  0  0  0  0  0  0
   37.7660   24.5090   30.7320 H   0  0  0  0  0  0  0  0  0  0  0  0
   38.1960   25.0270   32.9270 H   0  0  0  0  0  0  0  0  0  0  0  0
   36.4170   24.6790   33.1580 H   0  0  0  0  0  0  0  0  0  0  0  0
   35.8990   26.8290   33.4630 H   0  0  0  0  0  0  0  0  0  0  0  0
   37.8540   27.0000   34.1350 C   0  0  0  0  0  0  0  0  0  0  0  0
   37.6470   27.6740   35.3470 C   0  0  0  0  0  0  0  0  0  0  0  0
   36.6900   28.1810   35.5530 H   0  0  0  0  0  0  0  0  0  0  0  0
   38.7560   27.5440   36.0520 N   0  0  0  0  0  0  0  0  0  0  0  0
   38.7620   28.0050   37.0080 H   0  0  0  0  0  0  0  0  0  0  0  0
   39.6720   26.8340   35.3850 C   0  0  0  0  0  0  0  0  0  0  0  0
   40.6090   26.6780   35.8880 H   0  0  0  0  0  0  0  0  0  0  0  0
   39.1260   26.4950   34.2060 N   0  0  0  0  0  0  0  0  0  0  0  0
   35.7740   31.4900   33.5770 C   0  0  0  0  0  0  0  0  0  0  0  0
   36.1700   32.8250   33.5200 C   0  0  0  0  0  0  0  0  0  0  0  0
   36.3720   33.4830   34.7400 C   0  0  0  0  0  0  0  0  0  0  0  0
   36.1740   32.7860   35.9180 N   0  0  0  0  0  0  0  0  0  0  0  0
   35.7870   31.4770   35.9210 C   0  0  0  0  0  0  0  0  0  0  0  0
   35.5980   30.8660   34.7660 N   0  0  0  0  0  0  0  0  0  0  0  0
   36.3980   33.5730   32.7900 H   0  0  0  0  0  0  0  0  0  0  0  0
   36.6700   34.4880   34.9660 H   0  0  0  0  0  0  0  0  0  0  0  0
   35.6460   30.9790   36.8740 H   0  0  0  0  0  0  0  0  0  0  0  0
  1  7  1  6  0  0  0
  1  2  1  0  0  0  0
  1 37  1  0  0  0  0
  2  9  1  0  0  0  0
  3 17  1  0  0  0  0
  3 10  1  1  0  0  0
  3  2  1  0  0  0  0
  4  3  1  0  0  0  0
  5  4  1  0  0  0  0
  5  6  1  0  0  0  0
  6 16  1  0  0  0  0
  6  1  1  0  0  0  0
  8  2  1  0  0  0  0
 11  4  1  0  0  0  0
 12  4  1  0  0  0  0
 13  5  1  0  0  0  0
 14  5  1  0  0  0  0
 15  6  1  0  0  0  0
 17 18  1  6  0  0  0
 17 21  1  0  0  0  0
 18 23  1  0  0  0  0
 18 19  1  0  0  0  0
 19 20  1  0  0  0  0
 20 26  1  0  0  0  0
 20 21  1  0  0  0  0
 20 27  1  0  0  0  0
 21 28  1  1  0  0  0
 21 29  1  0  0  0  0
 22 18  1  0  0  0  0
 24 19  1  0  0  0  0
 25 19  1  0  0  0  0
 29 36  1  0  0  0  0
 29 30  2  0  0  0  0
 30 31  1  0  0  0  0
 30 32  1  0  0  0  0
 32 33  1  0  0  0  0
 34 35  1  0  0  0  0
 34 32  1  0  0  0  0
 36 34  2  0  0  0  0
 37 42  1  0  0  0  0
 38 37  2  0  0  0  0
 38 39  1  0  0  0  0
 39 44  1  0  0  0  0
 39 40  2  0  0  0  0
 40 41  1  0  0  0  0
 41 45  1  0  0  0  0
 42 41  2  0  0  0  0
 43 38  1  0  0  0  0
M  END
>  <minimizedAffinity>
-5.34951735

$$$$

 OpenBabel03272507023D

 45 48  0  0  1  0  0  0  0  0999 V2000
   37.0610   27.7750   31.7480 C   0  0  2  0  0  0  0  0  0  0  0  0
   36.5690   28.4730   32.9720 C   0  0  0  0  0  0  0  0  0  0  0  0
   35.5810   29.5620   32.6350 C   0  0  2  0  0  0  0  0  0  0  0  0
   36.1680   30.5910   31.7230 C   0  0  0  0  0  0  0  0  0  0  0  0
   36.9500   29.9840   30.5880 C   0  0  0  0  0  0  0  0  0  0  0  0
   36.7210   28.4910   30.4640 C   0  0  0  0  0  0  0  0  0  0  0  0
   38.1840   27.6610   31.6940 H   0  0  0  0  0  0  0  0  0  0  0  0
   37.5080   28.8760   33.4080 H   0  0  0  0  0  0  0  0  0  0  0  0
   36.0930   27.8900   33.7540 H   0  0  0  0  0  0  0  0  0  0  0  0
   34.7280   29.0830   32.1200 H   0  0  0  0  0  0  0  0  0  0  0  0
   35.3600   31.2430   31.3530 H   0  0  0  0  0  0  0  0  0  0  0  0
   36.8710   31.2050   32.3430 H   0  0  0  0  0  0  0  0  0  0  0  0
   36.7640   30.4630   29.6270 H   0  0  0  0  0  0  0  0  0  0  0  0
   38.0520   30.0930   30.7750 H   0  0  0  0  0  0  0  0  0  0  0  0
   37.3330   28.0860   29.6630 H   0  0  0  0  0  0  0  0  0  0  0  0
   35.6500   28.2650   30.2620 H   0  0  0  0  0  0  0  0  0  0  0  0
   35.1300   30.1110   33.8550 N   0  0  1  0  0  0  0  0  0  0  0  0
   35.6030   31.4270   34.1430 C   0  0  0  0  0  0  0  0  0  0  0  0
   35.2230   31.5270   35.6240 C   0  0  0  0  0  0  0  0  0  0  0  0
   33.8630   30.8770   35.5750 C   0  0  0  0  0  0  0  0  0  0  0  0
   33.9300   29.8700   34.3830 C   0  0  1  0  0  0  0  0  0  0  0  0
   36.7160   31.5150   34.0330 H   0  0  0  0  0  0  0  0  0  0  0  0
   35.0700   32.2250   33.5940 H   0  0  0  0  0  0  0  0  0  0  0  0
   35.9240   30.8930   36.1970 H   0  0  0  0  0  0  0  0  0  0  0  0
   35.1890   32.5780   35.9550 H   0  0  0  0  0  0  0  0  0  0  0  0
   33.1580   31.7020   35.3390 H   0  0  0  0  0  0  0  0  0  0  0  0
   33.5930   30.3700   36.5120 H   0  0  0  0  0  0  0  0  0  0  0  0
   33.9580   28.8790   34.8910 H   0  0  0  0  0  0  0  0  0  0  0  0
   32.6100   30.0230   33.8060 C   0  0  0  0  0  0  0  0  0  0  0  0
   32.2750   30.3890   32.4950 C   0  0  0  0  0  0  0  0  0  0  0  0
   33.0590   30.6270   31.7580 H   0  0  0  0  0  0  0  0  0  0  0  0
   30.9570   30.3690   32.4170 N   0  0  0  0  0  0  0  0  0  0  0  0
   30.5370   30.6260   31.4770 H   0  0  0  0  0  0  0  0  0  0  0  0
   30.4090   30.0160   33.5850 C   0  0  0  0  0  0  0  0  0  0  0  0
   29.3350   29.9740   33.6110 H   0  0  0  0  0  0  0  0  0  0  0  0
   31.4180   29.8020   34.4440 N   0  0  0  0  0  0  0  0  0  0  0  0
   36.5560   26.3900   31.6410 C   0  0  0  0  0  0  0  0  0  0  0  0
   37.3600   25.4190   32.2340 C   0  0  0  0  0  0  0  0  0  0  0  0
   36.9140   24.0930   32.1670 C   0  0  0  0  0  0  0  0  0  0  0  0
   35.7190   23.8200   31.5250 N   0  0  0  0  0  0  0  0  0  0  0  0
   34.9680   24.8080   30.9580 C   0  0  0  0  0  0  0  0  0  0  0  0
   35.3970   26.0550   31.0270 N   0  0  0  0  0  0  0  0  0  0  0  0
   38.2890   25.3460   32.7600 H   0  0  0  0  0  0  0  0  0  0  0  0
   37.3370   23.1800   32.5370 H   0  0  0  0  0  0  0  0  0  0  0  0
   34.0380   24.5370   30.4670 H   0  0  0  0  0  0  0  0  0  0  0  0
  1  7  1  1  0  0  0
  1  2  1  0  0  0  0
  2  8  1  0  0  0  0
  2  9  1  0  0  0  0
  3 10  1  6  0  0  0
  3  2  1  0  0  0  0
  3 17  1  0  0  0  0
  4 12  1  0  0  0  0
  4  3  1  0  0  0  0
  5 14  1  0  0  0  0
  5  4  1  0  0  0  0
  6  5  1  0  0  0  0
  6  1  1  0  0  0  0
 11  4  1  0  0  0  0
 13  5  1  0  0  0  0
 15  6  1  0  0  0  0
 16  6  1  0  0  0  0
 17 18  1  6  0  0  0
 17 21  1  0  0  0  0
 18 19  1  0  0  0  0
 19 25  1  0  0  0  0
 19 24  1  0  0  0  0
 20 19  1  0  0  0  0
 20 27  1  0  0  0  0
 21 28  1  1  0  0  0
 21 20  1  0  0  0  0
 22 18  1  0  0  0  0
 23 18  1  0  0  0  0
 26 20  1  0  0  0  0
 29 21  1  0  0  0  0
 29 36  1  0  0  0  0
 30 29  2  0  0  0  0
 31 30  1  0  0  0  0
 32 30  1  0  0  0  0
 32 34  1  0  0  0  0
 33 32  1  0  0  0  0
 34 35  1  0  0  0  0
 34 36  2  0  0  0  0
 37  1  1  0  0  0  0
 37 38  1  0  0  0  0
 38 43  1  0  0  0  0
 39 38  2  0  0  0  0
 39 44  1  0  0  0  0
 40 39  1  0  0  0  0
 41 42  1  0  0  0  0
 41 40  2  0  0  0  0
 42 37  2  0  0  0  0
 45 41  1  0  0  0  0
M  END
>  <minimizedAffinity>
-5.26616383

$$$$

 OpenBabel03272507023D

 45 48  0  0  1  0  0  0  0  0999 V2000
   38.5580   26.1110   35.5210 C   0  0  2  0  0  0  0  0  0  0  0  0
   37.4540   25.9090   34.5370 C   0  0  0  0  0  0  0  0  0  0  0  0
   37.9820   25.6460   33.1490 C   0  0  2  0  0  0  0  0  0  0  0  0
   38.8410   26.7650   32.6530 C   0  0  0  0  0  0  0  0  0  0  0  0
   39.8190   27.2520   33.6910 C   0  0  0  0  0  0  0  0  0  0  0  0
   39.9090   26.3180   34.8810 C   0  0  0  0  0  0  0  0  0  0  0  0
   38.4380   27.0230   36.1770 H   0  0  0  0  0  0  0  0  0  0  0  0
   36.9000   26.8710   34.6020 H   0  0  0  0  0  0  0  0  0  0  0  0
   36.7260   25.1240   34.7170 H   0  0  0  0  0  0  0  0  0  0  0  0
   38.5970   24.7280   33.2010 H   0  0  0  0  0  0  0  0  0  0  0  0
   39.3570   26.4390   31.7350 H   0  0  0  0  0  0  0  0  0  0  0  0
   38.1510   27.6100   32.3990 H   0  0  0  0  0  0  0  0  0  0  0  0
   40.8170   27.4370   33.2940 H   0  0  0  0  0  0  0  0  0  0  0  0
   39.4740   28.2310   34.1180 H   0  0  0  0  0  0  0  0  0  0  0  0
   40.5910   26.7250   35.6220 H   0  0  0  0  0  0  0  0  0  0  0  0
   40.2580   25.3070   34.5720 H   0  0  0  0  0  0  0  0  0  0  0  0
   36.8690   25.4040   32.3150 N   0  0  1  0  0  0  0  0  0  0  0  0
   36.7060   26.3230   31.2350 C   0  0  0  0  0  0  0  0  0  0  0  0
   35.2770   25.9770   30.8060 C   0  0  0  0  0  0  0  0  0  0  0  0
   35.3420   24.4740   30.9170 C   0  0  0  0  0  0  0  0  0  0  0  0
   36.3990   24.1890   32.0310 C   0  0  1  0  0  0  0  0  0  0  0  0
   36.7490   27.3920   31.5720 H   0  0  0  0  0  0  0  0  0  0  0  0
   37.3800   26.1330   30.3800 H   0  0  0  0  0  0  0  0  0  0  0  0
   34.5870   26.3820   31.5670 H   0  0  0  0  0  0  0  0  0  0  0  0
   35.0750   26.3260   29.7790 H   0  0  0  0  0  0  0  0  0  0  0  0
   35.7220   24.1280   29.9330 H   0  0  0  0  0  0  0  0  0  0  0  0
   34.3730   24.0170   31.1610 H   0  0  0  0  0  0  0  0  0  0  0  0
   35.7780   23.8400   32.8860 H   0  0  0  0  0  0  0  0  0  0  0  0
   37.0800   23.0310   31.4880 C   0  0  0  0  0  0  0  0  0  0  0  0
   38.0750   22.9930   30.5010 C   0  0  0  0  0  0  0  0  0  0  0  0
   38.4200   23.9200   30.0140 H   0  0  0  0  0  0  0  0  0  0  0  0
   38.4190   21.7270   30.3520 N   0  0  0  0  0  0  0  0  0  0  0  0
   39.1710   21.5260   29.6310 H   0  0  0  0  0  0  0  0  0  0  0  0
   37.7180   20.9360   31.1720 C   0  0  0  0  0  0  0  0  0  0  0  0
   37.9350   19.8850   31.1170 H   0  0  0  0  0  0  0  0  0  0  0  0
   36.8930   21.7290   31.8730 N   0  0  0  0  0  0  0  0  0  0  0  0
   38.6780   24.9940   36.4800 C   0  0  0  0  0  0  0  0  0  0  0  0
   39.5370   23.9680   36.0900 C   0  0  0  0  0  0  0  0  0  0  0  0
   39.6910   22.8930   36.9750 C   0  0  0  0  0  0  0  0  0  0  0  0
   38.9920   22.9030   38.1690 N   0  0  0  0  0  0  0  0  0  0  0  0
   38.1610   23.9330   38.5040 C   0  0  0  0  0  0  0  0  0  0  0  0
   38.0230   24.9410   37.6640 N   0  0  0  0  0  0  0  0  0  0  0  0
   40.1640   23.7050   35.2630 H   0  0  0  0  0  0  0  0  0  0  0  0
   40.2800   22.0000   36.9130 H   0  0  0  0  0  0  0  0  0  0  0  0
   37.6370   23.8890   39.4540 H   0  0  0  0  0  0  0  0  0  0  0  0
  1  7  1  1  0  0  0
  1 37  1  0  0  0  0
  2  8  1  0  0  0  0
  2  9  1  0  0  0  0
  2  1  1  0  0  0  0
  3 10  1  1  0  0  0
  3  2  1  0  0  0  0
  4  3  1  0  0  0  0
  4  5  1  0  0  0  0
  5 14  1  0  0  0  0
  5  6  1  0  0  0  0
  6  1  1  0  0  0  0
  6 15  1  0  0  0  0
 11  4  1  0  0  0  0
 12  4  1  0  0  0  0
 13  5  1  0  0  0  0
 16  6  1  0  0  0  0
 17 18  1  6  0  0  0
 17  3  1  0  0  0  0
 18 22  1  0  0  0  0
 19 20  1  0  0  0  0
 19 18  1  0  0  0  0
 19 24  1  0  0  0  0
 20 27  1  0  0  0  0
 20 21  1  0  0  0  0
 21 17  1  0  0  0  0
 21 28  1  1  0  0  0
 23 18  1  0  0  0  0
 25 19  1  0  0  0  0
 26 20  1  0  0  0  0
 29 36  1  0  0  0  0
 29 21  1  0  0  0  0
 30 29  2  0  0  0  0
 31 30  1  0  0  0  0
 32 30  1  0  0  0  0
 32 34  1  0  0  0  0
 33 32  1  0  0  0  0
 34 36  2  0  0  0  0
 35 34  1  0  0  0  0
 37 42  1  0  0  0  0
 38 37  2  0  0  0  0
 38 39  1  0  0  0  0
 39 40  2  0  0  0  0
 40 41  1  0  0  0  0
 41 45  1  0  0  0  0
 42 41  2  0  0  0  0
 43 38  1  0  0  0  0
 44 39  1  0  0  0  0
M  END
>  <minimizedAffinity>
-5.24471807

$$$$

 OpenBabel03272507023D

 45 48  0  0  1  0  0  0  0  0999 V2000
   38.1020   26.7510   32.3960 C   0  0  2  0  0  0  0  0  0  0  0  0
   37.6210   25.3840   32.7530 C   0  0  0  0  0  0  0  0  0  0  0  0
   38.4350   24.7790   33.8700 C   0  0  2  0  0  0  0  0  0  0  0  0
   39.8850   24.6800   33.5200 C   0  0  0  0  0  0  0  0  0  0  0  0
   40.4130   25.9330   32.8730 C   0  0  0  0  0  0  0  0  0  0  0  0
   39.4470   27.0940   32.9890 C   0  0  0  0  0  0  0  0  0  0  0  0
   38.2540   26.9190   31.2890 H   0  0  0  0  0  0  0  0  0  0  0  0
   37.7440   24.8320   31.7950 H   0  0  0  0  0  0  0  0  0  0  0  0
   36.5860   25.2510   33.0510 H   0  0  0  0  0  0  0  0  0  0  0  0
   38.3300   25.4430   34.7480 H   0  0  0  0  0  0  0  0  0  0  0  0
   40.4550   24.4240   34.4290 H   0  0  0  0  0  0  0  0  0  0  0  0
   39.9810   23.8390   32.7860 H   0  0  0  0  0  0  0  0  0  0  0  0
   41.3930   26.2340   33.2440 H   0  0  0  0  0  0  0  0  0  0  0  0
   40.5420   25.7730   31.7690 H   0  0  0  0  0  0  0  0  0  0  0  0
   39.8460   27.9640   32.4760 H   0  0  0  0  0  0  0  0  0  0  0  0
   39.2540   27.3500   34.0550 H   0  0  0  0  0  0  0  0  0  0  0  0
   37.8620   23.5250   34.1740 N   0  0  1  0  0  0  0  0  0  0  0  0
   38.0990   22.4970   33.2120 C   0  0  0  0  0  0  0  0  0  0  0  0
   37.0760   21.4560   33.6780 C   0  0  0  0  0  0  0  0  0  0  0  0
   37.2640   21.5750   35.1700 C   0  0  0  0  0  0  0  0  0  0  0  0
   37.7240   23.0480   35.4120 C   0  0  1  0  0  0  0  0  0  0  0  0
   37.8550   22.8240   32.1680 H   0  0  0  0  0  0  0  0  0  0  0  0
   39.1060   22.0460   33.2780 H   0  0  0  0  0  0  0  0  0  0  0  0
   36.0720   21.8180   33.3940 H   0  0  0  0  0  0  0  0  0  0  0  0
   37.3240   20.4550   33.2890 H   0  0  0  0  0  0  0  0  0  0  0  0
   38.0890   20.8720   35.4130 H   0  0  0  0  0  0  0  0  0  0  0  0
   36.3530   21.3420   35.7390 H   0  0  0  0  0  0  0  0  0  0  0  0
   36.8280   23.5190   35.8760 H   0  0  0  0  0  0  0  0  0  0  0  0
   38.7110   22.8710   36.4570 C   0  0  0  0  0  0  0  0  0  0  0  0
   38.5920   23.1710   37.8220 C   0  0  0  0  0  0  0  0  0  0  0  0
   37.6690   23.6210   38.2210 H   0  0  0  0  0  0  0  0  0  0  0  0
   39.7280   22.8140   38.3920 N   0  0  0  0  0  0  0  0  0  0  0  0
   39.8010   22.9780   39.4380 H   0  0  0  0  0  0  0  0  0  0  0  0
   40.5790   22.3030   37.4970 C   0  0  0  0  0  0  0  0  0  0  0  0
   41.5330   21.9840   37.8770 H   0  0  0  0  0  0  0  0  0  0  0  0
   39.9620   22.3340   36.3050 N   0  0  0  0  0  0  0  0  0  0  0  0
   37.1500   27.8100   32.7910 C   0  0  0  0  0  0  0  0  0  0  0  0
   36.6650   28.5910   31.7440 C   0  0  0  0  0  0  0  0  0  0  0  0
   35.7500   29.6000   32.0710 C   0  0  0  0  0  0  0  0  0  0  0  0
   35.3820   29.7670   33.3940 N   0  0  0  0  0  0  0  0  0  0  0  0
   35.8870   28.9760   34.3840 C   0  0  0  0  0  0  0  0  0  0  0  0
   36.7490   28.0270   34.0660 N   0  0  0  0  0  0  0  0  0  0  0  0
   36.7780   28.6880   30.6840 H   0  0  0  0  0  0  0  0  0  0  0  0
   35.2390   30.3210   31.4640 H   0  0  0  0  0  0  0  0  0  0  0  0
   35.5640   29.1510   35.4060 H   0  0  0  0  0  0  0  0  0  0  0  0
  1  7  1  6  0  0  0
  1  2  1  0  0  0  0
  1 37  1  0  0  0  0
  1  6  1  0  0  0  0
  2  9  1  0  0  0  0
  2  3  1  0  0  0  0
  3 17  1  0  0  0  0
  3 10  1  1  0  0  0
  4  3  1  0  0  0  0
  4 11  1  0  0  0  0
  5  6  1  0  0  0  0
  5 13  1  0  0  0  0
  5  4  1  0  0  0  0
  6 16  1  0  0  0  0
  8  2  1  0  0  0  0
 12  4  1  0  0  0  0
 14  5  1  0  0  0  0
 15  6  1  0  0  0  0
 17 18  1  6  0  0  0
 17 21  1  0  0  0  0
 18 23  1  0  0  0  0
 18 19  1  0  0  0  0
 19 20  1  0  0  0  0
 20 21  1  0  0  0  0
 20 26  1  0  0  0  0
 20 27  1  0  0  0  0
 21 28  1  1  0  0  0
 21 29  1  0  0  0  0
 22 18  1  0  0  0  0
 24 19  1  0  0  0  0
 25 19  1  0  0  0  0
 29 30  2  0  0  0  0
 30 31  1  0  0  0  0
 30 32  1  0  0  0  0
 32 33  1  0  0  0  0
 34 35  1  0  0  0  0
 34 32  1  0  0  0  0
 36 29  1  0  0  0  0
 36 34  2  0  0  0  0
 37 42  1  0  0  0  0
 38 39  1  0  0  0  0
 38 37  2  0  0  0  0
 39 40  2  0  0  0  0
 40 41  1  0  0  0  0
 41 45  1  0  0  0  0
 42 41  2  0  0  0  0
 43 38  1  0  0  0  0
 44 39  1  0  0  0  0
M  END
>  <minimizedAffinity>
-5.24415827

$$$$

 OpenBabel03272507023D

 45 48  0  0  1  0  0  0  0  0999 V2000
   36.8590   22.5460   32.2490 C   0  0  2  0  0  0  0  0  0  0  0  0
   37.3980   22.5290   33.6410 C   0  0  0  0  0  0  0  0  0  0  0  0
   38.9000   22.3850   33.6570 C   0  0  2  0  0  0  0  0  0  0  0  0
   39.3520   21.1340   32.9730 C   0  0  0  0  0  0  0  0  0  0  0  0
   38.6430   20.8980   31.6650 C   0  0  0  0  0  0  0  0  0  0  0  0
   37.8600   22.1120   31.2060 C   0  0  0  0  0  0  0  0  0  0  0  0
   35.9850   21.8500   32.0780 H   0  0  0  0  0  0  0  0  0  0  0  0
   36.8850   21.6470   34.0820 H   0  0  0  0  0  0  0  0  0  0  0  0
   37.1860   23.3670   34.2970 H   0  0  0  0  0  0  0  0  0  0  0  0
   39.3180   23.2530   33.1140 H   0  0  0  0  0  0  0  0  0  0  0  0
   40.4450   21.1770   32.8370 H   0  0  0  0  0  0  0  0  0  0  0  0
   39.1070   20.2850   33.6620 H   0  0  0  0  0  0  0  0  0  0  0  0
   39.3050   20.5670   30.8650 H   0  0  0  0  0  0  0  0  0  0  0  0
   37.8760   20.0870   31.7820 H   0  0  0  0  0  0  0  0  0  0  0  0
   37.3320   21.8870   30.2840 H   0  0  0  0  0  0  0  0  0  0  0  0
   38.5310   22.9850   31.0450 H   0  0  0  0  0  0  0  0  0  0  0  0
   39.3130   22.4460   35.0050 N   0  0  1  0  0  0  0  0  0  0  0  0
   40.6510   22.0150   35.2530 C   0  0  0  0  0  0  0  0  0  0  0  0
   40.6100   21.8850   36.7780 C   0  0  0  0  0  0  0  0  0  0  0  0
   39.8170   23.1240   37.1120 C   0  0  0  0  0  0  0  0  0  0  0  0
   38.9040   23.3750   35.8700 C   0  0  1  0  0  0  0  0  0  0  0  0
   40.8700   21.0150   34.7950 H   0  0  0  0  0  0  0  0  0  0  0  0
   41.4190   22.7660   34.9900 H   0  0  0  0  0  0  0  0  0  0  0  0
   40.0230   20.9830   37.0250 H   0  0  0  0  0  0  0  0  0  0  0  0
   41.6270   21.8940   37.2050 H   0  0  0  0  0  0  0  0  0  0  0  0
   40.5720   23.9330   37.2020 H   0  0  0  0  0  0  0  0  0  0  0  0
   39.2220   23.0210   38.0300 H   0  0  0  0  0  0  0  0  0  0  0  0
   37.8920   23.0960   36.2390 H   0  0  0  0  0  0  0  0  0  0  0  0
   38.9470   24.8200   35.7730 C   0  0  0  0  0  0  0  0  0  0  0  0
   38.1490   25.7580   36.4440 C   0  0  0  0  0  0  0  0  0  0  0  0
   37.3530   25.4300   37.1320 H   0  0  0  0  0  0  0  0  0  0  0  0
   38.5650   26.9530   36.0670 N   0  0  0  0  0  0  0  0  0  0  0  0
   38.0560   27.7830   36.4910 H   0  0  0  0  0  0  0  0  0  0  0  0
   39.5770   26.8610   35.1980 C   0  0  0  0  0  0  0  0  0  0  0  0
   39.9780   27.7910   34.8380 H   0  0  0  0  0  0  0  0  0  0  0  0
   39.8180   25.5540   35.0110 N   0  0  0  0  0  0  0  0  0  0  0  0
   36.3420   23.8730   31.8550 C   0  0  0  0  0  0  0  0  0  0  0  0
   37.1180   24.9560   32.2640 C   0  0  0  0  0  0  0  0  0  0  0  0
   36.6720   26.2340   31.9020 C   0  0  0  0  0  0  0  0  0  0  0  0
   35.5030   26.3530   31.1710 N   0  0  0  0  0  0  0  0  0  0  0  0
   34.7780   25.2590   30.7950 C   0  0  0  0  0  0  0  0  0  0  0  0
   35.2070   24.0600   31.1410 N   0  0  0  0  0  0  0  0  0  0  0  0
   38.0130   25.1490   32.8180 H   0  0  0  0  0  0  0  0  0  0  0  0
   37.0780   27.2080   32.0870 H   0  0  0  0  0  0  0  0  0  0  0  0
   33.8690   25.4110   30.2230 H   0  0  0  0  0  0  0  0  0  0  0  0
  1  7  1  6  0  0  0
  1  2  1  0  0  0  0
  2  3  1  0  0  0  0
  2  8  1  0  0  0  0
  2  9  1  0  0  0  0
  3 10  1  6  0  0  0
  3 17  1  0  0  0  0
  4  3  1  0  0  0  0
  4 12  1  0  0  0  0
  5 14  1  0  0  0  0
  5  4  1  0  0  0  0
  6  5  1  0  0  0  0
  6  1  1  0  0  0  0
 11  4  1  0  0  0  0
 13  5  1  0  0  0  0
 15  6  1  0  0  0  0
 16  6  1  0  0  0  0
 17 18  1  6  0  0  0
 17 21  1  0  0  0  0
 18 19  1  0  0  0  0
 19 24  1  0  0  0  0
 19 20  1  0  0  0  0
 19 25  1  0  0  0  0
 20 26  1  0  0  0  0
 20 27  1  0  0  0  0
 21 28  1  1  0  0  0
 21 20  1  0  0  0  0
 22 18  1  0  0  0  0
 23 18  1  0  0  0  0
 29 21  1  0  0  0  0
 29 30  2  0  0  0  0
 30 31  1  0  0  0  0
 32 30  1  0  0  0  0
 32 33  1  0  0  0  0
 34 32  1  0  0  0  0
 35 34  1  0  0  0  0
 36 34  2  0  0  0  0
 36 29  1  0  0  0  0
 37  1  1  0  0  0  0
 37 38  1  0  0  0  0
 38 43  1  0  0  0  0
 39 44  1  0  0  0  0
 39 38  2  0  0  0  0
 40 39  1  0  0  0  0
 41 42  1  0  0  0  0
 41 40  2  0  0  0  0
 42 37  2  0  0  0  0
 45 41  1  0  0  0  0
M  END
>  <minimizedAffinity>
-5.08643007

$$$$
