
 OpenBabel03272504143D

 30 32  0  0  0  0  0  0  0  0999 V2000
   38.5940   25.6110   33.6070 Cl  0  0  0  0  0  0  0  0  0  0  0  0
   37.7130   24.2100   32.9830 C   0  0  0  0  0  0  0  0  0  0  0  0
   37.7450   22.9690   33.6180 C   0  0  0  0  0  0  0  0  0  0  0  0
   37.0290   21.9680   33.0450 C   0  0  0  0  0  0  0  0  0  0  0  0
   36.3050   22.1590   31.8950 C   0  0  0  0  0  0  0  0  0  0  0  0
   36.2590   23.3730   31.2520 C   0  0  0  0  0  0  0  0  0  0  0  0
   36.9870   24.3920   31.8340 C   0  0  0  0  0  0  0  0  0  0  0  0
   37.0460   20.9910   33.5330 H   0  0  0  0  0  0  0  0  0  0  0  0
   35.7420   21.3450   31.4590 H   0  0  0  0  0  0  0  0  0  0  0  0
   35.6870   23.5410   30.3360 H   0  0  0  0  0  0  0  0  0  0  0  0
   38.8390   23.1830   37.2010 C   0  0  0  0  0  0  0  0  0  0  0  0
   38.0710   23.3050   36.0480 C   0  0  0  0  0  0  0  0  0  0  0  0
   38.5320   22.8500   34.8260 C   0  0  0  0  0  0  0  0  0  0  0  0
   39.7730   22.2820   34.8330 N   0  0  0  0  0  0  0  0  0  0  0  0
   40.5030   22.1710   35.9510 C   0  0  0  0  0  0  0  0  0  0  0  0
   40.0290   22.6220   37.1190 N   0  0  0  0  0  0  0  0  0  0  0  0
   37.1060   23.7630   36.1230 H   0  0  0  0  0  0  0  0  0  0  0  0
   41.4840   21.7030   35.8630 H   0  0  0  0  0  0  0  0  0  0  0  0
   38.2960   23.6920   38.5040 C   0  0  0  0  0  0  0  0  0  0  0  0
   37.8860   24.9980   38.3510 F   0  0  0  0  0  0  0  0  0  0  0  0
   37.3050   22.8440   38.9000 F   0  0  0  0  0  0  0  0  0  0  0  0
   39.3390   23.6700   39.4230 F   0  0  0  0  0  0  0  0  0  0  0  0
   36.9640   25.6960   31.1830 C   0  0  0  0  0  0  0  0  0  0  0  0
   35.8800   26.5210   30.9660 C   0  0  0  0  0  0  0  0  0  0  0  0
   34.8680   26.2840   31.2710 H   0  0  0  0  0  0  0  0  0  0  0  0
   36.3320   27.6150   30.3330 N   0  0  0  0  0  0  0  0  0  0  0  0
   35.7400   28.4380   30.0280 H   0  0  0  0  0  0  0  0  0  0  0  0
   37.6460   27.5300   30.1340 C   0  0  0  0  0  0  0  0  0  0  0  0
   38.3570   28.1980   29.6680 H   0  0  0  0  0  0  0  0  0  0  0  0
   38.0260   26.3570   30.6550 N   0  0  0  0  0  0  0  0  0  0  0  0
  2  1  1  0  0  0  0
  2  3  1  0  0  0  0
  3 13  1  0  0  0  0
  4  8  1  0  0  0  0
  4  3  2  0  0  0  0
  5  4  1  0  0  0  0
  6  7  1  0  0  0  0
  6  5  2  0  0  0  0
  7  2  2  0  0  0  0
  9  5  1  0  0  0  0
 10  6  1  0  0  0  0
 11 19  1  0  0  0  0
 12 17  1  0  0  0  0
 12 11  2  0  0  0  0
 13 14  2  0  0  0  0
 13 12  1  0  0  0  0
 14 15  1  0  0  0  0
 15 16  2  0  0  0  0
 16 11  1  0  0  0  0
 18 15  1  0  0  0  0
 19 21  1  0  0  0  0
 19 22  1  0  0  0  0
 20 19  1  0  0  0  0
 23  7  1  0  0  0  0
 24 23  2  0  0  0  0
 24 25  1  0  0  0  0
 26 24  1  0  0  0  0
 27 26  1  0  0  0  0
 28 26  1  0  0  0  0
 28 30  2  0  0  0  0
 29 28  1  0  0  0  0
 30 23  1  0  0  0  0
M  END
>  <minimizedAffinity>
-5.91474438

$$$$

 OpenBabel03272504143D

 30 32  0  0  0  0  0  0  0  0999 V2000
   38.0690   27.0750   33.5980 Cl  0  0  0  0  0  0  0  0  0  0  0  0
   37.2460   25.7640   32.7440 C   0  0  0  0  0  0  0  0  0  0  0  0
   37.4700   24.4220   33.0510 C   0  0  0  0  0  0  0  0  0  0  0  0
   36.7800   23.5040   32.3270 C   0  0  0  0  0  0  0  0  0  0  0  0
   35.9020   23.8700   31.3380 C   0  0  0  0  0  0  0  0  0  0  0  0
   35.6660   25.1860   31.0190 C   0  0  0  0  0  0  0  0  0  0  0  0
   36.3670   26.1200   31.7540 C   0  0  0  0  0  0  0  0  0  0  0  0
   36.9460   22.4490   32.5580 H   0  0  0  0  0  0  0  0  0  0  0  0
   35.3630   23.1190   30.7760 H   0  0  0  0  0  0  0  0  0  0  0  0
   34.9700   25.4930   30.2340 H   0  0  0  0  0  0  0  0  0  0  0  0
   38.9390   23.7470   36.4370 C   0  0  0  0  0  0  0  0  0  0  0  0
   38.0230   24.0380   35.4330 C   0  0  0  0  0  0  0  0  0  0  0  0
   38.4110   24.1190   34.1070 C   0  0  0  0  0  0  0  0  0  0  0  0
   39.7350   23.8950   33.8610 N   0  0  0  0  0  0  0  0  0  0  0  0
   40.6070   23.6150   34.8380 C   0  0  0  0  0  0  0  0  0  0  0  0
   40.2010   23.5440   36.1120 N   0  0  0  0  0  0  0  0  0  0  0  0
   37.0010   24.2020   35.7060 H   0  0  0  0  0  0  0  0  0  0  0  0
   41.6450   23.4500   34.5490 H   0  0  0  0  0  0  0  0  0  0  0  0
   38.4710   23.6700   37.8610 C   0  0  0  0  0  0  0  0  0  0  0  0
   37.3550   22.8660   37.9340 F   0  0  0  0  0  0  0  0  0  0  0  0
   39.5170   23.2330   38.6180 F   0  0  0  0  0  0  0  0  0  0  0  0
   38.1060   24.9540   38.2460 F   0  0  0  0  0  0  0  0  0  0  0  0
   36.1440   27.5280   31.4460 C   0  0  0  0  0  0  0  0  0  0  0  0
   36.6940   28.2740   30.4250 C   0  0  0  0  0  0  0  0  0  0  0  0
   37.3900   27.8800   29.6950 H   0  0  0  0  0  0  0  0  0  0  0  0
   36.2030   29.5180   30.5320 N   0  0  0  0  0  0  0  0  0  0  0  0
   36.4350   30.3280   29.8910 H   0  0  0  0  0  0  0  0  0  0  0  0
   35.3690   29.6040   31.5670 C   0  0  0  0  0  0  0  0  0  0  0  0
   34.7890   30.4230   31.9690 H   0  0  0  0  0  0  0  0  0  0  0  0
   35.3380   28.3870   32.1210 N   0  0  0  0  0  0  0  0  0  0  0  0
  2  3  1  0  0  0  0
  2  1  1  0  0  0  0
  3 13  1  0  0  0  0
  4  8  1  0  0  0  0
  4  3  2  0  0  0  0
  5  4  1  0  0  0  0
  6  5  2  0  0  0  0
  6  7  1  0  0  0  0
  7  2  2  0  0  0  0
  9  5  1  0  0  0  0
 10  6  1  0  0  0  0
 11 19  1  0  0  0  0
 12 17  1  0  0  0  0
 12 11  2  0  0  0  0
 13 12  1  0  0  0  0
 14 13  2  0  0  0  0
 14 15  1  0  0  0  0
 15 16  2  0  0  0  0
 16 11  1  0  0  0  0
 18 15  1  0  0  0  0
 19 20  1  0  0  0  0
 19 22  1  0  0  0  0
 19 21  1  0  0  0  0
 23  7  1  0  0  0  0
 23 30  1  0  0  0  0
 24 26  1  0  0  0  0
 24 23  2  0  0  0  0
 25 24  1  0  0  0  0
 26 28  1  0  0  0  0
 27 26  1  0  0  0  0
 28 29  1  0  0  0  0
 28 30  2  0  0  0  0
M  END
>  <minimizedAffinity>
-5.7701931

$$$$

 OpenBabel03272504143D

 30 32  0  0  0  0  0  0  0  0999 V2000
   37.3780   25.3880   32.6190 Cl  0  0  0  0  0  0  0  0  0  0  0  0
   38.9890   26.0050   33.0060 C   0  0  0  0  0  0  0  0  0  0  0  0
   39.7460   25.4970   34.0610 C   0  0  0  0  0  0  0  0  0  0  0  0
   40.9690   26.0510   34.2620 C   0  0  0  0  0  0  0  0  0  0  0  0
   41.4450   27.0640   33.4690 C   0  0  0  0  0  0  0  0  0  0  0  0
   40.7170   27.5820   32.4250 C   0  0  0  0  0  0  0  0  0  0  0  0
   39.4740   27.0190   32.2200 C   0  0  0  0  0  0  0  0  0  0  0  0
   41.5720   25.6610   35.0850 H   0  0  0  0  0  0  0  0  0  0  0  0
   42.4240   27.4890   33.6500 H   0  0  0  0  0  0  0  0  0  0  0  0
   41.0830   28.3890   31.7850 H   0  0  0  0  0  0  0  0  0  0  0  0
   38.4020   23.5210   36.9540 C   0  0  0  0  0  0  0  0  0  0  0  0
   38.9540   24.5570   36.2090 C   0  0  0  0  0  0  0  0  0  0  0  0
   39.1720   24.4280   34.8490 C   0  0  0  0  0  0  0  0  0  0  0  0
   38.8120   23.2310   34.3010 N   0  0  0  0  0  0  0  0  0  0  0  0
   38.2810   22.2410   35.0300 C   0  0  0  0  0  0  0  0  0  0  0  0
   38.0830   22.3960   36.3450 N   0  0  0  0  0  0  0  0  0  0  0  0
   39.2110   25.4670   36.7120 H   0  0  0  0  0  0  0  0  0  0  0  0
   38.0230   21.3190   34.5090 H   0  0  0  0  0  0  0  0  0  0  0  0
   38.1840   23.7080   38.4270 C   0  0  0  0  0  0  0  0  0  0  0  0
   37.8400   25.0180   38.6770 F   0  0  0  0  0  0  0  0  0  0  0  0
   37.2450   22.8040   38.8250 F   0  0  0  0  0  0  0  0  0  0  0  0
   39.3940   23.4500   39.0610 F   0  0  0  0  0  0  0  0  0  0  0  0
   38.6700   27.5390   31.1200 C   0  0  0  0  0  0  0  0  0  0  0  0
   38.7660   27.2390   29.7780 C   0  0  0  0  0  0  0  0  0  0  0  0
   39.4860   26.5450   29.3630 H   0  0  0  0  0  0  0  0  0  0  0  0
   37.8240   27.9530   29.1410 N   0  0  0  0  0  0  0  0  0  0  0  0
   37.6440   27.9420   28.0980 H   0  0  0  0  0  0  0  0  0  0  0  0
   37.1340   28.6930   30.0070 C   0  0  0  0  0  0  0  0  0  0  0  0
   36.3140   29.3860   29.8820 H   0  0  0  0  0  0  0  0  0  0  0  0
   37.6540   28.4360   31.2130 N   0  0  0  0  0  0  0  0  0  0  0  0
  1  2  1  0  0  0  0
  2  3  1  0  0  0  0
  3  4  2  0  0  0  0
  3 13  1  0  0  0  0
  4  8  1  0  0  0  0
  5  9  1  0  0  0  0
  5  4  1  0  0  0  0
  6  5  2  0  0  0  0
  7  6  1  0  0  0  0
  7  2  2  0  0  0  0
 10  6  1  0  0  0  0
 11 19  1  0  0  0  0
 12 17  1  0  0  0  0
 12 11  2  0  0  0  0
 13 12  1  0  0  0  0
 14 13  2  0  0  0  0
 14 15  1  0  0  0  0
 15 16  2  0  0  0  0
 16 11  1  0  0  0  0
 18 15  1  0  0  0  0
 19 20  1  0  0  0  0
 19 21  1  0  0  0  0
 19 22  1  0  0  0  0
 23 30  1  0  0  0  0
 23  7  1  0  0  0  0
 24 23  2  0  0  0  0
 25 24  1  0  0  0  0
 26 24  1  0  0  0  0
 26 28  1  0  0  0  0
 27 26  1  0  0  0  0
 28 30  2  0  0  0  0
 29 28  1  0  0  0  0
M  END
>  <minimizedAffinity>
-5.58774567

$$$$

 OpenBabel03272504143D

 30 32  0  0  0  0  0  0  0  0999 V2000
   38.8440   25.7680   35.2830 Cl  0  0  0  0  0  0  0  0  0  0  0  0
   38.2110   24.3730   34.4000 C   0  0  0  0  0  0  0  0  0  0  0  0
   37.8070   24.4580   33.0680 C   0  0  0  0  0  0  0  0  0  0  0  0
   37.3370   23.3200   32.4960 C   0  0  0  0  0  0  0  0  0  0  0  0
   37.2590   22.1380   33.1880 C   0  0  0  0  0  0  0  0  0  0  0  0
   37.6510   22.0310   34.5010 C   0  0  0  0  0  0  0  0  0  0  0  0
   38.1290   23.1870   35.0840 C   0  0  0  0  0  0  0  0  0  0  0  0
   37.0180   23.3730   31.4520 H   0  0  0  0  0  0  0  0  0  0  0  0
   36.8810   21.2450   32.7090 H   0  0  0  0  0  0  0  0  0  0  0  0
   37.5940   21.0970   35.0660 H   0  0  0  0  0  0  0  0  0  0  0  0
   37.0250   27.9030   31.8030 C   0  0  0  0  0  0  0  0  0  0  0  0
   36.9010   26.6740   32.4420 C   0  0  0  0  0  0  0  0  0  0  0  0
   37.9210   25.7410   32.4090 C   0  0  0  0  0  0  0  0  0  0  0  0
   39.0390   26.1070   31.7160 N   0  0  0  0  0  0  0  0  0  0  0  0
   39.1450   27.2940   31.1060 C   0  0  0  0  0  0  0  0  0  0  0  0
   38.1400   28.1760   31.1550 N   0  0  0  0  0  0  0  0  0  0  0  0
   35.9910   26.4600   32.9660 H   0  0  0  0  0  0  0  0  0  0  0  0
   40.0750   27.5020   30.5760 H   0  0  0  0  0  0  0  0  0  0  0  0
   35.8900   28.8840   31.8670 C   0  0  0  0  0  0  0  0  0  0  0  0
   34.7300   28.2220   32.2040 F   0  0  0  0  0  0  0  0  0  0  0  0
   36.2400   29.8660   32.7450 F   0  0  0  0  0  0  0  0  0  0  0  0
   35.7310   29.4160   30.5930 F   0  0  0  0  0  0  0  0  0  0  0  0
   38.5550   23.1160   36.4760 C   0  0  0  0  0  0  0  0  0  0  0  0
   39.7380   22.6170   36.9810 C   0  0  0  0  0  0  0  0  0  0  0  0
   40.5280   22.1990   36.3690 H   0  0  0  0  0  0  0  0  0  0  0  0
   39.6930   22.7560   38.3150 N   0  0  0  0  0  0  0  0  0  0  0  0
   40.4550   22.4660   38.9900 H   0  0  0  0  0  0  0  0  0  0  0  0
   38.5430   23.3180   38.6870 C   0  0  0  0  0  0  0  0  0  0  0  0
   38.1440   23.5870   39.6550 H   0  0  0  0  0  0  0  0  0  0  0  0
   37.8540   23.5340   37.5610 N   0  0  0  0  0  0  0  0  0  0  0  0
  2  7  1  0  0  0  0
  2  1  1  0  0  0  0
  3  2  2  0  0  0  0
  4  3  1  0  0  0  0
  4  5  2  0  0  0  0
  5  6  1  0  0  0  0
  6 10  1  0  0  0  0
  6  7  2  0  0  0  0
  7 23  1  0  0  0  0
  8  4  1  0  0  0  0
  9  5  1  0  0  0  0
 11 19  1  0  0  0  0
 11 12  1  0  0  0  0
 12 17  1  0  0  0  0
 13 12  2  0  0  0  0
 13  3  1  0  0  0  0
 14 13  1  0  0  0  0
 15 16  1  0  0  0  0
 15 14  2  0  0  0  0
 16 11  2  0  0  0  0
 18 15  1  0  0  0  0
 19 20  1  0  0  0  0
 19 21  1  0  0  0  0
 22 19  1  0  0  0  0
 23 24  2  0  0  0  0
 23 30  1  0  0  0  0
 24 26  1  0  0  0  0
 25 24  1  0  0  0  0
 26 28  1  0  0  0  0
 26 27  1  0  0  0  0
 28 29  1  0  0  0  0
 30 28  2  0  0  0  0
M  END
>  <minimizedAffinity>
-5.50600433

$$$$

 OpenBabel03272504143D

 30 32  0  0  0  0  0  0  0  0999 V2000
   39.6450   25.7810   32.0090 Cl  0  0  0  0  0  0  0  0  0  0  0  0
   38.9390   26.5120   33.4570 C   0  0  0  0  0  0  0  0  0  0  0  0
   39.6910   26.7690   34.6020 C   0  0  0  0  0  0  0  0  0  0  0  0
   39.0390   27.3330   35.6510 C   0  0  0  0  0  0  0  0  0  0  0  0
   37.7030   27.6380   35.5950 C   0  0  0  0  0  0  0  0  0  0  0  0
   36.9410   27.3940   34.4770 C   0  0  0  0  0  0  0  0  0  0  0  0
   37.6030   26.8210   33.4100 C   0  0  0  0  0  0  0  0  0  0  0  0
   39.6170   27.5390   36.5540 H   0  0  0  0  0  0  0  0  0  0  0  0
   37.2060   28.0880   36.4450 H   0  0  0  0  0  0  0  0  0  0  0  0
   35.8760   27.6320   34.4180 H   0  0  0  0  0  0  0  0  0  0  0  0
   42.9360   24.9940   35.2370 C   0  0  0  0  0  0  0  0  0  0  0  0
   41.5840   25.3190   35.2660 C   0  0  0  0  0  0  0  0  0  0  0  0
   41.0940   26.4170   34.5800 C   0  0  0  0  0  0  0  0  0  0  0  0
   42.0160   27.1430   33.8840 N   0  0  0  0  0  0  0  0  0  0  0  0
   43.3160   26.8180   33.8630 C   0  0  0  0  0  0  0  0  0  0  0  0
   43.7600   25.7500   34.5390 N   0  0  0  0  0  0  0  0  0  0  0  0
   40.9220   24.7000   35.8360 H   0  0  0  0  0  0  0  0  0  0  0  0
   43.9810   27.4540   33.2800 H   0  0  0  0  0  0  0  0  0  0  0  0
   43.4210   23.7940   35.9970 C   0  0  0  0  0  0  0  0  0  0  0  0
   44.1490   22.9820   35.1560 F   0  0  0  0  0  0  0  0  0  0  0  0
   44.1230   24.2440   37.0760 F   0  0  0  0  0  0  0  0  0  0  0  0
   42.2990   23.0890   36.4170 F   0  0  0  0  0  0  0  0  0  0  0  0
   36.8310   26.5460   32.2050 C   0  0  0  0  0  0  0  0  0  0  0  0
   36.6670   27.3490   31.0960 C   0  0  0  0  0  0  0  0  0  0  0  0
   37.1180   28.3280   30.9860 H   0  0  0  0  0  0  0  0  0  0  0  0
   35.8760   26.6880   30.2370 N   0  0  0  0  0  0  0  0  0  0  0  0
   35.5640   27.0430   29.2900 H   0  0  0  0  0  0  0  0  0  0  0  0
   35.5260   25.5060   30.7410 C   0  0  0  0  0  0  0  0  0  0  0  0
   34.9090   24.7040   30.3580 H   0  0  0  0  0  0  0  0  0  0  0  0
   36.1110   25.4250   31.9410 N   0  0  0  0  0  0  0  0  0  0  0  0
  1  2  1  0  0  0  0
  2  3  1  0  0  0  0
  3  4  2  0  0  0  0
  4  8  1  0  0  0  0
  5  4  1  0  0  0  0
  5  9  1  0  0  0  0
  6  5  2  0  0  0  0
  7  2  2  0  0  0  0
  7  6  1  0  0  0  0
 10  6  1  0  0  0  0
 11 12  1  0  0  0  0
 11 19  1  0  0  0  0
 12 17  1  0  0  0  0
 13  3  1  0  0  0  0
 13 12  2  0  0  0  0
 14 13  1  0  0  0  0
 15 14  2  0  0  0  0
 15 16  1  0  0  0  0
 16 11  2  0  0  0  0
 18 15  1  0  0  0  0
 19 22  1  0  0  0  0
 19 21  1  0  0  0  0
 20 19  1  0  0  0  0
 23  7  1  0  0  0  0
 24 23  2  0  0  0  0
 25 24  1  0  0  0  0
 26 28  1  0  0  0  0
 26 24  1  0  0  0  0
 27 26  1  0  0  0  0
 28 30  2  0  0  0  0
 29 28  1  0  0  0  0
 30 23  1  0  0  0  0
M  END
>  <minimizedAffinity>
-5.44146776

$$$$

 OpenBabel03272504143D

 30 32  0  0  0  0  0  0  0  0999 V2000
   38.6950   25.3810   34.1780 Cl  0  0  0  0  0  0  0  0  0  0  0  0
   37.8690   23.9120   33.6420 C   0  0  0  0  0  0  0  0  0  0  0  0
   37.9070   22.7270   34.3760 C   0  0  0  0  0  0  0  0  0  0  0  0
   37.2350   21.6650   33.8640 C   0  0  0  0  0  0  0  0  0  0  0  0
   36.5480   21.7450   32.6790 C   0  0  0  0  0  0  0  0  0  0  0  0
   36.4960   22.9010   31.9380 C   0  0  0  0  0  0  0  0  0  0  0  0
   37.1800   23.9820   32.4580 C   0  0  0  0  0  0  0  0  0  0  0  0
   37.2570   20.7310   34.4290 H   0  0  0  0  0  0  0  0  0  0  0  0
   36.0190   20.8840   32.2920 H   0  0  0  0  0  0  0  0  0  0  0  0
   35.9530   22.9800   30.9930 H   0  0  0  0  0  0  0  0  0  0  0  0
   40.6250   22.1790   36.9040 C   0  0  0  0  0  0  0  0  0  0  0  0
   39.9200   22.1730   35.7070 C   0  0  0  0  0  0  0  0  0  0  0  0
   38.6540   22.7250   35.6150 C   0  0  0  0  0  0  0  0  0  0  0  0
   38.1580   23.2670   36.7650 N   0  0  0  0  0  0  0  0  0  0  0  0
   38.8490   23.2660   37.9130 C   0  0  0  0  0  0  0  0  0  0  0  0
   40.0710   22.7230   37.9700 N   0  0  0  0  0  0  0  0  0  0  0  0
   40.3770   21.7290   34.8460 H   0  0  0  0  0  0  0  0  0  0  0  0
   38.3740   23.7210   38.7830 H   0  0  0  0  0  0  0  0  0  0  0  0
   41.9950   21.5670   36.9550 C   0  0  0  0  0  0  0  0  0  0  0  0
   42.1540   20.7100   35.8880 F   0  0  0  0  0  0  0  0  0  0  0  0
   42.9020   22.5840   36.9860 F   0  0  0  0  0  0  0  0  0  0  0  0
   42.0730   20.8220   38.1250 F   0  0  0  0  0  0  0  0  0  0  0  0
   37.1490   25.2280   31.7030 C   0  0  0  0  0  0  0  0  0  0  0  0
   38.0290   25.6590   30.7330 C   0  0  0  0  0  0  0  0  0  0  0  0
   38.8900   25.0900   30.4010 H   0  0  0  0  0  0  0  0  0  0  0  0
   37.6070   26.8620   30.3160 N   0  0  0  0  0  0  0  0  0  0  0  0
   38.0740   27.4550   29.5740 H   0  0  0  0  0  0  0  0  0  0  0  0
   36.5040   27.2220   30.9710 C   0  0  0  0  0  0  0  0  0  0  0  0
   35.8800   28.1040   30.9170 H   0  0  0  0  0  0  0  0  0  0  0  0
   36.2290   26.2210   31.8150 N   0  0  0  0  0  0  0  0  0  0  0  0
  2  1  1  0  0  0  0
  2  3  1  0  0  0  0
  3 13  1  0  0  0  0
  4  3  2  0  0  0  0
  4  8  1  0  0  0  0
  5  4  1  0  0  0  0
  6  7  1  0  0  0  0
  6  5  2  0  0  0  0
  7  2  2  0  0  0  0
  9  5  1  0  0  0  0
 10  6  1  0  0  0  0
 11 19  1  0  0  0  0
 11 16  1  0  0  0  0
 12 11  2  0  0  0  0
 13 12  1  0  0  0  0
 13 14  2  0  0  0  0
 14 15  1  0  0  0  0
 15 16  2  0  0  0  0
 15 18  1  0  0  0  0
 17 12  1  0  0  0  0
 19 21  1  0  0  0  0
 19 22  1  0  0  0  0
 20 19  1  0  0  0  0
 23 30  1  0  0  0  0
 23  7  1  0  0  0  0
 24 23  2  0  0  0  0
 25 24  1  0  0  0  0
 26 24  1  0  0  0  0
 26 28  1  0  0  0  0
 27 26  1  0  0  0  0
 28 30  2  0  0  0  0
 29 28  1  0  0  0  0
M  END
>  <minimizedAffinity>
-5.38185024

$$$$

 OpenBabel03272504143D

 30 32  0  0  0  0  0  0  0  0999 V2000
   36.3330   30.8320   35.6280 Cl  0  0  0  0  0  0  0  0  0  0  0  0
   34.8670   30.4150   34.7300 C   0  0  0  0  0  0  0  0  0  0  0  0
   34.8370   29.3820   33.7950 C   0  0  0  0  0  0  0  0  0  0  0  0
   33.6540   29.1550   33.1690 C   0  0  0  0  0  0  0  0  0  0  0  0
   32.5360   29.9030   33.4370 C   0  0  0  0  0  0  0  0  0  0  0  0
   32.5420   30.9260   34.3550 C   0  0  0  0  0  0  0  0  0  0  0  0
   33.7440   31.1570   34.9930 C   0  0  0  0  0  0  0  0  0  0  0  0
   33.6170   28.3490   32.4330 H   0  0  0  0  0  0  0  0  0  0  0  0
   31.6040   29.7030   32.9250 H   0  0  0  0  0  0  0  0  0  0  0  0
   31.6590   31.5310   34.5810 H   0  0  0  0  0  0  0  0  0  0  0  0
   37.9160   27.3160   34.3680 C   0  0  0  0  0  0  0  0  0  0  0  0
   36.7430   28.0240   34.6010 C   0  0  0  0  0  0  0  0  0  0  0  0
   36.0590   28.6410   33.5680 C   0  0  0  0  0  0  0  0  0  0  0  0
   36.6080   28.5040   32.3270 N   0  0  0  0  0  0  0  0  0  0  0  0
   37.7390   27.8190   32.1160 C   0  0  0  0  0  0  0  0  0  0  0  0
   38.3790   27.2340   33.1370 N   0  0  0  0  0  0  0  0  0  0  0  0
   36.3740   28.0860   35.6040 H   0  0  0  0  0  0  0  0  0  0  0  0
   38.1060   27.7610   31.0910 H   0  0  0  0  0  0  0  0  0  0  0  0
   38.6240   26.6640   35.5210 C   0  0  0  0  0  0  0  0  0  0  0  0
   38.1080   27.1420   36.7050 F   0  0  0  0  0  0  0  0  0  0  0  0
   38.5040   25.3150   35.3700 F   0  0  0  0  0  0  0  0  0  0  0  0
   39.9610   27.0360   35.4490 F   0  0  0  0  0  0  0  0  0  0  0  0
   33.7930   32.2340   35.9750 C   0  0  0  0  0  0  0  0  0  0  0  0
   33.5180   32.1690   37.3240 C   0  0  0  0  0  0  0  0  0  0  0  0
   33.2200   31.2630   37.8390 H   0  0  0  0  0  0  0  0  0  0  0  0
   33.6930   33.4010   37.8270 N   0  0  0  0  0  0  0  0  0  0  0  0
   33.5580   33.6770   38.8400 H   0  0  0  0  0  0  0  0  0  0  0  0
   34.0640   34.2480   36.8680 C   0  0  0  0  0  0  0  0  0  0  0  0
   34.2940   35.3050   36.8780 H   0  0  0  0  0  0  0  0  0  0  0  0
   34.1230   33.5300   35.7400 N   0  0  0  0  0  0  0  0  0  0  0  0
  2  7  1  0  0  0  0
  2  1  1  0  0  0  0
  3  2  2  0  0  0  0
  4  5  2  0  0  0  0
  4  3  1  0  0  0  0
  5  6  1  0  0  0  0
  6 10  1  0  0  0  0
  6  7  2  0  0  0  0
  7 23  1  0  0  0  0
  8  4  1  0  0  0  0
  9  5  1  0  0  0  0
 11 12  1  0  0  0  0
 11 19  1  0  0  0  0
 12 17  1  0  0  0  0
 13  3  1  0  0  0  0
 13 12  2  0  0  0  0
 14 13  1  0  0  0  0
 15 14  2  0  0  0  0
 15 16  1  0  0  0  0
 16 11  2  0  0  0  0
 18 15  1  0  0  0  0
 19 20  1  0  0  0  0
 21 19  1  0  0  0  0
 22 19  1  0  0  0  0
 23 24  2  0  0  0  0
 24 26  1  0  0  0  0
 24 25  1  0  0  0  0
 26 27  1  0  0  0  0
 28 29  1  0  0  0  0
 28 26  1  0  0  0  0
 30 23  1  0  0  0  0
 30 28  2  0  0  0  0
M  END
>  <minimizedAffinity>
-5.35034561

$$$$

 OpenBabel03272504143D

 30 32  0  0  0  0  0  0  0  0999 V2000
   36.6820   21.8560   33.1320 Cl  0  0  0  0  0  0  0  0  0  0  0  0
   38.4090   21.4780   33.0780 C   0  0  0  0  0  0  0  0  0  0  0  0
   39.3420   22.1550   33.8610 C   0  0  0  0  0  0  0  0  0  0  0  0
   40.6400   21.7770   33.7340 C   0  0  0  0  0  0  0  0  0  0  0  0
   41.0240   20.7770   32.8780 C   0  0  0  0  0  0  0  0  0  0  0  0
   40.1210   20.0950   32.0960 C   0  0  0  0  0  0  0  0  0  0  0  0
   38.8020   20.4790   32.2250 C   0  0  0  0  0  0  0  0  0  0  0  0
   41.3810   22.3000   34.3420 H   0  0  0  0  0  0  0  0  0  0  0  0
   42.0650   20.4930   32.7950 H   0  0  0  0  0  0  0  0  0  0  0  0
   40.4120   19.2960   31.4090 H   0  0  0  0  0  0  0  0  0  0  0  0
   38.3010   24.0320   36.9390 C   0  0  0  0  0  0  0  0  0  0  0  0
   38.7700   23.0210   36.1090 C   0  0  0  0  0  0  0  0  0  0  0  0
   38.8570   23.1980   34.7390 C   0  0  0  0  0  0  0  0  0  0  0  0
   38.4570   24.4160   34.2710 N   0  0  0  0  0  0  0  0  0  0  0  0
   38.0070   25.3820   35.0830 C   0  0  0  0  0  0  0  0  0  0  0  0
   37.9340   25.1800   36.4040 N   0  0  0  0  0  0  0  0  0  0  0  0
   39.0650   22.0920   36.5510 H   0  0  0  0  0  0  0  0  0  0  0  0
   37.7090   26.3240   34.6220 H   0  0  0  0  0  0  0  0  0  0  0  0
   38.2240   23.7930   38.4190 C   0  0  0  0  0  0  0  0  0  0  0  0
   37.9610   24.9820   39.0630 F   0  0  0  0  0  0  0  0  0  0  0  0
   37.2860   22.8280   38.6350 F   0  0  0  0  0  0  0  0  0  0  0  0
   39.4740   23.3440   38.8310 F   0  0  0  0  0  0  0  0  0  0  0  0
   37.8130   19.7800   31.4130 C   0  0  0  0  0  0  0  0  0  0  0  0
   37.0580   18.6760   31.7520 C   0  0  0  0  0  0  0  0  0  0  0  0
   37.1150   18.1760   32.7110 H   0  0  0  0  0  0  0  0  0  0  0  0
   36.2860   18.3810   30.6950 N   0  0  0  0  0  0  0  0  0  0  0  0
   35.5920   17.5830   30.6440 H   0  0  0  0  0  0  0  0  0  0  0  0
   36.5080   19.2380   29.7000 C   0  0  0  0  0  0  0  0  0  0  0  0
   36.0900   19.3270   28.7070 H   0  0  0  0  0  0  0  0  0  0  0  0
   37.4410   20.0890   30.1440 N   0  0  0  0  0  0  0  0  0  0  0  0
  2  1  1  0  0  0  0
  2  3  1  0  0  0  0
  3 13  1  0  0  0  0
  4  3  2  0  0  0  0
  4  8  1  0  0  0  0
  5  4  1  0  0  0  0
  6  7  1  0  0  0  0
  6  5  2  0  0  0  0
  7  2  2  0  0  0  0
  9  5  1  0  0  0  0
 10  6  1  0  0  0  0
 11 19  1  0  0  0  0
 12 17  1  0  0  0  0
 12 11  2  0  0  0  0
 13 12  1  0  0  0  0
 14 13  2  0  0  0  0
 14 15  1  0  0  0  0
 15 16  2  0  0  0  0
 16 11  1  0  0  0  0
 18 15  1  0  0  0  0
 19 21  1  0  0  0  0
 19 22  1  0  0  0  0
 19 20  1  0  0  0  0
 23 24  2  0  0  0  0
 23  7  1  0  0  0  0
 24 25  1  0  0  0  0
 26 24  1  0  0  0  0
 27 26  1  0  0  0  0
 28 30  2  0  0  0  0
 28 26  1  0  0  0  0
 29 28  1  0  0  0  0
 30 23  1  0  0  0  0
M  END
>  <minimizedAffinity>
-5.29301405

$$$$

 OpenBabel03272504143D

 30 32  0  0  0  0  0  0  0  0999 V2000
   37.9920   27.4790   33.7910 Cl  0  0  0  0  0  0  0  0  0  0  0  0
   37.1580   26.2830   32.7900 C   0  0  0  0  0  0  0  0  0  0  0  0
   37.3840   24.9140   32.9230 C   0  0  0  0  0  0  0  0  0  0  0  0
   36.6840   24.0930   32.0990 C   0  0  0  0  0  0  0  0  0  0  0  0
   35.7950   24.5790   31.1750 C   0  0  0  0  0  0  0  0  0  0  0  0
   35.5560   25.9240   31.0250 C   0  0  0  0  0  0  0  0  0  0  0  0
   36.2670   26.7600   31.8620 C   0  0  0  0  0  0  0  0  0  0  0  0
   36.8520   23.0180   32.1940 H   0  0  0  0  0  0  0  0  0  0  0  0
   35.2490   23.9040   30.5290 H   0  0  0  0  0  0  0  0  0  0  0  0
   34.8510   26.3270   30.2930 H   0  0  0  0  0  0  0  0  0  0  0  0
   38.9010   23.8600   36.1890 C   0  0  0  0  0  0  0  0  0  0  0  0
   37.9730   24.2750   35.2410 C   0  0  0  0  0  0  0  0  0  0  0  0
   38.3370   24.4820   33.9220 C   0  0  0  0  0  0  0  0  0  0  0  0
   39.6500   24.2540   33.6250 N   0  0  0  0  0  0  0  0  0  0  0  0
   40.5330   23.8540   34.5490 C   0  0  0  0  0  0  0  0  0  0  0  0
   40.1510   23.6630   35.8180 N   0  0  0  0  0  0  0  0  0  0  0  0
   36.9610   24.4330   35.5520 H   0  0  0  0  0  0  0  0  0  0  0  0
   41.5610   23.6960   34.2220 H   0  0  0  0  0  0  0  0  0  0  0  0
   38.4590   23.6480   37.6080 C   0  0  0  0  0  0  0  0  0  0  0  0
   39.5490   23.3230   38.3850 F   0  0  0  0  0  0  0  0  0  0  0  0
   37.8090   24.7760   38.0130 F   0  0  0  0  0  0  0  0  0  0  0  0
   37.5860   22.5670   37.6120 F   0  0  0  0  0  0  0  0  0  0  0  0
   36.0420   28.1950   31.7350 C   0  0  0  0  0  0  0  0  0  0  0  0
   36.7540   29.1060   30.9850 C   0  0  0  0  0  0  0  0  0  0  0  0
   37.6070   28.8480   30.3690 H   0  0  0  0  0  0  0  0  0  0  0  0
   36.1880   30.3080   31.1740 N   0  0  0  0  0  0  0  0  0  0  0  0
   36.5080   31.2160   30.7320 H   0  0  0  0  0  0  0  0  0  0  0  0
   35.1530   30.2110   32.0070 C   0  0  0  0  0  0  0  0  0  0  0  0
   34.4600   30.9440   32.3960 H   0  0  0  0  0  0  0  0  0  0  0  0
   35.0680   28.9190   32.3460 N   0  0  0  0  0  0  0  0  0  0  0  0
  2  3  1  0  0  0  0
  2  1  1  0  0  0  0
  3 13  1  0  0  0  0
  4  8  1  0  0  0  0
  4  3  2  0  0  0  0
  5  4  1  0  0  0  0
  6  5  2  0  0  0  0
  6  7  1  0  0  0  0
  7  2  2  0  0  0  0
  9  5  1  0  0  0  0
 10  6  1  0  0  0  0
 11 19  1  0  0  0  0
 12 17  1  0  0  0  0
 12 11  2  0  0  0  0
 13 12  1  0  0  0  0
 14 13  2  0  0  0  0
 14 15  1  0  0  0  0
 15 16  2  0  0  0  0
 16 11  1  0  0  0  0
 18 15  1  0  0  0  0
 19 22  1  0  0  0  0
 19 21  1  0  0  0  0
 19 20  1  0  0  0  0
 23  7  1  0  0  0  0
 23 30  1  0  0  0  0
 24 26  1  0  0  0  0
 24 23  2  0  0  0  0
 25 24  1  0  0  0  0
 26 28  1  0  0  0  0
 27 26  1  0  0  0  0
 28 30  2  0  0  0  0
 28 29  1  0  0  0  0
M  END
>  <minimizedAffinity>
-5.28784037

$$$$
