
 OpenBabel03272510323D

 27 29  0  0  0  0  0  0  0  0999 V2000
   35.9920   30.1330   48.0500 C   0  0  0  0  0  0  0  0  0  0  0  0
   35.2960   30.0780   46.8740 C   0  0  0  0  0  0  0  0  0  0  0  0
   34.2940   29.1490   46.6630 C   0  0  0  0  0  0  0  0  0  0  0  0
   34.0120   28.2650   47.6920 C   0  0  0  0  0  0  0  0  0  0  0  0
   34.6940   28.2930   48.8900 C   0  0  0  0  0  0  0  0  0  0  0  0
   35.6890   29.2360   49.0610 C   0  0  0  0  0  0  0  0  0  0  0  0
   35.4920   30.7580   46.0450 H   0  0  0  0  0  0  0  0  0  0  0  0
   33.7230   29.0800   45.7400 H   0  0  0  0  0  0  0  0  0  0  0  0
   33.2340   27.4990   47.6060 H   0  0  0  0  0  0  0  0  0  0  0  0
   34.4590   27.5970   49.6730 H   0  0  0  0  0  0  0  0  0  0  0  0
   37.8440   32.9820   49.3420 C   0  0  0  0  0  0  0  0  0  0  0  0
   38.9440   33.0970   48.4960 C   0  0  0  0  0  0  0  0  0  0  0  0
   39.0480   32.1650   47.4510 C   0  0  0  0  0  0  0  0  0  0  0  0
   38.0790   31.2300   47.3420 N   0  0  0  0  0  0  0  0  0  0  0  0
   37.0270   31.1450   48.1770 C   0  0  0  0  0  0  0  0  0  0  0  0
   36.9120   32.0310   49.1860 N   0  0  0  0  0  0  0  0  0  0  0  0
   37.8300   33.7350   50.1270 H   0  0  0  0  0  0  0  0  0  0  0  0
   39.7300   33.8180   48.5460 H   0  0  0  0  0  0  0  0  0  0  0  0
   39.8610   32.1540   46.7280 H   0  0  0  0  0  0  0  0  0  0  0  0
   36.4380   29.3070   50.3110 C   0  0  0  0  0  0  0  0  0  0  0  0
   37.6950   28.7360   50.3710 C   0  0  0  0  0  0  0  0  0  0  0  0
   38.2720   28.2060   49.6020 H   0  0  0  0  0  0  0  0  0  0  0  0
   38.1830   28.9270   51.6150 N   0  0  0  0  0  0  0  0  0  0  0  0
   39.1010   28.6260   52.0000 H   0  0  0  0  0  0  0  0  0  0  0  0
   37.2540   29.6090   52.3420 C   0  0  0  0  0  0  0  0  0  0  0  0
   37.3040   29.9360   53.3820 H   0  0  0  0  0  0  0  0  0  0  0  0
   36.1930   29.8390   51.5460 N   0  0  0  0  0  0  0  0  0  0  0  0
  1 15  1  0  0  0  0
  1  6  1  0  0  0  0
  2  1  2  0  0  0  0
  3  2  1  0  0  0  0
  3  4  2  0  0  0  0
  4  5  1  0  0  0  0
  5  6  2  0  0  0  0
  5 10  1  0  0  0  0
  6 20  1  0  0  0  0
  7  2  1  0  0  0  0
  8  3  1  0  0  0  0
  9  4  1  0  0  0  0
 11 17  1  0  0  0  0
 12 18  1  0  0  0  0
 12 11  2  0  0  0  0
 13 12  1  0  0  0  0
 14 13  2  0  0  0  0
 14 15  1  0  0  0  0
 15 16  2  0  0  0  0
 16 11  1  0  0  0  0
 19 13  1  0  0  0  0
 20 21  2  0  0  0  0
 20 27  1  0  0  0  0
 21 23  1  0  0  0  0
 22 21  1  0  0  0  0
 23 24  1  0  0  0  0
 23 25  1  0  0  0  0
 25 26  1  0  0  0  0
 27 25  2  0  0  0  0
M  END
>  <minimizedAffinity>
-5.1670723

>  <minimizedRMSD>
0.768097878

$$$$
