
 OpenBabel03272510323D

 27 29  0  0  0  0  0  0  0  0999 V2000
   35.9920   30.1320   48.0510 C   0  0  0  0  0  0  0  0  0  0  0  0
   35.2960   30.0770   46.8750 C   0  0  0  0  0  0  0  0  0  0  0  0
   34.2930   29.1480   46.6640 C   0  0  0  0  0  0  0  0  0  0  0  0
   34.0110   28.2640   47.6930 C   0  0  0  0  0  0  0  0  0  0  0  0
   34.6930   28.2920   48.8900 C   0  0  0  0  0  0  0  0  0  0  0  0
   35.6890   29.2350   49.0610 C   0  0  0  0  0  0  0  0  0  0  0  0
   35.4920   30.7570   46.0460 H   0  0  0  0  0  0  0  0  0  0  0  0
   33.7220   29.0790   45.7410 H   0  0  0  0  0  0  0  0  0  0  0  0
   33.2340   27.4980   47.6070 H   0  0  0  0  0  0  0  0  0  0  0  0
   34.4580   27.5960   49.6740 H   0  0  0  0  0  0  0  0  0  0  0  0
   37.8430   32.9820   49.3410 C   0  0  0  0  0  0  0  0  0  0  0  0
   38.9440   33.0950   48.4970 C   0  0  0  0  0  0  0  0  0  0  0  0
   39.0490   32.1620   47.4530 C   0  0  0  0  0  0  0  0  0  0  0  0
   38.0810   31.2270   47.3440 N   0  0  0  0  0  0  0  0  0  0  0  0
   37.0270   31.1440   48.1780 C   0  0  0  0  0  0  0  0  0  0  0  0
   36.9110   32.0310   49.1850 N   0  0  0  0  0  0  0  0  0  0  0  0
   37.8280   33.7370   50.1250 H   0  0  0  0  0  0  0  0  0  0  0  0
   39.7310   33.8170   48.5460 H   0  0  0  0  0  0  0  0  0  0  0  0
   39.8630   32.1500   46.7310 H   0  0  0  0  0  0  0  0  0  0  0  0
   36.4370   29.3060   50.3120 C   0  0  0  0  0  0  0  0  0  0  0  0
   37.6950   28.7370   50.3710 C   0  0  0  0  0  0  0  0  0  0  0  0
   38.2730   28.2070   49.6000 H   0  0  0  0  0  0  0  0  0  0  0  0
   38.1840   28.9270   51.6140 N   0  0  0  0  0  0  0  0  0  0  0  0
   39.1020   28.6270   52.0000 H   0  0  0  0  0  0  0  0  0  0  0  0
   37.2540   29.6080   52.3420 C   0  0  0  0  0  0  0  0  0  0  0  0
   37.3050   29.9350   53.3830 H   0  0  0  0  0  0  0  0  0  0  0  0
   36.1920   29.8370   51.5470 N   0  0  0  0  0  0  0  0  0  0  0  0
  1 15  1  0  0  0  0
  1  6  1  0  0  0  0
  2  1  2  0  0  0  0
  3  2  1  0  0  0  0
  3  4  2  0  0  0  0
  4  5  1  0  0  0  0
  5  6  2  0  0  0  0
  5 10  1  0  0  0  0
  6 20  1  0  0  0  0
  7  2  1  0  0  0  0
  8  3  1  0  0  0  0
  9  4  1  0  0  0  0
 11 17  1  0  0  0  0
 12 18  1  0  0  0  0
 12 11  2  0  0  0  0
 13 12  1  0  0  0  0
 14 13  2  0  0  0  0
 14 15  1  0  0  0  0
 15 16  2  0  0  0  0
 16 11  1  0  0  0  0
 19 13  1  0  0  0  0
 20 21  2  0  0  0  0
 20 27  1  0  0  0  0
 21 23  1  0  0  0  0
 22 21  1  0  0  0  0
 23 24  1  0  0  0  0
 23 25  1  0  0  0  0
 25 26  1  0  0  0  0
 27 25  2  0  0  0  0
M  END
>  <minimizedAffinity>
-5.16524363

>  <minimizedRMSD>
0.640775204

$$$$
