
 OpenBabel03272510323D

 27 29  0  0  0  0  0  0  0  0999 V2000
   35.8310   30.0330   47.7970 C   0  0  0  0  0  0  0  0  0  0  0  0
   35.0380   29.9270   46.6880 C   0  0  0  0  0  0  0  0  0  0  0  0
   33.8880   29.1590   46.6850 C   0  0  0  0  0  0  0  0  0  0  0  0
   33.5590   28.4920   47.8540 C   0  0  0  0  0  0  0  0  0  0  0  0
   34.3360   28.5780   48.9900 C   0  0  0  0  0  0  0  0  0  0  0  0
   35.4770   29.3540   48.9520 C   0  0  0  0  0  0  0  0  0  0  0  0
   35.2680   30.4380   45.7530 H   0  0  0  0  0  0  0  0  0  0  0  0
   33.2370   29.0550   45.8200 H   0  0  0  0  0  0  0  0  0  0  0  0
   32.6660   27.8640   47.9360 H   0  0  0  0  0  0  0  0  0  0  0  0
   34.0610   28.0510   49.8850 H   0  0  0  0  0  0  0  0  0  0  0  0
   38.2080   32.6880   48.5120 C   0  0  0  0  0  0  0  0  0  0  0  0
   39.2390   32.4910   47.5970 C   0  0  0  0  0  0  0  0  0  0  0  0
   39.1090   31.4110   46.7090 C   0  0  0  0  0  0  0  0  0  0  0  0
   37.9990   30.6470   46.8060 N   0  0  0  0  0  0  0  0  0  0  0  0
   37.0200   30.8640   47.7030 C   0  0  0  0  0  0  0  0  0  0  0  0
   37.1280   31.8950   48.5630 N   0  0  0  0  0  0  0  0  0  0  0  0
   38.3780   33.5410   49.1680 H   0  0  0  0  0  0  0  0  0  0  0  0
   40.1300   33.0700   47.4870 H   0  0  0  0  0  0  0  0  0  0  0  0
   39.8470   31.1580   45.9520 H   0  0  0  0  0  0  0  0  0  0  0  0
   36.3310   29.4790   50.1290 C   0  0  0  0  0  0  0  0  0  0  0  0
   37.4080   28.6230   50.2660 C   0  0  0  0  0  0  0  0  0  0  0  0
   37.7640   27.8170   49.6100 H   0  0  0  0  0  0  0  0  0  0  0  0
   38.0390   28.9260   51.4200 N   0  0  0  0  0  0  0  0  0  0  0  0
   38.8860   28.4800   51.8290 H   0  0  0  0  0  0  0  0  0  0  0  0
   37.3780   29.9590   52.0130 C   0  0  0  0  0  0  0  0  0  0  0  0
   37.6020   30.4650   52.9560 H   0  0  0  0  0  0  0  0  0  0  0  0
   36.3390   30.2930   51.2260 N   0  0  0  0  0  0  0  0  0  0  0  0
  1  6  1  0  0  0  0
  2  1  2  0  0  0  0
  3  2  1  0  0  0  0
  3  4  2  0  0  0  0
  4  9  1  0  0  0  0
  4  5  1  0  0  0  0
  5 10  1  0  0  0  0
  6  5  2  0  0  0  0
  6 20  1  0  0  0  0
  7  2  1  0  0  0  0
  8  3  1  0  0  0  0
 11 16  1  0  0  0  0
 11 17  1  0  0  0  0
 12 11  2  0  0  0  0
 13 14  2  0  0  0  0
 13 12  1  0  0  0  0
 14 15  1  0  0  0  0
 15  1  1  0  0  0  0
 15 16  2  0  0  0  0
 18 12  1  0  0  0  0
 19 13  1  0  0  0  0
 20 21  2  0  0  0  0
 20 27  1  0  0  0  0
 21 23  1  0  0  0  0
 22 21  1  0  0  0  0
 23 24  1  0  0  0  0
 23 25  1  0  0  0  0
 25 26  1  0  0  0  0
 27 25  2  0  0  0  0
M  END
>  <minimizedAffinity>
-5.02372551

>  <minimizedRMSD>
1.13566518

$$$$
