
 OpenBabel03272510323D

 27 29  0  0  0  0  0  0  0  0999 V2000
   35.9320   30.0390   47.9000 C   0  0  0  0  0  0  0  0  0  0  0  0
   35.1650   30.0220   46.7670 C   0  0  0  0  0  0  0  0  0  0  0  0
   34.1190   29.1320   46.6080 C   0  0  0  0  0  0  0  0  0  0  0  0
   33.8660   28.2480   47.6450 C   0  0  0  0  0  0  0  0  0  0  0  0
   34.6180   28.2390   48.8000 C   0  0  0  0  0  0  0  0  0  0  0  0
   35.6560   29.1420   48.9190 C   0  0  0  0  0  0  0  0  0  0  0  0
   35.3370   30.7030   45.9340 H   0  0  0  0  0  0  0  0  0  0  0  0
   33.4920   29.0940   45.7210 H   0  0  0  0  0  0  0  0  0  0  0  0
   33.0570   27.5120   47.5990 H   0  0  0  0  0  0  0  0  0  0  0  0
   34.4050   27.5430   49.5900 H   0  0  0  0  0  0  0  0  0  0  0  0
   37.9330   32.8380   49.0720 C   0  0  0  0  0  0  0  0  0  0  0  0
   39.0100   32.8910   48.1920 C   0  0  0  0  0  0  0  0  0  0  0  0
   39.0460   31.9330   47.1650 C   0  0  0  0  0  0  0  0  0  0  0  0
   38.0380   31.0360   47.1060 N   0  0  0  0  0  0  0  0  0  0  0  0
   37.0090   31.0110   47.9740 C   0  0  0  0  0  0  0  0  0  0  0  0
   36.9590   31.9220   48.9650 N   0  0  0  0  0  0  0  0  0  0  0  0
   37.9720   33.6080   49.8400 H   0  0  0  0  0  0  0  0  0  0  0  0
   39.8260   33.5810   48.2020 H   0  0  0  0  0  0  0  0  0  0  0  0
   39.8350   31.8740   46.4190 H   0  0  0  0  0  0  0  0  0  0  0  0
   36.4800   29.1730   50.1240 C   0  0  0  0  0  0  0  0  0  0  0  0
   35.9250   29.6360   51.3010 C   0  0  0  0  0  0  0  0  0  0  0  0
   34.9130   30.0080   51.5120 H   0  0  0  0  0  0  0  0  0  0  0  0
   36.8690   29.5720   52.2630 N   0  0  0  0  0  0  0  0  0  0  0  0
   36.7890   29.8420   53.2650 H   0  0  0  0  0  0  0  0  0  0  0  0
   38.0120   29.0750   51.7120 C   0  0  0  0  0  0  0  0  0  0  0  0
   38.9770   28.8860   52.1890 H   0  0  0  0  0  0  0  0  0  0  0  0
   37.7720   28.8340   50.4100 N   0  0  0  0  0  0  0  0  0  0  0  0
  1 15  1  0  0  0  0
  1  6  1  0  0  0  0
  2  1  2  0  0  0  0
  3  2  1  0  0  0  0
  3  4  2  0  0  0  0
  4  5  1  0  0  0  0
  5  6  2  0  0  0  0
  5 10  1  0  0  0  0
  6 20  1  0  0  0  0
  7  2  1  0  0  0  0
  8  3  1  0  0  0  0
  9  4  1  0  0  0  0
 11 17  1  0  0  0  0
 12 18  1  0  0  0  0
 12 11  2  0  0  0  0
 13 12  1  0  0  0  0
 14 13  2  0  0  0  0
 14 15  1  0  0  0  0
 15 16  2  0  0  0  0
 16 11  1  0  0  0  0
 19 13  1  0  0  0  0
 20 27  1  0  0  0  0
 20 21  2  0  0  0  0
 21 22  1  0  0  0  0
 21 23  1  0  0  0  0
 23 24  1  0  0  0  0
 25 26  1  0  0  0  0
 25 23  1  0  0  0  0
 27 25  2  0  0  0  0
M  END
>  <minimizedAffinity>
-4.76722097

>  <minimizedRMSD>
1.03102374

$$$$
