
 OpenBabel03272502203D

 27 29  0  0  0  0  0  0  0  0999 V2000
   37.8330   25.9940   32.9320 C   0  0  0  0  0  0  0  0  0  0  0  0
   38.8320   26.9380   32.6120 C   0  0  0  0  0  0  0  0  0  0  0  0
   39.8610   27.1230   33.5440 C   0  0  0  0  0  0  0  0  0  0  0  0
   39.8420   26.3890   34.6950 N   0  0  0  0  0  0  0  0  0  0  0  0
   38.8530   25.4900   34.9550 C   0  0  0  0  0  0  0  0  0  0  0  0
   37.8580   25.2980   34.0760 N   0  0  0  0  0  0  0  0  0  0  0  0
   38.8460   27.5150   31.7060 H   0  0  0  0  0  0  0  0  0  0  0  0
   40.6760   27.8270   33.3870 H   0  0  0  0  0  0  0  0  0  0  0  0
   40.8300   23.0550   34.9250 Br  0  0  0  0  0  0  0  0  0  0  0  0
   39.6500   23.5930   36.3230 C   0  0  0  0  0  0  0  0  0  0  0  0
   38.8310   24.7030   36.1870 C   0  0  0  0  0  0  0  0  0  0  0  0
   38.0000   25.0360   37.2430 C   0  0  0  0  0  0  0  0  0  0  0  0
   37.9530   24.3120   38.4210 C   0  0  0  0  0  0  0  0  0  0  0  0
   38.7780   23.2150   38.5290 C   0  0  0  0  0  0  0  0  0  0  0  0
   39.6110   22.8690   37.4880 C   0  0  0  0  0  0  0  0  0  0  0  0
   37.3680   25.9170   37.1000 H   0  0  0  0  0  0  0  0  0  0  0  0
   37.3130   24.5750   39.2270 H   0  0  0  0  0  0  0  0  0  0  0  0
   38.8170   22.5810   39.4130 H   0  0  0  0  0  0  0  0  0  0  0  0
   40.2670   21.9980   37.5700 H   0  0  0  0  0  0  0  0  0  0  0  0
   36.7570   25.7980   31.9630 C   0  0  0  0  0  0  0  0  0  0  0  0
   36.3450   26.7200   31.0310 C   0  0  0  0  0  0  0  0  0  0  0  0
   36.7360   27.7020   30.8710 H   0  0  0  0  0  0  0  0  0  0  0  0
   35.3350   26.0890   30.3730 N   0  0  0  0  0  0  0  0  0  0  0  0
   34.8400   26.6050   29.5870 H   0  0  0  0  0  0  0  0  0  0  0  0
   35.1130   24.8500   30.8490 C   0  0  0  0  0  0  0  0  0  0  0  0
   34.3330   24.2320   30.4130 H   0  0  0  0  0  0  0  0  0  0  0  0
   36.0130   24.6810   31.8450 N   0  0  0  0  0  0  0  0  0  0  0  0
  1  6  1  0  0  0  0
  2  1  2  0  0  0  0
  2  3  1  0  0  0  0
  3  4  2  0  0  0  0
  4  5  1  0  0  0  0
  5 11  1  0  0  0  0
  6  5  2  0  0  0  0
  7  2  1  0  0  0  0
  8  3  1  0  0  0  0
  9 10  1  0  0  0  0
 10 15  1  0  0  0  0
 11 10  2  0  0  0  0
 11 12  1  0  0  0  0
 12 13  2  0  0  0  0
 13 14  1  0  0  0  0
 13 17  1  0  0  0  0
 14 18  1  0  0  0  0
 15 19  1  0  0  0  0
 15 14  2  0  0  0  0
 16 12  1  0  0  0  0
 20  1  1  0  0  0  0
 21 20  2  0  0  0  0
 22 21  1  0  0  0  0
 23 25  1  0  0  0  0
 23 21  1  0  0  0  0
 24 23  1  0  0  0  0
 25 27  2  0  0  0  0
 26 25  1  0  0  0  0
 27 20  1  0  0  0  0
M  END
>  <minimizedAffinity>
-5.40921259

$$$$

 OpenBabel03272502203D

 27 29  0  0  0  0  0  0  0  0999 V2000
   39.2160   23.8840   35.2380 C   0  0  0  0  0  0  0  0  0  0  0  0
   40.5370   23.9150   34.7450 C   0  0  0  0  0  0  0  0  0  0  0  0
   40.7090   24.2290   33.3900 C   0  0  0  0  0  0  0  0  0  0  0  0
   39.6020   24.4850   32.6330 N   0  0  0  0  0  0  0  0  0  0  0  0
   38.3480   24.4410   33.1590 C   0  0  0  0  0  0  0  0  0  0  0  0
   38.1610   24.1420   34.4530 N   0  0  0  0  0  0  0  0  0  0  0  0
   41.4080   23.7140   35.3420 H   0  0  0  0  0  0  0  0  0  0  0  0
   41.6880   24.2790   32.9180 H   0  0  0  0  0  0  0  0  0  0  0  0
   37.7040   27.4980   32.8680 Br  0  0  0  0  0  0  0  0  0  0  0  0
   36.7490   26.0210   32.1310 C   0  0  0  0  0  0  0  0  0  0  0  0
   37.1610   24.7150   32.3490 C   0  0  0  0  0  0  0  0  0  0  0  0
   36.4200   23.6920   31.7830 C   0  0  0  0  0  0  0  0  0  0  0  0
   35.2920   23.9160   31.0130 C   0  0  0  0  0  0  0  0  0  0  0  0
   34.9070   25.2230   30.8130 C   0  0  0  0  0  0  0  0  0  0  0  0
   35.6320   26.2540   31.3690 C   0  0  0  0  0  0  0  0  0  0  0  0
   36.7750   22.6760   31.9760 H   0  0  0  0  0  0  0  0  0  0  0  0
   34.7300   23.1260   30.5820 H   0  0  0  0  0  0  0  0  0  0  0  0
   34.0370   25.5050   30.2240 H   0  0  0  0  0  0  0  0  0  0  0  0
   35.3280   27.2920   31.2120 H   0  0  0  0  0  0  0  0  0  0  0  0
   39.0320   23.5560   36.6500 C   0  0  0  0  0  0  0  0  0  0  0  0
   39.8860   22.7940   37.4100 C   0  0  0  0  0  0  0  0  0  0  0  0
   40.7980   22.3300   37.0970 H   0  0  0  0  0  0  0  0  0  0  0  0
   39.2990   22.7720   38.6380 N   0  0  0  0  0  0  0  0  0  0  0  0
   39.7770   22.2340   39.4200 H   0  0  0  0  0  0  0  0  0  0  0  0
   38.1500   23.4710   38.6650 C   0  0  0  0  0  0  0  0  0  0  0  0
   37.5760   23.5370   39.5840 H   0  0  0  0  0  0  0  0  0  0  0  0
   37.9960   23.9580   37.4110 N   0  0  0  0  0  0  0  0  0  0  0  0
  1 20  1  0  0  0  0
  2  1  1  0  0  0  0
  2  7  1  0  0  0  0
  3  2  2  0  0  0  0
  4  5  2  0  0  0  0
  4  3  1  0  0  0  0
  5  6  1  0  0  0  0
  6  1  2  0  0  0  0
  8  3  1  0  0  0  0
 10 11  1  0  0  0  0
 10  9  1  0  0  0  0
 11  5  1  0  0  0  0
 12 16  1  0  0  0  0
 12 11  2  0  0  0  0
 13 12  1  0  0  0  0
 14 13  2  0  0  0  0
 14 15  1  0  0  0  0
 15 10  2  0  0  0  0
 17 13  1  0  0  0  0
 18 14  1  0  0  0  0
 19 15  1  0  0  0  0
 20 21  2  0  0  0  0
 20 27  1  0  0  0  0
 21 23  1  0  0  0  0
 22 21  1  0  0  0  0
 23 25  1  0  0  0  0
 23 24  1  0  0  0  0
 25 26  1  0  0  0  0
 27 25  2  0  0  0  0
M  END
>  <minimizedAffinity>
-5.31982517

$$$$

 OpenBabel03272502203D

 27 29  0  0  0  0  0  0  0  0999 V2000
   39.1880   23.7020   35.1800 C   0  0  0  0  0  0  0  0  0  0  0  0
   40.4800   23.5280   34.6400 C   0  0  0  0  0  0  0  0  0  0  0  0
   40.6390   23.7640   33.2690 C   0  0  0  0  0  0  0  0  0  0  0  0
   39.5490   24.1450   32.5400 N   0  0  0  0  0  0  0  0  0  0  0  0
   38.3230   24.2990   33.1100 C   0  0  0  0  0  0  0  0  0  0  0  0
   38.1490   24.0780   34.4220 N   0  0  0  0  0  0  0  0  0  0  0  0
   41.3370   23.2280   35.2150 H   0  0  0  0  0  0  0  0  0  0  0  0
   41.5960   23.6570   32.7610 H   0  0  0  0  0  0  0  0  0  0  0  0
   36.6750   21.8900   31.9620 Br  0  0  0  0  0  0  0  0  0  0  0  0
   36.3280   23.7540   31.7580 C   0  0  0  0  0  0  0  0  0  0  0  0
   37.1550   24.7080   32.3310 C   0  0  0  0  0  0  0  0  0  0  0  0
   36.8430   26.0430   32.1430 C   0  0  0  0  0  0  0  0  0  0  0  0
   35.7470   26.4640   31.4100 C   0  0  0  0  0  0  0  0  0  0  0  0
   34.9430   25.4940   30.8530 C   0  0  0  0  0  0  0  0  0  0  0  0
   35.2380   24.1610   31.0300 C   0  0  0  0  0  0  0  0  0  0  0  0
   37.5170   26.7660   32.6090 H   0  0  0  0  0  0  0  0  0  0  0  0
   35.5140   27.4900   31.2710 H   0  0  0  0  0  0  0  0  0  0  0  0
   34.0580   25.7210   30.2610 H   0  0  0  0  0  0  0  0  0  0  0  0
   34.6020   23.3890   30.5880 H   0  0  0  0  0  0  0  0  0  0  0  0
   39.0180   23.4570   36.6100 C   0  0  0  0  0  0  0  0  0  0  0  0
   39.8830   22.7460   37.4070 C   0  0  0  0  0  0  0  0  0  0  0  0
   40.7950   22.2710   37.1140 H   0  0  0  0  0  0  0  0  0  0  0  0
   39.3050   22.7920   38.6380 N   0  0  0  0  0  0  0  0  0  0  0  0
   39.7930   22.3040   39.4460 H   0  0  0  0  0  0  0  0  0  0  0  0
   38.1510   23.4830   38.6330 C   0  0  0  0  0  0  0  0  0  0  0  0
   37.5830   23.5990   39.5520 H   0  0  0  0  0  0  0  0  0  0  0  0
   37.9840   23.8940   37.3550 N   0  0  0  0  0  0  0  0  0  0  0  0
  1 20  1  0  0  0  0
  2  1  1  0  0  0  0
  2  7  1  0  0  0  0
  3  2  2  0  0  0  0
  4  5  2  0  0  0  0
  4  3  1  0  0  0  0
  5  6  1  0  0  0  0
  6  1  2  0  0  0  0
  8  3  1  0  0  0  0
 10  9  1  0  0  0  0
 10 11  1  0  0  0  0
 11  5  1  0  0  0  0
 12 11  2  0  0  0  0
 12 16  1  0  0  0  0
 13 12  1  0  0  0  0
 14 15  1  0  0  0  0
 14 13  2  0  0  0  0
 15 10  2  0  0  0  0
 17 13  1  0  0  0  0
 18 14  1  0  0  0  0
 19 15  1  0  0  0  0
 20 27  1  0  0  0  0
 20 21  2  0  0  0  0
 21 23  1  0  0  0  0
 22 21  1  0  0  0  0
 23 24  1  0  0  0  0
 25 23  1  0  0  0  0
 25 26  1  0  0  0  0
 27 25  2  0  0  0  0
M  END
>  <minimizedAffinity>
-5.21641684

$$$$

 OpenBabel03272502203D

 27 29  0  0  0  0  0  0  0  0999 V2000
   37.4260   25.9180   33.6320 C   0  0  0  0  0  0  0  0  0  0  0  0
   37.2540   27.1840   34.2300 C   0  0  0  0  0  0  0  0  0  0  0  0
   37.9960   27.4550   35.3870 C   0  0  0  0  0  0  0  0  0  0  0  0
   38.8350   26.4900   35.8660 N   0  0  0  0  0  0  0  0  0  0  0  0
   38.9640   25.2830   35.2500 C   0  0  0  0  0  0  0  0  0  0  0  0
   38.2620   25.0030   34.1420 N   0  0  0  0  0  0  0  0  0  0  0  0
   36.5930   27.9440   33.8520 H   0  0  0  0  0  0  0  0  0  0  0  0
   37.9320   28.4020   35.9180 H   0  0  0  0  0  0  0  0  0  0  0  0
   37.6670   23.4730   37.4600 Br  0  0  0  0  0  0  0  0  0  0  0  0
   39.4310   23.3710   36.7440 C   0  0  0  0  0  0  0  0  0  0  0  0
   39.8620   24.2480   35.7620 C   0  0  0  0  0  0  0  0  0  0  0  0
   41.1560   24.1150   35.2880 C   0  0  0  0  0  0  0  0  0  0  0  0
   42.0320   23.1480   35.7500 C   0  0  0  0  0  0  0  0  0  0  0  0
   41.5760   22.2900   36.7270 C   0  0  0  0  0  0  0  0  0  0  0  0
   40.2920   22.4080   37.2100 C   0  0  0  0  0  0  0  0  0  0  0  0
   41.4610   24.8240   34.5140 H   0  0  0  0  0  0  0  0  0  0  0  0
   43.0230   23.0520   35.3810 H   0  0  0  0  0  0  0  0  0  0  0  0
   42.1850   21.4970   37.1560 H   0  0  0  0  0  0  0  0  0  0  0  0
   39.9270   21.7290   37.9850 H   0  0  0  0  0  0  0  0  0  0  0  0
   36.6530   25.6320   32.4260 C   0  0  0  0  0  0  0  0  0  0  0  0
   36.2030   26.5680   31.5260 C   0  0  0  0  0  0  0  0  0  0  0  0
   36.3430   27.6280   31.5650 H   0  0  0  0  0  0  0  0  0  0  0  0
   35.5470   25.8310   30.5900 N   0  0  0  0  0  0  0  0  0  0  0  0
   35.0980   26.3350   29.7690 H   0  0  0  0  0  0  0  0  0  0  0  0
   35.5730   24.5150   30.8680 C   0  0  0  0  0  0  0  0  0  0  0  0
   35.0860   23.8090   30.2010 H   0  0  0  0  0  0  0  0  0  0  0  0
   36.2710   24.4050   32.0220 N   0  0  0  0  0  0  0  0  0  0  0  0
  1  6  2  0  0  0  0
  1  2  1  0  0  0  0
  2  3  2  0  0  0  0
  3  4  1  0  0  0  0
  3  8  1  0  0  0  0
  5 11  1  0  0  0  0
  5  4  2  0  0  0  0
  6  5  1  0  0  0  0
  7  2  1  0  0  0  0
 10 15  1  0  0  0  0
 10  9  1  0  0  0  0
 11 10  2  0  0  0  0
 12 13  2  0  0  0  0
 12 11  1  0  0  0  0
 13 14  1  0  0  0  0
 14 18  1  0  0  0  0
 14 15  2  0  0  0  0
 15 19  1  0  0  0  0
 16 12  1  0  0  0  0
 17 13  1  0  0  0  0
 20  1  1  0  0  0  0
 21 22  1  0  0  0  0
 21 20  2  0  0  0  0
 23 25  1  0  0  0  0
 23 21  1  0  0  0  0
 24 23  1  0  0  0  0
 25 27  2  0  0  0  0
 26 25  1  0  0  0  0
 27 20  1  0  0  0  0
M  END
>  <minimizedAffinity>
-5.20187473

$$$$

 OpenBabel03272502203D

 27 29  0  0  0  0  0  0  0  0999 V2000
   38.1300   22.9830   35.1260 C   0  0  0  0  0  0  0  0  0  0  0  0
   38.1690   24.1900   34.3970 C   0  0  0  0  0  0  0  0  0  0  0  0
   37.7310   24.1510   33.0670 C   0  0  0  0  0  0  0  0  0  0  0  0
   37.2970   22.9620   32.5560 N   0  0  0  0  0  0  0  0  0  0  0  0
   37.2800   21.8240   33.3030 C   0  0  0  0  0  0  0  0  0  0  0  0
   37.6950   21.8390   34.5790 N   0  0  0  0  0  0  0  0  0  0  0  0
   38.5100   25.1260   34.8010 H   0  0  0  0  0  0  0  0  0  0  0  0
   37.7230   25.0300   32.4250 H   0  0  0  0  0  0  0  0  0  0  0  0
   39.4940   20.2440   31.7410 Br  0  0  0  0  0  0  0  0  0  0  0  0
   37.6800   19.7380   32.0400 C   0  0  0  0  0  0  0  0  0  0  0  0
   36.8150   20.5500   32.7570 C   0  0  0  0  0  0  0  0  0  0  0  0
   35.5110   20.1190   32.9360 C   0  0  0  0  0  0  0  0  0  0  0  0
   35.0390   18.9200   32.4320 C   0  0  0  0  0  0  0  0  0  0  0  0
   35.9210   18.1340   31.7240 C   0  0  0  0  0  0  0  0  0  0  0  0
   37.2210   18.5470   31.5360 C   0  0  0  0  0  0  0  0  0  0  0  0
   34.8580   20.7840   33.5060 H   0  0  0  0  0  0  0  0  0  0  0  0
   34.0380   18.5970   32.5740 H   0  0  0  0  0  0  0  0  0  0  0  0
   35.6480   17.1750   31.2880 H   0  0  0  0  0  0  0  0  0  0  0  0
   37.9240   17.9260   30.9740 H   0  0  0  0  0  0  0  0  0  0  0  0
   38.5850   23.0190   36.5140 C   0  0  0  0  0  0  0  0  0  0  0  0
   39.7640   22.4900   36.9810 C   0  0  0  0  0  0  0  0  0  0  0  0
   40.5160   21.9790   36.4170 H   0  0  0  0  0  0  0  0  0  0  0  0
   39.7410   22.7670   38.3130 N   0  0  0  0  0  0  0  0  0  0  0  0
   40.5610   22.4530   38.9110 H   0  0  0  0  0  0  0  0  0  0  0  0
   38.6260   23.4270   38.6760 C   0  0  0  0  0  0  0  0  0  0  0  0
   38.4780   23.7120   39.7140 H   0  0  0  0  0  0  0  0  0  0  0  0
   37.9110   23.5790   37.5370 N   0  0  0  0  0  0  0  0  0  0  0  0
  1 20  1  0  0  0  0
  2  7  1  0  0  0  0
  2  1  2  0  0  0  0
  3  2  1  0  0  0  0
  4  3  2  0  0  0  0
  4  5  1  0  0  0  0
  5  6  2  0  0  0  0
  6  1  1  0  0  0  0
  8  3  1  0  0  0  0
  9 10  1  0  0  0  0
 10 11  1  0  0  0  0
 11 12  2  0  0  0  0
 11  5  1  0  0  0  0
 12 16  1  0  0  0  0
 13 17  1  0  0  0  0
 13 12  1  0  0  0  0
 14 13  2  0  0  0  0
 15 14  1  0  0  0  0
 15 10  2  0  0  0  0
 18 14  1  0  0  0  0
 19 15  1  0  0  0  0
 20 21  2  0  0  0  0
 20 27  1  0  0  0  0
 21 23  1  0  0  0  0
 22 21  1  0  0  0  0
 23 25  1  0  0  0  0
 23 24  1  0  0  0  0
 25 26  1  0  0  0  0
 27 25  2  0  0  0  0
M  END
>  <minimizedAffinity>
-5.18685484

$$$$

 OpenBabel03272502203D

 27 29  0  0  0  0  0  0  0  0999 V2000
   37.1290   26.0250   33.0060 C   0  0  0  0  0  0  0  0  0  0  0  0
   36.4510   26.9500   32.1840 C   0  0  0  0  0  0  0  0  0  0  0  0
   35.6920   26.4330   31.1260 C   0  0  0  0  0  0  0  0  0  0  0  0
   35.6510   25.0790   30.9510 N   0  0  0  0  0  0  0  0  0  0  0  0
   36.3250   24.2290   31.7740 C   0  0  0  0  0  0  0  0  0  0  0  0
   37.0580   24.7040   32.7920 N   0  0  0  0  0  0  0  0  0  0  0  0
   36.4840   28.0150   32.3230 H   0  0  0  0  0  0  0  0  0  0  0  0
   35.1340   27.0660   30.4390 H   0  0  0  0  0  0  0  0  0  0  0  0
   38.7660   23.0970   30.1620 Br  0  0  0  0  0  0  0  0  0  0  0  0
   37.2920   22.1330   30.8930 C   0  0  0  0  0  0  0  0  0  0  0  0
   36.2820   22.7800   31.5880 C   0  0  0  0  0  0  0  0  0  0  0  0
   35.2430   22.0170   32.0930 C   0  0  0  0  0  0  0  0  0  0  0  0
   35.1700   20.6440   31.9340 C   0  0  0  0  0  0  0  0  0  0  0  0
   36.1880   20.0280   31.2400 C   0  0  0  0  0  0  0  0  0  0  0  0
   37.2300   20.7720   30.7310 C   0  0  0  0  0  0  0  0  0  0  0  0
   34.4640   22.5600   32.6340 H   0  0  0  0  0  0  0  0  0  0  0  0
   34.3700   20.0660   32.3240 H   0  0  0  0  0  0  0  0  0  0  0  0
   36.2250   18.9550   31.0610 H   0  0  0  0  0  0  0  0  0  0  0  0
   38.0390   20.2860   30.1790 H   0  0  0  0  0  0  0  0  0  0  0  0
   37.9220   26.5600   34.1100 C   0  0  0  0  0  0  0  0  0  0  0  0
   37.4660   27.4280   35.0730 C   0  0  0  0  0  0  0  0  0  0  0  0
   36.4820   27.8400   35.1640 H   0  0  0  0  0  0  0  0  0  0  0  0
   38.5500   27.6330   35.8680 N   0  0  0  0  0  0  0  0  0  0  0  0
   38.4520   28.2820   36.7030 H   0  0  0  0  0  0  0  0  0  0  0  0
   39.6270   26.9460   35.4460 C   0  0  0  0  0  0  0  0  0  0  0  0
   40.5650   27.0180   35.9900 H   0  0  0  0  0  0  0  0  0  0  0  0
   39.2180   26.2770   34.3430 N   0  0  0  0  0  0  0  0  0  0  0  0
  1 20  1  0  0  0  0
  2  7  1  0  0  0  0
  2  1  2  0  0  0  0
  3  2  1  0  0  0  0
  4  3  2  0  0  0  0
  4  5  1  0  0  0  0
  5  6  2  0  0  0  0
  6  1  1  0  0  0  0
  8  3  1  0  0  0  0
  9 10  1  0  0  0  0
 10 11  1  0  0  0  0
 11  5  1  0  0  0  0
 11 12  2  0  0  0  0
 12 16  1  0  0  0  0
 13 12  1  0  0  0  0
 13 17  1  0  0  0  0
 14 13  2  0  0  0  0
 15 10  2  0  0  0  0
 15 14  1  0  0  0  0
 18 14  1  0  0  0  0
 19 15  1  0  0  0  0
 20 27  1  0  0  0  0
 20 21  2  0  0  0  0
 21 22  1  0  0  0  0
 21 23  1  0  0  0  0
 23 24  1  0  0  0  0
 25 23  1  0  0  0  0
 25 26  1  0  0  0  0
 27 25  2  0  0  0  0
M  END
>  <minimizedAffinity>
-5.0749979

$$$$

 OpenBabel03272502203D

 27 29  0  0  0  0  0  0  0  0999 V2000
   36.6730   27.9030   33.5750 C   0  0  0  0  0  0  0  0  0  0  0  0
   36.8150   28.2990   32.2290 C   0  0  0  0  0  0  0  0  0  0  0  0
   36.2850   29.5440   31.8660 C   0  0  0  0  0  0  0  0  0  0  0  0
   35.6670   30.2960   32.8240 N   0  0  0  0  0  0  0  0  0  0  0  0
   35.5570   29.8670   34.1110 C   0  0  0  0  0  0  0  0  0  0  0  0
   36.0570   28.6780   34.4790 N   0  0  0  0  0  0  0  0  0  0  0  0
   37.3010   27.7070   31.4750 H   0  0  0  0  0  0  0  0  0  0  0  0
   36.3460   29.9360   30.8530 H   0  0  0  0  0  0  0  0  0  0  0  0
   32.4530   29.4290   34.2460 Br  0  0  0  0  0  0  0  0  0  0  0  0
   33.5240   30.5870   35.3180 C   0  0  0  0  0  0  0  0  0  0  0  0
   34.8960   30.6710   35.1380 C   0  0  0  0  0  0  0  0  0  0  0  0
   35.6110   31.5320   35.9530 C   0  0  0  0  0  0  0  0  0  0  0  0
   35.0170   32.3080   36.9330 C   0  0  0  0  0  0  0  0  0  0  0  0
   33.6530   32.2030   37.0890 C   0  0  0  0  0  0  0  0  0  0  0  0
   32.9260   31.3520   36.2880 C   0  0  0  0  0  0  0  0  0  0  0  0
   36.6900   31.5720   35.7830 H   0  0  0  0  0  0  0  0  0  0  0  0
   35.5730   32.9650   37.5550 H   0  0  0  0  0  0  0  0  0  0  0  0
   33.0920   32.7690   37.8310 H   0  0  0  0  0  0  0  0  0  0  0  0
   31.8420   31.2670   36.4090 H   0  0  0  0  0  0  0  0  0  0  0  0
   37.2240   26.6060   33.9570 C   0  0  0  0  0  0  0  0  0  0  0  0
   37.4560   25.5540   33.1040 C   0  0  0  0  0  0  0  0  0  0  0  0
   37.2750   25.5200   32.0500 H   0  0  0  0  0  0  0  0  0  0  0  0
   37.9650   24.5840   33.9110 N   0  0  0  0  0  0  0  0  0  0  0  0
   38.2310   23.6510   33.4780 H   0  0  0  0  0  0  0  0  0  0  0  0
   38.0520   24.9830   35.1930 C   0  0  0  0  0  0  0  0  0  0  0  0
   38.4430   24.3060   35.9470 H   0  0  0  0  0  0  0  0  0  0  0  0
   37.5850   26.2530   35.2060 N   0  0  0  0  0  0  0  0  0  0  0  0
  1 20  1  0  0  0  0
  1  6  1  0  0  0  0
  2  1  2  0  0  0  0
  3  2  1  0  0  0  0
  3  4  2  0  0  0  0
  4  5  1  0  0  0  0
  5  6  2  0  0  0  0
  5 11  1  0  0  0  0
  7  2  1  0  0  0  0
  8  3  1  0  0  0  0
  9 10  1  0  0  0  0
 10 15  1  0  0  0  0
 11 10  2  0  0  0  0
 11 12  1  0  0  0  0
 12 13  2  0  0  0  0
 13 14  1  0  0  0  0
 13 17  1  0  0  0  0
 14 18  1  0  0  0  0
 15 19  1  0  0  0  0
 15 14  2  0  0  0  0
 16 12  1  0  0  0  0
 20 27  1  0  0  0  0
 21 23  1  0  0  0  0
 21 20  2  0  0  0  0
 22 21  1  0  0  0  0
 23 25  1  0  0  0  0
 24 23  1  0  0  0  0
 25 27  2  0  0  0  0
 25 26  1  0  0  0  0
M  END
>  <minimizedAffinity>
-5.0297389

$$$$

 OpenBabel03272502203D

 27 29  0  0  0  0  0  0  0  0999 V2000
   37.0800   22.0530   32.8010 C   0  0  0  0  0  0  0  0  0  0  0  0
   37.3760   23.0870   31.8880 C   0  0  0  0  0  0  0  0  0  0  0  0
   38.0640   24.2020   32.3820 C   0  0  0  0  0  0  0  0  0  0  0  0
   38.4060   24.2270   33.7040 N   0  0  0  0  0  0  0  0  0  0  0  0
   38.0960   23.2020   34.5440 C   0  0  0  0  0  0  0  0  0  0  0  0
   37.4370   22.1250   34.0910 N   0  0  0  0  0  0  0  0  0  0  0  0
   37.1060   23.0660   30.8480 H   0  0  0  0  0  0  0  0  0  0  0  0
   38.3380   25.0490   31.7550 H   0  0  0  0  0  0  0  0  0  0  0  0
   40.9780   22.1050   35.1150 Br  0  0  0  0  0  0  0  0  0  0  0  0
   39.7050   22.7720   36.3680 C   0  0  0  0  0  0  0  0  0  0  0  0
   38.4610   23.2270   35.9590 C   0  0  0  0  0  0  0  0  0  0  0  0
   37.5870   23.6980   36.9240 C   0  0  0  0  0  0  0  0  0  0  0  0
   37.9010   23.7340   38.2710 C   0  0  0  0  0  0  0  0  0  0  0  0
   39.1440   23.2760   38.6490 C   0  0  0  0  0  0  0  0  0  0  0  0
   40.0260   22.8040   37.7030 C   0  0  0  0  0  0  0  0  0  0  0  0
   36.6160   24.0480   36.5640 H   0  0  0  0  0  0  0  0  0  0  0  0
   37.2250   24.0980   39.0050 H   0  0  0  0  0  0  0  0  0  0  0  0
   39.4870   23.2630   39.6810 H   0  0  0  0  0  0  0  0  0  0  0  0
   41.0130   22.4390   37.9990 H   0  0  0  0  0  0  0  0  0  0  0  0
   36.3620   20.8880   32.2900 C   0  0  0  0  0  0  0  0  0  0  0  0
   36.6270   20.2430   31.1060 C   0  0  0  0  0  0  0  0  0  0  0  0
   37.3830   20.4860   30.3880 H   0  0  0  0  0  0  0  0  0  0  0  0
   35.7110   19.2380   31.0690 N   0  0  0  0  0  0  0  0  0  0  0  0
   35.7100   18.5820   30.2330 H   0  0  0  0  0  0  0  0  0  0  0  0
   34.9130   19.2370   32.1520 C   0  0  0  0  0  0  0  0  0  0  0  0
   34.1350   18.4860   32.2530 H   0  0  0  0  0  0  0  0  0  0  0  0
   35.3330   20.2770   32.9090 N   0  0  0  0  0  0  0  0  0  0  0  0
  1  6  1  0  0  0  0
  2  3  1  0  0  0  0
  2  1  2  0  0  0  0
  3  4  2  0  0  0  0
  4  5  1  0  0  0  0
  5 11  1  0  0  0  0
  6  5  2  0  0  0  0
  7  2  1  0  0  0  0
  8  3  1  0  0  0  0
  9 10  1  0  0  0  0
 10 15  1  0  0  0  0
 11 10  2  0  0  0  0
 11 12  1  0  0  0  0
 12 13  2  0  0  0  0
 13 14  1  0  0  0  0
 13 17  1  0  0  0  0
 14 18  1  0  0  0  0
 15 19  1  0  0  0  0
 15 14  2  0  0  0  0
 16 12  1  0  0  0  0
 20  1  1  0  0  0  0
 20 27  1  0  0  0  0
 21 20  2  0  0  0  0
 22 21  1  0  0  0  0
 23 21  1  0  0  0  0
 23 25  1  0  0  0  0
 24 23  1  0  0  0  0
 25 26  1  0  0  0  0
 25 27  2  0  0  0  0
M  END
>  <minimizedAffinity>
-4.99056149

$$$$

 OpenBabel03272502203D

 27 29  0  0  0  0  0  0  0  0999 V2000
   37.3970   25.9290   33.6310 C   0  0  0  0  0  0  0  0  0  0  0  0
   37.2100   27.1930   34.2280 C   0  0  0  0  0  0  0  0  0  0  0  0
   37.9440   27.4700   35.3890 C   0  0  0  0  0  0  0  0  0  0  0  0
   38.7890   26.5130   35.8720 N   0  0  0  0  0  0  0  0  0  0  0  0
   38.9330   25.3070   35.2570 C   0  0  0  0  0  0  0  0  0  0  0  0
   38.2390   25.0210   34.1450 N   0  0  0  0  0  0  0  0  0  0  0  0
   36.5450   27.9460   33.8470 H   0  0  0  0  0  0  0  0  0  0  0  0
   37.8690   28.4170   35.9200 H   0  0  0  0  0  0  0  0  0  0  0  0
   41.8370   25.4890   34.0860 Br  0  0  0  0  0  0  0  0  0  0  0  0
   41.1550   24.2320   35.3470 C   0  0  0  0  0  0  0  0  0  0  0  0
   39.8370   24.2800   35.7730 C   0  0  0  0  0  0  0  0  0  0  0  0
   39.4110   23.3360   36.6910 C   0  0  0  0  0  0  0  0  0  0  0  0
   40.2400   22.3510   37.1980 C   0  0  0  0  0  0  0  0  0  0  0  0
   41.5450   22.3270   36.7570 C   0  0  0  0  0  0  0  0  0  0  0  0
   41.9860   23.2580   35.8440 C   0  0  0  0  0  0  0  0  0  0  0  0
   38.3660   23.4050   37.0040 H   0  0  0  0  0  0  0  0  0  0  0  0
   39.9060   21.6310   37.9030 H   0  0  0  0  0  0  0  0  0  0  0  0
   42.2750   21.5940   37.0950 H   0  0  0  0  0  0  0  0  0  0  0  0
   43.0210   23.2410   35.4920 H   0  0  0  0  0  0  0  0  0  0  0  0
   36.6330   25.6360   32.4210 C   0  0  0  0  0  0  0  0  0  0  0  0
   36.1680   26.5690   31.5250 C   0  0  0  0  0  0  0  0  0  0  0  0
   36.2880   27.6310   31.5720 H   0  0  0  0  0  0  0  0  0  0  0  0
   35.5290   25.8250   30.5830 N   0  0  0  0  0  0  0  0  0  0  0  0
   35.0730   26.3270   29.7640 H   0  0  0  0  0  0  0  0  0  0  0  0
   35.5790   24.5080   30.8520 C   0  0  0  0  0  0  0  0  0  0  0  0
   35.1070   23.7980   30.1800 H   0  0  0  0  0  0  0  0  0  0  0  0
   36.2760   24.4050   32.0080 N   0  0  0  0  0  0  0  0  0  0  0  0
  1  6  2  0  0  0  0
  1  2  1  0  0  0  0
  2  3  2  0  0  0  0
  3  4  1  0  0  0  0
  3  8  1  0  0  0  0
  5 11  1  0  0  0  0
  5  4  2  0  0  0  0
  6  5  1  0  0  0  0
  7  2  1  0  0  0  0
  9 10  1  0  0  0  0
 10 11  2  0  0  0  0
 10 15  1  0  0  0  0
 11 12  1  0  0  0  0
 12 16  1  0  0  0  0
 12 13  2  0  0  0  0
 13 17  1  0  0  0  0
 14 18  1  0  0  0  0
 14 13  1  0  0  0  0
 15 14  2  0  0  0  0
 19 15  1  0  0  0  0
 20  1  1  0  0  0  0
 21 22  1  0  0  0  0
 21 20  2  0  0  0  0
 23 25  1  0  0  0  0
 23 21  1  0  0  0  0
 24 23  1  0  0  0  0
 25 27  2  0  0  0  0
 26 25  1  0  0  0  0
 27 20  1  0  0  0  0
M  END
>  <minimizedAffinity>
-4.97205973

$$$$
