
 OpenBabel03262522493D

 24 26  0  0  0  0  0  0  0  0999 V2000
   37.7120   26.9320   34.0350 C   0  0  0  0  0  0  0  0  0  0  0  0
   37.8470   27.3920   35.2840 C   0  0  0  0  0  0  0  0  0  0  0  0
   38.2610   26.5610   36.2840 C   0  0  0  0  0  0  0  0  0  0  0  0
   38.5180   25.2550   35.9130 C   0  0  0  0  0  0  0  0  0  0  0  0
   38.1530   25.2670   34.1240 S   0  0  0  0  0  0  0  0  0  0  0  0
   37.6210   28.4530   35.4980 H   0  0  0  0  0  0  0  0  0  0  0  0
   38.4030   26.8230   37.3230 H   0  0  0  0  0  0  0  0  0  0  0  0
   37.7190   28.1840   30.6050 C   0  0  0  0  0  0  0  0  0  0  0  0
   36.5260   28.9480   30.5520 C   0  0  0  0  0  0  0  0  0  0  0  0
   35.7330   29.0200   31.7110 C   0  0  0  0  0  0  0  0  0  0  0  0
   36.1460   28.3540   32.8250 N   0  0  0  0  0  0  0  0  0  0  0  0
   37.2840   27.6440   32.8280 C   0  0  0  0  0  0  0  0  0  0  0  0
   38.0810   27.5410   31.7460 N   0  0  0  0  0  0  0  0  0  0  0  0
   38.3520   28.1050   29.7400 H   0  0  0  0  0  0  0  0  0  0  0  0
   36.2630   29.4500   29.6300 H   0  0  0  0  0  0  0  0  0  0  0  0
   34.8200   29.5990   31.6860 H   0  0  0  0  0  0  0  0  0  0  0  0
   38.9670   24.1310   36.7240 C   0  0  0  0  0  0  0  0  0  0  0  0
   38.4480   23.6630   37.9200 C   0  0  0  0  0  0  0  0  0  0  0  0
   37.5940   24.1560   38.3650 H   0  0  0  0  0  0  0  0  0  0  0  0
   39.2200   22.6120   38.2520 N   0  0  0  0  0  0  0  0  0  0  0  0
   39.0480   22.0670   39.1190 H   0  0  0  0  0  0  0  0  0  0  0  0
   40.1750   22.4140   37.3280 C   0  0  0  0  0  0  0  0  0  0  0  0
   40.9430   21.6570   37.3070 H   0  0  0  0  0  0  0  0  0  0  0  0
   40.0240   23.3660   36.3630 N   0  0  0  0  0  0  0  0  0  0  0  0
  1  5  1  0  0  0  0
  1  2  2  0  0  0  0
  2  6  1  0  0  0  0
  2  3  1  0  0  0  0
  3  7  1  0  0  0  0
  4  3  2  0  0  0  0
  4 17  1  0  0  0  0
  5  4  1  0  0  0  0
  8 13  1  0  0  0  0
  9  8  2  0  0  0  0
  9 10  1  0  0  0  0
 10 11  2  0  0  0  0
 11 12  1  0  0  0  0
 12  1  1  0  0  0  0
 13 12  2  0  0  0  0
 14  8  1  0  0  0  0
 15  9  1  0  0  0  0
 16 10  1  0  0  0  0
 17 18  2  0  0  0  0
 18 20  1  0  0  0  0
 18 19  1  0  0  0  0
 20 21  1  0  0  0  0
 22 20  1  0  0  0  0
 23 22  1  0  0  0  0
 24 17  1  0  0  0  0
 24 22  2  0  0  0  0
M  END
>  <minimizedAffinity>
-4.84386969

$$$$

 OpenBabel03262522493D

 24 26  0  0  0  0  0  0  0  0999 V2000
   37.7420   26.9020   33.9950 C   0  0  0  0  0  0  0  0  0  0  0  0
   37.8130   27.3700   35.2460 C   0  0  0  0  0  0  0  0  0  0  0  0
   38.2050   26.5530   36.2660 C   0  0  0  0  0  0  0  0  0  0  0  0
   38.5090   25.2520   35.9130 C   0  0  0  0  0  0  0  0  0  0  0  0
   38.2190   25.2480   34.1100 S   0  0  0  0  0  0  0  0  0  0  0  0
   37.5540   28.4250   35.4450 H   0  0  0  0  0  0  0  0  0  0  0  0
   38.2970   26.8220   37.3090 H   0  0  0  0  0  0  0  0  0  0  0  0
   35.8020   28.9700   31.6950 C   0  0  0  0  0  0  0  0  0  0  0  0
   36.5730   28.9170   30.5060 C   0  0  0  0  0  0  0  0  0  0  0  0
   37.7590   28.1620   30.5180 C   0  0  0  0  0  0  0  0  0  0  0  0
   38.1100   27.5190   31.6670 N   0  0  0  0  0  0  0  0  0  0  0  0
   37.3480   27.5980   32.7670 C   0  0  0  0  0  0  0  0  0  0  0  0
   36.2030   28.3070   32.8110 N   0  0  0  0  0  0  0  0  0  0  0  0
   34.8890   29.5370   31.7250 H   0  0  0  0  0  0  0  0  0  0  0  0
   36.2300   29.4550   29.6320 H   0  0  0  0  0  0  0  0  0  0  0  0
   38.3580   28.1130   29.6190 H   0  0  0  0  0  0  0  0  0  0  0  0
   38.9500   24.1430   36.7480 C   0  0  0  0  0  0  0  0  0  0  0  0
   38.4050   23.6790   37.9340 C   0  0  0  0  0  0  0  0  0  0  0  0
   37.5320   24.1640   38.3490 H   0  0  0  0  0  0  0  0  0  0  0  0
   39.1810   22.6420   38.2970 N   0  0  0  0  0  0  0  0  0  0  0  0
   38.9930   22.1040   39.1650 H   0  0  0  0  0  0  0  0  0  0  0  0
   40.1640   22.4480   37.4030 C   0  0  0  0  0  0  0  0  0  0  0  0
   40.9430   21.7020   37.4110 H   0  0  0  0  0  0  0  0  0  0  0  0
   40.0270   23.3880   36.4240 N   0  0  0  0  0  0  0  0  0  0  0  0
  1  5  1  0  0  0  0
  1  2  2  0  0  0  0
  2  6  1  0  0  0  0
  2  3  1  0  0  0  0
  3  7  1  0  0  0  0
  4  3  2  0  0  0  0
  4 17  1  0  0  0  0
  5  4  1  0  0  0  0
  8 14  1  0  0  0  0
  8 13  1  0  0  0  0
  9 10  1  0  0  0  0
  9  8  2  0  0  0  0
 10 11  2  0  0  0  0
 11 12  1  0  0  0  0
 12 13  2  0  0  0  0
 12  1  1  0  0  0  0
 15  9  1  0  0  0  0
 16 10  1  0  0  0  0
 17 18  2  0  0  0  0
 18 20  1  0  0  0  0
 18 19  1  0  0  0  0
 20 21  1  0  0  0  0
 22 23  1  0  0  0  0
 22 20  1  0  0  0  0
 24 17  1  0  0  0  0
 24 22  2  0  0  0  0
M  END
>  <minimizedAffinity>
-4.82184124

$$$$

 OpenBabel03262522493D

 24 26  0  0  0  0  0  0  0  0999 V2000
   38.0810   25.6210   35.1820 C   0  0  0  0  0  0  0  0  0  0  0  0
   37.4680   26.8070   35.2710 C   0  0  0  0  0  0  0  0  0  0  0  0
   37.1730   27.5170   34.1440 C   0  0  0  0  0  0  0  0  0  0  0  0
   37.5450   26.9320   32.9490 C   0  0  0  0  0  0  0  0  0  0  0  0
   38.3140   25.3670   33.4930 S   0  0  0  0  0  0  0  0  0  0  0  0
   37.2020   27.2060   36.2670 H   0  0  0  0  0  0  0  0  0  0  0  0
   36.6830   28.4790   34.0970 H   0  0  0  0  0  0  0  0  0  0  0  0
   39.9090   22.9970   36.9440 C   0  0  0  0  0  0  0  0  0  0  0  0
   39.2850   22.9870   38.2170 C   0  0  0  0  0  0  0  0  0  0  0  0
   38.2350   23.8930   38.4480 C   0  0  0  0  0  0  0  0  0  0  0  0
   37.8680   24.7350   37.4420 N   0  0  0  0  0  0  0  0  0  0  0  0
   38.4880   24.7070   36.2530 C   0  0  0  0  0  0  0  0  0  0  0  0
   39.4990   23.8600   35.9780 N   0  0  0  0  0  0  0  0  0  0  0  0
   40.7160   22.3190   36.7290 H   0  0  0  0  0  0  0  0  0  0  0  0
   39.6320   22.2880   38.9680 H   0  0  0  0  0  0  0  0  0  0  0  0
   37.7500   23.8970   39.4140 H   0  0  0  0  0  0  0  0  0  0  0  0
   37.3800   27.4170   31.5860 C   0  0  0  0  0  0  0  0  0  0  0  0
   36.2580   27.3630   30.7760 C   0  0  0  0  0  0  0  0  0  0  0  0
   35.3490   26.9100   31.1480 H   0  0  0  0  0  0  0  0  0  0  0  0
   36.6270   27.9450   29.6210 N   0  0  0  0  0  0  0  0  0  0  0  0
   35.9660   28.0380   28.8260 H   0  0  0  0  0  0  0  0  0  0  0  0
   37.9070   28.3500   29.6820 C   0  0  0  0  0  0  0  0  0  0  0  0
   38.4910   28.8470   28.9240 H   0  0  0  0  0  0  0  0  0  0  0  0
   38.3890   28.0220   30.9150 N   0  0  0  0  0  0  0  0  0  0  0  0
  1  2  2  0  0  0  0
  1 12  1  0  0  0  0
  2  6  1  0  0  0  0
  3  2  1  0  0  0  0
  4  5  1  0  0  0  0
  4  3  2  0  0  0  0
  5  1  1  0  0  0  0
  7  3  1  0  0  0  0
  8  9  1  0  0  0  0
  9 10  2  0  0  0  0
  9 15  1  0  0  0  0
 10 16  1  0  0  0  0
 11 10  1  0  0  0  0
 12 11  2  0  0  0  0
 13 12  1  0  0  0  0
 13  8  2  0  0  0  0
 14  8  1  0  0  0  0
 17  4  1  0  0  0  0
 18 19  1  0  0  0  0
 18 17  2  0  0  0  0
 20 22  1  0  0  0  0
 20 18  1  0  0  0  0
 21 20  1  0  0  0  0
 22 24  2  0  0  0  0
 23 22  1  0  0  0  0
 24 17  1  0  0  0  0
M  END
>  <minimizedAffinity>
-4.73358488

$$$$

 OpenBabel03262522493D

 24 26  0  0  0  0  0  0  0  0999 V2000
   38.1250   25.6000   35.1630 C   0  0  0  0  0  0  0  0  0  0  0  0
   37.5080   26.7820   35.2720 C   0  0  0  0  0  0  0  0  0  0  0  0
   37.1950   27.5020   34.1550 C   0  0  0  0  0  0  0  0  0  0  0  0
   37.5550   26.9300   32.9500 C   0  0  0  0  0  0  0  0  0  0  0  0
   38.3380   25.3630   33.4680 S   0  0  0  0  0  0  0  0  0  0  0  0
   37.2530   27.1710   36.2740 H   0  0  0  0  0  0  0  0  0  0  0  0
   36.7000   28.4620   34.1240 H   0  0  0  0  0  0  0  0  0  0  0  0
   38.2350   23.8930   38.3890 C   0  0  0  0  0  0  0  0  0  0  0  0
   39.3010   22.9750   38.2160 C   0  0  0  0  0  0  0  0  0  0  0  0
   39.9700   22.9600   36.9790 C   0  0  0  0  0  0  0  0  0  0  0  0
   39.5640   23.8250   36.0090 N   0  0  0  0  0  0  0  0  0  0  0  0
   38.5500   24.6780   36.2190 C   0  0  0  0  0  0  0  0  0  0  0  0
   37.8750   24.7340   37.3840 N   0  0  0  0  0  0  0  0  0  0  0  0
   37.6990   23.9350   39.3200 H   0  0  0  0  0  0  0  0  0  0  0  0
   39.5660   22.3170   39.0340 H   0  0  0  0  0  0  0  0  0  0  0  0
   40.7840   22.2640   36.8330 H   0  0  0  0  0  0  0  0  0  0  0  0
   37.3690   27.4290   31.5940 C   0  0  0  0  0  0  0  0  0  0  0  0
   36.2490   27.3410   30.7830 C   0  0  0  0  0  0  0  0  0  0  0  0
   35.3590   26.8480   31.1490 H   0  0  0  0  0  0  0  0  0  0  0  0
   36.5950   27.9540   29.6370 N   0  0  0  0  0  0  0  0  0  0  0  0
   35.9300   28.0320   28.8430 H   0  0  0  0  0  0  0  0  0  0  0  0
   37.8580   28.4080   29.7030 C   0  0  0  0  0  0  0  0  0  0  0  0
   38.4210   28.9390   28.9520 H   0  0  0  0  0  0  0  0  0  0  0  0
   38.3530   28.0820   30.9310 N   0  0  0  0  0  0  0  0  0  0  0  0
  1  2  2  0  0  0  0
  1 12  1  0  0  0  0
  2  6  1  0  0  0  0
  3  2  1  0  0  0  0
  4  5  1  0  0  0  0
  4  3  2  0  0  0  0
  5  1  1  0  0  0  0
  7  3  1  0  0  0  0
  8 14  1  0  0  0  0
  9  8  1  0  0  0  0
  9 15  1  0  0  0  0
 10  9  2  0  0  0  0
 11 12  2  0  0  0  0
 11 10  1  0  0  0  0
 12 13  1  0  0  0  0
 13  8  2  0  0  0  0
 16 10  1  0  0  0  0
 17  4  1  0  0  0  0
 18 19  1  0  0  0  0
 18 17  2  0  0  0  0
 20 22  1  0  0  0  0
 20 18  1  0  0  0  0
 21 20  1  0  0  0  0
 22 24  2  0  0  0  0
 23 22  1  0  0  0  0
 24 17  1  0  0  0  0
M  END
>  <minimizedAffinity>
-4.72601652

$$$$

 OpenBabel03262522493D

 24 26  0  0  0  0  0  0  0  0999 V2000
   37.4210   26.1370   33.4050 C   0  0  0  0  0  0  0  0  0  0  0  0
   37.7380   24.8720   33.1080 C   0  0  0  0  0  0  0  0  0  0  0  0
   38.1350   24.0120   34.0910 C   0  0  0  0  0  0  0  0  0  0  0  0
   38.1820   24.5360   35.3680 C   0  0  0  0  0  0  0  0  0  0  0  0
   37.6480   26.2640   35.1100 S   0  0  0  0  0  0  0  0  0  0  0  0
   37.6740   24.5280   32.0600 H   0  0  0  0  0  0  0  0  0  0  0  0
   38.4130   22.9750   33.9660 H   0  0  0  0  0  0  0  0  0  0  0  0
   35.9970   29.3150   32.3080 C   0  0  0  0  0  0  0  0  0  0  0  0
   36.1430   29.2490   30.8990 C   0  0  0  0  0  0  0  0  0  0  0  0
   36.7350   28.0990   30.3470 C   0  0  0  0  0  0  0  0  0  0  0  0
   37.1390   27.1060   31.1880 N   0  0  0  0  0  0  0  0  0  0  0  0
   36.9790   27.2140   32.5150 C   0  0  0  0  0  0  0  0  0  0  0  0
   36.4190   28.2930   33.0970 N   0  0  0  0  0  0  0  0  0  0  0  0
   35.5500   30.1770   32.7680 H   0  0  0  0  0  0  0  0  0  0  0  0
   35.7980   30.0780   30.2950 H   0  0  0  0  0  0  0  0  0  0  0  0
   36.8540   28.0340   29.2740 H   0  0  0  0  0  0  0  0  0  0  0  0
   38.5580   23.8970   36.6210 C   0  0  0  0  0  0  0  0  0  0  0  0
   39.5070   22.9120   36.8410 C   0  0  0  0  0  0  0  0  0  0  0  0
   40.0800   22.5230   36.0110 H   0  0  0  0  0  0  0  0  0  0  0  0
   39.4660   22.6710   38.1640 N   0  0  0  0  0  0  0  0  0  0  0  0
   40.0860   21.9640   38.6050 H   0  0  0  0  0  0  0  0  0  0  0  0
   38.5490   23.4510   38.7600 C   0  0  0  0  0  0  0  0  0  0  0  0
   38.2790   23.4960   39.8030 H   0  0  0  0  0  0  0  0  0  0  0  0
   37.9720   24.2260   37.7970 N   0  0  0  0  0  0  0  0  0  0  0  0
  1  5  1  0  0  0  0
  2  1  2  0  0  0  0
  2  3  1  0  0  0  0
  3  4  2  0  0  0  0
  4 17  1  0  0  0  0
  5  4  1  0  0  0  0
  6  2  1  0  0  0  0
  7  3  1  0  0  0  0
  8 14  1  0  0  0  0
  8 13  1  0  0  0  0
  9  8  2  0  0  0  0
 10  9  1  0  0  0  0
 10 11  2  0  0  0  0
 11 12  1  0  0  0  0
 12 13  2  0  0  0  0
 12  1  1  0  0  0  0
 15  9  1  0  0  0  0
 16 10  1  0  0  0  0
 17 18  2  0  0  0  0
 17 24  1  0  0  0  0
 18 20  1  0  0  0  0
 19 18  1  0  0  0  0
 20 21  1  0  0  0  0
 20 22  1  0  0  0  0
 22 23  1  0  0  0  0
 24 22  2  0  0  0  0
M  END
>  <minimizedAffinity>
-4.69709444

$$$$

 OpenBabel03262522493D

 24 26  0  0  0  0  0  0  0  0999 V2000
   37.3780   26.1210   33.6110 C   0  0  0  0  0  0  0  0  0  0  0  0
   37.6300   24.8750   33.1930 C   0  0  0  0  0  0  0  0  0  0  0  0
   38.1500   23.9520   34.0530 C   0  0  0  0  0  0  0  0  0  0  0  0
   38.3860   24.3930   35.3400 C   0  0  0  0  0  0  0  0  0  0  0  0
   37.8470   26.1370   35.2700 S   0  0  0  0  0  0  0  0  0  0  0  0
   37.4120   24.6010   32.1450 H   0  0  0  0  0  0  0  0  0  0  0  0
   38.3920   22.9230   33.8250 H   0  0  0  0  0  0  0  0  0  0  0  0
   36.4340   28.2340   30.7870 C   0  0  0  0  0  0  0  0  0  0  0  0
   35.8200   29.3420   31.4220 C   0  0  0  0  0  0  0  0  0  0  0  0
   35.7420   29.3430   32.8260 C   0  0  0  0  0  0  0  0  0  0  0  0
   36.2580   28.2820   33.5070 N   0  0  0  0  0  0  0  0  0  0  0  0
   36.8300   27.2550   32.8620 C   0  0  0  0  0  0  0  0  0  0  0  0
   36.9310   27.2040   31.5190 N   0  0  0  0  0  0  0  0  0  0  0  0
   36.5130   28.1970   29.7150 H   0  0  0  0  0  0  0  0  0  0  0  0
   35.4320   30.1500   30.8130 H   0  0  0  0  0  0  0  0  0  0  0  0
   35.2760   30.1810   33.3250 H   0  0  0  0  0  0  0  0  0  0  0  0
   38.9280   23.6720   36.4840 C   0  0  0  0  0  0  0  0  0  0  0  0
   38.3420   23.4380   37.7170 C   0  0  0  0  0  0  0  0  0  0  0  0
   37.3490   23.8140   37.9210 H   0  0  0  0  0  0  0  0  0  0  0  0
   39.2520   22.7310   38.4120 N   0  0  0  0  0  0  0  0  0  0  0  0
   39.0670   22.4180   39.3840 H   0  0  0  0  0  0  0  0  0  0  0  0
   40.3550   22.5230   37.6730 C   0  0  0  0  0  0  0  0  0  0  0  0
   41.2550   21.9940   37.9440 H   0  0  0  0  0  0  0  0  0  0  0  0
   40.1600   23.1120   36.4590 N   0  0  0  0  0  0  0  0  0  0  0  0
  1  5  1  0  0  0  0
  2  1  2  0  0  0  0
  2  3  1  0  0  0  0
  3  4  2  0  0  0  0
  4 17  1  0  0  0  0
  5  4  1  0  0  0  0
  6  2  1  0  0  0  0
  7  3  1  0  0  0  0
  8  9  2  0  0  0  0
  8 13  1  0  0  0  0
  9 10  1  0  0  0  0
 10 16  1  0  0  0  0
 10 11  2  0  0  0  0
 12 11  1  0  0  0  0
 12  1  1  0  0  0  0
 13 12  2  0  0  0  0
 14  8  1  0  0  0  0
 15  9  1  0  0  0  0
 17 18  2  0  0  0  0
 18 19  1  0  0  0  0
 18 20  1  0  0  0  0
 20 21  1  0  0  0  0
 22 23  1  0  0  0  0
 22 20  1  0  0  0  0
 24 17  1  0  0  0  0
 24 22  2  0  0  0  0
M  END
>  <minimizedAffinity>
-4.64784813

$$$$

 OpenBabel03262522493D

 24 26  0  0  0  0  0  0  0  0999 V2000
   37.7640   26.0270   34.1370 C   0  0  0  0  0  0  0  0  0  0  0  0
   38.5870   25.2650   33.4080 C   0  0  0  0  0  0  0  0  0  0  0  0
   39.3200   24.2780   34.0010 C   0  0  0  0  0  0  0  0  0  0  0  0
   39.1500   24.1380   35.3640 C   0  0  0  0  0  0  0  0  0  0  0  0
   37.9290   25.4410   35.7510 S   0  0  0  0  0  0  0  0  0  0  0  0
   38.6660   25.4400   32.3190 H   0  0  0  0  0  0  0  0  0  0  0  0
   40.0120   23.6070   33.5120 H   0  0  0  0  0  0  0  0  0  0  0  0
   35.6360   28.0870   32.0020 C   0  0  0  0  0  0  0  0  0  0  0  0
   35.2780   29.1550   32.8620 C   0  0  0  0  0  0  0  0  0  0  0  0
   35.7820   29.1480   34.1750 C   0  0  0  0  0  0  0  0  0  0  0  0
   36.5870   28.1180   34.5570 N   0  0  0  0  0  0  0  0  0  0  0  0
   36.8980   27.1280   33.7080 C   0  0  0  0  0  0  0  0  0  0  0  0
   36.4440   27.0860   32.4400 N   0  0  0  0  0  0  0  0  0  0  0  0
   35.2710   28.0570   30.9910 H   0  0  0  0  0  0  0  0  0  0  0  0
   34.6330   29.9400   32.4860 H   0  0  0  0  0  0  0  0  0  0  0  0
   35.5170   29.9560   34.8420 H   0  0  0  0  0  0  0  0  0  0  0  0
   39.7730   23.1980   36.2860 C   0  0  0  0  0  0  0  0  0  0  0  0
   39.4780   22.9670   37.6200 C   0  0  0  0  0  0  0  0  0  0  0  0
   38.6890   23.5280   38.1000 H   0  0  0  0  0  0  0  0  0  0  0  0
   40.3380   22.0090   38.0100 N   0  0  0  0  0  0  0  0  0  0  0  0
   40.3340   21.6410   38.9810 H   0  0  0  0  0  0  0  0  0  0  0  0
   41.1360   21.6440   36.9930 C   0  0  0  0  0  0  0  0  0  0  0  0
   41.9210   20.9050   36.9860 H   0  0  0  0  0  0  0  0  0  0  0  0
   40.7880   22.3870   35.9040 N   0  0  0  0  0  0  0  0  0  0  0  0
  1  5  1  0  0  0  0
  2  3  1  0  0  0  0
  2  1  2  0  0  0  0
  3  4  2  0  0  0  0
  4  5  1  0  0  0  0
  4 17  1  0  0  0  0
  6  2  1  0  0  0  0
  7  3  1  0  0  0  0
  8 13  2  0  0  0  0
  8  9  1  0  0  0  0
  9 10  2  0  0  0  0
 10 11  1  0  0  0  0
 10 16  1  0  0  0  0
 12  1  1  0  0  0  0
 12 11  2  0  0  0  0
 13 12  1  0  0  0  0
 14  8  1  0  0  0  0
 15  9  1  0  0  0  0
 17 18  2  0  0  0  0
 18 20  1  0  0  0  0
 18 19  1  0  0  0  0
 20 21  1  0  0  0  0
 22 20  1  0  0  0  0
 23 22  1  0  0  0  0
 24 17  1  0  0  0  0
 24 22  2  0  0  0  0
M  END
>  <minimizedAffinity>
-4.45177412

$$$$

 OpenBabel03262522493D

 24 26  0  0  0  0  0  0  0  0999 V2000
   38.0900   24.6060   33.5500 C   0  0  0  0  0  0  0  0  0  0  0  0
   39.1220   25.3110   34.0280 C   0  0  0  0  0  0  0  0  0  0  0  0
   39.9860   24.7480   34.9220 C   0  0  0  0  0  0  0  0  0  0  0  0
   39.7160   23.4410   35.2800 C   0  0  0  0  0  0  0  0  0  0  0  0
   38.2160   23.0620   34.3090 S   0  0  0  0  0  0  0  0  0  0  0  0
   39.2690   26.3530   33.6910 H   0  0  0  0  0  0  0  0  0  0  0  0
   40.8480   25.2210   35.3710 H   0  0  0  0  0  0  0  0  0  0  0  0
   35.4100   24.3600   31.0830 C   0  0  0  0  0  0  0  0  0  0  0  0
   35.1110   25.7190   30.8150 C   0  0  0  0  0  0  0  0  0  0  0  0
   35.8460   26.7070   31.4950 C   0  0  0  0  0  0  0  0  0  0  0  0
   36.8060   26.3120   32.3760 N   0  0  0  0  0  0  0  0  0  0  0  0
   37.0540   25.0130   32.5970 C   0  0  0  0  0  0  0  0  0  0  0  0
   36.3800   24.0260   31.9730 N   0  0  0  0  0  0  0  0  0  0  0  0
   34.8700   23.5750   30.5830 H   0  0  0  0  0  0  0  0  0  0  0  0
   34.3320   25.9560   30.1000 H   0  0  0  0  0  0  0  0  0  0  0  0
   35.6290   27.7480   31.3000 H   0  0  0  0  0  0  0  0  0  0  0  0
   40.4290   22.5630   36.1970 C   0  0  0  0  0  0  0  0  0  0  0  0
   40.1750   22.3180   37.5370 C   0  0  0  0  0  0  0  0  0  0  0  0
   39.3490   22.8150   38.0270 H   0  0  0  0  0  0  0  0  0  0  0  0
   41.1170   21.4370   37.9190 N   0  0  0  0  0  0  0  0  0  0  0  0
   41.1590   21.0780   38.8930 H   0  0  0  0  0  0  0  0  0  0  0  0
   41.9270   21.1320   36.8910 C   0  0  0  0  0  0  0  0  0  0  0  0
   42.7710   20.4610   36.8770 H   0  0  0  0  0  0  0  0  0  0  0  0
   41.5020   21.8370   35.8040 N   0  0  0  0  0  0  0  0  0  0  0  0
  1  2  2  0  0  0  0
  1  5  1  0  0  0  0
  2  3  1  0  0  0  0
  3  4  2  0  0  0  0
  3  7  1  0  0  0  0
  4 17  1  0  0  0  0
  5  4  1  0  0  0  0
  6  2  1  0  0  0  0
  8 13  1  0  0  0  0
  9  8  2  0  0  0  0
  9 10  1  0  0  0  0
 10 11  2  0  0  0  0
 11 12  1  0  0  0  0
 12  1  1  0  0  0  0
 13 12  2  0  0  0  0
 14  8  1  0  0  0  0
 15  9  1  0  0  0  0
 16 10  1  0  0  0  0
 17 18  2  0  0  0  0
 18 20  1  0  0  0  0
 18 19  1  0  0  0  0
 20 21  1  0  0  0  0
 22 20  1  0  0  0  0
 23 22  1  0  0  0  0
 24 17  1  0  0  0  0
 24 22  2  0  0  0  0
M  END
>  <minimizedAffinity>
-4.42049074

$$$$

 OpenBabel03262522493D

 24 26  0  0  0  0  0  0  0  0999 V2000
   38.0650   25.0010   34.7840 C   0  0  0  0  0  0  0  0  0  0  0  0
   38.1160   24.5170   33.5380 C   0  0  0  0  0  0  0  0  0  0  0  0
   37.7230   25.2880   32.4830 C   0  0  0  0  0  0  0  0  0  0  0  0
   37.2840   26.5600   32.7970 C   0  0  0  0  0  0  0  0  0  0  0  0
   37.4530   26.6040   34.6150 S   0  0  0  0  0  0  0  0  0  0  0  0
   38.4820   23.4880   33.3700 H   0  0  0  0  0  0  0  0  0  0  0  0
   37.7220   25.0020   31.4400 H   0  0  0  0  0  0  0  0  0  0  0  0
   39.8710   22.9020   37.1640 C   0  0  0  0  0  0  0  0  0  0  0  0
   39.1580   23.1180   38.3700 C   0  0  0  0  0  0  0  0  0  0  0  0
   38.0550   23.9900   38.3410 C   0  0  0  0  0  0  0  0  0  0  0  0
   37.7270   24.5850   37.1610 N   0  0  0  0  0  0  0  0  0  0  0  0
   38.4320   24.3500   36.0450 C   0  0  0  0  0  0  0  0  0  0  0  0
   39.4960   23.5240   36.0160 N   0  0  0  0  0  0  0  0  0  0  0  0
   40.7200   22.2420   37.1460 H   0  0  0  0  0  0  0  0  0  0  0  0
   39.4790   22.6080   39.2700 H   0  0  0  0  0  0  0  0  0  0  0  0
   37.5020   24.1650   39.2530 H   0  0  0  0  0  0  0  0  0  0  0  0
   36.8020   27.6180   31.9200 C   0  0  0  0  0  0  0  0  0  0  0  0
   36.9100   27.7200   30.5430 C   0  0  0  0  0  0  0  0  0  0  0  0
   37.4090   26.9400   29.9840 H   0  0  0  0  0  0  0  0  0  0  0  0
   36.3050   28.8790   30.2260 N   0  0  0  0  0  0  0  0  0  0  0  0
   36.2420   29.2050   29.2420 H   0  0  0  0  0  0  0  0  0  0  0  0
   35.8360   29.4870   31.3290 C   0  0  0  0  0  0  0  0  0  0  0  0
   35.3070   30.4230   31.4070 H   0  0  0  0  0  0  0  0  0  0  0  0
   36.1440   28.7000   32.3990 N   0  0  0  0  0  0  0  0  0  0  0  0
  1 12  1  0  0  0  0
  2  1  2  0  0  0  0
  3  4  2  0  0  0  0
  3  2  1  0  0  0  0
  4  5  1  0  0  0  0
  5  1  1  0  0  0  0
  6  2  1  0  0  0  0
  7  3  1  0  0  0  0
  8  9  1  0  0  0  0
  9 15  1  0  0  0  0
 10  9  2  0  0  0  0
 10 16  1  0  0  0  0
 11 10  1  0  0  0  0
 12 11  2  0  0  0  0
 13 12  1  0  0  0  0
 13  8  2  0  0  0  0
 14  8  1  0  0  0  0
 17 24  1  0  0  0  0
 17  4  1  0  0  0  0
 18 17  2  0  0  0  0
 19 18  1  0  0  0  0
 20 18  1  0  0  0  0
 20 22  1  0  0  0  0
 21 20  1  0  0  0  0
 22 23  1  0  0  0  0
 22 24  2  0  0  0  0
M  END
>  <minimizedAffinity>
-4.40584326

$$$$
