
 OpenBabel03262523573D

 31 34  0  0  0  0  0  0  0  0999 V2000
   33.4550   28.2620   49.0900 C   0  0  0  0  0  0  0  0  0  0  0  0
   34.4350   28.9600   48.3550 C   0  0  0  0  0  0  0  0  0  0  0  0
   34.3670   28.8650   46.9670 C   0  0  0  0  0  0  0  0  0  0  0  0
   33.3760   28.1130   46.3860 N   0  0  0  0  0  0  0  0  0  0  0  0
   32.4560   27.4590   47.1450 C   0  0  0  0  0  0  0  0  0  0  0  0
   32.5130   27.5450   48.4810 N   0  0  0  0  0  0  0  0  0  0  0  0
   33.5740   28.3840   50.1510 H   0  0  0  0  0  0  0  0  0  0  0  0
   34.9960   29.3050   46.2110 H   0  0  0  0  0  0  0  0  0  0  0  0
   35.8700   29.8690   50.1670 C   0  0  0  0  0  3  0  0  0  0  0  0
   35.5150   29.7730   48.8380 C   0  0  0  0  0  0  0  0  0  0  0  0
   36.2600   30.5180   47.9320 C   0  0  0  0  0  0  0  0  0  0  0  0
   36.0210   30.4790   46.8680 H   0  0  0  0  0  0  0  0  0  0  0  0
   37.3160   31.3320   48.2830 C   0  0  0  0  0  0  0  0  0  0  0  0
   38.1490   32.1190   47.5880 N   0  0  0  0  0  0  0  0  0  0  0  0
   38.1340   32.2600   46.5490 H   0  0  0  0  0  0  0  0  0  0  0  0
   39.0050   32.6900   48.4630 C   0  0  0  0  0  0  0  0  0  0  0  0
   39.8210   33.3910   48.2460 H   0  0  0  0  0  0  0  0  0  0  0  0
   38.7370   32.2800   49.7620 C   0  0  0  0  0  3  0  0  0  0  0  0
   37.6610   31.4170   49.6160 C   0  0  0  0  0  0  0  0  0  0  0  0
   36.9290   30.6860   50.5120 C   0  0  0  0  0  3  0  0  0  0  0  0
   33.4900   24.8110   45.8230 Br  0  0  0  0  0  0  0  0  0  0  0  0
   31.6930   25.4560   45.9170 C   0  0  0  0  0  0  0  0  0  0  0  0
   31.4010   26.6620   46.5440 C   0  0  0  0  0  0  0  0  0  0  0  0
   30.0840   27.0530   46.5670 C   0  0  0  0  0  0  0  0  0  0  0  0
   29.0560   26.3100   46.0020 C   0  0  0  0  0  0  0  0  0  0  0  0
   29.3810   25.1270   45.3910 C   0  0  0  0  0  0  0  0  0  0  0  0
   30.7130   24.7050   45.3540 C   0  0  0  0  0  0  0  0  0  0  0  0
   29.8020   27.9830   47.0430 H   0  0  0  0  0  0  0  0  0  0  0  0
   28.0290   26.6030   46.0120 H   0  0  0  0  0  0  0  0  0  0  0  0
   28.6460   24.4800   44.9220 H   0  0  0  0  0  0  0  0  0  0  0  0
   30.9430   23.7660   44.8650 H   0  0  0  0  0  0  0  0  0  0  0  0
  1  7  1  0  0  0  0
  2 10  1  0  0  0  0
  2  1  2  0  0  0  0
  3  2  1  0  0  0  0
  4  3  2  0  0  0  0
  4  5  1  0  0  0  0
  5  6  2  0  0  0  0
  6  1  1  0  0  0  0
  8  3  1  0  0  0  0
  9 20  1  0  0  0  0
 10  9  2  0  0  0  0
 11 13  2  0  0  0  0
 11 10  1  0  0  0  0
 12 11  1  0  0  0  0
 13 19  1  0  0  0  0
 14 13  1  0  0  0  0
 14 16  1  0  0  0  0
 15 14  1  0  0  0  0
 16 18  2  0  0  0  0
 17 16  1  0  0  0  0
 19 18  1  0  0  0  0
 19 20  2  0  0  0  0
 21 22  1  0  0  0  0
 22 23  1  0  0  0  0
 23 24  2  0  0  0  0
 23  5  1  0  0  0  0
 24 28  1  0  0  0  0
 25 29  1  0  0  0  0
 25 24  1  0  0  0  0
 26 25  2  0  0  0  0
 27 26  1  0  0  0  0
 27 22  2  0  0  0  0
 30 26  1  0  0  0  0
 31 27  1  0  0  0  0
M  END
>  <minimizedAffinity>
-5.8030777

>  <minimizedRMSD>
6.48283577

$$$$
