
 OpenBabel03262522053D

 43 47  0  0  1  0  0  0  0  0999 V2000
   37.7770   31.8670   49.5830 C   0  0  0  0  0  0  0  0  0  0  0  0
   36.7860   32.3730   50.1930 O   0  0  0  0  0  0  0  0  0  0  0  0
   34.5480   29.1540   48.6120 C   0  0  2  0  0  0  0  0  0  0  0  0
   35.1820   28.4170   49.7430 C   0  0  0  0  0  0  0  0  0  0  0  0
   36.3210   29.1870   50.2420 N   0  0  0  0  0  0  0  0  0  0  0  0
   37.2700   29.9110   51.0380 C   0  0  0  0  0  0  0  0  0  0  0  0
   37.4800   30.0890   52.2510 O   0  0  0  0  0  0  0  0  0  0  0  0
   37.9970   30.4380   49.9130 C   0  0  1  0  0  0  0  0  0  0  0  0
   37.1660   29.4390   49.1170 C   0  0  2  0  0  0  0  0  0  0  0  0
   35.9580   30.1570   47.9790 S   0  0  0  0  0  0  0  0  0  0  0  0
   34.4970   28.2920   50.6160 H   0  0  0  0  0  0  0  0  0  0  0  0
   35.5280   27.4060   49.4190 H   0  0  0  0  0  0  0  0  0  0  0  0
   39.0530   30.1900   49.7260 H   0  0  0  0  0  0  0  0  0  0  0  0
   37.7190   28.5690   48.7180 H   0  0  0  0  0  0  0  0  0  0  0  0
   33.3440   29.9710   48.9360 C   0  0  0  0  0  0  0  0  0  0  0  0
   33.0500   29.7760   49.9900 H   0  0  0  0  0  0  0  0  0  0  0  0
   33.5070   31.0750   48.8730 H   0  0  0  0  0  0  0  0  0  0  0  0
   32.4750   29.7240   48.2640 H   0  0  0  0  0  0  0  0  0  0  0  0
   34.2610   28.1480   47.4860 C   0  0  0  0  0  0  0  0  0  0  0  0
   35.1040   28.0350   46.8030 H   0  0  0  0  0  0  0  0  0  0  0  0
   34.0120   27.1930   48.0320 H   0  0  0  0  0  0  0  0  0  0  0  0
   33.0670   28.5130   46.8590 O   0  0  0  0  0  0  0  0  0  0  0  0
   33.2770   28.5100   45.8740 H   0  0  0  0  0  0  0  0  0  0  0  0
   38.5980   32.6070   48.6740 C   0  0  0  0  0  0  0  0  0  0  0  0
   39.2260   33.7410   49.1360 C   0  0  0  0  0  0  0  0  0  0  0  0
   40.0340   34.4660   48.2340 C   0  0  0  0  0  0  0  0  0  0  0  0
   40.1460   34.0030   46.9510 N   0  0  0  0  0  0  0  0  0  0  0  0
   39.5230   32.9070   46.5450 C   0  0  0  0  0  0  0  0  0  0  0  0
   38.7470   32.1980   47.3890 N   0  0  0  0  0  0  0  0  0  0  0  0
   39.1200   34.0840   50.1610 H   0  0  0  0  0  0  0  0  0  0  0  0
   40.5550   35.3660   48.5370 H   0  0  0  0  0  0  0  0  0  0  0  0
   39.1910   33.2440   44.1070 C   0  0  0  0  0  3  0  0  0  0  0  0
   39.6920   32.4760   45.1580 C   0  0  0  0  0  0  0  0  0  0  0  0
   40.3720   31.2750   44.9430 C   0  0  0  0  0  0  0  0  0  0  0  0
   40.7580   30.6840   45.7630 H   0  0  0  0  0  0  0  0  0  0  0  0
   40.5470   30.8400   43.6290 C   0  0  0  0  0  0  0  0  0  0  0  0
   41.1640   29.7260   43.2050 N   0  0  0  0  0  0  0  0  0  0  0  0
   41.6320   28.9660   43.7500 H   0  0  0  0  0  0  0  0  0  0  0  0
   41.1070   29.6890   41.8420 C   0  0  0  0  0  0  0  0  0  0  0  0
   41.4680   28.9900   41.1020 H   0  0  0  0  0  0  0  0  0  0  0  0
   40.4280   30.8330   41.4680 C   0  0  0  0  0  3  0  0  0  0  0  0
   40.0600   31.5810   42.5670 C   0  0  0  0  0  0  0  0  0  0  0  0
   39.3920   32.7650   42.8060 C   0  0  0  0  0  3  0  0  0  0  0  0
  1  8  1  0  0  0  0
  1  2  2  0  0  0  0
  3 19  1  6  0  0  0
  3 15  1  0  0  0  0
  3  4  1  0  0  0  0
  4  5  1  0  0  0  0
  4 11  1  0  0  0  0
  5  6  1  0  0  0  0
  6  7  2  0  0  0  0
  8 13  1  1  0  0  0
  8  6  1  0  0  0  0
  9 14  1  6  0  0  0
  9  8  1  0  0  0  0
  9  5  1  0  0  0  0
 10  3  1  0  0  0  0
 10  9  1  0  0  0  0
 12  4  1  0  0  0  0
 15 16  1  0  0  0  0
 17 15  1  0  0  0  0
 18 15  1  0  0  0  0
 19 21  1  0  0  0  0
 20 19  1  0  0  0  0
 22 19  1  0  0  0  0
 23 22  1  0  0  0  0
 24 25  1  0  0  0  0
 24  1  1  0  0  0  0
 25 30  1  0  0  0  0
 26 31  1  0  0  0  0
 26 25  2  0  0  0  0
 27 26  1  0  0  0  0
 28 27  2  0  0  0  0
 28 29  1  0  0  0  0
 29 24  2  0  0  0  0
 32 33  1  0  0  0  0
 33 28  1  0  0  0  0
 34 33  2  0  0  0  0
 34 35  1  0  0  0  0
 36 34  1  0  0  0  0
 37 36  1  0  0  0  0
 37 38  1  0  0  0  0
 39 37  1  0  0  0  0
 40 39  1  0  0  0  0
 41 39  2  0  0  0  0
 41 42  1  0  0  0  0
 42 43  1  0  0  0  0
 42 36  2  0  0  0  0
 43 32  2  0  0  0  0
M  END
>  <minimizedAffinity>
-6.80881739

>  <minimizedRMSD>
0.877466261

$$$$
