
 OpenBabel03262522153D

 48 52  0  0  1  0  0  0  0  0999 V2000
   39.3440   32.8610   43.7040 C   0  0  0  0  0  0  0  0  0  0  0  0
   38.3070   32.6620   43.9830 H   0  0  0  0  0  0  0  0  0  0  0  0
   39.3760   33.6680   42.9240 H   0  0  0  0  0  0  0  0  0  0  0  0
   39.3070   29.4990   42.5960 C   0  0  1  0  0  0  0  0  0  0  0  0
   39.1070   30.9370   42.1430 C   0  0  0  0  0  0  0  0  0  0  0  0
   40.0300   31.6630   43.0970 C   0  0  2  0  0  0  0  0  0  0  0  0
   40.4590   30.7780   44.0450 O   0  0  0  0  0  0  0  0  0  0  0  0
   39.5730   29.7110   44.0780 C   0  0  0  0  0  0  0  0  0  0  0  0
   40.2440   29.0910   42.1650 H   0  0  0  0  0  0  0  0  0  0  0  0
   39.4940   31.0010   41.1040 H   0  0  0  0  0  0  0  0  0  0  0  0
   38.0630   31.2260   42.2660 H   0  0  0  0  0  0  0  0  0  0  0  0
   40.9250   32.0010   42.5300 H   0  0  0  0  0  0  0  0  0  0  0  0
   40.0010   28.8370   44.5700 H   0  0  0  0  0  0  0  0  0  0  0  0
   38.6060   30.0120   44.5210 H   0  0  0  0  0  0  0  0  0  0  0  0
   38.1760   28.7350   42.3890 O   0  0  0  0  0  0  0  0  0  0  0  0
   36.6540   26.9970   42.7930 C   0  0  0  0  0  0  0  0  0  0  0  0
   37.9690   27.4340   42.7350 C   0  0  0  0  0  0  0  0  0  0  0  0
   38.9670   26.5270   43.0310 C   0  0  0  0  0  0  0  0  0  0  0  0
   39.9860   26.8410   42.9920 H   0  0  0  0  0  0  0  0  0  0  0  0
   38.7600   25.2020   43.3840 C   0  0  0  0  0  0  0  0  0  0  0  0
   39.5870   24.1920   43.7000 N   0  0  0  0  0  0  0  0  0  0  0  0
   40.6330   24.2120   43.7430 H   0  0  0  0  0  0  0  0  0  0  0  0
   38.8100   23.1030   43.9610 C   0  0  0  0  0  0  0  0  0  0  0  0
   39.1670   22.1170   44.2490 H   0  0  0  0  0  0  0  0  0  0  0  0
   37.4760   23.4610   43.8000 C   0  0  0  0  0  0  0  0  0  0  0  0
   37.4270   24.7900   43.4340 C   0  0  0  0  0  0  0  0  0  0  0  0
   36.4140   25.6680   43.1460 C   0  0  0  0  0  0  0  0  0  0  0  0
   40.3810   33.4490   45.0770 S   0  0  0  0  0  0  0  0  0  0  0  0
   37.7660   31.8160   47.5790 C   0  0  0  0  0  0  0  0  0  0  0  0
   37.9990   32.4680   48.8020 C   0  0  0  0  0  0  0  0  0  0  0  0
   38.9810   33.4430   48.8980 C   0  0  0  0  0  0  0  0  0  0  0  0
   39.6830   33.7180   47.7590 C   0  0  0  0  0  0  0  0  0  0  0  0
   39.4350   33.0710   46.5890 C   0  0  0  0  0  0  0  0  0  0  0  0
   38.4830   32.1160   46.4710 N   0  0  0  0  0  0  0  0  0  0  0  0
   37.4190   32.2190   49.6810 H   0  0  0  0  0  0  0  0  0  0  0  0
   39.2130   33.9820   49.8000 H   0  0  0  0  0  0  0  0  0  0  0  0
   40.4760   34.4700   47.7290 H   0  0  0  0  0  0  0  0  0  0  0  0
   36.7320   30.8160   47.5560 C   0  0  0  0  0  0  0  0  0  0  0  0
   36.2860   30.3840   46.4950 O   0  0  0  0  0  0  0  0  0  0  0  0
   37.0170   29.5920   49.6820 C   0  0  0  0  0  0  0  0  0  0  0  0
   36.1450   30.2510   48.7830 C   0  0  0  0  0  0  0  0  0  0  0  0
   34.7880   30.3360   49.0890 C   0  0  0  0  0  0  0  0  0  0  0  0
   34.3420   29.7770   50.2550 N   0  0  0  0  0  0  0  0  0  0  0  0
   35.1950   29.1530   51.0970 C   0  0  0  0  0  0  0  0  0  0  0  0
   36.5060   29.0630   50.8160 N   0  0  0  0  0  0  0  0  0  0  0  0
   38.0730   29.4890   49.5090 H   0  0  0  0  0  0  0  0  0  0  0  0
   34.1490   30.8450   48.3850 H   0  0  0  0  0  0  0  0  0  0  0  0
   34.7220   28.7480   51.9910 H   0  0  0  0  0  0  0  0  0  0  0  0
  1  2  1  0  0  0  0
  1 28  1  0  0  0  0
  3  1  1  0  0  0  0
  4  9  1  6  0  0  0
  4  8  1  0  0  0  0
  5 11  1  0  0  0  0
  5  4  1  0  0  0  0
  5  6  1  0  0  0  0
  6 12  1  6  0  0  0
  6  1  1  0  0  0  0
  6  7  1  0  0  0  0
  7  8  1  0  0  0  0
  8 14  1  0  0  0  0
  8 13  1  0  0  0  0
 10  5  1  0  0  0  0
 15  4  1  0  0  0  0
 15 17  1  0  0  0  0
 16 27  1  0  0  0  0
 17 16  2  0  0  0  0
 17 18  1  0  0  0  0
 18 20  2  0  0  0  0
 19 18  1  0  0  0  0
 20 26  1  0  0  0  0
 20 21  1  0  0  0  0
 21 22  1  0  0  0  0
 21 23  1  0  0  0  0
 23 24  1  0  0  0  0
 25 23  2  0  0  0  0
 26 25  1  0  0  0  0
 27 26  2  0  0  0  0
 28 33  1  0  0  0  0
 29 30  1  0  0  0  0
 30 31  2  0  0  0  0
 30 35  1  0  0  0  0
 31 36  1  0  0  0  0
 32 31  1  0  0  0  0
 33 32  2  0  0  0  0
 34 33  1  0  0  0  0
 34 29  2  0  0  0  0
 37 32  1  0  0  0  0
 38 29  1  0  0  0  0
 38 41  1  0  0  0  0
 39 38  2  0  0  0  0
 40 45  1  0  0  0  0
 41 42  1  0  0  0  0
 41 40  2  0  0  0  0
 42 43  2  0  0  0  0
 43 44  1  0  0  0  0
 44 48  1  0  0  0  0
 45 44  2  0  0  0  0
 46 40  1  0  0  0  0
 47 42  1  0  0  0  0
M  END
>  <minimizedAffinity>
-5.98627901

>  <minimizedRMSD>
2.39218163

$$$$
