
 OpenBabel03272510163D

 31 34  0  0  0  0  0  0  0  0999 V2000
   37.4820   29.2340   50.8970 Br  0  0  0  0  0  0  0  0  0  0  0  0
   36.0530   29.3010   49.6160 C   0  0  0  0  0  0  0  0  0  0  0  0
   36.0290   30.2700   48.6370 C   0  0  0  0  0  0  0  0  0  0  0  0
   34.9680   30.2520   47.7520 C   0  0  0  0  0  0  0  0  0  0  0  0
   33.9470   29.3180   47.8070 C   0  0  0  0  0  0  0  0  0  0  0  0
   34.0080   28.3720   48.7930 C   0  0  0  0  0  0  0  0  0  0  0  0
   35.0590   28.3690   49.6910 C   0  0  0  0  0  0  0  0  0  0  0  0
   34.9070   30.9930   46.9680 H   0  0  0  0  0  0  0  0  0  0  0  0
   33.2440   27.6270   48.8780 H   0  0  0  0  0  0  0  0  0  0  0  0
   35.0580   27.6010   50.4500 H   0  0  0  0  0  0  0  0  0  0  0  0
   32.5790   30.3510   45.9850 C   0  0  0  0  0  3  0  0  0  0  0  0
   32.8560   29.3300   46.8690 C   0  0  0  0  0  0  0  0  0  0  0  0
   31.9830   28.2630   46.7980 C   0  0  0  0  0  0  0  0  0  0  0  0
   32.1700   27.4320   47.4850 H   0  0  0  0  0  0  0  0  0  0  0  0
   30.9010   28.1400   45.9540 C   0  0  0  0  0  0  0  0  0  0  0  0
   29.9810   27.1780   45.7770 N   0  0  0  0  0  0  0  0  0  0  0  0
   29.9650   26.2900   46.3260 H   0  0  0  0  0  0  0  0  0  0  0  0
   29.1600   27.6340   44.7860 C   0  0  0  0  0  0  0  0  0  0  0  0
   28.3390   26.9800   44.5000 H   0  0  0  0  0  0  0  0  0  0  0  0
   29.5810   28.8740   44.3600 C   0  0  0  0  0  3  0  0  0  0  0  0
   30.6970   29.2230   45.0930 C   0  0  0  0  0  0  0  0  0  0  0  0
   31.5230   30.3240   45.1000 C   0  0  0  0  0  3  0  0  0  0  0  0
   38.0340   33.2110   49.4290 C   0  0  0  0  0  0  0  0  0  0  0  0
   39.0430   33.2060   48.4410 C   0  0  0  0  0  0  0  0  0  0  0  0
   39.0170   32.1800   47.5080 C   0  0  0  0  0  0  0  0  0  0  0  0
   38.0360   31.2300   47.5770 N   0  0  0  0  0  0  0  0  0  0  0  0
   37.0820   31.2710   48.5440 C   0  0  0  0  0  0  0  0  0  0  0  0
   37.0910   32.2690   49.4690 N   0  0  0  0  0  0  0  0  0  0  0  0
   38.0060   33.9970   50.1920 H   0  0  0  0  0  0  0  0  0  0  0  0
   39.7980   33.9790   48.4270 H   0  0  0  0  0  0  0  0  0  0  0  0
   39.7620   32.1230   46.7270 H   0  0  0  0  0  0  0  0  0  0  0  0
  2  7  1  0  0  0  0
  2  1  1  0  0  0  0
  3  2  2  0  0  0  0
  4  5  2  0  0  0  0
  4  3  1  0  0  0  0
  5  6  1  0  0  0  0
  6  9  1  0  0  0  0
  6  7  2  0  0  0  0
  7 10  1  0  0  0  0
  8  4  1  0  0  0  0
 11 12  1  0  0  0  0
 12  5  1  0  0  0  0
 13 12  2  0  0  0  0
 13 14  1  0  0  0  0
 15 13  1  0  0  0  0
 16 15  1  0  0  0  0
 16 17  1  0  0  0  0
 18 16  1  0  0  0  0
 19 18  1  0  0  0  0
 20 18  2  0  0  0  0
 20 21  1  0  0  0  0
 21 22  1  0  0  0  0
 21 15  2  0  0  0  0
 22 11  2  0  0  0  0
 23 28  1  0  0  0  0
 23 29  1  0  0  0  0
 24 23  2  0  0  0  0
 25 26  2  0  0  0  0
 25 24  1  0  0  0  0
 26 27  1  0  0  0  0
 27  3  1  0  0  0  0
 27 28  2  0  0  0  0
 30 24  1  0  0  0  0
 31 25  1  0  0  0  0
M  END
>  <minimizedAffinity>
-6.13769436

>  <minimizedRMSD>
0.683487117

$$$$
