
 OpenBabel03262521083D

 48 51  0  0  1  0  0  0  0  0999 V2000
   37.2290   31.4520   45.7500 C   0  0  2  0  0  0  0  0  0  0  0  0
   38.2280   30.9350   44.8260 C   0  0  0  0  0  0  0  0  0  0  0  0
   39.5330   30.5380   45.5160 C   0  0  0  0  0  0  0  0  0  0  0  0
   40.1400   31.6560   46.2990 C   0  0  0  0  0  0  0  0  0  0  0  0
   39.1260   32.5550   46.9720 C   0  0  0  0  0  0  0  0  0  0  0  0
   37.7730   31.8590   47.0940 C   0  0  2  0  0  0  0  0  0  0  0  0
   36.7850   32.3890   45.2960 H   0  0  0  0  0  0  0  0  0  0  0  0
   38.5630   31.7300   44.0840 H   0  0  0  0  0  0  0  0  0  0  0  0
   37.9910   30.0740   44.1880 H   0  0  0  0  0  0  0  0  0  0  0  0
   40.2400   30.3320   44.6780 H   0  0  0  0  0  0  0  0  0  0  0  0
   39.4630   29.5840   46.0570 H   0  0  0  0  0  0  0  0  0  0  0  0
   40.7550   31.1960   47.1270 H   0  0  0  0  0  0  0  0  0  0  0  0
   40.8490   32.2880   45.7240 H   0  0  0  0  0  0  0  0  0  0  0  0
   39.4200   32.8790   47.9840 H   0  0  0  0  0  0  0  0  0  0  0  0
   38.9560   33.4480   46.3330 H   0  0  0  0  0  0  0  0  0  0  0  0
   37.0870   32.6450   47.4950 H   0  0  0  0  0  0  0  0  0  0  0  0
   36.0770   30.5790   45.9950 C   0  0  0  0  0  0  0  0  0  0  0  0
   35.7120   29.7850   44.9020 C   0  0  0  0  0  0  0  0  0  0  0  0
   34.6370   28.9300   45.0850 C   0  0  0  0  0  0  0  0  0  0  0  0
   33.9960   28.9000   46.2910 N   0  0  0  0  0  0  0  0  0  0  0  0
   34.3800   29.6810   47.3150 C   0  0  0  0  0  0  0  0  0  0  0  0
   35.3910   30.4770   47.1280 N   0  0  0  0  0  0  0  0  0  0  0  0
   36.0520   29.6570   43.8970 H   0  0  0  0  0  0  0  0  0  0  0  0
   34.1890   28.2450   44.4100 H   0  0  0  0  0  0  0  0  0  0  0  0
   33.8620   29.6490   48.2720 H   0  0  0  0  0  0  0  0  0  0  0  0
   37.9130   30.8960   48.0900 N   0  0  0  0  0  0  0  0  0  0  0  0
   38.7730   30.3370   48.1190 H   0  0  0  0  0  0  0  0  0  0  0  0
   37.4860   31.3210   49.6760 S   0  0  1  0  0  0  0  0  0  0  0  0
   38.6990   30.9260   50.5250 O   0  0  0  0  0  0  0  0  0  0  0  0
   38.6770   30.2890   51.2830 H   0  0  0  0  0  0  0  0  0  0  0  0
   37.2210   32.7490   49.8440 O   0  0  0  0  0  0  0  0  0  0  0  0
   35.5870   34.2600   49.4940 C   0  0  0  0  0  3  0  0  0  0  0  0
   36.5110   33.7480   50.4180 C   0  0  0  0  0  0  0  0  0  0  0  0
   36.4840   34.3530   51.6530 C   0  0  0  0  0  0  0  0  0  0  0  0
   37.2350   33.8870   52.2980 H   0  0  0  0  0  0  0  0  0  0  0  0
   35.6360   35.3750   51.9810 C   0  0  0  0  0  0  0  0  0  0  0  0
   35.5210   36.0340   53.1400 N   0  0  0  0  0  0  0  0  0  0  0  0
   36.0630   35.8920   54.0170 H   0  0  0  0  0  0  0  0  0  0  0  0
   34.5460   36.9560   52.9780 C   0  0  0  0  0  0  0  0  0  0  0  0
   34.1610   37.6860   53.6930 H   0  0  0  0  0  0  0  0  0  0  0  0
   34.0480   36.8710   51.7070 C   0  0  0  0  0  3  0  0  0  0  0  0
   34.7280   35.8670   51.0510 C   0  0  0  0  0  0  0  0  0  0  0  0
   34.7110   35.2960   49.7940 C   0  0  0  0  0  3  0  0  0  0  0  0
   36.2140   30.3970   50.2630 O   0  0  0  0  0  0  0  0  0  0  0  0
   36.6010   29.5520   51.2910 C   0  0  0  0  0  0  0  0  0  0  0  0
   37.5240   28.6510   50.8200 F   0  0  0  0  0  0  0  0  0  0  0  0
   37.2460   30.3130   52.2250 F   0  0  0  0  0  0  0  0  0  0  0  0
   35.5360   28.9410   51.9410 F   0  0  0  0  0  0  0  0  0  0  0  0
  1  7  1  6  0  0  0
  1 17  1  0  0  0  0
  1  6  1  0  0  0  0
  2  3  1  0  0  0  0
  2  1  1  0  0  0  0
  3 11  1  0  0  0  0
  3  4  1  0  0  0  0
  4  5  1  0  0  0  0
  4 12  1  0  0  0  0
  5  6  1  0  0  0  0
  5 14  1  0  0  0  0
  6 16  1  1  0  0  0
  6 26  1  0  0  0  0
  8  2  1  0  0  0  0
  9  2  1  0  0  0  0
 10  3  1  0  0  0  0
 13  4  1  0  0  0  0
 15  5  1  0  0  0  0
 17 22  1  0  0  0  0
 18 19  1  0  0  0  0
 18 17  2  0  0  0  0
 19 20  2  0  0  0  0
 20 21  1  0  0  0  0
 21 25  1  0  0  0  0
 22 21  2  0  0  0  0
 23 18  1  0  0  0  0
 24 19  1  0  0  0  0
 26 27  1  0  0  0  0
 26 28  1  0  0  0  0
 28 31  1  1  0  0  0
 28 44  1  0  0  0  0
 28 29  1  0  0  0  0
 29 30  1  0  0  0  0
 31 33  1  0  0  0  0
 32 43  2  0  0  0  0
 32 33  1  0  0  0  0
 33 34  2  0  0  0  0
 34 36  1  0  0  0  0
 34 35  1  0  0  0  0
 36 37  1  0  0  0  0
 37 38  1  0  0  0  0
 39 37  1  0  0  0  0
 39 40  1  0  0  0  0
 41 39  2  0  0  0  0
 42 41  1  0  0  0  0
 42 36  2  0  0  0  0
 43 42  1  0  0  0  0
 44 45  1  0  0  0  0
 45 48  1  0  0  0  0
 45 47  1  0  0  0  0
 46 45  1  0  0  0  0
M  END
>  <minimizedAffinity>
5.2915535

>  <minimizedRMSD>
0.730787635

$$$$
