
 OpenBabel03272510153D

 31 34  0  0  0  0  0  0  0  0999 V2000
   37.4300   29.1890   50.8410 Br  0  0  0  0  0  0  0  0  0  0  0  0
   36.0240   29.2930   49.5370 C   0  0  0  0  0  0  0  0  0  0  0  0
   36.0200   30.2870   48.5830 C   0  0  0  0  0  0  0  0  0  0  0  0
   34.9740   30.2950   47.6790 C   0  0  0  0  0  0  0  0  0  0  0  0
   33.9490   29.3630   47.6940 C   0  0  0  0  0  0  0  0  0  0  0  0
   33.9900   28.3930   48.6560 C   0  0  0  0  0  0  0  0  0  0  0  0
   35.0260   28.3630   49.5710 C   0  0  0  0  0  0  0  0  0  0  0  0
   34.9290   31.0550   46.9140 H   0  0  0  0  0  0  0  0  0  0  0  0
   33.2230   27.6480   48.7090 H   0  0  0  0  0  0  0  0  0  0  0  0
   35.0090   27.5760   50.3110 H   0  0  0  0  0  0  0  0  0  0  0  0
   32.0580   28.3390   46.4160 C   0  0  0  0  0  3  0  0  0  0  0  0
   32.8750   29.4020   46.7370 C   0  0  0  0  0  0  0  0  0  0  0  0
   32.5890   30.5660   46.0530 C   0  0  0  0  0  0  0  0  0  0  0  0
   33.2180   31.4330   46.2800 H   0  0  0  0  0  0  0  0  0  0  0  0
   31.5970   30.7470   45.1140 C   0  0  0  0  0  0  0  0  0  0  0  0
   31.2100   31.8030   44.3810 N   0  0  0  0  0  0  0  0  0  0  0  0
   31.6700   32.7400   44.4340 H   0  0  0  0  0  0  0  0  0  0  0  0
   30.1630   31.3620   43.6270 C   0  0  0  0  0  0  0  0  0  0  0  0
   29.7090   32.0880   42.9570 H   0  0  0  0  0  0  0  0  0  0  0  0
   29.9110   30.0350   43.9010 C   0  0  0  0  0  3  0  0  0  0  0  0
   30.8180   29.6150   44.8520 C   0  0  0  0  0  0  0  0  0  0  0  0
   31.0390   28.4170   45.4920 C   0  0  0  0  0  3  0  0  0  0  0  0
   38.0190   33.2000   49.4840 C   0  0  0  0  0  0  0  0  0  0  0  0
   39.0450   33.2170   48.5140 C   0  0  0  0  0  0  0  0  0  0  0  0
   39.0320   32.2150   47.5550 C   0  0  0  0  0  0  0  0  0  0  0  0
   38.0480   31.2670   47.5830 N   0  0  0  0  0  0  0  0  0  0  0  0
   37.0770   31.2860   48.5340 C   0  0  0  0  0  0  0  0  0  0  0  0
   37.0730   32.2610   49.4840 N   0  0  0  0  0  0  0  0  0  0  0  0
   37.9800   33.9660   50.2660 H   0  0  0  0  0  0  0  0  0  0  0  0
   39.8030   33.9880   48.5320 H   0  0  0  0  0  0  0  0  0  0  0  0
   39.7900   32.1750   46.7850 H   0  0  0  0  0  0  0  0  0  0  0  0
  2  7  1  0  0  0  0
  2  1  1  0  0  0  0
  3  2  2  0  0  0  0
  4  5  2  0  0  0  0
  4  3  1  0  0  0  0
  5  6  1  0  0  0  0
  6  9  1  0  0  0  0
  6  7  2  0  0  0  0
  7 10  1  0  0  0  0
  8  4  1  0  0  0  0
 11 12  1  0  0  0  0
 12  5  1  0  0  0  0
 13 14  1  0  0  0  0
 13 12  2  0  0  0  0
 15 13  1  0  0  0  0
 16 17  1  0  0  0  0
 16 15  1  0  0  0  0
 18 20  2  0  0  0  0
 18 16  1  0  0  0  0
 19 18  1  0  0  0  0
 20 21  1  0  0  0  0
 21 15  2  0  0  0  0
 21 22  1  0  0  0  0
 22 11  2  0  0  0  0
 23 28  1  0  0  0  0
 23 29  1  0  0  0  0
 24 30  1  0  0  0  0
 24 23  2  0  0  0  0
 25 26  2  0  0  0  0
 25 24  1  0  0  0  0
 26 27  1  0  0  0  0
 27  3  1  0  0  0  0
 27 28  2  0  0  0  0
 31 25  1  0  0  0  0
M  END
>  <minimizedAffinity>
-6.19050074

>  <minimizedRMSD>
0.448265314

$$$$
