
 OpenBabel03262521083D

 48 51  0  0  1  0  0  0  0  0999 V2000
   37.3440   31.4530   45.5470 C   0  0  2  0  0  0  0  0  0  0  0  0
   38.3830   30.9680   44.6490 C   0  0  0  0  0  0  0  0  0  0  0  0
   39.6670   30.5740   45.3760 C   0  0  0  0  0  0  0  0  0  0  0  0
   40.2300   31.6850   46.2020 C   0  0  0  0  0  0  0  0  0  0  0  0
   39.1820   32.5560   46.8560 C   0  0  0  0  0  0  0  0  0  0  0  0
   37.8340   31.8390   46.9160 C   0  0  2  0  0  0  0  0  0  0  0  0
   36.9040   32.3930   45.0950 H   0  0  0  0  0  0  0  0  0  0  0  0
   38.7320   31.7820   43.9350 H   0  0  0  0  0  0  0  0  0  0  0  0
   38.1800   30.1160   43.9860 H   0  0  0  0  0  0  0  0  0  0  0  0
   40.4070   30.3950   44.5600 H   0  0  0  0  0  0  0  0  0  0  0  0
   39.5920   29.6090   45.8960 H   0  0  0  0  0  0  0  0  0  0  0  0
   40.8230   31.2160   47.0420 H   0  0  0  0  0  0  0  0  0  0  0  0
   40.9510   32.3370   45.6650 H   0  0  0  0  0  0  0  0  0  0  0  0
   39.4340   32.8640   47.8840 H   0  0  0  0  0  0  0  0  0  0  0  0
   39.0210   33.4590   46.2290 H   0  0  0  0  0  0  0  0  0  0  0  0
   37.1230   32.6080   47.3080 H   0  0  0  0  0  0  0  0  0  0  0  0
   36.1960   30.5590   45.7330 C   0  0  0  0  0  0  0  0  0  0  0  0
   35.8830   29.7810   44.6140 C   0  0  0  0  0  0  0  0  0  0  0  0
   34.8150   28.9080   44.7410 C   0  0  0  0  0  0  0  0  0  0  0  0
   34.1310   28.8460   45.9220 N   0  0  0  0  0  0  0  0  0  0  0  0
   34.4660   29.6140   46.9740 C   0  0  0  0  0  0  0  0  0  0  0  0
   35.4720   30.4280   46.8380 N   0  0  0  0  0  0  0  0  0  0  0  0
   36.2620   29.6760   43.6200 H   0  0  0  0  0  0  0  0  0  0  0  0
   34.4010   28.2300   44.0380 H   0  0  0  0  0  0  0  0  0  0  0  0
   33.9140   29.5570   47.9100 H   0  0  0  0  0  0  0  0  0  0  0  0
   37.9540   30.8590   47.8970 N   0  0  0  0  0  0  0  0  0  0  0  0
   38.8010   30.2820   47.9190 H   0  0  0  0  0  0  0  0  0  0  0  0
   37.5320   31.2690   49.4890 S   0  0  1  0  0  0  0  0  0  0  0  0
   38.7310   30.8260   50.3350 O   0  0  0  0  0  0  0  0  0  0  0  0
   38.6880   30.1760   51.0830 H   0  0  0  0  0  0  0  0  0  0  0  0
   37.3060   32.7000   49.6810 O   0  0  0  0  0  0  0  0  0  0  0  0
   36.8350   33.9170   51.5190 C   0  0  0  0  0  3  0  0  0  0  0  0
   36.5440   33.7110   50.1610 C   0  0  0  0  0  0  0  0  0  0  0  0
   35.5870   34.5530   49.6440 C   0  0  0  0  0  0  0  0  0  0  0  0
   35.4320   34.3150   48.5870 H   0  0  0  0  0  0  0  0  0  0  0  0
   34.9530   35.5220   50.3710 C   0  0  0  0  0  0  0  0  0  0  0  0
   34.0150   36.3910   49.9780 N   0  0  0  0  0  0  0  0  0  0  0  0
   33.5870   36.4940   49.0350 H   0  0  0  0  0  0  0  0  0  0  0  0
   33.6990   37.1490   51.0520 C   0  0  0  0  0  0  0  0  0  0  0  0
   32.9790   37.9650   51.1340 H   0  0  0  0  0  0  0  0  0  0  0  0
   34.4470   36.7490   52.1260 C   0  0  0  0  0  3  0  0  0  0  0  0
   35.2560   35.7110   51.7140 C   0  0  0  0  0  0  0  0  0  0  0  0
   36.2100   34.8930   52.2870 C   0  0  0  0  0  3  0  0  0  0  0  0
   36.2330   30.3700   50.0560 O   0  0  0  0  0  0  0  0  0  0  0  0
   36.5620   29.5970   51.1580 C   0  0  0  0  0  0  0  0  0  0  0  0
   37.4780   28.6430   50.7910 F   0  0  0  0  0  0  0  0  0  0  0  0
   37.1920   30.4120   52.0560 F   0  0  0  0  0  0  0  0  0  0  0  0
   35.4590   29.0610   51.8120 F   0  0  0  0  0  0  0  0  0  0  0  0
  1  7  1  6  0  0  0
  1 17  1  0  0  0  0
  1  6  1  0  0  0  0
  2  3  1  0  0  0  0
  2  1  1  0  0  0  0
  3 11  1  0  0  0  0
  3  4  1  0  0  0  0
  4  5  1  0  0  0  0
  4 12  1  0  0  0  0
  5  6  1  0  0  0  0
  5 14  1  0  0  0  0
  6 16  1  1  0  0  0
  6 26  1  0  0  0  0
  8  2  1  0  0  0  0
  9  2  1  0  0  0  0
 10  3  1  0  0  0  0
 13  4  1  0  0  0  0
 15  5  1  0  0  0  0
 17 22  1  0  0  0  0
 18 19  1  0  0  0  0
 18 17  2  0  0  0  0
 19 20  2  0  0  0  0
 20 21  1  0  0  0  0
 21 25  1  0  0  0  0
 22 21  2  0  0  0  0
 23 18  1  0  0  0  0
 24 19  1  0  0  0  0
 26 27  1  0  0  0  0
 26 28  1  0  0  0  0
 28 31  1  1  0  0  0
 28 44  1  0  0  0  0
 28 29  1  0  0  0  0
 29 30  1  0  0  0  0
 31 33  1  0  0  0  0
 32 43  1  0  0  0  0
 33 32  2  0  0  0  0
 34 33  1  0  0  0  0
 34 36  2  0  0  0  0
 35 34  1  0  0  0  0
 36 42  1  0  0  0  0
 37 36  1  0  0  0  0
 37 39  1  0  0  0  0
 38 37  1  0  0  0  0
 39 40  1  0  0  0  0
 39 41  2  0  0  0  0
 42 41  1  0  0  0  0
 42 43  2  0  0  0  0
 44 45  1  0  0  0  0
 45 48  1  0  0  0  0
 45 47  1  0  0  0  0
 46 45  1  0  0  0  0
M  END
>  <minimizedAffinity>
3.51803517

>  <minimizedRMSD>
0.952535272

$$$$
