
 OpenBabel03272510153D

 31 34  0  0  0  0  0  0  0  0999 V2000
   37.2880   29.3180   51.0110 Br  0  0  0  0  0  0  0  0  0  0  0  0
   35.9490   29.3280   49.6350 C   0  0  0  0  0  0  0  0  0  0  0  0
   35.9920   30.2570   48.6180 C   0  0  0  0  0  0  0  0  0  0  0  0
   34.9920   30.2000   47.6640 C   0  0  0  0  0  0  0  0  0  0  0  0
   33.9700   29.2660   47.6890 C   0  0  0  0  0  0  0  0  0  0  0  0
   33.9640   28.3610   48.7140 C   0  0  0  0  0  0  0  0  0  0  0  0
   34.9520   28.3970   49.6800 C   0  0  0  0  0  0  0  0  0  0  0  0
   34.9850   30.9070   46.8490 H   0  0  0  0  0  0  0  0  0  0  0  0
   33.1960   27.6180   48.7780 H   0  0  0  0  0  0  0  0  0  0  0  0
   34.9000   27.6610   50.4690 H   0  0  0  0  0  0  0  0  0  0  0  0
   32.3300   28.0960   46.2040 C   0  0  0  0  0  3  0  0  0  0  0  0
   32.9450   29.2360   46.6790 C   0  0  0  0  0  0  0  0  0  0  0  0
   32.4990   30.4060   46.0990 C   0  0  0  0  0  0  0  0  0  0  0  0
   32.9640   31.3320   46.4500 H   0  0  0  0  0  0  0  0  0  0  0  0
   31.5310   30.5270   45.1270 C   0  0  0  0  0  0  0  0  0  0  0  0
   31.0050   31.5810   44.4820 N   0  0  0  0  0  0  0  0  0  0  0  0
   31.3000   32.5670   44.6580 H   0  0  0  0  0  0  0  0  0  0  0  0
   30.0780   31.0610   43.6270 C   0  0  0  0  0  0  0  0  0  0  0  0
   29.5390   31.7740   43.0090 H   0  0  0  0  0  0  0  0  0  0  0  0
   30.0390   29.6900   43.7500 C   0  0  0  0  0  3  0  0  0  0  0  0
   30.9620   29.3190   44.7070 C   0  0  0  0  0  0  0  0  0  0  0  0
   31.3510   28.1090   45.2350 C   0  0  0  0  0  3  0  0  0  0  0  0
   37.9850   33.1860   49.4770 C   0  0  0  0  0  0  0  0  0  0  0  0
   39.0140   33.1870   48.5100 C   0  0  0  0  0  0  0  0  0  0  0  0
   39.0060   32.1700   47.5680 C   0  0  0  0  0  0  0  0  0  0  0  0
   38.0220   31.2220   47.6090 N   0  0  0  0  0  0  0  0  0  0  0  0
   37.0480   31.2560   48.5560 C   0  0  0  0  0  0  0  0  0  0  0  0
   37.0400   32.2460   49.4890 N   0  0  0  0  0  0  0  0  0  0  0  0
   37.9430   33.9660   50.2460 H   0  0  0  0  0  0  0  0  0  0  0  0
   39.7720   33.9590   48.5180 H   0  0  0  0  0  0  0  0  0  0  0  0
   39.7670   32.1170   46.8030 H   0  0  0  0  0  0  0  0  0  0  0  0
  2  7  1  0  0  0  0
  2  1  1  0  0  0  0
  3  2  2  0  0  0  0
  4  5  2  0  0  0  0
  4  3  1  0  0  0  0
  5  6  1  0  0  0  0
  6  9  1  0  0  0  0
  6  7  2  0  0  0  0
  7 10  1  0  0  0  0
  8  4  1  0  0  0  0
 11 12  1  0  0  0  0
 12  5  1  0  0  0  0
 13 14  1  0  0  0  0
 13 12  2  0  0  0  0
 15 13  1  0  0  0  0
 16 17  1  0  0  0  0
 16 15  1  0  0  0  0
 18 20  2  0  0  0  0
 18 16  1  0  0  0  0
 19 18  1  0  0  0  0
 20 21  1  0  0  0  0
 21 15  2  0  0  0  0
 21 22  1  0  0  0  0
 22 11  2  0  0  0  0
 23 28  1  0  0  0  0
 23 29  1  0  0  0  0
 24 30  1  0  0  0  0
 24 23  2  0  0  0  0
 25 26  2  0  0  0  0
 25 24  1  0  0  0  0
 26 27  1  0  0  0  0
 27  3  1  0  0  0  0
 27 28  2  0  0  0  0
 31 25  1  0  0  0  0
M  END
>  <minimizedAffinity>
-6.21844196

>  <minimizedRMSD>
0.773904502

$$$$
