
 OpenBabel03272502593D

 37 40  0  0  1  0  0  0  0  0999 V2000
   35.7560   29.6010   48.7960 N   0  0  0  0  0  0  0  0  0  0  0  0
   36.5890   28.8430   49.7060 C   0  0  0  0  0  0  0  0  0  0  0  0
   37.1550   29.5460   50.8480 C   0  0  0  0  0  0  0  0  0  0  0  0
   37.3420   31.0030   50.7740 C   0  0  0  0  0  0  0  0  0  0  0  0
   36.4820   31.6850   49.7520 C   0  0  0  0  0  0  0  0  0  0  0  0
   36.4330   30.8510   48.4670 C   0  0  1  0  0  0  0  0  0  0  0  0
   35.9340   27.9930   50.0550 H   0  0  0  0  0  0  0  0  0  0  0  0
   37.3840   28.3260   49.1210 H   0  0  0  0  0  0  0  0  0  0  0  0
   36.5430   29.3260   51.7700 H   0  0  0  0  0  0  0  0  0  0  0  0
   38.1590   29.0990   51.1090 H   0  0  0  0  0  0  0  0  0  0  0  0
   38.4160   31.2710   50.5620 H   0  0  0  0  0  0  0  0  0  0  0  0
   37.1260   31.5090   51.7460 H   0  0  0  0  0  0  0  0  0  0  0  0
   36.8550   32.7060   49.5490 H   0  0  0  0  0  0  0  0  0  0  0  0
   35.4590   31.7600   50.1380 H   0  0  0  0  0  0  0  0  0  0  0  0
   35.8780   31.4480   47.7480 H   0  0  0  0  0  0  0  0  0  0  0  0
   34.4860   29.1840   48.3070 C   0  0  0  0  0  0  0  0  0  0  0  0
   33.9150   29.6280   47.1180 C   0  0  0  0  0  0  0  0  0  0  0  0
   32.6690   29.1390   46.7520 C   0  0  0  0  0  0  0  0  0  0  0  0
   32.0630   28.2480   47.5730 N   0  0  0  0  0  0  0  0  0  0  0  0
   32.6470   27.8420   48.7170 C   0  0  0  0  0  0  0  0  0  0  0  0
   33.8560   28.3120   49.0770 N   0  0  0  0  0  0  0  0  0  0  0  0
   34.4530   30.3250   46.5300 H   0  0  0  0  0  0  0  0  0  0  0  0
   32.2900   29.5260   45.8200 H   0  0  0  0  0  0  0  0  0  0  0  0
   32.1220   27.1200   49.3520 H   0  0  0  0  0  0  0  0  0  0  0  0
   37.7650   30.6280   48.1410 O   0  0  0  0  0  0  0  0  0  0  0  0
   37.0930   30.8790   46.0030 C   0  0  0  0  0  3  0  0  0  0  0  0
   38.1950   30.7160   46.8360 C   0  0  0  0  0  0  0  0  0  0  0  0
   39.4310   30.6750   46.2590 C   0  0  0  0  0  0  0  0  0  0  0  0
   40.2260   30.5490   46.9480 H   0  0  0  0  0  0  0  0  0  0  0  0
   39.5760   30.7920   44.8920 C   0  0  0  0  0  0  0  0  0  0  0  0
   40.7370   30.7660   44.1930 N   0  0  0  0  0  0  0  0  0  0  0  0
   41.7100   30.6590   44.5460 H   0  0  0  0  0  0  0  0  0  0  0  0
   40.4380   30.9130   42.8710 C   0  0  0  0  0  0  0  0  0  0  0  0
   41.1290   30.9390   42.0290 H   0  0  0  0  0  0  0  0  0  0  0  0
   39.0520   31.0290   42.7700 C   0  0  0  0  0  3  0  0  0  0  0  0
   38.4900   30.9550   44.0310 C   0  0  0  0  0  0  0  0  0  0  0  0
   37.2410   30.9970   44.6160 C   0  0  0  0  0  3  0  0  0  0  0  0
  1  2  1  0  0  0  0
  2  7  1  0  0  0  0
  2  3  1  0  0  0  0
  3 10  1  0  0  0  0
  3  9  1  0  0  0  0
  4  3  1  0  0  0  0
  4 12  1  0  0  0  0
  5 14  1  0  0  0  0
  5  4  1  0  0  0  0
  6 15  1  6  0  0  0
  6  1  1  0  0  0  0
  6  5  1  0  0  0  0
  8  2  1  0  0  0  0
 11  4  1  0  0  0  0
 13  5  1  0  0  0  0
 16  1  1  0  0  0  0
 16 21  1  0  0  0  0
 17 16  2  0  0  0  0
 18 17  1  0  0  0  0
 18 19  2  0  0  0  0
 19 20  1  0  0  0  0
 20 21  2  0  0  0  0
 20 24  1  0  0  0  0
 22 17  1  0  0  0  0
 23 18  1  0  0  0  0
 25  6  1  0  0  0  0
 26 27  1  0  0  0  0
 27 25  1  0  0  0  0
 28 27  2  0  0  0  0
 28 29  1  0  0  0  0
 30 28  1  0  0  0  0
 31 32  1  0  0  0  0
 31 30  1  0  0  0  0
 33 31  1  0  0  0  0
 34 33  1  0  0  0  0
 35 33  2  0  0  0  0
 35 36  1  0  0  0  0
 36 37  1  0  0  0  0
 36 30  2  0  0  0  0
 37 26  2  0  0  0  0
M  END
>  <minimizedAffinity>
-6.22173977

>  <minimizedRMSD>
1.15010405

$$$$
