
 OpenBabel03262522143D

 48 52  0  0  1  0  0  0  0  0999 V2000
   39.5320   32.9560   43.7910 C   0  0  0  0  0  0  0  0  0  0  0  0
   38.4710   32.9810   44.0500 H   0  0  0  0  0  0  0  0  0  0  0  0
   39.7850   33.8400   43.1490 H   0  0  0  0  0  0  0  0  0  0  0  0
   38.8390   29.7000   42.5850 C   0  0  1  0  0  0  0  0  0  0  0  0
   38.7160   31.1790   42.2510 C   0  0  0  0  0  0  0  0  0  0  0  0
   39.9120   31.7340   42.9930 C   0  0  2  0  0  0  0  0  0  0  0  0
   40.4360   30.7460   43.7760 O   0  0  0  0  0  0  0  0  0  0  0  0
   39.4580   29.7810   43.9710 C   0  0  0  0  0  0  0  0  0  0  0  0
   39.5970   29.2240   41.9310 H   0  0  0  0  0  0  0  0  0  0  0  0
   38.8620   31.2710   41.1530 H   0  0  0  0  0  0  0  0  0  0  0  0
   37.7700   31.5690   42.6260 H   0  0  0  0  0  0  0  0  0  0  0  0
   40.6890   32.0120   42.2470 H   0  0  0  0  0  0  0  0  0  0  0  0
   39.8780   28.8340   44.3140 H   0  0  0  0  0  0  0  0  0  0  0  0
   38.6610   30.1540   44.6390 H   0  0  0  0  0  0  0  0  0  0  0  0
   37.6070   29.0780   42.6170 O   0  0  0  0  0  0  0  0  0  0  0  0
   37.7620   26.7430   42.7510 C   0  0  0  0  0  3  0  0  0  0  0  0
   37.2680   27.8630   42.1030 C   0  0  0  0  0  0  0  0  0  0  0  0
   36.4720   27.6710   40.9900 C   0  0  0  0  0  0  0  0  0  0  0  0
   36.0800   28.5190   40.4760 H   0  0  0  0  0  0  0  0  0  0  0  0
   36.1240   26.4350   40.4650 C   0  0  0  0  0  0  0  0  0  0  0  0
   35.3770   26.0580   39.4140 N   0  0  0  0  0  0  0  0  0  0  0  0
   34.8730   26.6740   38.7340 H   0  0  0  0  0  0  0  0  0  0  0  0
   35.3880   24.6950   39.3820 C   0  0  0  0  0  0  0  0  0  0  0  0
   34.8790   24.0690   38.6540 H   0  0  0  0  0  0  0  0  0  0  0  0
   36.1610   24.2320   40.4410 C   0  0  0  0  0  3  0  0  0  0  0  0
   36.6360   25.3250   41.1370 C   0  0  0  0  0  0  0  0  0  0  0  0
   37.4290   25.4840   42.2450 C   0  0  0  0  0  3  0  0  0  0  0  0
   40.6460   33.0420   45.2250 S   0  0  0  0  0  0  0  0  0  0  0  0
   37.7760   31.7670   47.6540 C   0  0  0  0  0  0  0  0  0  0  0  0
   37.9350   32.5390   48.8180 C   0  0  0  0  0  0  0  0  0  0  0  0
   38.9440   33.4880   48.8950 C   0  0  0  0  0  0  0  0  0  0  0  0
   39.7460   33.6180   47.7960 C   0  0  0  0  0  0  0  0  0  0  0  0
   39.5670   32.8570   46.6840 C   0  0  0  0  0  0  0  0  0  0  0  0
   38.5910   31.9250   46.5860 N   0  0  0  0  0  0  0  0  0  0  0  0
   37.2770   32.4030   49.6670 H   0  0  0  0  0  0  0  0  0  0  0  0
   39.1240   34.1130   49.7520 H   0  0  0  0  0  0  0  0  0  0  0  0
   40.5680   34.3370   47.7550 H   0  0  0  0  0  0  0  0  0  0  0  0
   36.7080   30.8030   47.6490 C   0  0  0  0  0  0  0  0  0  0  0  0
   36.2180   30.4010   46.5960 O   0  0  0  0  0  0  0  0  0  0  0  0
   37.0300   29.6340   49.8000 C   0  0  0  0  0  0  0  0  0  0  0  0
   36.1380   30.2410   48.8850 C   0  0  0  0  0  0  0  0  0  0  0  0
   34.7770   30.2810   49.1840 C   0  0  0  0  0  0  0  0  0  0  0  0
   34.3470   29.7300   50.3600 N   0  0  0  0  0  0  0  0  0  0  0  0
   35.2190   29.1560   51.2180 C   0  0  0  0  0  0  0  0  0  0  0  0
   36.5330   29.1090   50.9430 N   0  0  0  0  0  0  0  0  0  0  0  0
   38.0900   29.5670   49.6340 H   0  0  0  0  0  0  0  0  0  0  0  0
   34.1220   30.7510   48.4670 H   0  0  0  0  0  0  0  0  0  0  0  0
   34.7580   28.7520   52.1180 H   0  0  0  0  0  0  0  0  0  0  0  0
  1  2  1  0  0  0  0
  1 28  1  0  0  0  0
  3  1  1  0  0  0  0
  4  9  1  6  0  0  0
  4 15  1  0  0  0  0
  4  8  1  0  0  0  0
  5  4  1  0  0  0  0
  5 11  1  0  0  0  0
  5  6  1  0  0  0  0
  6 12  1  6  0  0  0
  6  7  1  0  0  0  0
  6  1  1  0  0  0  0
  7  8  1  0  0  0  0
  8 13  1  0  0  0  0
  8 14  1  0  0  0  0
 10  5  1  0  0  0  0
 17 15  1  0  0  0  0
 17 16  2  0  0  0  0
 18 17  1  0  0  0  0
 19 18  1  0  0  0  0
 20 18  2  0  0  0  0
 20 26  1  0  0  0  0
 21 20  1  0  0  0  0
 22 21  1  0  0  0  0
 23 21  1  0  0  0  0
 23 25  2  0  0  0  0
 24 23  1  0  0  0  0
 25 26  1  0  0  0  0
 26 27  2  0  0  0  0
 27 16  1  0  0  0  0
 28 33  1  0  0  0  0
 29 30  1  0  0  0  0
 30 31  2  0  0  0  0
 30 35  1  0  0  0  0
 31 36  1  0  0  0  0
 32 31  1  0  0  0  0
 33 32  2  0  0  0  0
 34 33  1  0  0  0  0
 34 29  2  0  0  0  0
 37 32  1  0  0  0  0
 38 29  1  0  0  0  0
 38 41  1  0  0  0  0
 39 38  2  0  0  0  0
 40 45  1  0  0  0  0
 41 42  1  0  0  0  0
 41 40  2  0  0  0  0
 42 43  2  0  0  0  0
 43 44  1  0  0  0  0
 44 48  1  0  0  0  0
 45 44  2  0  0  0  0
 46 40  1  0  0  0  0
 47 42  1  0  0  0  0
M  END
>  <minimizedAffinity>
-5.21931744

>  <minimizedRMSD>
0.725916922

$$$$
