
 OpenBabel03272502593D

 37 40  0  0  1  0  0  0  0  0999 V2000
   35.7580   29.6020   48.7960 N   0  0  0  0  0  0  0  0  0  0  0  0
   36.5920   28.8430   49.7060 C   0  0  0  0  0  0  0  0  0  0  0  0
   37.1570   29.5460   50.8490 C   0  0  0  0  0  0  0  0  0  0  0  0
   37.3440   31.0030   50.7750 C   0  0  0  0  0  0  0  0  0  0  0  0
   36.4840   31.6850   49.7530 C   0  0  0  0  0  0  0  0  0  0  0  0
   36.4350   30.8520   48.4670 C   0  0  1  0  0  0  0  0  0  0  0  0
   35.9360   27.9940   50.0550 H   0  0  0  0  0  0  0  0  0  0  0  0
   37.3860   28.3270   49.1200 H   0  0  0  0  0  0  0  0  0  0  0  0
   36.5460   29.3260   51.7710 H   0  0  0  0  0  0  0  0  0  0  0  0
   38.1610   29.0990   51.1090 H   0  0  0  0  0  0  0  0  0  0  0  0
   38.4180   31.2720   50.5630 H   0  0  0  0  0  0  0  0  0  0  0  0
   37.1280   31.5090   51.7470 H   0  0  0  0  0  0  0  0  0  0  0  0
   36.8560   32.7060   49.5510 H   0  0  0  0  0  0  0  0  0  0  0  0
   35.4600   31.7600   50.1390 H   0  0  0  0  0  0  0  0  0  0  0  0
   35.8790   31.4500   47.7490 H   0  0  0  0  0  0  0  0  0  0  0  0
   34.4880   29.1850   48.3080 C   0  0  0  0  0  0  0  0  0  0  0  0
   33.9170   29.6290   47.1190 C   0  0  0  0  0  0  0  0  0  0  0  0
   32.6700   29.1400   46.7520 C   0  0  0  0  0  0  0  0  0  0  0  0
   32.0650   28.2490   47.5730 N   0  0  0  0  0  0  0  0  0  0  0  0
   32.6500   27.8420   48.7170 C   0  0  0  0  0  0  0  0  0  0  0  0
   33.8580   28.3120   49.0770 N   0  0  0  0  0  0  0  0  0  0  0  0
   34.4540   30.3270   46.5320 H   0  0  0  0  0  0  0  0  0  0  0  0
   32.2910   29.5280   45.8210 H   0  0  0  0  0  0  0  0  0  0  0  0
   32.1250   27.1200   49.3520 H   0  0  0  0  0  0  0  0  0  0  0  0
   37.7670   30.6290   48.1410 O   0  0  0  0  0  0  0  0  0  0  0  0
   37.0950   30.8790   46.0040 C   0  0  0  0  0  3  0  0  0  0  0  0
   38.1960   30.7170   46.8360 C   0  0  0  0  0  0  0  0  0  0  0  0
   39.4320   30.6750   46.2580 C   0  0  0  0  0  0  0  0  0  0  0  0
   40.2270   30.5500   46.9460 H   0  0  0  0  0  0  0  0  0  0  0  0
   39.5760   30.7910   44.8930 C   0  0  0  0  0  0  0  0  0  0  0  0
   40.7370   30.7670   44.1920 N   0  0  0  0  0  0  0  0  0  0  0  0
   41.7100   30.6590   44.5450 H   0  0  0  0  0  0  0  0  0  0  0  0
   40.4380   30.9130   42.8700 C   0  0  0  0  0  0  0  0  0  0  0  0
   41.1270   30.9370   42.0270 H   0  0  0  0  0  0  0  0  0  0  0  0
   39.0510   31.0280   42.7700 C   0  0  0  0  0  3  0  0  0  0  0  0
   38.4900   30.9550   44.0300 C   0  0  0  0  0  0  0  0  0  0  0  0
   37.2410   30.9970   44.6170 C   0  0  0  0  0  3  0  0  0  0  0  0
  1  2  1  0  0  0  0
  2  7  1  0  0  0  0
  2  3  1  0  0  0  0
  3 10  1  0  0  0  0
  3  9  1  0  0  0  0
  4  3  1  0  0  0  0
  4 12  1  0  0  0  0
  5 14  1  0  0  0  0
  5  4  1  0  0  0  0
  6 15  1  6  0  0  0
  6  1  1  0  0  0  0
  6  5  1  0  0  0  0
  8  2  1  0  0  0  0
 11  4  1  0  0  0  0
 13  5  1  0  0  0  0
 16  1  1  0  0  0  0
 16 21  1  0  0  0  0
 17 16  2  0  0  0  0
 18 17  1  0  0  0  0
 18 19  2  0  0  0  0
 19 20  1  0  0  0  0
 20 21  2  0  0  0  0
 20 24  1  0  0  0  0
 22 17  1  0  0  0  0
 23 18  1  0  0  0  0
 25  6  1  0  0  0  0
 26 27  1  0  0  0  0
 27 25  1  0  0  0  0
 28 27  2  0  0  0  0
 28 29  1  0  0  0  0
 30 28  1  0  0  0  0
 31 32  1  0  0  0  0
 31 30  1  0  0  0  0
 33 31  1  0  0  0  0
 34 33  1  0  0  0  0
 35 33  2  0  0  0  0
 35 36  1  0  0  0  0
 36 37  1  0  0  0  0
 36 30  2  0  0  0  0
 37 26  2  0  0  0  0
M  END
>  <minimizedAffinity>
-6.22228336

>  <minimizedRMSD>
1.17848802

$$$$
