
 OpenBabel03272502593D

 37 40  0  0  1  0  0  0  0  0999 V2000
   35.8040   29.6660   48.7810 N   0  0  0  0  0  0  0  0  0  0  0  0
   36.7010   28.8750   49.5970 C   0  0  0  0  0  0  0  0  0  0  0  0
   37.2690   29.5040   50.7810 C   0  0  0  0  0  0  0  0  0  0  0  0
   37.3830   30.9700   50.8300 C   0  0  0  0  0  0  0  0  0  0  0  0
   36.4590   31.6930   49.8960 C   0  0  0  0  0  0  0  0  0  0  0  0
   36.4090   30.9720   48.5440 C   0  0  1  0  0  0  0  0  0  0  0  0
   36.0990   27.9660   49.8880 H   0  0  0  0  0  0  0  0  0  0  0  0
   37.5000   28.4520   48.9460 H   0  0  0  0  0  0  0  0  0  0  0  0
   36.6990   29.1740   51.6960 H   0  0  0  0  0  0  0  0  0  0  0  0
   38.3010   29.0880   50.9720 H   0  0  0  0  0  0  0  0  0  0  0  0
   38.4360   31.3100   50.6120 H   0  0  0  0  0  0  0  0  0  0  0  0
   37.1750   31.3780   51.8490 H   0  0  0  0  0  0  0  0  0  0  0  0
   36.7750   32.7450   49.7740 H   0  0  0  0  0  0  0  0  0  0  0  0
   35.4460   31.6820   50.3160 H   0  0  0  0  0  0  0  0  0  0  0  0
   35.8020   31.6010   47.8970 H   0  0  0  0  0  0  0  0  0  0  0  0
   34.5400   29.2280   48.2930 C   0  0  0  0  0  0  0  0  0  0  0  0
   33.9730   29.6440   47.0920 C   0  0  0  0  0  0  0  0  0  0  0  0
   32.7330   29.1370   46.7280 C   0  0  0  0  0  0  0  0  0  0  0  0
   32.1290   28.2580   47.5630 N   0  0  0  0  0  0  0  0  0  0  0  0
   32.7100   27.8800   48.7190 C   0  0  0  0  0  0  0  0  0  0  0  0
   33.9120   28.3680   49.0770 N   0  0  0  0  0  0  0  0  0  0  0  0
   34.5080   30.3330   46.4930 H   0  0  0  0  0  0  0  0  0  0  0  0
   32.3570   29.5020   45.7860 H   0  0  0  0  0  0  0  0  0  0  0  0
   32.1860   27.1670   49.3660 H   0  0  0  0  0  0  0  0  0  0  0  0
   37.7380   30.8470   48.1630 O   0  0  0  0  0  0  0  0  0  0  0  0
   39.5410   31.1310   46.8390 C   0  0  0  0  0  3  0  0  0  0  0  0
   38.1610   31.2870   46.9290 C   0  0  0  0  0  0  0  0  0  0  0  0
   37.5080   31.8150   45.8540 C   0  0  0  0  0  0  0  0  0  0  0  0
   36.4610   31.9070   45.9880 H   0  0  0  0  0  0  0  0  0  0  0  0
   38.1970   32.1800   44.7180 C   0  0  0  0  0  0  0  0  0  0  0  0
   37.6750   32.7120   43.5860 N   0  0  0  0  0  0  0  0  0  0  0  0
   36.6830   32.9390   43.3670 H   0  0  0  0  0  0  0  0  0  0  0  0
   38.6960   32.9260   42.7080 C   0  0  0  0  0  0  0  0  0  0  0  0
   38.6380   33.3420   41.7020 H   0  0  0  0  0  0  0  0  0  0  0  0
   39.8720   32.5070   43.3310 C   0  0  0  0  0  3  0  0  0  0  0  0
   39.5810   32.0350   44.5960 C   0  0  0  0  0  0  0  0  0  0  0  0
   40.2410   31.5010   45.6850 C   0  0  0  0  0  3  0  0  0  0  0  0
  1  2  1  0  0  0  0
  2  7  1  0  0  0  0
  2  3  1  0  0  0  0
  3  4  1  0  0  0  0
  3 10  1  0  0  0  0
  3  9  1  0  0  0  0
  4 12  1  0  0  0  0
  5 14  1  0  0  0  0
  5  4  1  0  0  0  0
  6 15  1  6  0  0  0
  6  1  1  0  0  0  0
  6  5  1  0  0  0  0
  8  2  1  0  0  0  0
 11  4  1  0  0  0  0
 13  5  1  0  0  0  0
 16  1  1  0  0  0  0
 16 21  1  0  0  0  0
 17 16  2  0  0  0  0
 18 17  1  0  0  0  0
 18 19  2  0  0  0  0
 19 20  1  0  0  0  0
 20 21  2  0  0  0  0
 20 24  1  0  0  0  0
 22 17  1  0  0  0  0
 23 18  1  0  0  0  0
 25  6  1  0  0  0  0
 26 27  1  0  0  0  0
 27 25  1  0  0  0  0
 28 29  1  0  0  0  0
 28 27  2  0  0  0  0
 30 28  1  0  0  0  0
 31 30  1  0  0  0  0
 32 31  1  0  0  0  0
 33 35  2  0  0  0  0
 33 31  1  0  0  0  0
 34 33  1  0  0  0  0
 35 36  1  0  0  0  0
 36 30  2  0  0  0  0
 36 37  1  0  0  0  0
 37 26  2  0  0  0  0
M  END
>  <minimizedAffinity>
-6.06992006

>  <minimizedRMSD>
1.20166516

$$$$
