
 OpenBabel03262522053D

 43 47  0  0  1  0  0  0  0  0999 V2000
   37.7210   31.8080   49.6910 C   0  0  0  0  0  0  0  0  0  0  0  0
   36.7280   32.3240   50.2910 O   0  0  0  0  0  0  0  0  0  0  0  0
   34.4980   29.0770   48.7540 C   0  0  2  0  0  0  0  0  0  0  0  0
   35.1280   28.3590   49.8980 C   0  0  0  0  0  0  0  0  0  0  0  0
   36.2640   29.1380   50.3890 N   0  0  0  0  0  0  0  0  0  0  0  0
   37.2100   29.8760   51.1760 C   0  0  0  0  0  0  0  0  0  0  0  0
   37.4160   30.0740   52.3870 O   0  0  0  0  0  0  0  0  0  0  0  0
   37.9410   30.3860   50.0450 C   0  0  1  0  0  0  0  0  0  0  0  0
   37.1140   29.3720   49.2630 C   0  0  2  0  0  0  0  0  0  0  0  0
   35.9090   30.0700   48.1090 S   0  0  0  0  0  0  0  0  0  0  0  0
   34.4400   28.2470   50.7710 H   0  0  0  0  0  0  0  0  0  0  0  0
   35.4770   27.3430   49.5930 H   0  0  0  0  0  0  0  0  0  0  0  0
   38.9970   30.1350   49.8650 H   0  0  0  0  0  0  0  0  0  0  0  0
   37.6680   28.4970   48.8800 H   0  0  0  0  0  0  0  0  0  0  0  0
   33.2910   29.8980   49.0600 C   0  0  0  0  0  0  0  0  0  0  0  0
   32.9940   29.7190   50.1160 H   0  0  0  0  0  0  0  0  0  0  0  0
   33.4530   31.0010   48.9790 H   0  0  0  0  0  0  0  0  0  0  0  0
   32.4250   29.6380   48.3890 H   0  0  0  0  0  0  0  0  0  0  0  0
   34.2150   28.0520   47.6430 C   0  0  0  0  0  0  0  0  0  0  0  0
   34.8740   27.1840   47.6990 H   0  0  0  0  0  0  0  0  0  0  0  0
   33.1290   27.7840   47.7910 H   0  0  0  0  0  0  0  0  0  0  0  0
   34.2460   28.7120   46.4120 O   0  0  0  0  0  0  0  0  0  0  0  0
   34.8470   28.1510   45.8300 H   0  0  0  0  0  0  0  0  0  0  0  0
   38.5420   32.5330   48.7710 C   0  0  0  0  0  0  0  0  0  0  0  0
   39.1220   33.7070   49.1980 C   0  0  0  0  0  0  0  0  0  0  0  0
   39.9310   34.4180   48.2860 C   0  0  0  0  0  0  0  0  0  0  0  0
   40.0930   33.9010   47.0290 N   0  0  0  0  0  0  0  0  0  0  0  0
   39.5170   32.7690   46.6560 C   0  0  0  0  0  0  0  0  0  0  0  0
   38.7410   32.0730   47.5110 N   0  0  0  0  0  0  0  0  0  0  0  0
   38.9750   34.0910   50.2030 H   0  0  0  0  0  0  0  0  0  0  0  0
   40.4150   35.3470   48.5610 H   0  0  0  0  0  0  0  0  0  0  0  0
   40.5650   31.1840   45.0550 C   0  0  0  0  0  3  0  0  0  0  0  0
   39.7390   32.2820   45.2950 C   0  0  0  0  0  0  0  0  0  0  0  0
   39.0910   32.9660   44.2630 C   0  0  0  0  0  0  0  0  0  0  0  0
   38.4530   33.8170   44.4560 H   0  0  0  0  0  0  0  0  0  0  0  0
   39.2850   32.5240   42.9540 C   0  0  0  0  0  0  0  0  0  0  0  0
   38.7630   33.0320   41.8270 N   0  0  0  0  0  0  0  0  0  0  0  0
   38.1180   33.8440   41.6880 H   0  0  0  0  0  0  0  0  0  0  0  0
   39.2130   32.2980   40.7690 C   0  0  0  0  0  0  0  0  0  0  0  0
   39.0490   32.3520   39.7010 H   0  0  0  0  0  0  0  0  0  0  0  0
   40.0300   31.3240   41.3130 C   0  0  0  0  0  3  0  0  0  0  0  0
   40.0990   31.4370   42.6870 C   0  0  0  0  0  0  0  0  0  0  0  0
   40.7280   30.7790   43.7240 C   0  0  0  0  0  3  0  0  0  0  0  0
  1  8  1  0  0  0  0
  1  2  2  0  0  0  0
  3 19  1  6  0  0  0
  3 15  1  0  0  0  0
  3  4  1  0  0  0  0
  4  5  1  0  0  0  0
  4 11  1  0  0  0  0
  5  6  1  0  0  0  0
  6  7  2  0  0  0  0
  8 13  1  1  0  0  0
  8  6  1  0  0  0  0
  9 14  1  6  0  0  0
  9  8  1  0  0  0  0
  9  5  1  0  0  0  0
 10  3  1  0  0  0  0
 10  9  1  0  0  0  0
 12  4  1  0  0  0  0
 15 16  1  0  0  0  0
 17 15  1  0  0  0  0
 18 15  1  0  0  0  0
 19 20  1  0  0  0  0
 19 21  1  0  0  0  0
 22 19  1  0  0  0  0
 23 22  1  0  0  0  0
 24 25  1  0  0  0  0
 24  1  1  0  0  0  0
 25 30  1  0  0  0  0
 26 31  1  0  0  0  0
 26 25  2  0  0  0  0
 27 26  1  0  0  0  0
 28 27  2  0  0  0  0
 28 29  1  0  0  0  0
 29 24  2  0  0  0  0
 32 33  1  0  0  0  0
 33 28  1  0  0  0  0
 34 35  1  0  0  0  0
 34 33  2  0  0  0  0
 36 34  1  0  0  0  0
 37 36  1  0  0  0  0
 38 37  1  0  0  0  0
 39 41  2  0  0  0  0
 39 37  1  0  0  0  0
 40 39  1  0  0  0  0
 41 42  1  0  0  0  0
 42 36  2  0  0  0  0
 42 43  1  0  0  0  0
 43 32  2  0  0  0  0
M  END
>  <minimizedAffinity>
-6.52225447

>  <minimizedRMSD>
0.263361722

$$$$
