
 OpenBabel03272510123D

 38 42  0  0  0  0  0  0  0  0999 V2000
   37.4490   26.9250   31.4860 O   0  0  0  0  0  0  0  0  0  0  0  0
   36.3270   22.8980   31.9670 C   0  0  0  0  0  0  0  0  0  0  0  0
   35.5350   23.7640   31.2970 C   0  0  0  0  0  0  0  0  0  0  0  0
   35.8200   25.0900   31.0930 C   0  0  0  0  0  0  0  0  0  0  0  0
   36.9820   25.6210   31.5850 C   0  0  0  0  0  0  0  0  0  0  0  0
   37.8100   24.7260   32.2820 C   0  0  0  0  0  0  0  0  0  0  0  0
   37.4800   23.4250   32.4550 N   0  0  0  0  0  0  0  0  0  0  0  0
   34.5930   23.4440   30.8690 H   0  0  0  0  0  0  0  0  0  0  0  0
   35.1950   25.7930   30.5600 H   0  0  0  0  0  0  0  0  0  0  0  0
   38.7760   24.9630   32.7470 H   0  0  0  0  0  0  0  0  0  0  0  0
   35.7470   20.9180   33.4170 C   0  0  0  0  0  0  0  0  0  0  0  0
   36.0060   21.5050   32.1700 C   0  0  0  0  0  0  0  0  0  0  0  0
   35.9420   20.6610   31.0710 C   0  0  0  0  0  0  0  0  0  0  0  0
   35.6380   19.3420   31.2500 N   0  0  0  0  0  0  0  0  0  0  0  0
   35.4000   18.8410   32.4750 C   0  0  0  0  0  0  0  0  0  0  0  0
   35.4540   19.6270   33.5550 N   0  0  0  0  0  0  0  0  0  0  0  0
   35.7920   21.5550   34.2790 H   0  0  0  0  0  0  0  0  0  0  0  0
   36.1250   21.0160   30.0660 H   0  0  0  0  0  0  0  0  0  0  0  0
   35.1760   17.7770   32.4360 H   0  0  0  0  0  0  0  0  0  0  0  0
   36.8110   27.9900   32.0840 C   0  0  0  0  0  0  0  0  0  0  0  0
   36.4690   29.0410   31.2310 C   0  0  0  0  0  0  0  0  0  0  0  0
   35.8410   30.0110   32.0080 C   0  0  0  0  0  0  0  0  0  0  0  0
   35.8230   29.5290   33.2740 N   0  0  0  0  0  0  0  0  0  0  0  0
   36.3910   28.3480   33.3100 N   0  0  0  0  0  0  0  0  0  0  0  0
   36.5890   29.2310   30.1670 H   0  0  0  0  0  0  0  0  0  0  0  0
   35.4310   30.9820   31.6930 H   0  0  0  0  0  0  0  0  0  0  0  0
   35.9840   30.9520   35.3120 C   0  0  0  0  0  3  0  0  0  0  0  0
   35.2560   30.2450   34.3650 C   0  0  0  0  0  0  0  0  0  0  0  0
   33.8660   30.1790   34.4110 C   0  0  0  0  0  0  0  0  0  0  0  0
   33.2560   29.6460   33.7060 H   0  0  0  0  0  0  0  0  0  0  0  0
   33.1970   30.8410   35.4360 C   0  0  0  0  0  0  0  0  0  0  0  0
   31.8930   31.0040   35.8030 N   0  0  0  0  0  0  0  0  0  0  0  0
   31.1380   30.5510   35.2270 H   0  0  0  0  0  0  0  0  0  0  0  0
   31.8280   31.7660   36.9100 C   0  0  0  0  0  0  0  0  0  0  0  0
   30.8950   32.0380   37.3990 H   0  0  0  0  0  0  0  0  0  0  0  0
   33.0900   32.1400   37.3200 C   0  0  0  0  0  3  0  0  0  0  0  0
   33.9330   31.5440   36.3750 C   0  0  0  0  0  0  0  0  0  0  0  0
   35.3250   31.6120   36.3310 C   0  0  0  0  0  3  0  0  0  0  0  0
  1  5  1  0  0  0  0
  1 20  1  0  0  0  0
  2 12  1  0  0  0  0
  2  7  1  0  0  0  0
  3  2  2  0  0  0  0
  4  3  1  0  0  0  0
  4  5  2  0  0  0  0
  5  6  1  0  0  0  0
  6  7  2  0  0  0  0
  6 10  1  0  0  0  0
  8  3  1  0  0  0  0
  9  4  1  0  0  0  0
 11 16  1  0  0  0  0
 11 17  1  0  0  0  0
 12 11  2  0  0  0  0
 13 14  2  0  0  0  0
 13 12  1  0  0  0  0
 14 15  1  0  0  0  0
 15 16  2  0  0  0  0
 18 13  1  0  0  0  0
 19 15  1  0  0  0  0
 20 24  2  0  0  0  0
 21 22  2  0  0  0  0
 21 20  1  0  0  0  0
 22 23  1  0  0  0  0
 23 24  1  0  0  0  0
 23 28  1  0  0  0  0
 25 21  1  0  0  0  0
 26 22  1  0  0  0  0
 27 38  1  0  0  0  0
 28 29  1  0  0  0  0
 28 27  2  0  0  0  0
 29 31  2  0  0  0  0
 30 29  1  0  0  0  0
 31 32  1  0  0  0  0
 31 37  1  0  0  0  0
 32 34  1  0  0  0  0
 33 32  1  0  0  0  0
 34 36  2  0  0  0  0
 34 35  1  0  0  0  0
 37 36  1  0  0  0  0
 38 37  2  0  0  0  0
M  END
>  <minimizedAffinity>
-6.48343849

$$$$

 OpenBabel03272510123D

 38 42  0  0  0  0  0  0  0  0999 V2000
   37.3950   26.8530   31.7380 O   0  0  0  0  0  0  0  0  0  0  0  0
   36.3690   22.7770   31.9180 C   0  0  0  0  0  0  0  0  0  0  0  0
   35.5190   23.6840   31.3870 C   0  0  0  0  0  0  0  0  0  0  0  0
   35.7700   25.0290   31.2870 C   0  0  0  0  0  0  0  0  0  0  0  0
   36.9550   25.5360   31.7470 C   0  0  0  0  0  0  0  0  0  0  0  0
   37.8430   24.5990   32.3010 C   0  0  0  0  0  0  0  0  0  0  0  0
   37.5440   23.2800   32.3740 N   0  0  0  0  0  0  0  0  0  0  0  0
   34.5550   23.3840   30.9960 H   0  0  0  0  0  0  0  0  0  0  0  0
   35.0990   25.7640   30.8660 H   0  0  0  0  0  0  0  0  0  0  0  0
   38.8350   24.8120   32.7180 H   0  0  0  0  0  0  0  0  0  0  0  0
   36.1670   20.4590   30.9440 C   0  0  0  0  0  0  0  0  0  0  0  0
   36.0830   21.3640   32.0120 C   0  0  0  0  0  0  0  0  0  0  0  0
   35.6940   20.8360   33.2340 C   0  0  0  0  0  0  0  0  0  0  0  0
   35.4210   19.5020   33.3360 N   0  0  0  0  0  0  0  0  0  0  0  0
   35.5210   18.6860   32.2710 C   0  0  0  0  0  0  0  0  0  0  0  0
   35.8930   19.1640   31.0790 N   0  0  0  0  0  0  0  0  0  0  0  0
   36.4660   20.8490   29.9910 H   0  0  0  0  0  0  0  0  0  0  0  0
   35.5980   21.4490   34.1190 H   0  0  0  0  0  0  0  0  0  0  0  0
   35.2680   17.6600   32.5280 H   0  0  0  0  0  0  0  0  0  0  0  0
   36.6460   27.8900   32.2500 C   0  0  0  0  0  0  0  0  0  0  0  0
   36.2760   28.8740   31.3320 C   0  0  0  0  0  0  0  0  0  0  0  0
   35.5340   29.8250   32.0270 C   0  0  0  0  0  0  0  0  0  0  0  0
   35.4800   29.3980   33.3110 N   0  0  0  0  0  0  0  0  0  0  0  0
   36.1320   28.2670   33.4330 N   0  0  0  0  0  0  0  0  0  0  0  0
   36.4420   29.0270   30.2680 H   0  0  0  0  0  0  0  0  0  0  0  0
   35.0710   30.7470   31.6450 H   0  0  0  0  0  0  0  0  0  0  0  0
   33.5420   29.7900   34.8260 C   0  0  0  0  0  3  0  0  0  0  0  0
   34.7990   30.1140   34.3350 C   0  0  0  0  0  0  0  0  0  0  0  0
   35.5160   31.2030   34.8230 C   0  0  0  0  0  0  0  0  0  0  0  0
   36.4900   31.4970   34.4790 H   0  0  0  0  0  0  0  0  0  0  0  0
   34.9520   31.9820   35.8290 C   0  0  0  0  0  0  0  0  0  0  0  0
   35.3300   33.0850   36.5360 N   0  0  0  0  0  0  0  0  0  0  0  0
   36.2650   33.5250   36.3390 H   0  0  0  0  0  0  0  0  0  0  0  0
   34.3600   33.4170   37.4080 C   0  0  0  0  0  0  0  0  0  0  0  0
   34.4260   34.2640   38.0870 H   0  0  0  0  0  0  0  0  0  0  0  0
   33.2980   32.5420   37.3130 C   0  0  0  0  0  3  0  0  0  0  0  0
   33.6970   31.6500   36.3110 C   0  0  0  0  0  0  0  0  0  0  0  0
   32.9760   30.5590   35.8240 C   0  0  0  0  0  3  0  0  0  0  0  0
  1  5  1  0  0  0  0
  1 20  1  0  0  0  0
  2 12  1  0  0  0  0
  2  7  1  0  0  0  0
  3  2  2  0  0  0  0
  4  3  1  0  0  0  0
  4  5  2  0  0  0  0
  5  6  1  0  0  0  0
  6  7  2  0  0  0  0
  6 10  1  0  0  0  0
  8  3  1  0  0  0  0
  9  4  1  0  0  0  0
 11 16  2  0  0  0  0
 11 12  1  0  0  0  0
 12 13  2  0  0  0  0
 13 14  1  0  0  0  0
 13 18  1  0  0  0  0
 15 19  1  0  0  0  0
 15 14  2  0  0  0  0
 16 15  1  0  0  0  0
 17 11  1  0  0  0  0
 20 24  2  0  0  0  0
 21 22  2  0  0  0  0
 21 20  1  0  0  0  0
 22 23  1  0  0  0  0
 23 24  1  0  0  0  0
 23 28  1  0  0  0  0
 25 21  1  0  0  0  0
 26 22  1  0  0  0  0
 27 38  1  0  0  0  0
 28 29  1  0  0  0  0
 28 27  2  0  0  0  0
 29 31  2  0  0  0  0
 30 29  1  0  0  0  0
 31 37  1  0  0  0  0
 31 32  1  0  0  0  0
 32 34  1  0  0  0  0
 33 32  1  0  0  0  0
 34 35  1  0  0  0  0
 36 34  2  0  0  0  0
 37 36  1  0  0  0  0
 38 37  2  0  0  0  0
M  END
>  <minimizedAffinity>
-6.3621645

$$$$

 OpenBabel03272510123D

 38 42  0  0  0  0  0  0  0  0999 V2000
   37.2560   27.2710   31.4420 O   0  0  0  0  0  0  0  0  0  0  0  0
   35.4660   29.9040   34.1930 C   0  0  0  0  0  0  0  0  0  0  0  0
   35.3520   30.1080   32.8610 C   0  0  0  0  0  0  0  0  0  0  0  0
   35.9010   29.3030   31.8960 C   0  0  0  0  0  0  0  0  0  0  0  0
   36.6270   28.2010   32.2590 C   0  0  0  0  0  0  0  0  0  0  0  0
   36.7490   27.9830   33.6400 C   0  0  0  0  0  0  0  0  0  0  0  0
   36.1850   28.8100   34.5530 N   0  0  0  0  0  0  0  0  0  0  0  0
   34.7990   30.9530   32.4710 H   0  0  0  0  0  0  0  0  0  0  0  0
   35.8190   29.4560   30.8280 H   0  0  0  0  0  0  0  0  0  0  0  0
   37.2870   27.1570   34.1230 H   0  0  0  0  0  0  0  0  0  0  0  0
   35.6070   31.5500   36.0980 C   0  0  0  0  0  0  0  0  0  0  0  0
   34.8790   30.7650   35.1920 C   0  0  0  0  0  0  0  0  0  0  0  0
   33.4980   30.8420   35.2870 C   0  0  0  0  0  0  0  0  0  0  0  0
   32.9300   31.6530   36.2280 N   0  0  0  0  0  0  0  0  0  0  0  0
   33.6860   32.3810   37.0690 C   0  0  0  0  0  0  0  0  0  0  0  0
   35.0210   32.3300   37.0030 N   0  0  0  0  0  0  0  0  0  0  0  0
   36.6770   31.5030   36.0400 H   0  0  0  0  0  0  0  0  0  0  0  0
   32.8460   30.2760   34.6360 H   0  0  0  0  0  0  0  0  0  0  0  0
   33.0750   32.9680   37.7510 H   0  0  0  0  0  0  0  0  0  0  0  0
   36.8630   25.9520   31.3770 C   0  0  0  0  0  0  0  0  0  0  0  0
   35.5420   25.7390   30.9790 C   0  0  0  0  0  0  0  0  0  0  0  0
   35.3340   24.3620   30.9740 C   0  0  0  0  0  0  0  0  0  0  0  0
   36.5040   23.8000   31.3600 N   0  0  0  0  0  0  0  0  0  0  0  0
   37.3920   24.7350   31.5940 N   0  0  0  0  0  0  0  0  0  0  0  0
   34.7160   26.3860   30.6950 H   0  0  0  0  0  0  0  0  0  0  0  0
   34.4190   23.8080   30.7160 H   0  0  0  0  0  0  0  0  0  0  0  0
   37.9030   21.7390   31.3600 C   0  0  0  0  0  3  0  0  0  0  0  0
   36.6840   22.3930   31.4760 C   0  0  0  0  0  0  0  0  0  0  0  0
   35.5030   21.7000   31.7230 C   0  0  0  0  0  0  0  0  0  0  0  0
   34.5350   22.1560   31.8200 H   0  0  0  0  0  0  0  0  0  0  0  0
   35.5520   20.3150   31.8550 C   0  0  0  0  0  0  0  0  0  0  0  0
   34.6440   19.3260   32.0920 N   0  0  0  0  0  0  0  0  0  0  0  0
   33.6310   19.5780   32.2170 H   0  0  0  0  0  0  0  0  0  0  0  0
   35.2720   18.1350   32.1190 C   0  0  0  0  0  0  0  0  0  0  0  0
   34.7600   17.1900   32.2900 H   0  0  0  0  0  0  0  0  0  0  0  0
   36.6240   18.2910   31.9010 C   0  0  0  0  0  3  0  0  0  0  0  0
   36.7730   19.6730   31.7390 C   0  0  0  0  0  0  0  0  0  0  0  0
   37.9590   20.3650   31.4920 C   0  0  0  0  0  3  0  0  0  0  0  0
  1  5  1  0  0  0  0
  2  7  1  0  0  0  0
  2 12  1  0  0  0  0
  3  2  2  0  0  0  0
  4  5  2  0  0  0  0
  4  3  1  0  0  0  0
  5  6  1  0  0  0  0
  6 10  1  0  0  0  0
  6  7  2  0  0  0  0
  8  3  1  0  0  0  0
  9  4  1  0  0  0  0
 11 16  1  0  0  0  0
 12 13  1  0  0  0  0
 12 11  2  0  0  0  0
 13 14  2  0  0  0  0
 14 15  1  0  0  0  0
 15 19  1  0  0  0  0
 16 15  2  0  0  0  0
 17 11  1  0  0  0  0
 18 13  1  0  0  0  0
 20  1  1  0  0  0  0
 20 24  2  0  0  0  0
 21 20  1  0  0  0  0
 22 21  2  0  0  0  0
 22 23  1  0  0  0  0
 23 28  1  0  0  0  0
 23 24  1  0  0  0  0
 25 21  1  0  0  0  0
 26 22  1  0  0  0  0
 27 28  2  0  0  0  0
 27 38  1  0  0  0  0
 28 29  1  0  0  0  0
 29 30  1  0  0  0  0
 29 31  2  0  0  0  0
 31 32  1  0  0  0  0
 32 34  1  0  0  0  0
 32 33  1  0  0  0  0
 34 35  1  0  0  0  0
 36 34  2  0  0  0  0
 37 31  1  0  0  0  0
 37 36  1  0  0  0  0
 38 37  2  0  0  0  0
M  END
>  <minimizedAffinity>
-6.20768499

$$$$

 OpenBabel03272510123D

 38 42  0  0  0  0  0  0  0  0999 V2000
   35.8280   28.3310   33.5560 O   0  0  0  0  0  0  0  0  0  0  0  0
   34.3070   31.5570   35.7890 C   0  0  0  0  0  0  0  0  0  0  0  0
   35.6260   31.2640   35.8030 C   0  0  0  0  0  0  0  0  0  0  0  0
   36.2080   30.2340   35.1070 C   0  0  0  0  0  0  0  0  0  0  0  0
   35.4350   29.4160   34.3290 C   0  0  0  0  0  0  0  0  0  0  0  0
   34.0630   29.7150   34.3100 C   0  0  0  0  0  0  0  0  0  0  0  0
   33.5400   30.7450   35.0160 N   0  0  0  0  0  0  0  0  0  0  0  0
   36.3230   31.8510   36.3880 H   0  0  0  0  0  0  0  0  0  0  0  0
   37.2610   29.9890   35.1110 H   0  0  0  0  0  0  0  0  0  0  0  0
   33.2880   29.1770   33.7490 H   0  0  0  0  0  0  0  0  0  0  0  0
   32.3580   32.9960   36.4910 C   0  0  0  0  0  0  0  0  0  0  0  0
   33.7160   32.6470   36.5300 C   0  0  0  0  0  0  0  0  0  0  0  0
   34.5250   33.4230   37.3460 C   0  0  0  0  0  0  0  0  0  0  0  0
   33.9790   34.4560   38.0520 N   0  0  0  0  0  0  0  0  0  0  0  0
   32.6660   34.7390   37.9710 C   0  0  0  0  0  0  0  0  0  0  0  0
   31.8590   34.0100   37.1930 N   0  0  0  0  0  0  0  0  0  0  0  0
   31.7160   32.4070   35.8660 H   0  0  0  0  0  0  0  0  0  0  0  0
   35.5860   33.2360   37.4450 H   0  0  0  0  0  0  0  0  0  0  0  0
   32.4010   35.5900   38.5950 H   0  0  0  0  0  0  0  0  0  0  0  0
   36.8060   27.4480   33.9580 C   0  0  0  0  0  0  0  0  0  0  0  0
   37.9840   27.4760   33.2090 C   0  0  0  0  0  0  0  0  0  0  0  0
   38.8410   26.5270   33.7600 C   0  0  0  0  0  0  0  0  0  0  0  0
   38.1730   25.9700   34.7980 N   0  0  0  0  0  0  0  0  0  0  0  0
   36.9850   26.5130   34.9070 N   0  0  0  0  0  0  0  0  0  0  0  0
   38.3310   28.0480   32.3520 H   0  0  0  0  0  0  0  0  0  0  0  0
   39.8600   26.2580   33.4440 H   0  0  0  0  0  0  0  0  0  0  0  0
   38.1440   24.4490   36.7700 C   0  0  0  0  0  3  0  0  0  0  0  0
   38.7300   24.9470   35.6150 C   0  0  0  0  0  0  0  0  0  0  0  0
   39.9520   24.4680   35.1510 C   0  0  0  0  0  0  0  0  0  0  0  0
   40.4490   24.8180   34.2660 H   0  0  0  0  0  0  0  0  0  0  0  0
   40.5960   23.4650   35.8690 C   0  0  0  0  0  0  0  0  0  0  0  0
   41.7600   22.7660   35.7370 N   0  0  0  0  0  0  0  0  0  0  0  0
   42.3910   22.9690   34.9210 H   0  0  0  0  0  0  0  0  0  0  0  0
   41.8780   21.8910   36.7540 C   0  0  0  0  0  0  0  0  0  0  0  0
   42.7240   21.2170   36.8720 H   0  0  0  0  0  0  0  0  0  0  0  0
   40.7920   21.9770   37.6000 C   0  0  0  0  0  3  0  0  0  0  0  0
   40.0020   22.9750   37.0190 C   0  0  0  0  0  0  0  0  0  0  0  0
   38.7770   23.4530   37.4870 C   0  0  0  0  0  3  0  0  0  0  0  0
  1 20  1  0  0  0  0
  1  5  1  0  0  0  0
  2  3  1  0  0  0  0
  2 12  1  0  0  0  0
  3  8  1  0  0  0  0
  4  9  1  0  0  0  0
  4  3  2  0  0  0  0
  5  4  1  0  0  0  0
  6  5  2  0  0  0  0
  6  7  1  0  0  0  0
  7  2  2  0  0  0  0
 10  6  1  0  0  0  0
 11 12  2  0  0  0  0
 11 16  1  0  0  0  0
 12 13  1  0  0  0  0
 13 18  1  0  0  0  0
 13 14  2  0  0  0  0
 15 14  1  0  0  0  0
 15 19  1  0  0  0  0
 16 15  2  0  0  0  0
 17 11  1  0  0  0  0
 20 24  2  0  0  0  0
 21 22  2  0  0  0  0
 21 20  1  0  0  0  0
 22 23  1  0  0  0  0
 23 24  1  0  0  0  0
 23 28  1  0  0  0  0
 25 21  1  0  0  0  0
 26 22  1  0  0  0  0
 27 38  1  0  0  0  0
 28 27  2  0  0  0  0
 29 28  1  0  0  0  0
 29 31  2  0  0  0  0
 30 29  1  0  0  0  0
 31 37  1  0  0  0  0
 32 31  1  0  0  0  0
 32 34  1  0  0  0  0
 33 32  1  0  0  0  0
 34 35  1  0  0  0  0
 34 36  2  0  0  0  0
 37 38  2  0  0  0  0
 37 36  1  0  0  0  0
M  END
>  <minimizedAffinity>
-6.04907751

$$$$

 OpenBabel03272510123D

 38 42  0  0  0  0  0  0  0  0999 V2000
   35.5060   29.1380   33.0550 O   0  0  0  0  0  0  0  0  0  0  0  0
   34.1120   32.1100   35.6870 C   0  0  0  0  0  0  0  0  0  0  0  0
   35.3560   31.5970   35.8160 C   0  0  0  0  0  0  0  0  0  0  0  0
   35.8910   30.6280   35.0050 C   0  0  0  0  0  0  0  0  0  0  0  0
   35.1490   30.1130   33.9770 C   0  0  0  0  0  0  0  0  0  0  0  0
   33.8560   30.6420   33.8380 C   0  0  0  0  0  0  0  0  0  0  0  0
   33.3760   31.5990   34.6670 N   0  0  0  0  0  0  0  0  0  0  0  0
   36.0220   31.9370   36.5980 H   0  0  0  0  0  0  0  0  0  0  0  0
   36.8840   30.2090   35.0980 H   0  0  0  0  0  0  0  0  0  0  0  0
   33.1160   30.3580   33.0790 H   0  0  0  0  0  0  0  0  0  0  0  0
   32.2410   33.5810   36.5210 C   0  0  0  0  0  0  0  0  0  0  0  0
   33.5690   33.1310   36.5520 C   0  0  0  0  0  0  0  0  0  0  0  0
   34.3950   33.7270   37.4930 C   0  0  0  0  0  0  0  0  0  0  0  0
   33.8940   34.6920   38.3170 N   0  0  0  0  0  0  0  0  0  0  0  0
   32.6080   35.0800   38.2360 C   0  0  0  0  0  0  0  0  0  0  0  0
   31.7850   34.5260   37.3410 N   0  0  0  0  0  0  0  0  0  0  0  0
   31.5850   33.1320   35.8000 H   0  0  0  0  0  0  0  0  0  0  0  0
   35.4360   33.4500   37.5970 H   0  0  0  0  0  0  0  0  0  0  0  0
   32.3770   35.8560   38.9630 H   0  0  0  0  0  0  0  0  0  0  0  0
   36.3980   28.1290   33.3490 C   0  0  0  0  0  0  0  0  0  0  0  0
   37.2710   27.7820   32.3170 C   0  0  0  0  0  0  0  0  0  0  0  0
   38.0850   26.7590   32.7960 C   0  0  0  0  0  0  0  0  0  0  0  0
   37.6890   26.5250   34.0700 N   0  0  0  0  0  0  0  0  0  0  0  0
   36.7030   27.3290   34.3850 N   0  0  0  0  0  0  0  0  0  0  0  0
   37.4260   28.1280   31.2970 H   0  0  0  0  0  0  0  0  0  0  0  0
   38.8950   26.2260   32.2760 H   0  0  0  0  0  0  0  0  0  0  0  0
   39.3280   24.7020   34.5060 C   0  0  0  0  0  3  0  0  0  0  0  0
   38.2920   25.5380   34.8980 C   0  0  0  0  0  0  0  0  0  0  0  0
   37.7430   25.4720   36.1750 C   0  0  0  0  0  0  0  0  0  0  0  0
   36.9410   26.0930   36.5290 H   0  0  0  0  0  0  0  0  0  0  0  0
   38.2520   24.5410   37.0770 C   0  0  0  0  0  0  0  0  0  0  0  0
   37.9870   24.1900   38.3680 N   0  0  0  0  0  0  0  0  0  0  0  0
   37.2250   24.6920   38.8910 H   0  0  0  0  0  0  0  0  0  0  0  0
   38.8140   23.1960   38.7430 C   0  0  0  0  0  0  0  0  0  0  0  0
   38.7980   22.7420   39.7320 H   0  0  0  0  0  0  0  0  0  0  0  0
   39.6620   22.8510   37.7120 C   0  0  0  0  0  3  0  0  0  0  0  0
   39.2860   23.7130   36.6760 C   0  0  0  0  0  0  0  0  0  0  0  0
   39.8380   23.7770   35.3960 C   0  0  0  0  0  3  0  0  0  0  0  0
  1 20  1  0  0  0  0
  1  5  1  0  0  0  0
  2  3  1  0  0  0  0
  2 12  1  0  0  0  0
  3  8  1  0  0  0  0
  4  9  1  0  0  0  0
  4  3  2  0  0  0  0
  5  4  1  0  0  0  0
  6  5  2  0  0  0  0
  6  7  1  0  0  0  0
  7  2  2  0  0  0  0
 10  6  1  0  0  0  0
 11 12  2  0  0  0  0
 11 16  1  0  0  0  0
 12 13  1  0  0  0  0
 13 18  1  0  0  0  0
 13 14  2  0  0  0  0
 15 14  1  0  0  0  0
 15 19  1  0  0  0  0
 16 15  2  0  0  0  0
 17 11  1  0  0  0  0
 20 24  2  0  0  0  0
 21 22  2  0  0  0  0
 21 20  1  0  0  0  0
 22 23  1  0  0  0  0
 23 24  1  0  0  0  0
 23 28  1  0  0  0  0
 25 21  1  0  0  0  0
 26 22  1  0  0  0  0
 27 28  2  0  0  0  0
 27 38  1  0  0  0  0
 28 29  1  0  0  0  0
 29 30  1  0  0  0  0
 29 31  2  0  0  0  0
 31 32  1  0  0  0  0
 32 34  1  0  0  0  0
 32 33  1  0  0  0  0
 34 35  1  0  0  0  0
 36 34  2  0  0  0  0
 37 31  1  0  0  0  0
 37 36  1  0  0  0  0
 38 37  2  0  0  0  0
M  END
>  <minimizedAffinity>
-6.02233696

$$$$

 OpenBabel03272510123D

 38 42  0  0  0  0  0  0  0  0999 V2000
   36.4710   26.7710   32.5500 O   0  0  0  0  0  0  0  0  0  0  0  0
   38.8340   24.3040   35.0070 C   0  0  0  0  0  0  0  0  0  0  0  0
   38.1870   25.3760   35.5160 C   0  0  0  0  0  0  0  0  0  0  0  0
   37.3970   26.2320   34.7910 C   0  0  0  0  0  0  0  0  0  0  0  0
   37.2230   26.0260   33.4490 C   0  0  0  0  0  0  0  0  0  0  0  0
   37.8930   24.9150   32.9140 C   0  0  0  0  0  0  0  0  0  0  0  0
   38.6610   24.1000   33.6760 N   0  0  0  0  0  0  0  0  0  0  0  0
   38.2600   25.6250   36.5670 H   0  0  0  0  0  0  0  0  0  0  0  0
   36.8750   27.0920   35.1870 H   0  0  0  0  0  0  0  0  0  0  0  0
   37.8750   24.5890   31.8660 H   0  0  0  0  0  0  0  0  0  0  0  0
   39.5820   23.2720   37.1830 C   0  0  0  0  0  0  0  0  0  0  0  0
   39.6610   23.4160   35.7900 C   0  0  0  0  0  0  0  0  0  0  0  0
   40.6100   22.6370   35.1460 C   0  0  0  0  0  0  0  0  0  0  0  0
   41.3980   21.7930   35.8750 N   0  0  0  0  0  0  0  0  0  0  0  0
   41.2720   21.7010   37.2120 C   0  0  0  0  0  0  0  0  0  0  0  0
   40.3660   22.4380   37.8630 N   0  0  0  0  0  0  0  0  0  0  0  0
   38.8530   23.8660   37.6990 H   0  0  0  0  0  0  0  0  0  0  0  0
   40.7510   22.6750   34.0750 H   0  0  0  0  0  0  0  0  0  0  0  0
   41.9740   20.9850   37.6320 H   0  0  0  0  0  0  0  0  0  0  0  0
   36.2280   28.1160   32.7200 C   0  0  0  0  0  0  0  0  0  0  0  0
   36.4820   28.9180   31.6060 C   0  0  0  0  0  0  0  0  0  0  0  0
   36.1810   30.2280   31.9670 C   0  0  0  0  0  0  0  0  0  0  0  0
   35.7640   30.1800   33.2550 N   0  0  0  0  0  0  0  0  0  0  0  0
   35.7950   28.9430   33.6870 N   0  0  0  0  0  0  0  0  0  0  0  0
   36.8400   28.7310   30.5960 H   0  0  0  0  0  0  0  0  0  0  0  0
   36.2540   31.1420   31.3580 H   0  0  0  0  0  0  0  0  0  0  0  0
   35.0630   32.5650   33.4100 C   0  0  0  0  0  3  0  0  0  0  0  0
   35.3640   31.3360   33.9810 C   0  0  0  0  0  0  0  0  0  0  0  0
   35.2960   31.1330   35.3570 C   0  0  0  0  0  0  0  0  0  0  0  0
   35.5180   30.2050   35.8490 H   0  0  0  0  0  0  0  0  0  0  0  0
   34.9160   32.1940   36.1740 C   0  0  0  0  0  0  0  0  0  0  0  0
   34.7390   32.3770   37.5140 N   0  0  0  0  0  0  0  0  0  0  0  0
   34.9110   31.5730   38.1690 H   0  0  0  0  0  0  0  0  0  0  0  0
   34.3520   33.6450   37.7480 C   0  0  0  0  0  0  0  0  0  0  0  0
   34.1480   34.0380   38.7420 H   0  0  0  0  0  0  0  0  0  0  0  0
   34.2570   34.3520   36.5680 C   0  0  0  0  0  3  0  0  0  0  0  0
   34.6170   33.4140   35.5940 C   0  0  0  0  0  0  0  0  0  0  0  0
   34.6840   33.6210   34.2150 C   0  0  0  0  0  3  0  0  0  0  0  0
  1 20  1  0  0  0  0
  1  5  1  0  0  0  0
  2  3  1  0  0  0  0
  2 12  1  0  0  0  0
  3  8  1  0  0  0  0
  4  9  1  0  0  0  0
  4  3  2  0  0  0  0
  5  4  1  0  0  0  0
  6  5  2  0  0  0  0
  6  7  1  0  0  0  0
  7  2  2  0  0  0  0
 10  6  1  0  0  0  0
 11 17  1  0  0  0  0
 11 16  1  0  0  0  0
 12 11  2  0  0  0  0
 13 12  1  0  0  0  0
 13 14  2  0  0  0  0
 14 15  1  0  0  0  0
 15 19  1  0  0  0  0
 15 16  2  0  0  0  0
 18 13  1  0  0  0  0
 20 24  2  0  0  0  0
 21 22  2  0  0  0  0
 21 20  1  0  0  0  0
 22 23  1  0  0  0  0
 23 24  1  0  0  0  0
 23 28  1  0  0  0  0
 25 21  1  0  0  0  0
 26 22  1  0  0  0  0
 27 28  2  0  0  0  0
 27 38  1  0  0  0  0
 28 29  1  0  0  0  0
 29 30  1  0  0  0  0
 29 31  2  0  0  0  0
 31 32  1  0  0  0  0
 32 34  1  0  0  0  0
 32 33  1  0  0  0  0
 34 35  1  0  0  0  0
 36 34  2  0  0  0  0
 37 31  1  0  0  0  0
 37 36  1  0  0  0  0
 38 37  2  0  0  0  0
M  END
>  <minimizedAffinity>
-5.96717405

$$$$

 OpenBabel03272510123D

 38 42  0  0  0  0  0  0  0  0999 V2000
   37.5660   26.5800   32.9110 O   0  0  0  0  0  0  0  0  0  0  0  0
   41.1160   25.1920   34.6950 C   0  0  0  0  0  0  0  0  0  0  0  0
   40.8050   26.5080   34.7000 C   0  0  0  0  0  0  0  0  0  0  0  0
   39.6720   27.0470   34.1440 C   0  0  0  0  0  0  0  0  0  0  0  0
   38.7610   26.2320   33.5280 C   0  0  0  0  0  0  0  0  0  0  0  0
   39.0790   24.8650   33.5190 C   0  0  0  0  0  0  0  0  0  0  0  0
   40.2120   24.3840   34.0840 N   0  0  0  0  0  0  0  0  0  0  0  0
   41.4600   27.2350   35.1620 H   0  0  0  0  0  0  0  0  0  0  0  0
   39.4120   28.0970   34.1410 H   0  0  0  0  0  0  0  0  0  0  0  0
   38.4760   24.0610   33.0760 H   0  0  0  0  0  0  0  0  0  0  0  0
   42.3710   23.4520   36.0200 C   0  0  0  0  0  0  0  0  0  0  0  0
   42.3140   24.6460   35.2870 C   0  0  0  0  0  0  0  0  0  0  0  0
   43.5120   25.3300   35.1360 C   0  0  0  0  0  0  0  0  0  0  0  0
   44.6520   24.8240   35.6910 N   0  0  0  0  0  0  0  0  0  0  0  0
   44.6390   23.6720   36.3840 C   0  0  0  0  0  0  0  0  0  0  0  0
   43.5020   22.9880   36.5470 N   0  0  0  0  0  0  0  0  0  0  0  0
   41.4550   22.9090   36.1470 H   0  0  0  0  0  0  0  0  0  0  0  0
   43.5740   26.2610   34.5890 H   0  0  0  0  0  0  0  0  0  0  0  0
   45.6290   23.4160   36.7550 H   0  0  0  0  0  0  0  0  0  0  0  0
   36.8710   27.7260   33.2310 C   0  0  0  0  0  0  0  0  0  0  0  0
   36.4600   28.5000   32.1450 C   0  0  0  0  0  0  0  0  0  0  0  0
   35.7830   29.6020   32.6610 C   0  0  0  0  0  0  0  0  0  0  0  0
   35.8050   29.4630   34.0080 N   0  0  0  0  0  0  0  0  0  0  0  0
   36.4430   28.3650   34.3330 N   0  0  0  0  0  0  0  0  0  0  0  0
   36.5580   28.4160   31.0650 H   0  0  0  0  0  0  0  0  0  0  0  0
   35.3130   30.4350   32.1170 H   0  0  0  0  0  0  0  0  0  0  0  0
   35.9060   31.2350   35.7560 C   0  0  0  0  0  3  0  0  0  0  0  0
   35.2070   30.4050   34.8920 C   0  0  0  0  0  0  0  0  0  0  0  0
   33.8170   30.4280   34.8200 C   0  0  0  0  0  0  0  0  0  0  0  0
   33.2270   29.8080   34.1710 H   0  0  0  0  0  0  0  0  0  0  0  0
   33.1170   31.3100   35.6400 C   0  0  0  0  0  0  0  0  0  0  0  0
   31.8040   31.6130   35.8480 N   0  0  0  0  0  0  0  0  0  0  0  0
   31.0660   31.1050   35.2980 H   0  0  0  0  0  0  0  0  0  0  0  0
   31.7070   32.5740   36.7860 C   0  0  0  0  0  0  0  0  0  0  0  0
   30.7600   32.9870   37.1270 H   0  0  0  0  0  0  0  0  0  0  0  0
   32.9560   32.9460   37.2360 C   0  0  0  0  0  3  0  0  0  0  0  0
   33.8250   32.1340   36.4970 C   0  0  0  0  0  0  0  0  0  0  0  0
   35.2190   32.1130   36.5710 C   0  0  0  0  0  3  0  0  0  0  0  0
  1 20  1  0  0  0  0
  1  5  1  0  0  0  0
  2  3  1  0  0  0  0
  2 12  1  0  0  0  0
  3  8  1  0  0  0  0
  4  3  2  0  0  0  0
  5  4  1  0  0  0  0
  6  5  2  0  0  0  0
  6  7  1  0  0  0  0
  7  2  2  0  0  0  0
  9  4  1  0  0  0  0
 10  6  1  0  0  0  0
 11 17  1  0  0  0  0
 11 16  1  0  0  0  0
 12 11  2  0  0  0  0
 13 12  1  0  0  0  0
 13 14  2  0  0  0  0
 14 15  1  0  0  0  0
 15 16  2  0  0  0  0
 15 19  1  0  0  0  0
 18 13  1  0  0  0  0
 20 24  2  0  0  0  0
 21 22  2  0  0  0  0
 21 20  1  0  0  0  0
 22 23  1  0  0  0  0
 23 24  1  0  0  0  0
 23 28  1  0  0  0  0
 25 21  1  0  0  0  0
 26 22  1  0  0  0  0
 27 38  1  0  0  0  0
 28 27  2  0  0  0  0
 29 28  1  0  0  0  0
 29 31  2  0  0  0  0
 30 29  1  0  0  0  0
 31 32  1  0  0  0  0
 31 37  1  0  0  0  0
 32 34  1  0  0  0  0
 33 32  1  0  0  0  0
 34 35  1  0  0  0  0
 34 36  2  0  0  0  0
 37 38  2  0  0  0  0
 37 36  1  0  0  0  0
M  END
>  <minimizedAffinity>
-5.92496204

$$$$

 OpenBabel03272510123D

 38 42  0  0  0  0  0  0  0  0999 V2000
   36.3000   27.5690   32.9870 O   0  0  0  0  0  0  0  0  0  0  0  0
   37.7460   29.3650   29.4680 C   0  0  0  0  0  0  0  0  0  0  0  0
   38.3820   28.3070   30.0190 C   0  0  0  0  0  0  0  0  0  0  0  0
   37.9820   27.6610   31.1610 C   0  0  0  0  0  0  0  0  0  0  0  0
   36.8630   28.0830   31.8270 C   0  0  0  0  0  0  0  0  0  0  0  0
   36.1990   29.1820   31.2590 C   0  0  0  0  0  0  0  0  0  0  0  0
   36.6370   29.7840   30.1280 N   0  0  0  0  0  0  0  0  0  0  0  0
   39.2770   27.8970   29.5700 H   0  0  0  0  0  0  0  0  0  0  0  0
   38.4820   26.8140   31.6130 H   0  0  0  0  0  0  0  0  0  0  0  0
   35.2890   29.6610   31.6450 H   0  0  0  0  0  0  0  0  0  0  0  0
   39.3010   29.6490   27.5020 C   0  0  0  0  0  0  0  0  0  0  0  0
   38.1860   30.0300   28.2640 C   0  0  0  0  0  0  0  0  0  0  0  0
   37.4750   31.1270   27.8020 C   0  0  0  0  0  0  0  0  0  0  0  0
   37.8800   31.7640   26.6640 N   0  0  0  0  0  0  0  0  0  0  0  0
   38.9610   31.3480   25.9790 C   0  0  0  0  0  0  0  0  0  0  0  0
   39.6680   30.2930   26.3970 N   0  0  0  0  0  0  0  0  0  0  0  0
   39.8640   28.8020   27.8430 H   0  0  0  0  0  0  0  0  0  0  0  0
   36.6010   31.5010   28.3170 H   0  0  0  0  0  0  0  0  0  0  0  0
   39.1410   31.9660   25.1020 H   0  0  0  0  0  0  0  0  0  0  0  0
   37.0520   26.9830   33.9820 C   0  0  0  0  0  0  0  0  0  0  0  0
   37.4830   27.8430   34.9930 C   0  0  0  0  0  0  0  0  0  0  0  0
   38.2190   27.0780   35.8950 C   0  0  0  0  0  0  0  0  0  0  0  0
   38.2100   25.8120   35.4130 N   0  0  0  0  0  0  0  0  0  0  0  0
   37.5270   25.7650   34.2950 N   0  0  0  0  0  0  0  0  0  0  0  0
   37.3640   28.9050   35.1960 H   0  0  0  0  0  0  0  0  0  0  0  0
   38.7190   27.4010   36.8200 H   0  0  0  0  0  0  0  0  0  0  0  0
   38.4420   24.1540   37.2570 C   0  0  0  0  0  3  0  0  0  0  0  0
   38.8650   24.7320   36.0680 C   0  0  0  0  0  0  0  0  0  0  0  0
   40.0020   24.2850   35.4010 C   0  0  0  0  0  0  0  0  0  0  0  0
   40.3730   24.6960   34.4810 H   0  0  0  0  0  0  0  0  0  0  0  0
   40.7290   23.2310   35.9470 C   0  0  0  0  0  0  0  0  0  0  0  0
   41.8530   22.5400   35.6020 N   0  0  0  0  0  0  0  0  0  0  0  0
   42.3650   22.8000   34.7200 H   0  0  0  0  0  0  0  0  0  0  0  0
   42.1030   21.5940   36.5270 C   0  0  0  0  0  0  0  0  0  0  0  0
   42.9490   20.9110   36.4750 H   0  0  0  0  0  0  0  0  0  0  0  0
   41.1500   21.6220   37.5230 C   0  0  0  0  0  3  0  0  0  0  0  0
   40.2980   22.6610   37.1330 C   0  0  0  0  0  0  0  0  0  0  0  0
   39.1580   23.1070   37.8030 C   0  0  0  0  0  3  0  0  0  0  0  0
  1 20  1  0  0  0  0
  2  3  2  0  0  0  0
  2  7  1  0  0  0  0
  3  4  1  0  0  0  0
  4  9  1  0  0  0  0
  4  5  2  0  0  0  0
  5  1  1  0  0  0  0
  6 10  1  0  0  0  0
  6  5  1  0  0  0  0
  7  6  2  0  0  0  0
  8  3  1  0  0  0  0
 11 17  1  0  0  0  0
 11 12  1  0  0  0  0
 12  2  1  0  0  0  0
 13 12  2  0  0  0  0
 13 18  1  0  0  0  0
 14 13  1  0  0  0  0
 15 16  1  0  0  0  0
 15 14  2  0  0  0  0
 16 11  2  0  0  0  0
 19 15  1  0  0  0  0
 20 24  2  0  0  0  0
 20 21  1  0  0  0  0
 21 25  1  0  0  0  0
 21 22  2  0  0  0  0
 22 26  1  0  0  0  0
 23 22  1  0  0  0  0
 23 28  1  0  0  0  0
 24 23  1  0  0  0  0
 27 38  1  0  0  0  0
 28 27  2  0  0  0  0
 29 31  2  0  0  0  0
 29 28  1  0  0  0  0
 30 29  1  0  0  0  0
 31 37  1  0  0  0  0
 32 31  1  0  0  0  0
 32 34  1  0  0  0  0
 33 32  1  0  0  0  0
 34 36  2  0  0  0  0
 35 34  1  0  0  0  0
 37 36  1  0  0  0  0
 37 38  2  0  0  0  0
M  END
>  <minimizedAffinity>
-5.89054441

$$$$

 OpenBabel03272510123D

 38 42  0  0  0  0  0  0  0  0999 V2000
   37.3710   26.5470   32.0020 O   0  0  0  0  0  0  0  0  0  0  0  0
   39.4000   23.9100   34.5790 C   0  0  0  0  0  0  0  0  0  0  0  0
   38.2530   23.5390   33.9680 C   0  0  0  0  0  0  0  0  0  0  0  0
   37.5270   24.3310   33.1150 C   0  0  0  0  0  0  0  0  0  0  0  0
   37.9570   25.5990   32.8310 C   0  0  0  0  0  0  0  0  0  0  0  0
   39.1480   25.9910   33.4630 C   0  0  0  0  0  0  0  0  0  0  0  0
   39.8260   25.1680   34.2970 N   0  0  0  0  0  0  0  0  0  0  0  0
   37.8280   22.5550   34.1270 H   0  0  0  0  0  0  0  0  0  0  0  0
   36.6080   24.0460   32.6200 H   0  0  0  0  0  0  0  0  0  0  0  0
   39.6470   26.9630   33.3610 H   0  0  0  0  0  0  0  0  0  0  0  0
   41.1530   22.1670   35.0750 C   0  0  0  0  0  0  0  0  0  0  0  0
   40.1470   23.0590   35.4740 C   0  0  0  0  0  0  0  0  0  0  0  0
   39.8730   23.1040   36.8330 C   0  0  0  0  0  0  0  0  0  0  0  0
   40.5730   22.3040   37.6890 N   0  0  0  0  0  0  0  0  0  0  0  0
   41.5270   21.4690   37.2410 C   0  0  0  0  0  0  0  0  0  0  0  0
   41.8170   21.4010   35.9380 N   0  0  0  0  0  0  0  0  0  0  0  0
   41.3800   22.1180   34.0270 H   0  0  0  0  0  0  0  0  0  0  0  0
   39.1150   23.7570   37.2420 H   0  0  0  0  0  0  0  0  0  0  0  0
   41.9830   20.9080   38.0550 H   0  0  0  0  0  0  0  0  0  0  0  0
   36.7450   27.6740   32.4890 C   0  0  0  0  0  0  0  0  0  0  0  0
   36.4190   28.6380   31.5330 C   0  0  0  0  0  0  0  0  0  0  0  0
   35.8030   29.6890   32.2070 C   0  0  0  0  0  0  0  0  0  0  0  0
   35.7760   29.3370   33.5150 N   0  0  0  0  0  0  0  0  0  0  0  0
   36.3280   28.1580   33.6710 N   0  0  0  0  0  0  0  0  0  0  0  0
   36.5440   28.7200   30.4560 H   0  0  0  0  0  0  0  0  0  0  0  0
   35.4060   30.6290   31.7950 H   0  0  0  0  0  0  0  0  0  0  0  0
   35.9500   30.9470   35.4070 C   0  0  0  0  0  3  0  0  0  0  0  0
   35.2150   30.1660   34.5270 C   0  0  0  0  0  0  0  0  0  0  0  0
   33.8240   30.1290   34.5680 C   0  0  0  0  0  0  0  0  0  0  0  0
   33.2080   29.5420   33.9130 H   0  0  0  0  0  0  0  0  0  0  0  0
   33.1610   30.9000   35.5180 C   0  0  0  0  0  0  0  0  0  0  0  0
   31.8580   31.1210   35.8570 N   0  0  0  0  0  0  0  0  0  0  0  0
   31.0980   30.6290   35.3220 H   0  0  0  0  0  0  0  0  0  0  0  0
   31.8010   31.9880   36.8850 C   0  0  0  0  0  0  0  0  0  0  0  0
   30.8700   32.3230   37.3380 H   0  0  0  0  0  0  0  0  0  0  0  0
   33.0670   32.3770   37.2670 C   0  0  0  0  0  3  0  0  0  0  0  0
   33.9040   31.6760   36.3910 C   0  0  0  0  0  0  0  0  0  0  0  0
   35.2980   31.7150   36.3520 C   0  0  0  0  0  3  0  0  0  0  0  0
  1 20  1  0  0  0  0
  1  5  1  0  0  0  0
  2 12  1  0  0  0  0
  3  8  1  0  0  0  0
  3  2  2  0  0  0  0
  4  3  1  0  0  0  0
  5  4  2  0  0  0  0
  5  6  1  0  0  0  0
  6  7  2  0  0  0  0
  7  2  1  0  0  0  0
  9  4  1  0  0  0  0
 10  6  1  0  0  0  0
 11 12  2  0  0  0  0
 11 16  1  0  0  0  0
 12 13  1  0  0  0  0
 13 18  1  0  0  0  0
 13 14  2  0  0  0  0
 15 14  1  0  0  0  0
 15 19  1  0  0  0  0
 16 15  2  0  0  0  0
 17 11  1  0  0  0  0
 20 24  2  0  0  0  0
 21 22  2  0  0  0  0
 21 20  1  0  0  0  0
 22 23  1  0  0  0  0
 23 24  1  0  0  0  0
 23 28  1  0  0  0  0
 25 21  1  0  0  0  0
 26 22  1  0  0  0  0
 27 38  1  0  0  0  0
 28 29  1  0  0  0  0
 28 27  2  0  0  0  0
 29 31  2  0  0  0  0
 30 29  1  0  0  0  0
 31 32  1  0  0  0  0
 31 37  1  0  0  0  0
 32 34  1  0  0  0  0
 33 32  1  0  0  0  0
 34 36  2  0  0  0  0
 34 35  1  0  0  0  0
 37 36  1  0  0  0  0
 38 37  2  0  0  0  0
M  END
>  <minimizedAffinity>
-5.89038801

$$$$
