
 OpenBabel03262521083D

 48 51  0  0  1  0  0  0  0  0999 V2000
   37.3500   31.5020   45.6240 C   0  0  2  0  0  0  0  0  0  0  0  0
   38.3930   31.0440   44.7160 C   0  0  0  0  0  0  0  0  0  0  0  0
   39.6800   30.6420   45.4350 C   0  0  0  0  0  0  0  0  0  0  0  0
   40.2350   31.7380   46.2860 C   0  0  0  0  0  0  0  0  0  0  0  0
   39.1810   32.5880   46.9570 C   0  0  0  0  0  0  0  0  0  0  0  0
   37.8380   31.8620   47.0020 C   0  0  2  0  0  0  0  0  0  0  0  0
   36.9050   32.4490   45.1920 H   0  0  0  0  0  0  0  0  0  0  0  0
   38.7370   31.8750   44.0200 H   0  0  0  0  0  0  0  0  0  0  0  0
   38.1960   30.2050   44.0350 H   0  0  0  0  0  0  0  0  0  0  0  0
   40.4210   30.4860   44.6150 H   0  0  0  0  0  0  0  0  0  0  0  0
   39.6110   29.6650   45.9340 H   0  0  0  0  0  0  0  0  0  0  0  0
   40.8310   31.2550   47.1150 H   0  0  0  0  0  0  0  0  0  0  0  0
   40.9520   32.4070   45.7630 H   0  0  0  0  0  0  0  0  0  0  0  0
   39.4310   32.8750   47.9930 H   0  0  0  0  0  0  0  0  0  0  0  0
   39.0150   33.5040   46.3500 H   0  0  0  0  0  0  0  0  0  0  0  0
   37.1220   32.6170   47.4100 H   0  0  0  0  0  0  0  0  0  0  0  0
   36.2090   30.5970   45.7900 C   0  0  0  0  0  0  0  0  0  0  0  0
   35.9020   29.8400   44.6540 C   0  0  0  0  0  0  0  0  0  0  0  0
   34.8390   28.9580   44.7620 C   0  0  0  0  0  0  0  0  0  0  0  0
   34.1550   28.8670   45.9410 N   0  0  0  0  0  0  0  0  0  0  0  0
   34.4830   29.6150   47.0090 C   0  0  0  0  0  0  0  0  0  0  0  0
   35.4840   30.4380   46.8910 N   0  0  0  0  0  0  0  0  0  0  0  0
   36.2820   29.7590   43.6590 H   0  0  0  0  0  0  0  0  0  0  0  0
   34.4310   28.2920   44.0450 H   0  0  0  0  0  0  0  0  0  0  0  0
   33.9300   29.5350   47.9430 H   0  0  0  0  0  0  0  0  0  0  0  0
   37.9630   30.8610   47.9610 N   0  0  0  0  0  0  0  0  0  0  0  0
   38.8150   30.2900   47.9710 H   0  0  0  0  0  0  0  0  0  0  0  0
   37.5380   31.2320   49.5610 S   0  0  1  0  0  0  0  0  0  0  0  0
   38.7350   30.7720   50.4000 O   0  0  0  0  0  0  0  0  0  0  0  0
   38.6910   30.1040   51.1310 H   0  0  0  0  0  0  0  0  0  0  0  0
   37.3090   32.6580   49.7860 O   0  0  0  0  0  0  0  0  0  0  0  0
   35.6590   34.1440   49.4010 C   0  0  0  0  0  3  0  0  0  0  0  0
   36.5780   33.6540   50.3410 C   0  0  0  0  0  0  0  0  0  0  0  0
   36.5280   34.2720   51.5690 C   0  0  0  0  0  0  0  0  0  0  0  0
   37.2780   33.8220   52.2280 H   0  0  0  0  0  0  0  0  0  0  0  0
   35.6640   35.2840   51.8760 C   0  0  0  0  0  0  0  0  0  0  0  0
   35.5260   35.9550   53.0260 N   0  0  0  0  0  0  0  0  0  0  0  0
   36.0580   35.8290   53.9110 H   0  0  0  0  0  0  0  0  0  0  0  0
   34.5400   36.8620   52.8430 C   0  0  0  0  0  0  0  0  0  0  0  0
   34.1370   37.5930   53.5460 H   0  0  0  0  0  0  0  0  0  0  0  0
   34.0580   36.7580   51.5680 C   0  0  0  0  0  3  0  0  0  0  0  0
   34.7600   35.7570   50.9310 C   0  0  0  0  0  0  0  0  0  0  0  0
   34.7660   35.1720   49.6790 C   0  0  0  0  0  3  0  0  0  0  0  0
   36.2380   30.3190   50.1040 O   0  0  0  0  0  0  0  0  0  0  0  0
   36.5450   29.5750   51.2310 C   0  0  0  0  0  0  0  0  0  0  0  0
   37.4580   28.6030   50.9040 F   0  0  0  0  0  0  0  0  0  0  0  0
   37.1710   30.4110   52.1140 F   0  0  0  0  0  0  0  0  0  0  0  0
   35.4290   29.0680   51.8860 F   0  0  0  0  0  0  0  0  0  0  0  0
  1  7  1  6  0  0  0
  1 17  1  0  0  0  0
  1  6  1  0  0  0  0
  2  3  1  0  0  0  0
  2  1  1  0  0  0  0
  3 11  1  0  0  0  0
  3  4  1  0  0  0  0
  4  5  1  0  0  0  0
  4 12  1  0  0  0  0
  5  6  1  0  0  0  0
  5 14  1  0  0  0  0
  6 16  1  1  0  0  0
  6 26  1  0  0  0  0
  8  2  1  0  0  0  0
  9  2  1  0  0  0  0
 10  3  1  0  0  0  0
 13  4  1  0  0  0  0
 15  5  1  0  0  0  0
 17 22  1  0  0  0  0
 18 19  1  0  0  0  0
 18 17  2  0  0  0  0
 19 20  2  0  0  0  0
 20 21  1  0  0  0  0
 21 25  1  0  0  0  0
 22 21  2  0  0  0  0
 23 18  1  0  0  0  0
 24 19  1  0  0  0  0
 26 27  1  0  0  0  0
 26 28  1  0  0  0  0
 28 31  1  1  0  0  0
 28 44  1  0  0  0  0
 28 29  1  0  0  0  0
 29 30  1  0  0  0  0
 31 33  1  0  0  0  0
 32 43  2  0  0  0  0
 32 33  1  0  0  0  0
 33 34  2  0  0  0  0
 34 36  1  0  0  0  0
 34 35  1  0  0  0  0
 36 37  1  0  0  0  0
 37 38  1  0  0  0  0
 39 37  1  0  0  0  0
 39 40  1  0  0  0  0
 41 39  2  0  0  0  0
 42 41  1  0  0  0  0
 42 36  2  0  0  0  0
 43 42  1  0  0  0  0
 44 45  1  0  0  0  0
 45 48  1  0  0  0  0
 45 47  1  0  0  0  0
 46 45  1  0  0  0  0
M  END
>  <minimizedAffinity>
5.40988302

>  <minimizedRMSD>
0.759858131

$$$$
