
 OpenBabel03272502583D

 37 40  0  0  1  0  0  0  0  0999 V2000
   35.8910   29.6650   48.8740 N   0  0  0  0  0  0  0  0  0  0  0  0
   36.6600   28.8380   49.7810 C   0  0  0  0  0  0  0  0  0  0  0  0
   37.1570   29.4560   51.0020 C   0  0  0  0  0  0  0  0  0  0  0  0
   37.3570   30.9130   51.0390 C   0  0  0  0  0  0  0  0  0  0  0  0
   36.5680   31.6710   50.0130 C   0  0  0  0  0  0  0  0  0  0  0  0
   36.5950   30.9260   48.6740 C   0  0  1  0  0  0  0  0  0  0  0  0
   35.9780   27.9730   50.0300 H   0  0  0  0  0  0  0  0  0  0  0  0
   37.4870   28.3530   49.2130 H   0  0  0  0  0  0  0  0  0  0  0  0
   36.4870   29.1810   51.8670 H   0  0  0  0  0  0  0  0  0  0  0  0
   38.1400   28.9820   51.2930 H   0  0  0  0  0  0  0  0  0  0  0  0
   38.4450   31.1830   50.9130 H   0  0  0  0  0  0  0  0  0  0  0  0
   37.0840   31.3540   52.0280 H   0  0  0  0  0  0  0  0  0  0  0  0
   36.9590   32.6990   49.9040 H   0  0  0  0  0  0  0  0  0  0  0  0
   35.5230   31.7300   50.3390 H   0  0  0  0  0  0  0  0  0  0  0  0
   36.0900   31.5770   47.9640 H   0  0  0  0  0  0  0  0  0  0  0  0
   34.6520   29.2950   48.2800 C   0  0  0  0  0  0  0  0  0  0  0  0
   34.1430   29.8500   47.1090 C   0  0  0  0  0  0  0  0  0  0  0  0
   32.9210   29.3970   46.6310 C   0  0  0  0  0  0  0  0  0  0  0  0
   32.2770   28.4310   47.3290 N   0  0  0  0  0  0  0  0  0  0  0  0
   32.8020   27.9180   48.4590 C   0  0  0  0  0  0  0  0  0  0  0  0
   33.9860   28.3530   48.9280 N   0  0  0  0  0  0  0  0  0  0  0  0
   34.7070   30.6010   46.6210 H   0  0  0  0  0  0  0  0  0  0  0  0
   32.5900   29.8710   45.7210 H   0  0  0  0  0  0  0  0  0  0  0  0
   32.2480   27.1380   48.9930 H   0  0  0  0  0  0  0  0  0  0  0  0
   37.9430   30.7120   48.4180 O   0  0  0  0  0  0  0  0  0  0  0  0
   39.1050   32.3160   47.3400 C   0  0  0  0  0  3  0  0  0  0  0  0
   38.4970   31.0720   47.2090 C   0  0  0  0  0  0  0  0  0  0  0  0
   38.5490   30.4610   45.9900 C   0  0  0  0  0  0  0  0  0  0  0  0
   38.0680   29.5170   45.9580 H   0  0  0  0  0  0  0  0  0  0  0  0
   39.1840   31.0630   44.9260 C   0  0  0  0  0  0  0  0  0  0  0  0
   39.3100   30.5720   43.6690 N   0  0  0  0  0  0  0  0  0  0  0  0
   38.9590   29.6710   43.2820 H   0  0  0  0  0  0  0  0  0  0  0  0
   40.0070   31.4770   42.9260 C   0  0  0  0  0  0  0  0  0  0  0  0
   40.2880   31.4070   41.8750 H   0  0  0  0  0  0  0  0  0  0  0  0
   40.3110   32.5520   43.7630 C   0  0  0  0  0  3  0  0  0  0  0  0
   39.8040   32.3110   45.0250 C   0  0  0  0  0  0  0  0  0  0  0  0
   39.7500   32.9270   46.2590 C   0  0  0  0  0  3  0  0  0  0  0  0
  1  2  1  0  0  0  0
  2  7  1  0  0  0  0
  2  3  1  0  0  0  0
  3  4  1  0  0  0  0
  3 10  1  0  0  0  0
  3  9  1  0  0  0  0
  4 12  1  0  0  0  0
  5 14  1  0  0  0  0
  5  4  1  0  0  0  0
  6 15  1  6  0  0  0
  6  1  1  0  0  0  0
  6  5  1  0  0  0  0
  8  2  1  0  0  0  0
 11  4  1  0  0  0  0
 13  5  1  0  0  0  0
 16  1  1  0  0  0  0
 16 21  1  0  0  0  0
 17 16  2  0  0  0  0
 18 17  1  0  0  0  0
 18 19  2  0  0  0  0
 19 20  1  0  0  0  0
 20 21  2  0  0  0  0
 20 24  1  0  0  0  0
 22 17  1  0  0  0  0
 23 18  1  0  0  0  0
 25  6  1  0  0  0  0
 27 26  1  0  0  0  0
 27 25  1  0  0  0  0
 28 27  2  0  0  0  0
 29 28  1  0  0  0  0
 30 36  2  0  0  0  0
 30 28  1  0  0  0  0
 31 30  1  0  0  0  0
 32 31  1  0  0  0  0
 33 31  1  0  0  0  0
 33 35  2  0  0  0  0
 34 33  1  0  0  0  0
 35 36  1  0  0  0  0
 36 37  1  0  0  0  0
 37 26  2  0  0  0  0
M  END
>  <minimizedAffinity>
-6.36832857

>  <minimizedRMSD>
0.647645772

$$$$
