
 OpenBabel03272510163D

 31 34  0  0  0  0  0  0  0  0999 V2000
   37.3220   29.3390   51.0330 Br  0  0  0  0  0  0  0  0  0  0  0  0
   35.9670   29.3410   49.6720 C   0  0  0  0  0  0  0  0  0  0  0  0
   35.9980   30.2620   48.6490 C   0  0  0  0  0  0  0  0  0  0  0  0
   34.9880   30.1990   47.7070 C   0  0  0  0  0  0  0  0  0  0  0  0
   33.9660   29.2660   47.7500 C   0  0  0  0  0  0  0  0  0  0  0  0
   33.9720   28.3680   48.7810 C   0  0  0  0  0  0  0  0  0  0  0  0
   34.9710   28.4110   49.7360 C   0  0  0  0  0  0  0  0  0  0  0  0
   34.9720   30.9010   46.8870 H   0  0  0  0  0  0  0  0  0  0  0  0
   33.2040   27.6260   48.8590 H   0  0  0  0  0  0  0  0  0  0  0  0
   34.9270   27.6800   50.5300 H   0  0  0  0  0  0  0  0  0  0  0  0
   32.2670   28.0940   46.3360 C   0  0  0  0  0  0  0  0  0  0  0  0
   32.9300   29.2300   46.7520 C   0  0  0  0  0  0  0  0  0  0  0  0
   32.5220   30.3890   46.1250 C   0  0  0  0  0  0  0  0  0  0  0  0
   33.0260   31.3110   46.4280 H   0  0  0  0  0  0  0  0  0  0  0  0
   31.5480   30.5030   45.1570 C   0  0  0  0  0  0  0  0  0  0  0  0
   31.0550   31.5450   44.4690 N   0  0  0  0  0  0  0  0  0  0  0  0
   31.3880   32.5280   44.5970 H   0  0  0  0  0  0  0  0  0  0  0  0
   30.0990   31.0230   43.6470 C   0  0  0  0  0  0  0  0  0  0  0  0
   29.5800   31.7280   43.0020 H   0  0  0  0  0  0  0  0  0  0  0  0
   30.0100   29.6610   43.8340 C   0  0  0  0  0  0  0  0  0  0  0  0
   30.9290   29.3000   44.7970 C   0  0  0  0  0  0  0  0  0  0  0  0
   31.2780   28.1010   45.3760 C   0  0  0  0  0  0  0  0  0  0  0  0
   37.9990   33.2010   49.4600 C   0  0  0  0  0  0  0  0  0  0  0  0
   39.0200   33.1910   48.4850 C   0  0  0  0  0  0  0  0  0  0  0  0
   39.0050   32.1630   47.5550 C   0  0  0  0  0  0  0  0  0  0  0  0
   38.0210   31.2160   47.6130 N   0  0  0  0  0  0  0  0  0  0  0  0
   37.0550   31.2600   48.5680 C   0  0  0  0  0  0  0  0  0  0  0  0
   37.0530   32.2620   49.4900 N   0  0  0  0  0  0  0  0  0  0  0  0
   37.9620   33.9890   50.2210 H   0  0  0  0  0  0  0  0  0  0  0  0
   39.7780   33.9630   48.4790 H   0  0  0  0  0  0  0  0  0  0  0  0
   39.7600   32.1020   46.7840 H   0  0  0  0  0  0  0  0  0  0  0  0
  2  7  1  0  0  0  0
  2  1  1  0  0  0  0
  3  2  2  0  0  0  0
  4  5  2  0  0  0  0
  4  3  1  0  0  0  0
  5  6  1  0  0  0  0
  6  9  1  0  0  0  0
  6  7  2  0  0  0  0
  7 10  1  0  0  0  0
  8  4  1  0  0  0  0
 11 12  1  0  0  0  0
 12  5  1  0  0  0  0
 13 14  1  0  0  0  0
 13 12  2  0  0  0  0
 15 13  1  0  0  0  0
 16 17  1  0  0  0  0
 16 15  1  0  0  0  0
 18 20  2  0  0  0  0
 18 16  1  0  0  0  0
 19 18  1  0  0  0  0
 20 21  1  0  0  0  0
 21 15  2  0  0  0  0
 21 22  1  0  0  0  0
 22 11  2  0  0  0  0
 23 28  1  0  0  0  0
 23 29  1  0  0  0  0
 24 23  2  0  0  0  0
 25 26  2  0  0  0  0
 25 24  1  0  0  0  0
 26 27  1  0  0  0  0
 27  3  1  0  0  0  0
 27 28  2  0  0  0  0
 30 24  1  0  0  0  0
 31 25  1  0  0  0  0
M  END
>  <minimizedAffinity>
-6.22137547

>  <minimizedRMSD>
0.177171975

$$$$
