
 OpenBabel03262522153D

 48 52  0  0  1  0  0  0  0  0999 V2000
   39.3370   32.9620   43.8010 C   0  0  0  0  0  0  0  0  0  0  0  0
   38.3070   32.7370   44.0870 H   0  0  0  0  0  0  0  0  0  0  0  0
   39.3460   33.7850   43.0380 H   0  0  0  0  0  0  0  0  0  0  0  0
   39.3500   29.6280   42.6100 C   0  0  1  0  0  0  0  0  0  0  0  0
   39.1260   31.0740   42.1930 C   0  0  0  0  0  0  0  0  0  0  0  0
   40.0400   31.7900   43.1630 C   0  0  2  0  0  0  0  0  0  0  0  0
   40.4870   30.8890   44.0870 O   0  0  0  0  0  0  0  0  0  0  0  0
   39.6180   29.8070   44.0960 C   0  0  0  0  0  0  0  0  0  0  0  0
   40.2920   29.2460   42.1670 H   0  0  0  0  0  0  0  0  0  0  0  0
   39.5080   31.1690   41.1550 H   0  0  0  0  0  0  0  0  0  0  0  0
   38.0780   31.3420   42.3270 H   0  0  0  0  0  0  0  0  0  0  0  0
   40.9280   32.1570   42.6020 H   0  0  0  0  0  0  0  0  0  0  0  0
   40.0610   28.9290   44.5660 H   0  0  0  0  0  0  0  0  0  0  0  0
   38.6480   30.0830   44.5490 H   0  0  0  0  0  0  0  0  0  0  0  0
   38.2310   28.8510   42.3880 O   0  0  0  0  0  0  0  0  0  0  0  0
   39.1590   26.7900   43.0090 C   0  0  0  0  0  3  0  0  0  0  0  0
   38.0340   27.5480   42.7290 C   0  0  0  0  0  0  0  0  0  0  0  0
   36.8000   26.9330   42.8150 C   0  0  0  0  0  0  0  0  0  0  0  0
   35.9190   27.4970   42.6040 H   0  0  0  0  0  0  0  0  0  0  0  0
   36.5940   25.6050   43.1620 C   0  0  0  0  0  0  0  0  0  0  0  0
   35.4930   24.8480   43.2950 N   0  0  0  0  0  0  0  0  0  0  0  0
   34.4980   25.1370   43.1520 H   0  0  0  0  0  0  0  0  0  0  0  0
   35.9060   23.6010   43.6620 C   0  0  0  0  0  0  0  0  0  0  0  0
   35.2630   22.7450   43.8520 H   0  0  0  0  0  0  0  0  0  0  0  0
   37.2940   23.6010   43.7530 C   0  0  0  0  0  3  0  0  0  0  0  0
   37.7460   24.8670   43.4390 C   0  0  0  0  0  0  0  0  0  0  0  0
   38.9840   25.4500   43.3610 C   0  0  0  0  0  3  0  0  0  0  0  0
   40.3770   33.5430   45.1750 S   0  0  0  0  0  0  0  0  0  0  0  0
   37.7930   31.8590   47.6760 C   0  0  0  0  0  0  0  0  0  0  0  0
   38.0170   32.5130   48.9010 C   0  0  0  0  0  0  0  0  0  0  0  0
   38.9820   33.5030   48.9990 C   0  0  0  0  0  0  0  0  0  0  0  0
   39.6780   33.7930   47.8590 C   0  0  0  0  0  0  0  0  0  0  0  0
   39.4400   33.1450   46.6880 C   0  0  0  0  0  0  0  0  0  0  0  0
   38.5030   32.1740   46.5680 N   0  0  0  0  0  0  0  0  0  0  0  0
   37.4420   32.2510   49.7800 H   0  0  0  0  0  0  0  0  0  0  0  0
   39.2070   34.0440   49.9010 H   0  0  0  0  0  0  0  0  0  0  0  0
   40.4590   34.5580   47.8300 H   0  0  0  0  0  0  0  0  0  0  0  0
   36.7750   30.8430   47.6520 C   0  0  0  0  0  0  0  0  0  0  0  0
   36.3450   30.3970   46.5910 O   0  0  0  0  0  0  0  0  0  0  0  0
   37.0640   29.6240   49.7810 C   0  0  0  0  0  0  0  0  0  0  0  0
   36.1900   30.2750   48.8780 C   0  0  0  0  0  0  0  0  0  0  0  0
   34.8310   30.3500   49.1810 C   0  0  0  0  0  0  0  0  0  0  0  0
   34.3860   29.7890   50.3460 N   0  0  0  0  0  0  0  0  0  0  0  0
   35.2420   29.1730   51.1920 C   0  0  0  0  0  0  0  0  0  0  0  0
   36.5540   29.0920   50.9140 N   0  0  0  0  0  0  0  0  0  0  0  0
   38.1220   29.5280   49.6110 H   0  0  0  0  0  0  0  0  0  0  0  0
   34.1900   30.8530   48.4740 H   0  0  0  0  0  0  0  0  0  0  0  0
   34.7690   28.7670   52.0850 H   0  0  0  0  0  0  0  0  0  0  0  0
  1  2  1  0  0  0  0
  1 28  1  0  0  0  0
  3  1  1  0  0  0  0
  4  9  1  6  0  0  0
  4  8  1  0  0  0  0
  5 11  1  0  0  0  0
  5  4  1  0  0  0  0
  5  6  1  0  0  0  0
  6 12  1  6  0  0  0
  6  1  1  0  0  0  0
  6  7  1  0  0  0  0
  7  8  1  0  0  0  0
  8 14  1  0  0  0  0
  8 13  1  0  0  0  0
 10  5  1  0  0  0  0
 15  4  1  0  0  0  0
 15 17  1  0  0  0  0
 16 27  1  0  0  0  0
 17 18  1  0  0  0  0
 17 16  2  0  0  0  0
 18 20  2  0  0  0  0
 19 18  1  0  0  0  0
 20 21  1  0  0  0  0
 20 26  1  0  0  0  0
 21 23  1  0  0  0  0
 22 21  1  0  0  0  0
 23 25  2  0  0  0  0
 23 24  1  0  0  0  0
 26 25  1  0  0  0  0
 27 26  2  0  0  0  0
 28 33  1  0  0  0  0
 29 30  1  0  0  0  0
 30 31  2  0  0  0  0
 30 35  1  0  0  0  0
 31 36  1  0  0  0  0
 32 31  1  0  0  0  0
 33 32  2  0  0  0  0
 34 33  1  0  0  0  0
 34 29  2  0  0  0  0
 37 32  1  0  0  0  0
 38 29  1  0  0  0  0
 38 41  1  0  0  0  0
 39 38  2  0  0  0  0
 40 45  1  0  0  0  0
 41 42  1  0  0  0  0
 41 40  2  0  0  0  0
 42 43  2  0  0  0  0
 43 44  1  0  0  0  0
 44 48  1  0  0  0  0
 45 44  2  0  0  0  0
 46 40  1  0  0  0  0
 47 42  1  0  0  0  0
M  END
>  <minimizedAffinity>
-5.79605007

>  <minimizedRMSD>
1.88090765

$$$$
