
 OpenBabel03272510163D

 31 34  0  0  0  0  0  0  0  0999 V2000
   37.4040   29.4390   51.1510 Br  0  0  0  0  0  0  0  0  0  0  0  0
   36.0200   29.3940   49.8210 C   0  0  0  0  0  0  0  0  0  0  0  0
   36.0280   30.2810   48.7670 C   0  0  0  0  0  0  0  0  0  0  0  0
   34.9970   30.1860   47.8500 C   0  0  0  0  0  0  0  0  0  0  0  0
   33.9770   29.2540   47.9470 C   0  0  0  0  0  0  0  0  0  0  0  0
   34.0060   28.3920   49.0070 C   0  0  0  0  0  0  0  0  0  0  0  0
   35.0260   28.4670   49.9380 C   0  0  0  0  0  0  0  0  0  0  0  0
   34.9620   30.8600   47.0070 H   0  0  0  0  0  0  0  0  0  0  0  0
   33.2410   27.6530   49.1270 H   0  0  0  0  0  0  0  0  0  0  0  0
   35.0000   27.7630   50.7570 H   0  0  0  0  0  0  0  0  0  0  0  0
   32.7590   30.0470   45.9100 C   0  0  0  0  0  3  0  0  0  0  0  0
   32.9190   29.1840   46.9740 C   0  0  0  0  0  0  0  0  0  0  0  0
   31.9580   28.1970   47.0560 C   0  0  0  0  0  0  0  0  0  0  0  0
   32.0520   27.4920   47.8870 H   0  0  0  0  0  0  0  0  0  0  0  0
   30.8940   28.0100   46.2000 C   0  0  0  0  0  0  0  0  0  0  0  0
   29.8980   27.1100   46.1560 N   0  0  0  0  0  0  0  0  0  0  0  0
   29.7890   26.3410   46.8530 H   0  0  0  0  0  0  0  0  0  0  0  0
   29.1500   27.4450   45.0660 C   0  0  0  0  0  0  0  0  0  0  0  0
   28.2840   26.8200   44.8630 H   0  0  0  0  0  0  0  0  0  0  0  0
   29.6900   28.5500   44.4440 C   0  0  0  0  0  3  0  0  0  0  0  0
   30.8120   28.9330   45.1510 C   0  0  0  0  0  0  0  0  0  0  0  0
   31.7300   29.9470   44.9990 C   0  0  0  0  0  3  0  0  0  0  0  0
   38.0370   33.2510   49.4280 C   0  0  0  0  0  0  0  0  0  0  0  0
   39.0430   33.2030   48.4380 C   0  0  0  0  0  0  0  0  0  0  0  0
   39.0130   32.1390   47.5500 C   0  0  0  0  0  0  0  0  0  0  0  0
   38.0320   31.1940   47.6620 N   0  0  0  0  0  0  0  0  0  0  0  0
   37.0810   31.2750   48.6290 C   0  0  0  0  0  0  0  0  0  0  0  0
   37.0930   32.3120   49.5100 N   0  0  0  0  0  0  0  0  0  0  0  0
   38.0110   34.0680   50.1570 H   0  0  0  0  0  0  0  0  0  0  0  0
   39.7990   33.9740   48.3890 H   0  0  0  0  0  0  0  0  0  0  0  0
   39.7570   32.0480   46.7700 H   0  0  0  0  0  0  0  0  0  0  0  0
  2  7  1  0  0  0  0
  2  1  1  0  0  0  0
  3  2  2  0  0  0  0
  4  5  2  0  0  0  0
  4  3  1  0  0  0  0
  5  6  1  0  0  0  0
  6  9  1  0  0  0  0
  6  7  2  0  0  0  0
  7 10  1  0  0  0  0
  8  4  1  0  0  0  0
 11 12  1  0  0  0  0
 12 13  2  0  0  0  0
 12  5  1  0  0  0  0
 13 14  1  0  0  0  0
 15 13  1  0  0  0  0
 16 15  1  0  0  0  0
 16 17  1  0  0  0  0
 18 16  1  0  0  0  0
 19 18  1  0  0  0  0
 20 18  2  0  0  0  0
 20 21  1  0  0  0  0
 21 15  2  0  0  0  0
 22 21  1  0  0  0  0
 22 11  2  0  0  0  0
 23 28  1  0  0  0  0
 23 29  1  0  0  0  0
 24 23  2  0  0  0  0
 25 26  2  0  0  0  0
 25 24  1  0  0  0  0
 26 27  1  0  0  0  0
 27  3  1  0  0  0  0
 27 28  2  0  0  0  0
 30 24  1  0  0  0  0
 31 25  1  0  0  0  0
M  END
>  <minimizedAffinity>
-6.12454891

>  <minimizedRMSD>
1.13105214

$$$$
