
 OpenBabel03272502593D

 37 40  0  0  1  0  0  0  0  0999 V2000
   35.7680   29.5730   48.9470 N   0  0  0  0  0  0  0  0  0  0  0  0
   36.5840   28.7510   49.8170 C   0  0  0  0  0  0  0  0  0  0  0  0
   37.1010   29.3620   51.0330 C   0  0  0  0  0  0  0  0  0  0  0  0
   37.2660   30.8230   51.0890 C   0  0  0  0  0  0  0  0  0  0  0  0
   36.4290   31.5770   50.0990 C   0  0  0  0  0  0  0  0  0  0  0  0
   36.4350   30.8550   48.7470 C   0  0  1  0  0  0  0  0  0  0  0  0
   35.9310   27.8660   50.0710 H   0  0  0  0  0  0  0  0  0  0  0  0
   37.4050   28.2970   49.2170 H   0  0  0  0  0  0  0  0  0  0  0  0
   36.4630   29.0570   51.9120 H   0  0  0  0  0  0  0  0  0  0  0  0
   38.1030   28.9090   51.2880 H   0  0  0  0  0  0  0  0  0  0  0  0
   38.3420   31.1230   50.9360 H   0  0  0  0  0  0  0  0  0  0  0  0
   37.0110   31.2420   52.0920 H   0  0  0  0  0  0  0  0  0  0  0  0
   36.7900   32.6170   49.9960 H   0  0  0  0  0  0  0  0  0  0  0  0
   35.3920   31.6050   50.4550 H   0  0  0  0  0  0  0  0  0  0  0  0
   35.8930   31.5040   48.0630 H   0  0  0  0  0  0  0  0  0  0  0  0
   34.5210   29.1810   48.3830 C   0  0  0  0  0  0  0  0  0  0  0  0
   34.0290   29.6420   47.1650 C   0  0  0  0  0  0  0  0  0  0  0  0
   32.7970   29.1770   46.7240 C   0  0  0  0  0  0  0  0  0  0  0  0
   32.1290   28.2930   47.5020 N   0  0  0  0  0  0  0  0  0  0  0  0
   32.6390   27.8700   48.6760 C   0  0  0  0  0  0  0  0  0  0  0  0
   33.8320   28.3170   49.1090 N   0  0  0  0  0  0  0  0  0  0  0  0
   34.6120   30.3330   46.6140 H   0  0  0  0  0  0  0  0  0  0  0  0
   32.4800   29.5760   45.7740 H   0  0  0  0  0  0  0  0  0  0  0  0
   32.0650   27.1550   49.2750 H   0  0  0  0  0  0  0  0  0  0  0  0
   37.7800   30.6790   48.4480 O   0  0  0  0  0  0  0  0  0  0  0  0
   38.2510   30.2910   46.2770 C   0  0  0  0  0  3  0  0  0  0  0  0
   38.3250   31.2230   47.3070 C   0  0  0  0  0  0  0  0  0  0  0  0
   38.8880   32.4360   47.0310 C   0  0  0  0  0  0  0  0  0  0  0  0
   38.9130   33.0980   47.8580 H   0  0  0  0  0  0  0  0  0  0  0  0
   39.3640   32.7220   45.7700 C   0  0  0  0  0  0  0  0  0  0  0  0
   39.9420   33.8790   45.3620 N   0  0  0  0  0  0  0  0  0  0  0  0
   40.1290   34.7440   45.9090 H   0  0  0  0  0  0  0  0  0  0  0  0
   40.2690   33.7480   44.0450 C   0  0  0  0  0  0  0  0  0  0  0  0
   40.7480   34.4820   43.3980 H   0  0  0  0  0  0  0  0  0  0  0  0
   39.8750   32.4700   43.6460 C   0  0  0  0  0  3  0  0  0  0  0  0
   39.3040   31.8080   44.7160 C   0  0  0  0  0  0  0  0  0  0  0  0
   38.7340   30.5820   44.9970 C   0  0  0  0  0  3  0  0  0  0  0  0
  1  2  1  0  0  0  0
  2  7  1  0  0  0  0
  2  3  1  0  0  0  0
  3  4  1  0  0  0  0
  3 10  1  0  0  0  0
  3  9  1  0  0  0  0
  4 12  1  0  0  0  0
  5 14  1  0  0  0  0
  5  4  1  0  0  0  0
  6 15  1  6  0  0  0
  6  1  1  0  0  0  0
  6  5  1  0  0  0  0
  8  2  1  0  0  0  0
 11  4  1  0  0  0  0
 13  5  1  0  0  0  0
 16  1  1  0  0  0  0
 16 21  1  0  0  0  0
 17 16  2  0  0  0  0
 18 17  1  0  0  0  0
 18 19  2  0  0  0  0
 19 20  1  0  0  0  0
 20 21  2  0  0  0  0
 20 24  1  0  0  0  0
 22 17  1  0  0  0  0
 23 18  1  0  0  0  0
 25  6  1  0  0  0  0
 26 27  1  0  0  0  0
 27 25  1  0  0  0  0
 28 27  2  0  0  0  0
 28 29  1  0  0  0  0
 30 28  1  0  0  0  0
 31 30  1  0  0  0  0
 31 32  1  0  0  0  0
 33 31  1  0  0  0  0
 34 33  1  0  0  0  0
 35 33  2  0  0  0  0
 35 36  1  0  0  0  0
 36 37  1  0  0  0  0
 36 30  2  0  0  0  0
 37 26  2  0  0  0  0
M  END
>  <minimizedAffinity>
-6.2596035

>  <minimizedRMSD>
1.0983386

$$$$
