
 OpenBabel03272501183D

 33 36  0  0  0  0  0  0  0  0999 V2000
   38.3680   31.4760   48.1360 C   0  0  0  0  0  0  0  0  0  0  0  0
   37.6020   31.7970   49.2280 C   0  0  0  0  0  0  0  0  0  0  0  0
   37.7960   33.0950   49.7210 C   0  0  0  0  0  0  0  0  0  0  0  0
   38.7070   33.9740   49.1270 C   0  0  0  0  0  0  0  0  0  0  0  0
   39.4380   33.5400   48.0160 C   0  0  0  0  0  0  0  0  0  0  0  0
   39.2670   32.2720   47.5110 C   0  0  0  0  0  0  0  0  0  0  0  0
   37.2270   33.4260   50.5820 H   0  0  0  0  0  0  0  0  0  0  0  0
   38.8100   34.9650   49.5570 H   0  0  0  0  0  0  0  0  0  0  0  0
   40.1220   34.2780   47.6120 H   0  0  0  0  0  0  0  0  0  0  0  0
   35.3770   30.7560   49.3270 C   0  0  0  0  0  0  0  0  0  0  0  0
   36.6630   30.9020   49.8450 C   0  0  0  0  0  0  0  0  0  0  0  0
   36.9880   30.1490   50.9740 C   0  0  0  0  0  0  0  0  0  0  0  0
   36.0370   29.3220   51.5000 N   0  0  0  0  0  0  0  0  0  0  0  0
   34.7990   29.2150   50.9580 C   0  0  0  0  0  0  0  0  0  0  0  0
   34.4710   29.9320   49.8720 N   0  0  0  0  0  0  0  0  0  0  0  0
   35.1500   31.3550   48.4460 H   0  0  0  0  0  0  0  0  0  0  0  0
   37.9710   30.2190   51.4240 H   0  0  0  0  0  0  0  0  0  0  0  0
   34.0480   28.5570   51.3770 H   0  0  0  0  0  0  0  0  0  0  0  0
   38.2340   30.1910   47.5780 O   0  0  0  0  0  0  0  0  0  0  0  0
   38.5730   29.3700   48.0530 H   0  0  0  0  0  0  0  0  0  0  0  0
   40.0100   31.8930   46.4150 O   0  0  0  0  0  0  0  0  0  0  0  0
   40.0590   33.2150   44.5640 C   0  0  0  0  0  3  0  0  0  0  0  0
   39.5090   32.0650   45.1380 C   0  0  0  0  0  0  0  0  0  0  0  0
   38.6100   31.3150   44.4130 C   0  0  0  0  0  0  0  0  0  0  0  0
   38.2620   30.4640   44.9580 H   0  0  0  0  0  0  0  0  0  0  0  0
   38.2790   31.7210   43.1380 C   0  0  0  0  0  0  0  0  0  0  0  0
   37.4290   31.1280   42.2800 N   0  0  0  0  0  0  0  0  0  0  0  0
   36.8690   30.2570   42.4230 H   0  0  0  0  0  0  0  0  0  0  0  0
   37.4310   31.8830   41.1700 C   0  0  0  0  0  0  0  0  0  0  0  0
   36.8820   31.7570   40.2350 H   0  0  0  0  0  0  0  0  0  0  0  0
   38.2720   32.9690   41.2830 C   0  0  0  0  0  3  0  0  0  0  0  0
   38.8150   32.8540   42.5620 C   0  0  0  0  0  0  0  0  0  0  0  0
   39.7170   33.6200   43.2690 C   0  0  0  0  0  3  0  0  0  0  0  0
  1  2  1  0  0  0  0
  2  3  2  0  0  0  0
  2 11  1  0  0  0  0
  3  7  1  0  0  0  0
  4  8  1  0  0  0  0
  4  3  1  0  0  0  0
  5  4  2  0  0  0  0
  6  5  1  0  0  0  0
  6  1  2  0  0  0  0
  9  5  1  0  0  0  0
 10 11  2  0  0  0  0
 10 15  1  0  0  0  0
 11 12  1  0  0  0  0
 12 17  1  0  0  0  0
 12 13  2  0  0  0  0
 14 18  1  0  0  0  0
 14 13  1  0  0  0  0
 15 14  2  0  0  0  0
 16 10  1  0  0  0  0
 19 20  1  0  0  0  0
 19  1  1  0  0  0  0
 21  6  1  0  0  0  0
 22 23  1  0  0  0  0
 23 21  1  0  0  0  0
 24 25  1  0  0  0  0
 24 23  2  0  0  0  0
 26 24  1  0  0  0  0
 27 28  1  0  0  0  0
 27 26  1  0  0  0  0
 29 31  2  0  0  0  0
 29 27  1  0  0  0  0
 30 29  1  0  0  0  0
 31 32  1  0  0  0  0
 32 26  2  0  0  0  0
 32 33  1  0  0  0  0
 33 22  2  0  0  0  0
M  END
>  <minimizedAffinity>
-6.04012394

>  <minimizedRMSD>
3.21257401

$$$$
