
 OpenBabel03272502583D

 37 40  0  0  1  0  0  0  0  0999 V2000
   35.8410   29.6010   48.8910 N   0  0  0  0  0  0  0  0  0  0  0  0
   36.6250   28.8020   49.8110 C   0  0  0  0  0  0  0  0  0  0  0  0
   37.1390   29.4570   51.0050 C   0  0  0  0  0  0  0  0  0  0  0  0
   37.3380   30.9150   50.9960 C   0  0  0  0  0  0  0  0  0  0  0  0
   36.5330   31.6410   49.9600 C   0  0  0  0  0  0  0  0  0  0  0  0
   36.5410   30.8570   48.6430 C   0  0  1  0  0  0  0  0  0  0  0  0
   35.9480   27.9450   50.0960 H   0  0  0  0  0  0  0  0  0  0  0  0
   37.4430   28.3010   49.2450 H   0  0  0  0  0  0  0  0  0  0  0  0
   36.4830   29.2070   51.8880 H   0  0  0  0  0  0  0  0  0  0  0  0
   38.1270   28.9930   51.2960 H   0  0  0  0  0  0  0  0  0  0  0  0
   38.4230   31.1820   50.8450 H   0  0  0  0  0  0  0  0  0  0  0  0
   37.0790   31.3850   51.9750 H   0  0  0  0  0  0  0  0  0  0  0  0
   36.9210   32.6660   49.8140 H   0  0  0  0  0  0  0  0  0  0  0  0
   35.4920   31.7090   50.2990 H   0  0  0  0  0  0  0  0  0  0  0  0
   36.0240   31.4850   47.9220 H   0  0  0  0  0  0  0  0  0  0  0  0
   34.5930   29.2120   48.3270 C   0  0  0  0  0  0  0  0  0  0  0  0
   34.0870   29.7000   47.1260 C   0  0  0  0  0  0  0  0  0  0  0  0
   32.8550   29.2350   46.6830 C   0  0  0  0  0  0  0  0  0  0  0  0
   32.2020   28.3260   47.4440 N   0  0  0  0  0  0  0  0  0  0  0  0
   32.7250   27.8770   48.6020 C   0  0  0  0  0  0  0  0  0  0  0  0
   33.9180   28.3230   49.0370 N   0  0  0  0  0  0  0  0  0  0  0  0
   34.6590   30.4100   46.5890 H   0  0  0  0  0  0  0  0  0  0  0  0
   32.5270   29.6560   45.7460 H   0  0  0  0  0  0  0  0  0  0  0  0
   32.1620   27.1410   49.1870 H   0  0  0  0  0  0  0  0  0  0  0  0
   37.8850   30.6360   48.3730 O   0  0  0  0  0  0  0  0  0  0  0  0
   39.0760   32.2690   47.3740 C   0  0  0  0  0  3  0  0  0  0  0  0
   38.4410   31.0460   47.1820 C   0  0  0  0  0  0  0  0  0  0  0  0
   38.4740   30.5000   45.9320 C   0  0  0  0  0  0  0  0  0  0  0  0
   37.9720   29.5690   45.8540 H   0  0  0  0  0  0  0  0  0  0  0  0
   39.1180   31.1420   44.8970 C   0  0  0  0  0  0  0  0  0  0  0  0
   39.2260   30.7140   43.6160 N   0  0  0  0  0  0  0  0  0  0  0  0
   38.8540   29.8430   43.1840 H   0  0  0  0  0  0  0  0  0  0  0  0
   39.9390   31.6430   42.9160 C   0  0  0  0  0  0  0  0  0  0  0  0
   40.2140   31.6210   41.8630 H   0  0  0  0  0  0  0  0  0  0  0  0
   40.2710   32.6650   43.8070 C   0  0  0  0  0  3  0  0  0  0  0  0
   39.7640   32.3700   45.0570 C   0  0  0  0  0  0  0  0  0  0  0  0
   39.7290   32.9220   46.3230 C   0  0  0  0  0  3  0  0  0  0  0  0
  1  2  1  0  0  0  0
  2  7  1  0  0  0  0
  2  3  1  0  0  0  0
  3 10  1  0  0  0  0
  3  9  1  0  0  0  0
  4  3  1  0  0  0  0
  4 12  1  0  0  0  0
  5 14  1  0  0  0  0
  5  4  1  0  0  0  0
  6 15  1  6  0  0  0
  6  1  1  0  0  0  0
  6  5  1  0  0  0  0
  8  2  1  0  0  0  0
 11  4  1  0  0  0  0
 13  5  1  0  0  0  0
 16  1  1  0  0  0  0
 16 21  1  0  0  0  0
 17 16  2  0  0  0  0
 18 17  1  0  0  0  0
 18 19  2  0  0  0  0
 19 20  1  0  0  0  0
 20 21  2  0  0  0  0
 20 24  1  0  0  0  0
 22 17  1  0  0  0  0
 23 18  1  0  0  0  0
 25  6  1  0  0  0  0
 27 26  1  0  0  0  0
 27 25  1  0  0  0  0
 28 27  2  0  0  0  0
 29 28  1  0  0  0  0
 30 36  2  0  0  0  0
 30 28  1  0  0  0  0
 31 30  1  0  0  0  0
 32 31  1  0  0  0  0
 33 31  1  0  0  0  0
 33 35  2  0  0  0  0
 34 33  1  0  0  0  0
 35 36  1  0  0  0  0
 36 37  1  0  0  0  0
 37 26  2  0  0  0  0
M  END
>  <minimizedAffinity>
-6.40615034

>  <minimizedRMSD>
0.925909877

$$$$
