
 OpenBabel03262522153D

 48 52  0  0  1  0  0  0  0  0999 V2000
   39.5930   32.7900   43.7870 C   0  0  0  0  0  0  0  0  0  0  0  0
   38.5270   32.7710   44.0260 H   0  0  0  0  0  0  0  0  0  0  0  0
   39.8090   33.6470   43.0960 H   0  0  0  0  0  0  0  0  0  0  0  0
   38.9590   29.6060   42.3770 C   0  0  1  0  0  0  0  0  0  0  0  0
   39.0300   31.0910   42.0570 C   0  0  0  0  0  0  0  0  0  0  0  0
   40.0570   31.5460   43.0710 C   0  0  2  0  0  0  0  0  0  0  0  0
   40.3050   30.5160   43.9330 O   0  0  0  0  0  0  0  0  0  0  0  0
   39.2390   29.6300   43.8710 C   0  0  0  0  0  0  0  0  0  0  0  0
   39.8120   29.0740   41.9070 H   0  0  0  0  0  0  0  0  0  0  0  0
   39.4370   31.1760   41.0270 H   0  0  0  0  0  0  0  0  0  0  0  0
   38.0550   31.5530   42.2100 H   0  0  0  0  0  0  0  0  0  0  0  0
   41.0060   31.7660   42.5350 H   0  0  0  0  0  0  0  0  0  0  0  0
   39.4940   28.6520   44.2800 H   0  0  0  0  0  0  0  0  0  0  0  0
   38.3370   30.0620   44.3420 H   0  0  0  0  0  0  0  0  0  0  0  0
   37.7110   29.0820   42.1050 O   0  0  0  0  0  0  0  0  0  0  0  0
   35.8900   27.9040   42.9960 C   0  0  0  0  0  3  0  0  0  0  0  0
   37.1920   27.8940   42.5190 C   0  0  0  0  0  0  0  0  0  0  0  0
   37.8640   26.6870   42.4980 C   0  0  0  0  0  0  0  0  0  0  0  0
   38.8670   26.6560   42.1340 H   0  0  0  0  0  0  0  0  0  0  0  0
   37.3390   25.4750   42.9190 C   0  0  0  0  0  0  0  0  0  0  0  0
   37.8310   24.2260   42.9720 N   0  0  0  0  0  0  0  0  0  0  0  0
   38.7830   23.9010   42.6830 H   0  0  0  0  0  0  0  0  0  0  0  0
   36.8490   23.4300   43.4840 C   0  0  0  0  0  0  0  0  0  0  0  0
   36.9210   22.3590   43.6580 H   0  0  0  0  0  0  0  0  0  0  0  0
   35.7310   24.2160   43.7480 C   0  0  0  0  0  3  0  0  0  0  0  0
   36.0270   25.5160   43.3950 C   0  0  0  0  0  0  0  0  0  0  0  0
   35.3340   26.6980   43.4280 C   0  0  0  0  0  3  0  0  0  0  0  0
   40.6720   33.0270   45.2310 S   0  0  0  0  0  0  0  0  0  0  0  0
   37.7820   31.7620   47.6410 C   0  0  0  0  0  0  0  0  0  0  0  0
   37.9310   32.5410   48.8030 C   0  0  0  0  0  0  0  0  0  0  0  0
   38.9370   33.4910   48.8830 C   0  0  0  0  0  0  0  0  0  0  0  0
   39.7490   33.6160   47.7910 C   0  0  0  0  0  0  0  0  0  0  0  0
   39.5810   32.8490   46.6800 C   0  0  0  0  0  0  0  0  0  0  0  0
   38.6060   31.9150   46.5790 N   0  0  0  0  0  0  0  0  0  0  0  0
   37.2640   32.4090   49.6460 H   0  0  0  0  0  0  0  0  0  0  0  0
   39.1090   34.1210   49.7380 H   0  0  0  0  0  0  0  0  0  0  0  0
   40.5710   34.3360   47.7530 H   0  0  0  0  0  0  0  0  0  0  0  0
   36.7150   30.7980   47.6320 C   0  0  0  0  0  0  0  0  0  0  0  0
   36.2310   30.3920   46.5770 O   0  0  0  0  0  0  0  0  0  0  0  0
   37.0240   29.6160   49.7780 C   0  0  0  0  0  0  0  0  0  0  0  0
   36.1390   30.2370   48.8650 C   0  0  0  0  0  0  0  0  0  0  0  0
   34.7780   30.2900   49.1650 C   0  0  0  0  0  0  0  0  0  0  0  0
   34.3420   29.7390   50.3380 N   0  0  0  0  0  0  0  0  0  0  0  0
   35.2090   29.1520   51.1940 C   0  0  0  0  0  0  0  0  0  0  0  0
   36.5220   29.0920   50.9190 N   0  0  0  0  0  0  0  0  0  0  0  0
   38.0840   29.5390   49.6110 H   0  0  0  0  0  0  0  0  0  0  0  0
   34.1290   30.7700   48.4500 H   0  0  0  0  0  0  0  0  0  0  0  0
   34.7430   28.7500   52.0930 H   0  0  0  0  0  0  0  0  0  0  0  0
  1  2  1  0  0  0  0
  1 28  1  0  0  0  0
  3  1  1  0  0  0  0
  4  9  1  6  0  0  0
  4  8  1  0  0  0  0
  5 11  1  0  0  0  0
  5  4  1  0  0  0  0
  5  6  1  0  0  0  0
  6 12  1  6  0  0  0
  6  1  1  0  0  0  0
  6  7  1  0  0  0  0
  8  7  1  0  0  0  0
  8 13  1  0  0  0  0
  8 14  1  0  0  0  0
 10  5  1  0  0  0  0
 15  4  1  0  0  0  0
 15 17  1  0  0  0  0
 16 27  1  0  0  0  0
 17 16  2  0  0  0  0
 18 17  1  0  0  0  0
 18 20  2  0  0  0  0
 19 18  1  0  0  0  0
 20 21  1  0  0  0  0
 20 26  1  0  0  0  0
 21 23  1  0  0  0  0
 22 21  1  0  0  0  0
 23 24  1  0  0  0  0
 23 25  2  0  0  0  0
 26 27  2  0  0  0  0
 26 25  1  0  0  0  0
 28 33  1  0  0  0  0
 29 30  1  0  0  0  0
 30 31  2  0  0  0  0
 30 35  1  0  0  0  0
 31 36  1  0  0  0  0
 32 31  1  0  0  0  0
 33 32  2  0  0  0  0
 34 33  1  0  0  0  0
 34 29  2  0  0  0  0
 37 32  1  0  0  0  0
 38 29  1  0  0  0  0
 38 41  1  0  0  0  0
 39 38  2  0  0  0  0
 40 45  1  0  0  0  0
 41 42  1  0  0  0  0
 41 40  2  0  0  0  0
 42 43  2  0  0  0  0
 43 44  1  0  0  0  0
 44 48  1  0  0  0  0
 45 44  2  0  0  0  0
 46 40  1  0  0  0  0
 47 42  1  0  0  0  0
M  END
>  <minimizedAffinity>
-5.52600622

>  <minimizedRMSD>
2.16584182

$$$$
