
 OpenBabel03272510153D

 31 34  0  0  0  0  0  0  0  0999 V2000
   37.2970   29.7760   51.4220 Br  0  0  0  0  0  0  0  0  0  0  0  0
   36.0960   29.4580   49.9580 C   0  0  0  0  0  0  0  0  0  0  0  0
   36.1850   30.1990   48.8010 C   0  0  0  0  0  0  0  0  0  0  0  0
   35.2850   29.9100   47.7910 C   0  0  0  0  0  0  0  0  0  0  0  0
   34.3160   28.9260   47.8950 C   0  0  0  0  0  0  0  0  0  0  0  0
   34.2610   28.2120   49.0600 C   0  0  0  0  0  0  0  0  0  0  0  0
   35.1500   28.4820   50.0840 C   0  0  0  0  0  0  0  0  0  0  0  0
   35.3170   30.4650   46.8650 H   0  0  0  0  0  0  0  0  0  0  0  0
   33.5310   27.4400   49.1900 H   0  0  0  0  0  0  0  0  0  0  0  0
   35.0630   27.8900   50.9830 H   0  0  0  0  0  0  0  0  0  0  0  0
   32.0310   28.5080   46.9660 C   0  0  0  0  0  3  0  0  0  0  0  0
   33.3950   28.6530   46.8240 C   0  0  0  0  0  0  0  0  0  0  0  0
   33.8500   28.5130   45.5280 C   0  0  0  0  0  0  0  0  0  0  0  0
   34.9280   28.6200   45.3750 H   0  0  0  0  0  0  0  0  0  0  0  0
   33.0860   28.2510   44.4110 C   0  0  0  0  0  0  0  0  0  0  0  0
   33.3870   28.0920   43.1120 N   0  0  0  0  0  0  0  0  0  0  0  0
   34.3580   28.1540   42.7350 H   0  0  0  0  0  0  0  0  0  0  0  0
   32.1970   27.8540   42.4880 C   0  0  0  0  0  0  0  0  0  0  0  0
   32.2380   27.6970   41.4130 H   0  0  0  0  0  0  0  0  0  0  0  0
   31.1720   27.8680   43.4070 C   0  0  0  0  0  3  0  0  0  0  0  0
   31.7140   28.1210   44.6510 C   0  0  0  0  0  0  0  0  0  0  0  0
   31.1810   28.2470   45.9140 C   0  0  0  0  0  3  0  0  0  0  0  0
   38.0230   33.2890   49.4060 C   0  0  0  0  0  0  0  0  0  0  0  0
   39.0510   33.2630   48.4370 C   0  0  0  0  0  0  0  0  0  0  0  0
   39.0950   32.1730   47.5830 C   0  0  0  0  0  0  0  0  0  0  0  0
   38.1620   31.1810   47.7050 N   0  0  0  0  0  0  0  0  0  0  0  0
   37.1880   31.2430   48.6510 C   0  0  0  0  0  0  0  0  0  0  0  0
   37.1280   32.3050   49.5000 N   0  0  0  0  0  0  0  0  0  0  0  0
   37.9400   34.1250   50.1080 H   0  0  0  0  0  0  0  0  0  0  0  0
   39.7670   34.0710   48.3780 H   0  0  0  0  0  0  0  0  0  0  0  0
   39.8580   32.0970   46.8200 H   0  0  0  0  0  0  0  0  0  0  0  0
  2  7  1  0  0  0  0
  2  1  1  0  0  0  0
  3  2  2  0  0  0  0
  4  5  2  0  0  0  0
  4  3  1  0  0  0  0
  5  6  1  0  0  0  0
  6  9  1  0  0  0  0
  6  7  2  0  0  0  0
  7 10  1  0  0  0  0
  8  4  1  0  0  0  0
 12 11  1  0  0  0  0
 12  5  1  0  0  0  0
 13 12  2  0  0  0  0
 14 13  1  0  0  0  0
 15 21  2  0  0  0  0
 15 13  1  0  0  0  0
 16 15  1  0  0  0  0
 17 16  1  0  0  0  0
 18 16  1  0  0  0  0
 18 20  2  0  0  0  0
 19 18  1  0  0  0  0
 20 21  1  0  0  0  0
 21 22  1  0  0  0  0
 22 11  2  0  0  0  0
 23 28  1  0  0  0  0
 23 29  1  0  0  0  0
 24 23  2  0  0  0  0
 25 26  2  0  0  0  0
 25 24  1  0  0  0  0
 26 27  1  0  0  0  0
 27  3  1  0  0  0  0
 27 28  2  0  0  0  0
 30 24  1  0  0  0  0
 31 25  1  0  0  0  0
M  END
>  <minimizedAffinity>
-5.97209835

>  <minimizedRMSD>
0.644493818

$$$$
