
 OpenBabel03262522053D

 43 47  0  0  1  0  0  0  0  0999 V2000
   37.7710   31.8640   49.5800 C   0  0  0  0  0  0  0  0  0  0  0  0
   36.7760   32.3700   50.1860 O   0  0  0  0  0  0  0  0  0  0  0  0
   34.5510   29.1430   48.6020 C   0  0  2  0  0  0  0  0  0  0  0  0
   35.1820   28.4090   49.7360 C   0  0  0  0  0  0  0  0  0  0  0  0
   36.3170   29.1830   50.2380 N   0  0  0  0  0  0  0  0  0  0  0  0
   37.2620   29.9110   51.0370 C   0  0  0  0  0  0  0  0  0  0  0  0
   37.4670   30.0910   52.2500 O   0  0  0  0  0  0  0  0  0  0  0  0
   37.9920   30.4370   49.9130 C   0  0  1  0  0  0  0  0  0  0  0  0
   37.1670   29.4350   49.1160 C   0  0  2  0  0  0  0  0  0  0  0  0
   35.9610   30.1480   47.9720 S   0  0  0  0  0  0  0  0  0  0  0  0
   34.4940   28.2840   50.6070 H   0  0  0  0  0  0  0  0  0  0  0  0
   35.5320   27.3990   49.4160 H   0  0  0  0  0  0  0  0  0  0  0  0
   39.0490   30.1900   49.7300 H   0  0  0  0  0  0  0  0  0  0  0  0
   37.7220   28.5650   48.7210 H   0  0  0  0  0  0  0  0  0  0  0  0
   33.3440   29.9580   48.9200 C   0  0  0  0  0  0  0  0  0  0  0  0
   33.0470   29.7640   49.9730 H   0  0  0  0  0  0  0  0  0  0  0  0
   33.5050   31.0630   48.8550 H   0  0  0  0  0  0  0  0  0  0  0  0
   32.4780   29.7080   48.2450 H   0  0  0  0  0  0  0  0  0  0  0  0
   34.2700   28.1350   47.4760 C   0  0  0  0  0  0  0  0  0  0  0  0
   34.9210   27.2610   47.5280 H   0  0  0  0  0  0  0  0  0  0  0  0
   33.1800   27.8740   47.6110 H   0  0  0  0  0  0  0  0  0  0  0  0
   34.3180   28.8090   46.2540 O   0  0  0  0  0  0  0  0  0  0  0  0
   34.9180   28.2500   45.6700 H   0  0  0  0  0  0  0  0  0  0  0  0
   38.5920   32.6040   48.6720 C   0  0  0  0  0  0  0  0  0  0  0  0
   39.2220   33.7370   49.1360 C   0  0  0  0  0  0  0  0  0  0  0  0
   40.0320   34.4630   48.2350 C   0  0  0  0  0  0  0  0  0  0  0  0
   40.1440   34.0000   46.9520 N   0  0  0  0  0  0  0  0  0  0  0  0
   39.5200   32.9060   46.5440 C   0  0  0  0  0  0  0  0  0  0  0  0
   38.7430   32.1970   47.3870 N   0  0  0  0  0  0  0  0  0  0  0  0
   39.1150   34.0790   50.1610 H   0  0  0  0  0  0  0  0  0  0  0  0
   40.5530   35.3610   48.5400 H   0  0  0  0  0  0  0  0  0  0  0  0
   39.1900   33.2450   44.1050 C   0  0  0  0  0  3  0  0  0  0  0  0
   39.6890   32.4760   45.1570 C   0  0  0  0  0  0  0  0  0  0  0  0
   40.3680   31.2740   44.9430 C   0  0  0  0  0  0  0  0  0  0  0  0
   40.7530   30.6820   45.7630 H   0  0  0  0  0  0  0  0  0  0  0  0
   40.5460   30.8400   43.6280 C   0  0  0  0  0  0  0  0  0  0  0  0
   41.1620   29.7250   43.2050 N   0  0  0  0  0  0  0  0  0  0  0  0
   41.6290   28.9640   43.7500 H   0  0  0  0  0  0  0  0  0  0  0  0
   41.1090   29.6880   41.8420 C   0  0  0  0  0  0  0  0  0  0  0  0
   41.4700   28.9890   41.1020 H   0  0  0  0  0  0  0  0  0  0  0  0
   40.4300   30.8340   41.4670 C   0  0  0  0  0  3  0  0  0  0  0  0
   40.0620   31.5820   42.5660 C   0  0  0  0  0  0  0  0  0  0  0  0
   39.3940   32.7660   42.8040 C   0  0  0  0  0  3  0  0  0  0  0  0
  1  8  1  0  0  0  0
  1  2  2  0  0  0  0
  3 19  1  6  0  0  0
  3 15  1  0  0  0  0
  3  4  1  0  0  0  0
  4  5  1  0  0  0  0
  4 11  1  0  0  0  0
  5  6  1  0  0  0  0
  6  7  2  0  0  0  0
  8 13  1  1  0  0  0
  8  6  1  0  0  0  0
  9 14  1  6  0  0  0
  9  8  1  0  0  0  0
  9  5  1  0  0  0  0
 10  3  1  0  0  0  0
 10  9  1  0  0  0  0
 12  4  1  0  0  0  0
 15 16  1  0  0  0  0
 17 15  1  0  0  0  0
 18 15  1  0  0  0  0
 19 20  1  0  0  0  0
 19 21  1  0  0  0  0
 22 19  1  0  0  0  0
 23 22  1  0  0  0  0
 24 25  1  0  0  0  0
 24  1  1  0  0  0  0
 25 30  1  0  0  0  0
 26 31  1  0  0  0  0
 26 25  2  0  0  0  0
 27 26  1  0  0  0  0
 28 27  2  0  0  0  0
 28 29  1  0  0  0  0
 29 24  2  0  0  0  0
 32 33  1  0  0  0  0
 33 28  1  0  0  0  0
 34 33  2  0  0  0  0
 34 35  1  0  0  0  0
 36 34  1  0  0  0  0
 37 36  1  0  0  0  0
 37 38  1  0  0  0  0
 39 37  1  0  0  0  0
 40 39  1  0  0  0  0
 41 39  2  0  0  0  0
 41 42  1  0  0  0  0
 42 43  1  0  0  0  0
 42 36  2  0  0  0  0
 43 32  2  0  0  0  0
M  END
>  <minimizedAffinity>
-6.82231045

>  <minimizedRMSD>
0.508655131

$$$$
