
 OpenBabel03272510163D

 31 34  0  0  0  0  0  0  0  0999 V2000
   37.3270   29.3400   51.0490 Br  0  0  0  0  0  0  0  0  0  0  0  0
   35.9680   29.3350   49.6930 C   0  0  0  0  0  0  0  0  0  0  0  0
   35.9960   30.2510   48.6640 C   0  0  0  0  0  0  0  0  0  0  0  0
   34.9830   30.1840   47.7260 C   0  0  0  0  0  0  0  0  0  0  0  0
   33.9600   29.2520   47.7770 C   0  0  0  0  0  0  0  0  0  0  0  0
   33.9680   28.3600   48.8130 C   0  0  0  0  0  0  0  0  0  0  0  0
   34.9710   28.4070   49.7640 C   0  0  0  0  0  0  0  0  0  0  0  0
   34.9650   30.8820   46.9020 H   0  0  0  0  0  0  0  0  0  0  0  0
   33.2000   27.6190   48.8980 H   0  0  0  0  0  0  0  0  0  0  0  0
   34.9290   27.6810   50.5630 H   0  0  0  0  0  0  0  0  0  0  0  0
   32.9260   29.9160   45.5970 C   0  0  0  0  0  3  0  0  0  0  0  0
   32.9200   29.2120   46.7830 C   0  0  0  0  0  0  0  0  0  0  0  0
   31.8030   28.4250   46.9710 C   0  0  0  0  0  0  0  0  0  0  0  0
   31.7610   27.8500   47.9010 H   0  0  0  0  0  0  0  0  0  0  0  0
   30.7360   28.2900   46.1100 C   0  0  0  0  0  0  0  0  0  0  0  0
   29.6010   27.5740   46.1600 N   0  0  0  0  0  0  0  0  0  0  0  0
   29.3510   26.9500   46.9580 H   0  0  0  0  0  0  0  0  0  0  0  0
   28.9370   27.8570   45.0010 C   0  0  0  0  0  0  0  0  0  0  0  0
   27.9800   27.3630   44.8600 H   0  0  0  0  0  0  0  0  0  0  0  0
   29.6690   28.7480   44.2460 C   0  0  0  0  0  3  0  0  0  0  0  0
   30.8280   29.0410   44.9330 C   0  0  0  0  0  0  0  0  0  0  0  0
   31.9100   29.8510   44.6700 C   0  0  0  0  0  3  0  0  0  0  0  0
   37.9990   33.1950   49.4490 C   0  0  0  0  0  0  0  0  0  0  0  0
   39.0210   33.1760   48.4750 C   0  0  0  0  0  0  0  0  0  0  0  0
   39.0040   32.1400   47.5540 C   0  0  0  0  0  0  0  0  0  0  0  0
   38.0200   31.1940   47.6200 N   0  0  0  0  0  0  0  0  0  0  0  0
   37.0540   31.2480   48.5740 C   0  0  0  0  0  0  0  0  0  0  0  0
   37.0530   32.2570   49.4870 N   0  0  0  0  0  0  0  0  0  0  0  0
   37.9630   33.9900   50.2030 H   0  0  0  0  0  0  0  0  0  0  0  0
   39.7790   33.9470   48.4620 H   0  0  0  0  0  0  0  0  0  0  0  0
   39.7600   32.0710   46.7830 H   0  0  0  0  0  0  0  0  0  0  0  0
  2  7  1  0  0  0  0
  2  1  1  0  0  0  0
  3  2  2  0  0  0  0
  4  5  2  0  0  0  0
  4  3  1  0  0  0  0
  5  6  1  0  0  0  0
  6  9  1  0  0  0  0
  6  7  2  0  0  0  0
  7 10  1  0  0  0  0
  8  4  1  0  0  0  0
 11 12  1  0  0  0  0
 12 13  2  0  0  0  0
 12  5  1  0  0  0  0
 13 14  1  0  0  0  0
 15 16  1  0  0  0  0
 15 13  1  0  0  0  0
 16 17  1  0  0  0  0
 18 16  1  0  0  0  0
 19 18  1  0  0  0  0
 20 21  1  0  0  0  0
 20 18  2  0  0  0  0
 21 15  2  0  0  0  0
 22 21  1  0  0  0  0
 22 11  2  0  0  0  0
 23 28  1  0  0  0  0
 23 29  1  0  0  0  0
 24 23  2  0  0  0  0
 25 26  2  0  0  0  0
 25 24  1  0  0  0  0
 26 27  1  0  0  0  0
 27  3  1  0  0  0  0
 27 28  2  0  0  0  0
 30 24  1  0  0  0  0
 31 25  1  0  0  0  0
M  END
>  <minimizedAffinity>
-6.14535999

>  <minimizedRMSD>
0.14737609

$$$$
