
 OpenBabel03272502583D

 37 40  0  0  1  0  0  0  0  0999 V2000
   35.7580   29.6010   48.7960 N   0  0  0  0  0  0  0  0  0  0  0  0
   36.5910   28.8430   49.7050 C   0  0  0  0  0  0  0  0  0  0  0  0
   37.1570   29.5450   50.8490 C   0  0  0  0  0  0  0  0  0  0  0  0
   37.3430   31.0030   50.7750 C   0  0  0  0  0  0  0  0  0  0  0  0
   36.4840   31.6850   49.7530 C   0  0  0  0  0  0  0  0  0  0  0  0
   36.4350   30.8510   48.4670 C   0  0  1  0  0  0  0  0  0  0  0  0
   35.9360   27.9930   50.0550 H   0  0  0  0  0  0  0  0  0  0  0  0
   37.3860   28.3260   49.1200 H   0  0  0  0  0  0  0  0  0  0  0  0
   36.5460   29.3250   51.7700 H   0  0  0  0  0  0  0  0  0  0  0  0
   38.1610   29.0990   51.1080 H   0  0  0  0  0  0  0  0  0  0  0  0
   38.4180   31.2710   50.5630 H   0  0  0  0  0  0  0  0  0  0  0  0
   37.1280   31.5080   51.7470 H   0  0  0  0  0  0  0  0  0  0  0  0
   36.8560   32.7060   49.5500 H   0  0  0  0  0  0  0  0  0  0  0  0
   35.4600   31.7590   50.1390 H   0  0  0  0  0  0  0  0  0  0  0  0
   35.8790   31.4490   47.7490 H   0  0  0  0  0  0  0  0  0  0  0  0
   34.4880   29.1840   48.3080 C   0  0  0  0  0  0  0  0  0  0  0  0
   33.9170   29.6280   47.1180 C   0  0  0  0  0  0  0  0  0  0  0  0
   32.6700   29.1380   46.7520 C   0  0  0  0  0  0  0  0  0  0  0  0
   32.0640   28.2480   47.5740 N   0  0  0  0  0  0  0  0  0  0  0  0
   32.6490   27.8420   48.7180 C   0  0  0  0  0  0  0  0  0  0  0  0
   33.8570   28.3130   49.0780 N   0  0  0  0  0  0  0  0  0  0  0  0
   34.4550   30.3240   46.5300 H   0  0  0  0  0  0  0  0  0  0  0  0
   32.2920   29.5250   45.8200 H   0  0  0  0  0  0  0  0  0  0  0  0
   32.1240   27.1210   49.3540 H   0  0  0  0  0  0  0  0  0  0  0  0
   37.7660   30.6290   48.1410 O   0  0  0  0  0  0  0  0  0  0  0  0
   37.0940   30.8800   46.0030 C   0  0  0  0  0  3  0  0  0  0  0  0
   38.1960   30.7170   46.8360 C   0  0  0  0  0  0  0  0  0  0  0  0
   39.4320   30.6750   46.2580 C   0  0  0  0  0  0  0  0  0  0  0  0
   40.2260   30.5500   46.9470 H   0  0  0  0  0  0  0  0  0  0  0  0
   39.5760   30.7910   44.8920 C   0  0  0  0  0  0  0  0  0  0  0  0
   40.7370   30.7660   44.1930 N   0  0  0  0  0  0  0  0  0  0  0  0
   41.7110   30.6590   44.5450 H   0  0  0  0  0  0  0  0  0  0  0  0
   40.4390   30.9120   42.8710 C   0  0  0  0  0  0  0  0  0  0  0  0
   41.1290   30.9380   42.0280 H   0  0  0  0  0  0  0  0  0  0  0  0
   39.0510   31.0290   42.7710 C   0  0  0  0  0  3  0  0  0  0  0  0
   38.4910   30.9550   44.0300 C   0  0  0  0  0  0  0  0  0  0  0  0
   37.2410   30.9960   44.6160 C   0  0  0  0  0  3  0  0  0  0  0  0
  1  2  1  0  0  0  0
  2  7  1  0  0  0  0
  2  3  1  0  0  0  0
  3 10  1  0  0  0  0
  3  9  1  0  0  0  0
  4  3  1  0  0  0  0
  4 12  1  0  0  0  0
  5 14  1  0  0  0  0
  5  4  1  0  0  0  0
  6 15  1  6  0  0  0
  6  1  1  0  0  0  0
  6  5  1  0  0  0  0
  8  2  1  0  0  0  0
 11  4  1  0  0  0  0
 13  5  1  0  0  0  0
 16  1  1  0  0  0  0
 16 21  1  0  0  0  0
 17 16  2  0  0  0  0
 18 17  1  0  0  0  0
 18 19  2  0  0  0  0
 19 20  1  0  0  0  0
 20 21  2  0  0  0  0
 20 24  1  0  0  0  0
 22 17  1  0  0  0  0
 23 18  1  0  0  0  0
 25  6  1  0  0  0  0
 26 27  1  0  0  0  0
 27 25  1  0  0  0  0
 28 27  2  0  0  0  0
 28 29  1  0  0  0  0
 30 28  1  0  0  0  0
 31 32  1  0  0  0  0
 31 30  1  0  0  0  0
 33 31  1  0  0  0  0
 34 33  1  0  0  0  0
 35 33  2  0  0  0  0
 35 36  1  0  0  0  0
 36 37  1  0  0  0  0
 36 30  2  0  0  0  0
 37 26  2  0  0  0  0
M  END
>  <minimizedAffinity>
-6.22177219

>  <minimizedRMSD>
1.1564616

$$$$
