
 OpenBabel03272508563D

 43 47  0  0  1  0  0  0  0  0999 V2000
   39.2030   31.3990   43.4020 C   0  0  0  0  0  0  0  0  0  0  0  0
   40.2700   30.5530   43.6040 C   0  0  0  0  0  0  0  0  0  0  0  0
   41.0010   30.1730   42.5040 C   0  0  0  0  0  0  0  0  0  0  0  0
   40.6300   30.6540   41.2680 C   0  0  0  0  0  0  0  0  0  0  0  0
   39.5600   31.5030   41.0590 C   0  0  0  0  0  0  0  0  0  0  0  0
   38.8720   31.8480   42.1700 N   0  0  0  0  0  0  0  0  0  0  0  0
   40.5630   30.1720   44.5720 H   0  0  0  0  0  0  0  0  0  0  0  0
   41.8590   29.5000   42.6280 H   0  0  0  0  0  0  0  0  0  0  0  0
   41.2320   30.3310   40.4190 H   0  0  0  0  0  0  0  0  0  0  0  0
   38.4030   31.8140   44.5740 C   0  0  0  0  0  0  0  0  0  0  0  0
   37.2830   32.3510   44.4290 O   0  0  0  0  0  0  0  0  0  0  0  0
   38.9410   31.5850   45.8820 N   0  0  0  0  0  0  0  0  0  0  0  0
   39.9240   31.3330   46.0610 H   0  0  0  0  0  0  0  0  0  0  0  0
   38.4080   31.1220   48.2710 C   0  0  2  0  0  0  0  0  0  0  0  0
   38.6280   32.5880   48.1540 C   0  0  0  0  0  0  0  0  0  0  0  0
   38.0590   31.7160   47.0200 C   0  0  1  0  0  0  0  0  0  0  0  0
   39.3350   30.5180   48.3770 H   0  0  0  0  0  0  0  0  0  0  0  0
   37.9290   33.2350   48.7200 H   0  0  0  0  0  0  0  0  0  0  0  0
   39.6500   32.9450   48.0940 H   0  0  0  0  0  0  0  0  0  0  0  0
   36.9940   31.9760   46.8020 H   0  0  0  0  0  0  0  0  0  0  0  0
   35.0380   30.2130   49.5430 C   0  0  0  0  0  0  0  0  0  0  0  0
   35.3600   29.5840   50.7870 C   0  0  0  0  0  0  0  0  0  0  0  0
   36.7570   29.4920   51.1720 C   0  0  0  0  0  0  0  0  0  0  0  0
   37.7070   30.0100   50.3330 N   0  0  0  0  0  0  0  0  0  0  0  0
   37.3190   30.5940   49.1650 C   0  0  0  0  0  0  0  0  0  0  0  0
   36.0000   30.7140   48.7390 N   0  0  0  0  0  0  0  0  0  0  0  0
   33.9860   30.2490   49.3110 H   0  0  0  0  0  0  0  0  0  0  0  0
   34.6030   29.1830   51.4390 H   0  0  0  0  0  0  0  0  0  0  0  0
   36.9910   29.0190   52.1010 H   0  0  0  0  0  0  0  0  0  0  0  0
   39.1670   31.9880   39.7460 C   0  0  0  0  0  0  0  0  0  0  0  0
   39.0030   33.2170   39.5630 O   0  0  0  0  0  0  0  0  0  0  0  0
   39.6070   31.2150   37.3790 C   0  0  0  0  0  3  0  0  0  0  0  0
   38.9510   31.0970   38.6130 C   0  0  0  0  0  0  0  0  0  0  0  0
   38.0600   30.0500   38.7010 C   0  0  0  0  0  0  0  0  0  0  0  0
   37.5480   29.9580   39.6700 H   0  0  0  0  0  0  0  0  0  0  0  0
   37.7470   29.1260   37.7330 C   0  0  0  0  0  0  0  0  0  0  0  0
   36.9020   28.0830   37.7250 N   0  0  0  0  0  0  0  0  0  0  0  0
   36.3040   27.7980   38.5310 H   0  0  0  0  0  0  0  0  0  0  0  0
   37.0320   27.5470   36.4730 C   0  0  0  0  0  0  0  0  0  0  0  0
   36.4660   26.6670   36.1420 H   0  0  0  0  0  0  0  0  0  0  0  0
   37.9480   28.2600   35.7340 C   0  0  0  0  0  3  0  0  0  0  0  0
   38.4240   29.2970   36.5460 C   0  0  0  0  0  0  0  0  0  0  0  0
   39.3370   30.3060   36.3460 C   0  0  0  0  0  3  0  0  0  0  0  0
  1  2  1  0  0  0  0
  1 10  1  0  0  0  0
  2  7  1  0  0  0  0
  3  8  1  0  0  0  0
  3  2  2  0  0  0  0
  4  3  1  0  0  0  0
  5  4  2  0  0  0  0
  5  6  1  0  0  0  0
  6  1  2  0  0  0  0
  9  4  1  0  0  0  0
 10 12  1  0  0  0  0
 11 10  2  0  0  0  0
 12 13  1  0  0  0  0
 12 16  1  0  0  0  0
 14 17  1  6  0  0  0
 14 25  1  0  0  0  0
 15 14  1  0  0  0  0
 15 18  1  0  0  0  0
 16 20  1  6  0  0  0
 16 15  1  0  0  0  0
 16 14  1  0  0  0  0
 19 15  1  0  0  0  0
 21 22  1  0  0  0  0
 22 23  2  0  0  0  0
 22 28  1  0  0  0  0
 23 29  1  0  0  0  0
 24 23  1  0  0  0  0
 25 24  2  0  0  0  0
 26 25  1  0  0  0  0
 26 21  2  0  0  0  0
 27 21  1  0  0  0  0
 30  5  1  0  0  0  0
 31 30  2  0  0  0  0
 32 33  1  0  0  0  0
 33 34  2  0  0  0  0
 33 30  1  0  0  0  0
 34 35  1  0  0  0  0
 36 34  1  0  0  0  0
 37 36  1  0  0  0  0
 37 38  1  0  0  0  0
 39 37  1  0  0  0  0
 40 39  1  0  0  0  0
 41 39  2  0  0  0  0
 41 42  1  0  0  0  0
 42 36  2  0  0  0  0
 43 42  1  0  0  0  0
 43 32  2  0  0  0  0
M  END
>  <minimizedAffinity>
-4.84784508

>  <minimizedRMSD>
0.930985987

$$$$
