
 OpenBabel03272508563D

 43 47  0  0  1  0  0  0  0  0999 V2000
   39.1280   31.4890   43.4140 C   0  0  0  0  0  0  0  0  0  0  0  0
   40.1200   30.5470   43.5690 C   0  0  0  0  0  0  0  0  0  0  0  0
   40.8420   30.1900   42.4550 C   0  0  0  0  0  0  0  0  0  0  0  0
   40.5350   30.7870   41.2520 C   0  0  0  0  0  0  0  0  0  0  0  0
   39.5410   31.7310   41.0900 C   0  0  0  0  0  0  0  0  0  0  0  0
   38.8590   32.0500   42.2130 N   0  0  0  0  0  0  0  0  0  0  0  0
   40.3630   30.0760   44.5110 H   0  0  0  0  0  0  0  0  0  0  0  0
   41.6410   29.4430   42.5430 H   0  0  0  0  0  0  0  0  0  0  0  0
   41.1270   30.4780   40.3910 H   0  0  0  0  0  0  0  0  0  0  0  0
   38.3390   31.8820   44.6010 C   0  0  0  0  0  0  0  0  0  0  0  0
   37.1880   32.3550   44.4790 O   0  0  0  0  0  0  0  0  0  0  0  0
   38.9250   31.7070   45.8970 N   0  0  0  0  0  0  0  0  0  0  0  0
   39.9260   31.5120   46.0520 H   0  0  0  0  0  0  0  0  0  0  0  0
   38.4260   31.1530   48.2730 C   0  0  2  0  0  0  0  0  0  0  0  0
   38.6850   32.6160   48.2170 C   0  0  0  0  0  0  0  0  0  0  0  0
   38.0700   31.8110   47.0570 C   0  0  1  0  0  0  0  0  0  0  0  0
   39.3370   30.5200   48.3340 H   0  0  0  0  0  0  0  0  0  0  0  0
   38.0160   33.2570   48.8250 H   0  0  0  0  0  0  0  0  0  0  0  0
   39.7150   32.9480   48.1510 H   0  0  0  0  0  0  0  0  0  0  0  0
   37.0080   32.1100   46.8730 H   0  0  0  0  0  0  0  0  0  0  0  0
   35.0600   30.2270   49.5450 C   0  0  0  0  0  0  0  0  0  0  0  0
   35.3870   29.5890   50.7840 C   0  0  0  0  0  0  0  0  0  0  0  0
   36.7840   29.4970   51.1660 C   0  0  0  0  0  0  0  0  0  0  0  0
   37.7320   30.0240   50.3280 N   0  0  0  0  0  0  0  0  0  0  0  0
   37.3400   30.6160   49.1660 C   0  0  0  0  0  0  0  0  0  0  0  0
   36.0200   30.7360   48.7430 N   0  0  0  0  0  0  0  0  0  0  0  0
   34.0080   30.2620   49.3150 H   0  0  0  0  0  0  0  0  0  0  0  0
   34.6320   29.1820   51.4340 H   0  0  0  0  0  0  0  0  0  0  0  0
   37.0210   29.0180   52.0900 H   0  0  0  0  0  0  0  0  0  0  0  0
   39.2150   32.3400   39.8110 C   0  0  0  0  0  0  0  0  0  0  0  0
   38.6150   33.4400   39.7820 O   0  0  0  0  0  0  0  0  0  0  0  0
   40.6860   32.0520   37.7740 C   0  0  0  0  0  3  0  0  0  0  0  0
   39.5570   31.7180   38.5370 C   0  0  0  0  0  0  0  0  0  0  0  0
   38.7620   30.7300   37.9980 C   0  0  0  0  0  0  0  0  0  0  0  0
   37.8790   30.4680   38.6000 H   0  0  0  0  0  0  0  0  0  0  0  0
   38.9470   30.0480   36.8200 C   0  0  0  0  0  0  0  0  0  0  0  0
   38.2360   29.0810   36.2190 N   0  0  0  0  0  0  0  0  0  0  0  0
   37.3550   28.6710   36.5990 H   0  0  0  0  0  0  0  0  0  0  0  0
   38.9270   28.8120   35.0710 C   0  0  0  0  0  0  0  0  0  0  0  0
   38.6020   28.0550   34.3460 H   0  0  0  0  0  0  0  0  0  0  0  0
   40.0460   29.6090   34.9810 C   0  0  0  0  0  3  0  0  0  0  0  0
   40.0720   30.4230   36.1190 C   0  0  0  0  0  0  0  0  0  0  0  0
   40.9370   31.3960   36.5610 C   0  0  0  0  0  3  0  0  0  0  0  0
  1  2  1  0  0  0  0
  1 10  1  0  0  0  0
  2  7  1  0  0  0  0
  3  8  1  0  0  0  0
  3  2  2  0  0  0  0
  4  3  1  0  0  0  0
  5  4  2  0  0  0  0
  5  6  1  0  0  0  0
  6  1  2  0  0  0  0
  9  4  1  0  0  0  0
 10 12  1  0  0  0  0
 11 10  2  0  0  0  0
 12 13  1  0  0  0  0
 12 16  1  0  0  0  0
 14 17  1  6  0  0  0
 14 25  1  0  0  0  0
 15 14  1  0  0  0  0
 15 18  1  0  0  0  0
 16 20  1  6  0  0  0
 16 15  1  0  0  0  0
 16 14  1  0  0  0  0
 19 15  1  0  0  0  0
 21 22  1  0  0  0  0
 22 23  2  0  0  0  0
 22 28  1  0  0  0  0
 23 29  1  0  0  0  0
 24 23  1  0  0  0  0
 25 24  2  0  0  0  0
 26 25  1  0  0  0  0
 26 21  2  0  0  0  0
 27 21  1  0  0  0  0
 30  5  1  0  0  0  0
 31 30  2  0  0  0  0
 32 33  1  0  0  0  0
 33 30  1  0  0  0  0
 34 33  2  0  0  0  0
 34 35  1  0  0  0  0
 36 34  1  0  0  0  0
 37 38  1  0  0  0  0
 37 36  1  0  0  0  0
 39 37  1  0  0  0  0
 40 39  1  0  0  0  0
 41 39  2  0  0  0  0
 41 42  1  0  0  0  0
 42 43  1  0  0  0  0
 42 36  2  0  0  0  0
 43 32  2  0  0  0  0
M  END
>  <minimizedAffinity>
-4.95407104

>  <minimizedRMSD>
0.771078646

$$$$
