
 OpenBabel03272508563D

 43 47  0  0  1  0  0  0  0  0999 V2000
   39.1420   31.4740   43.4240 C   0  0  0  0  0  0  0  0  0  0  0  0
   40.1370   30.5370   43.5860 C   0  0  0  0  0  0  0  0  0  0  0  0
   40.8610   30.1740   42.4750 C   0  0  0  0  0  0  0  0  0  0  0  0
   40.5540   30.7630   41.2680 C   0  0  0  0  0  0  0  0  0  0  0  0
   39.5570   31.7030   41.0990 C   0  0  0  0  0  0  0  0  0  0  0  0
   38.8730   32.0270   42.2190 N   0  0  0  0  0  0  0  0  0  0  0  0
   40.3790   30.0720   44.5320 H   0  0  0  0  0  0  0  0  0  0  0  0
   41.6630   29.4310   42.5690 H   0  0  0  0  0  0  0  0  0  0  0  0
   41.1490   30.4510   40.4100 H   0  0  0  0  0  0  0  0  0  0  0  0
   38.3500   31.8720   44.6070 C   0  0  0  0  0  0  0  0  0  0  0  0
   37.2030   32.3520   44.4800 O   0  0  0  0  0  0  0  0  0  0  0  0
   38.9290   31.6930   45.9060 N   0  0  0  0  0  0  0  0  0  0  0  0
   39.9270   31.4910   46.0650 H   0  0  0  0  0  0  0  0  0  0  0  0
   38.4220   31.1540   48.2840 C   0  0  2  0  0  0  0  0  0  0  0  0
   38.6770   32.6170   48.2190 C   0  0  0  0  0  0  0  0  0  0  0  0
   38.0680   31.8030   47.0620 C   0  0  1  0  0  0  0  0  0  0  0  0
   39.3350   30.5240   48.3530 H   0  0  0  0  0  0  0  0  0  0  0  0
   38.0040   33.2600   48.8190 H   0  0  0  0  0  0  0  0  0  0  0  0
   39.7070   32.9510   48.1540 H   0  0  0  0  0  0  0  0  0  0  0  0
   37.0070   32.0970   46.8720 H   0  0  0  0  0  0  0  0  0  0  0  0
   35.0530   30.2320   49.5520 C   0  0  0  0  0  0  0  0  0  0  0  0
   35.3770   29.5980   50.7930 C   0  0  0  0  0  0  0  0  0  0  0  0
   36.7740   29.5070   51.1780 C   0  0  0  0  0  0  0  0  0  0  0  0
   37.7230   30.0310   50.3410 N   0  0  0  0  0  0  0  0  0  0  0  0
   37.3340   30.6190   49.1760 C   0  0  0  0  0  0  0  0  0  0  0  0
   36.0140   30.7380   48.7500 N   0  0  0  0  0  0  0  0  0  0  0  0
   34.0020   30.2660   49.3190 H   0  0  0  0  0  0  0  0  0  0  0  0
   34.6210   29.1930   51.4430 H   0  0  0  0  0  0  0  0  0  0  0  0
   37.0090   29.0310   52.1040 H   0  0  0  0  0  0  0  0  0  0  0  0
   39.2310   32.3020   39.8150 C   0  0  0  0  0  0  0  0  0  0  0  0
   38.6220   33.3970   39.7790 O   0  0  0  0  0  0  0  0  0  0  0  0
   38.8850   30.6060   37.9710 C   0  0  0  0  0  3  0  0  0  0  0  0
   39.5840   31.6780   38.5460 C   0  0  0  0  0  0  0  0  0  0  0  0
   40.6630   32.1270   37.8150 C   0  0  0  0  0  0  0  0  0  0  0  0
   41.2080   32.9700   38.2670 H   0  0  0  0  0  0  0  0  0  0  0  0
   41.1230   31.6540   36.6110 C   0  0  0  0  0  0  0  0  0  0  0  0
   42.1510   32.0230   35.8330 N   0  0  0  0  0  0  0  0  0  0  0  0
   42.8140   32.7970   36.0530 H   0  0  0  0  0  0  0  0  0  0  0  0
   42.0930   31.1720   34.7630 C   0  0  0  0  0  0  0  0  0  0  0  0
   42.8100   31.2120   33.9320 H   0  0  0  0  0  0  0  0  0  0  0  0
   41.0390   30.2980   34.8960 C   0  0  0  0  0  3  0  0  0  0  0  0
   40.3930   30.6030   36.1010 C   0  0  0  0  0  0  0  0  0  0  0  0
   39.2980   30.0720   36.7430 C   0  0  0  0  0  3  0  0  0  0  0  0
  1  2  1  0  0  0  0
  1 10  1  0  0  0  0
  2  7  1  0  0  0  0
  3  8  1  0  0  0  0
  3  2  2  0  0  0  0
  4  3  1  0  0  0  0
  5  4  2  0  0  0  0
  5  6  1  0  0  0  0
  6  1  2  0  0  0  0
  9  4  1  0  0  0  0
 10 12  1  0  0  0  0
 11 10  2  0  0  0  0
 12 13  1  0  0  0  0
 12 16  1  0  0  0  0
 14 17  1  6  0  0  0
 14 25  1  0  0  0  0
 15 14  1  0  0  0  0
 15 18  1  0  0  0  0
 16 20  1  6  0  0  0
 16 15  1  0  0  0  0
 16 14  1  0  0  0  0
 19 15  1  0  0  0  0
 21 22  1  0  0  0  0
 22 23  2  0  0  0  0
 22 28  1  0  0  0  0
 23 29  1  0  0  0  0
 24 23  1  0  0  0  0
 25 24  2  0  0  0  0
 26 25  1  0  0  0  0
 26 21  2  0  0  0  0
 27 21  1  0  0  0  0
 30  5  1  0  0  0  0
 31 30  2  0  0  0  0
 32 33  1  0  0  0  0
 33 30  1  0  0  0  0
 34 35  1  0  0  0  0
 34 33  2  0  0  0  0
 36 34  1  0  0  0  0
 37 38  1  0  0  0  0
 37 36  1  0  0  0  0
 39 41  2  0  0  0  0
 39 37  1  0  0  0  0
 40 39  1  0  0  0  0
 41 42  1  0  0  0  0
 42 36  2  0  0  0  0
 42 43  1  0  0  0  0
 43 32  2  0  0  0  0
M  END
>  <minimizedAffinity>
-4.98900175

>  <minimizedRMSD>
1.28359258

$$$$
