
 OpenBabel03272508593D

 43 47  0  0  1  0  0  0  0  0999 V2000
   36.1260   23.4220   31.5180 C   0  0  0  0  0  0  0  0  0  0  0  0
   35.3240   22.4270   31.0060 C   0  0  0  0  0  0  0  0  0  0  0  0
   35.7240   21.1250   31.1940 C   0  0  0  0  0  0  0  0  0  0  0  0
   36.8960   20.8880   31.8790 C   0  0  0  0  0  0  0  0  0  0  0  0
   37.7040   21.8820   32.3940 C   0  0  0  0  0  0  0  0  0  0  0  0
   37.2700   23.1450   32.1840 N   0  0  0  0  0  0  0  0  0  0  0  0
   34.4050   22.6090   30.4680 H   0  0  0  0  0  0  0  0  0  0  0  0
   35.1090   20.3060   30.8010 H   0  0  0  0  0  0  0  0  0  0  0  0
   37.1810   19.8440   32.0080 H   0  0  0  0  0  0  0  0  0  0  0  0
   35.7140   24.8280   31.3210 C   0  0  0  0  0  0  0  0  0  0  0  0
   34.5910   25.1080   30.8470 O   0  0  0  0  0  0  0  0  0  0  0  0
   36.6320   25.8660   31.6870 N   0  0  0  0  0  0  0  0  0  0  0  0
   37.6290   25.7020   31.8930 H   0  0  0  0  0  0  0  0  0  0  0  0
   36.4200   28.0170   32.9230 C   0  0  2  0  0  0  0  0  0  0  0  0
   37.2430   28.2930   31.7160 C   0  0  0  0  0  0  0  0  0  0  0  0
   36.1380   27.2210   31.7720 C   0  0  1  0  0  0  0  0  0  0  0  0
   36.9830   27.5960   33.7850 H   0  0  0  0  0  0  0  0  0  0  0  0
   37.0290   29.2400   31.1820 H   0  0  0  0  0  0  0  0  0  0  0  0
   38.2840   27.9900   31.7300 H   0  0  0  0  0  0  0  0  0  0  0  0
   35.2800   27.4860   31.1060 H   0  0  0  0  0  0  0  0  0  0  0  0
   33.3110   30.0410   33.1150 C   0  0  0  0  0  0  0  0  0  0  0  0
   33.5550   30.8340   34.2800 C   0  0  0  0  0  0  0  0  0  0  0  0
   34.8130   30.6580   34.9840 C   0  0  0  0  0  0  0  0  0  0  0  0
   35.7130   29.7430   34.5050 N   0  0  0  0  0  0  0  0  0  0  0  0
   35.4050   29.0260   33.3890 C   0  0  0  0  0  0  0  0  0  0  0  0
   34.2190   29.1480   32.6700 N   0  0  0  0  0  0  0  0  0  0  0  0
   32.3600   30.2150   32.6380 H   0  0  0  0  0  0  0  0  0  0  0  0
   32.8410   31.5520   34.6450 H   0  0  0  0  0  0  0  0  0  0  0  0
   34.9880   31.2520   35.8540 H   0  0  0  0  0  0  0  0  0  0  0  0
   38.9490   21.6180   33.0980 C   0  0  0  0  0  0  0  0  0  0  0  0
   39.8560   20.9670   32.5290 O   0  0  0  0  0  0  0  0  0  0  0  0
   40.4640   22.3810   34.9740 C   0  0  0  0  0  3  0  0  0  0  0  0
   39.1930   22.0830   34.4580 C   0  0  0  0  0  0  0  0  0  0  0  0
   38.1500   22.2650   35.3390 C   0  0  0  0  0  0  0  0  0  0  0  0
   37.1540   22.0350   34.9310 H   0  0  0  0  0  0  0  0  0  0  0  0
   38.2130   22.6970   36.6410 C   0  0  0  0  0  0  0  0  0  0  0  0
   37.2620   22.9040   37.5670 N   0  0  0  0  0  0  0  0  0  0  0  0
   36.2410   22.7510   37.4130 H   0  0  0  0  0  0  0  0  0  0  0  0
   37.9470   23.3330   38.6700 C   0  0  0  0  0  0  0  0  0  0  0  0
   37.4510   23.5900   39.6150 H   0  0  0  0  0  0  0  0  0  0  0  0
   39.2980   23.3840   38.4120 C   0  0  0  0  0  3  0  0  0  0  0  0
   39.4860   22.9720   37.0860 C   0  0  0  0  0  0  0  0  0  0  0  0
   40.6020   22.8270   36.2950 C   0  0  0  0  0  3  0  0  0  0  0  0
  1  6  1  0  0  0  0
  2  3  1  0  0  0  0
  2  1  2  0  0  0  0
  3  4  2  0  0  0  0
  4  9  1  0  0  0  0
  4  5  1  0  0  0  0
  5 30  1  0  0  0  0
  6  5  2  0  0  0  0
  7  2  1  0  0  0  0
  8  3  1  0  0  0  0
 10  1  1  0  0  0  0
 10 12  1  0  0  0  0
 11 10  2  0  0  0  0
 12 16  1  0  0  0  0
 12 13  1  0  0  0  0
 14 25  1  0  0  0  0
 14 17  1  1  0  0  0
 15 19  1  0  0  0  0
 15 16  1  0  0  0  0
 15 14  1  0  0  0  0
 16 20  1  6  0  0  0
 16 14  1  0  0  0  0
 18 15  1  0  0  0  0
 21 22  1  0  0  0  0
 22 28  1  0  0  0  0
 22 23  2  0  0  0  0
 23 29  1  0  0  0  0
 24 23  1  0  0  0  0
 25 24  2  0  0  0  0
 26 21  2  0  0  0  0
 26 25  1  0  0  0  0
 27 21  1  0  0  0  0
 30 33  1  0  0  0  0
 31 30  2  0  0  0  0
 32 43  1  0  0  0  0
 33 32  2  0  0  0  0
 33 34  1  0  0  0  0
 34 36  2  0  0  0  0
 35 34  1  0  0  0  0
 36 42  1  0  0  0  0
 36 37  1  0  0  0  0
 37 39  1  0  0  0  0
 38 37  1  0  0  0  0
 39 40  1  0  0  0  0
 41 39  2  0  0  0  0
 42 41  1  0  0  0  0
 43 42  2  0  0  0  0
M  END
>  <minimizedAffinity>
-6.43120146

$$$$

 OpenBabel03272508593D

 43 47  0  0  1  0  0  0  0  0999 V2000
   36.6570   25.5020   32.1050 C   0  0  0  0  0  0  0  0  0  0  0  0
   36.1000   26.6450   31.5790 C   0  0  0  0  0  0  0  0  0  0  0  0
   36.1970   27.8020   32.3160 C   0  0  0  0  0  0  0  0  0  0  0  0
   36.8410   27.7550   33.5330 C   0  0  0  0  0  0  0  0  0  0  0  0
   37.4010   26.6110   34.0670 C   0  0  0  0  0  0  0  0  0  0  0  0
   37.2810   25.5000   33.3060 N   0  0  0  0  0  0  0  0  0  0  0  0
   35.5940   26.6860   30.6250 H   0  0  0  0  0  0  0  0  0  0  0  0
   35.7650   28.7320   31.9260 H   0  0  0  0  0  0  0  0  0  0  0  0
   36.8970   28.6900   34.0900 H   0  0  0  0  0  0  0  0  0  0  0  0
   36.5580   24.2490   31.3280 C   0  0  0  0  0  0  0  0  0  0  0  0
   37.3420   24.0170   30.3810 O   0  0  0  0  0  0  0  0  0  0  0  0
   35.5430   23.3030   31.6850 N   0  0  0  0  0  0  0  0  0  0  0  0
   34.7550   23.5190   32.3140 H   0  0  0  0  0  0  0  0  0  0  0  0
   36.4880   20.9990   31.7210 C   0  0  2  0  0  0  0  0  0  0  0  0
   35.0440   20.8780   32.0530 C   0  0  0  0  0  0  0  0  0  0  0  0
   35.6210   21.9700   31.1330 C   0  0  1  0  0  0  0  0  0  0  0  0
   37.1430   21.2640   32.5780 H   0  0  0  0  0  0  0  0  0  0  0  0
   34.5020   20.0310   31.5870 H   0  0  0  0  0  0  0  0  0  0  0  0
   34.7300   21.1360   33.0580 H   0  0  0  0  0  0  0  0  0  0  0  0
   35.2700   21.8410   30.0790 H   0  0  0  0  0  0  0  0  0  0  0  0
   37.0630   18.6060   28.9380 C   0  0  0  0  0  0  0  0  0  0  0  0
   38.3810   18.1340   29.2320 C   0  0  0  0  0  0  0  0  0  0  0  0
   39.0530   18.6540   30.4100 C   0  0  0  0  0  0  0  0  0  0  0  0
   38.4010   19.5710   31.1890 N   0  0  0  0  0  0  0  0  0  0  0  0
   37.1460   19.9700   30.8420 C   0  0  0  0  0  0  0  0  0  0  0  0
   36.4480   19.5110   29.7280 N   0  0  0  0  0  0  0  0  0  0  0  0
   36.6170   18.1860   28.0510 H   0  0  0  0  0  0  0  0  0  0  0  0
   38.8820   17.4110   28.6120 H   0  0  0  0  0  0  0  0  0  0  0  0
   40.0380   18.2990   30.6220 H   0  0  0  0  0  0  0  0  0  0  0  0
   38.0610   26.5710   35.3620 C   0  0  0  0  0  0  0  0  0  0  0  0
   38.1680   27.6230   36.0360 O   0  0  0  0  0  0  0  0  0  0  0  0
   38.0090   24.6010   36.9470 C   0  0  0  0  0  3  0  0  0  0  0  0
   38.6140   25.3440   35.9220 C   0  0  0  0  0  0  0  0  0  0  0  0
   39.8020   24.8280   35.4530 C   0  0  0  0  0  0  0  0  0  0  0  0
   40.2730   25.4100   34.6470 H   0  0  0  0  0  0  0  0  0  0  0  0
   40.4480   23.6900   35.8690 C   0  0  0  0  0  0  0  0  0  0  0  0
   41.5960   23.1130   35.4760 N   0  0  0  0  0  0  0  0  0  0  0  0
   42.2200   23.4840   34.7270 H   0  0  0  0  0  0  0  0  0  0  0  0
   41.7070   22.0020   36.2660 C   0  0  0  0  0  0  0  0  0  0  0  0
   42.5510   21.3040   36.1930 H   0  0  0  0  0  0  0  0  0  0  0  0
   40.6370   21.9100   37.1260 C   0  0  0  0  0  3  0  0  0  0  0  0
   39.8040   23.0080   36.8760 C   0  0  0  0  0  0  0  0  0  0  0  0
   38.6130   23.4290   37.4200 C   0  0  0  0  0  3  0  0  0  0  0  0
  1  6  1  0  0  0  0
  2  1  2  0  0  0  0
  2  3  1  0  0  0  0
  3  4  2  0  0  0  0
  4  5  1  0  0  0  0
  4  9  1  0  0  0  0
  5 30  1  0  0  0  0
  6  5  2  0  0  0  0
  7  2  1  0  0  0  0
  8  3  1  0  0  0  0
 10 12  1  0  0  0  0
 10  1  1  0  0  0  0
 11 10  2  0  0  0  0
 12 13  1  0  0  0  0
 14 15  1  0  0  0  0
 14 17  1  1  0  0  0
 15 19  1  0  0  0  0
 16 20  1  6  0  0  0
 16 12  1  0  0  0  0
 16 14  1  0  0  0  0
 16 15  1  0  0  0  0
 18 15  1  0  0  0  0
 21 22  2  0  0  0  0
 21 26  1  0  0  0  0
 22 23  1  0  0  0  0
 23 29  1  0  0  0  0
 23 24  2  0  0  0  0
 25 24  1  0  0  0  0
 25 14  1  0  0  0  0
 26 25  2  0  0  0  0
 27 21  1  0  0  0  0
 28 22  1  0  0  0  0
 30 33  1  0  0  0  0
 30 31  2  0  0  0  0
 32 43  1  0  0  0  0
 33 32  2  0  0  0  0
 34 36  2  0  0  0  0
 34 33  1  0  0  0  0
 35 34  1  0  0  0  0
 36 42  1  0  0  0  0
 37 36  1  0  0  0  0
 37 39  1  0  0  0  0
 38 37  1  0  0  0  0
 39 41  2  0  0  0  0
 40 39  1  0  0  0  0
 42 41  1  0  0  0  0
 42 43  2  0  0  0  0
M  END
>  <minimizedAffinity>
-6.40676928

$$$$

 OpenBabel03272508593D

 43 47  0  0  1  0  0  0  0  0999 V2000
   36.4540   27.9030   32.6520 C   0  0  0  0  0  0  0  0  0  0  0  0
   36.3040   28.4580   31.4010 C   0  0  0  0  0  0  0  0  0  0  0  0
   35.7860   29.7290   31.3230 C   0  0  0  0  0  0  0  0  0  0  0  0
   35.4480   30.3750   32.4920 C   0  0  0  0  0  0  0  0  0  0  0  0
   35.5970   29.8240   33.7500 C   0  0  0  0  0  0  0  0  0  0  0  0
   36.1090   28.5730   33.7750 N   0  0  0  0  0  0  0  0  0  0  0  0
   36.5670   27.9540   30.4820 H   0  0  0  0  0  0  0  0  0  0  0  0
   35.6540   30.2020   30.3420 H   0  0  0  0  0  0  0  0  0  0  0  0
   35.0410   31.3810   32.3920 H   0  0  0  0  0  0  0  0  0  0  0  0
   37.0050   26.5350   32.7530 C   0  0  0  0  0  0  0  0  0  0  0  0
   37.7370   26.2070   33.7120 O   0  0  0  0  0  0  0  0  0  0  0  0
   36.6790   25.5910   31.7250 N   0  0  0  0  0  0  0  0  0  0  0  0
   36.2510   25.8510   30.8230 H   0  0  0  0  0  0  0  0  0  0  0  0
   36.3520   23.1900   31.1510 C   0  0  2  0  0  0  0  0  0  0  0  0
   37.7650   23.5220   30.8290 C   0  0  0  0  0  0  0  0  0  0  0  0
   36.9650   24.1940   31.9600 C   0  0  1  0  0  0  0  0  0  0  0  0
   35.6180   23.4620   30.3620 H   0  0  0  0  0  0  0  0  0  0  0  0
   38.5220   22.7610   31.1030 H   0  0  0  0  0  0  0  0  0  0  0  0
   37.9630   24.0700   29.9140 H   0  0  0  0  0  0  0  0  0  0  0  0
   37.3780   23.9280   32.9640 H   0  0  0  0  0  0  0  0  0  0  0  0
   35.5290   19.5820   31.4760 C   0  0  0  0  0  0  0  0  0  0  0  0
   35.4430   19.4330   32.8960 C   0  0  0  0  0  0  0  0  0  0  0  0
   35.6660   20.6030   33.7270 C   0  0  0  0  0  0  0  0  0  0  0  0
   35.9480   21.7980   33.1200 N   0  0  0  0  0  0  0  0  0  0  0  0
   36.0120   21.8570   31.7610 C   0  0  0  0  0  0  0  0  0  0  0  0
   35.8090   20.7750   30.9100 N   0  0  0  0  0  0  0  0  0  0  0  0
   35.3570   18.6790   30.9130 H   0  0  0  0  0  0  0  0  0  0  0  0
   35.2170   18.4890   33.3600 H   0  0  0  0  0  0  0  0  0  0  0  0
   35.6020   20.4850   34.7860 H   0  0  0  0  0  0  0  0  0  0  0  0
   35.2180   30.5100   34.9740 C   0  0  0  0  0  0  0  0  0  0  0  0
   36.0850   31.1360   35.6280 O   0  0  0  0  0  0  0  0  0  0  0  0
   33.3840   31.3540   36.4980 C   0  0  0  0  0  3  0  0  0  0  0  0
   33.8530   30.5010   35.4870 C   0  0  0  0  0  0  0  0  0  0  0  0
   32.9160   29.6250   34.9840 C   0  0  0  0  0  0  0  0  0  0  0  0
   33.2860   28.9590   34.1890 H   0  0  0  0  0  0  0  0  0  0  0  0
   31.6000   29.4950   35.3540 C   0  0  0  0  0  0  0  0  0  0  0  0
   30.6220   28.6800   34.9260 N   0  0  0  0  0  0  0  0  0  0  0  0
   30.7340   27.9600   34.1800 H   0  0  0  0  0  0  0  0  0  0  0  0
   29.5340   29.0280   35.6790 C   0  0  0  0  0  0  0  0  0  0  0  0
   28.5570   28.5400   35.5710 H   0  0  0  0  0  0  0  0  0  0  0  0
   29.8540   30.0430   36.5520 C   0  0  0  0  0  3  0  0  0  0  0  0
   31.2030   30.3600   36.3490 C   0  0  0  0  0  0  0  0  0  0  0  0
   32.0510   31.2770   36.9240 C   0  0  0  0  0  3  0  0  0  0  0  0
  1 10  1  0  0  0  0
  1  6  1  0  0  0  0
  2  1  2  0  0  0  0
  3  2  1  0  0  0  0
  3  4  2  0  0  0  0
  4  5  1  0  0  0  0
  5  6  2  0  0  0  0
  5 30  1  0  0  0  0
  7  2  1  0  0  0  0
  8  3  1  0  0  0  0
  9  4  1  0  0  0  0
 10 11  2  0  0  0  0
 12 16  1  0  0  0  0
 12 10  1  0  0  0  0
 13 12  1  0  0  0  0
 14 17  1  6  0  0  0
 14 25  1  0  0  0  0
 14 16  1  0  0  0  0
 15 18  1  0  0  0  0
 15 14  1  0  0  0  0
 15 16  1  0  0  0  0
 16 20  1  1  0  0  0
 19 15  1  0  0  0  0
 21 22  1  0  0  0  0
 22 28  1  0  0  0  0
 22 23  2  0  0  0  0
 23 29  1  0  0  0  0
 24 23  1  0  0  0  0
 25 24  2  0  0  0  0
 26 21  2  0  0  0  0
 26 25  1  0  0  0  0
 27 21  1  0  0  0  0
 30 33  1  0  0  0  0
 30 31  2  0  0  0  0
 32 43  1  0  0  0  0
 33 32  2  0  0  0  0
 34 36  2  0  0  0  0
 34 33  1  0  0  0  0
 35 34  1  0  0  0  0
 36 42  1  0  0  0  0
 37 36  1  0  0  0  0
 37 39  1  0  0  0  0
 38 37  1  0  0  0  0
 39 41  2  0  0  0  0
 40 39  1  0  0  0  0
 42 41  1  0  0  0  0
 42 43  2  0  0  0  0
M  END
>  <minimizedAffinity>
-6.28427315

$$$$

 OpenBabel03272508593D

 43 47  0  0  1  0  0  0  0  0999 V2000
   37.5170   27.5540   32.2150 C   0  0  0  0  0  0  0  0  0  0  0  0
   37.8370   28.0880   30.9870 C   0  0  0  0  0  0  0  0  0  0  0  0
   37.0370   29.0960   30.5010 C   0  0  0  0  0  0  0  0  0  0  0  0
   35.9680   29.5130   31.2620 C   0  0  0  0  0  0  0  0  0  0  0  0
   35.6420   28.9810   32.4940 C   0  0  0  0  0  0  0  0  0  0  0  0
   36.4570   27.9940   32.9300 N   0  0  0  0  0  0  0  0  0  0  0  0
   38.6740   27.7620   30.3870 H   0  0  0  0  0  0  0  0  0  0  0  0
   37.2630   29.5450   29.5260 H   0  0  0  0  0  0  0  0  0  0  0  0
   35.3560   30.3130   30.8450 H   0  0  0  0  0  0  0  0  0  0  0  0
   38.3640   26.4670   32.7510 C   0  0  0  0  0  0  0  0  0  0  0  0
   39.3800   26.7210   33.4340 O   0  0  0  0  0  0  0  0  0  0  0  0
   37.9920   25.1120   32.4690 N   0  0  0  0  0  0  0  0  0  0  0  0
   37.2920   24.8450   31.7600 H   0  0  0  0  0  0  0  0  0  0  0  0
   38.0900   23.6300   34.4690 C   0  0  2  0  0  0  0  0  0  0  0  0
   37.8060   22.7580   33.2990 C   0  0  0  0  0  0  0  0  0  0  0  0
   38.6320   24.0540   33.2180 C   0  0  1  0  0  0  0  0  0  0  0  0
   37.1990   24.1320   34.9040 H   0  0  0  0  0  0  0  0  0  0  0  0
   38.3430   21.7890   33.2670 H   0  0  0  0  0  0  0  0  0  0  0  0
   36.7930   22.7430   32.9100 H   0  0  0  0  0  0  0  0  0  0  0  0
   39.7020   23.8400   32.9710 H   0  0  0  0  0  0  0  0  0  0  0  0
   39.5000   22.9440   37.8370 C   0  0  0  0  0  0  0  0  0  0  0  0
   40.7030   22.2430   37.5070 C   0  0  0  0  0  0  0  0  0  0  0  0
   41.0130   22.0250   36.1060 C   0  0  0  0  0  0  0  0  0  0  0  0
   40.1450   22.4980   35.1580 N   0  0  0  0  0  0  0  0  0  0  0  0
   39.0200   23.1560   35.5530 C   0  0  0  0  0  0  0  0  0  0  0  0
   38.6660   23.3970   36.8770 N   0  0  0  0  0  0  0  0  0  0  0  0
   39.3230   23.0720   38.8920 H   0  0  0  0  0  0  0  0  0  0  0  0
   41.3780   21.8780   38.2620 H   0  0  0  0  0  0  0  0  0  0  0  0
   41.9110   21.4990   35.8670 H   0  0  0  0  0  0  0  0  0  0  0  0
   34.4990   29.4180   33.2790 C   0  0  0  0  0  0  0  0  0  0  0  0
   33.3610   28.9580   33.0250 O   0  0  0  0  0  0  0  0  0  0  0  0
   35.8270   30.7360   34.9810 C   0  0  0  0  0  3  0  0  0  0  0  0
   34.6160   30.3830   34.3650 C   0  0  0  0  0  0  0  0  0  0  0  0
   33.5040   31.0280   34.8590 C   0  0  0  0  0  0  0  0  0  0  0  0
   32.5550   30.7530   34.3720 H   0  0  0  0  0  0  0  0  0  0  0  0
   33.4470   31.9580   35.8670 C   0  0  0  0  0  0  0  0  0  0  0  0
   32.4210   32.6340   36.4110 N   0  0  0  0  0  0  0  0  0  0  0  0
   31.4250   32.5380   36.1160 H   0  0  0  0  0  0  0  0  0  0  0  0
   32.9990   33.4130   37.3760 C   0  0  0  0  0  0  0  0  0  0  0  0
   32.4210   34.0940   38.0140 H   0  0  0  0  0  0  0  0  0  0  0  0
   34.3600   33.2090   37.4130 C   0  0  0  0  0  3  0  0  0  0  0  0
   34.6670   32.2600   36.4290 C   0  0  0  0  0  0  0  0  0  0  0  0
   35.8440   31.6790   36.0160 C   0  0  0  0  0  3  0  0  0  0  0  0
  1 10  1  0  0  0  0
  1  6  1  0  0  0  0
  2  1  2  0  0  0  0
  3  2  1  0  0  0  0
  3  4  2  0  0  0  0
  4  5  1  0  0  0  0
  5  6  2  0  0  0  0
  5 30  1  0  0  0  0
  7  2  1  0  0  0  0
  8  3  1  0  0  0  0
  9  4  1  0  0  0  0
 10 11  2  0  0  0  0
 12 10  1  0  0  0  0
 12 16  1  0  0  0  0
 13 12  1  0  0  0  0
 14 17  1  1  0  0  0
 14 25  1  0  0  0  0
 15 14  1  0  0  0  0
 16 20  1  6  0  0  0
 16 15  1  0  0  0  0
 16 14  1  0  0  0  0
 18 15  1  0  0  0  0
 19 15  1  0  0  0  0
 21 27  1  0  0  0  0
 22 21  1  0  0  0  0
 22 28  1  0  0  0  0
 23 22  2  0  0  0  0
 24 25  2  0  0  0  0
 24 23  1  0  0  0  0
 25 26  1  0  0  0  0
 26 21  2  0  0  0  0
 29 23  1  0  0  0  0
 30 33  1  0  0  0  0
 31 30  2  0  0  0  0
 32 43  1  0  0  0  0
 33 34  1  0  0  0  0
 33 32  2  0  0  0  0
 34 36  2  0  0  0  0
 35 34  1  0  0  0  0
 36 37  1  0  0  0  0
 36 42  1  0  0  0  0
 37 39  1  0  0  0  0
 38 37  1  0  0  0  0
 39 41  2  0  0  0  0
 39 40  1  0  0  0  0
 42 41  1  0  0  0  0
 43 42  2  0  0  0  0
M  END
>  <minimizedAffinity>
-6.23365259

$$$$

 OpenBabel03272508593D

 43 47  0  0  1  0  0  0  0  0999 V2000
   37.6340   26.8600   32.4770 C   0  0  0  0  0  0  0  0  0  0  0  0
   38.2860   27.4060   31.3950 C   0  0  0  0  0  0  0  0  0  0  0  0
   37.7860   28.5740   30.8700 C   0  0  0  0  0  0  0  0  0  0  0  0
   36.6670   29.1300   31.4500 C   0  0  0  0  0  0  0  0  0  0  0  0
   36.0080   28.5870   32.5350 C   0  0  0  0  0  0  0  0  0  0  0  0
   36.5370   27.4390   33.0150 N   0  0  0  0  0  0  0  0  0  0  0  0
   39.1640   26.9710   30.9370 H   0  0  0  0  0  0  0  0  0  0  0  0
   38.2820   29.0380   30.0080 H   0  0  0  0  0  0  0  0  0  0  0  0
   36.2990   30.0560   31.0070 H   0  0  0  0  0  0  0  0  0  0  0  0
   38.1550   25.6010   33.0510 C   0  0  0  0  0  0  0  0  0  0  0  0
   39.0940   24.9850   32.5010 O   0  0  0  0  0  0  0  0  0  0  0  0
   37.5600   25.1030   34.2550 N   0  0  0  0  0  0  0  0  0  0  0  0
   36.6690   25.4510   34.6410 H   0  0  0  0  0  0  0  0  0  0  0  0
   39.2040   24.3730   35.9780 C   0  0  2  0  0  0  0  0  0  0  0  0
   37.8600   23.9630   36.4630 C   0  0  0  0  0  0  0  0  0  0  0  0
   38.2410   24.0500   34.9740 C   0  0  1  0  0  0  0  0  0  0  0  0
   39.4750   25.4300   36.1910 H   0  0  0  0  0  0  0  0  0  0  0  0
   37.7920   22.9600   36.9300 H   0  0  0  0  0  0  0  0  0  0  0  0
   37.2220   24.7250   36.8980 H   0  0  0  0  0  0  0  0  0  0  0  0
   38.2490   23.0390   34.4960 H   0  0  0  0  0  0  0  0  0  0  0  0
   41.3480   21.6380   37.2910 C   0  0  0  0  0  0  0  0  0  0  0  0
   42.5340   21.8000   36.5070 C   0  0  0  0  0  0  0  0  0  0  0  0
   42.5740   22.8740   35.5300 C   0  0  0  0  0  0  0  0  0  0  0  0
   41.4790   23.6860   35.3990 N   0  0  0  0  0  0  0  0  0  0  0  0
   40.3870   23.4660   36.1830 C   0  0  0  0  0  0  0  0  0  0  0  0
   40.2860   22.4570   37.1360 N   0  0  0  0  0  0  0  0  0  0  0  0
   41.3770   20.8230   37.9960 H   0  0  0  0  0  0  0  0  0  0  0  0
   43.3890   21.1560   36.6220 H   0  0  0  0  0  0  0  0  0  0  0  0
   43.4610   22.9880   34.9470 H   0  0  0  0  0  0  0  0  0  0  0  0
   34.8160   29.1750   33.1250 C   0  0  0  0  0  0  0  0  0  0  0  0
   33.6870   28.8680   32.6770 O   0  0  0  0  0  0  0  0  0  0  0  0
   36.0570   30.4880   34.8950 C   0  0  0  0  0  3  0  0  0  0  0  0
   34.8760   30.1220   34.2320 C   0  0  0  0  0  0  0  0  0  0  0  0
   33.7330   30.7320   34.6990 C   0  0  0  0  0  0  0  0  0  0  0  0
   32.8080   30.4460   34.1750 H   0  0  0  0  0  0  0  0  0  0  0  0
   33.6210   31.6420   35.7220 C   0  0  0  0  0  0  0  0  0  0  0  0
   32.5630   32.2850   36.2430 N   0  0  0  0  0  0  0  0  0  0  0  0
   31.5800   32.1730   35.9120 H   0  0  0  0  0  0  0  0  0  0  0  0
   33.0900   33.0570   37.2410 C   0  0  0  0  0  0  0  0  0  0  0  0
   32.4760   33.7140   37.8700 H   0  0  0  0  0  0  0  0  0  0  0  0
   34.4530   32.8820   37.3210 C   0  0  0  0  0  3  0  0  0  0  0  0
   34.8140   31.9590   36.3310 C   0  0  0  0  0  0  0  0  0  0  0  0
   36.0170   31.4120   35.9480 C   0  0  0  0  0  3  0  0  0  0  0  0
  1  6  1  0  0  0  0
  1 10  1  0  0  0  0
  2  1  2  0  0  0  0
  3  2  1  0  0  0  0
  3  4  2  0  0  0  0
  4  5  1  0  0  0  0
  5  6  2  0  0  0  0
  5 30  1  0  0  0  0
  7  2  1  0  0  0  0
  8  3  1  0  0  0  0
  9  4  1  0  0  0  0
 10 12  1  0  0  0  0
 11 10  2  0  0  0  0
 12 13  1  0  0  0  0
 12 16  1  0  0  0  0
 14 25  1  0  0  0  0
 14 17  1  1  0  0  0
 14 15  1  0  0  0  0
 15 19  1  0  0  0  0
 15 18  1  0  0  0  0
 16 20  1  6  0  0  0
 16 14  1  0  0  0  0
 16 15  1  0  0  0  0
 21 27  1  0  0  0  0
 22 28  1  0  0  0  0
 22 21  2  0  0  0  0
 23 22  1  0  0  0  0
 24 23  2  0  0  0  0
 24 25  1  0  0  0  0
 25 26  2  0  0  0  0
 26 21  1  0  0  0  0
 29 23  1  0  0  0  0
 30 33  1  0  0  0  0
 31 30  2  0  0  0  0
 32 43  1  0  0  0  0
 33 34  1  0  0  0  0
 33 32  2  0  0  0  0
 34 36  2  0  0  0  0
 35 34  1  0  0  0  0
 36 37  1  0  0  0  0
 36 42  1  0  0  0  0
 37 39  1  0  0  0  0
 38 37  1  0  0  0  0
 39 41  2  0  0  0  0
 39 40  1  0  0  0  0
 42 41  1  0  0  0  0
 43 42  2  0  0  0  0
M  END
>  <minimizedAffinity>
-6.19726706

$$$$

 OpenBabel03272508593D

 43 47  0  0  1  0  0  0  0  0999 V2000
   36.2850   27.8420   31.9420 C   0  0  0  0  0  0  0  0  0  0  0  0
   36.7110   28.5750   30.8570 C   0  0  0  0  0  0  0  0  0  0  0  0
   36.1470   29.8130   30.6610 C   0  0  0  0  0  0  0  0  0  0  0  0
   35.1920   30.2500   31.5530 C   0  0  0  0  0  0  0  0  0  0  0  0
   34.7600   29.5190   32.6420 C   0  0  0  0  0  0  0  0  0  0  0  0
   35.3440   28.3090   32.7940 N   0  0  0  0  0  0  0  0  0  0  0  0
   37.4590   28.2340   30.1560 H   0  0  0  0  0  0  0  0  0  0  0  0
   36.4630   30.4240   29.8070 H   0  0  0  0  0  0  0  0  0  0  0  0
   34.7660   31.2350   31.3650 H   0  0  0  0  0  0  0  0  0  0  0  0
   36.8790   26.5060   32.1660 C   0  0  0  0  0  0  0  0  0  0  0  0
   37.7340   26.3250   33.0610 O   0  0  0  0  0  0  0  0  0  0  0  0
   36.4520   25.4220   31.3320 N   0  0  0  0  0  0  0  0  0  0  0  0
   35.9090   25.5460   30.4640 H   0  0  0  0  0  0  0  0  0  0  0  0
   36.3310   22.9620   30.9640 C   0  0  2  0  0  0  0  0  0  0  0  0
   37.7450   23.3630   30.7390 C   0  0  0  0  0  0  0  0  0  0  0  0
   36.8000   24.0760   31.7240 C   0  0  1  0  0  0  0  0  0  0  0  0
   35.6600   23.1090   30.0900 H   0  0  0  0  0  0  0  0  0  0  0  0
   38.5190   22.6850   31.1510 H   0  0  0  0  0  0  0  0  0  0  0  0
   37.9950   23.8390   29.7980 H   0  0  0  0  0  0  0  0  0  0  0  0
   37.1310   23.9300   32.7830 H   0  0  0  0  0  0  0  0  0  0  0  0
   35.6720   19.3530   31.5520 C   0  0  0  0  0  0  0  0  0  0  0  0
   35.4960   19.3210   32.9720 C   0  0  0  0  0  0  0  0  0  0  0  0
   35.6020   20.5670   33.7090 C   0  0  0  0  0  0  0  0  0  0  0  0
   35.8640   21.7210   33.0180 N   0  0  0  0  0  0  0  0  0  0  0  0
   36.0190   21.6680   31.6670 C   0  0  0  0  0  0  0  0  0  0  0  0
   35.9300   20.5080   30.9030 N   0  0  0  0  0  0  0  0  0  0  0  0
   35.5850   18.3980   31.0610 H   0  0  0  0  0  0  0  0  0  0  0  0
   35.2870   18.4080   33.5020 H   0  0  0  0  0  0  0  0  0  0  0  0
   35.4710   20.5360   34.7680 H   0  0  0  0  0  0  0  0  0  0  0  0
   33.7380   29.9850   33.5650 C   0  0  0  0  0  0  0  0  0  0  0  0
   32.5590   29.5770   33.4410 O   0  0  0  0  0  0  0  0  0  0  0  0
   35.2710   31.0380   35.2780 C   0  0  0  0  0  3  0  0  0  0  0  0
   34.0240   30.9200   34.6460 C   0  0  0  0  0  0  0  0  0  0  0  0
   33.0500   31.7730   35.1160 C   0  0  0  0  0  0  0  0  0  0  0  0
   32.0740   31.6820   34.6160 H   0  0  0  0  0  0  0  0  0  0  0  0
   33.1600   32.7080   36.1170 C   0  0  0  0  0  0  0  0  0  0  0  0
   32.2780   33.5750   36.6390 N   0  0  0  0  0  0  0  0  0  0  0  0
   31.2860   33.6710   36.3290 H   0  0  0  0  0  0  0  0  0  0  0  0
   32.9810   34.2370   37.6070 C   0  0  0  0  0  0  0  0  0  0  0  0
   32.5370   35.0240   38.2300 H   0  0  0  0  0  0  0  0  0  0  0  0
   34.2760   33.7740   37.6680 C   0  0  0  0  0  3  0  0  0  0  0  0
   34.4080   32.7730   36.6960 C   0  0  0  0  0  0  0  0  0  0  0  0
   35.4550   31.9710   36.3070 C   0  0  0  0  0  3  0  0  0  0  0  0
  1 10  1  0  0  0  0
  1  6  1  0  0  0  0
  2  1  2  0  0  0  0
  3  2  1  0  0  0  0
  3  4  2  0  0  0  0
  4  5  1  0  0  0  0
  5  6  2  0  0  0  0
  5 30  1  0  0  0  0
  7  2  1  0  0  0  0
  8  3  1  0  0  0  0
  9  4  1  0  0  0  0
 10 11  2  0  0  0  0
 12 16  1  0  0  0  0
 12 10  1  0  0  0  0
 13 12  1  0  0  0  0
 14 17  1  6  0  0  0
 14 25  1  0  0  0  0
 14 16  1  0  0  0  0
 15 14  1  0  0  0  0
 15 18  1  0  0  0  0
 15 16  1  0  0  0  0
 16 20  1  1  0  0  0
 19 15  1  0  0  0  0
 21 22  1  0  0  0  0
 22 28  1  0  0  0  0
 22 23  2  0  0  0  0
 23 29  1  0  0  0  0
 24 23  1  0  0  0  0
 25 24  2  0  0  0  0
 26 21  2  0  0  0  0
 26 25  1  0  0  0  0
 27 21  1  0  0  0  0
 30 33  1  0  0  0  0
 31 30  2  0  0  0  0
 32 43  1  0  0  0  0
 33 34  1  0  0  0  0
 33 32  2  0  0  0  0
 34 36  2  0  0  0  0
 35 34  1  0  0  0  0
 36 37  1  0  0  0  0
 36 42  1  0  0  0  0
 37 39  1  0  0  0  0
 38 37  1  0  0  0  0
 39 41  2  0  0  0  0
 39 40  1  0  0  0  0
 42 41  1  0  0  0  0
 43 42  2  0  0  0  0
M  END
>  <minimizedAffinity>
-6.14997053

$$$$

 OpenBabel03272508593D

 43 47  0  0  1  0  0  0  0  0999 V2000
   38.0920   25.9920   34.1570 C   0  0  0  0  0  0  0  0  0  0  0  0
   38.8070   26.2540   35.3040 C   0  0  0  0  0  0  0  0  0  0  0  0
   38.5510   27.4340   35.9620 C   0  0  0  0  0  0  0  0  0  0  0  0
   37.6000   28.2840   35.4410 C   0  0  0  0  0  0  0  0  0  0  0  0
   36.8800   28.0280   34.2920 C   0  0  0  0  0  0  0  0  0  0  0  0
   37.1670   26.8560   33.6810 N   0  0  0  0  0  0  0  0  0  0  0  0
   39.5540   25.5890   35.7140 H   0  0  0  0  0  0  0  0  0  0  0  0
   39.1020   27.6740   36.8790 H   0  0  0  0  0  0  0  0  0  0  0  0
   37.4250   29.2100   35.9890 H   0  0  0  0  0  0  0  0  0  0  0  0
   38.3570   24.7290   33.4360 C   0  0  0  0  0  0  0  0  0  0  0  0
   39.4020   24.0750   33.6490 O   0  0  0  0  0  0  0  0  0  0  0  0
   37.3890   24.2710   32.4840 N   0  0  0  0  0  0  0  0  0  0  0  0
   36.6180   24.8540   32.1250 H   0  0  0  0  0  0  0  0  0  0  0  0
   36.3950   22.3090   31.3160 C   0  0  2  0  0  0  0  0  0  0  0  0
   37.5050   22.8040   30.4590 C   0  0  0  0  0  0  0  0  0  0  0  0
   37.4950   22.9150   31.9950 C   0  0  1  0  0  0  0  0  0  0  0  0
   35.4320   22.8510   31.1900 H   0  0  0  0  0  0  0  0  0  0  0  0
   38.1470   22.0310   29.9930 H   0  0  0  0  0  0  0  0  0  0  0  0
   37.3280   23.6880   29.8570 H   0  0  0  0  0  0  0  0  0  0  0  0
   38.2880   22.2760   32.4550 H   0  0  0  0  0  0  0  0  0  0  0  0
   36.4220   18.6600   30.6170 C   0  0  0  0  0  0  0  0  0  0  0  0
   35.7660   18.1410   31.7770 C   0  0  0  0  0  0  0  0  0  0  0  0
   35.3120   19.0760   32.7910 C   0  0  0  0  0  0  0  0  0  0  0  0
   35.5290   20.4140   32.5960 N   0  0  0  0  0  0  0  0  0  0  0  0
   36.1610   20.8300   31.4640 C   0  0  0  0  0  0  0  0  0  0  0  0
   36.6200   19.9860   30.4560 N   0  0  0  0  0  0  0  0  0  0  0  0
   36.7380   17.9180   29.9020 H   0  0  0  0  0  0  0  0  0  0  0  0
   35.6000   17.0860   31.9170 H   0  0  0  0  0  0  0  0  0  0  0  0
   34.8250   18.6810   33.6550 H   0  0  0  0  0  0  0  0  0  0  0  0
   35.8930   28.9430   33.7430 C   0  0  0  0  0  0  0  0  0  0  0  0
   35.7800   29.0620   32.5010 O   0  0  0  0  0  0  0  0  0  0  0  0
   33.6360   29.5190   34.7300 C   0  0  0  0  0  3  0  0  0  0  0  0
   35.0140   29.7450   34.5860 C   0  0  0  0  0  0  0  0  0  0  0  0
   35.5090   30.8030   35.3160 C   0  0  0  0  0  0  0  0  0  0  0  0
   36.5900   30.9760   35.2040 H   0  0  0  0  0  0  0  0  0  0  0  0
   34.8190   31.6450   36.1530 C   0  0  0  0  0  0  0  0  0  0  0  0
   35.2110   32.6920   36.8990 N   0  0  0  0  0  0  0  0  0  0  0  0
   36.1900   33.0470   36.9530 H   0  0  0  0  0  0  0  0  0  0  0  0
   34.0660   33.1220   37.5110 C   0  0  0  0  0  0  0  0  0  0  0  0
   34.0460   33.9770   38.1990 H   0  0  0  0  0  0  0  0  0  0  0  0
   32.9950   32.3430   37.1380 C   0  0  0  0  0  3  0  0  0  0  0  0
   33.4740   31.3710   36.2500 C   0  0  0  0  0  0  0  0  0  0  0  0
   32.8700   30.3400   35.5680 C   0  0  0  0  0  3  0  0  0  0  0  0
  1  2  1  0  0  0  0
  2  7  1  0  0  0  0
  2  3  2  0  0  0  0
  3  8  1  0  0  0  0
  4  3  1  0  0  0  0
  4  9  1  0  0  0  0
  5  4  2  0  0  0  0
  6  1  2  0  0  0  0
  6  5  1  0  0  0  0
 10 11  2  0  0  0  0
 10  1  1  0  0  0  0
 12 10  1  0  0  0  0
 13 12  1  0  0  0  0
 14 17  1  6  0  0  0
 14 25  1  0  0  0  0
 14 16  1  0  0  0  0
 15 14  1  0  0  0  0
 15 16  1  0  0  0  0
 16 20  1  1  0  0  0
 16 12  1  0  0  0  0
 18 15  1  0  0  0  0
 19 15  1  0  0  0  0
 21 22  1  0  0  0  0
 22 28  1  0  0  0  0
 22 23  2  0  0  0  0
 23 29  1  0  0  0  0
 24 23  1  0  0  0  0
 25 24  2  0  0  0  0
 26 21  2  0  0  0  0
 26 25  1  0  0  0  0
 27 21  1  0  0  0  0
 30  5  1  0  0  0  0
 30 33  1  0  0  0  0
 31 30  2  0  0  0  0
 32 43  1  0  0  0  0
 33 32  2  0  0  0  0
 33 34  1  0  0  0  0
 34 36  2  0  0  0  0
 35 34  1  0  0  0  0
 36 42  1  0  0  0  0
 36 37  1  0  0  0  0
 37 38  1  0  0  0  0
 37 39  1  0  0  0  0
 39 40  1  0  0  0  0
 41 39  2  0  0  0  0
 42 41  1  0  0  0  0
 43 42  2  0  0  0  0
M  END
>  <minimizedAffinity>
-6.14700222

$$$$

 OpenBabel03272508593D

 43 47  0  0  1  0  0  0  0  0999 V2000
   36.7550   24.5640   32.3060 C   0  0  0  0  0  0  0  0  0  0  0  0
   35.7820   24.0730   31.4650 C   0  0  0  0  0  0  0  0  0  0  0  0
   34.9930   24.9820   30.8000 C   0  0  0  0  0  0  0  0  0  0  0  0
   35.2160   26.3250   31.0110 C   0  0  0  0  0  0  0  0  0  0  0  0
   36.1890   26.8240   31.8540 C   0  0  0  0  0  0  0  0  0  0  0  0
   36.9390   25.8920   32.4840 N   0  0  0  0  0  0  0  0  0  0  0  0
   35.6050   23.0200   31.2980 H   0  0  0  0  0  0  0  0  0  0  0  0
   34.2090   24.6260   30.1210 H   0  0  0  0  0  0  0  0  0  0  0  0
   34.5710   27.0160   30.4680 H   0  0  0  0  0  0  0  0  0  0  0  0
   37.6090   23.6010   33.0320 C   0  0  0  0  0  0  0  0  0  0  0  0
   37.9350   22.5120   32.5110 O   0  0  0  0  0  0  0  0  0  0  0  0
   38.0570   23.9440   34.3490 N   0  0  0  0  0  0  0  0  0  0  0  0
   37.6690   24.7240   34.9010 H   0  0  0  0  0  0  0  0  0  0  0  0
   39.9810   23.7360   35.9170 C   0  0  2  0  0  0  0  0  0  0  0  0
   38.9030   22.8550   36.4380 C   0  0  0  0  0  0  0  0  0  0  0  0
   39.1130   23.1560   34.9430 C   0  0  1  0  0  0  0  0  0  0  0  0
   39.8870   24.8060   36.2000 H   0  0  0  0  0  0  0  0  0  0  0  0
   39.2200   21.8670   36.8250 H   0  0  0  0  0  0  0  0  0  0  0  0
   38.0780   23.3200   36.9670 H   0  0  0  0  0  0  0  0  0  0  0  0
   39.4310   22.2410   34.3850 H   0  0  0  0  0  0  0  0  0  0  0  0
   42.9740   21.6000   36.4510 C   0  0  0  0  0  0  0  0  0  0  0  0
   44.0300   22.4810   36.0560 C   0  0  0  0  0  0  0  0  0  0  0  0
   43.6830   23.8190   35.6140 C   0  0  0  0  0  0  0  0  0  0  0  0
   42.3630   24.1850   35.5930 N   0  0  0  0  0  0  0  0  0  0  0  0
   41.4160   23.2880   35.9850 C   0  0  0  0  0  0  0  0  0  0  0  0
   41.6830   21.9920   36.4180 N   0  0  0  0  0  0  0  0  0  0  0  0
   43.2930   20.6200   36.7660 H   0  0  0  0  0  0  0  0  0  0  0  0
   45.0640   22.1820   36.0790 H   0  0  0  0  0  0  0  0  0  0  0  0
   44.4760   24.4710   35.3190 H   0  0  0  0  0  0  0  0  0  0  0  0
   36.4010   28.2440   32.0820 C   0  0  0  0  0  0  0  0  0  0  0  0
   37.3150   28.8410   31.4670 O   0  0  0  0  0  0  0  0  0  0  0  0
   34.1840   29.0780   32.9690 C   0  0  0  0  0  3  0  0  0  0  0  0
   35.5850   29.0190   33.0090 C   0  0  0  0  0  0  0  0  0  0  0  0
   36.1700   29.7580   34.0140 C   0  0  0  0  0  0  0  0  0  0  0  0
   37.2690   29.7070   34.0460 H   0  0  0  0  0  0  0  0  0  0  0  0
   35.5480   30.5310   34.9630 C   0  0  0  0  0  0  0  0  0  0  0  0
   36.0280   31.2780   35.9710 N   0  0  0  0  0  0  0  0  0  0  0  0
   37.0400   31.3880   36.1980 H   0  0  0  0  0  0  0  0  0  0  0  0
   34.9140   31.8090   36.5630 C   0  0  0  0  0  0  0  0  0  0  0  0
   34.9650   32.4770   37.4320 H   0  0  0  0  0  0  0  0  0  0  0  0
   33.7740   31.3860   35.9180 C   0  0  0  0  0  3  0  0  0  0  0  0
   34.1740   30.5470   34.8690 C   0  0  0  0  0  0  0  0  0  0  0  0
   33.4830   29.8480   33.9070 C   0  0  0  0  0  3  0  0  0  0  0  0
  1  6  1  0  0  0  0
  1 10  1  0  0  0  0
  2  1  2  0  0  0  0
  3  4  2  0  0  0  0
  3  2  1  0  0  0  0
  4  5  1  0  0  0  0
  5 30  1  0  0  0  0
  5  6  2  0  0  0  0
  7  2  1  0  0  0  0
  8  3  1  0  0  0  0
  9  4  1  0  0  0  0
 10 12  1  0  0  0  0
 11 10  2  0  0  0  0
 12 13  1  0  0  0  0
 12 16  1  0  0  0  0
 14 25  1  0  0  0  0
 14 17  1  1  0  0  0
 14 15  1  0  0  0  0
 15 18  1  0  0  0  0
 15 19  1  0  0  0  0
 16 20  1  6  0  0  0
 16 14  1  0  0  0  0
 16 15  1  0  0  0  0
 21 27  1  0  0  0  0
 22 28  1  0  0  0  0
 22 21  2  0  0  0  0
 23 22  1  0  0  0  0
 24 23  2  0  0  0  0
 24 25  1  0  0  0  0
 25 26  2  0  0  0  0
 26 21  1  0  0  0  0
 29 23  1  0  0  0  0
 30 33  1  0  0  0  0
 31 30  2  0  0  0  0
 32 33  2  0  0  0  0
 32 43  1  0  0  0  0
 33 34  1  0  0  0  0
 34 35  1  0  0  0  0
 34 36  2  0  0  0  0
 36 37  1  0  0  0  0
 37 38  1  0  0  0  0
 37 39  1  0  0  0  0
 39 40  1  0  0  0  0
 41 39  2  0  0  0  0
 42 36  1  0  0  0  0
 42 41  1  0  0  0  0
 43 42  2  0  0  0  0
M  END
>  <minimizedAffinity>
-5.93966579

$$$$

 OpenBabel03272508593D

 43 47  0  0  1  0  0  0  0  0999 V2000
   37.2920   27.6070   33.9350 C   0  0  0  0  0  0  0  0  0  0  0  0
   37.3210   27.4620   32.5660 C   0  0  0  0  0  0  0  0  0  0  0  0
   36.3680   28.1270   31.8320 C   0  0  0  0  0  0  0  0  0  0  0  0
   35.4410   28.8970   32.5010 C   0  0  0  0  0  0  0  0  0  0  0  0
   35.4070   29.0470   33.8730 C   0  0  0  0  0  0  0  0  0  0  0  0
   36.3640   28.3740   34.5510 N   0  0  0  0  0  0  0  0  0  0  0  0
   38.0460   26.8580   32.0390 H   0  0  0  0  0  0  0  0  0  0  0  0
   36.3620   28.0350   30.7390 H   0  0  0  0  0  0  0  0  0  0  0  0
   34.7010   29.4090   31.8870 H   0  0  0  0  0  0  0  0  0  0  0  0
   38.3080   26.8950   34.7390 C   0  0  0  0  0  0  0  0  0  0  0  0
   38.0030   26.3510   35.8230 O   0  0  0  0  0  0  0  0  0  0  0  0
   39.6520   26.8410   34.2470 N   0  0  0  0  0  0  0  0  0  0  0  0
   40.0040   27.4260   33.4740 H   0  0  0  0  0  0  0  0  0  0  0  0
   40.6070   24.5500   34.4500 C   0  0  2  0  0  0  0  0  0  0  0  0
   41.6900   25.4230   33.9260 C   0  0  0  0  0  0  0  0  0  0  0  0
   40.5740   25.9150   34.8660 C   0  0  1  0  0  0  0  0  0  0  0  0
   39.9010   24.1690   33.6810 H   0  0  0  0  0  0  0  0  0  0  0  0
   42.7010   25.2610   34.3510 H   0  0  0  0  0  0  0  0  0  0  0  0
   41.6630   25.6920   32.8760 H   0  0  0  0  0  0  0  0  0  0  0  0
   40.9820   26.2060   35.8650 H   0  0  0  0  0  0  0  0  0  0  0  0
   42.3390   21.7540   36.1780 C   0  0  0  0  0  0  0  0  0  0  0  0
   41.5120   21.5720   37.3310 C   0  0  0  0  0  0  0  0  0  0  0  0
   40.3490   22.4270   37.4880 C   0  0  0  0  0  0  0  0  0  0  0  0
   40.0900   23.3690   36.5280 N   0  0  0  0  0  0  0  0  0  0  0  0
   40.9260   23.4800   35.4590 C   0  0  0  0  0  0  0  0  0  0  0  0
   42.0550   22.6930   35.2510 N   0  0  0  0  0  0  0  0  0  0  0  0
   43.1880   21.0930   36.1190 H   0  0  0  0  0  0  0  0  0  0  0  0
   41.7250   20.8250   38.0770 H   0  0  0  0  0  0  0  0  0  0  0  0
   39.7370   22.2870   38.3520 H   0  0  0  0  0  0  0  0  0  0  0  0
   34.4120   29.8470   34.5670 C   0  0  0  0  0  0  0  0  0  0  0  0
   33.2760   29.3670   34.7920 O   0  0  0  0  0  0  0  0  0  0  0  0
   35.4810   32.1270   34.3300 C   0  0  0  0  0  3  0  0  0  0  0  0
   34.6770   31.2070   35.0210 C   0  0  0  0  0  0  0  0  0  0  0  0
   34.1290   31.6790   36.1930 C   0  0  0  0  0  0  0  0  0  0  0  0
   33.4960   30.9570   36.7310 H   0  0  0  0  0  0  0  0  0  0  0  0
   34.2770   32.9250   36.7520 C   0  0  0  0  0  0  0  0  0  0  0  0
   33.7870   33.4710   37.8770 N   0  0  0  0  0  0  0  0  0  0  0  0
   33.1640   32.9780   38.5520 H   0  0  0  0  0  0  0  0  0  0  0  0
   34.2920   34.7420   37.8880 C   0  0  0  0  0  0  0  0  0  0  0  0
   34.0770   35.4600   38.6890 H   0  0  0  0  0  0  0  0  0  0  0  0
   35.0790   34.9600   36.7800 C   0  0  0  0  0  3  0  0  0  0  0  0
   35.0770   33.7790   36.0260 C   0  0  0  0  0  0  0  0  0  0  0  0
   35.6760   33.4170   34.8420 C   0  0  0  0  0  3  0  0  0  0  0  0
  1  6  1  0  0  0  0
  1 10  1  0  0  0  0
  2  1  2  0  0  0  0
  3  4  2  0  0  0  0
  3  2  1  0  0  0  0
  4  5  1  0  0  0  0
  5  6  2  0  0  0  0
  5 30  1  0  0  0  0
  7  2  1  0  0  0  0
  8  3  1  0  0  0  0
  9  4  1  0  0  0  0
 10 11  2  0  0  0  0
 12 10  1  0  0  0  0
 12 16  1  0  0  0  0
 13 12  1  0  0  0  0
 14 17  1  6  0  0  0
 14 16  1  0  0  0  0
 14 25  1  0  0  0  0
 15 18  1  0  0  0  0
 15 14  1  0  0  0  0
 15 16  1  0  0  0  0
 16 20  1  1  0  0  0
 19 15  1  0  0  0  0
 21 22  1  0  0  0  0
 22 23  2  0  0  0  0
 22 28  1  0  0  0  0
 23 29  1  0  0  0  0
 24 23  1  0  0  0  0
 25 24  2  0  0  0  0
 26 25  1  0  0  0  0
 26 21  2  0  0  0  0
 27 21  1  0  0  0  0
 30 31  2  0  0  0  0
 30 33  1  0  0  0  0
 32 43  2  0  0  0  0
 32 33  1  0  0  0  0
 33 34  2  0  0  0  0
 34 35  1  0  0  0  0
 34 36  1  0  0  0  0
 36 37  1  0  0  0  0
 37 39  1  0  0  0  0
 37 38  1  0  0  0  0
 39 40  1  0  0  0  0
 41 39  2  0  0  0  0
 42 36  2  0  0  0  0
 42 41  1  0  0  0  0
 43 42  1  0  0  0  0
M  END
>  <minimizedAffinity>
-5.92173815

$$$$
