
 OpenBabel03272506083D

 47 51  0  0  0  0  0  0  0  0999 V2000
   34.1520   27.8860   49.0020 C   0  0  0  0  0  0  0  0  0  0  0  0
   34.2830   26.8120   49.3020 H   0  0  0  0  0  0  0  0  0  0  0  0
   34.9730   28.0880   48.2920 H   0  0  0  0  0  0  0  0  0  0  0  0
   32.8140   28.0290   48.3210 C   0  0  0  0  0  0  0  0  0  0  0  0
   32.7710   28.5940   47.0000 C   0  0  0  0  0  0  0  0  0  0  0  0
   31.0270   28.5390   46.6740 S   0  0  0  0  0  0  0  0  0  0  0  0
   30.5840   27.7770   48.3260 C   0  0  0  0  0  0  0  0  0  0  0  0
   31.6640   27.6880   48.8150 N   0  0  0  0  0  0  0  0  0  0  0  0
   29.3060   27.3870   48.9000 N   0  0  0  0  0  0  0  0  0  0  0  0
   28.3060   26.9560   47.9690 C   0  0  0  0  0  0  0  0  0  0  0  0
   26.9190   26.9560   48.5120 C   0  0  0  0  0  0  0  0  0  0  0  0
   26.8150   27.5400   49.8350 N   0  0  0  0  0  0  0  0  0  0  0  0
   27.7890   26.8470   50.6620 C   0  0  0  0  0  0  0  0  0  0  0  0
   29.1240   27.4520   50.3230 C   0  0  0  0  0  0  0  0  0  0  0  0
   33.5800   28.9350   46.4190 H   0  0  0  0  0  0  0  0  0  0  0  0
   28.5620   25.9390   47.5720 H   0  0  0  0  0  0  0  0  0  0  0  0
   28.3170   27.6380   47.0890 H   0  0  0  0  0  0  0  0  0  0  0  0
   26.5230   25.9090   48.6160 H   0  0  0  0  0  0  0  0  0  0  0  0
   26.1820   27.4450   47.8240 H   0  0  0  0  0  0  0  0  0  0  0  0
   26.9080   28.5620   49.8410 H   0  0  0  0  0  0  0  0  0  0  0  0
   27.7800   25.7810   50.4200 H   0  0  0  0  0  0  0  0  0  0  0  0
   27.5590   27.0660   51.7330 H   0  0  0  0  0  0  0  0  0  0  0  0
   29.1930   28.4900   50.7190 H   0  0  0  0  0  0  0  0  0  0  0  0
   29.9090   26.8560   50.8310 H   0  0  0  0  0  0  0  0  0  0  0  0
   34.2570   28.7390   50.1950 C   0  0  0  0  0  0  0  0  0  0  0  0
   34.2000   28.1420   51.1400 H   0  0  0  0  0  0  0  0  0  0  0  0
   33.4840   29.5170   50.2960 H   0  0  0  0  0  0  0  0  0  0  0  0
   37.4790   30.2040   51.3410 C   0  0  0  0  0  0  0  0  0  0  0  0
   37.9890   30.7500   50.1650 C   0  0  0  0  0  0  0  0  0  0  0  0
   37.2310   30.6130   49.0050 C   0  0  0  0  0  0  0  0  0  0  0  0
   36.0380   29.9550   49.0800 N   0  0  0  0  0  0  0  0  0  0  0  0
   35.5970   29.4470   50.2470 C   0  0  0  0  0  0  0  0  0  0  0  0
   36.2990   29.5630   51.3700 N   0  0  0  0  0  0  0  0  0  0  0  0
   38.0320   30.2840   52.2720 H   0  0  0  0  0  0  0  0  0  0  0  0
   38.9220   31.2510   50.1660 H   0  0  0  0  0  0  0  0  0  0  0  0
   37.1570   30.7970   46.5020 C   0  0  0  0  0  0  0  0  0  0  0  0
   37.6760   31.1500   47.7270 C   0  0  0  0  0  0  0  0  0  0  0  0
   38.6910   32.0820   47.6960 C   0  0  0  0  0  0  0  0  0  0  0  0
   39.1830   32.4450   48.5820 H   0  0  0  0  0  0  0  0  0  0  0  0
   39.1740   32.6440   46.5150 C   0  0  0  0  0  0  0  0  0  0  0  0
   40.1160   33.5400   46.1800 N   0  0  0  0  0  0  0  0  0  0  0  0
   40.7190   34.0220   46.8840 H   0  0  0  0  0  0  0  0  0  0  0  0
   40.1650   33.7180   44.8560 C   0  0  0  0  0  0  0  0  0  0  0  0
   40.8160   34.3720   44.2880 H   0  0  0  0  0  0  0  0  0  0  0  0
   39.2170   32.9090   44.2580 C   0  0  0  0  0  0  0  0  0  0  0  0
   38.6160   32.2520   45.3160 C   0  0  0  0  0  0  0  0  0  0  0  0
   37.6020   31.3240   45.3080 C   0  0  0  0  0  0  0  0  0  0  0  0
  1  2  1  0  0  0  0
  1 25  1  0  0  0  0
  3  1  1  0  0  0  0
  4  8  1  0  0  0  0
  4  1  1  0  0  0  0
  5  4  2  0  0  0  0
  6  5  1  0  0  0  0
  6  7  1  0  0  0  0
  7  8  2  0  0  0  0
  7  9  1  0  0  0  0
  9 14  1  0  0  0  0
 10 11  1  0  0  0  0
 10  9  1  0  0  0  0
 11 18  1  0  0  0  0
 11 12  1  0  0  0  0
 12 20  1  0  0  0  0
 12 13  1  0  0  0  0
 13 22  1  0  0  0  0
 14 13  1  0  0  0  0
 14 23  1  0  0  0  0
 14 24  1  0  0  0  0
 15  5  1  0  0  0  0
 16 10  1  0  0  0  0
 17 10  1  0  0  0  0
 19 11  1  0  0  0  0
 21 13  1  0  0  0  0
 25 32  1  0  0  0  0
 25 27  1  0  0  0  0
 25 26  1  0  0  0  0
 28 33  1  0  0  0  0
 28 34  1  0  0  0  0
 29 35  1  0  0  0  0
 29 28  2  0  0  0  0
 30 31  2  0  0  0  0
 30 29  1  0  0  0  0
 31 32  1  0  0  0  0
 32 33  2  0  0  0  0
 36 37  1  0  0  0  0
 37 30  1  0  0  0  0
 38 37  2  0  0  0  0
 38 39  1  0  0  0  0
 40 38  1  0  0  0  0
 41 40  1  0  0  0  0
 41 42  1  0  0  0  0
 43 41  1  0  0  0  0
 44 43  1  0  0  0  0
 45 43  2  0  0  0  0
 45 46  1  0  0  0  0
 46 40  2  0  0  0  0
 47 46  1  0  0  0  0
 47 36  2  0  0  0  0
M  END
>  <minimizedAffinity>
-8.46048069

>  <minimizedRMSD>
2.31258726

$$$$
