
 OpenBabel03272508563D

 43 47  0  0  1  0  0  0  0  0999 V2000
   39.1720   31.4560   43.3820 C   0  0  0  0  0  0  0  0  0  0  0  0
   40.1550   30.5050   43.5390 C   0  0  0  0  0  0  0  0  0  0  0  0
   40.8690   30.1330   42.4240 C   0  0  0  0  0  0  0  0  0  0  0  0
   40.5630   30.7270   41.2190 C   0  0  0  0  0  0  0  0  0  0  0  0
   39.5780   31.6800   41.0540 C   0  0  0  0  0  0  0  0  0  0  0  0
   38.9040   32.0130   42.1790 N   0  0  0  0  0  0  0  0  0  0  0  0
   40.3960   30.0370   44.4830 H   0  0  0  0  0  0  0  0  0  0  0  0
   41.6600   29.3790   42.5130 H   0  0  0  0  0  0  0  0  0  0  0  0
   41.1490   30.4070   40.3570 H   0  0  0  0  0  0  0  0  0  0  0  0
   38.3920   31.8640   44.5690 C   0  0  0  0  0  0  0  0  0  0  0  0
   37.2900   32.4420   44.4460 O   0  0  0  0  0  0  0  0  0  0  0  0
   38.9290   31.5810   45.8670 N   0  0  0  0  0  0  0  0  0  0  0  0
   39.9040   31.2920   46.0340 H   0  0  0  0  0  0  0  0  0  0  0  0
   38.4130   31.1040   48.2570 C   0  0  2  0  0  0  0  0  0  0  0  0
   38.6420   32.5690   48.1500 C   0  0  0  0  0  0  0  0  0  0  0  0
   38.0580   31.7090   47.0140 C   0  0  1  0  0  0  0  0  0  0  0  0
   39.3380   30.4930   48.3510 H   0  0  0  0  0  0  0  0  0  0  0  0
   37.9520   33.2170   48.7260 H   0  0  0  0  0  0  0  0  0  0  0  0
   39.6660   32.9200   48.0830 H   0  0  0  0  0  0  0  0  0  0  0  0
   36.9920   31.9770   46.8070 H   0  0  0  0  0  0  0  0  0  0  0  0
   35.0500   30.1940   49.5450 C   0  0  0  0  0  0  0  0  0  0  0  0
   35.3780   29.5670   50.7880 C   0  0  0  0  0  0  0  0  0  0  0  0
   36.7760   29.4760   51.1670 C   0  0  0  0  0  0  0  0  0  0  0  0
   37.7230   29.9930   50.3230 N   0  0  0  0  0  0  0  0  0  0  0  0
   37.3290   30.5760   49.1570 C   0  0  0  0  0  0  0  0  0  0  0  0
   36.0080   30.6940   48.7360 N   0  0  0  0  0  0  0  0  0  0  0  0
   33.9970   30.2290   49.3170 H   0  0  0  0  0  0  0  0  0  0  0  0
   34.6240   29.1660   51.4440 H   0  0  0  0  0  0  0  0  0  0  0  0
   37.0150   29.0040   52.0950 H   0  0  0  0  0  0  0  0  0  0  0  0
   39.2530   32.2850   39.7730 C   0  0  0  0  0  0  0  0  0  0  0  0
   38.6280   33.3710   39.7400 O   0  0  0  0  0  0  0  0  0  0  0  0
   38.9440   30.6010   37.9100 C   0  0  0  0  0  3  0  0  0  0  0  0
   39.6260   31.6750   38.5020 C   0  0  0  0  0  0  0  0  0  0  0  0
   40.7070   32.1430   37.7860 C   0  0  0  0  0  0  0  0  0  0  0  0
   41.2380   32.9870   38.2500 H   0  0  0  0  0  0  0  0  0  0  0  0
   41.1820   31.6850   36.5810 C   0  0  0  0  0  0  0  0  0  0  0  0
   42.2150   32.0710   35.8160 N   0  0  0  0  0  0  0  0  0  0  0  0
   42.8670   32.8510   36.0510 H   0  0  0  0  0  0  0  0  0  0  0  0
   42.1770   31.2290   34.7390 C   0  0  0  0  0  0  0  0  0  0  0  0
   42.9000   31.2840   33.9160 H   0  0  0  0  0  0  0  0  0  0  0  0
   41.1300   30.3430   34.8540 C   0  0  0  0  0  3  0  0  0  0  0  0
   40.4690   30.6300   36.0560 C   0  0  0  0  0  0  0  0  0  0  0  0
   39.3730   30.0830   36.6810 C   0  0  0  0  0  3  0  0  0  0  0  0
  1  2  1  0  0  0  0
  1 10  1  0  0  0  0
  2  7  1  0  0  0  0
  3  8  1  0  0  0  0
  3  2  2  0  0  0  0
  4  3  1  0  0  0  0
  5  4  2  0  0  0  0
  5  6  1  0  0  0  0
  6  1  2  0  0  0  0
  9  4  1  0  0  0  0
 10 12  1  0  0  0  0
 11 10  2  0  0  0  0
 12 13  1  0  0  0  0
 12 16  1  0  0  0  0
 14 17  1  6  0  0  0
 14 25  1  0  0  0  0
 15 14  1  0  0  0  0
 15 18  1  0  0  0  0
 16 20  1  6  0  0  0
 16 15  1  0  0  0  0
 16 14  1  0  0  0  0
 19 15  1  0  0  0  0
 21 22  1  0  0  0  0
 22 23  2  0  0  0  0
 22 28  1  0  0  0  0
 23 29  1  0  0  0  0
 24 23  1  0  0  0  0
 25 24  2  0  0  0  0
 26 25  1  0  0  0  0
 26 21  2  0  0  0  0
 27 21  1  0  0  0  0
 30  5  1  0  0  0  0
 31 30  2  0  0  0  0
 32 33  1  0  0  0  0
 33 30  1  0  0  0  0
 34 35  1  0  0  0  0
 34 33  2  0  0  0  0
 36 34  1  0  0  0  0
 37 38  1  0  0  0  0
 37 36  1  0  0  0  0
 39 41  2  0  0  0  0
 39 37  1  0  0  0  0
 40 39  1  0  0  0  0
 41 42  1  0  0  0  0
 42 36  2  0  0  0  0
 42 43  1  0  0  0  0
 43 32  2  0  0  0  0
M  END
>  <minimizedAffinity>
-4.99671268

>  <minimizedRMSD>
0.869955599

$$$$
