
 OpenBabel03272508563D

 43 47  0  0  1  0  0  0  0  0999 V2000
   39.1750   31.4540   43.3600 C   0  0  0  0  0  0  0  0  0  0  0  0
   40.1510   30.4960   43.5130 C   0  0  0  0  0  0  0  0  0  0  0  0
   40.8630   30.1240   42.3970 C   0  0  0  0  0  0  0  0  0  0  0  0
   40.5630   30.7260   41.1950 C   0  0  0  0  0  0  0  0  0  0  0  0
   39.5850   31.6870   41.0340 C   0  0  0  0  0  0  0  0  0  0  0  0
   38.9120   32.0190   42.1590 N   0  0  0  0  0  0  0  0  0  0  0  0
   40.3880   30.0220   44.4550 H   0  0  0  0  0  0  0  0  0  0  0  0
   41.6490   29.3640   42.4830 H   0  0  0  0  0  0  0  0  0  0  0  0
   41.1470   30.4060   40.3320 H   0  0  0  0  0  0  0  0  0  0  0  0
   38.3970   31.8620   44.5490 C   0  0  0  0  0  0  0  0  0  0  0  0
   37.2960   32.4430   44.4280 O   0  0  0  0  0  0  0  0  0  0  0  0
   38.9330   31.5750   45.8460 N   0  0  0  0  0  0  0  0  0  0  0  0
   39.9080   31.2820   46.0110 H   0  0  0  0  0  0  0  0  0  0  0  0
   38.4200   31.0970   48.2360 C   0  0  2  0  0  0  0  0  0  0  0  0
   38.6490   32.5620   48.1290 C   0  0  0  0  0  0  0  0  0  0  0  0
   38.0630   31.7030   46.9930 C   0  0  1  0  0  0  0  0  0  0  0  0
   39.3440   30.4860   48.3290 H   0  0  0  0  0  0  0  0  0  0  0  0
   37.9600   33.2100   48.7060 H   0  0  0  0  0  0  0  0  0  0  0  0
   39.6730   32.9130   48.0610 H   0  0  0  0  0  0  0  0  0  0  0  0
   36.9980   31.9720   46.7880 H   0  0  0  0  0  0  0  0  0  0  0  0
   35.0550   30.2030   49.5330 C   0  0  0  0  0  0  0  0  0  0  0  0
   35.3850   29.5600   50.7680 C   0  0  0  0  0  0  0  0  0  0  0  0
   36.7840   29.4530   51.1390 C   0  0  0  0  0  0  0  0  0  0  0  0
   37.7310   29.9710   50.2950 N   0  0  0  0  0  0  0  0  0  0  0  0
   37.3360   30.5690   49.1360 C   0  0  0  0  0  0  0  0  0  0  0  0
   36.0130   30.7040   48.7240 N   0  0  0  0  0  0  0  0  0  0  0  0
   34.0020   30.2500   49.3120 H   0  0  0  0  0  0  0  0  0  0  0  0
   34.6310   29.1600   51.4240 H   0  0  0  0  0  0  0  0  0  0  0  0
   37.0240   28.9700   52.0600 H   0  0  0  0  0  0  0  0  0  0  0  0
   39.2660   32.3000   39.7550 C   0  0  0  0  0  0  0  0  0  0  0  0
   38.6390   33.3850   39.7270 O   0  0  0  0  0  0  0  0  0  0  0  0
   40.8040   32.0350   37.7650 C   0  0  0  0  0  3  0  0  0  0  0  0
   39.6450   31.7000   38.4820 C   0  0  0  0  0  0  0  0  0  0  0  0
   38.8580   30.7330   37.8960 C   0  0  0  0  0  0  0  0  0  0  0  0
   37.9510   30.4690   38.4620 H   0  0  0  0  0  0  0  0  0  0  0  0
   39.0750   30.0730   36.7120 C   0  0  0  0  0  0  0  0  0  0  0  0
   38.3740   29.1270   36.0670 N   0  0  0  0  0  0  0  0  0  0  0  0
   37.4760   28.7180   36.4070 H   0  0  0  0  0  0  0  0  0  0  0  0
   39.1020   28.8710   34.9370 C   0  0  0  0  0  0  0  0  0  0  0  0
   38.7930   28.1340   34.1850 H   0  0  0  0  0  0  0  0  0  0  0  0
   40.2320   29.6570   34.9020 C   0  0  0  0  0  3  0  0  0  0  0  0
   40.2280   30.4470   36.0580 C   0  0  0  0  0  0  0  0  0  0  0  0
   41.0890   31.4010   36.5480 C   0  0  0  0  0  3  0  0  0  0  0  0
  1  2  1  0  0  0  0
  1 10  1  0  0  0  0
  2  7  1  0  0  0  0
  3  8  1  0  0  0  0
  3  2  2  0  0  0  0
  4  3  1  0  0  0  0
  5  4  2  0  0  0  0
  5  6  1  0  0  0  0
  6  1  2  0  0  0  0
  9  4  1  0  0  0  0
 10 12  1  0  0  0  0
 11 10  2  0  0  0  0
 12 13  1  0  0  0  0
 12 16  1  0  0  0  0
 14 17  1  6  0  0  0
 14 25  1  0  0  0  0
 15 14  1  0  0  0  0
 15 18  1  0  0  0  0
 16 20  1  6  0  0  0
 16 15  1  0  0  0  0
 16 14  1  0  0  0  0
 19 15  1  0  0  0  0
 21 22  1  0  0  0  0
 22 23  2  0  0  0  0
 22 28  1  0  0  0  0
 23 29  1  0  0  0  0
 24 23  1  0  0  0  0
 25 24  2  0  0  0  0
 26 25  1  0  0  0  0
 26 21  2  0  0  0  0
 27 21  1  0  0  0  0
 30  5  1  0  0  0  0
 31 30  2  0  0  0  0
 32 33  1  0  0  0  0
 33 30  1  0  0  0  0
 34 35  1  0  0  0  0
 34 33  2  0  0  0  0
 36 34  1  0  0  0  0
 37 38  1  0  0  0  0
 37 36  1  0  0  0  0
 39 37  1  0  0  0  0
 40 39  1  0  0  0  0
 41 39  2  0  0  0  0
 41 42  1  0  0  0  0
 42 43  1  0  0  0  0
 42 36  2  0  0  0  0
 43 32  2  0  0  0  0
M  END
>  <minimizedAffinity>
-4.96741533

>  <minimizedRMSD>
0.812824905

$$$$
