
 OpenBabel03272510253D

 48 53  0  0  1  0  0  0  0  0999 V2000
   39.4140   30.4990   42.4150 N   0  0  0  0  0  0  0  0  0  0  0  0
   39.7930   31.8270   41.9080 C   0  0  1  0  0  0  0  0  0  0  0  0
   39.1210   32.0530   40.6330 C   0  0  0  0  0  0  0  0  0  0  0  0
   39.6120   31.1240   39.6990 O   0  0  0  0  0  0  0  0  0  0  0  0
   39.5080   29.8180   40.0650 C   0  0  0  0  0  0  0  0  0  0  0  0
   39.9600   29.5450   41.4760 C   0  0  2  0  0  0  0  0  0  0  0  0
   39.9210   30.3860   43.3130 H   0  0  0  0  0  0  0  0  0  0  0  0
   40.8740   31.9100   41.7730 H   0  0  0  0  0  0  0  0  0  0  0  0
   38.0780   32.0550   40.4770 H   0  0  0  0  0  0  0  0  0  0  0  0
   39.5070   33.0400   40.2300 H   0  0  0  0  0  0  0  0  0  0  0  0
   40.1530   29.2240   39.4000 H   0  0  0  0  0  0  0  0  0  0  0  0
   38.4720   29.4610   39.9000 H   0  0  0  0  0  0  0  0  0  0  0  0
   41.0460   29.3940   41.5810 H   0  0  0  0  0  0  0  0  0  0  0  0
   37.9380   28.1530   41.4010 C   0  0  0  0  0  3  0  0  0  0  0  0
   39.2560   28.2590   41.8450 C   0  0  0  0  0  0  0  0  0  0  0  0
   39.8150   27.2230   42.5660 C   0  0  0  0  0  0  0  0  0  0  0  0
   40.8390   27.3570   42.8850 H   0  0  0  0  0  0  0  0  0  0  0  0
   39.0370   26.1030   42.8250 C   0  0  0  0  0  0  0  0  0  0  0  0
   39.3230   24.9830   43.4840 N   0  0  0  0  0  0  0  0  0  0  0  0
   40.2440   24.7710   43.9360 H   0  0  0  0  0  0  0  0  0  0  0  0
   38.2530   24.1650   43.4850 C   0  0  0  0  0  0  0  0  0  0  0  0
   38.2110   23.1910   43.9500 H   0  0  0  0  0  0  0  0  0  0  0  0
   37.2430   24.7930   42.7960 C   0  0  0  0  0  3  0  0  0  0  0  0
   37.7230   26.0200   42.3710 C   0  0  0  0  0  0  0  0  0  0  0  0
   37.1450   27.0440   41.6490 C   0  0  0  0  0  3  0  0  0  0  0  0
   39.3370   32.7200   42.9180 O   0  0  0  0  0  0  0  0  0  0  0  0
   35.8660   30.2330   46.9990 C   0  0  0  0  0  0  0  0  0  0  0  0
   36.9350   30.5840   47.8220 C   0  0  0  0  0  0  0  0  0  0  0  0
   38.0520   31.2260   47.3070 C   0  0  0  0  0  0  0  0  0  0  0  0
   38.0410   31.4940   45.9460 C   0  0  0  0  0  0  0  0  0  0  0  0
   39.0200   32.1110   45.2140 N   0  0  0  0  0  0  0  0  0  0  0  0
   38.5730   32.1460   43.9490 C   0  0  0  0  0  0  0  0  0  0  0  0
   37.3860   31.5890   43.8600 N   0  0  0  0  0  0  0  0  0  0  0  0
   37.0090   31.1640   45.0960 C   0  0  0  0  0  0  0  0  0  0  0  0
   35.8920   30.5170   45.6410 C   0  0  0  0  0  0  0  0  0  0  0  0
   34.9910   29.7370   47.3670 H   0  0  0  0  0  0  0  0  0  0  0  0
   38.8690   31.4940   47.9490 H   0  0  0  0  0  0  0  0  0  0  0  0
   39.9230   32.4720   45.5920 H   0  0  0  0  0  0  0  0  0  0  0  0
   35.0850   30.2620   44.9660 H   0  0  0  0  0  0  0  0  0  0  0  0
   37.5730   30.1110   51.4870 C   0  0  0  0  0  0  0  0  0  0  0  0
   37.7910   30.4990   50.1770 C   0  0  0  0  0  0  0  0  0  0  0  0
   36.8150   30.2320   49.2230 C   0  0  0  0  0  0  0  0  0  0  0  0
   35.6860   29.5940   49.6420 N   0  0  0  0  0  0  0  0  0  0  0  0
   35.4790   29.2200   50.9170 C   0  0  0  0  0  0  0  0  0  0  0  0
   36.4190   29.4800   51.8240 N   0  0  0  0  0  0  0  0  0  0  0  0
   38.3860   30.3580   52.1660 H   0  0  0  0  0  0  0  0  0  0  0  0
   38.6950   31.0070   49.8540 H   0  0  0  0  0  0  0  0  0  0  0  0
   34.5670   28.7150   51.2120 H   0  0  0  0  0  0  0  0  0  0  0  0
  1  7  1  0  0  0  0
  2  8  1  6  0  0  0
  2  1  1  0  0  0  0
  2 26  1  0  0  0  0
  3  2  1  0  0  0  0
  4  5  1  0  0  0  0
  4  3  1  0  0  0  0
  5  6  1  0  0  0  0
  6 13  1  1  0  0  0
  6 15  1  0  0  0  0
  6  1  1  0  0  0  0
  9  3  1  0  0  0  0
 10  3  1  0  0  0  0
 11  5  1  0  0  0  0
 12  5  1  0  0  0  0
 14 25  2  0  0  0  0
 14 15  1  0  0  0  0
 15 16  2  0  0  0  0
 16 18  1  0  0  0  0
 16 17  1  0  0  0  0
 18 19  1  0  0  0  0
 19 21  1  0  0  0  0
 19 20  1  0  0  0  0
 21 22  1  0  0  0  0
 23 21  2  0  0  0  0
 24 23  1  0  0  0  0
 24 18  2  0  0  0  0
 25 24  1  0  0  0  0
 26 32  1  0  0  0  0
 27 36  1  0  0  0  0
 27 28  1  0  0  0  0
 28 42  1  0  0  0  0
 29 28  2  0  0  0  0
 29 37  1  0  0  0  0
 30 29  1  0  0  0  0
 31 38  1  0  0  0  0
 31 30  1  0  0  0  0
 32 31  1  0  0  0  0
 33 32  2  0  0  0  0
 33 34  1  0  0  0  0
 34 35  1  0  0  0  0
 34 30  2  0  0  0  0
 35 27  2  0  0  0  0
 39 35  1  0  0  0  0
 40 45  1  0  0  0  0
 40 46  1  0  0  0  0
 41 40  2  0  0  0  0
 42 43  2  0  0  0  0
 42 41  1  0  0  0  0
 43 44  1  0  0  0  0
 44 48  1  0  0  0  0
 44 45  2  0  0  0  0
 47 41  1  0  0  0  0
M  END
>  <minimizedAffinity>
-6.279562

>  <minimizedRMSD>
1.89495265

$$$$
