
 OpenBabel03272510253D

 48 53  0  0  1  0  0  0  0  0999 V2000
   39.6650   31.8870   41.7820 N   0  0  0  0  0  0  0  0  0  0  0  0
   39.2620   33.2940   41.9240 C   0  0  1  0  0  0  0  0  0  0  0  0
   37.8530   33.4180   41.5690 C   0  0  0  0  0  0  0  0  0  0  0  0
   37.7080   33.1060   40.2050 O   0  0  0  0  0  0  0  0  0  0  0  0
   38.1860   31.8890   39.8310 C   0  0  0  0  0  0  0  0  0  0  0  0
   39.5590   31.5830   40.3730 C   0  0  2  0  0  0  0  0  0  0  0  0
   40.6710   31.8540   42.0380 H   0  0  0  0  0  0  0  0  0  0  0  0
   39.8610   33.9480   41.2860 H   0  0  0  0  0  0  0  0  0  0  0  0
   37.0520   32.9180   42.0380 H   0  0  0  0  0  0  0  0  0  0  0  0
   37.6040   34.5240   41.6010 H   0  0  0  0  0  0  0  0  0  0  0  0
   38.2630   31.8750   38.7340 H   0  0  0  0  0  0  0  0  0  0  0  0
   37.4610   31.0980   40.1060 H   0  0  0  0  0  0  0  0  0  0  0  0
   40.3830   31.9930   39.7690 H   0  0  0  0  0  0  0  0  0  0  0  0
   40.9110   29.5490   40.1180 C   0  0  0  0  0  3  0  0  0  0  0  0
   39.6390   30.0740   40.3380 C   0  0  0  0  0  0  0  0  0  0  0  0
   38.5710   29.2160   40.5060 C   0  0  0  0  0  0  0  0  0  0  0  0
   37.6070   29.6750   40.6740 H   0  0  0  0  0  0  0  0  0  0  0  0
   38.8060   27.8500   40.4480 C   0  0  0  0  0  0  0  0  0  0  0  0
   37.9700   26.8200   40.5730 N   0  0  0  0  0  0  0  0  0  0  0  0
   36.9400   26.9020   40.7470 H   0  0  0  0  0  0  0  0  0  0  0  0
   38.6470   25.6620   40.4440 C   0  0  0  0  0  0  0  0  0  0  0  0
   38.2120   24.6750   40.5030 H   0  0  0  0  0  0  0  0  0  0  0  0
   39.9680   25.9690   40.2260 C   0  0  0  0  0  3  0  0  0  0  0  0
   40.0870   27.3490   40.2250 C   0  0  0  0  0  0  0  0  0  0  0  0
   41.1670   28.1880   40.0550 C   0  0  0  0  0  3  0  0  0  0  0  0
   39.4930   33.5770   43.2990 O   0  0  0  0  0  0  0  0  0  0  0  0
   36.2350   30.1910   46.8790 C   0  0  0  0  0  0  0  0  0  0  0  0
   37.0640   30.7700   47.8390 C   0  0  0  0  0  0  0  0  0  0  0  0
   38.0450   31.6830   47.4790 C   0  0  0  0  0  0  0  0  0  0  0  0
   38.1500   31.9790   46.1270 C   0  0  0  0  0  0  0  0  0  0  0  0
   39.0340   32.8400   45.5340 N   0  0  0  0  0  0  0  0  0  0  0  0
   38.7650   32.8020   44.2190 C   0  0  0  0  0  0  0  0  0  0  0  0
   37.7760   31.9720   43.9710 N   0  0  0  0  0  0  0  0  0  0  0  0
   37.3550   31.4310   45.1460 C   0  0  0  0  0  0  0  0  0  0  0  0
   36.3710   30.5130   45.5370 C   0  0  0  0  0  0  0  0  0  0  0  0
   35.4700   29.4850   47.1260 H   0  0  0  0  0  0  0  0  0  0  0  0
   38.6780   32.1240   48.2250 H   0  0  0  0  0  0  0  0  0  0  0  0
   39.7600   33.4010   46.0300 H   0  0  0  0  0  0  0  0  0  0  0  0
   35.7500   30.0870   44.7580 H   0  0  0  0  0  0  0  0  0  0  0  0
   37.4510   30.1390   51.5150 C   0  0  0  0  0  0  0  0  0  0  0  0
   37.7570   30.5830   50.2410 C   0  0  0  0  0  0  0  0  0  0  0  0
   36.8500   30.3580   49.2120 C   0  0  0  0  0  0  0  0  0  0  0  0
   35.6970   29.7010   49.5250 N   0  0  0  0  0  0  0  0  0  0  0  0
   35.4050   29.2720   50.7650 C   0  0  0  0  0  0  0  0  0  0  0  0
   36.2800   29.4930   51.7450 N   0  0  0  0  0  0  0  0  0  0  0  0
   38.2140   30.3580   52.2590 H   0  0  0  0  0  0  0  0  0  0  0  0
   38.6790   31.1060   50.0030 H   0  0  0  0  0  0  0  0  0  0  0  0
   34.4760   28.7540   50.9740 H   0  0  0  0  0  0  0  0  0  0  0  0
  1  2  1  0  0  0  0
  1  7  1  0  0  0  0
  2  8  1  6  0  0  0
  2 26  1  0  0  0  0
  3 10  1  0  0  0  0
  3  2  1  0  0  0  0
  3  9  1  0  0  0  0
  4  3  1  0  0  0  0
  5 12  1  0  0  0  0
  5  4  1  0  0  0  0
  5  6  1  0  0  0  0
  6 13  1  6  0  0  0
  6  1  1  0  0  0  0
 11  5  1  0  0  0  0
 14 15  1  0  0  0  0
 15  6  1  0  0  0  0
 15 16  2  0  0  0  0
 16 17  1  0  0  0  0
 18 16  1  0  0  0  0
 18 19  1  0  0  0  0
 19 20  1  0  0  0  0
 21 22  1  0  0  0  0
 21 19  1  0  0  0  0
 23 21  2  0  0  0  0
 24 23  1  0  0  0  0
 24 18  2  0  0  0  0
 25 14  2  0  0  0  0
 25 24  1  0  0  0  0
 26 32  1  0  0  0  0
 27 36  1  0  0  0  0
 27 28  1  0  0  0  0
 28 42  1  0  0  0  0
 29 28  2  0  0  0  0
 29 37  1  0  0  0  0
 30 29  1  0  0  0  0
 31 38  1  0  0  0  0
 31 30  1  0  0  0  0
 32 31  1  0  0  0  0
 33 32  2  0  0  0  0
 33 34  1  0  0  0  0
 34 35  1  0  0  0  0
 34 30  2  0  0  0  0
 35 27  2  0  0  0  0
 39 35  1  0  0  0  0
 40 45  1  0  0  0  0
 40 46  1  0  0  0  0
 41 40  2  0  0  0  0
 42 43  2  0  0  0  0
 42 41  1  0  0  0  0
 43 44  1  0  0  0  0
 44 48  1  0  0  0  0
 44 45  2  0  0  0  0
 47 41  1  0  0  0  0
M  END
>  <minimizedAffinity>
-6.25408125

>  <minimizedRMSD>
0.157017887

$$$$
