
 OpenBabel03272507463D

 49 54  0  0  1  0  0  0  0  0999 V2000
   33.0440   28.6580   46.5820 N   0  0  0  0  0  0  0  0  0  0  0  0
   33.5600   28.0450   47.7590 C   0  0  0  0  0  0  0  0  0  0  0  0
   34.6910   28.7340   48.4250 C   0  0  0  0  0  0  0  0  0  0  0  0
   35.6920   29.3560   47.5570 C   0  0  1  0  0  0  0  0  0  0  0  0
   35.0700   29.9360   46.2740 C   0  0  0  0  0  0  0  0  0  0  0  0
   34.1510   28.8490   45.6880 C   0  0  0  0  0  0  0  0  0  0  0  0
   32.7020   27.9380   48.4680 H   0  0  0  0  0  0  0  0  0  0  0  0
   33.8390   26.9820   47.5080 H   0  0  0  0  0  0  0  0  0  0  0  0
   35.1610   28.0570   49.1580 H   0  0  0  0  0  0  0  0  0  0  0  0
   34.1570   29.5920   48.9510 H   0  0  0  0  0  0  0  0  0  0  0  0
   36.4620   28.6280   47.1790 H   0  0  0  0  0  0  0  0  0  0  0  0
   34.4720   30.8290   46.4910 H   0  0  0  0  0  0  0  0  0  0  0  0
   35.8820   30.0760   45.5550 H   0  0  0  0  0  0  0  0  0  0  0  0
   34.7590   27.9470   45.5100 H   0  0  0  0  0  0  0  0  0  0  0  0
   33.7340   29.1970   44.7220 H   0  0  0  0  0  0  0  0  0  0  0  0
   36.0750   30.8510   49.4620 C   0  0  0  0  0  0  0  0  0  0  0  0
   36.4270   30.4880   48.1720 C   0  0  0  0  0  0  0  0  0  0  0  0
   37.3880   31.1250   47.4320 C   0  0  0  0  0  0  0  0  0  0  0  0
   38.0450   32.2020   48.0200 C   0  0  0  0  0  0  0  0  0  0  0  0
   37.7010   32.5710   49.3000 C   0  0  0  0  0  0  0  0  0  0  0  0
   36.7250   31.9230   50.0520 C   0  0  0  0  0  0  0  0  0  0  0  0
   38.4660   33.6690   49.7130 O   0  0  0  0  0  0  0  0  0  0  0  0
   39.5170   33.7530   48.7610 C   0  0  0  0  0  0  0  0  0  0  0  0
   39.0490   33.0850   47.6170 O   0  0  0  0  0  0  0  0  0  0  0  0
   35.3510   30.4210   50.1390 H   0  0  0  0  0  0  0  0  0  0  0  0
   37.6310   30.8180   46.4480 H   0  0  0  0  0  0  0  0  0  0  0  0
   36.5000   32.2710   51.0700 H   0  0  0  0  0  0  0  0  0  0  0  0
   39.5560   34.8490   48.4910 H   0  0  0  0  0  0  0  0  0  0  0  0
   40.4810   33.3980   49.1350 H   0  0  0  0  0  0  0  0  0  0  0  0
   31.6890   29.0270   46.3050 C   0  0  0  0  0  0  0  0  0  0  0  0
   31.2330   29.6320   45.1410 C   0  0  0  0  0  0  0  0  0  0  0  0
   29.8690   29.9120   45.0600 C   0  0  0  0  0  0  0  0  0  0  0  0
   29.0660   29.5860   46.1060 N   0  0  0  0  0  0  0  0  0  0  0  0
   29.5390   28.9990   47.2200 C   0  0  0  0  0  0  0  0  0  0  0  0
   30.8400   28.7270   47.3100 N   0  0  0  0  0  0  0  0  0  0  0  0
   31.9890   29.8180   44.4260 H   0  0  0  0  0  0  0  0  0  0  0  0
   29.5480   30.3800   44.1450 H   0  0  0  0  0  0  0  0  0  0  0  0
   27.2910   29.0210   48.2110 C   0  0  0  0  0  0  0  0  0  0  0  0
   28.6250   28.6720   48.3110 C   0  0  0  0  0  0  0  0  0  0  0  0
   29.1200   28.0190   49.4220 C   0  0  0  0  0  0  0  0  0  0  0  0
   30.1600   27.7490   49.4960 H   0  0  0  0  0  0  0  0  0  0  0  0
   28.2960   27.6920   50.4710 C   0  0  0  0  0  0  0  0  0  0  0  0
   28.5240   27.0710   51.6380 N   0  0  0  0  0  0  0  0  0  0  0  0
   29.4100   26.6820   52.0280 H   0  0  0  0  0  0  0  0  0  0  0  0
   27.3920   26.9730   52.3590 C   0  0  0  0  0  0  0  0  0  0  0  0
   27.1490   26.5550   53.3280 H   0  0  0  0  0  0  0  0  0  0  0  0
   26.4100   27.5770   51.5740 C   0  0  0  0  0  0  0  0  0  0  0  0
   26.9680   28.0310   50.3870 C   0  0  0  0  0  0  0  0  0  0  0  0
   26.4530   28.6880   49.2780 C   0  0  0  0  0  0  0  0  0  0  0  0
  1  2  1  0  0  0  0
  2  3  1  0  0  0  0
  2  7  1  0  0  0  0
  3 10  1  0  0  0  0
  3  9  1  0  0  0  0
  4 11  1  6  0  0  0
  4 17  1  0  0  0  0
  4  3  1  0  0  0  0
  5 12  1  0  0  0  0
  5  4  1  0  0  0  0
  6  5  1  0  0  0  0
  6  1  1  0  0  0  0
  8  2  1  0  0  0  0
 13  5  1  0  0  0  0
 14  6  1  0  0  0  0
 15  6  1  0  0  0  0
 16 21  1  0  0  0  0
 16 25  1  0  0  0  0
 17 16  2  0  0  0  0
 18 19  2  0  0  0  0
 18 17  1  0  0  0  0
 19 20  1  0  0  0  0
 20 22  1  0  0  0  0
 20 21  2  0  0  0  0
 21 27  1  0  0  0  0
 23 29  1  0  0  0  0
 23 22  1  0  0  0  0
 24 19  1  0  0  0  0
 24 23  1  0  0  0  0
 26 18  1  0  0  0  0
 28 23  1  0  0  0  0
 30  1  1  0  0  0  0
 30 35  1  0  0  0  0
 31 30  2  0  0  0  0
 32 31  1  0  0  0  0
 32 33  2  0  0  0  0
 33 34  1  0  0  0  0
 34 35  2  0  0  0  0
 34 39  1  0  0  0  0
 36 31  1  0  0  0  0
 37 32  1  0  0  0  0
 38 39  2  0  0  0  0
 38 49  1  0  0  0  0
 39 40  1  0  0  0  0
 40 41  1  0  0  0  0
 40 42  2  0  0  0  0
 42 43  1  0  0  0  0
 43 44  1  0  0  0  0
 43 45  1  0  0  0  0
 45 46  1  0  0  0  0
 47 45  2  0  0  0  0
 48 42  1  0  0  0  0
 48 47  1  0  0  0  0
 49 48  2  0  0  0  0
M  END
>  <minimizedAffinity>
-7.90235281

>  <minimizedRMSD>
1.08690667

$$$$
