
 OpenBabel03272510253D

 48 53  0  0  1  0  0  0  0  0999 V2000
   39.6750   31.7210   42.1850 N   0  0  0  0  0  0  0  0  0  0  0  0
   39.5090   33.1800   42.1050 C   0  0  1  0  0  0  0  0  0  0  0  0
   38.2260   33.4740   41.4770 C   0  0  0  0  0  0  0  0  0  0  0  0
   38.2650   33.0120   40.1480 O   0  0  0  0  0  0  0  0  0  0  0  0
   38.5770   31.6980   39.9960 C   0  0  0  0  0  0  0  0  0  0  0  0
   39.7600   31.2560   40.8190 C   0  0  2  0  0  0  0  0  0  0  0  0
   40.6000   31.5660   42.6300 H   0  0  0  0  0  0  0  0  0  0  0  0
   40.3140   33.6440   41.5310 H   0  0  0  0  0  0  0  0  0  0  0  0
   37.2810   33.1700   41.8320 H   0  0  0  0  0  0  0  0  0  0  0  0
   38.1740   34.5990   41.3490 H   0  0  0  0  0  0  0  0  0  0  0  0
   38.8390   31.5280   38.9410 H   0  0  0  0  0  0  0  0  0  0  0  0
   37.6880   31.0710   40.2050 H   0  0  0  0  0  0  0  0  0  0  0  0
   40.7360   31.4500   40.3460 H   0  0  0  0  0  0  0  0  0  0  0  0
   40.1300   29.1920   42.0980 C   0  0  0  0  0  3  0  0  0  0  0  0
   39.5770   29.7610   40.9520 C   0  0  0  0  0  0  0  0  0  0  0  0
   38.9200   28.9550   40.0440 C   0  0  0  0  0  0  0  0  0  0  0  0
   38.5110   29.4470   39.1730 H   0  0  0  0  0  0  0  0  0  0  0  0
   38.8350   27.5960   40.3070 C   0  0  0  0  0  0  0  0  0  0  0  0
   38.2690   26.6110   39.6130 N   0  0  0  0  0  0  0  0  0  0  0  0
   37.7700   26.7320   38.7000 H   0  0  0  0  0  0  0  0  0  0  0  0
   38.4340   25.4410   40.2580 C   0  0  0  0  0  0  0  0  0  0  0  0
   38.0710   24.4820   39.9150 H   0  0  0  0  0  0  0  0  0  0  0  0
   39.1340   25.6920   41.4130 C   0  0  0  0  0  3  0  0  0  0  0  0
   39.3970   27.0500   41.4600 C   0  0  0  0  0  0  0  0  0  0  0  0
   40.0570   27.8380   42.3810 C   0  0  0  0  0  3  0  0  0  0  0  0
   39.5460   33.6000   43.4640 O   0  0  0  0  0  0  0  0  0  0  0  0
   36.2050   30.2320   46.9830 C   0  0  0  0  0  0  0  0  0  0  0  0
   37.0480   30.7730   47.9530 C   0  0  0  0  0  0  0  0  0  0  0  0
   38.0520   31.6670   47.6090 C   0  0  0  0  0  0  0  0  0  0  0  0
   38.1630   31.9860   46.2630 C   0  0  0  0  0  0  0  0  0  0  0  0
   39.0680   32.8350   45.6850 N   0  0  0  0  0  0  0  0  0  0  0  0
   38.7990   32.8280   44.3700 C   0  0  0  0  0  0  0  0  0  0  0  0
   37.7890   32.0280   44.1080 N   0  0  0  0  0  0  0  0  0  0  0  0
   37.3540   31.4760   45.2720 C   0  0  0  0  0  0  0  0  0  0  0  0
   36.3480   30.5750   45.6470 C   0  0  0  0  0  0  0  0  0  0  0  0
   35.4220   29.5410   47.2180 H   0  0  0  0  0  0  0  0  0  0  0  0
   38.6950   32.0780   48.3630 H   0  0  0  0  0  0  0  0  0  0  0  0
   39.8090   33.3680   46.1910 H   0  0  0  0  0  0  0  0  0  0  0  0
   35.7160   30.1800   44.8610 H   0  0  0  0  0  0  0  0  0  0  0  0
   37.4100   30.0840   51.6220 C   0  0  0  0  0  0  0  0  0  0  0  0
   37.7260   30.5460   50.3560 C   0  0  0  0  0  0  0  0  0  0  0  0
   36.8240   30.3410   49.3190 C   0  0  0  0  0  0  0  0  0  0  0  0
   35.6660   29.6850   49.6140 N   0  0  0  0  0  0  0  0  0  0  0  0
   35.3650   29.2390   50.8460 C   0  0  0  0  0  0  0  0  0  0  0  0
   36.2340   29.4410   51.8340 N   0  0  0  0  0  0  0  0  0  0  0  0
   38.1700   30.2880   52.3730 H   0  0  0  0  0  0  0  0  0  0  0  0
   38.6510   31.0680   50.1310 H   0  0  0  0  0  0  0  0  0  0  0  0
   34.4320   28.7220   51.0430 H   0  0  0  0  0  0  0  0  0  0  0  0
  1  7  1  0  0  0  0
  2  8  1  6  0  0  0
  2  1  1  0  0  0  0
  2 26  1  0  0  0  0
  3  9  1  0  0  0  0
  3  2  1  0  0  0  0
  4  3  1  0  0  0  0
  5  4  1  0  0  0  0
  5 12  1  0  0  0  0
  5  6  1  0  0  0  0
  6 13  1  6  0  0  0
  6 15  1  0  0  0  0
  6  1  1  0  0  0  0
 10  3  1  0  0  0  0
 11  5  1  0  0  0  0
 14 25  1  0  0  0  0
 15 14  2  0  0  0  0
 16 18  2  0  0  0  0
 16 15  1  0  0  0  0
 17 16  1  0  0  0  0
 18 24  1  0  0  0  0
 19 21  1  0  0  0  0
 19 18  1  0  0  0  0
 20 19  1  0  0  0  0
 21 23  2  0  0  0  0
 22 21  1  0  0  0  0
 23 24  1  0  0  0  0
 24 25  2  0  0  0  0
 26 32  1  0  0  0  0
 27 36  1  0  0  0  0
 27 28  1  0  0  0  0
 28 42  1  0  0  0  0
 29 28  2  0  0  0  0
 29 37  1  0  0  0  0
 30 29  1  0  0  0  0
 31 38  1  0  0  0  0
 31 30  1  0  0  0  0
 32 31  1  0  0  0  0
 33 32  2  0  0  0  0
 33 34  1  0  0  0  0
 34 35  1  0  0  0  0
 34 30  2  0  0  0  0
 35 27  2  0  0  0  0
 39 35  1  0  0  0  0
 40 45  1  0  0  0  0
 40 46  1  0  0  0  0
 41 40  2  0  0  0  0
 42 43  2  0  0  0  0
 42 41  1  0  0  0  0
 43 44  1  0  0  0  0
 44 48  1  0  0  0  0
 44 45  2  0  0  0  0
 47 41  1  0  0  0  0
M  END
>  <minimizedAffinity>
-6.28233671

>  <minimizedRMSD>
0.683710694

$$$$
