
 OpenBabel03272508193D

 34 37  0  0  0  0  0  0  0  0999 V2000
   37.7310   30.1630   48.8840 C   0  0  0  0  0  0  0  0  0  0  0  0
   37.8490   29.0540   48.6300 H   0  0  0  0  0  0  0  0  0  0  0  0
   38.4640   30.2980   49.7120 H   0  0  0  0  0  0  0  0  0  0  0  0
   38.7170   32.1680   47.7480 C   0  0  0  0  0  0  0  0  0  0  0  0
   38.1540   30.8850   47.6990 C   0  0  0  0  0  0  0  0  0  0  0  0
   37.9690   30.3890   46.4360 C   0  0  0  0  0  0  0  0  0  0  0  0
   38.3080   31.0980   45.3330 N   0  0  0  0  0  0  0  0  0  0  0  0
   38.8500   32.3380   45.4090 C   0  0  0  0  0  0  0  0  0  0  0  0
   39.0550   32.8740   46.6160 N   0  0  0  0  0  0  0  0  0  0  0  0
   37.5450   29.4680   46.1390 H   0  0  0  0  0  0  0  0  0  0  0  0
   39.1330   32.9320   44.5520 H   0  0  0  0  0  0  0  0  0  0  0  0
   39.0310   32.7330   49.1280 C   0  0  0  0  0  0  0  0  0  0  0  0
   39.3510   34.0930   49.3290 C   0  0  0  0  0  0  0  0  0  0  0  0
   37.8820   33.7430   49.5020 C   0  0  0  0  0  0  0  0  0  0  0  0
   39.0810   31.9530   49.9350 H   0  0  0  0  0  0  0  0  0  0  0  0
   39.6320   34.7390   48.4660 H   0  0  0  0  0  0  0  0  0  0  0  0
   39.8860   34.4080   50.2460 H   0  0  0  0  0  0  0  0  0  0  0  0
   37.4730   33.6120   50.4960 H   0  0  0  0  0  0  0  0  0  0  0  0
   37.2450   34.1180   48.7090 H   0  0  0  0  0  0  0  0  0  0  0  0
   36.3840   30.3270   49.4060 C   0  0  0  0  0  0  0  0  0  0  0  0
   36.1110   31.4340   49.2450 H   0  0  0  0  0  0  0  0  0  0  0  0
   36.3890   30.2600   50.5380 H   0  0  0  0  0  0  0  0  0  0  0  0
   34.7870   28.2140   49.0720 C   0  0  0  0  0  0  0  0  0  0  0  0
   35.3080   29.4750   48.9100 C   0  0  0  0  0  0  0  0  0  0  0  0
   34.5450   30.2260   47.9920 C   0  0  0  0  0  0  0  0  0  0  0  0
   34.7270   31.2610   47.6700 H   0  0  0  0  0  0  0  0  0  0  0  0
   33.4070   29.7430   47.3370 C   0  0  0  0  0  0  0  0  0  0  0  0
   32.5150   30.2100   46.4480 N   0  0  0  0  0  0  0  0  0  0  0  0
   32.5440   31.1700   46.0430 H   0  0  0  0  0  0  0  0  0  0  0  0
   31.5950   29.3040   46.1500 C   0  0  0  0  0  0  0  0  0  0  0  0
   30.7820   29.4460   45.4660 H   0  0  0  0  0  0  0  0  0  0  0  0
   31.8570   28.1520   46.8620 C   0  0  0  0  0  0  0  0  0  0  0  0
   32.9850   28.4620   47.5870 C   0  0  0  0  0  0  0  0  0  0  0  0
   33.6950   27.6870   48.4740 C   0  0  0  0  0  0  0  0  0  0  0  0
  1 20  1  0  0  0  0
  1  3  1  0  0  0  0
  2  1  1  0  0  0  0
  4 12  1  0  0  0  0
  5  4  1  0  0  0  0
  5  1  1  0  0  0  0
  6  5  2  0  0  0  0
  7  8  2  0  0  0  0
  7  6  1  0  0  0  0
  8  9  1  0  0  0  0
  9  4  2  0  0  0  0
 10  6  1  0  0  0  0
 11  8  1  0  0  0  0
 12 13  1  0  0  0  0
 12 14  1  0  0  0  0
 12 15  1  0  0  0  0
 13 14  1  0  0  0  0
 13 17  1  0  0  0  0
 14 18  1  0  0  0  0
 16 13  1  0  0  0  0
 19 14  1  0  0  0  0
 20 22  1  0  0  0  0
 21 20  1  0  0  0  0
 24 23  1  0  0  0  0
 24 20  1  0  0  0  0
 25 24  2  0  0  0  0
 26 25  1  0  0  0  0
 27 33  2  0  0  0  0
 27 25  1  0  0  0  0
 28 27  1  0  0  0  0
 29 28  1  0  0  0  0
 30 28  1  0  0  0  0
 30 32  2  0  0  0  0
 31 30  1  0  0  0  0
 32 33  1  0  0  0  0
 33 34  1  0  0  0  0
 34 23  2  0  0  0  0
M  END
>  <minimizedAffinity>
-5.77982044

>  <minimizedRMSD>
6.63935757

$$$$
