
 OpenBabel03272507153D

 43 48  0  0  0  0  0  0  0  0999 V2000
   35.5640   25.7850   31.1660 C   0  0  0  0  0  0  0  0  0  0  0  0
   34.6520   25.3500   30.4140 O   0  0  0  0  0  0  0  0  0  0  0  0
   35.8270   27.1880   31.3910 C   0  0  0  0  0  0  0  0  0  0  0  0
   36.6760   27.8190   30.5000 C   0  0  0  0  0  0  0  0  0  0  0  0
   36.9610   29.1700   30.6750 C   0  0  0  0  0  0  0  0  0  0  0  0
   36.3660   29.7930   31.7430 N   0  0  0  0  0  0  0  0  0  0  0  0
   35.5500   29.1650   32.5890 C   0  0  0  0  0  0  0  0  0  0  0  0
   35.2900   27.8640   32.4020 N   0  0  0  0  0  0  0  0  0  0  0  0
   37.1340   27.3080   29.6660 H   0  0  0  0  0  0  0  0  0  0  0  0
   37.6190   29.6670   29.9870 H   0  0  0  0  0  0  0  0  0  0  0  0
   33.5900   29.7750   33.9480 C   0  0  0  0  0  3  0  0  0  0  0  0
   34.9410   29.8550   33.7040 C   0  0  0  0  0  0  0  0  0  0  0  0
   35.6630   30.6290   34.5860 C   0  0  0  0  0  0  0  0  0  0  0  0
   36.7350   30.7380   34.4560 H   0  0  0  0  0  0  0  0  0  0  0  0
   35.0870   31.2940   35.6580 C   0  0  0  0  0  0  0  0  0  0  0  0
   35.4960   32.0920   36.6550 N   0  0  0  0  0  0  0  0  0  0  0  0
   36.4930   32.3830   36.7980 H   0  0  0  0  0  0  0  0  0  0  0  0
   34.4550   32.4590   37.4360 C   0  0  0  0  0  0  0  0  0  0  0  0
   34.4820   33.0970   38.3120 H   0  0  0  0  0  0  0  0  0  0  0  0
   33.2960   31.8790   36.9370 C   0  0  0  0  0  3  0  0  0  0  0  0
   33.7090   31.1650   35.8400 C   0  0  0  0  0  0  0  0  0  0  0  0
   32.9450   30.3970   34.9780 C   0  0  0  0  0  3  0  0  0  0  0  0
   36.4160   24.8210   31.8580 C   0  0  0  0  0  0  0  0  0  0  0  0
   36.2680   23.4840   31.6880 C   0  0  0  0  0  0  0  0  0  0  0  0
   37.2330   22.8640   32.4870 C   0  0  0  0  0  0  0  0  0  0  0  0
   37.9270   23.9130   33.1110 C   0  0  0  0  0  0  0  0  0  0  0  0
   37.3960   25.0200   32.6960 O   0  0  0  0  0  0  0  0  0  0  0  0
   35.5480   22.9550   31.0590 H   0  0  0  0  0  0  0  0  0  0  0  0
   37.3420   21.8000   32.5430 H   0  0  0  0  0  0  0  0  0  0  0  0
   40.2590   24.2780   33.9070 C   0  0  0  0  0  0  0  0  0  0  0  0
   39.0310   23.6650   34.0400 C   0  0  0  0  0  0  0  0  0  0  0  0
   38.7820   22.7820   35.0610 C   0  0  0  0  0  0  0  0  0  0  0  0
   39.8100   22.5260   35.9600 C   0  0  0  0  0  0  0  0  0  0  0  0
   39.8420   21.7170   37.0380 N   0  0  0  0  0  0  0  0  0  0  0  0
   41.0550   21.8150   37.5740 N   0  0  0  0  0  0  0  0  0  0  0  0
   41.7850   22.6780   36.8400 C   0  0  0  0  0  0  0  0  0  0  0  0
   41.0180   23.1600   35.7890 C   0  0  0  0  0  0  0  0  0  0  0  0
   41.2740   24.0450   34.7680 C   0  0  0  0  0  0  0  0  0  0  0  0
   40.3380   24.9610   33.0550 H   0  0  0  0  0  0  0  0  0  0  0  0
   37.8340   22.2510   35.2380 H   0  0  0  0  0  0  0  0  0  0  0  0
   39.0760   21.1070   37.4190 H   0  0  0  0  0  0  0  0  0  0  0  0
   42.8240   22.9980   36.9890 H   0  0  0  0  0  0  0  0  0  0  0  0
   42.2330   24.5330   34.6540 H   0  0  0  0  0  0  0  0  0  0  0  0
  1  3  1  0  0  0  0
  1 23  1  0  0  0  0
  2  1  2  0  0  0  0
  3  8  1  0  0  0  0
  4  5  1  0  0  0  0
  4  3  2  0  0  0  0
  5  6  2  0  0  0  0
  6  7  1  0  0  0  0
  7 12  1  0  0  0  0
  8  7  2  0  0  0  0
  9  4  1  0  0  0  0
 10  5  1  0  0  0  0
 11 22  1  0  0  0  0
 12 11  2  0  0  0  0
 12 13  1  0  0  0  0
 13 15  2  0  0  0  0
 14 13  1  0  0  0  0
 15 21  1  0  0  0  0
 15 16  1  0  0  0  0
 16 17  1  0  0  0  0
 16 18  1  0  0  0  0
 18 19  1  0  0  0  0
 20 18  2  0  0  0  0
 21 20  1  0  0  0  0
 22 21  2  0  0  0  0
 23 27  1  0  0  0  0
 24 23  2  0  0  0  0
 24 25  1  0  0  0  0
 25 29  1  0  0  0  0
 25 26  2  0  0  0  0
 26 31  1  0  0  0  0
 27 26  1  0  0  0  0
 28 24  1  0  0  0  0
 30 31  2  0  0  0  0
 30 38  1  0  0  0  0
 31 32  1  0  0  0  0
 32 40  1  0  0  0  0
 32 33  2  0  0  0  0
 33 34  1  0  0  0  0
 34 41  1  0  0  0  0
 34 35  1  0  0  0  0
 36 42  1  0  0  0  0
 36 35  2  0  0  0  0
 37 33  1  0  0  0  0
 37 36  1  0  0  0  0
 38 37  2  0  0  0  0
 39 30  1  0  0  0  0
 43 38  1  0  0  0  0
M  END
>  <minimizedAffinity>
-7.29766321

$$$$

 OpenBabel03272507153D

 43 48  0  0  0  0  0  0  0  0999 V2000
   36.9290   27.4780   30.9410 C   0  0  0  0  0  0  0  0  0  0  0  0
   36.5780   28.2000   29.9710 O   0  0  0  0  0  0  0  0  0  0  0  0
   37.5910   26.2020   30.8030 C   0  0  0  0  0  0  0  0  0  0  0  0
   38.8950   26.2170   30.3420 C   0  0  0  0  0  0  0  0  0  0  0  0
   39.5750   25.0130   30.1920 C   0  0  0  0  0  0  0  0  0  0  0  0
   38.8880   23.8710   30.5190 N   0  0  0  0  0  0  0  0  0  0  0  0
   37.6320   23.8790   30.9620 C   0  0  0  0  0  0  0  0  0  0  0  0
   36.9960   25.0510   31.0990 N   0  0  0  0  0  0  0  0  0  0  0  0
   39.4160   27.1290   30.0900 H   0  0  0  0  0  0  0  0  0  0  0  0
   40.5880   25.0160   29.8340 H   0  0  0  0  0  0  0  0  0  0  0  0
   35.6680   22.6670   31.8200 C   0  0  0  0  0  3  0  0  0  0  0  0
   36.9400   22.6550   31.2970 C   0  0  0  0  0  0  0  0  0  0  0  0
   37.5010   21.4090   31.1180 C   0  0  0  0  0  0  0  0  0  0  0  0
   38.5030   21.3220   30.7100 H   0  0  0  0  0  0  0  0  0  0  0  0
   36.8450   20.2300   31.4380 C   0  0  0  0  0  0  0  0  0  0  0  0
   37.1040   18.9150   31.3860 N   0  0  0  0  0  0  0  0  0  0  0  0
   38.0050   18.5120   31.0310 H   0  0  0  0  0  0  0  0  0  0  0  0
   36.0550   18.1990   31.8470 C   0  0  0  0  0  0  0  0  0  0  0  0
   35.9760   17.1200   31.9240 H   0  0  0  0  0  0  0  0  0  0  0  0
   35.0470   19.0760   32.2250 C   0  0  0  0  0  3  0  0  0  0  0  0
   35.5550   20.3240   31.9640 C   0  0  0  0  0  0  0  0  0  0  0  0
   34.9540   21.5550   32.1600 C   0  0  0  0  0  3  0  0  0  0  0  0
   36.6540   27.9510   32.2960 C   0  0  0  0  0  0  0  0  0  0  0  0
   37.1610   27.3280   33.3880 C   0  0  0  0  0  0  0  0  0  0  0  0
   36.7060   28.0330   34.5060 C   0  0  0  0  0  0  0  0  0  0  0  0
   35.9230   29.0780   33.9910 C   0  0  0  0  0  0  0  0  0  0  0  0
   35.9400   28.9650   32.7000 O   0  0  0  0  0  0  0  0  0  0  0  0
   37.8030   26.4440   33.4290 H   0  0  0  0  0  0  0  0  0  0  0  0
   36.9590   27.7550   35.5090 H   0  0  0  0  0  0  0  0  0  0  0  0
   35.9650   30.9950   35.5810 C   0  0  0  0  0  0  0  0  0  0  0  0
   35.2620   30.0510   34.8620 C   0  0  0  0  0  0  0  0  0  0  0  0
   33.8930   29.9770   34.9320 C   0  0  0  0  0  0  0  0  0  0  0  0
   33.2370   30.8870   35.7500 C   0  0  0  0  0  0  0  0  0  0  0  0
   31.9200   31.0400   36.0030 N   0  0  0  0  0  0  0  0  0  0  0  0
   31.7930   32.0520   36.8560 N   0  0  0  0  0  0  0  0  0  0  0  0
   33.0180   32.5350   37.1420 C   0  0  0  0  0  0  0  0  0  0  0  0
   33.9770   31.8110   36.4490 C   0  0  0  0  0  0  0  0  0  0  0  0
   35.3490   31.8910   36.3840 C   0  0  0  0  0  0  0  0  0  0  0  0
   37.0510   30.9560   35.4460 H   0  0  0  0  0  0  0  0  0  0  0  0
   33.2590   29.2560   34.3930 H   0  0  0  0  0  0  0  0  0  0  0  0
   31.1140   30.4860   35.6180 H   0  0  0  0  0  0  0  0  0  0  0  0
   33.2900   33.3650   37.8060 H   0  0  0  0  0  0  0  0  0  0  0  0
   35.9110   32.6270   36.9430 H   0  0  0  0  0  0  0  0  0  0  0  0
  1 23  1  0  0  0  0
  2  1  2  0  0  0  0
  3  1  1  0  0  0  0
  3  8  1  0  0  0  0
  4  3  2  0  0  0  0
  5  4  1  0  0  0  0
  5  6  2  0  0  0  0
  6  7  1  0  0  0  0
  7  8  2  0  0  0  0
  7 12  1  0  0  0  0
  9  4  1  0  0  0  0
 10  5  1  0  0  0  0
 11 22  1  0  0  0  0
 12 11  2  0  0  0  0
 13 12  1  0  0  0  0
 13 15  2  0  0  0  0
 14 13  1  0  0  0  0
 15 21  1  0  0  0  0
 16 15  1  0  0  0  0
 16 18  1  0  0  0  0
 17 16  1  0  0  0  0
 18 19  1  0  0  0  0
 18 20  2  0  0  0  0
 21 22  2  0  0  0  0
 21 20  1  0  0  0  0
 23 27  1  0  0  0  0
 23 24  2  0  0  0  0
 24 28  1  0  0  0  0
 24 25  1  0  0  0  0
 25 29  1  0  0  0  0
 26 25  2  0  0  0  0
 26 31  1  0  0  0  0
 27 26  1  0  0  0  0
 30 38  1  0  0  0  0
 31 32  1  0  0  0  0
 31 30  2  0  0  0  0
 32 33  2  0  0  0  0
 33 34  1  0  0  0  0
 33 37  1  0  0  0  0
 34 35  1  0  0  0  0
 35 36  2  0  0  0  0
 36 42  1  0  0  0  0
 37 36  1  0  0  0  0
 38 37  2  0  0  0  0
 38 43  1  0  0  0  0
 39 30  1  0  0  0  0
 40 32  1  0  0  0  0
 41 34  1  0  0  0  0
M  END
>  <minimizedAffinity>
-7.26626444

$$$$

 OpenBabel03272507153D

 43 48  0  0  0  0  0  0  0  0999 V2000
   37.6560   26.7990   31.0450 C   0  0  0  0  0  0  0  0  0  0  0  0
   38.5170   27.0260   30.1540 O   0  0  0  0  0  0  0  0  0  0  0  0
   37.4080   25.4950   31.6170 C   0  0  0  0  0  0  0  0  0  0  0  0
   36.4200   24.7280   31.0270 C   0  0  0  0  0  0  0  0  0  0  0  0
   36.1430   23.4660   31.5410 C   0  0  0  0  0  0  0  0  0  0  0  0
   36.8870   23.0640   32.6220 N   0  0  0  0  0  0  0  0  0  0  0  0
   37.8350   23.8190   33.1750 C   0  0  0  0  0  0  0  0  0  0  0  0
   38.0840   25.0320   32.6630 N   0  0  0  0  0  0  0  0  0  0  0  0
   35.8470   25.0660   30.1760 H   0  0  0  0  0  0  0  0  0  0  0  0
   35.3780   22.8640   31.0880 H   0  0  0  0  0  0  0  0  0  0  0  0
   38.1810   23.5980   35.6030 C   0  0  0  0  0  3  0  0  0  0  0  0
   38.5980   23.3610   34.3140 C   0  0  0  0  0  0  0  0  0  0  0  0
   39.7810   22.6660   34.1870 C   0  0  0  0  0  0  0  0  0  0  0  0
   40.1730   22.4430   33.1990 H   0  0  0  0  0  0  0  0  0  0  0  0
   40.5210   22.2240   35.2730 C   0  0  0  0  0  0  0  0  0  0  0  0
   41.6630   21.5500   35.4780 N   0  0  0  0  0  0  0  0  0  0  0  0
   42.2760   21.1940   34.7060 H   0  0  0  0  0  0  0  0  0  0  0  0
   41.9020   21.3990   36.7990 C   0  0  0  0  0  0  0  0  0  0  0  0
   42.7460   20.8990   37.2630 H   0  0  0  0  0  0  0  0  0  0  0  0
   40.8730   22.0000   37.5120 C   0  0  0  0  0  3  0  0  0  0  0  0
   40.0310   22.5020   36.5510 C   0  0  0  0  0  0  0  0  0  0  0  0
   38.8480   23.1970   36.7250 C   0  0  0  0  0  3  0  0  0  0  0  0
   36.8520   27.9150   31.5380 C   0  0  0  0  0  0  0  0  0  0  0  0
   36.5540   28.9820   30.7570 C   0  0  0  0  0  0  0  0  0  0  0  0
   35.7800   29.8500   31.5330 C   0  0  0  0  0  0  0  0  0  0  0  0
   35.6580   29.2200   32.7810 C   0  0  0  0  0  0  0  0  0  0  0  0
   36.3060   28.1000   32.7080 O   0  0  0  0  0  0  0  0  0  0  0  0
   36.8440   29.1670   29.7200 H   0  0  0  0  0  0  0  0  0  0  0  0
   35.4040   30.7810   31.1600 H   0  0  0  0  0  0  0  0  0  0  0  0
   33.5650   29.5770   34.0850 C   0  0  0  0  0  0  0  0  0  0  0  0
   34.9070   29.8260   33.8830 C   0  0  0  0  0  0  0  0  0  0  0  0
   35.6090   30.6640   34.7120 C   0  0  0  0  0  0  0  0  0  0  0  0
   34.9240   31.2540   35.7670 C   0  0  0  0  0  0  0  0  0  0  0  0
   35.3570   32.1040   36.7200 N   0  0  0  0  0  0  0  0  0  0  0  0
   34.3210   32.3850   37.5050 N   0  0  0  0  0  0  0  0  0  0  0  0
   33.2410   31.7190   37.0520 C   0  0  0  0  0  0  0  0  0  0  0  0
   33.5870   30.9770   35.9320 C   0  0  0  0  0  0  0  0  0  0  0  0
   32.8770   30.1390   35.1040 C   0  0  0  0  0  0  0  0  0  0  0  0
   33.1130   28.8930   33.3600 H   0  0  0  0  0  0  0  0  0  0  0  0
   36.6770   30.9150   34.6200 H   0  0  0  0  0  0  0  0  0  0  0  0
   36.3240   32.4950   36.8550 H   0  0  0  0  0  0  0  0  0  0  0  0
   32.2190   31.7140   37.4530 H   0  0  0  0  0  0  0  0  0  0  0  0
   31.8250   29.9350   35.2530 H   0  0  0  0  0  0  0  0  0  0  0  0
  1 23  1  0  0  0  0
  1  3  1  0  0  0  0
  2  1  2  0  0  0  0
  3  8  1  0  0  0  0
  4  5  1  0  0  0  0
  4  3  2  0  0  0  0
  5  6  2  0  0  0  0
  6  7  1  0  0  0  0
  7 12  1  0  0  0  0
  8  7  2  0  0  0  0
  9  4  1  0  0  0  0
 10  5  1  0  0  0  0
 11 22  1  0  0  0  0
 12 11  2  0  0  0  0
 13 12  1  0  0  0  0
 13 15  2  0  0  0  0
 14 13  1  0  0  0  0
 15 16  1  0  0  0  0
 15 21  1  0  0  0  0
 16 18  1  0  0  0  0
 17 16  1  0  0  0  0
 18 19  1  0  0  0  0
 18 20  2  0  0  0  0
 21 22  2  0  0  0  0
 21 20  1  0  0  0  0
 23 27  1  0  0  0  0
 24 25  1  0  0  0  0
 24 23  2  0  0  0  0
 25 26  2  0  0  0  0
 26 31  1  0  0  0  0
 27 26  1  0  0  0  0
 28 24  1  0  0  0  0
 29 25  1  0  0  0  0
 30 38  1  0  0  0  0
 31 30  2  0  0  0  0
 31 32  1  0  0  0  0
 32 33  2  0  0  0  0
 33 37  1  0  0  0  0
 33 34  1  0  0  0  0
 34 41  1  0  0  0  0
 34 35  1  0  0  0  0
 36 42  1  0  0  0  0
 36 35  2  0  0  0  0
 37 36  1  0  0  0  0
 38 43  1  0  0  0  0
 38 37  2  0  0  0  0
 39 30  1  0  0  0  0
 40 32  1  0  0  0  0
M  END
>  <minimizedAffinity>
-7.06936455

$$$$

 OpenBabel03272507153D

 43 48  0  0  0  0  0  0  0  0999 V2000
   38.3100   27.8740   30.4910 C   0  0  0  0  0  0  0  0  0  0  0  0
   39.0080   28.3120   29.5380 O   0  0  0  0  0  0  0  0  0  0  0  0
   38.4910   26.5750   31.0960 C   0  0  0  0  0  0  0  0  0  0  0  0
   38.7920   25.5240   30.2500 C   0  0  0  0  0  0  0  0  0  0  0  0
   38.9740   24.2520   30.7850 C   0  0  0  0  0  0  0  0  0  0  0  0
   38.8400   24.1300   32.1450 N   0  0  0  0  0  0  0  0  0  0  0  0
   38.5500   25.1570   32.9420 C   0  0  0  0  0  0  0  0  0  0  0  0
   38.3770   26.3730   32.4050 N   0  0  0  0  0  0  0  0  0  0  0  0
   38.8920   25.6430   29.1810 H   0  0  0  0  0  0  0  0  0  0  0  0
   39.2080   23.4310   30.1340 H   0  0  0  0  0  0  0  0  0  0  0  0
   38.1240   26.0510   35.1970 C   0  0  0  0  0  3  0  0  0  0  0  0
   38.4160   24.9900   34.3720 C   0  0  0  0  0  0  0  0  0  0  0  0
   38.5710   23.7730   34.9980 C   0  0  0  0  0  0  0  0  0  0  0  0
   38.8030   22.8890   34.4110 H   0  0  0  0  0  0  0  0  0  0  0  0
   38.4450   23.6040   36.3680 C   0  0  0  0  0  0  0  0  0  0  0  0
   38.5310   22.5940   37.2470 N   0  0  0  0  0  0  0  0  0  0  0  0
   38.7460   21.6040   36.9780 H   0  0  0  0  0  0  0  0  0  0  0  0
   38.3050   23.0300   38.5060 C   0  0  0  0  0  0  0  0  0  0  0  0
   38.3090   22.4430   39.4180 H   0  0  0  0  0  0  0  0  0  0  0  0
   38.0550   24.3960   38.4670 C   0  0  0  0  0  3  0  0  0  0  0  0
   38.1460   24.7290   37.1390 C   0  0  0  0  0  0  0  0  0  0  0  0
   37.9820   25.9710   36.5520 C   0  0  0  0  0  3  0  0  0  0  0  0
   37.2480   28.7240   31.0250 C   0  0  0  0  0  0  0  0  0  0  0  0
   36.5600   29.5870   30.2380 C   0  0  0  0  0  0  0  0  0  0  0  0
   35.6310   30.2320   31.0600 C   0  0  0  0  0  0  0  0  0  0  0  0
   35.8300   29.6910   32.3390 C   0  0  0  0  0  0  0  0  0  0  0  0
   36.7860   28.8210   32.2400 O   0  0  0  0  0  0  0  0  0  0  0  0
   36.6770   29.7730   29.1680 H   0  0  0  0  0  0  0  0  0  0  0  0
   34.9490   30.9730   30.6940 H   0  0  0  0  0  0  0  0  0  0  0  0
   33.6920   29.8270   33.6120 C   0  0  0  0  0  0  0  0  0  0  0  0
   35.0350   30.1180   33.4930 C   0  0  0  0  0  0  0  0  0  0  0  0
   35.6980   30.8330   34.4590 C   0  0  0  0  0  0  0  0  0  0  0  0
   34.9710   31.2530   35.5660 C   0  0  0  0  0  0  0  0  0  0  0  0
   35.3610   31.9580   36.6480 N   0  0  0  0  0  0  0  0  0  0  0  0
   34.2960   32.1070   37.4310 N   0  0  0  0  0  0  0  0  0  0  0  0
   33.2420   31.5030   36.8490 C   0  0  0  0  0  0  0  0  0  0  0  0
   33.6350   30.9390   35.6440 C   0  0  0  0  0  0  0  0  0  0  0  0
   32.9640   30.2240   34.6790 C   0  0  0  0  0  0  0  0  0  0  0  0
   33.2740   29.2530   32.7790 H   0  0  0  0  0  0  0  0  0  0  0  0
   36.7640   31.1080   34.4410 H   0  0  0  0  0  0  0  0  0  0  0  0
   36.3160   32.3350   36.8700 H   0  0  0  0  0  0  0  0  0  0  0  0
   32.2080   31.4280   37.2110 H   0  0  0  0  0  0  0  0  0  0  0  0
   31.9120   29.9890   34.7620 H   0  0  0  0  0  0  0  0  0  0  0  0
  1 23  1  0  0  0  0
  1  3  1  0  0  0  0
  2  1  2  0  0  0  0
  3  8  1  0  0  0  0
  4  5  1  0  0  0  0
  4  3  2  0  0  0  0
  5  6  2  0  0  0  0
  6  7  1  0  0  0  0
  7 12  1  0  0  0  0
  8  7  2  0  0  0  0
  9  4  1  0  0  0  0
 10  5  1  0  0  0  0
 11 22  1  0  0  0  0
 12 13  1  0  0  0  0
 12 11  2  0  0  0  0
 13 15  2  0  0  0  0
 14 13  1  0  0  0  0
 15 21  1  0  0  0  0
 15 16  1  0  0  0  0
 16 18  1  0  0  0  0
 17 16  1  0  0  0  0
 18 19  1  0  0  0  0
 20 18  2  0  0  0  0
 21 20  1  0  0  0  0
 22 21  2  0  0  0  0
 23 27  1  0  0  0  0
 24 23  2  0  0  0  0
 24 25  1  0  0  0  0
 25 26  2  0  0  0  0
 26 31  1  0  0  0  0
 27 26  1  0  0  0  0
 28 24  1  0  0  0  0
 29 25  1  0  0  0  0
 30 38  1  0  0  0  0
 31 30  2  0  0  0  0
 31 32  1  0  0  0  0
 32 33  2  0  0  0  0
 33 37  1  0  0  0  0
 33 34  1  0  0  0  0
 34 41  1  0  0  0  0
 34 35  1  0  0  0  0
 36 42  1  0  0  0  0
 36 35  2  0  0  0  0
 37 36  1  0  0  0  0
 38 43  1  0  0  0  0
 38 37  2  0  0  0  0
 39 30  1  0  0  0  0
 40 32  1  0  0  0  0
M  END
>  <minimizedAffinity>
-7.04057837

$$$$

 OpenBabel03272507153D

 43 48  0  0  0  0  0  0  0  0999 V2000
   35.3400   25.2560   31.0000 C   0  0  0  0  0  0  0  0  0  0  0  0
   34.3990   25.2600   30.1640 O   0  0  0  0  0  0  0  0  0  0  0  0
   35.9060   24.0580   31.5770 C   0  0  0  0  0  0  0  0  0  0  0  0
   35.3700   22.8510   31.1690 C   0  0  0  0  0  0  0  0  0  0  0  0
   35.8800   21.6690   31.6960 C   0  0  0  0  0  0  0  0  0  0  0  0
   36.9030   21.7890   32.6030 N   0  0  0  0  0  0  0  0  0  0  0  0
   37.4050   22.9640   32.9820 C   0  0  0  0  0  0  0  0  0  0  0  0
   36.8980   24.0900   32.4610 N   0  0  0  0  0  0  0  0  0  0  0  0
   34.5640   22.7800   30.4540 H   0  0  0  0  0  0  0  0  0  0  0  0
   35.4690   20.7270   31.3850 H   0  0  0  0  0  0  0  0  0  0  0  0
   39.4590   24.0170   33.8420 C   0  0  0  0  0  3  0  0  0  0  0  0
   38.4840   23.0510   33.9400 C   0  0  0  0  0  0  0  0  0  0  0  0
   38.6070   22.1850   35.0040 C   0  0  0  0  0  0  0  0  0  0  0  0
   37.8740   21.3970   35.1470 H   0  0  0  0  0  0  0  0  0  0  0  0
   39.6390   22.2610   35.9280 C   0  0  0  0  0  0  0  0  0  0  0  0
   40.0250   21.5980   37.0290 N   0  0  0  0  0  0  0  0  0  0  0  0
   39.5110   20.7750   37.4240 H   0  0  0  0  0  0  0  0  0  0  0  0
   41.1520   22.1370   37.5440 C   0  0  0  0  0  0  0  0  0  0  0  0
   41.6940   21.8130   38.4260 H   0  0  0  0  0  0  0  0  0  0  0  0
   41.5380   23.2100   36.7510 C   0  0  0  0  0  3  0  0  0  0  0  0
   40.5900   23.2690   35.7610 C   0  0  0  0  0  0  0  0  0  0  0  0
   40.5050   24.1610   34.7060 C   0  0  0  0  0  3  0  0  0  0  0  0
   35.9020   26.5370   31.4220 C   0  0  0  0  0  0  0  0  0  0  0  0
   37.1930   26.8680   31.1750 C   0  0  0  0  0  0  0  0  0  0  0  0
   37.3940   28.1450   31.7060 C   0  0  0  0  0  0  0  0  0  0  0  0
   36.1590   28.5130   32.2610 C   0  0  0  0  0  0  0  0  0  0  0  0
   35.3410   27.5290   32.0560 O   0  0  0  0  0  0  0  0  0  0  0  0
   37.9590   26.2790   30.6640 H   0  0  0  0  0  0  0  0  0  0  0  0
   38.3350   28.6540   31.6510 H   0  0  0  0  0  0  0  0  0  0  0  0
   35.9000   30.9910   32.2210 C   0  0  0  0  0  0  0  0  0  0  0  0
   35.9620   29.8050   32.9220 C   0  0  0  0  0  0  0  0  0  0  0  0
   35.8450   29.7790   34.2890 C   0  0  0  0  0  0  0  0  0  0  0  0
   35.6570   30.9880   34.9460 C   0  0  0  0  0  0  0  0  0  0  0  0
   35.5120   31.2520   36.2610 N   0  0  0  0  0  0  0  0  0  0  0  0
   35.3600   32.5670   36.3900 N   0  0  0  0  0  0  0  0  0  0  0  0
   35.4100   33.1300   35.1670 C   0  0  0  0  0  0  0  0  0  0  0  0
   35.6000   32.1460   34.2070 C   0  0  0  0  0  0  0  0  0  0  0  0
   35.7180   32.1800   32.8380 C   0  0  0  0  0  0  0  0  0  0  0  0
   36.0070   30.8870   31.1370 H   0  0  0  0  0  0  0  0  0  0  0  0
   35.8840   28.8780   34.9220 H   0  0  0  0  0  0  0  0  0  0  0  0
   35.5110   30.5750   37.0650 H   0  0  0  0  0  0  0  0  0  0  0  0
   35.3210   34.1900   34.8950 H   0  0  0  0  0  0  0  0  0  0  0  0
   35.6700   33.1040   32.2770 H   0  0  0  0  0  0  0  0  0  0  0  0
  1 23  1  0  0  0  0
  1  3  1  0  0  0  0
  2  1  2  0  0  0  0
  3  8  1  0  0  0  0
  4  3  2  0  0  0  0
  4  5  1  0  0  0  0
  5  6  2  0  0  0  0
  6  7  1  0  0  0  0
  7 12  1  0  0  0  0
  8  7  2  0  0  0  0
  9  4  1  0  0  0  0
 10  5  1  0  0  0  0
 11 12  2  0  0  0  0
 11 22  1  0  0  0  0
 12 13  1  0  0  0  0
 13 14  1  0  0  0  0
 13 15  2  0  0  0  0
 15 16  1  0  0  0  0
 16 17  1  0  0  0  0
 16 18  1  0  0  0  0
 18 19  1  0  0  0  0
 20 18  2  0  0  0  0
 21 15  1  0  0  0  0
 21 20  1  0  0  0  0
 22 21  2  0  0  0  0
 23 27  1  0  0  0  0
 24 23  2  0  0  0  0
 24 25  1  0  0  0  0
 25 26  2  0  0  0  0
 26 31  1  0  0  0  0
 27 26  1  0  0  0  0
 28 24  1  0  0  0  0
 29 25  1  0  0  0  0
 30 38  2  0  0  0  0
 30 31  1  0  0  0  0
 31 32  2  0  0  0  0
 32 40  1  0  0  0  0
 32 33  1  0  0  0  0
 33 34  1  0  0  0  0
 34 35  1  0  0  0  0
 34 41  1  0  0  0  0
 36 35  2  0  0  0  0
 37 33  2  0  0  0  0
 37 36  1  0  0  0  0
 38 37  1  0  0  0  0
 39 30  1  0  0  0  0
 42 36  1  0  0  0  0
 43 38  1  0  0  0  0
M  END
>  <minimizedAffinity>
-7.02014017

$$$$

 OpenBabel03272507153D

 43 48  0  0  0  0  0  0  0  0999 V2000
   37.6530   27.4530   31.0430 C   0  0  0  0  0  0  0  0  0  0  0  0
   38.4900   27.7440   30.1490 O   0  0  0  0  0  0  0  0  0  0  0  0
   37.4230   26.1130   31.5320 C   0  0  0  0  0  0  0  0  0  0  0  0
   36.6420   25.2840   30.7470 C   0  0  0  0  0  0  0  0  0  0  0  0
   36.3900   23.9840   31.1740 C   0  0  0  0  0  0  0  0  0  0  0  0
   36.9480   23.6100   32.3710 N   0  0  0  0  0  0  0  0  0  0  0  0
   37.6980   24.4250   33.1110 C   0  0  0  0  0  0  0  0  0  0  0  0
   37.9270   25.6730   32.6800 N   0  0  0  0  0  0  0  0  0  0  0  0
   36.2130   25.6010   29.8080 H   0  0  0  0  0  0  0  0  0  0  0  0
   35.7850   23.3340   30.5710 H   0  0  0  0  0  0  0  0  0  0  0  0
   39.3380   23.1310   34.4140 C   0  0  0  0  0  3  0  0  0  0  0  0
   38.2690   23.9950   34.3670 C   0  0  0  0  0  0  0  0  0  0  0  0
   37.7880   24.4160   35.5880 C   0  0  0  0  0  0  0  0  0  0  0  0
   36.9450   25.0990   35.6300 H   0  0  0  0  0  0  0  0  0  0  0  0
   38.3290   24.0080   36.7980 C   0  0  0  0  0  0  0  0  0  0  0  0
   38.1010   24.2260   38.1020 N   0  0  0  0  0  0  0  0  0  0  0  0
   37.3410   24.8510   38.4640 H   0  0  0  0  0  0  0  0  0  0  0  0
   38.9760   23.5370   38.8650 C   0  0  0  0  0  0  0  0  0  0  0  0
   39.0340   23.5180   39.9480 H   0  0  0  0  0  0  0  0  0  0  0  0
   39.8310   22.8230   38.0340 C   0  0  0  0  0  3  0  0  0  0  0  0
   39.4140   23.1290   36.7630 C   0  0  0  0  0  0  0  0  0  0  0  0
   39.9290   22.6810   35.5590 C   0  0  0  0  0  3  0  0  0  0  0  0
   36.8590   28.5300   31.6310 C   0  0  0  0  0  0  0  0  0  0  0  0
   36.3620   29.5440   30.8810 C   0  0  0  0  0  0  0  0  0  0  0  0
   35.6620   30.3860   31.7490 C   0  0  0  0  0  0  0  0  0  0  0  0
   35.7890   29.7980   33.0170 C   0  0  0  0  0  0  0  0  0  0  0  0
   36.4980   28.7230   32.8690 O   0  0  0  0  0  0  0  0  0  0  0  0
   36.4660   29.7070   29.8050 H   0  0  0  0  0  0  0  0  0  0  0  0
   35.1630   31.2740   31.4180 H   0  0  0  0  0  0  0  0  0  0  0  0
   35.9120   31.1300   35.1190 C   0  0  0  0  0  0  0  0  0  0  0  0
   35.1820   30.3930   34.2100 C   0  0  0  0  0  0  0  0  0  0  0  0
   33.8380   30.1770   34.3830 C   0  0  0  0  0  0  0  0  0  0  0  0
   33.2330   30.7290   35.5050 C   0  0  0  0  0  0  0  0  0  0  0  0
   31.9500   30.6770   35.9180 N   0  0  0  0  0  0  0  0  0  0  0  0
   31.8680   31.3630   37.0540 N   0  0  0  0  0  0  0  0  0  0  0  0
   33.0900   31.8440   37.3590 C   0  0  0  0  0  0  0  0  0  0  0  0
   33.9990   31.4570   36.3850 C   0  0  0  0  0  0  0  0  0  0  0  0
   35.3460   31.6770   36.2180 C   0  0  0  0  0  0  0  0  0  0  0  0
   36.9740   31.2330   34.8750 H   0  0  0  0  0  0  0  0  0  0  0  0
   33.1850   29.6030   33.7080 H   0  0  0  0  0  0  0  0  0  0  0  0
   31.1360   30.1980   35.4570 H   0  0  0  0  0  0  0  0  0  0  0  0
   33.3920   32.4510   38.2220 H   0  0  0  0  0  0  0  0  0  0  0  0
   35.9290   32.2540   36.9240 H   0  0  0  0  0  0  0  0  0  0  0  0
  1  3  1  0  0  0  0
  1 23  1  0  0  0  0
  2  1  2  0  0  0  0
  3  8  1  0  0  0  0
  4  5  1  0  0  0  0
  4  3  2  0  0  0  0
  5  6  2  0  0  0  0
  6  7  1  0  0  0  0
  7 12  1  0  0  0  0
  8  7  2  0  0  0  0
  9  4  1  0  0  0  0
 10  5  1  0  0  0  0
 11 22  1  0  0  0  0
 12 11  2  0  0  0  0
 12 13  1  0  0  0  0
 13 14  1  0  0  0  0
 13 15  2  0  0  0  0
 15 16  1  0  0  0  0
 16 17  1  0  0  0  0
 16 18  1  0  0  0  0
 18 19  1  0  0  0  0
 20 18  2  0  0  0  0
 21 15  1  0  0  0  0
 21 20  1  0  0  0  0
 22 21  2  0  0  0  0
 23 27  1  0  0  0  0
 24 23  2  0  0  0  0
 24 25  1  0  0  0  0
 25 26  2  0  0  0  0
 26 31  1  0  0  0  0
 27 26  1  0  0  0  0
 28 24  1  0  0  0  0
 29 25  1  0  0  0  0
 30 38  1  0  0  0  0
 31 32  1  0  0  0  0
 31 30  2  0  0  0  0
 32 33  2  0  0  0  0
 33 34  1  0  0  0  0
 33 37  1  0  0  0  0
 34 35  1  0  0  0  0
 35 36  2  0  0  0  0
 36 42  1  0  0  0  0
 37 36  1  0  0  0  0
 38 37  2  0  0  0  0
 38 43  1  0  0  0  0
 39 30  1  0  0  0  0
 40 32  1  0  0  0  0
 41 34  1  0  0  0  0
M  END
>  <minimizedAffinity>
-6.9866972

$$$$

 OpenBabel03272507153D

 43 48  0  0  0  0  0  0  0  0999 V2000
   37.8380   26.7920   32.2450 C   0  0  0  0  0  0  0  0  0  0  0  0
   38.0520   27.9260   31.7410 O   0  0  0  0  0  0  0  0  0  0  0  0
   36.7980   25.8930   31.8020 C   0  0  0  0  0  0  0  0  0  0  0  0
   35.6770   26.4630   31.2260 C   0  0  0  0  0  0  0  0  0  0  0  0
   34.6470   25.6390   30.7840 C   0  0  0  0  0  0  0  0  0  0  0  0
   34.8220   24.2880   30.9550 N   0  0  0  0  0  0  0  0  0  0  0  0
   35.9100   23.7600   31.5120 C   0  0  0  0  0  0  0  0  0  0  0  0
   36.8900   24.5730   31.9320 N   0  0  0  0  0  0  0  0  0  0  0  0
   35.5610   27.5300   31.1020 H   0  0  0  0  0  0  0  0  0  0  0  0
   33.7740   26.0740   30.3360 H   0  0  0  0  0  0  0  0  0  0  0  0
   35.0520   21.5590   32.2070 C   0  0  0  0  0  3  0  0  0  0  0  0
   36.0590   22.3310   31.6760 C   0  0  0  0  0  0  0  0  0  0  0  0
   37.2040   21.6550   31.3150 C   0  0  0  0  0  0  0  0  0  0  0  0
   38.0410   22.1990   30.8880 H   0  0  0  0  0  0  0  0  0  0  0  0
   37.3550   20.2850   31.4680 C   0  0  0  0  0  0  0  0  0  0  0  0
   38.3020   19.3660   31.2260 N   0  0  0  0  0  0  0  0  0  0  0  0
   39.2370   19.5890   30.8090 H   0  0  0  0  0  0  0  0  0  0  0  0
   37.8810   18.1350   31.5900 C   0  0  0  0  0  0  0  0  0  0  0  0
   38.4290   17.2020   31.5130 H   0  0  0  0  0  0  0  0  0  0  0  0
   36.5930   18.2340   32.1000 C   0  0  0  0  0  3  0  0  0  0  0  0
   36.2880   19.5690   32.0150 C   0  0  0  0  0  0  0  0  0  0  0  0
   35.1200   20.2080   32.3910 C   0  0  0  0  0  3  0  0  0  0  0  0
   38.6870   26.3490   33.3490 C   0  0  0  0  0  0  0  0  0  0  0  0
   38.8750   27.1080   34.4560 C   0  0  0  0  0  0  0  0  0  0  0  0
   39.7310   26.3910   35.2980 C   0  0  0  0  0  0  0  0  0  0  0  0
   40.0110   25.1990   34.6130 C   0  0  0  0  0  0  0  0  0  0  0  0
   39.3690   25.2460   33.4880 O   0  0  0  0  0  0  0  0  0  0  0  0
   38.4590   28.0920   34.6840 H   0  0  0  0  0  0  0  0  0  0  0  0
   40.0490   26.7620   36.2520 H   0  0  0  0  0  0  0  0  0  0  0  0
   42.1890   23.9970   34.7570 C   0  0  0  0  0  0  0  0  0  0  0  0
   40.8870   24.1700   35.1780 C   0  0  0  0  0  0  0  0  0  0  0  0
   40.3420   23.3760   36.1560 C   0  0  0  0  0  0  0  0  0  0  0  0
   41.1480   22.3910   36.7130 C   0  0  0  0  0  0  0  0  0  0  0  0
   40.8780   21.4840   37.6740 N   0  0  0  0  0  0  0  0  0  0  0  0
   41.9760   20.7580   37.8580 N   0  0  0  0  0  0  0  0  0  0  0  0
   42.9340   21.2000   37.0200 C   0  0  0  0  0  0  0  0  0  0  0  0
   42.4400   22.2530   36.2630 C   0  0  0  0  0  0  0  0  0  0  0  0
   42.9910   23.0450   35.2820 C   0  0  0  0  0  0  0  0  0  0  0  0
   42.5100   24.6880   33.9710 H   0  0  0  0  0  0  0  0  0  0  0  0
   39.3160   23.4480   36.5480 H   0  0  0  0  0  0  0  0  0  0  0  0
   39.9810   21.3450   38.2050 H   0  0  0  0  0  0  0  0  0  0  0  0
   43.9620   20.8360   36.8990 H   0  0  0  0  0  0  0  0  0  0  0  0
   44.0110   22.9180   34.9440 H   0  0  0  0  0  0  0  0  0  0  0  0
  1 23  1  0  0  0  0
  2  1  2  0  0  0  0
  3  8  1  0  0  0  0
  3  1  1  0  0  0  0
  4  3  2  0  0  0  0
  5  6  2  0  0  0  0
  5  4  1  0  0  0  0
  6  7  1  0  0  0  0
  7 12  1  0  0  0  0
  7  8  2  0  0  0  0
  9  4  1  0  0  0  0
 10  5  1  0  0  0  0
 11 22  1  0  0  0  0
 12 11  2  0  0  0  0
 13 15  2  0  0  0  0
 13 12  1  0  0  0  0
 14 13  1  0  0  0  0
 15 21  1  0  0  0  0
 16 15  1  0  0  0  0
 16 18  1  0  0  0  0
 17 16  1  0  0  0  0
 18 20  2  0  0  0  0
 19 18  1  0  0  0  0
 21 20  1  0  0  0  0
 21 22  2  0  0  0  0
 23 27  1  0  0  0  0
 23 24  2  0  0  0  0
 24 28  1  0  0  0  0
 24 25  1  0  0  0  0
 25 29  1  0  0  0  0
 26 31  1  0  0  0  0
 26 25  2  0  0  0  0
 27 26  1  0  0  0  0
 30 31  2  0  0  0  0
 30 38  1  0  0  0  0
 31 32  1  0  0  0  0
 32 40  1  0  0  0  0
 32 33  2  0  0  0  0
 33 34  1  0  0  0  0
 34 35  1  0  0  0  0
 34 41  1  0  0  0  0
 36 35  2  0  0  0  0
 37 33  1  0  0  0  0
 37 36  1  0  0  0  0
 38 37  2  0  0  0  0
 39 30  1  0  0  0  0
 42 36  1  0  0  0  0
 43 38  1  0  0  0  0
M  END
>  <minimizedAffinity>
-6.96857405

$$$$

 OpenBabel03272507153D

 43 48  0  0  0  0  0  0  0  0999 V2000
   37.9230   27.1070   31.5280 C   0  0  0  0  0  0  0  0  0  0  0  0
   39.1810   27.0870   31.5610 O   0  0  0  0  0  0  0  0  0  0  0  0
   37.1320   28.3170   31.5340 C   0  0  0  0  0  0  0  0  0  0  0  0
   37.0440   29.0160   30.3450 C   0  0  0  0  0  0  0  0  0  0  0  0
   36.2960   30.1880   30.3000 C   0  0  0  0  0  0  0  0  0  0  0  0
   35.6850   30.5740   31.4660 N   0  0  0  0  0  0  0  0  0  0  0  0
   35.7820   29.8850   32.6020 C   0  0  0  0  0  0  0  0  0  0  0  0
   36.5090   28.7590   32.6220 N   0  0  0  0  0  0  0  0  0  0  0  0
   37.5350   28.6930   29.4380 H   0  0  0  0  0  0  0  0  0  0  0  0
   36.2220   30.7370   29.3800 H   0  0  0  0  0  0  0  0  0  0  0  0
   35.6950   31.2560   34.6450 C   0  0  0  0  0  3  0  0  0  0  0  0
   35.1240   30.3230   33.8120 C   0  0  0  0  0  0  0  0  0  0  0  0
   33.8950   29.8410   34.2080 C   0  0  0  0  0  0  0  0  0  0  0  0
   33.3830   29.1020   33.6000 H   0  0  0  0  0  0  0  0  0  0  0  0
   33.2560   30.2560   35.3670 C   0  0  0  0  0  0  0  0  0  0  0  0
   32.1060   29.9920   36.0050 N   0  0  0  0  0  0  0  0  0  0  0  0
   31.3900   29.3090   35.6570 H   0  0  0  0  0  0  0  0  0  0  0  0
   32.0060   30.7210   37.1380 C   0  0  0  0  0  0  0  0  0  0  0  0
   31.1910   30.7180   37.8540 H   0  0  0  0  0  0  0  0  0  0  0  0
   33.1420   31.5090   37.2650 C   0  0  0  0  0  3  0  0  0  0  0  0
   33.9000   31.2070   36.1610 C   0  0  0  0  0  0  0  0  0  0  0  0
   35.1350   31.7170   35.8010 C   0  0  0  0  0  3  0  0  0  0  0  0
   37.2060   25.8350   31.4800 C   0  0  0  0  0  0  0  0  0  0  0  0
   35.8950   25.7650   31.1430 C   0  0  0  0  0  0  0  0  0  0  0  0
   35.5330   24.4160   31.1970 C   0  0  0  0  0  0  0  0  0  0  0  0
   36.6990   23.7350   31.5790 C   0  0  0  0  0  0  0  0  0  0  0  0
   37.6290   24.6260   31.7250 O   0  0  0  0  0  0  0  0  0  0  0  0
   35.2180   26.5800   30.8750 H   0  0  0  0  0  0  0  0  0  0  0  0
   34.5430   24.0720   30.9740 H   0  0  0  0  0  0  0  0  0  0  0  0
   37.9040   21.5760   31.8840 C   0  0  0  0  0  0  0  0  0  0  0  0
   36.7260   22.2810   31.7470 C   0  0  0  0  0  0  0  0  0  0  0  0
   35.5100   21.6450   31.7600 C   0  0  0  0  0  0  0  0  0  0  0  0
   35.5020   20.2660   31.9180 C   0  0  0  0  0  0  0  0  0  0  0  0
   34.4690   19.4000   31.9670 N   0  0  0  0  0  0  0  0  0  0  0  0
   34.9760   18.1820   32.1310 N   0  0  0  0  0  0  0  0  0  0  0  0
   36.3190   18.2750   32.1850 C   0  0  0  0  0  0  0  0  0  0  0  0
   36.6990   19.6030   32.0510 C   0  0  0  0  0  0  0  0  0  0  0  0
   37.9220   20.2330   32.0380 C   0  0  0  0  0  0  0  0  0  0  0  0
   38.8090   22.1900   31.8570 H   0  0  0  0  0  0  0  0  0  0  0  0
   34.5270   22.1320   31.6570 H   0  0  0  0  0  0  0  0  0  0  0  0
   33.4410   19.6070   31.8950 H   0  0  0  0  0  0  0  0  0  0  0  0
   37.0590   17.4740   32.3120 H   0  0  0  0  0  0  0  0  0  0  0  0
   38.8520   19.6910   32.1450 H   0  0  0  0  0  0  0  0  0  0  0  0
  1  3  1  0  0  0  0
  1  2  2  0  0  0  0
  3  8  1  0  0  0  0
  4  3  2  0  0  0  0
  5  4  1  0  0  0  0
  5  6  2  0  0  0  0
  6  7  1  0  0  0  0
  7  8  2  0  0  0  0
  7 12  1  0  0  0  0
  9  4  1  0  0  0  0
 10  5  1  0  0  0  0
 11 22  1  0  0  0  0
 12 13  1  0  0  0  0
 12 11  2  0  0  0  0
 13 15  2  0  0  0  0
 14 13  1  0  0  0  0
 15 16  1  0  0  0  0
 15 21  1  0  0  0  0
 16 18  1  0  0  0  0
 17 16  1  0  0  0  0
 18 20  2  0  0  0  0
 18 19  1  0  0  0  0
 21 20  1  0  0  0  0
 22 21  2  0  0  0  0
 23  1  1  0  0  0  0
 23 27  1  0  0  0  0
 24 25  1  0  0  0  0
 24 23  2  0  0  0  0
 25 26  2  0  0  0  0
 26 27  1  0  0  0  0
 26 31  1  0  0  0  0
 28 24  1  0  0  0  0
 29 25  1  0  0  0  0
 30 38  1  0  0  0  0
 31 32  1  0  0  0  0
 31 30  2  0  0  0  0
 32 33  2  0  0  0  0
 33 34  1  0  0  0  0
 33 37  1  0  0  0  0
 34 35  1  0  0  0  0
 35 36  2  0  0  0  0
 36 42  1  0  0  0  0
 37 36  1  0  0  0  0
 38 37  2  0  0  0  0
 38 43  1  0  0  0  0
 39 30  1  0  0  0  0
 40 32  1  0  0  0  0
 41 34  1  0  0  0  0
M  END
>  <minimizedAffinity>
-6.94500732

$$$$

 OpenBabel03272507153D

 43 48  0  0  0  0  0  0  0  0999 V2000
   38.8880   26.4120   34.6440 C   0  0  0  0  0  0  0  0  0  0  0  0
   39.8490   26.9070   35.2890 O   0  0  0  0  0  0  0  0  0  0  0  0
   37.8880   27.1940   33.9540 C   0  0  0  0  0  0  0  0  0  0  0  0
   37.8090   27.0440   32.5820 C   0  0  0  0  0  0  0  0  0  0  0  0
   36.8630   27.7760   31.8720 C   0  0  0  0  0  0  0  0  0  0  0  0
   36.0570   28.6140   32.6010 N   0  0  0  0  0  0  0  0  0  0  0  0
   36.1500   28.7430   33.9240 C   0  0  0  0  0  0  0  0  0  0  0  0
   37.0690   28.0280   34.5870 N   0  0  0  0  0  0  0  0  0  0  0  0
   38.4550   26.3790   32.0280 H   0  0  0  0  0  0  0  0  0  0  0  0
   36.7950   27.6650   30.8060 H   0  0  0  0  0  0  0  0  0  0  0  0
   33.9160   29.5950   34.5130 C   0  0  0  0  0  3  0  0  0  0  0  0
   35.2830   29.6360   34.6590 C   0  0  0  0  0  0  0  0  0  0  0  0
   35.7610   30.5770   35.5450 C   0  0  0  0  0  0  0  0  0  0  0  0
   36.8290   30.6670   35.7120 H   0  0  0  0  0  0  0  0  0  0  0  0
   34.9360   31.4370   36.2540 C   0  0  0  0  0  0  0  0  0  0  0  0
   35.0830   32.4220   37.1530 N   0  0  0  0  0  0  0  0  0  0  0  0
   36.0110   32.7450   37.5190 H   0  0  0  0  0  0  0  0  0  0  0  0
   33.8820   32.9280   37.5130 C   0  0  0  0  0  0  0  0  0  0  0  0
   33.6890   33.7280   38.2190 H   0  0  0  0  0  0  0  0  0  0  0  0
   32.8860   32.2500   36.8220 C   0  0  0  0  0  3  0  0  0  0  0  0
   33.5590   31.3350   36.0520 C   0  0  0  0  0  0  0  0  0  0  0  0
   33.0360   30.4040   35.1720 C   0  0  0  0  0  3  0  0  0  0  0  0
   38.7660   24.9580   34.5810 C   0  0  0  0  0  0  0  0  0  0  0  0
   39.6780   24.1380   35.1600 C   0  0  0  0  0  0  0  0  0  0  0  0
   39.2610   22.8270   34.9110 C   0  0  0  0  0  0  0  0  0  0  0  0
   38.0760   22.9500   34.1690 C   0  0  0  0  0  0  0  0  0  0  0  0
   37.8520   24.2180   34.0170 O   0  0  0  0  0  0  0  0  0  0  0  0
   40.5770   24.4090   35.7190 H   0  0  0  0  0  0  0  0  0  0  0  0
   39.8020   21.9710   35.2590 H   0  0  0  0  0  0  0  0  0  0  0  0
   36.2230   21.2990   34.3860 C   0  0  0  0  0  0  0  0  0  0  0  0
   37.3250   21.7800   33.7110 C   0  0  0  0  0  0  0  0  0  0  0  0
   37.7770   21.1760   32.5640 C   0  0  0  0  0  0  0  0  0  0  0  0
   37.0850   20.0630   32.1030 C   0  0  0  0  0  0  0  0  0  0  0  0
   37.3050   19.2870   31.0210 N   0  0  0  0  0  0  0  0  0  0  0  0
   36.3680   18.3440   31.0110 N   0  0  0  0  0  0  0  0  0  0  0  0
   35.5630   18.5190   32.0770 C   0  0  0  0  0  0  0  0  0  0  0  0
   35.9920   19.6180   32.8080 C   0  0  0  0  0  0  0  0  0  0  0  0
   35.5340   20.2180   33.9580 C   0  0  0  0  0  0  0  0  0  0  0  0
   35.9580   21.8620   35.2870 H   0  0  0  0  0  0  0  0  0  0  0  0
   38.6460   21.4950   31.9670 H   0  0  0  0  0  0  0  0  0  0  0  0
   38.0610   19.3780   30.2970 H   0  0  0  0  0  0  0  0  0  0  0  0
   34.6910   17.9290   32.3830 H   0  0  0  0  0  0  0  0  0  0  0  0
   34.6710   19.8510   34.4960 H   0  0  0  0  0  0  0  0  0  0  0  0
  1  2  2  0  0  0  0
  3  8  1  0  0  0  0
  3  1  1  0  0  0  0
  4  3  2  0  0  0  0
  5  4  1  0  0  0  0
  5  6  2  0  0  0  0
  6  7  1  0  0  0  0
  7  8  2  0  0  0  0
  7 12  1  0  0  0  0
  9  4  1  0  0  0  0
 10  5  1  0  0  0  0
 11 12  2  0  0  0  0
 11 22  1  0  0  0  0
 12 13  1  0  0  0  0
 13 14  1  0  0  0  0
 13 15  2  0  0  0  0
 15 16  1  0  0  0  0
 16 18  1  0  0  0  0
 16 17  1  0  0  0  0
 18 19  1  0  0  0  0
 20 18  2  0  0  0  0
 21 15  1  0  0  0  0
 21 20  1  0  0  0  0
 22 21  2  0  0  0  0
 23  1  1  0  0  0  0
 23 24  2  0  0  0  0
 24 28  1  0  0  0  0
 25 24  1  0  0  0  0
 25 29  1  0  0  0  0
 26 25  2  0  0  0  0
 27 26  1  0  0  0  0
 27 23  1  0  0  0  0
 30 39  1  0  0  0  0
 31 26  1  0  0  0  0
 31 30  2  0  0  0  0
 32 31  1  0  0  0  0
 33 32  2  0  0  0  0
 33 37  1  0  0  0  0
 34 33  1  0  0  0  0
 35 34  1  0  0  0  0
 35 36  2  0  0  0  0
 36 42  1  0  0  0  0
 36 37  1  0  0  0  0
 37 38  2  0  0  0  0
 38 30  1  0  0  0  0
 38 43  1  0  0  0  0
 40 32  1  0  0  0  0
 41 34  1  0  0  0  0
M  END
>  <minimizedAffinity>
-6.92956018

$$$$
