
 OpenBabel03272510253D

 48 53  0  0  1  0  0  0  0  0999 V2000
   39.7750   31.7570   42.3500 N   0  0  0  0  0  0  0  0  0  0  0  0
   39.6420   33.2160   42.2210 C   0  0  1  0  0  0  0  0  0  0  0  0
   38.4120   33.5150   41.4960 C   0  0  0  0  0  0  0  0  0  0  0  0
   38.5360   33.0180   40.1860 O   0  0  0  0  0  0  0  0  0  0  0  0
   38.8340   31.6940   40.0900 C   0  0  0  0  0  0  0  0  0  0  0  0
   39.9470   31.2540   41.0050 C   0  0  2  0  0  0  0  0  0  0  0  0
   40.6620   31.5990   42.8640 H   0  0  0  0  0  0  0  0  0  0  0  0
   40.4940   33.6510   41.6940 H   0  0  0  0  0  0  0  0  0  0  0  0
   37.4390   33.2370   41.7900 H   0  0  0  0  0  0  0  0  0  0  0  0
   38.3910   34.6370   41.3360 H   0  0  0  0  0  0  0  0  0  0  0  0
   39.1660   31.4920   39.0600 H   0  0  0  0  0  0  0  0  0  0  0  0
   37.9210   31.0890   40.2500 H   0  0  0  0  0  0  0  0  0  0  0  0
   40.9580   31.4200   40.5990 H   0  0  0  0  0  0  0  0  0  0  0  0
   39.7130   29.0370   39.9740 C   0  0  0  0  0  0  0  0  0  0  0  0
   39.7270   29.7670   41.1630 C   0  0  0  0  0  0  0  0  0  0  0  0
   39.5460   29.1100   42.3630 C   0  0  0  0  0  0  0  0  0  0  0  0
   39.5660   29.7230   43.2520 H   0  0  0  0  0  0  0  0  0  0  0  0
   39.3550   27.7370   42.3430 C   0  0  0  0  0  0  0  0  0  0  0  0
   39.1600   26.8740   43.3380 N   0  0  0  0  0  0  0  0  0  0  0  0
   39.1190   27.1290   44.3530 H   0  0  0  0  0  0  0  0  0  0  0  0
   39.0200   25.6280   42.8450 C   0  0  0  0  0  0  0  0  0  0  0  0
   38.8520   24.7380   43.4330 H   0  0  0  0  0  0  0  0  0  0  0  0
   39.1330   25.7030   41.4770 C   0  0  0  0  0  0  0  0  0  0  0  0
   39.3430   27.0300   41.1430 C   0  0  0  0  0  0  0  0  0  0  0  0
   39.5230   27.6660   39.9320 C   0  0  0  0  0  0  0  0  0  0  0  0
   39.5910   33.6720   43.5690 O   0  0  0  0  0  0  0  0  0  0  0  0
   36.2300   30.2500   47.0160 C   0  0  0  0  0  0  0  0  0  0  0  0
   37.0580   30.7860   48.0000 C   0  0  0  0  0  0  0  0  0  0  0  0
   38.0600   31.6900   47.6770 C   0  0  0  0  0  0  0  0  0  0  0  0
   38.1860   32.0220   46.3350 C   0  0  0  0  0  0  0  0  0  0  0  0
   39.0920   32.8820   45.7760 N   0  0  0  0  0  0  0  0  0  0  0  0
   38.8380   32.8860   44.4580 C   0  0  0  0  0  0  0  0  0  0  0  0
   37.8360   32.0830   44.1760 N   0  0  0  0  0  0  0  0  0  0  0  0
   37.3920   31.5170   45.3300 C   0  0  0  0  0  0  0  0  0  0  0  0
   36.3860   30.6060   45.6840 C   0  0  0  0  0  0  0  0  0  0  0  0
   35.4490   29.5510   47.2340 H   0  0  0  0  0  0  0  0  0  0  0  0
   38.6920   32.0980   48.4420 H   0  0  0  0  0  0  0  0  0  0  0  0
   39.8230   33.4160   46.2950 H   0  0  0  0  0  0  0  0  0  0  0  0
   35.7670   30.2150   44.8880 H   0  0  0  0  0  0  0  0  0  0  0  0
   37.3860   30.0560   51.6640 C   0  0  0  0  0  0  0  0  0  0  0  0
   37.7140   30.5310   50.4070 C   0  0  0  0  0  0  0  0  0  0  0  0
   36.8210   30.3400   49.3590 C   0  0  0  0  0  0  0  0  0  0  0  0
   35.6590   29.6840   49.6370 N   0  0  0  0  0  0  0  0  0  0  0  0
   35.3450   29.2250   50.8610 C   0  0  0  0  0  0  0  0  0  0  0  0
   36.2070   29.4140   51.8590 N   0  0  0  0  0  0  0  0  0  0  0  0
   38.1400   30.2500   52.4240 H   0  0  0  0  0  0  0  0  0  0  0  0
   38.6430   31.0530   50.1950 H   0  0  0  0  0  0  0  0  0  0  0  0
   34.4100   28.7090   51.0440 H   0  0  0  0  0  0  0  0  0  0  0  0
  1  7  1  0  0  0  0
  2  8  1  6  0  0  0
  2  1  1  0  0  0  0
  2 26  1  0  0  0  0
  3  9  1  0  0  0  0
  3  2  1  0  0  0  0
  4  3  1  0  0  0  0
  5  4  1  0  0  0  0
  5 12  1  0  0  0  0
  5  6  1  0  0  0  0
  6 13  1  6  0  0  0
  6 15  1  0  0  0  0
  6  1  1  0  0  0  0
 10  3  1  0  0  0  0
 11  5  1  0  0  0  0
 14 15  1  0  0  0  0
 15 16  2  0  0  0  0
 16 17  1  0  0  0  0
 18 16  1  0  0  0  0
 18 19  1  0  0  0  0
 19 20  1  0  0  0  0
 21 19  1  0  0  0  0
 21 22  1  0  0  0  0
 23 21  2  0  0  0  0
 24 23  1  0  0  0  0
 24 18  2  0  0  0  0
 25 14  2  0  0  0  0
 25 24  1  0  0  0  0
 26 32  1  0  0  0  0
 27 36  1  0  0  0  0
 27 28  1  0  0  0  0
 28 42  1  0  0  0  0
 29 28  2  0  0  0  0
 29 37  1  0  0  0  0
 30 29  1  0  0  0  0
 31 38  1  0  0  0  0
 31 30  1  0  0  0  0
 32 31  1  0  0  0  0
 33 32  2  0  0  0  0
 33 34  1  0  0  0  0
 34 35  1  0  0  0  0
 34 30  2  0  0  0  0
 35 27  2  0  0  0  0
 39 35  1  0  0  0  0
 40 45  1  0  0  0  0
 40 46  1  0  0  0  0
 41 40  2  0  0  0  0
 42 43  2  0  0  0  0
 42 41  1  0  0  0  0
 43 44  1  0  0  0  0
 44 48  1  0  0  0  0
 44 45  2  0  0  0  0
 47 41  1  0  0  0  0
M  END
>  <minimizedAffinity>
-6.42097187

>  <minimizedRMSD>
0.76709491

$$$$
