
 OpenBabel03272510253D

 48 53  0  0  1  0  0  0  0  0999 V2000
   39.7770   31.7010   42.5000 N   0  0  0  0  0  0  0  0  0  0  0  0
   39.7400   33.1580   42.3010 C   0  0  1  0  0  0  0  0  0  0  0  0
   38.6040   33.4880   41.4480 C   0  0  0  0  0  0  0  0  0  0  0  0
   38.8240   32.9260   40.1770 O   0  0  0  0  0  0  0  0  0  0  0  0
   39.0530   31.5860   40.1640 C   0  0  0  0  0  0  0  0  0  0  0  0
   40.0480   31.1300   41.2000 C   0  0  2  0  0  0  0  0  0  0  0  0
   40.6010   31.5200   43.1040 H   0  0  0  0  0  0  0  0  0  0  0  0
   40.6620   33.5230   41.8430 H   0  0  0  0  0  0  0  0  0  0  0  0
   37.5930   33.2760   41.6570 H   0  0  0  0  0  0  0  0  0  0  0  0
   38.6620   34.6020   41.2420 H   0  0  0  0  0  0  0  0  0  0  0  0
   39.4700   31.3210   39.1810 H   0  0  0  0  0  0  0  0  0  0  0  0
   38.0960   31.0370   40.2590 H   0  0  0  0  0  0  0  0  0  0  0  0
   41.1000   31.2230   40.8880 H   0  0  0  0  0  0  0  0  0  0  0  0
   40.5800   28.7780   40.7370 C   0  0  0  0  0  3  0  0  0  0  0  0
   39.7290   29.6650   41.3950 C   0  0  0  0  0  0  0  0  0  0  0  0
   38.6880   29.1700   42.1540 C   0  0  0  0  0  0  0  0  0  0  0  0
   38.0610   29.9010   42.6420 H   0  0  0  0  0  0  0  0  0  0  0  0
   38.5260   27.7940   42.2350 C   0  0  0  0  0  0  0  0  0  0  0  0
   37.6210   27.0650   42.8850 N   0  0  0  0  0  0  0  0  0  0  0  0
   36.8460   27.4550   43.4730 H   0  0  0  0  0  0  0  0  0  0  0  0
   37.8510   25.7540   42.6760 C   0  0  0  0  0  0  0  0  0  0  0  0
   37.2670   24.9440   43.0860 H   0  0  0  0  0  0  0  0  0  0  0  0
   38.9500   25.6460   41.8580 C   0  0  0  0  0  3  0  0  0  0  0  0
   39.3890   26.9280   41.5690 C   0  0  0  0  0  0  0  0  0  0  0  0
   40.4350   27.4020   40.8050 C   0  0  0  0  0  3  0  0  0  0  0  0
   39.5870   33.6770   43.6180 O   0  0  0  0  0  0  0  0  0  0  0  0
   36.2000   30.2740   47.0580 C   0  0  0  0  0  0  0  0  0  0  0  0
   37.0450   30.7860   48.0410 C   0  0  0  0  0  0  0  0  0  0  0  0
   38.0600   31.6760   47.7180 C   0  0  0  0  0  0  0  0  0  0  0  0
   38.1790   32.0210   46.3790 C   0  0  0  0  0  0  0  0  0  0  0  0
   39.0950   32.8720   45.8210 N   0  0  0  0  0  0  0  0  0  0  0  0
   38.8290   32.8940   44.5050 C   0  0  0  0  0  0  0  0  0  0  0  0
   37.8120   32.1100   44.2240 N   0  0  0  0  0  0  0  0  0  0  0  0
   37.3680   31.5390   45.3760 C   0  0  0  0  0  0  0  0  0  0  0  0
   36.3510   30.6420   45.7290 C   0  0  0  0  0  0  0  0  0  0  0  0
   35.4090   29.5860   47.2760 H   0  0  0  0  0  0  0  0  0  0  0  0
   38.7050   32.0660   48.4820 H   0  0  0  0  0  0  0  0  0  0  0  0
   39.8390   33.3880   46.3400 H   0  0  0  0  0  0  0  0  0  0  0  0
   35.7180   30.2690   44.9340 H   0  0  0  0  0  0  0  0  0  0  0  0
   37.3840   30.0300   51.6980 C   0  0  0  0  0  0  0  0  0  0  0  0
   37.7070   30.5150   50.4440 C   0  0  0  0  0  0  0  0  0  0  0  0
   36.8120   30.3290   49.3970 C   0  0  0  0  0  0  0  0  0  0  0  0
   35.6530   29.6680   49.6730 N   0  0  0  0  0  0  0  0  0  0  0  0
   35.3430   29.2000   50.8940 C   0  0  0  0  0  0  0  0  0  0  0  0
   36.2060   29.3830   51.8920 N   0  0  0  0  0  0  0  0  0  0  0  0
   38.1390   30.2200   52.4580 H   0  0  0  0  0  0  0  0  0  0  0  0
   38.6340   31.0410   50.2340 H   0  0  0  0  0  0  0  0  0  0  0  0
   34.4090   28.6790   51.0750 H   0  0  0  0  0  0  0  0  0  0  0  0
  1  7  1  0  0  0  0
  2  8  1  6  0  0  0
  2  1  1  0  0  0  0
  2 26  1  0  0  0  0
  3  9  1  0  0  0  0
  3  2  1  0  0  0  0
  4  3  1  0  0  0  0
  5  4  1  0  0  0  0
  5 12  1  0  0  0  0
  5  6  1  0  0  0  0
  6 13  1  6  0  0  0
  6 15  1  0  0  0  0
  6  1  1  0  0  0  0
 10  3  1  0  0  0  0
 11  5  1  0  0  0  0
 14 25  2  0  0  0  0
 14 15  1  0  0  0  0
 15 16  2  0  0  0  0
 16 18  1  0  0  0  0
 16 17  1  0  0  0  0
 18 19  1  0  0  0  0
 19 20  1  0  0  0  0
 21 19  1  0  0  0  0
 21 22  1  0  0  0  0
 23 21  2  0  0  0  0
 24 23  1  0  0  0  0
 24 18  2  0  0  0  0
 25 24  1  0  0  0  0
 26 32  1  0  0  0  0
 27 36  1  0  0  0  0
 27 28  1  0  0  0  0
 28 42  1  0  0  0  0
 29 28  2  0  0  0  0
 29 37  1  0  0  0  0
 30 29  1  0  0  0  0
 31 38  1  0  0  0  0
 31 30  1  0  0  0  0
 32 31  1  0  0  0  0
 33 32  2  0  0  0  0
 33 34  1  0  0  0  0
 34 35  1  0  0  0  0
 34 30  2  0  0  0  0
 35 27  2  0  0  0  0
 39 35  1  0  0  0  0
 40 45  1  0  0  0  0
 40 46  1  0  0  0  0
 41 40  2  0  0  0  0
 42 43  2  0  0  0  0
 42 41  1  0  0  0  0
 43 44  1  0  0  0  0
 44 48  1  0  0  0  0
 44 45  2  0  0  0  0
 47 41  1  0  0  0  0
M  END
>  <minimizedAffinity>
-6.25715446

>  <minimizedRMSD>
1.04332078

$$$$
