
 OpenBabel03272509303D

 41 44  0  0  1  0  0  0  0  0999 V2000
   36.3640   30.7000   49.0260 C   0  0  2  0  0  0  0  0  0  0  0  0
   37.3420   31.4810   49.8510 C   0  0  0  0  0  0  0  0  0  0  0  0
   38.1260   30.6230   50.8140 C   0  0  0  0  0  0  0  0  0  0  0  0
   37.1960   29.8220   51.7190 C   0  0  0  0  0  0  0  0  0  0  0  0
   35.9280   29.3670   51.0480 C   0  0  0  0  0  0  0  0  0  0  0  0
   36.1890   29.3060   49.5310 C   0  0  1  0  0  0  0  0  0  0  0  0
   35.3320   31.1500   48.9950 H   0  0  0  0  0  0  0  0  0  0  0  0
   36.6820   32.1160   50.5340 H   0  0  0  0  0  0  0  0  0  0  0  0
   37.9710   32.1860   49.3440 H   0  0  0  0  0  0  0  0  0  0  0  0
   38.6620   31.3250   51.4920 H   0  0  0  0  0  0  0  0  0  0  0  0
   38.8790   29.9800   50.3400 H   0  0  0  0  0  0  0  0  0  0  0  0
   37.7610   28.9090   52.0100 H   0  0  0  0  0  0  0  0  0  0  0  0
   36.9470   30.3840   52.6360 H   0  0  0  0  0  0  0  0  0  0  0  0
   35.1260   30.1140   51.1650 H   0  0  0  0  0  0  0  0  0  0  0  0
   35.6220   28.3850   51.4440 H   0  0  0  0  0  0  0  0  0  0  0  0
   37.1110   28.7770   49.5190 H   0  0  0  0  0  0  0  0  0  0  0  0
   36.7860   30.6450   47.6020 C   0  0  0  0  0  0  0  0  0  0  0  0
   38.1560   30.8390   47.3680 C   0  0  0  0  0  0  0  0  0  0  0  0
   38.5810   30.7860   46.0360 C   0  0  0  0  0  0  0  0  0  0  0  0
   37.6490   30.5510   45.0510 N   0  0  0  0  0  0  0  0  0  0  0  0
   36.3200   30.3670   45.3350 C   0  0  0  0  0  0  0  0  0  0  0  0
   35.9110   30.4180   46.6170 N   0  0  0  0  0  0  0  0  0  0  0  0
   38.9820   31.0190   48.0280 H   0  0  0  0  0  0  0  0  0  0  0  0
   39.5970   30.9170   45.7010 H   0  0  0  0  0  0  0  0  0  0  0  0
   35.6690   30.1870   44.4880 H   0  0  0  0  0  0  0  0  0  0  0  0
   33.8820   28.3570   49.0310 C   0  0  0  0  0  0  0  0  0  0  0  0
   33.1070   28.9400   49.8800 O   0  0  0  0  0  0  0  0  0  0  0  0
   35.2680   28.5170   48.7990 N   0  0  0  0  0  0  0  0  0  0  0  0
   35.6200   27.9630   47.9570 H   0  0  0  0  0  0  0  0  0  0  0  0
   33.6220   26.3050   47.6370 C   0  0  0  0  0  3  0  0  0  0  0  0
   33.0740   27.4100   48.2520 C   0  0  0  0  0  0  0  0  0  0  0  0
   31.7260   27.5180   48.0540 C   0  0  0  0  0  0  0  0  0  0  0  0
   31.1540   28.3180   48.4640 H   0  0  0  0  0  0  0  0  0  0  0  0
   30.9570   26.6380   47.3250 C   0  0  0  0  0  0  0  0  0  0  0  0
   29.6540   26.5400   47.0020 N   0  0  0  0  0  0  0  0  0  0  0  0
   28.9190   27.2210   47.3030 H   0  0  0  0  0  0  0  0  0  0  0  0
   29.4220   25.4650   46.2520 C   0  0  0  0  0  0  0  0  0  0  0  0
   28.4450   25.1730   45.8650 H   0  0  0  0  0  0  0  0  0  0  0  0
   30.6100   24.8110   46.0580 C   0  0  0  0  0  3  0  0  0  0  0  0
   31.5460   25.5530   46.7310 C   0  0  0  0  0  0  0  0  0  0  0  0
   32.8930   25.3810   46.8850 C   0  0  0  0  0  3  0  0  0  0  0  0
  1  7  1  1  0  0  0
  1  6  1  0  0  0  0
  1  2  1  0  0  0  0
  2  8  1  0  0  0  0
  2  3  1  0  0  0  0
  3 10  1  0  0  0  0
  3  4  1  0  0  0  0
  4 12  1  0  0  0  0
  4 13  1  0  0  0  0
  5 14  1  0  0  0  0
  5 15  1  0  0  0  0
  5  4  1  0  0  0  0
  6 16  1  6  0  0  0
  6  5  1  0  0  0  0
  9  2  1  0  0  0  0
 11  3  1  0  0  0  0
 17  1  1  0  0  0  0
 18 17  1  0  0  0  0
 18 23  1  0  0  0  0
 19 18  2  0  0  0  0
 20 21  2  0  0  0  0
 20 19  1  0  0  0  0
 21 22  1  0  0  0  0
 22 17  2  0  0  0  0
 24 19  1  0  0  0  0
 25 21  1  0  0  0  0
 26 27  2  0  0  0  0
 28 26  1  0  0  0  0
 28  6  1  0  0  0  0
 29 28  1  0  0  0  0
 30 31  1  0  0  0  0
 31 26  1  0  0  0  0
 32 31  2  0  0  0  0
 32 33  1  0  0  0  0
 34 32  1  0  0  0  0
 35 36  1  0  0  0  0
 35 34  1  0  0  0  0
 37 35  1  0  0  0  0
 38 37  1  0  0  0  0
 39 37  2  0  0  0  0
 39 40  1  0  0  0  0
 40 41  1  0  0  0  0
 40 34  2  0  0  0  0
 41 30  2  0  0  0  0
M  END
>  <minimizedAffinity>
-6.51295996

>  <minimizedRMSD>
0.701188505

$$$$
