
 OpenBabel03272510083D

 47 52  0  0  0  0  0  0  0  0999 V2000
   36.5040   30.4350   48.3080 C   0  0  0  0  0  0  0  0  0  0  0  0
   37.1070   30.7830   49.4730 N   0  0  0  0  0  0  0  0  0  0  0  0
   38.1990   31.5660   49.4500 C   0  0  0  0  0  0  0  0  0  0  0  0
   38.7680   32.0560   48.3080 N   0  0  0  0  0  0  0  0  0  0  0  0
   38.1920   31.7270   47.1350 C   0  0  0  0  0  0  0  0  0  0  0  0
   38.6880   32.1870   45.9280 C   0  0  0  0  0  0  0  0  0  0  0  0
   38.0530   31.8380   44.7250 C   0  0  0  0  0  0  0  0  0  0  0  0
   36.9200   31.0220   44.7650 C   0  0  0  0  0  0  0  0  0  0  0  0
   36.4640   30.5880   46.0020 C   0  0  0  0  0  0  0  0  0  0  0  0
   37.0770   30.9270   47.1680 C   0  0  0  0  0  0  0  0  0  0  0  0
   38.7050   31.8620   50.3670 H   0  0  0  0  0  0  0  0  0  0  0  0
   39.5670   32.8090   46.0080 H   0  0  0  0  0  0  0  0  0  0  0  0
   38.5330   32.2590   43.8570 H   0  0  0  0  0  0  0  0  0  0  0  0
   36.6050   30.8860   43.7540 H   0  0  0  0  0  0  0  0  0  0  0  0
   35.3050   28.2110   48.6680 C   0  0  0  0  0  0  0  0  0  0  0  0
   35.3550   29.6140   48.4430 C   0  0  0  0  0  0  0  0  0  0  0  0
   34.1370   30.3120   48.3270 C   0  0  0  0  0  0  0  0  0  0  0  0
   32.9610   29.6360   48.4230 N   0  0  0  0  0  0  0  0  0  0  0  0
   32.9790   28.2880   48.6340 C   0  0  0  0  0  0  0  0  0  0  0  0
   34.1140   27.5860   48.7570 N   0  0  0  0  0  0  0  0  0  0  0  0
   31.7010   27.6120   48.6850 N   0  0  0  0  0  0  0  0  0  0  0  0
   30.6810   27.8890   49.6500 C   0  0  0  0  0  0  0  0  0  0  0  0
   29.4820   27.1400   49.1490 C   0  0  0  0  0  0  0  0  0  0  0  0
   29.8070   26.6570   47.7560 C   0  0  0  0  0  0  0  0  0  0  0  0
   31.2760   26.5500   47.7510 C   0  0  0  0  0  0  0  0  0  0  0  0
   36.2660   27.7530   48.7510 H   0  0  0  0  0  0  0  0  0  0  0  0
   34.0700   31.3640   48.1620 H   0  0  0  0  0  0  0  0  0  0  0  0
   30.4580   28.9630   49.6510 H   0  0  0  0  0  0  0  0  0  0  0  0
   31.0280   27.4960   50.6280 H   0  0  0  0  0  0  0  0  0  0  0  0
   28.5320   27.7050   49.1880 H   0  0  0  0  0  0  0  0  0  0  0  0
   29.3780   26.2210   49.7710 H   0  0  0  0  0  0  0  0  0  0  0  0
   29.5090   27.4880   47.0650 H   0  0  0  0  0  0  0  0  0  0  0  0
   29.2670   25.7240   47.5160 H   0  0  0  0  0  0  0  0  0  0  0  0
   31.6660   25.6060   48.1830 H   0  0  0  0  0  0  0  0  0  0  0  0
   31.7600   26.6760   46.7580 H   0  0  0  0  0  0  0  0  0  0  0  0
   35.1620   28.3810   45.4900 C   0  0  0  0  0  3  0  0  0  0  0  0
   35.3430   29.7450   45.6220 C   0  0  0  0  0  0  0  0  0  0  0  0
   34.1430   30.4360   45.2760 C   0  0  0  0  0  0  0  0  0  0  0  0
   34.1420   31.5380   45.3350 H   0  0  0  0  0  0  0  0  0  0  0  0
   32.9400   29.9000   44.8650 C   0  0  0  0  0  0  0  0  0  0  0  0
   31.7600   30.4140   44.5170 N   0  0  0  0  0  0  0  0  0  0  0  0
   31.5360   31.4320   44.5000 H   0  0  0  0  0  0  0  0  0  0  0  0
   30.9840   29.3580   44.2140 C   0  0  0  0  0  0  0  0  0  0  0  0
   29.9690   29.4080   43.8940 H   0  0  0  0  0  0  0  0  0  0  0  0
   31.6760   28.1630   44.3710 C   0  0  0  0  0  3  0  0  0  0  0  0
   32.9370   28.5280   44.7910 C   0  0  0  0  0  0  0  0  0  0  0  0
   34.0180   27.7400   45.0920 C   0  0  0  0  0  3  0  0  0  0  0  0
  1 16  1  0  0  0  0
  1  2  1  0  0  0  0
  3  2  2  0  0  0  0
  3 11  1  0  0  0  0
  4  3  1  0  0  0  0
  5 10  1  0  0  0  0
  5  4  2  0  0  0  0
  6 12  1  0  0  0  0
  6  5  1  0  0  0  0
  7  8  1  0  0  0  0
  7  6  2  0  0  0  0
  8  9  2  0  0  0  0
  9 10  1  0  0  0  0
 10  1  2  0  0  0  0
 13  7  1  0  0  0  0
 14  8  1  0  0  0  0
 15 26  1  0  0  0  0
 15 20  1  0  0  0  0
 16 15  2  0  0  0  0
 17 18  2  0  0  0  0
 17 16  1  0  0  0  0
 18 19  1  0  0  0  0
 19 21  1  0  0  0  0
 19 20  2  0  0  0  0
 21 22  1  0  0  0  0
 22 28  1  0  0  0  0
 22 29  1  0  0  0  0
 23 30  1  0  0  0  0
 23 22  1  0  0  0  0
 23 31  1  0  0  0  0
 24 23  1  0  0  0  0
 25 24  1  0  0  0  0
 25 34  1  0  0  0  0
 25 21  1  0  0  0  0
 27 17  1  0  0  0  0
 32 24  1  0  0  0  0
 33 24  1  0  0  0  0
 35 25  1  0  0  0  0
 36 37  1  0  0  0  0
 37  9  1  0  0  0  0
 38 39  1  0  0  0  0
 38 37  2  0  0  0  0
 40 38  1  0  0  0  0
 41 40  1  0  0  0  0
 42 41  1  0  0  0  0
 43 45  2  0  0  0  0
 43 41  1  0  0  0  0
 44 43  1  0  0  0  0
 45 46  1  0  0  0  0
 46 40  2  0  0  0  0
 46 47  1  0  0  0  0
 47 36  2  0  0  0  0
M  END
>  <minimizedAffinity>
-4.46082592

>  <minimizedRMSD>
2.58681488

$$$$
