
 OpenBabel03272508523D

 41 45  0  0  1  0  0  0  0  0999 V2000
   39.1610   31.4460   43.3600 C   0  0  0  0  0  0  0  0  0  0  0  0
   40.1340   30.4960   43.5070 C   0  0  0  0  0  0  0  0  0  0  0  0
   40.8540   30.1320   42.3800 C   0  0  0  0  0  0  0  0  0  0  0  0
   40.5530   30.7400   41.1870 C   0  0  0  0  0  0  0  0  0  0  0  0
   39.5690   31.7020   41.0320 C   0  0  0  0  0  0  0  0  0  0  0  0
   38.9050   32.0130   42.1620 N   0  0  0  0  0  0  0  0  0  0  0  0
   40.3570   30.0270   44.4540 H   0  0  0  0  0  0  0  0  0  0  0  0
   41.6320   29.3810   42.4630 H   0  0  0  0  0  0  0  0  0  0  0  0
   41.1160   30.4540   40.3090 H   0  0  0  0  0  0  0  0  0  0  0  0
   39.8340   31.8960   38.6530 C   0  0  0  0  0  3  0  0  0  0  0  0
   39.2290   32.3580   39.7970 C   0  0  0  0  0  0  0  0  0  0  0  0
   38.3430   33.4020   39.7310 C   0  0  0  0  0  0  0  0  0  0  0  0
   37.8580   33.7830   40.5970 H   0  0  0  0  0  0  0  0  0  0  0  0
   38.0180   34.0320   38.5290 C   0  0  0  0  0  0  0  0  0  0  0  0
   37.2080   35.0390   38.2220 N   0  0  0  0  0  0  0  0  0  0  0  0
   36.6070   35.5960   38.8870 H   0  0  0  0  0  0  0  0  0  0  0  0
   37.2310   35.2930   36.8900 C   0  0  0  0  0  0  0  0  0  0  0  0
   36.7100   36.0260   36.2840 H   0  0  0  0  0  0  0  0  0  0  0  0
   38.1290   34.3620   36.3580 C   0  0  0  0  0  3  0  0  0  0  0  0
   38.6290   33.5640   37.3790 C   0  0  0  0  0  0  0  0  0  0  0  0
   39.5070   32.5290   37.4580 C   0  0  0  0  0  3  0  0  0  0  0  0
   38.3850   31.8500   44.5450 C   0  0  0  0  0  0  0  0  0  0  0  0
   37.2790   32.4410   44.4350 O   0  0  0  0  0  0  0  0  0  0  0  0
   38.9260   31.5520   45.8520 N   0  0  0  0  0  0  0  0  0  0  0  0
   39.8950   31.2400   46.0090 H   0  0  0  0  0  0  0  0  0  0  0  0
   38.4200   31.1020   48.2430 C   0  0  2  0  0  0  0  0  0  0  0  0
   38.6620   32.5510   48.1300 C   0  0  0  0  0  0  0  0  0  0  0  0
   38.0380   31.7040   46.9890 C   0  0  1  0  0  0  0  0  0  0  0  0
   39.3380   30.4880   48.3280 H   0  0  0  0  0  0  0  0  0  0  0  0
   39.6850   32.9120   47.9980 H   0  0  0  0  0  0  0  0  0  0  0  0
   38.0130   33.2510   48.6680 H   0  0  0  0  0  0  0  0  0  0  0  0
   36.9860   31.9990   46.7800 H   0  0  0  0  0  0  0  0  0  0  0  0
   35.0720   30.1820   49.5610 C   0  0  0  0  0  0  0  0  0  0  0  0
   35.4050   29.5450   50.8000 C   0  0  0  0  0  0  0  0  0  0  0  0
   36.8040   29.4590   51.1510 C   0  0  0  0  0  0  0  0  0  0  0  0
   37.7270   29.9750   50.3060 N   0  0  0  0  0  0  0  0  0  0  0  0
   37.3470   30.5670   49.1460 C   0  0  0  0  0  0  0  0  0  0  0  0
   36.0300   30.6830   48.7520 N   0  0  0  0  0  0  0  0  0  0  0  0
   34.0200   30.2310   49.3250 H   0  0  0  0  0  0  0  0  0  0  0  0
   34.6770   29.1430   51.4560 H   0  0  0  0  0  0  0  0  0  0  0  0
   37.0620   28.9800   52.0850 H   0  0  0  0  0  0  0  0  0  0  0  0
  1  2  1  0  0  0  0
  1 22  1  0  0  0  0
  2  7  1  0  0  0  0
  3  8  1  0  0  0  0
  3  2  2  0  0  0  0
  4  3  1  0  0  0  0
  5  4  2  0  0  0  0
  5  6  1  0  0  0  0
  6  1  2  0  0  0  0
  9  4  1  0  0  0  0
 10 11  1  0  0  0  0
 11  5  1  0  0  0  0
 12 11  2  0  0  0  0
 12 13  1  0  0  0  0
 14 12  1  0  0  0  0
 15 14  1  0  0  0  0
 15 16  1  0  0  0  0
 17 15  1  0  0  0  0
 18 17  1  0  0  0  0
 19 17  2  0  0  0  0
 19 20  1  0  0  0  0
 20 21  1  0  0  0  0
 20 14  2  0  0  0  0
 21 10  2  0  0  0  0
 22 24  1  0  0  0  0
 23 22  2  0  0  0  0
 24 25  1  0  0  0  0
 24 28  1  0  0  0  0
 26 29  1  6  0  0  0
 26 37  1  0  0  0  0
 27 26  1  0  0  0  0
 27 31  1  0  0  0  0
 28 32  1  6  0  0  0
 28 27  1  0  0  0  0
 28 26  1  0  0  0  0
 30 27  1  0  0  0  0
 33 34  1  0  0  0  0
 34 35  2  0  0  0  0
 34 40  1  0  0  0  0
 35 41  1  0  0  0  0
 36 35  1  0  0  0  0
 37 36  2  0  0  0  0
 38 37  1  0  0  0  0
 38 33  2  0  0  0  0
 39 33  1  0  0  0  0
M  END
>  <minimizedAffinity>
-5.42736006

>  <minimizedRMSD>
0.74515444

$$$$
