
 OpenBabel03272505503D

 47 51  0  0  1  0  0  0  0  0999 V2000
   35.2380   29.4720   45.5960 N   0  0  2  0  0  0  0  0  0  0  0  0
   36.3560   30.3310   45.2090 C   0  0  0  0  0  0  0  0  0  0  0  0
   36.4750   30.2580   43.6990 C   0  0  0  0  0  0  0  0  0  0  0  0
   35.5240   29.1750   43.3470 C   0  0  0  0  0  0  0  0  0  0  0  0
   34.4380   29.2870   44.4390 C   0  0  1  0  0  0  0  0  0  0  0  0
   37.2810   30.1130   45.7460 H   0  0  0  0  0  0  0  0  0  0  0  0
   36.0140   31.3750   45.4430 H   0  0  0  0  0  0  0  0  0  0  0  0
   37.5260   29.9230   43.4960 H   0  0  0  0  0  0  0  0  0  0  0  0
   36.2480   31.2250   43.1970 H   0  0  0  0  0  0  0  0  0  0  0  0
   35.1120   29.3390   42.3390 H   0  0  0  0  0  0  0  0  0  0  0  0
   35.9960   28.1710   43.3610 H   0  0  0  0  0  0  0  0  0  0  0  0
   33.8940   30.1470   44.0420 H   0  0  0  0  0  0  0  0  0  0  0  0
   37.2640   29.2670   50.5480 C   0  0  0  0  0  0  0  0  0  0  0  0
   37.4190   30.6430   50.8230 C   0  0  0  0  0  0  0  0  0  0  0  0
   36.6610   31.5300   50.0590 C   0  0  0  0  0  0  0  0  0  0  0  0
   35.8290   31.0200   49.1090 N   0  0  0  0  0  0  0  0  0  0  0  0
   35.7170   29.7160   48.8870 C   0  0  0  0  0  0  0  0  0  0  0  0
   36.4310   28.8360   49.6020 N   0  0  0  0  0  0  0  0  0  0  0  0
   34.8340   29.2440   47.8840 N   0  0  0  0  0  0  0  0  0  0  0  0
   34.2100   27.9310   47.9690 C   0  0  0  0  0  0  0  0  0  0  0  0
   32.7240   28.0660   47.8370 C   0  0  0  0  0  0  0  0  0  0  0  0
   32.2550   29.2500   47.3320 N   0  0  0  0  0  0  0  0  0  0  0  0
   33.0740   30.1180   46.5270 C   0  0  0  0  0  0  0  0  0  0  0  0
   34.5090   30.0460   46.7170 C   0  0  2  0  0  0  0  0  0  0  0  0
   37.8780   28.6270   51.1720 H   0  0  0  0  0  0  0  0  0  0  0  0
   38.0570   31.0890   51.5560 H   0  0  0  0  0  0  0  0  0  0  0  0
   36.6690   32.6190   50.1520 H   0  0  0  0  0  0  0  0  0  0  0  0
   34.4170   27.5690   49.0250 H   0  0  0  0  0  0  0  0  0  0  0  0
   34.6820   27.1760   47.3430 H   0  0  0  0  0  0  0  0  0  0  0  0
   32.4080   27.2200   47.1600 H   0  0  0  0  0  0  0  0  0  0  0  0
   32.2100   27.8360   48.7940 H   0  0  0  0  0  0  0  0  0  0  0  0
   31.3590   29.6300   47.6260 H   0  0  0  0  0  0  0  0  0  0  0  0
   32.7530   31.1450   46.9230 H   0  0  0  0  0  0  0  0  0  0  0  0
   32.6080   30.1120   45.5540 H   0  0  0  0  0  0  0  0  0  0  0  0
   34.9790   31.0610   46.8900 H   0  0  0  0  0  0  0  0  0  0  0  0
   32.4770   27.9820   43.8000 C   0  0  0  0  0  0  0  0  0  0  0  0
   33.7690   27.9700   44.2970 C   0  0  0  0  0  0  0  0  0  0  0  0
   34.2710   26.7210   44.6060 C   0  0  0  0  0  0  0  0  0  0  0  0
   35.2830   26.7280   44.9940 H   0  0  0  0  0  0  0  0  0  0  0  0
   33.5390   25.5670   44.4330 C   0  0  0  0  0  0  0  0  0  0  0  0
   33.9440   24.2960   44.7080 N   0  0  0  0  0  0  0  0  0  0  0  0
   34.8640   23.9920   45.0890 H   0  0  0  0  0  0  0  0  0  0  0  0
   32.9420   23.4830   44.4000 C   0  0  0  0  0  0  0  0  0  0  0  0
   32.9170   22.4100   44.4910 H   0  0  0  0  0  0  0  0  0  0  0  0
   31.8790   24.2570   43.9200 C   0  0  0  0  0  0  0  0  0  0  0  0
   32.2650   25.6010   43.9420 C   0  0  0  0  0  0  0  0  0  0  0  0
   31.7310   26.8340   43.6220 C   0  0  0  0  0  0  0  0  0  0  0  0
  1  2  1  6  0  0  0
  1 24  1  0  0  0  0
  2  7  1  0  0  0  0
  2  6  1  0  0  0  0
  3  2  1  0  0  0  0
  4 11  1  0  0  0  0
  4  3  1  0  0  0  0
  4  5  1  0  0  0  0
  5 12  1  6  0  0  0
  5  1  1  0  0  0  0
  8  3  1  0  0  0  0
  9  3  1  0  0  0  0
 10  4  1  0  0  0  0
 13 14  1  0  0  0  0
 13 25  1  0  0  0  0
 14 26  1  0  0  0  0
 15 27  1  0  0  0  0
 15 14  2  0  0  0  0
 16 15  1  0  0  0  0
 17 16  2  0  0  0  0
 17 18  1  0  0  0  0
 18 13  2  0  0  0  0
 19 20  1  0  0  0  0
 19 17  1  0  0  0  0
 20 28  1  0  0  0  0
 21 20  1  0  0  0  0
 21 31  1  0  0  0  0
 22 32  1  0  0  0  0
 22 21  1  0  0  0  0
 23 24  1  0  0  0  0
 23 33  1  0  0  0  0
 23 22  1  0  0  0  0
 24 35  1  1  0  0  0
 24 19  1  0  0  0  0
 29 20  1  0  0  0  0
 30 21  1  0  0  0  0
 34 23  1  0  0  0  0
 36 37  1  0  0  0  0
 37  5  1  0  0  0  0
 37 38  2  0  0  0  0
 38 39  1  0  0  0  0
 40 38  1  0  0  0  0
 40 41  1  0  0  0  0
 41 42  1  0  0  0  0
 43 44  1  0  0  0  0
 43 41  1  0  0  0  0
 45 46  1  0  0  0  0
 45 43  2  0  0  0  0
 46 40  2  0  0  0  0
 47 36  2  0  0  0  0
 47 46  1  0  0  0  0
M  END
>  <minimizedAffinity>
-4.82368708

>  <minimizedRMSD>
0.842877328

$$$$
