
 OpenBabel03272510083D

 47 52  0  0  0  0  0  0  0  0999 V2000
   35.4870   30.0030   47.3920 C   0  0  0  0  0  0  0  0  0  0  0  0
   35.5110   29.9260   48.7480 N   0  0  0  0  0  0  0  0  0  0  0  0
   36.6260   30.2690   49.4150 C   0  0  0  0  0  0  0  0  0  0  0  0
   37.7760   30.7030   48.8160 N   0  0  0  0  0  0  0  0  0  0  0  0
   37.7820   30.7900   47.4710 C   0  0  0  0  0  0  0  0  0  0  0  0
   38.8940   31.2330   46.7770 C   0  0  0  0  0  0  0  0  0  0  0  0
   38.8620   31.3260   45.3770 C   0  0  0  0  0  0  0  0  0  0  0  0
   37.6950   30.9650   44.6970 C   0  0  0  0  0  0  0  0  0  0  0  0
   36.6090   30.5270   45.4410 C   0  0  0  0  0  0  0  0  0  0  0  0
   36.6390   30.4380   46.7980 C   0  0  0  0  0  0  0  0  0  0  0  0
   36.6760   30.2170   50.5010 H   0  0  0  0  0  0  0  0  0  0  0  0
   39.7420   31.4860   47.3970 H   0  0  0  0  0  0  0  0  0  0  0  0
   39.7860   31.6850   44.9560 H   0  0  0  0  0  0  0  0  0  0  0  0
   37.8890   31.1120   43.6580 H   0  0  0  0  0  0  0  0  0  0  0  0
   33.8840   28.3480   46.2940 C   0  0  0  0  0  0  0  0  0  0  0  0
   34.2600   29.6270   46.7870 C   0  0  0  0  0  0  0  0  0  0  0  0
   33.3320   30.6810   46.6730 C   0  0  0  0  0  0  0  0  0  0  0  0
   32.1220   30.4550   46.0970 N   0  0  0  0  0  0  0  0  0  0  0  0
   31.8230   29.2050   45.6380 C   0  0  0  0  0  0  0  0  0  0  0  0
   32.6730   28.1730   45.7310 N   0  0  0  0  0  0  0  0  0  0  0  0
   30.5390   29.0290   44.9940 N   0  0  0  0  0  0  0  0  0  0  0  0
   29.2790   29.2460   45.6380 C   0  0  0  0  0  0  0  0  0  0  0  0
   28.2780   29.1890   44.5230 C   0  0  0  0  0  0  0  0  0  0  0  0
   29.0520   29.1900   43.2260 C   0  0  0  0  0  0  0  0  0  0  0  0
   30.3550   28.6080   43.5920 C   0  0  0  0  0  0  0  0  0  0  0  0
   34.6360   27.5990   46.4210 H   0  0  0  0  0  0  0  0  0  0  0  0
   33.5190   31.6750   47.0170 H   0  0  0  0  0  0  0  0  0  0  0  0
   29.2610   30.2470   46.0850 H   0  0  0  0  0  0  0  0  0  0  0  0
   29.1270   28.4210   46.3640 H   0  0  0  0  0  0  0  0  0  0  0  0
   27.5050   29.9800   44.5520 H   0  0  0  0  0  0  0  0  0  0  0  0
   27.7750   28.1960   44.5740 H   0  0  0  0  0  0  0  0  0  0  0  0
   29.2060   30.2680   42.9610 H   0  0  0  0  0  0  0  0  0  0  0  0
   28.5050   28.6560   42.4300 H   0  0  0  0  0  0  0  0  0  0  0  0
   30.3690   27.4990   43.6140 H   0  0  0  0  0  0  0  0  0  0  0  0
   31.2140   28.9300   42.9630 H   0  0  0  0  0  0  0  0  0  0  0  0
   34.6050   30.8850   43.8010 C   0  0  0  0  0  3  0  0  0  0  0  0
   35.6510   30.2040   44.3980 C   0  0  0  0  0  0  0  0  0  0  0  0
   35.7590   28.8920   43.8480 C   0  0  0  0  0  0  0  0  0  0  0  0
   36.5550   28.2300   44.2320 H   0  0  0  0  0  0  0  0  0  0  0  0
   34.9810   28.3120   42.8680 C   0  0  0  0  0  0  0  0  0  0  0  0
   34.9680   27.1200   42.2690 N   0  0  0  0  0  0  0  0  0  0  0  0
   35.6310   26.3420   42.4770 H   0  0  0  0  0  0  0  0  0  0  0  0
   33.9530   27.1720   41.3890 C   0  0  0  0  0  0  0  0  0  0  0  0
   33.6590   26.3820   40.7360 H   0  0  0  0  0  0  0  0  0  0  0  0
   33.3150   28.4060   41.4270 C   0  0  0  0  0  3  0  0  0  0  0  0
   33.9880   29.1310   42.3860 C   0  0  0  0  0  0  0  0  0  0  0  0
   33.7700   30.4130   42.8240 C   0  0  0  0  0  3  0  0  0  0  0  0
  1  2  1  0  0  0  0
  2  3  2  0  0  0  0
  3 11  1  0  0  0  0
  4  3  1  0  0  0  0
  5  4  2  0  0  0  0
  6 12  1  0  0  0  0
  6  5  1  0  0  0  0
  7  6  2  0  0  0  0
  8  7  1  0  0  0  0
  8  9  2  0  0  0  0
  9 10  1  0  0  0  0
 10  1  2  0  0  0  0
 10  5  1  0  0  0  0
 13  7  1  0  0  0  0
 14  8  1  0  0  0  0
 15 26  1  0  0  0  0
 15 16  1  0  0  0  0
 16  1  1  0  0  0  0
 17 16  2  0  0  0  0
 17 27  1  0  0  0  0
 18 17  1  0  0  0  0
 19 20  1  0  0  0  0
 19 18  2  0  0  0  0
 20 15  2  0  0  0  0
 21 19  1  0  0  0  0
 21 22  1  0  0  0  0
 22 28  1  0  0  0  0
 22 29  1  0  0  0  0
 23 30  1  0  0  0  0
 23 31  1  0  0  0  0
 23 22  1  0  0  0  0
 24 25  1  0  0  0  0
 24 23  1  0  0  0  0
 25 34  1  0  0  0  0
 25 21  1  0  0  0  0
 32 24  1  0  0  0  0
 33 24  1  0  0  0  0
 35 25  1  0  0  0  0
 36 37  1  0  0  0  0
 37  9  1  0  0  0  0
 38 39  1  0  0  0  0
 38 37  2  0  0  0  0
 40 38  1  0  0  0  0
 41 42  1  0  0  0  0
 41 40  1  0  0  0  0
 43 45  2  0  0  0  0
 43 41  1  0  0  0  0
 44 43  1  0  0  0  0
 45 46  1  0  0  0  0
 46 47  1  0  0  0  0
 46 40  2  0  0  0  0
 47 36  2  0  0  0  0
M  END
>  <minimizedAffinity>
-4.73412275

>  <minimizedRMSD>
3.47229886

$$$$
