
 OpenBabel03272509303D

 41 44  0  0  1  0  0  0  0  0999 V2000
   36.3650   30.7010   49.0270 C   0  0  2  0  0  0  0  0  0  0  0  0
   37.3430   31.4820   49.8510 C   0  0  0  0  0  0  0  0  0  0  0  0
   38.1270   30.6240   50.8140 C   0  0  0  0  0  0  0  0  0  0  0  0
   37.1980   29.8220   51.7200 C   0  0  0  0  0  0  0  0  0  0  0  0
   35.9290   29.3670   51.0490 C   0  0  0  0  0  0  0  0  0  0  0  0
   36.1900   29.3060   49.5320 C   0  0  1  0  0  0  0  0  0  0  0  0
   35.3330   31.1510   48.9960 H   0  0  0  0  0  0  0  0  0  0  0  0
   36.6820   32.1170   50.5340 H   0  0  0  0  0  0  0  0  0  0  0  0
   37.9720   32.1870   49.3440 H   0  0  0  0  0  0  0  0  0  0  0  0
   38.6630   31.3260   51.4930 H   0  0  0  0  0  0  0  0  0  0  0  0
   38.8800   29.9810   50.3400 H   0  0  0  0  0  0  0  0  0  0  0  0
   37.7630   28.9100   52.0100 H   0  0  0  0  0  0  0  0  0  0  0  0
   36.9480   30.3850   52.6360 H   0  0  0  0  0  0  0  0  0  0  0  0
   35.1270   30.1140   51.1660 H   0  0  0  0  0  0  0  0  0  0  0  0
   35.6230   28.3860   51.4440 H   0  0  0  0  0  0  0  0  0  0  0  0
   37.1120   28.7780   49.5190 H   0  0  0  0  0  0  0  0  0  0  0  0
   36.7870   30.6460   47.6020 C   0  0  0  0  0  0  0  0  0  0  0  0
   38.1570   30.8400   47.3690 C   0  0  0  0  0  0  0  0  0  0  0  0
   38.5820   30.7880   46.0360 C   0  0  0  0  0  0  0  0  0  0  0  0
   37.6500   30.5520   45.0520 N   0  0  0  0  0  0  0  0  0  0  0  0
   36.3210   30.3670   45.3360 C   0  0  0  0  0  0  0  0  0  0  0  0
   35.9120   30.4180   46.6170 N   0  0  0  0  0  0  0  0  0  0  0  0
   38.9830   31.0220   48.0280 H   0  0  0  0  0  0  0  0  0  0  0  0
   39.5980   30.9190   45.7010 H   0  0  0  0  0  0  0  0  0  0  0  0
   35.6710   30.1870   44.4880 H   0  0  0  0  0  0  0  0  0  0  0  0
   33.8830   28.3580   49.0310 C   0  0  0  0  0  0  0  0  0  0  0  0
   33.1090   28.9400   49.8800 O   0  0  0  0  0  0  0  0  0  0  0  0
   35.2690   28.5170   48.7990 N   0  0  0  0  0  0  0  0  0  0  0  0
   35.6210   27.9630   47.9570 H   0  0  0  0  0  0  0  0  0  0  0  0
   33.6230   26.3070   47.6360 C   0  0  0  0  0  3  0  0  0  0  0  0
   33.0750   27.4100   48.2520 C   0  0  0  0  0  0  0  0  0  0  0  0
   31.7260   27.5180   48.0550 C   0  0  0  0  0  0  0  0  0  0  0  0
   31.1560   28.3170   48.4660 H   0  0  0  0  0  0  0  0  0  0  0  0
   30.9580   26.6380   47.3260 C   0  0  0  0  0  0  0  0  0  0  0  0
   29.6540   26.5400   47.0040 N   0  0  0  0  0  0  0  0  0  0  0  0
   28.9200   27.2200   47.3050 H   0  0  0  0  0  0  0  0  0  0  0  0
   29.4230   25.4660   46.2530 C   0  0  0  0  0  0  0  0  0  0  0  0
   28.4460   25.1710   45.8670 H   0  0  0  0  0  0  0  0  0  0  0  0
   30.6110   24.8120   46.0590 C   0  0  0  0  0  3  0  0  0  0  0  0
   31.5480   25.5540   46.7310 C   0  0  0  0  0  0  0  0  0  0  0  0
   32.8950   25.3820   46.8840 C   0  0  0  0  0  3  0  0  0  0  0  0
  1  7  1  1  0  0  0
  1  6  1  0  0  0  0
  1  2  1  0  0  0  0
  2  8  1  0  0  0  0
  2  3  1  0  0  0  0
  3 10  1  0  0  0  0
  3  4  1  0  0  0  0
  4 12  1  0  0  0  0
  4 13  1  0  0  0  0
  5 14  1  0  0  0  0
  5 15  1  0  0  0  0
  5  4  1  0  0  0  0
  6 16  1  6  0  0  0
  6  5  1  0  0  0  0
  9  2  1  0  0  0  0
 11  3  1  0  0  0  0
 17  1  1  0  0  0  0
 18 17  1  0  0  0  0
 18 23  1  0  0  0  0
 19 18  2  0  0  0  0
 20 21  2  0  0  0  0
 20 19  1  0  0  0  0
 21 22  1  0  0  0  0
 22 17  2  0  0  0  0
 24 19  1  0  0  0  0
 25 21  1  0  0  0  0
 26 27  2  0  0  0  0
 28 26  1  0  0  0  0
 28  6  1  0  0  0  0
 29 28  1  0  0  0  0
 30 31  1  0  0  0  0
 31 26  1  0  0  0  0
 32 31  2  0  0  0  0
 32 33  1  0  0  0  0
 34 32  1  0  0  0  0
 35 36  1  0  0  0  0
 35 34  1  0  0  0  0
 37 35  1  0  0  0  0
 38 37  1  0  0  0  0
 39 37  2  0  0  0  0
 39 40  1  0  0  0  0
 40 41  1  0  0  0  0
 40 34  2  0  0  0  0
 41 30  2  0  0  0  0
M  END
>  <minimizedAffinity>
-6.51307297

>  <minimizedRMSD>
0.681096792

$$$$
