
 OpenBabel03272503573D

 37 41  0  0  0  0  0  0  0  0999 V2000
   37.8140   28.0390   31.6670 C   0  0  0  0  0  0  0  0  0  0  0  0
   38.4130   27.0450   32.4390 C   0  0  0  0  0  0  0  0  0  0  0  0
   37.7890   26.7780   33.6310 C   0  0  0  0  0  0  0  0  0  0  0  0
   36.6940   27.4610   33.9610 N   0  0  0  0  0  0  0  0  0  0  0  0
   36.1090   28.4020   33.2500 C   0  0  0  0  0  0  0  0  0  0  0  0
   36.7300   28.6470   32.0970 N   0  0  0  0  0  0  0  0  0  0  0  0
   39.2860   26.5520   32.0970 H   0  0  0  0  0  0  0  0  0  0  0  0
   34.9240   29.2250   33.4570 C   0  0  0  0  0  0  0  0  0  0  0  0
   33.7720   29.0370   32.7620 N   0  0  0  0  0  0  0  0  0  0  0  0
   32.6910   29.7930   32.9730 C   0  0  0  0  0  0  0  0  0  0  0  0
   32.6300   30.7890   33.8670 N   0  0  0  0  0  0  0  0  0  0  0  0
   33.7470   31.0290   34.5940 C   0  0  0  0  0  0  0  0  0  0  0  0
   33.6860   32.0470   35.5110 C   0  0  0  0  0  0  0  0  0  0  0  0
   34.7960   32.3390   36.2830 C   0  0  0  0  0  0  0  0  0  0  0  0
   35.9250   31.5610   36.0740 C   0  0  0  0  0  0  0  0  0  0  0  0
   35.9210   30.5580   35.1410 C   0  0  0  0  0  0  0  0  0  0  0  0
   34.8470   30.2420   34.3640 C   0  0  0  0  0  0  0  0  0  0  0  0
   31.7600   29.6320   32.4010 H   0  0  0  0  0  0  0  0  0  0  0  0
   32.7720   32.6390   35.6440 H   0  0  0  0  0  0  0  0  0  0  0  0
   34.7380   33.1390   36.9970 H   0  0  0  0  0  0  0  0  0  0  0  0
   36.7640   31.8350   36.7080 H   0  0  0  0  0  0  0  0  0  0  0  0
   36.8700   30.0500   35.0940 H   0  0  0  0  0  0  0  0  0  0  0  0
   39.3130   24.8780   34.2340 C   0  0  0  0  0  3  0  0  0  0  0  0
   38.3050   25.7630   34.5390 C   0  0  0  0  0  0  0  0  0  0  0  0
   37.7840   25.6330   35.8130 C   0  0  0  0  0  0  0  0  0  0  0  0
   36.9780   26.3280   36.0800 H   0  0  0  0  0  0  0  0  0  0  0  0
   38.2090   24.7060   36.7380 C   0  0  0  0  0  0  0  0  0  0  0  0
   37.8590   24.4010   38.0050 N   0  0  0  0  0  0  0  0  0  0  0  0
   37.1120   24.8800   38.5670 H   0  0  0  0  0  0  0  0  0  0  0  0
   38.6410   23.3690   38.4240 C   0  0  0  0  0  0  0  0  0  0  0  0
   38.5880   22.9020   39.4170 H   0  0  0  0  0  0  0  0  0  0  0  0
   39.5130   22.9830   37.4390 C   0  0  0  0  0  3  0  0  0  0  0  0
   39.2180   23.8360   36.4010 C   0  0  0  0  0  0  0  0  0  0  0  0
   39.7650   23.9400   35.1250 C   0  0  0  0  0  3  0  0  0  0  0  0
   38.3550   28.4360   30.3700 N   0  0  0  0  0  0  0  0  0  0  0  0
   37.9590   28.3940   29.4150 H   0  0  0  0  0  0  0  0  0  0  0  0
   39.3050   28.8070   30.5810 H   0  0  0  0  0  0  0  0  0  0  0  0
  1  6  2  0  0  0  0
  1  2  1  0  0  0  0
  2  3  2  0  0  0  0
  3  4  1  0  0  0  0
  3 24  1  0  0  0  0
  5  8  1  0  0  0  0
  5  4  2  0  0  0  0
  6  5  1  0  0  0  0
  7  2  1  0  0  0  0
  8 17  1  0  0  0  0
  9 10  1  0  0  0  0
  9  8  2  0  0  0  0
 10 11  2  0  0  0  0
 11 12  1  0  0  0  0
 12 13  1  0  0  0  0
 13 19  1  0  0  0  0
 13 14  2  0  0  0  0
 14 20  1  0  0  0  0
 15 14  1  0  0  0  0
 15 21  1  0  0  0  0
 16 15  2  0  0  0  0
 17 12  2  0  0  0  0
 17 16  1  0  0  0  0
 18 10  1  0  0  0  0
 22 16  1  0  0  0  0
 23 24  2  0  0  0  0
 23 34  1  0  0  0  0
 24 25  1  0  0  0  0
 25 26  1  0  0  0  0
 25 27  2  0  0  0  0
 27 28  1  0  0  0  0
 28 30  1  0  0  0  0
 28 29  1  0  0  0  0
 30 31  1  0  0  0  0
 32 30  2  0  0  0  0
 33 27  1  0  0  0  0
 33 32  1  0  0  0  0
 34 33  2  0  0  0  0
 35 37  1  0  0  0  0
 35  1  1  0  0  0  0
 36 35  1  0  0  0  0
M  END
>  <minimizedAffinity>
-6.98370409

$$$$

 OpenBabel03272503573D

 37 41  0  0  0  0  0  0  0  0999 V2000
   36.5250   23.9090   31.8860 C   0  0  0  0  0  0  0  0  0  0  0  0
   36.1220   25.2370   31.7510 C   0  0  0  0  0  0  0  0  0  0  0  0
   36.7790   26.1300   32.5580 C   0  0  0  0  0  0  0  0  0  0  0  0
   37.7220   25.6860   33.3880 N   0  0  0  0  0  0  0  0  0  0  0  0
   38.1200   24.4400   33.5340 C   0  0  0  0  0  0  0  0  0  0  0  0
   37.4700   23.5890   32.7410 N   0  0  0  0  0  0  0  0  0  0  0  0
   35.3610   25.5000   31.0630 H   0  0  0  0  0  0  0  0  0  0  0  0
   39.1250   23.8000   34.3730 C   0  0  0  0  0  0  0  0  0  0  0  0
   40.2820   23.2920   33.8710 N   0  0  0  0  0  0  0  0  0  0  0  0
   41.1980   22.7190   34.6570 C   0  0  0  0  0  0  0  0  0  0  0  0
   41.0760   22.5880   35.9850 N   0  0  0  0  0  0  0  0  0  0  0  0
   39.9450   23.0730   36.5480 C   0  0  0  0  0  0  0  0  0  0  0  0
   39.8200   22.9400   37.9080 C   0  0  0  0  0  0  0  0  0  0  0  0
   38.6860   23.4170   38.5390 C   0  0  0  0  0  0  0  0  0  0  0  0
   37.7260   24.0150   37.7360 C   0  0  0  0  0  0  0  0  0  0  0  0
   37.9130   24.1160   36.3820 C   0  0  0  0  0  0  0  0  0  0  0  0
   39.0160   23.6590   35.7260 C   0  0  0  0  0  0  0  0  0  0  0  0
   42.1340   22.3100   34.2390 H   0  0  0  0  0  0  0  0  0  0  0  0
   40.6030   22.4600   38.5070 H   0  0  0  0  0  0  0  0  0  0  0  0
   38.5970   23.3070   39.6050 H   0  0  0  0  0  0  0  0  0  0  0  0
   36.8590   24.3710   38.2850 H   0  0  0  0  0  0  0  0  0  0  0  0
   37.0800   24.5990   35.8980 H   0  0  0  0  0  0  0  0  0  0  0  0
   36.1580   28.3140   33.6260 C   0  0  0  0  0  3  0  0  0  0  0  0
   36.4610   27.5510   32.5230 C   0  0  0  0  0  0  0  0  0  0  0  0
   36.4500   28.2350   31.3220 C   0  0  0  0  0  0  0  0  0  0  0  0
   36.6890   27.6480   30.4270 H   0  0  0  0  0  0  0  0  0  0  0  0
   36.1620   29.5760   31.1920 C   0  0  0  0  0  0  0  0  0  0  0  0
   36.0910   30.4340   30.1540 N   0  0  0  0  0  0  0  0  0  0  0  0
   36.2650   30.1940   29.1470 H   0  0  0  0  0  0  0  0  0  0  0  0
   35.7560   31.6610   30.6390 C   0  0  0  0  0  0  0  0  0  0  0  0
   35.6240   32.5650   30.0290 H   0  0  0  0  0  0  0  0  0  0  0  0
   35.6020   31.6240   32.0010 C   0  0  0  0  0  3  0  0  0  0  0  0
   35.8620   30.3100   32.3150 C   0  0  0  0  0  0  0  0  0  0  0  0
   35.8660   29.6490   33.5410 C   0  0  0  0  0  3  0  0  0  0  0  0
   35.9250   22.8390   31.0930 N   0  0  0  0  0  0  0  0  0  0  0  0
   36.3260   22.1880   30.3970 H   0  0  0  0  0  0  0  0  0  0  0  0
   34.9200   22.8370   31.3680 H   0  0  0  0  0  0  0  0  0  0  0  0
  1  6  1  0  0  0  0
  2  1  2  0  0  0  0
  2  3  1  0  0  0  0
  3  4  2  0  0  0  0
  4  5  1  0  0  0  0
  5  8  1  0  0  0  0
  6  5  2  0  0  0  0
  7  2  1  0  0  0  0
  8 17  1  0  0  0  0
  9  8  2  0  0  0  0
  9 10  1  0  0  0  0
 10 11  2  0  0  0  0
 11 12  1  0  0  0  0
 12 13  1  0  0  0  0
 13 19  1  0  0  0  0
 13 14  2  0  0  0  0
 14 20  1  0  0  0  0
 15 21  1  0  0  0  0
 15 14  1  0  0  0  0
 16 15  2  0  0  0  0
 17 16  1  0  0  0  0
 17 12  2  0  0  0  0
 18 10  1  0  0  0  0
 22 16  1  0  0  0  0
 24  3  1  0  0  0  0
 24 23  2  0  0  0  0
 25 24  1  0  0  0  0
 26 25  1  0  0  0  0
 27 25  2  0  0  0  0
 27 33  1  0  0  0  0
 28 30  1  0  0  0  0
 28 27  1  0  0  0  0
 29 28  1  0  0  0  0
 30 32  2  0  0  0  0
 31 30  1  0  0  0  0
 32 33  1  0  0  0  0
 33 34  2  0  0  0  0
 34 23  1  0  0  0  0
 35 37  1  0  0  0  0
 35  1  1  0  0  0  0
 36 35  1  0  0  0  0
M  END
>  <minimizedAffinity>
-6.79223537

$$$$

 OpenBabel03272503573D

 37 41  0  0  0  0  0  0  0  0999 V2000
   36.3340   27.4880   31.7760 C   0  0  0  0  0  0  0  0  0  0  0  0
   35.6510   28.4730   32.4880 C   0  0  0  0  0  0  0  0  0  0  0  0
   36.0820   28.6660   33.7760 C   0  0  0  0  0  0  0  0  0  0  0  0
   37.0860   27.9270   34.2450 N   0  0  0  0  0  0  0  0  0  0  0  0
   37.7470   26.9920   33.5940 C   0  0  0  0  0  0  0  0  0  0  0  0
   37.3140   26.8210   32.3460 N   0  0  0  0  0  0  0  0  0  0  0  0
   34.8620   29.0140   32.0340 H   0  0  0  0  0  0  0  0  0  0  0  0
   38.8550   26.1150   33.9500 C   0  0  0  0  0  0  0  0  0  0  0  0
   40.0210   26.0890   33.2530 N   0  0  0  0  0  0  0  0  0  0  0  0
   41.0310   25.2860   33.6000 C   0  0  0  0  0  0  0  0  0  0  0  0
   41.0010   24.4460   34.6430 N   0  0  0  0  0  0  0  0  0  0  0  0
   39.8660   24.4230   35.3800 C   0  0  0  0  0  0  0  0  0  0  0  0
   39.8350   23.5630   36.4480 C   0  0  0  0  0  0  0  0  0  0  0  0
   38.7010   23.4960   37.2380 C   0  0  0  0  0  0  0  0  0  0  0  0
   37.6450   24.3240   36.8890 C   0  0  0  0  0  0  0  0  0  0  0  0
   37.7400   25.1610   35.8080 C   0  0  0  0  0  0  0  0  0  0  0  0
   38.8400   25.2540   35.0090 C   0  0  0  0  0  0  0  0  0  0  0  0
   41.9740   25.2740   33.0260 H   0  0  0  0  0  0  0  0  0  0  0  0
   40.6930   22.9250   36.6900 H   0  0  0  0  0  0  0  0  0  0  0  0
   38.6870   22.8190   38.0720 H   0  0  0  0  0  0  0  0  0  0  0  0
   36.7830   24.2280   37.5440 H   0  0  0  0  0  0  0  0  0  0  0  0
   36.8390   25.7330   35.6640 H   0  0  0  0  0  0  0  0  0  0  0  0
   36.1420   30.6170   35.3530 C   0  0  0  0  0  3  0  0  0  0  0  0
   35.4590   29.6620   34.6360 C   0  0  0  0  0  0  0  0  0  0  0  0
   34.0840   29.7020   34.7790 C   0  0  0  0  0  0  0  0  0  0  0  0
   33.5160   28.9510   34.2170 H   0  0  0  0  0  0  0  0  0  0  0  0
   33.4090   30.6070   35.5680 C   0  0  0  0  0  0  0  0  0  0  0  0
   32.1100   30.8290   35.8550 N   0  0  0  0  0  0  0  0  0  0  0  0
   31.2960   30.2830   35.4780 H   0  0  0  0  0  0  0  0  0  0  0  0
   32.0400   31.8820   36.7150 C   0  0  0  0  0  0  0  0  0  0  0  0
   31.1100   32.2980   37.1270 H   0  0  0  0  0  0  0  0  0  0  0  0
   33.2910   32.3640   37.0030 C   0  0  0  0  0  3  0  0  0  0  0  0
   34.1220   31.5470   36.2720 C   0  0  0  0  0  0  0  0  0  0  0  0
   35.5090   31.5340   36.1490 C   0  0  0  0  0  3  0  0  0  0  0  0
   35.9980   27.1670   30.3920 N   0  0  0  0  0  0  0  0  0  0  0  0
   36.5450   27.2320   29.5160 H   0  0  0  0  0  0  0  0  0  0  0  0
   35.0150   26.8260   30.4300 H   0  0  0  0  0  0  0  0  0  0  0  0
  1  6  2  0  0  0  0
  1  2  1  0  0  0  0
  2  3  2  0  0  0  0
  3  4  1  0  0  0  0
  3 24  1  0  0  0  0
  5  8  1  0  0  0  0
  5  4  2  0  0  0  0
  6  5  1  0  0  0  0
  7  2  1  0  0  0  0
  8 17  1  0  0  0  0
  9 10  1  0  0  0  0
  9  8  2  0  0  0  0
 10 11  2  0  0  0  0
 11 12  1  0  0  0  0
 12 13  1  0  0  0  0
 13 19  1  0  0  0  0
 13 14  2  0  0  0  0
 14 20  1  0  0  0  0
 15 14  1  0  0  0  0
 15 21  1  0  0  0  0
 16 15  2  0  0  0  0
 17 12  2  0  0  0  0
 17 16  1  0  0  0  0
 18 10  1  0  0  0  0
 22 16  1  0  0  0  0
 23 34  1  0  0  0  0
 24 25  1  0  0  0  0
 24 23  2  0  0  0  0
 25 27  2  0  0  0  0
 26 25  1  0  0  0  0
 27 28  1  0  0  0  0
 27 33  1  0  0  0  0
 28 30  1  0  0  0  0
 29 28  1  0  0  0  0
 30 32  2  0  0  0  0
 30 31  1  0  0  0  0
 33 32  1  0  0  0  0
 34 33  2  0  0  0  0
 35 37  1  0  0  0  0
 35  1  1  0  0  0  0
 36 35  1  0  0  0  0
M  END
>  <minimizedAffinity>
-6.7532835

$$$$

 OpenBabel03272503573D

 37 41  0  0  0  0  0  0  0  0999 V2000
   36.4770   27.5620   31.5850 C   0  0  0  0  0  0  0  0  0  0  0  0
   35.5930   28.3930   32.2720 C   0  0  0  0  0  0  0  0  0  0  0  0
   35.9470   28.6760   33.5670 C   0  0  0  0  0  0  0  0  0  0  0  0
   37.0680   28.1560   34.0640 N   0  0  0  0  0  0  0  0  0  0  0  0
   37.9180   27.3700   33.4370 C   0  0  0  0  0  0  0  0  0  0  0  0
   37.5570   27.1090   32.1820 N   0  0  0  0  0  0  0  0  0  0  0  0
   34.7220   28.7620   31.7950 H   0  0  0  0  0  0  0  0  0  0  0  0
   39.1710   26.7360   33.8260 C   0  0  0  0  0  0  0  0  0  0  0  0
   40.3850   27.2650   33.5190 N   0  0  0  0  0  0  0  0  0  0  0  0
   41.5240   26.6760   33.8930 C   0  0  0  0  0  0  0  0  0  0  0  0
   41.5880   25.5340   34.5910 N   0  0  0  0  0  0  0  0  0  0  0  0
   40.4130   24.9550   34.9290 C   0  0  0  0  0  0  0  0  0  0  0  0
   40.4770   23.7860   35.6440 C   0  0  0  0  0  0  0  0  0  0  0  0
   39.3080   23.1490   36.0180 C   0  0  0  0  0  0  0  0  0  0  0  0
   38.1170   23.7490   35.6360 C   0  0  0  0  0  0  0  0  0  0  0  0
   38.1220   24.9180   34.9210 C   0  0  0  0  0  0  0  0  0  0  0  0
   39.2530   25.5740   34.5370 C   0  0  0  0  0  0  0  0  0  0  0  0
   42.5050   27.1140   33.6380 H   0  0  0  0  0  0  0  0  0  0  0  0
   41.4400   23.3440   35.9260 H   0  0  0  0  0  0  0  0  0  0  0  0
   39.3700   22.2330   36.5780 H   0  0  0  0  0  0  0  0  0  0  0  0
   37.2340   23.2050   35.9570 H   0  0  0  0  0  0  0  0  0  0  0  0
   37.1230   25.2550   34.6970 H   0  0  0  0  0  0  0  0  0  0  0  0
   33.7470   29.4390   34.5030 C   0  0  0  0  0  3  0  0  0  0  0  0
   35.1160   29.5310   34.4030 C   0  0  0  0  0  0  0  0  0  0  0  0
   35.6890   30.5240   35.1750 C   0  0  0  0  0  0  0  0  0  0  0  0
   36.7800   30.6180   35.1130 H   0  0  0  0  0  0  0  0  0  0  0  0
   34.9850   31.3780   35.9950 C   0  0  0  0  0  0  0  0  0  0  0  0
   35.3200   32.3940   36.8170 N   0  0  0  0  0  0  0  0  0  0  0  0
   36.2930   32.7460   36.9910 H   0  0  0  0  0  0  0  0  0  0  0  0
   34.1790   32.8780   37.3790 C   0  0  0  0  0  0  0  0  0  0  0  0
   34.1330   33.7110   38.0950 H   0  0  0  0  0  0  0  0  0  0  0  0
   33.0810   32.1880   36.9330 C   0  0  0  0  0  3  0  0  0  0  0  0
   33.6180   31.2590   36.0720 C   0  0  0  0  0  0  0  0  0  0  0  0
   33.0100   30.2680   35.3060 C   0  0  0  0  0  3  0  0  0  0  0  0
   36.2450   27.1720   30.1960 N   0  0  0  0  0  0  0  0  0  0  0  0
   36.7870   27.3420   29.3320 H   0  0  0  0  0  0  0  0  0  0  0  0
   35.3490   26.6410   30.2170 H   0  0  0  0  0  0  0  0  0  0  0  0
  1  6  2  0  0  0  0
  1  2  1  0  0  0  0
  2  3  2  0  0  0  0
  3  4  1  0  0  0  0
  3 24  1  0  0  0  0
  5  8  1  0  0  0  0
  5  4  2  0  0  0  0
  6  5  1  0  0  0  0
  7  2  1  0  0  0  0
  8 17  1  0  0  0  0
  9  8  2  0  0  0  0
  9 10  1  0  0  0  0
 10 11  2  0  0  0  0
 11 12  1  0  0  0  0
 12 13  1  0  0  0  0
 13 19  1  0  0  0  0
 13 14  2  0  0  0  0
 14 20  1  0  0  0  0
 15 21  1  0  0  0  0
 15 14  1  0  0  0  0
 16 15  2  0  0  0  0
 17 16  1  0  0  0  0
 17 12  2  0  0  0  0
 18 10  1  0  0  0  0
 22 16  1  0  0  0  0
 23 34  1  0  0  0  0
 24 23  2  0  0  0  0
 24 25  1  0  0  0  0
 25 27  2  0  0  0  0
 26 25  1  0  0  0  0
 27 33  1  0  0  0  0
 27 28  1  0  0  0  0
 28 29  1  0  0  0  0
 28 30  1  0  0  0  0
 30 31  1  0  0  0  0
 32 30  2  0  0  0  0
 33 32  1  0  0  0  0
 34 33  2  0  0  0  0
 35 37  1  0  0  0  0
 35  1  1  0  0  0  0
 36 35  1  0  0  0  0
M  END
>  <minimizedAffinity>
-6.7454195

$$$$

 OpenBabel03272503573D

 37 41  0  0  0  0  0  0  0  0999 V2000
   36.1750   27.3080   31.7160 C   0  0  0  0  0  0  0  0  0  0  0  0
   35.6270   28.5240   32.1240 C   0  0  0  0  0  0  0  0  0  0  0  0
   35.9860   28.9310   33.3830 C   0  0  0  0  0  0  0  0  0  0  0  0
   36.8040   28.1680   34.1060 N   0  0  0  0  0  0  0  0  0  0  0  0
   37.3350   27.0180   33.7440 C   0  0  0  0  0  0  0  0  0  0  0  0
   36.9740   26.6410   32.5190 N   0  0  0  0  0  0  0  0  0  0  0  0
   34.9830   29.0660   31.4800 H   0  0  0  0  0  0  0  0  0  0  0  0
   38.2380   26.0810   34.3980 C   0  0  0  0  0  0  0  0  0  0  0  0
   37.7930   25.0300   35.1360 N   0  0  0  0  0  0  0  0  0  0  0  0
   38.6360   24.1730   35.7200 C   0  0  0  0  0  0  0  0  0  0  0  0
   39.9710   24.2580   35.6430 N   0  0  0  0  0  0  0  0  0  0  0  0
   40.4790   25.2840   34.9220 C   0  0  0  0  0  0  0  0  0  0  0  0
   41.8460   25.3720   34.8420 C   0  0  0  0  0  0  0  0  0  0  0  0
   42.4230   26.4000   34.1190 C   0  0  0  0  0  0  0  0  0  0  0  0
   41.5600   27.2970   33.5070 C   0  0  0  0  0  0  0  0  0  0  0  0
   40.2030   27.1530   33.6270 C   0  0  0  0  0  0  0  0  0  0  0  0
   39.5990   26.1540   34.3290 C   0  0  0  0  0  0  0  0  0  0  0  0
   38.2640   23.3220   36.3170 H   0  0  0  0  0  0  0  0  0  0  0  0
   42.4930   24.6420   35.3420 H   0  0  0  0  0  0  0  0  0  0  0  0
   43.4950   26.4600   34.0640 H   0  0  0  0  0  0  0  0  0  0  0  0
   42.0690   28.0820   32.9550 H   0  0  0  0  0  0  0  0  0  0  0  0
   39.6700   27.9280   33.1010 H   0  0  0  0  0  0  0  0  0  0  0  0
   34.9100   31.1910   33.2060 C   0  0  0  0  0  3  0  0  0  0  0  0
   35.4880   30.1810   33.9400 C   0  0  0  0  0  0  0  0  0  0  0  0
   35.5740   30.4260   35.2980 C   0  0  0  0  0  0  0  0  0  0  0  0
   36.0310   29.6350   35.9050 H   0  0  0  0  0  0  0  0  0  0  0  0
   35.1300   31.5760   35.9120 C   0  0  0  0  0  0  0  0  0  0  0  0
   35.1090   32.0240   37.1840 N   0  0  0  0  0  0  0  0  0  0  0  0
   35.4730   31.5070   38.0220 H   0  0  0  0  0  0  0  0  0  0  0  0
   34.5360   33.2590   37.1900 C   0  0  0  0  0  0  0  0  0  0  0  0
   34.3800   33.8760   38.0850 H   0  0  0  0  0  0  0  0  0  0  0  0
   34.1740   33.6370   35.9230 C   0  0  0  0  0  3  0  0  0  0  0  0
   34.5580   32.5660   35.1490 C   0  0  0  0  0  0  0  0  0  0  0  0
   34.4560   32.3500   33.7780 C   0  0  0  0  0  3  0  0  0  0  0  0
   35.8920   26.7410   30.4000 N   0  0  0  0  0  0  0  0  0  0  0  0
   36.5060   26.5200   29.5970 H   0  0  0  0  0  0  0  0  0  0  0  0
   34.8640   26.5770   30.3980 H   0  0  0  0  0  0  0  0  0  0  0  0
  1  2  2  0  0  0  0
  1  6  1  0  0  0  0
  2  3  1  0  0  0  0
  3 24  1  0  0  0  0
  3  4  2  0  0  0  0
  5  4  1  0  0  0  0
  5  8  1  0  0  0  0
  6  5  2  0  0  0  0
  7  2  1  0  0  0  0
  8  9  1  0  0  0  0
  9 10  2  0  0  0  0
 10 18  1  0  0  0  0
 11 10  1  0  0  0  0
 12 11  2  0  0  0  0
 13 12  1  0  0  0  0
 13 19  1  0  0  0  0
 14 13  2  0  0  0  0
 15 16  2  0  0  0  0
 15 14  1  0  0  0  0
 16 17  1  0  0  0  0
 17  8  2  0  0  0  0
 17 12  1  0  0  0  0
 20 14  1  0  0  0  0
 21 15  1  0  0  0  0
 22 16  1  0  0  0  0
 23 34  2  0  0  0  0
 23 24  1  0  0  0  0
 24 25  2  0  0  0  0
 25 26  1  0  0  0  0
 25 27  1  0  0  0  0
 27 28  1  0  0  0  0
 28 30  1  0  0  0  0
 28 29  1  0  0  0  0
 30 31  1  0  0  0  0
 32 30  2  0  0  0  0
 33 27  2  0  0  0  0
 33 32  1  0  0  0  0
 34 33  1  0  0  0  0
 35  1  1  0  0  0  0
 36 35  1  0  0  0  0
 37 35  1  0  0  0  0
M  END
>  <minimizedAffinity>
-6.72870064

$$$$

 OpenBabel03272503573D

 37 41  0  0  0  0  0  0  0  0999 V2000
   36.5960   28.0440   30.8920 C   0  0  0  0  0  0  0  0  0  0  0  0
   35.8440   28.9320   31.6600 C   0  0  0  0  0  0  0  0  0  0  0  0
   35.8210   28.6650   33.0050 C   0  0  0  0  0  0  0  0  0  0  0  0
   36.4930   27.6140   33.4720 N   0  0  0  0  0  0  0  0  0  0  0  0
   37.2100   26.7620   32.7690 C   0  0  0  0  0  0  0  0  0  0  0  0
   37.2200   27.0380   31.4670 N   0  0  0  0  0  0  0  0  0  0  0  0
   35.3400   29.7440   31.2020 H   0  0  0  0  0  0  0  0  0  0  0  0
   38.0000   25.5880   33.1200 C   0  0  0  0  0  0  0  0  0  0  0  0
   37.5280   24.3210   32.9820 N   0  0  0  0  0  0  0  0  0  0  0  0
   38.2700   23.2550   33.2970 C   0  0  0  0  0  0  0  0  0  0  0  0
   39.5210   23.3220   33.7710 N   0  0  0  0  0  0  0  0  0  0  0  0
   40.0510   24.5560   33.9320 C   0  0  0  0  0  0  0  0  0  0  0  0
   41.3330   24.6260   34.4160 C   0  0  0  0  0  0  0  0  0  0  0  0
   41.9270   25.8610   34.6020 C   0  0  0  0  0  0  0  0  0  0  0  0
   41.1680   26.9760   34.2780 C   0  0  0  0  0  0  0  0  0  0  0  0
   39.8920   26.8380   33.7990 C   0  0  0  0  0  0  0  0  0  0  0  0
   39.2750   25.6390   33.6020 C   0  0  0  0  0  0  0  0  0  0  0  0
   37.8760   22.2300   33.1810 H   0  0  0  0  0  0  0  0  0  0  0  0
   41.8980   23.7190   34.6610 H   0  0  0  0  0  0  0  0  0  0  0  0
   42.9310   25.9040   34.9830 H   0  0  0  0  0  0  0  0  0  0  0  0
   41.6860   27.9170   34.4450 H   0  0  0  0  0  0  0  0  0  0  0  0
   39.4330   27.7920   33.6000 H   0  0  0  0  0  0  0  0  0  0  0  0
   33.7030   29.5540   34.0140 C   0  0  0  0  0  3  0  0  0  0  0  0
   35.0750   29.5100   33.9270 C   0  0  0  0  0  0  0  0  0  0  0  0
   35.7400   30.3470   34.8030 C   0  0  0  0  0  0  0  0  0  0  0  0
   36.8360   30.3300   34.7530 H   0  0  0  0  0  0  0  0  0  0  0  0
   35.1200   31.1790   35.7080 C   0  0  0  0  0  0  0  0  0  0  0  0
   35.5500   32.0600   36.6350 N   0  0  0  0  0  0  0  0  0  0  0  0
   36.5520   32.2860   36.8480 H   0  0  0  0  0  0  0  0  0  0  0  0
   34.4590   32.6010   37.2440 C   0  0  0  0  0  0  0  0  0  0  0  0
   34.4920   33.3520   38.0450 H   0  0  0  0  0  0  0  0  0  0  0  0
   33.3000   32.0830   36.7240 C   0  0  0  0  0  3  0  0  0  0  0  0
   33.7470   31.2000   35.7690 C   0  0  0  0  0  0  0  0  0  0  0  0
   33.0470   30.3670   34.9000 C   0  0  0  0  0  3  0  0  0  0  0  0
   36.7230   28.1950   29.4450 N   0  0  0  0  0  0  0  0  0  0  0  0
   37.5430   28.3640   28.8380 H   0  0  0  0  0  0  0  0  0  0  0  0
   35.7520   28.0950   29.0820 H   0  0  0  0  0  0  0  0  0  0  0  0
  1  6  2  0  0  0  0
  1  2  1  0  0  0  0
  2  3  2  0  0  0  0
  3  4  1  0  0  0  0
  3 24  1  0  0  0  0
  5  8  1  0  0  0  0
  5  4  2  0  0  0  0
  6  5  1  0  0  0  0
  7  2  1  0  0  0  0
  8 17  1  0  0  0  0
  9  8  2  0  0  0  0
  9 10  1  0  0  0  0
 10 11  2  0  0  0  0
 11 12  1  0  0  0  0
 12 13  1  0  0  0  0
 13 14  2  0  0  0  0
 13 19  1  0  0  0  0
 14 20  1  0  0  0  0
 15 21  1  0  0  0  0
 15 14  1  0  0  0  0
 16 15  2  0  0  0  0
 17 16  1  0  0  0  0
 17 12  2  0  0  0  0
 18 10  1  0  0  0  0
 22 16  1  0  0  0  0
 23 34  1  0  0  0  0
 24 23  2  0  0  0  0
 24 25  1  0  0  0  0
 25 27  2  0  0  0  0
 26 25  1  0  0  0  0
 27 33  1  0  0  0  0
 27 28  1  0  0  0  0
 28 29  1  0  0  0  0
 28 30  1  0  0  0  0
 30 31  1  0  0  0  0
 32 30  2  0  0  0  0
 33 32  1  0  0  0  0
 34 33  2  0  0  0  0
 35  1  1  0  0  0  0
 36 35  1  0  0  0  0
 37 35  1  0  0  0  0
M  END
>  <minimizedAffinity>
-6.72783518

$$$$

 OpenBabel03272503573D

 37 41  0  0  0  0  0  0  0  0999 V2000
   35.9900   30.2110   31.0300 C   0  0  0  0  0  0  0  0  0  0  0  0
   36.1230   28.8370   30.8260 C   0  0  0  0  0  0  0  0  0  0  0  0
   35.9600   28.0640   31.9470 C   0  0  0  0  0  0  0  0  0  0  0  0
   35.6960   28.6530   33.1120 N   0  0  0  0  0  0  0  0  0  0  0  0
   35.5650   29.9450   33.3300 C   0  0  0  0  0  0  0  0  0  0  0  0
   35.7270   30.6780   32.2300 N   0  0  0  0  0  0  0  0  0  0  0  0
   36.3340   28.4560   29.8610 H   0  0  0  0  0  0  0  0  0  0  0  0
   35.2740   30.7370   34.5180 C   0  0  0  0  0  0  0  0  0  0  0  0
   36.0960   31.7240   34.9600 N   0  0  0  0  0  0  0  0  0  0  0  0
   35.8070   32.4480   36.0450 C   0  0  0  0  0  0  0  0  0  0  0  0
   34.7080   32.2810   36.7920 N   0  0  0  0  0  0  0  0  0  0  0  0
   33.8460   31.3110   36.4060 C   0  0  0  0  0  0  0  0  0  0  0  0
   32.7190   31.1390   37.1700 C   0  0  0  0  0  0  0  0  0  0  0  0
   31.8020   30.1640   36.8240 C   0  0  0  0  0  0  0  0  0  0  0  0
   32.0890   29.4050   35.6990 C   0  0  0  0  0  0  0  0  0  0  0  0
   33.2340   29.6270   34.9790 C   0  0  0  0  0  0  0  0  0  0  0  0
   34.1590   30.5790   35.2890 C   0  0  0  0  0  0  0  0  0  0  0  0
   36.4830   33.2480   36.3950 H   0  0  0  0  0  0  0  0  0  0  0  0
   32.5300   31.7610   38.0530 H   0  0  0  0  0  0  0  0  0  0  0  0
   30.9230   30.0370   37.4290 H   0  0  0  0  0  0  0  0  0  0  0  0
   31.3340   28.6550   35.4760 H   0  0  0  0  0  0  0  0  0  0  0  0
   33.3160   28.9560   34.1400 H   0  0  0  0  0  0  0  0  0  0  0  0
   35.2910   25.8010   31.0920 C   0  0  0  0  0  3  0  0  0  0  0  0
   36.0710   26.6130   31.8820 C   0  0  0  0  0  0  0  0  0  0  0  0
   37.0130   25.9490   32.6450 C   0  0  0  0  0  0  0  0  0  0  0  0
   37.6490   26.5750   33.2840 H   0  0  0  0  0  0  0  0  0  0  0  0
   37.1910   24.5840   32.6490 C   0  0  0  0  0  0  0  0  0  0  0  0
   38.0210   23.7380   33.2930 N   0  0  0  0  0  0  0  0  0  0  0  0
   38.7610   24.0120   33.9850 H   0  0  0  0  0  0  0  0  0  0  0  0
   37.7310   22.4700   32.8900 C   0  0  0  0  0  0  0  0  0  0  0  0
   38.2430   21.5640   33.2420 H   0  0  0  0  0  0  0  0  0  0  0  0
   36.7080   22.4680   31.9770 C   0  0  0  0  0  3  0  0  0  0  0  0
   36.3940   23.8010   31.8480 C   0  0  0  0  0  0  0  0  0  0  0  0
   35.4360   24.4400   31.0660 C   0  0  0  0  0  3  0  0  0  0  0  0
   36.1310   31.1670   29.9350 N   0  0  0  0  0  0  0  0  0  0  0  0
   35.4680   31.8440   29.5200 H   0  0  0  0  0  0  0  0  0  0  0  0
   37.1100   31.0460   29.6020 H   0  0  0  0  0  0  0  0  0  0  0  0
  1  6  1  0  0  0  0
  2  1  2  0  0  0  0
  2  3  1  0  0  0  0
  3  4  2  0  0  0  0
  4  5  1  0  0  0  0
  5  8  1  0  0  0  0
  6  5  2  0  0  0  0
  7  2  1  0  0  0  0
  8  9  2  0  0  0  0
  8 17  1  0  0  0  0
  9 10  1  0  0  0  0
 10 18  1  0  0  0  0
 10 11  2  0  0  0  0
 12 11  1  0  0  0  0
 12 13  1  0  0  0  0
 13 19  1  0  0  0  0
 14 13  2  0  0  0  0
 14 20  1  0  0  0  0
 15 14  1  0  0  0  0
 16 17  1  0  0  0  0
 16 15  2  0  0  0  0
 17 12  2  0  0  0  0
 21 15  1  0  0  0  0
 22 16  1  0  0  0  0
 23 24  1  0  0  0  0
 24  3  1  0  0  0  0
 24 25  2  0  0  0  0
 25 27  1  0  0  0  0
 25 26  1  0  0  0  0
 27 28  1  0  0  0  0
 28 29  1  0  0  0  0
 30 31  1  0  0  0  0
 30 28  1  0  0  0  0
 32 30  2  0  0  0  0
 33 32  1  0  0  0  0
 33 27  2  0  0  0  0
 34 23  2  0  0  0  0
 34 33  1  0  0  0  0
 35  1  1  0  0  0  0
 36 35  1  0  0  0  0
 37 35  1  0  0  0  0
M  END
>  <minimizedAffinity>
-6.7269268

$$$$

 OpenBabel03272503573D

 37 41  0  0  0  0  0  0  0  0999 V2000
   36.5660   23.6550   31.9060 C   0  0  0  0  0  0  0  0  0  0  0  0
   36.1690   24.9800   31.7300 C   0  0  0  0  0  0  0  0  0  0  0  0
   36.8270   25.8940   32.5130 C   0  0  0  0  0  0  0  0  0  0  0  0
   37.7660   25.4720   33.3580 N   0  0  0  0  0  0  0  0  0  0  0  0
   38.1580   24.2280   33.5420 C   0  0  0  0  0  0  0  0  0  0  0  0
   37.5080   23.3570   32.7730 N   0  0  0  0  0  0  0  0  0  0  0  0
   35.4110   25.2260   31.0320 H   0  0  0  0  0  0  0  0  0  0  0  0
   39.1590   23.6100   34.4030 C   0  0  0  0  0  0  0  0  0  0  0  0
   40.2990   23.0530   33.9170 N   0  0  0  0  0  0  0  0  0  0  0  0
   41.2110   22.5000   34.7220 C   0  0  0  0  0  0  0  0  0  0  0  0
   41.1000   22.4380   36.0560 N   0  0  0  0  0  0  0  0  0  0  0  0
   39.9860   22.9750   36.6040 C   0  0  0  0  0  0  0  0  0  0  0  0
   39.8710   22.9120   37.9700 C   0  0  0  0  0  0  0  0  0  0  0  0
   38.7540   23.4440   38.5870 C   0  0  0  0  0  0  0  0  0  0  0  0
   37.7990   24.0220   37.7630 C   0  0  0  0  0  0  0  0  0  0  0  0
   37.9740   24.0520   36.4050 C   0  0  0  0  0  0  0  0  0  0  0  0
   39.0610   23.5390   35.7620 C   0  0  0  0  0  0  0  0  0  0  0  0
   42.1340   22.0510   34.3160 H   0  0  0  0  0  0  0  0  0  0  0  0
   40.6500   22.4460   38.5850 H   0  0  0  0  0  0  0  0  0  0  0  0
   38.6740   23.3890   39.6570 H   0  0  0  0  0  0  0  0  0  0  0  0
   36.9450   24.4230   38.3030 H   0  0  0  0  0  0  0  0  0  0  0  0
   37.1460   24.5270   35.9050 H   0  0  0  0  0  0  0  0  0  0  0  0
   36.4720   28.0450   31.2700 C   0  0  0  0  0  3  0  0  0  0  0  0
   36.5150   27.3150   32.4350 C   0  0  0  0  0  0  0  0  0  0  0  0
   36.2310   28.0330   33.5810 C   0  0  0  0  0  0  0  0  0  0  0  0
   36.2590   27.4730   34.5240 H   0  0  0  0  0  0  0  0  0  0  0  0
   35.9250   29.3750   33.6040 C   0  0  0  0  0  0  0  0  0  0  0  0
   35.6230   30.2620   34.5740 N   0  0  0  0  0  0  0  0  0  0  0  0
   35.5620   30.0520   35.6000 H   0  0  0  0  0  0  0  0  0  0  0  0
   35.4100   31.4740   33.9900 C   0  0  0  0  0  0  0  0  0  0  0  0
   35.1450   32.3940   34.5280 H   0  0  0  0  0  0  0  0  0  0  0  0
   35.5700   31.3970   32.6310 C   0  0  0  0  0  3  0  0  0  0  0  0
   35.8910   30.0760   32.4220 C   0  0  0  0  0  0  0  0  0  0  0  0
   36.1720   29.3810   31.2490 C   0  0  0  0  0  3  0  0  0  0  0  0
   35.9640   22.5650   31.1430 N   0  0  0  0  0  0  0  0  0  0  0  0
   36.3650   21.8910   30.4680 H   0  0  0  0  0  0  0  0  0  0  0  0
   34.9590   22.5740   31.4150 H   0  0  0  0  0  0  0  0  0  0  0  0
  1  6  1  0  0  0  0
  2  1  2  0  0  0  0
  2  3  1  0  0  0  0
  3  4  2  0  0  0  0
  4  5  1  0  0  0  0
  5  8  1  0  0  0  0
  6  5  2  0  0  0  0
  7  2  1  0  0  0  0
  8 17  1  0  0  0  0
  9  8  2  0  0  0  0
  9 10  1  0  0  0  0
 10 11  2  0  0  0  0
 11 12  1  0  0  0  0
 12 13  1  0  0  0  0
 13 19  1  0  0  0  0
 13 14  2  0  0  0  0
 14 20  1  0  0  0  0
 15 21  1  0  0  0  0
 15 14  1  0  0  0  0
 16 15  2  0  0  0  0
 17 16  1  0  0  0  0
 17 12  2  0  0  0  0
 18 10  1  0  0  0  0
 22 16  1  0  0  0  0
 23 24  1  0  0  0  0
 24  3  1  0  0  0  0
 24 25  2  0  0  0  0
 25 27  1  0  0  0  0
 25 26  1  0  0  0  0
 27 28  1  0  0  0  0
 28 29  1  0  0  0  0
 30 31  1  0  0  0  0
 30 28  1  0  0  0  0
 32 30  2  0  0  0  0
 33 32  1  0  0  0  0
 33 27  2  0  0  0  0
 34 23  2  0  0  0  0
 34 33  1  0  0  0  0
 35 37  1  0  0  0  0
 35  1  1  0  0  0  0
 36 35  1  0  0  0  0
M  END
>  <minimizedAffinity>
-6.70596266

$$$$

 OpenBabel03272503573D

 37 41  0  0  0  0  0  0  0  0999 V2000
   36.7520   27.9930   30.4150 C   0  0  0  0  0  0  0  0  0  0  0  0
   36.0340   28.8710   31.2250 C   0  0  0  0  0  0  0  0  0  0  0  0
   35.9340   28.5010   32.5420 C   0  0  0  0  0  0  0  0  0  0  0  0
   36.5070   27.3680   32.9450 N   0  0  0  0  0  0  0  0  0  0  0  0
   37.1900   26.5220   32.2010 C   0  0  0  0  0  0  0  0  0  0  0  0
   37.2760   26.9000   30.9270 N   0  0  0  0  0  0  0  0  0  0  0  0
   35.6110   29.7530   30.8180 H   0  0  0  0  0  0  0  0  0  0  0  0
   37.8760   25.2680   32.4830 C   0  0  0  0  0  0  0  0  0  0  0  0
   39.1090   25.2200   33.0530 N   0  0  0  0  0  0  0  0  0  0  0  0
   39.7190   24.0600   33.3150 C   0  0  0  0  0  0  0  0  0  0  0  0
   39.1950   22.8560   33.0490 N   0  0  0  0  0  0  0  0  0  0  0  0
   37.9680   22.8340   32.4780 C   0  0  0  0  0  0  0  0  0  0  0  0
   37.4300   21.6020   32.2060 C   0  0  0  0  0  0  0  0  0  0  0  0
   36.1780   21.5170   31.6230 C   0  0  0  0  0  0  0  0  0  0  0  0
   35.5330   22.7130   31.3460 C   0  0  0  0  0  0  0  0  0  0  0  0
   36.1270   23.9120   31.6430 C   0  0  0  0  0  0  0  0  0  0  0  0
   37.3560   24.0350   32.2180 C   0  0  0  0  0  0  0  0  0  0  0  0
   40.7200   24.0330   33.7790 H   0  0  0  0  0  0  0  0  0  0  0  0
   37.9730   20.6790   32.4400 H   0  0  0  0  0  0  0  0  0  0  0  0
   35.7670   20.5460   31.4130 H   0  0  0  0  0  0  0  0  0  0  0  0
   34.5560   22.5840   30.8900 H   0  0  0  0  0  0  0  0  0  0  0  0
   35.5050   24.7470   31.3650 H   0  0  0  0  0  0  0  0  0  0  0  0
   33.8430   29.4410   33.5610 C   0  0  0  0  0  3  0  0  0  0  0  0
   35.2120   29.3240   33.5020 C   0  0  0  0  0  0  0  0  0  0  0  0
   35.9000   30.0610   34.4480 C   0  0  0  0  0  0  0  0  0  0  0  0
   36.9940   29.9840   34.4220 H   0  0  0  0  0  0  0  0  0  0  0  0
   35.3030   30.8650   35.3940 C   0  0  0  0  0  0  0  0  0  0  0  0
   35.7570   31.6560   36.3880 N   0  0  0  0  0  0  0  0  0  0  0  0
   36.7640   31.8090   36.6390 H   0  0  0  0  0  0  0  0  0  0  0  0
   34.6820   32.2170   37.0070 C   0  0  0  0  0  0  0  0  0  0  0  0
   34.7360   32.9100   37.8580 H   0  0  0  0  0  0  0  0  0  0  0  0
   33.5110   31.8030   36.4270 C   0  0  0  0  0  3  0  0  0  0  0  0
   33.9320   30.9610   35.4250 C   0  0  0  0  0  0  0  0  0  0  0  0
   33.2100   30.2300   34.4850 C   0  0  0  0  0  3  0  0  0  0  0  0
   36.9520   28.2480   28.9910 N   0  0  0  0  0  0  0  0  0  0  0  0
   37.8080   28.4030   28.4310 H   0  0  0  0  0  0  0  0  0  0  0  0
   35.9930   28.2520   28.5850 H   0  0  0  0  0  0  0  0  0  0  0  0
  1  6  2  0  0  0  0
  1  2  1  0  0  0  0
  2  3  2  0  0  0  0
  3  4  1  0  0  0  0
  3 24  1  0  0  0  0
  5  8  1  0  0  0  0
  5  4  2  0  0  0  0
  6  5  1  0  0  0  0
  7  2  1  0  0  0  0
  8  9  1  0  0  0  0
  9 10  2  0  0  0  0
 10 18  1  0  0  0  0
 11 10  1  0  0  0  0
 12 11  2  0  0  0  0
 13 19  1  0  0  0  0
 13 12  1  0  0  0  0
 14 13  2  0  0  0  0
 15 14  1  0  0  0  0
 15 16  2  0  0  0  0
 16 17  1  0  0  0  0
 17 12  1  0  0  0  0
 17  8  2  0  0  0  0
 20 14  1  0  0  0  0
 21 15  1  0  0  0  0
 22 16  1  0  0  0  0
 23 34  1  0  0  0  0
 24 23  2  0  0  0  0
 24 25  1  0  0  0  0
 25 27  2  0  0  0  0
 26 25  1  0  0  0  0
 27 33  1  0  0  0  0
 27 28  1  0  0  0  0
 28 29  1  0  0  0  0
 28 30  1  0  0  0  0
 30 31  1  0  0  0  0
 32 30  2  0  0  0  0
 33 32  1  0  0  0  0
 34 33  2  0  0  0  0
 35  1  1  0  0  0  0
 36 35  1  0  0  0  0
 37 35  1  0  0  0  0
M  END
>  <minimizedAffinity>
-6.69400167

$$$$
