
 OpenBabel03272509303D

 41 44  0  0  1  0  0  0  0  0999 V2000
   36.3790   30.7190   49.0240 C   0  0  2  0  0  0  0  0  0  0  0  0
   37.3320   31.5770   49.8020 C   0  0  0  0  0  0  0  0  0  0  0  0
   38.1810   30.7910   50.7720 C   0  0  0  0  0  0  0  0  0  0  0  0
   37.3150   29.9710   51.7230 C   0  0  0  0  0  0  0  0  0  0  0  0
   36.0580   29.4300   51.0960 C   0  0  0  0  0  0  0  0  0  0  0  0
   36.2900   29.3340   49.5750 C   0  0  1  0  0  0  0  0  0  0  0  0
   35.3230   31.1140   49.0040 H   0  0  0  0  0  0  0  0  0  0  0  0
   36.6530   32.1970   50.4800 H   0  0  0  0  0  0  0  0  0  0  0  0
   37.9110   32.2970   49.2590 H   0  0  0  0  0  0  0  0  0  0  0  0
   38.6930   31.5420   51.4160 H   0  0  0  0  0  0  0  0  0  0  0  0
   38.9570   30.1740   50.3000 H   0  0  0  0  0  0  0  0  0  0  0  0
   37.9340   29.1000   52.0280 H   0  0  0  0  0  0  0  0  0  0  0  0
   37.0560   30.5490   52.6270 H   0  0  0  0  0  0  0  0  0  0  0  0
   35.2200   30.1370   51.2090 H   0  0  0  0  0  0  0  0  0  0  0  0
   35.8140   28.4470   51.5280 H   0  0  0  0  0  0  0  0  0  0  0  0
   37.2380   28.8550   49.5580 H   0  0  0  0  0  0  0  0  0  0  0  0
   36.7720   30.6420   47.5930 C   0  0  0  0  0  0  0  0  0  0  0  0
   38.1390   30.8150   47.3300 C   0  0  0  0  0  0  0  0  0  0  0  0
   38.5380   30.7410   45.9900 C   0  0  0  0  0  0  0  0  0  0  0  0
   37.5840   30.5050   45.0270 N   0  0  0  0  0  0  0  0  0  0  0  0
   36.2590   30.3410   45.3400 C   0  0  0  0  0  0  0  0  0  0  0  0
   35.8750   30.4140   46.6280 N   0  0  0  0  0  0  0  0  0  0  0  0
   38.9810   30.9940   47.9710 H   0  0  0  0  0  0  0  0  0  0  0  0
   39.5490   30.8550   45.6340 H   0  0  0  0  0  0  0  0  0  0  0  0
   35.5890   30.1600   44.5070 H   0  0  0  0  0  0  0  0  0  0  0  0
   33.9990   28.3500   49.0700 C   0  0  0  0  0  0  0  0  0  0  0  0
   33.1910   29.0250   49.8120 O   0  0  0  0  0  0  0  0  0  0  0  0
   35.3960   28.4750   48.8890 N   0  0  0  0  0  0  0  0  0  0  0  0
   35.7810   27.8310   48.1300 H   0  0  0  0  0  0  0  0  0  0  0  0
   31.8440   27.2720   48.4250 C   0  0  0  0  0  3  0  0  0  0  0  0
   33.2190   27.3270   48.3600 C   0  0  0  0  0  0  0  0  0  0  0  0
   33.7560   26.3430   47.5780 C   0  0  0  0  0  0  0  0  0  0  0  0
   34.8070   26.2500   47.4270 H   0  0  0  0  0  0  0  0  0  0  0  0
   33.0370   25.3780   46.9080 C   0  0  0  0  0  0  0  0  0  0  0  0
   33.3380   24.3400   46.1060 N   0  0  0  0  0  0  0  0  0  0  0  0
   34.3090   24.0710   45.8270 H   0  0  0  0  0  0  0  0  0  0  0  0
   32.2380   23.7020   45.7110 C   0  0  0  0  0  0  0  0  0  0  0  0
   32.2230   22.8290   45.0570 H   0  0  0  0  0  0  0  0  0  0  0  0
   31.1540   24.3280   46.2680 C   0  0  0  0  0  3  0  0  0  0  0  0
   31.6710   25.3630   47.0050 C   0  0  0  0  0  0  0  0  0  0  0  0
   31.0620   26.3180   47.7690 C   0  0  0  0  0  3  0  0  0  0  0  0
  1  7  1  1  0  0  0
  1  6  1  0  0  0  0
  1  2  1  0  0  0  0
  2  8  1  0  0  0  0
  2  3  1  0  0  0  0
  3 10  1  0  0  0  0
  3  4  1  0  0  0  0
  4 12  1  0  0  0  0
  4 13  1  0  0  0  0
  5 14  1  0  0  0  0
  5 15  1  0  0  0  0
  5  4  1  0  0  0  0
  6 16  1  6  0  0  0
  6  5  1  0  0  0  0
  9  2  1  0  0  0  0
 11  3  1  0  0  0  0
 17  1  1  0  0  0  0
 18 17  1  0  0  0  0
 18 23  1  0  0  0  0
 19 18  2  0  0  0  0
 20 21  2  0  0  0  0
 20 19  1  0  0  0  0
 21 22  1  0  0  0  0
 22 17  2  0  0  0  0
 24 19  1  0  0  0  0
 25 21  1  0  0  0  0
 26 27  2  0  0  0  0
 28 26  1  0  0  0  0
 28  6  1  0  0  0  0
 29 28  1  0  0  0  0
 31 30  1  0  0  0  0
 31 26  1  0  0  0  0
 32 31  2  0  0  0  0
 33 32  1  0  0  0  0
 34 40  2  0  0  0  0
 34 32  1  0  0  0  0
 35 34  1  0  0  0  0
 36 35  1  0  0  0  0
 37 35  1  0  0  0  0
 37 39  2  0  0  0  0
 38 37  1  0  0  0  0
 39 40  1  0  0  0  0
 40 41  1  0  0  0  0
 41 30  2  0  0  0  0
M  END
>  <minimizedAffinity>
-6.43358946

>  <minimizedRMSD>
0.667402565

$$$$
