
 OpenBabel03262523083D

 23 25  0  0  0  0  0  0  0  0999 V2000
   34.6100   28.1850   48.7850 C   0  0  0  0  0  0  0  0  0  0  0  0
   34.9200   29.4880   48.4460 C   0  0  0  0  0  0  0  0  0  0  0  0
   34.0940   30.1640   47.5670 C   0  0  0  0  0  0  0  0  0  0  0  0
   34.3720   31.2010   47.3200 H   0  0  0  0  0  0  0  0  0  0  0  0
   32.9800   29.5620   47.0280 C   0  0  0  0  0  0  0  0  0  0  0  0
   32.0480   30.0030   46.1730 N   0  0  0  0  0  0  0  0  0  0  0  0
   31.9950   30.9410   45.7330 H   0  0  0  0  0  0  0  0  0  0  0  0
   31.1540   29.0200   45.9550 C   0  0  0  0  0  0  0  0  0  0  0  0
   30.2720   28.9960   45.3340 H   0  0  0  0  0  0  0  0  0  0  0  0
   31.5090   27.9070   46.6850 C   0  0  0  0  0  0  0  0  0  0  0  0
   32.6610   28.2570   47.3600 C   0  0  0  0  0  0  0  0  0  0  0  0
   33.4880   27.5900   48.2380 C   0  0  0  0  0  0  0  0  0  0  0  0
   37.6100   30.2350   50.8060 C   0  0  0  0  0  0  0  0  0  0  0  0
   38.3410   31.2530   50.1610 C   0  0  0  0  0  0  0  0  0  0  0  0
   37.8720   31.6620   48.8990 C   0  0  0  0  0  0  0  0  0  0  0  0
   36.7730   31.0640   48.3970 N   0  0  0  0  0  0  0  0  0  0  0  0
   36.0930   30.0990   49.0240 C   0  0  0  0  0  0  0  0  0  0  0  0
   36.5340   29.6990   50.2350 N   0  0  0  0  0  0  0  0  0  0  0  0
   39.2020   31.6710   50.6330 H   0  0  0  0  0  0  0  0  0  0  0  0
   38.4150   32.4500   48.3690 H   0  0  0  0  0  0  0  0  0  0  0  0
   37.9900   29.7380   52.0890 N   0  0  0  0  0  0  0  0  0  0  0  0
   37.5080   29.6340   52.9940 H   0  0  0  0  0  0  0  0  0  0  0  0
   38.9950   29.4330   51.9880 H   0  0  0  0  0  0  0  0  0  0  0  0
  2  1  1  0  0  0  0
  2 17  1  0  0  0  0
  3  2  2  0  0  0  0
  4  3  1  0  0  0  0
  5 11  2  0  0  0  0
  5  3  1  0  0  0  0
  6  5  1  0  0  0  0
  7  6  1  0  0  0  0
  8  6  1  0  0  0  0
  8 10  2  0  0  0  0
  9  8  1  0  0  0  0
 10 11  1  0  0  0  0
 11 12  1  0  0  0  0
 12  1  2  0  0  0  0
 13 21  1  0  0  0  0
 14 19  1  0  0  0  0
 14 13  2  0  0  0  0
 15 14  1  0  0  0  0
 16 15  2  0  0  0  0
 16 17  1  0  0  0  0
 17 18  2  0  0  0  0
 18 13  1  0  0  0  0
 20 15  1  0  0  0  0
 21 22  1  0  0  0  0
 23 21  1  0  0  0  0
M  END
>  <minimizedAffinity>
-5.44101143

>  <minimizedRMSD>
2.3867588

$$$$
