
 OpenBabel03272509303D

 41 44  0  0  1  0  0  0  0  0999 V2000
   36.8550   31.0990   48.3320 C   0  0  2  0  0  0  0  0  0  0  0  0
   37.8210   31.8940   49.1580 C   0  0  0  0  0  0  0  0  0  0  0  0
   38.4380   31.0960   50.2810 C   0  0  0  0  0  0  0  0  0  0  0  0
   37.3650   30.4800   51.1730 C   0  0  0  0  0  0  0  0  0  0  0  0
   36.1260   30.0480   50.4350 C   0  0  0  0  0  0  0  0  0  0  0  0
   36.5150   29.7900   48.9670 C   0  0  1  0  0  0  0  0  0  0  0  0
   35.8720   31.6200   48.1510 H   0  0  0  0  0  0  0  0  0  0  0  0
   37.1600   32.6530   49.7000 H   0  0  0  0  0  0  0  0  0  0  0  0
   38.5510   32.4840   48.6420 H   0  0  0  0  0  0  0  0  0  0  0  0
   38.9710   31.8300   50.9280 H   0  0  0  0  0  0  0  0  0  0  0  0
   39.1710   30.3460   49.9560 H   0  0  0  0  0  0  0  0  0  0  0  0
   37.8210   29.5670   51.6160 H   0  0  0  0  0  0  0  0  0  0  0  0
   37.0860   31.1630   51.9940 H   0  0  0  0  0  0  0  0  0  0  0  0
   35.3850   30.8630   50.3910 H   0  0  0  0  0  0  0  0  0  0  0  0
   35.7020   29.1460   50.9040 H   0  0  0  0  0  0  0  0  0  0  0  0
   37.3840   29.1950   49.1020 H   0  0  0  0  0  0  0  0  0  0  0  0
   37.3950   30.8460   46.9710 C   0  0  0  0  0  0  0  0  0  0  0  0
   38.7910   30.9050   46.8520 C   0  0  0  0  0  0  0  0  0  0  0  0
   39.3270   30.6650   45.5810 C   0  0  0  0  0  0  0  0  0  0  0  0
   38.4690   30.3890   44.5420 N   0  0  0  0  0  0  0  0  0  0  0  0
   37.1090   30.3410   44.7130 C   0  0  0  0  0  0  0  0  0  0  0  0
   36.5940   30.5730   45.9350 N   0  0  0  0  0  0  0  0  0  0  0  0
   39.5690   31.0980   47.5660 H   0  0  0  0  0  0  0  0  0  0  0  0
   40.3760   30.6770   45.3350 H   0  0  0  0  0  0  0  0  0  0  0  0
   36.5220   30.1140   43.8310 H   0  0  0  0  0  0  0  0  0  0  0  0
   34.2920   29.3390   47.8150 C   0  0  0  0  0  0  0  0  0  0  0  0
   33.6570   30.4570   47.8980 O   0  0  0  0  0  0  0  0  0  0  0  0
   35.5970   28.9950   48.2380 N   0  0  0  0  0  0  0  0  0  0  0  0
   35.8860   28.0100   47.9470 H   0  0  0  0  0  0  0  0  0  0  0  0
   33.7940   27.0580   46.9360 C   0  0  0  0  0  3  0  0  0  0  0  0
   33.4100   28.3610   47.1630 C   0  0  0  0  0  0  0  0  0  0  0  0
   32.1450   28.6310   46.7190 C   0  0  0  0  0  0  0  0  0  0  0  0
   31.7010   29.5940   46.8200 H   0  0  0  0  0  0  0  0  0  0  0  0
   31.3090   27.7240   46.1050 C   0  0  0  0  0  0  0  0  0  0  0  0
   30.0620   27.7580   45.6000 N   0  0  0  0  0  0  0  0  0  0  0  0
   29.4490   28.6050   45.5960 H   0  0  0  0  0  0  0  0  0  0  0  0
   29.7120   26.5730   45.1030 C   0  0  0  0  0  0  0  0  0  0  0  0
   28.7490   26.3510   44.6390 H   0  0  0  0  0  0  0  0  0  0  0  0
   30.7580   25.7060   45.2790 C   0  0  0  0  0  3  0  0  0  0  0  0
   31.7350   26.4390   45.9000 C   0  0  0  0  0  0  0  0  0  0  0  0
   32.9910   26.0960   46.3190 C   0  0  0  0  0  3  0  0  0  0  0  0
  1  7  1  6  0  0  0
  1  6  1  0  0  0  0
  1  2  1  0  0  0  0
  2  8  1  0  0  0  0
  2  3  1  0  0  0  0
  3 10  1  0  0  0  0
  3  4  1  0  0  0  0
  4 12  1  0  0  0  0
  4 13  1  0  0  0  0
  5 15  1  0  0  0  0
  5  4  1  0  0  0  0
  6 16  1  1  0  0  0
  6  5  1  0  0  0  0
  9  2  1  0  0  0  0
 11  3  1  0  0  0  0
 14  5  1  0  0  0  0
 17  1  1  0  0  0  0
 18 17  1  0  0  0  0
 18 23  1  0  0  0  0
 19 18  2  0  0  0  0
 20 21  2  0  0  0  0
 20 19  1  0  0  0  0
 21 22  1  0  0  0  0
 22 17  2  0  0  0  0
 24 19  1  0  0  0  0
 25 21  1  0  0  0  0
 26 27  2  0  0  0  0
 26 28  1  0  0  0  0
 28  6  1  0  0  0  0
 29 28  1  0  0  0  0
 30 31  1  0  0  0  0
 31 26  1  0  0  0  0
 32 33  1  0  0  0  0
 32 31  2  0  0  0  0
 34 32  1  0  0  0  0
 35 34  1  0  0  0  0
 36 35  1  0  0  0  0
 37 39  2  0  0  0  0
 37 35  1  0  0  0  0
 38 37  1  0  0  0  0
 39 40  1  0  0  0  0
 40 34  2  0  0  0  0
 40 41  1  0  0  0  0
 41 30  2  0  0  0  0
M  END
>  <minimizedAffinity>
-5.63404465

>  <minimizedRMSD>
1.99174476

$$$$
