
 OpenBabel03272508503D

 43 48  0  0  0  0  0  0  0  0999 V2000
   35.3560   25.5850   31.0080 C   0  0  0  0  0  0  0  0  0  0  0  0
   34.3950   25.2920   30.2700 O   0  0  0  0  0  0  0  0  0  0  0  0
   37.0690   28.7770   30.6120 C   0  0  0  0  0  0  0  0  0  0  0  0
   36.5500   29.5370   31.6480 C   0  0  0  0  0  0  0  0  0  0  0  0
   35.6200   28.9840   32.4900 C   0  0  0  0  0  0  0  0  0  0  0  0
   35.2380   27.7150   32.2830 N   0  0  0  0  0  0  0  0  0  0  0  0
   35.7530   26.9670   31.2590 C   0  0  0  0  0  0  0  0  0  0  0  0
   36.6710   27.5120   30.4270 N   0  0  0  0  0  0  0  0  0  0  0  0
   37.7950   29.2490   29.9760 H   0  0  0  0  0  0  0  0  0  0  0  0
   36.8700   30.5600   31.8000 H   0  0  0  0  0  0  0  0  0  0  0  0
   33.6600   29.5620   33.8070 C   0  0  0  0  0  3  0  0  0  0  0  0
   35.0150   29.6990   33.6080 C   0  0  0  0  0  0  0  0  0  0  0  0
   35.6840   30.5010   34.4850 C   0  0  0  0  0  0  0  0  0  0  0  0
   36.7510   30.6270   34.3530 H   0  0  0  0  0  0  0  0  0  0  0  0
   35.1040   31.1700   35.5340 C   0  0  0  0  0  0  0  0  0  0  0  0
   35.6190   31.9870   36.4740 N   0  0  0  0  0  0  0  0  0  0  0  0
   36.6210   32.2610   36.5570 H   0  0  0  0  0  0  0  0  0  0  0  0
   34.6270   32.3880   37.2850 C   0  0  0  0  0  0  0  0  0  0  0  0
   34.7850   33.0560   38.1250 H   0  0  0  0  0  0  0  0  0  0  0  0
   33.4590   31.8030   36.8370 C   0  0  0  0  0  3  0  0  0  0  0  0
   33.7520   31.0250   35.7210 C   0  0  0  0  0  0  0  0  0  0  0  0
   33.0340   30.2220   34.8590 C   0  0  0  0  0  3  0  0  0  0  0  0
   36.0990   24.5010   31.6310 C   0  0  0  0  0  0  0  0  0  0  0  0
   35.8840   23.1510   31.3500 C   0  0  0  0  0  0  0  0  0  0  0  0
   36.8110   22.5110   32.1710 C   0  0  0  0  0  0  0  0  0  0  0  0
   37.5130   23.4540   32.8800 C   0  0  0  0  0  0  0  0  0  0  0  0
   37.0520   24.6290   32.5230 O   0  0  0  0  0  0  0  0  0  0  0  0
   35.1730   22.7040   30.6620 H   0  0  0  0  0  0  0  0  0  0  0  0
   36.9540   21.4290   32.2380 H   0  0  0  0  0  0  0  0  0  0  0  0
   39.8880   23.2150   33.4260 C   0  0  0  0  0  0  0  0  0  0  0  0
   38.5720   23.2160   33.8490 C   0  0  0  0  0  0  0  0  0  0  0  0
   38.2320   22.9940   35.1840 C   0  0  0  0  0  0  0  0  0  0  0  0
   39.2320   22.7630   36.1230 C   0  0  0  0  0  0  0  0  0  0  0  0
   39.2250   22.5230   37.4470 N   0  0  0  0  0  0  0  0  0  0  0  0
   40.4890   22.3820   37.8170 N   0  0  0  0  0  0  0  0  0  0  0  0
   41.3130   22.5270   36.7500 C   0  0  0  0  0  0  0  0  0  0  0  0
   40.5140   22.7760   35.6370 C   0  0  0  0  0  0  0  0  0  0  0  0
   40.9220   22.9880   34.3430 C   0  0  0  0  0  0  0  0  0  0  0  0
   40.1530   23.3880   32.3920 H   0  0  0  0  0  0  0  0  0  0  0  0
   37.1910   23.0010   35.4750 H   0  0  0  0  0  0  0  0  0  0  0  0
   38.3450   22.4740   38.0070 H   0  0  0  0  0  0  0  0  0  0  0  0
   42.4120   22.4570   36.7810 H   0  0  0  0  0  0  0  0  0  0  0  0
   41.9390   22.9840   34.0310 H   0  0  0  0  0  0  0  0  0  0  0  0
  1  7  1  0  0  0  0
  1 23  1  0  0  0  0
  2  1  2  0  0  0  0
  3  4  1  0  0  0  0
  4 10  1  0  0  0  0
  4  5  2  0  0  0  0
  5 12  1  0  0  0  0
  6  5  1  0  0  0  0
  7  6  2  0  0  0  0
  8  3  2  0  0  0  0
  8  7  1  0  0  0  0
  9  3  1  0  0  0  0
 11 22  1  0  0  0  0
 12 11  2  0  0  0  0
 12 13  1  0  0  0  0
 13 15  2  0  0  0  0
 14 13  1  0  0  0  0
 15 21  1  0  0  0  0
 15 16  1  0  0  0  0
 16 17  1  0  0  0  0
 16 18  1  0  0  0  0
 18 19  1  0  0  0  0
 20 18  2  0  0  0  0
 21 20  1  0  0  0  0
 22 21  2  0  0  0  0
 23 27  1  0  0  0  0
 24 23  2  0  0  0  0
 24 25  1  0  0  0  0
 25 29  1  0  0  0  0
 25 26  2  0  0  0  0
 26 31  1  0  0  0  0
 27 26  1  0  0  0  0
 28 24  1  0  0  0  0
 30 31  2  0  0  0  0
 30 38  1  0  0  0  0
 31 32  1  0  0  0  0
 32 40  1  0  0  0  0
 32 33  2  0  0  0  0
 33 34  1  0  0  0  0
 34 35  1  0  0  0  0
 34 41  1  0  0  0  0
 36 42  1  0  0  0  0
 36 35  2  0  0  0  0
 37 33  1  0  0  0  0
 37 36  1  0  0  0  0
 38 37  2  0  0  0  0
 39 30  1  0  0  0  0
 43 38  1  0  0  0  0
M  END
>  <minimizedAffinity>
-7.41776657

$$$$

 OpenBabel03272508503D

 43 48  0  0  0  0  0  0  0  0999 V2000
   36.9220   26.4500   32.8280 C   0  0  0  0  0  0  0  0  0  0  0  0
   36.4060   25.4480   32.2920 O   0  0  0  0  0  0  0  0  0  0  0  0
   36.1300   29.4830   30.9710 C   0  0  0  0  0  0  0  0  0  0  0  0
   35.6100   30.3180   31.9490 C   0  0  0  0  0  0  0  0  0  0  0  0
   35.5210   29.8690   33.2410 C   0  0  0  0  0  0  0  0  0  0  0  0
   35.9430   28.6270   33.5210 N   0  0  0  0  0  0  0  0  0  0  0  0
   36.4560   27.8050   32.5540 C   0  0  0  0  0  0  0  0  0  0  0  0
   36.5440   28.2470   31.2780 N   0  0  0  0  0  0  0  0  0  0  0  0
   36.1810   29.8750   29.9720 H   0  0  0  0  0  0  0  0  0  0  0  0
   35.2740   31.3170   31.7040 H   0  0  0  0  0  0  0  0  0  0  0  0
   35.8480   31.0210   35.3560 C   0  0  0  0  0  3  0  0  0  0  0  0
   34.9910   30.6670   34.3390 C   0  0  0  0  0  0  0  0  0  0  0  0
   33.7010   31.0990   34.4480 C   0  0  0  0  0  0  0  0  0  0  0  0
   33.0040   30.8360   33.6640 H   0  0  0  0  0  0  0  0  0  0  0  0
   33.2120   31.8500   35.4880 C   0  0  0  0  0  0  0  0  0  0  0  0
   31.9840   32.3480   35.7380 N   0  0  0  0  0  0  0  0  0  0  0  0
   31.1460   32.2280   35.1300 H   0  0  0  0  0  0  0  0  0  0  0  0
   32.0220   33.0210   36.8990 C   0  0  0  0  0  0  0  0  0  0  0  0
   31.1540   33.5160   37.3220 H   0  0  0  0  0  0  0  0  0  0  0  0
   33.3110   32.9400   37.3870 C   0  0  0  0  0  3  0  0  0  0  0  0
   34.0780   32.1970   36.4960 C   0  0  0  0  0  0  0  0  0  0  0  0
   35.3920   31.7820   36.4270 C   0  0  0  0  0  3  0  0  0  0  0  0
   38.0240   26.2430   33.7530 C   0  0  0  0  0  0  0  0  0  0  0  0
   38.5540   27.2470   34.5650 C   0  0  0  0  0  0  0  0  0  0  0  0
   39.5670   26.5850   35.2570 C   0  0  0  0  0  0  0  0  0  0  0  0
   39.6070   25.2730   34.8540 C   0  0  0  0  0  0  0  0  0  0  0  0
   38.6660   25.1170   33.9540 O   0  0  0  0  0  0  0  0  0  0  0  0
   38.2540   28.2880   34.6440 H   0  0  0  0  0  0  0  0  0  0  0  0
   40.2250   27.0420   36.0030 H   0  0  0  0  0  0  0  0  0  0  0  0
   41.7550   24.1040   34.7320 C   0  0  0  0  0  0  0  0  0  0  0  0
   40.5130   24.2370   35.3240 C   0  0  0  0  0  0  0  0  0  0  0  0
   40.1050   23.4020   36.3650 C   0  0  0  0  0  0  0  0  0  0  0  0
   40.9590   22.4060   36.8270 C   0  0  0  0  0  0  0  0  0  0  0  0
   40.8580   21.4680   37.7880 N   0  0  0  0  0  0  0  0  0  0  0  0
   41.9960   20.7900   37.7810 N   0  0  0  0  0  0  0  0  0  0  0  0
   42.8300   21.2760   36.8290 C   0  0  0  0  0  0  0  0  0  0  0  0
   42.1740   22.3280   36.1960 C   0  0  0  0  0  0  0  0  0  0  0  0
   42.6420   23.1130   35.1710 C   0  0  0  0  0  0  0  0  0  0  0  0
   42.0720   24.7510   33.9260 H   0  0  0  0  0  0  0  0  0  0  0  0
   39.1250   23.5380   36.8020 H   0  0  0  0  0  0  0  0  0  0  0  0
   40.0080   21.3610   38.3850 H   0  0  0  0  0  0  0  0  0  0  0  0
   43.8400   20.8920   36.6130 H   0  0  0  0  0  0  0  0  0  0  0  0
   43.6000   23.0000   34.7240 H   0  0  0  0  0  0  0  0  0  0  0  0
  1 23  1  0  0  0  0
  2  1  2  0  0  0  0
  3  8  2  0  0  0  0
  3  4  1  0  0  0  0
  4  5  2  0  0  0  0
  5  6  1  0  0  0  0
  5 12  1  0  0  0  0
  7  1  1  0  0  0  0
  7  6  2  0  0  0  0
  8  7  1  0  0  0  0
  9  3  1  0  0  0  0
 10  4  1  0  0  0  0
 11 22  1  0  0  0  0
 12 13  1  0  0  0  0
 12 11  2  0  0  0  0
 13 15  2  0  0  0  0
 14 13  1  0  0  0  0
 15 16  1  0  0  0  0
 15 21  1  0  0  0  0
 16 18  1  0  0  0  0
 17 16  1  0  0  0  0
 18 19  1  0  0  0  0
 18 20  2  0  0  0  0
 21 20  1  0  0  0  0
 22 21  2  0  0  0  0
 23 27  1  0  0  0  0
 23 24  2  0  0  0  0
 24 28  1  0  0  0  0
 24 25  1  0  0  0  0
 25 29  1  0  0  0  0
 26 25  2  0  0  0  0
 26 31  1  0  0  0  0
 27 26  1  0  0  0  0
 30 38  2  0  0  0  0
 30 31  1  0  0  0  0
 31 32  2  0  0  0  0
 32 40  1  0  0  0  0
 32 33  1  0  0  0  0
 33 34  1  0  0  0  0
 34 41  1  0  0  0  0
 35 34  1  0  0  0  0
 36 35  2  0  0  0  0
 37 33  2  0  0  0  0
 37 36  1  0  0  0  0
 38 37  1  0  0  0  0
 39 30  1  0  0  0  0
 42 36  1  0  0  0  0
 43 38  1  0  0  0  0
M  END
>  <minimizedAffinity>
-7.34219456

$$$$

 OpenBabel03272508503D

 43 48  0  0  0  0  0  0  0  0999 V2000
   37.0410   27.5110   30.9730 C   0  0  0  0  0  0  0  0  0  0  0  0
   36.7530   28.3100   30.0590 O   0  0  0  0  0  0  0  0  0  0  0  0
   39.4760   25.0540   29.8270 C   0  0  0  0  0  0  0  0  0  0  0  0
   38.8860   23.8480   30.1750 C   0  0  0  0  0  0  0  0  0  0  0  0
   37.6650   23.8500   30.7970 C   0  0  0  0  0  0  0  0  0  0  0  0
   37.0730   25.0270   31.0520 N   0  0  0  0  0  0  0  0  0  0  0  0
   37.6590   26.2150   30.7080 C   0  0  0  0  0  0  0  0  0  0  0  0
   38.8650   26.2150   30.0930 N   0  0  0  0  0  0  0  0  0  0  0  0
   40.4330   25.0060   29.3410 H   0  0  0  0  0  0  0  0  0  0  0  0
   39.3780   22.9080   29.9610 H   0  0  0  0  0  0  0  0  0  0  0  0
   35.7170   22.7720   31.7730 C   0  0  0  0  0  3  0  0  0  0  0  0
   36.9620   22.6390   31.2020 C   0  0  0  0  0  0  0  0  0  0  0  0
   37.4380   21.3680   31.0610 C   0  0  0  0  0  0  0  0  0  0  0  0
   38.4140   21.2320   30.6160 H   0  0  0  0  0  0  0  0  0  0  0  0
   36.7670   20.2330   31.4470 C   0  0  0  0  0  0  0  0  0  0  0  0
   37.0960   18.9280   31.3780 N   0  0  0  0  0  0  0  0  0  0  0  0
   37.9840   18.5460   30.9890 H   0  0  0  0  0  0  0  0  0  0  0  0
   36.0890   18.2040   31.8930 C   0  0  0  0  0  0  0  0  0  0  0  0
   36.1120   17.1210   31.9530 H   0  0  0  0  0  0  0  0  0  0  0  0
   35.1040   19.0850   32.2950 C   0  0  0  0  0  3  0  0  0  0  0  0
   35.5260   20.3810   32.0160 C   0  0  0  0  0  0  0  0  0  0  0  0
   35.0040   21.6480   32.1770 C   0  0  0  0  0  3  0  0  0  0  0  0
   36.7450   27.8980   32.3420 C   0  0  0  0  0  0  0  0  0  0  0  0
   37.3740   27.3440   33.4580 C   0  0  0  0  0  0  0  0  0  0  0  0
   36.7720   28.0160   34.5210 C   0  0  0  0  0  0  0  0  0  0  0  0
   35.8480   28.9040   34.0270 C   0  0  0  0  0  0  0  0  0  0  0  0
   35.8680   28.7970   32.7200 O   0  0  0  0  0  0  0  0  0  0  0  0
   38.1440   26.5790   33.4960 H   0  0  0  0  0  0  0  0  0  0  0  0
   37.0000   27.8580   35.5790 H   0  0  0  0  0  0  0  0  0  0  0  0
   33.6240   29.6840   34.6940 C   0  0  0  0  0  0  0  0  0  0  0  0
   34.9980   29.8020   34.7940 C   0  0  0  0  0  0  0  0  0  0  0  0
   35.5930   30.7630   35.6120 C   0  0  0  0  0  0  0  0  0  0  0  0
   34.7950   31.6310   36.3510 C   0  0  0  0  0  0  0  0  0  0  0  0
   35.0610   32.6360   37.2070 N   0  0  0  0  0  0  0  0  0  0  0  0
   33.8930   33.1120   37.6130 N   0  0  0  0  0  0  0  0  0  0  0  0
   32.8760   32.4280   37.0320 C   0  0  0  0  0  0  0  0  0  0  0  0
   33.4420   31.4600   36.2060 C   0  0  0  0  0  0  0  0  0  0  0  0
   32.7890   30.5390   35.4240 C   0  0  0  0  0  0  0  0  0  0  0  0
   33.1630   28.9390   34.0610 H   0  0  0  0  0  0  0  0  0  0  0  0
   36.6710   30.8250   35.6620 H   0  0  0  0  0  0  0  0  0  0  0  0
   36.0340   32.9250   37.4520 H   0  0  0  0  0  0  0  0  0  0  0  0
   31.8050   32.6210   37.1970 H   0  0  0  0  0  0  0  0  0  0  0  0
   31.7310   30.4590   35.3560 H   0  0  0  0  0  0  0  0  0  0  0  0
  1 23  1  0  0  0  0
  2  1  2  0  0  0  0
  3  8  2  0  0  0  0
  3  4  1  0  0  0  0
  4  5  2  0  0  0  0
  5  6  1  0  0  0  0
  5 12  1  0  0  0  0
  7  1  1  0  0  0  0
  7  6  2  0  0  0  0
  8  7  1  0  0  0  0
  9  3  1  0  0  0  0
 10  4  1  0  0  0  0
 11 22  1  0  0  0  0
 12 11  2  0  0  0  0
 13 12  1  0  0  0  0
 13 15  2  0  0  0  0
 14 13  1  0  0  0  0
 15 21  1  0  0  0  0
 16 15  1  0  0  0  0
 16 18  1  0  0  0  0
 17 16  1  0  0  0  0
 18 19  1  0  0  0  0
 18 20  2  0  0  0  0
 21 22  2  0  0  0  0
 21 20  1  0  0  0  0
 23 27  1  0  0  0  0
 23 24  2  0  0  0  0
 24 28  1  0  0  0  0
 24 25  1  0  0  0  0
 25 29  1  0  0  0  0
 26 25  2  0  0  0  0
 26 31  1  0  0  0  0
 27 26  1  0  0  0  0
 30 31  2  0  0  0  0
 30 38  1  0  0  0  0
 31 32  1  0  0  0  0
 32 40  1  0  0  0  0
 32 33  2  0  0  0  0
 33 34  1  0  0  0  0
 34 41  1  0  0  0  0
 34 35  1  0  0  0  0
 36 42  1  0  0  0  0
 36 35  2  0  0  0  0
 37 33  1  0  0  0  0
 37 36  1  0  0  0  0
 38 37  2  0  0  0  0
 39 30  1  0  0  0  0
 43 38  1  0  0  0  0
M  END
>  <minimizedAffinity>
-7.34208012

$$$$

 OpenBabel03272508503D

 43 48  0  0  0  0  0  0  0  0999 V2000
   37.7690   27.1540   30.8770 C   0  0  0  0  0  0  0  0  0  0  0  0
   38.6910   27.3810   30.0680 O   0  0  0  0  0  0  0  0  0  0  0  0
   36.4570   23.7610   31.0800 C   0  0  0  0  0  0  0  0  0  0  0  0
   36.9570   23.3070   32.2910 C   0  0  0  0  0  0  0  0  0  0  0  0
   37.7400   24.1380   33.0510 C   0  0  0  0  0  0  0  0  0  0  0  0
   37.9990   25.3730   32.5950 N   0  0  0  0  0  0  0  0  0  0  0  0
   37.5040   25.8170   31.3990 C   0  0  0  0  0  0  0  0  0  0  0  0
   36.7310   24.9980   30.6480 N   0  0  0  0  0  0  0  0  0  0  0  0
   35.8480   23.0770   30.5180 H   0  0  0  0  0  0  0  0  0  0  0  0
   36.7370   22.3080   32.6430 H   0  0  0  0  0  0  0  0  0  0  0  0
   39.3670   22.8710   34.3390 C   0  0  0  0  0  3  0  0  0  0  0  0
   38.3130   23.7570   34.3360 C   0  0  0  0  0  0  0  0  0  0  0  0
   37.8900   24.2080   35.5520 C   0  0  0  0  0  0  0  0  0  0  0  0
   37.0630   24.9050   35.5810 H   0  0  0  0  0  0  0  0  0  0  0  0
   38.4370   23.8420   36.7570 C   0  0  0  0  0  0  0  0  0  0  0  0
   38.1380   24.1930   38.0230 N   0  0  0  0  0  0  0  0  0  0  0  0
   37.3820   24.8510   38.3080 H   0  0  0  0  0  0  0  0  0  0  0  0
   38.9770   23.5540   38.8550 C   0  0  0  0  0  0  0  0  0  0  0  0
   38.9390   23.6700   39.9330 H   0  0  0  0  0  0  0  0  0  0  0  0
   39.8230   22.7820   38.0840 C   0  0  0  0  0  3  0  0  0  0  0  0
   39.4880   22.9580   36.7450 C   0  0  0  0  0  0  0  0  0  0  0  0
   39.9500   22.4760   35.5380 C   0  0  0  0  0  3  0  0  0  0  0  0
   36.9390   28.2680   31.3030 C   0  0  0  0  0  0  0  0  0  0  0  0
   36.6030   29.3440   30.4800 C   0  0  0  0  0  0  0  0  0  0  0  0
   35.8130   30.1370   31.3120 C   0  0  0  0  0  0  0  0  0  0  0  0
   35.7110   29.5380   32.5430 C   0  0  0  0  0  0  0  0  0  0  0  0
   36.4000   28.4230   32.4880 O   0  0  0  0  0  0  0  0  0  0  0  0
   36.8830   29.5240   29.4460 H   0  0  0  0  0  0  0  0  0  0  0  0
   35.3500   31.0860   31.0260 H   0  0  0  0  0  0  0  0  0  0  0  0
   33.6530   29.6760   33.8640 C   0  0  0  0  0  0  0  0  0  0  0  0
   34.9790   30.0290   33.7000 C   0  0  0  0  0  0  0  0  0  0  0  0
   35.6380   30.8480   34.6190 C   0  0  0  0  0  0  0  0  0  0  0  0
   34.9530   31.3270   35.7320 C   0  0  0  0  0  0  0  0  0  0  0  0
   35.3000   32.1130   36.7680 N   0  0  0  0  0  0  0  0  0  0  0  0
   34.2260   32.2340   37.5330 N   0  0  0  0  0  0  0  0  0  0  0  0
   33.1890   31.5360   37.0060 C   0  0  0  0  0  0  0  0  0  0  0  0
   33.6420   30.9380   35.8330 C   0  0  0  0  0  0  0  0  0  0  0  0
   32.9330   30.1380   34.9720 C   0  0  0  0  0  0  0  0  0  0  0  0
   33.1430   29.0410   33.1520 H   0  0  0  0  0  0  0  0  0  0  0  0
   36.6760   31.1030   34.4560 H   0  0  0  0  0  0  0  0  0  0  0  0
   36.2580   32.5140   36.8760 H   0  0  0  0  0  0  0  0  0  0  0  0
   32.1810   31.4680   37.4440 H   0  0  0  0  0  0  0  0  0  0  0  0
   31.9120   29.8740   35.1090 H   0  0  0  0  0  0  0  0  0  0  0  0
  1 23  1  0  0  0  0
  1  7  1  0  0  0  0
  2  1  2  0  0  0  0
  3  4  1  0  0  0  0
  4 10  1  0  0  0  0
  4  5  2  0  0  0  0
  5 12  1  0  0  0  0
  6  5  1  0  0  0  0
  7  6  2  0  0  0  0
  8  3  2  0  0  0  0
  8  7  1  0  0  0  0
  9  3  1  0  0  0  0
 11 22  1  0  0  0  0
 12 11  2  0  0  0  0
 12 13  1  0  0  0  0
 13 14  1  0  0  0  0
 13 15  2  0  0  0  0
 15 16  1  0  0  0  0
 16 17  1  0  0  0  0
 16 18  1  0  0  0  0
 18 19  1  0  0  0  0
 20 18  2  0  0  0  0
 21 15  1  0  0  0  0
 21 20  1  0  0  0  0
 22 21  2  0  0  0  0
 23 27  1  0  0  0  0
 24 23  2  0  0  0  0
 24 25  1  0  0  0  0
 25 26  2  0  0  0  0
 26 31  1  0  0  0  0
 27 26  1  0  0  0  0
 28 24  1  0  0  0  0
 29 25  1  0  0  0  0
 30 38  1  0  0  0  0
 31 30  2  0  0  0  0
 31 32  1  0  0  0  0
 32 33  2  0  0  0  0
 33 37  1  0  0  0  0
 33 34  1  0  0  0  0
 34 41  1  0  0  0  0
 34 35  1  0  0  0  0
 36 42  1  0  0  0  0
 36 35  2  0  0  0  0
 37 36  1  0  0  0  0
 38 43  1  0  0  0  0
 38 37  2  0  0  0  0
 39 30  1  0  0  0  0
 40 32  1  0  0  0  0
M  END
>  <minimizedAffinity>
-6.99843931

$$$$

 OpenBabel03272508503D

 43 48  0  0  0  0  0  0  0  0999 V2000
   37.4930   26.9470   32.2470 C   0  0  0  0  0  0  0  0  0  0  0  0
   38.6580   26.7990   32.6670 O   0  0  0  0  0  0  0  0  0  0  0  0
   36.3940   30.0490   30.6810 C   0  0  0  0  0  0  0  0  0  0  0  0
   35.7690   30.7170   31.7230 C   0  0  0  0  0  0  0  0  0  0  0  0
   35.7120   30.1320   32.9610 C   0  0  0  0  0  0  0  0  0  0  0  0
   36.2660   28.9220   33.1280 N   0  0  0  0  0  0  0  0  0  0  0  0
   36.8820   28.2650   32.0970 C   0  0  0  0  0  0  0  0  0  0  0  0
   36.9390   28.8410   30.8730 N   0  0  0  0  0  0  0  0  0  0  0  0
   36.4160   30.5440   29.7270 H   0  0  0  0  0  0  0  0  0  0  0  0
   35.3270   31.6930   31.5700 H   0  0  0  0  0  0  0  0  0  0  0  0
   35.8680   31.0450   35.2090 C   0  0  0  0  0  3  0  0  0  0  0  0
   35.0790   30.7510   34.1190 C   0  0  0  0  0  0  0  0  0  0  0  0
   33.7560   31.0690   34.2180 C   0  0  0  0  0  0  0  0  0  0  0  0
   33.1120   30.8490   33.3770 H   0  0  0  0  0  0  0  0  0  0  0  0
   33.1700   31.6520   35.3150 C   0  0  0  0  0  0  0  0  0  0  0  0
   31.8990   32.0220   35.5640 N   0  0  0  0  0  0  0  0  0  0  0  0
   31.0960   31.9130   34.9080 H   0  0  0  0  0  0  0  0  0  0  0  0
   31.8400   32.5520   36.7960 C   0  0  0  0  0  0  0  0  0  0  0  0
   30.9200   32.9270   37.2330 H   0  0  0  0  0  0  0  0  0  0  0  0
   33.1120   32.5120   37.3300 C   0  0  0  0  0  3  0  0  0  0  0  0
   33.9680   31.9400   36.3940 C   0  0  0  0  0  0  0  0  0  0  0  0
   35.3130   31.6360   36.3390 C   0  0  0  0  0  3  0  0  0  0  0  0
   36.7310   25.7600   31.8990 C   0  0  0  0  0  0  0  0  0  0  0  0
   35.4800   25.7940   31.2800 C   0  0  0  0  0  0  0  0  0  0  0  0
   35.1590   24.4430   31.1540 C   0  0  0  0  0  0  0  0  0  0  0  0
   36.1770   23.6860   31.6780 C   0  0  0  0  0  0  0  0  0  0  0  0
   37.0940   24.5170   32.1110 O   0  0  0  0  0  0  0  0  0  0  0  0
   34.8980   26.6560   30.9690 H   0  0  0  0  0  0  0  0  0  0  0  0
   34.2390   24.0520   30.7090 H   0  0  0  0  0  0  0  0  0  0  0  0
   35.0850   21.5110   31.9530 C   0  0  0  0  0  0  0  0  0  0  0  0
   36.2450   22.2340   31.7480 C   0  0  0  0  0  0  0  0  0  0  0  0
   37.4840   21.6070   31.6070 C   0  0  0  0  0  0  0  0  0  0  0  0
   37.5670   20.2190   31.6710 C   0  0  0  0  0  0  0  0  0  0  0  0
   38.5850   19.3450   31.5740 N   0  0  0  0  0  0  0  0  0  0  0  0
   38.0650   18.1350   31.7150 N   0  0  0  0  0  0  0  0  0  0  0  0
   36.7240   18.2150   31.9010 C   0  0  0  0  0  0  0  0  0  0  0  0
   36.3790   19.5640   31.8760 C   0  0  0  0  0  0  0  0  0  0  0  0
   35.1290   20.1130   32.0230 C   0  0  0  0  0  0  0  0  0  0  0  0
   34.1250   21.9970   32.0620 H   0  0  0  0  0  0  0  0  0  0  0  0
   38.3690   22.2070   31.4480 H   0  0  0  0  0  0  0  0  0  0  0  0
   39.5730   19.6440   31.4180 H   0  0  0  0  0  0  0  0  0  0  0  0
   36.0490   17.3560   32.0440 H   0  0  0  0  0  0  0  0  0  0  0  0
   34.2440   19.5450   32.1800 H   0  0  0  0  0  0  0  0  0  0  0  0
  1  2  2  0  0  0  0
  3  8  2  0  0  0  0
  3  4  1  0  0  0  0
  4  5  2  0  0  0  0
  5  6  1  0  0  0  0
  5 12  1  0  0  0  0
  7  1  1  0  0  0  0
  7  6  2  0  0  0  0
  8  7  1  0  0  0  0
  9  3  1  0  0  0  0
 10  4  1  0  0  0  0
 11 22  1  0  0  0  0
 12 13  1  0  0  0  0
 12 11  2  0  0  0  0
 13 15  2  0  0  0  0
 14 13  1  0  0  0  0
 15 16  1  0  0  0  0
 15 21  1  0  0  0  0
 16 18  1  0  0  0  0
 17 16  1  0  0  0  0
 18 19  1  0  0  0  0
 18 20  2  0  0  0  0
 21 20  1  0  0  0  0
 22 21  2  0  0  0  0
 23 27  1  0  0  0  0
 23  1  1  0  0  0  0
 24 23  2  0  0  0  0
 25 24  1  0  0  0  0
 25 26  2  0  0  0  0
 26 31  1  0  0  0  0
 26 27  1  0  0  0  0
 28 24  1  0  0  0  0
 29 25  1  0  0  0  0
 30 38  1  0  0  0  0
 30 39  1  0  0  0  0
 31 30  2  0  0  0  0
 32 33  2  0  0  0  0
 32 31  1  0  0  0  0
 33 37  1  0  0  0  0
 34 33  1  0  0  0  0
 34 35  1  0  0  0  0
 35 36  2  0  0  0  0
 36 42  1  0  0  0  0
 37 36  1  0  0  0  0
 37 38  2  0  0  0  0
 38 43  1  0  0  0  0
 40 32  1  0  0  0  0
 41 34  1  0  0  0  0
M  END
>  <minimizedAffinity>
-6.96971416

$$$$

 OpenBabel03272508503D

 43 48  0  0  0  0  0  0  0  0999 V2000
   38.5450   26.5850   34.7190 C   0  0  0  0  0  0  0  0  0  0  0  0
   39.5870   27.0430   35.2280 O   0  0  0  0  0  0  0  0  0  0  0  0
   36.4710   28.0290   32.0930 C   0  0  0  0  0  0  0  0  0  0  0  0
   35.7320   28.9860   32.7730 C   0  0  0  0  0  0  0  0  0  0  0  0
   35.9250   29.1550   34.1200 C   0  0  0  0  0  0  0  0  0  0  0  0
   36.8280   28.3830   34.7430 N   0  0  0  0  0  0  0  0  0  0  0  0
   37.5560   27.4400   34.0690 C   0  0  0  0  0  0  0  0  0  0  0  0
   37.3670   27.2720   32.7390 N   0  0  0  0  0  0  0  0  0  0  0  0
   36.2890   27.9310   31.0390 H   0  0  0  0  0  0  0  0  0  0  0  0
   35.0080   29.5990   32.2540 H   0  0  0  0  0  0  0  0  0  0  0  0
   35.9310   31.0210   35.6780 C   0  0  0  0  0  3  0  0  0  0  0  0
   35.2000   30.1310   34.9240 C   0  0  0  0  0  0  0  0  0  0  0  0
   33.8420   30.2400   34.9940 C   0  0  0  0  0  0  0  0  0  0  0  0
   33.2410   29.5540   34.4130 H   0  0  0  0  0  0  0  0  0  0  0  0
   33.1690   31.1640   35.7560 C   0  0  0  0  0  0  0  0  0  0  0  0
   31.8530   31.3970   35.9300 N   0  0  0  0  0  0  0  0  0  0  0  0
   31.0780   30.8680   35.4770 H   0  0  0  0  0  0  0  0  0  0  0  0
   31.7090   32.4230   36.7850 C   0  0  0  0  0  0  0  0  0  0  0  0
   30.7400   32.8050   37.0900 H   0  0  0  0  0  0  0  0  0  0  0  0
   32.9720   32.8410   37.1530 C   0  0  0  0  0  3  0  0  0  0  0  0
   33.9100   32.0450   36.5030 C   0  0  0  0  0  0  0  0  0  0  0  0
   35.2880   31.9720   36.4620 C   0  0  0  0  0  3  0  0  0  0  0  0
   38.3200   25.1500   34.7850 C   0  0  0  0  0  0  0  0  0  0  0  0
   38.5160   24.3860   35.9360 C   0  0  0  0  0  0  0  0  0  0  0  0
   38.1800   23.1000   35.5170 C   0  0  0  0  0  0  0  0  0  0  0  0
   37.8150   23.1370   34.1940 C   0  0  0  0  0  0  0  0  0  0  0  0
   37.9140   24.3850   33.8010 O   0  0  0  0  0  0  0  0  0  0  0  0
   38.8460   24.7090   36.9190 H   0  0  0  0  0  0  0  0  0  0  0  0
   38.2050   22.2040   36.1450 H   0  0  0  0  0  0  0  0  0  0  0  0
   37.9050   21.8860   32.0910 C   0  0  0  0  0  0  0  0  0  0  0  0
   37.3920   22.0170   33.3680 C   0  0  0  0  0  0  0  0  0  0  0  0
   36.4780   21.1000   33.8870 C   0  0  0  0  0  0  0  0  0  0  0  0
   36.0630   20.0220   33.1110 C   0  0  0  0  0  0  0  0  0  0  0  0
   35.2160   18.9970   33.3210 N   0  0  0  0  0  0  0  0  0  0  0  0
   35.2140   18.2690   32.2140 N   0  0  0  0  0  0  0  0  0  0  0  0
   36.0480   18.8100   31.2920 C   0  0  0  0  0  0  0  0  0  0  0  0
   36.6100   19.9520   31.8550 C   0  0  0  0  0  0  0  0  0  0  0  0
   37.5120   20.8140   31.2810 C   0  0  0  0  0  0  0  0  0  0  0  0
   38.6150   22.5960   31.6880 H   0  0  0  0  0  0  0  0  0  0  0  0
   36.0980   21.2370   34.8900 H   0  0  0  0  0  0  0  0  0  0  0  0
   34.6960   18.8700   34.2180 H   0  0  0  0  0  0  0  0  0  0  0  0
   36.2310   18.4020   30.2850 H   0  0  0  0  0  0  0  0  0  0  0  0
   37.8990   20.7010   30.2960 H   0  0  0  0  0  0  0  0  0  0  0  0
  1 23  1  0  0  0  0
  1  2  2  0  0  0  0
  3  8  2  0  0  0  0
  3  4  1  0  0  0  0
  4  5  2  0  0  0  0
  5  6  1  0  0  0  0
  5 12  1  0  0  0  0
  7  1  1  0  0  0  0
  7  6  2  0  0  0  0
  8  7  1  0  0  0  0
  9  3  1  0  0  0  0
 10  4  1  0  0  0  0
 11 22  1  0  0  0  0
 12 13  1  0  0  0  0
 12 11  2  0  0  0  0
 13 15  2  0  0  0  0
 14 13  1  0  0  0  0
 15 16  1  0  0  0  0
 15 21  1  0  0  0  0
 16 18  1  0  0  0  0
 17 16  1  0  0  0  0
 18 19  1  0  0  0  0
 18 20  2  0  0  0  0
 21 20  1  0  0  0  0
 22 21  2  0  0  0  0
 23 24  2  0  0  0  0
 24 28  1  0  0  0  0
 25 24  1  0  0  0  0
 25 29  1  0  0  0  0
 26 25  2  0  0  0  0
 27 26  1  0  0  0  0
 27 23  1  0  0  0  0
 30 31  1  0  0  0  0
 31 32  2  0  0  0  0
 31 26  1  0  0  0  0
 32 40  1  0  0  0  0
 33 34  1  0  0  0  0
 33 32  1  0  0  0  0
 34 41  1  0  0  0  0
 35 34  1  0  0  0  0
 36 37  1  0  0  0  0
 36 35  2  0  0  0  0
 37 33  2  0  0  0  0
 38 37  1  0  0  0  0
 38 30  2  0  0  0  0
 39 30  1  0  0  0  0
 42 36  1  0  0  0  0
 43 38  1  0  0  0  0
M  END
>  <minimizedAffinity>
-6.95932055

$$$$

 OpenBabel03272508503D

 43 48  0  0  0  0  0  0  0  0999 V2000
   35.3990   25.3200   31.0100 C   0  0  0  0  0  0  0  0  0  0  0  0
   34.3970   25.3210   30.2680 O   0  0  0  0  0  0  0  0  0  0  0  0
   35.8770   21.7630   31.6420 C   0  0  0  0  0  0  0  0  0  0  0  0
   36.9180   21.7480   32.5580 C   0  0  0  0  0  0  0  0  0  0  0  0
   37.4680   22.9330   32.9720 C   0  0  0  0  0  0  0  0  0  0  0  0
   36.9790   24.0790   32.4740 N   0  0  0  0  0  0  0  0  0  0  0  0
   35.9520   24.0900   31.5700 C   0  0  0  0  0  0  0  0  0  0  0  0
   35.4070   22.9210   31.1600 N   0  0  0  0  0  0  0  0  0  0  0  0
   35.4750   20.8120   31.3450 H   0  0  0  0  0  0  0  0  0  0  0  0
   37.2990   20.8140   32.9480 H   0  0  0  0  0  0  0  0  0  0  0  0
   39.5000   24.0180   33.7500 C   0  0  0  0  0  3  0  0  0  0  0  0
   38.5640   23.0240   33.9290 C   0  0  0  0  0  0  0  0  0  0  0  0
   38.7430   22.2010   35.0020 C   0  0  0  0  0  0  0  0  0  0  0  0
   38.0230   21.4110   35.1680 H   0  0  0  0  0  0  0  0  0  0  0  0
   39.7800   22.2960   35.8980 C   0  0  0  0  0  0  0  0  0  0  0  0
   40.0920   21.5710   36.9900 N   0  0  0  0  0  0  0  0  0  0  0  0
   39.5510   20.7580   37.3550 H   0  0  0  0  0  0  0  0  0  0  0  0
   41.2160   22.0710   37.5300 C   0  0  0  0  0  0  0  0  0  0  0  0
   41.6750   21.6590   38.4220 H   0  0  0  0  0  0  0  0  0  0  0  0
   41.6140   23.1390   36.7500 C   0  0  0  0  0  3  0  0  0  0  0  0
   40.7060   23.2910   35.7070 C   0  0  0  0  0  0  0  0  0  0  0  0
   40.5640   24.1480   34.6360 C   0  0  0  0  0  3  0  0  0  0  0  0
   36.0260   26.5940   31.3210 C   0  0  0  0  0  0  0  0  0  0  0  0
   37.3030   26.9560   30.8890 C   0  0  0  0  0  0  0  0  0  0  0  0
   37.4610   28.2340   31.4230 C   0  0  0  0  0  0  0  0  0  0  0  0
   36.3300   28.5740   32.1230 C   0  0  0  0  0  0  0  0  0  0  0  0
   35.5010   27.5620   32.0320 O   0  0  0  0  0  0  0  0  0  0  0  0
   38.0040   26.3880   30.2840 H   0  0  0  0  0  0  0  0  0  0  0  0
   38.3480   28.8630   31.3030 H   0  0  0  0  0  0  0  0  0  0  0  0
   36.0620   31.0080   32.1330 C   0  0  0  0  0  0  0  0  0  0  0  0
   36.0790   29.8180   32.8350 C   0  0  0  0  0  0  0  0  0  0  0  0
   35.8620   29.7770   34.2130 C   0  0  0  0  0  0  0  0  0  0  0  0
   35.6210   30.9570   34.9100 C   0  0  0  0  0  0  0  0  0  0  0  0
   35.3810   31.2380   36.2040 N   0  0  0  0  0  0  0  0  0  0  0  0
   35.2240   32.5510   36.2870 N   0  0  0  0  0  0  0  0  0  0  0  0
   35.3580   33.1210   35.0640 C   0  0  0  0  0  0  0  0  0  0  0  0
   35.6170   32.1010   34.1530 C   0  0  0  0  0  0  0  0  0  0  0  0
   35.8210   32.2160   32.8000 C   0  0  0  0  0  0  0  0  0  0  0  0
   36.2290   31.0410   31.0650 H   0  0  0  0  0  0  0  0  0  0  0  0
   35.8840   28.8260   34.7270 H   0  0  0  0  0  0  0  0  0  0  0  0
   35.3430   30.5020   36.9440 H   0  0  0  0  0  0  0  0  0  0  0  0
   35.2740   34.1990   34.8530 H   0  0  0  0  0  0  0  0  0  0  0  0
   35.8050   33.1390   32.2720 H   0  0  0  0  0  0  0  0  0  0  0  0
  1 23  1  0  0  0  0
  1  7  1  0  0  0  0
  2  1  2  0  0  0  0
  3  4  1  0  0  0  0
  4 10  1  0  0  0  0
  4  5  2  0  0  0  0
  5 12  1  0  0  0  0
  6  5  1  0  0  0  0
  7  6  2  0  0  0  0
  8  7  1  0  0  0  0
  8  3  2  0  0  0  0
  9  3  1  0  0  0  0
 11 12  2  0  0  0  0
 11 22  1  0  0  0  0
 12 13  1  0  0  0  0
 13 14  1  0  0  0  0
 13 15  2  0  0  0  0
 15 16  1  0  0  0  0
 16 17  1  0  0  0  0
 16 18  1  0  0  0  0
 18 19  1  0  0  0  0
 20 18  2  0  0  0  0
 21 15  1  0  0  0  0
 21 20  1  0  0  0  0
 22 21  2  0  0  0  0
 23 27  1  0  0  0  0
 24 23  2  0  0  0  0
 24 25  1  0  0  0  0
 25 26  2  0  0  0  0
 26 31  1  0  0  0  0
 27 26  1  0  0  0  0
 28 24  1  0  0  0  0
 29 25  1  0  0  0  0
 30 38  2  0  0  0  0
 30 31  1  0  0  0  0
 31 32  2  0  0  0  0
 32 40  1  0  0  0  0
 32 33  1  0  0  0  0
 33 34  1  0  0  0  0
 34 35  1  0  0  0  0
 34 41  1  0  0  0  0
 36 35  2  0  0  0  0
 37 33  2  0  0  0  0
 37 36  1  0  0  0  0
 38 37  1  0  0  0  0
 39 30  1  0  0  0  0
 42 36  1  0  0  0  0
 43 38  1  0  0  0  0
M  END
>  <minimizedAffinity>
-6.95279455

$$$$

 OpenBabel03272508503D

 43 48  0  0  0  0  0  0  0  0999 V2000
   37.9350   26.6740   34.9730 C   0  0  0  0  0  0  0  0  0  0  0  0
   37.9350   27.7500   35.6040 O   0  0  0  0  0  0  0  0  0  0  0  0
   36.4850   25.2360   31.9550 C   0  0  0  0  0  0  0  0  0  0  0  0
   36.4990   26.3010   31.0670 C   0  0  0  0  0  0  0  0  0  0  0  0
   36.9970   27.5120   31.4740 C   0  0  0  0  0  0  0  0  0  0  0  0
   37.4580   27.6300   32.7280 N   0  0  0  0  0  0  0  0  0  0  0  0
   37.4420   26.5770   33.6020 C   0  0  0  0  0  0  0  0  0  0  0  0
   36.9510   25.3810   33.2020 N   0  0  0  0  0  0  0  0  0  0  0  0
   36.0860   24.3060   31.5940 H   0  0  0  0  0  0  0  0  0  0  0  0
   36.1230   26.1880   30.0580 H   0  0  0  0  0  0  0  0  0  0  0  0
   36.5160   29.8640   31.0940 C   0  0  0  0  0  3  0  0  0  0  0  0
   37.0560   28.6910   30.6180 C   0  0  0  0  0  0  0  0  0  0  0  0
   37.6070   28.7320   29.3710 C   0  0  0  0  0  0  0  0  0  0  0  0
   38.0390   27.8240   28.9710 H   0  0  0  0  0  0  0  0  0  0  0  0
   37.6570   29.8480   28.5730 C   0  0  0  0  0  0  0  0  0  0  0  0
   38.1590   30.0480   27.3380 N   0  0  0  0  0  0  0  0  0  0  0  0
   38.6250   29.3270   26.7480 H   0  0  0  0  0  0  0  0  0  0  0  0
   37.9580   31.3310   26.9960 C   0  0  0  0  0  0  0  0  0  0  0  0
   38.2730   31.7430   26.0430 H   0  0  0  0  0  0  0  0  0  0  0  0
   37.3120   31.9480   28.0490 C   0  0  0  0  0  3  0  0  0  0  0  0
   37.1160   31.0120   29.0590 C   0  0  0  0  0  0  0  0  0  0  0  0
   36.5470   31.0180   30.3170 C   0  0  0  0  0  3  0  0  0  0  0  0
   38.4440   25.4870   35.6380 C   0  0  0  0  0  0  0  0  0  0  0  0
   37.8100   24.8700   36.7180 C   0  0  0  0  0  0  0  0  0  0  0  0
   38.6540   23.7980   37.0040 C   0  0  0  0  0  0  0  0  0  0  0  0
   39.7120   23.8110   36.1290 C   0  0  0  0  0  0  0  0  0  0  0  0
   39.5420   24.8390   35.3320 O   0  0  0  0  0  0  0  0  0  0  0  0
   36.8860   25.1500   37.2160 H   0  0  0  0  0  0  0  0  0  0  0  0
   38.4960   23.0650   37.8000 H   0  0  0  0  0  0  0  0  0  0  0  0
   41.7060   22.9230   35.0170 C   0  0  0  0  0  0  0  0  0  0  0  0
   40.8220   22.8710   36.0790 C   0  0  0  0  0  0  0  0  0  0  0  0
   40.9650   21.9380   37.1070 C   0  0  0  0  0  0  0  0  0  0  0  0
   42.0200   21.0320   37.0750 C   0  0  0  0  0  0  0  0  0  0  0  0
   42.4170   20.0400   37.8930 N   0  0  0  0  0  0  0  0  0  0  0  0
   43.5020   19.5070   37.3510 N   0  0  0  0  0  0  0  0  0  0  0  0
   43.8120   20.1420   36.1930 C   0  0  0  0  0  0  0  0  0  0  0  0
   42.8590   21.1380   35.9950 C   0  0  0  0  0  0  0  0  0  0  0  0
   42.7800   22.0270   34.9520 C   0  0  0  0  0  0  0  0  0  0  0  0
   41.5950   23.6460   34.2210 H   0  0  0  0  0  0  0  0  0  0  0  0
   40.2530   21.9290   37.9200 H   0  0  0  0  0  0  0  0  0  0  0  0
   41.9100   19.7970   38.7730 H   0  0  0  0  0  0  0  0  0  0  0  0
   44.6670   19.8970   35.5430 H   0  0  0  0  0  0  0  0  0  0  0  0
   43.4670   22.0560   34.1400 H   0  0  0  0  0  0  0  0  0  0  0  0
  1  2  2  0  0  0  0
  1 23  1  0  0  0  0
  3  8  1  0  0  0  0
  4  5  1  0  0  0  0
  4  3  2  0  0  0  0
  5  6  2  0  0  0  0
  6  7  1  0  0  0  0
  7  1  1  0  0  0  0
  8  7  2  0  0  0  0
  9  3  1  0  0  0  0
 10  4  1  0  0  0  0
 12 11  1  0  0  0  0
 12  5  1  0  0  0  0
 13 12  2  0  0  0  0
 14 13  1  0  0  0  0
 15 21  2  0  0  0  0
 15 13  1  0  0  0  0
 16 15  1  0  0  0  0
 17 16  1  0  0  0  0
 18 16  1  0  0  0  0
 18 20  2  0  0  0  0
 19 18  1  0  0  0  0
 20 21  1  0  0  0  0
 21 22  1  0  0  0  0
 22 11  2  0  0  0  0
 23 24  2  0  0  0  0
 24 25  1  0  0  0  0
 24 28  1  0  0  0  0
 25 29  1  0  0  0  0
 26 25  2  0  0  0  0
 27 23  1  0  0  0  0
 27 26  1  0  0  0  0
 30 31  1  0  0  0  0
 31 26  1  0  0  0  0
 31 32  2  0  0  0  0
 32 40  1  0  0  0  0
 33 32  1  0  0  0  0
 33 34  1  0  0  0  0
 34 41  1  0  0  0  0
 35 34  1  0  0  0  0
 36 35  2  0  0  0  0
 37 36  1  0  0  0  0
 37 33  2  0  0  0  0
 38 30  2  0  0  0  0
 38 37  1  0  0  0  0
 39 30  1  0  0  0  0
 42 36  1  0  0  0  0
 43 38  1  0  0  0  0
M  END
>  <minimizedAffinity>
-6.8894825

$$$$

 OpenBabel03272508503D

 43 48  0  0  0  0  0  0  0  0999 V2000
   37.3000   29.1400   30.2040 C   0  0  0  0  0  0  0  0  0  0  0  0
   37.1220   28.9530   28.9830 O   0  0  0  0  0  0  0  0  0  0  0  0
   37.1210   32.7350   30.7700 C   0  0  0  0  0  0  0  0  0  0  0  0
   36.4480   32.8250   31.9790 C   0  0  0  0  0  0  0  0  0  0  0  0
   36.0490   31.6780   32.6150 C   0  0  0  0  0  0  0  0  0  0  0  0
   36.3230   30.4960   32.0440 N   0  0  0  0  0  0  0  0  0  0  0  0
   36.9880   30.4100   30.8500 C   0  0  0  0  0  0  0  0  0  0  0  0
   37.3830   31.5420   30.2210 N   0  0  0  0  0  0  0  0  0  0  0  0
   37.4160   33.6580   30.3060 H   0  0  0  0  0  0  0  0  0  0  0  0
   36.2350   33.7880   32.4250 H   0  0  0  0  0  0  0  0  0  0  0  0
   35.9130   32.3090   34.9590 C   0  0  0  0  0  3  0  0  0  0  0  0
   35.3370   31.6660   33.8870 C   0  0  0  0  0  0  0  0  0  0  0  0
   34.1320   31.0640   34.1100 C   0  0  0  0  0  0  0  0  0  0  0  0
   33.6550   30.5510   33.2850 H   0  0  0  0  0  0  0  0  0  0  0  0
   33.4700   31.0580   35.3130 C   0  0  0  0  0  0  0  0  0  0  0  0
   32.2940   30.5180   35.6880 N   0  0  0  0  0  0  0  0  0  0  0  0
   31.6510   29.9760   35.0720 H   0  0  0  0  0  0  0  0  0  0  0  0
   32.0900   30.7960   36.9860 C   0  0  0  0  0  0  0  0  0  0  0  0
   31.2080   30.4680   37.5270 H   0  0  0  0  0  0  0  0  0  0  0  0
   33.1700   31.5300   37.4320 C   0  0  0  0  0  3  0  0  0  0  0  0
   34.0570   31.7030   36.3730 C   0  0  0  0  0  0  0  0  0  0  0  0
   35.2750   32.3260   36.1950 C   0  0  0  0  0  3  0  0  0  0  0  0
   37.8380   28.0450   30.9950 C   0  0  0  0  0  0  0  0  0  0  0  0
   38.6880   27.0630   30.4850 C   0  0  0  0  0  0  0  0  0  0  0  0
   38.9280   26.2530   31.5940 C   0  0  0  0  0  0  0  0  0  0  0  0
   38.2460   26.7530   32.6750 C   0  0  0  0  0  0  0  0  0  0  0  0
   37.6090   27.8250   32.2680 O   0  0  0  0  0  0  0  0  0  0  0  0
   39.0720   26.9530   29.4750 H   0  0  0  0  0  0  0  0  0  0  0  0
   39.5610   25.3600   31.5980 H   0  0  0  0  0  0  0  0  0  0  0  0
   38.2240   27.0780   35.1020 C   0  0  0  0  0  0  0  0  0  0  0  0
   38.2220   26.2120   34.0250 C   0  0  0  0  0  0  0  0  0  0  0  0
   38.1980   24.8280   34.1990 C   0  0  0  0  0  0  0  0  0  0  0  0
   38.1750   24.2930   35.4830 C   0  0  0  0  0  0  0  0  0  0  0  0
   38.1490   23.0360   35.9660 N   0  0  0  0  0  0  0  0  0  0  0  0
   38.1360   23.1340   37.2870 N   0  0  0  0  0  0  0  0  0  0  0  0
   38.1530   24.4370   37.6650 C   0  0  0  0  0  0  0  0  0  0  0  0
   38.1790   25.2080   36.5050 C   0  0  0  0  0  0  0  0  0  0  0  0
   38.2010   26.5770   36.4090 C   0  0  0  0  0  0  0  0  0  0  0  0
   38.2430   28.1520   34.9680 H   0  0  0  0  0  0  0  0  0  0  0  0
   38.1970   24.1820   33.3310 H   0  0  0  0  0  0  0  0  0  0  0  0
   38.1420   22.1950   35.3480 H   0  0  0  0  0  0  0  0  0  0  0  0
   38.1470   24.7970   38.7060 H   0  0  0  0  0  0  0  0  0  0  0  0
   38.2030   27.2330   37.2460 H   0  0  0  0  0  0  0  0  0  0  0  0
  1  7  1  0  0  0  0
  1 23  1  0  0  0  0
  2  1  2  0  0  0  0
  3  4  1  0  0  0  0
  4 10  1  0  0  0  0
  4  5  2  0  0  0  0
  5 12  1  0  0  0  0
  6  5  1  0  0  0  0
  7  6  2  0  0  0  0
  8  3  2  0  0  0  0
  8  7  1  0  0  0  0
  9  3  1  0  0  0  0
 11 22  1  0  0  0  0
 12 13  1  0  0  0  0
 12 11  2  0  0  0  0
 13 15  2  0  0  0  0
 14 13  1  0  0  0  0
 15 16  1  0  0  0  0
 15 21  1  0  0  0  0
 16 18  1  0  0  0  0
 17 16  1  0  0  0  0
 18 20  2  0  0  0  0
 18 19  1  0  0  0  0
 21 20  1  0  0  0  0
 22 21  2  0  0  0  0
 23 27  1  0  0  0  0
 24 23  2  0  0  0  0
 24 25  1  0  0  0  0
 25 29  1  0  0  0  0
 25 26  2  0  0  0  0
 26 31  1  0  0  0  0
 27 26  1  0  0  0  0
 28 24  1  0  0  0  0
 30 38  1  0  0  0  0
 31 32  1  0  0  0  0
 31 30  2  0  0  0  0
 32 33  2  0  0  0  0
 33 34  1  0  0  0  0
 33 37  1  0  0  0  0
 34 35  1  0  0  0  0
 35 36  2  0  0  0  0
 36 42  1  0  0  0  0
 37 36  1  0  0  0  0
 38 37  2  0  0  0  0
 38 43  1  0  0  0  0
 39 30  1  0  0  0  0
 40 32  1  0  0  0  0
 41 34  1  0  0  0  0
M  END
>  <minimizedAffinity>
-6.8764143

$$$$
