
 OpenBabel03272508463D

 43 48  0  0  0  0  0  0  0  0999 V2000
   34.2190   29.3280   49.8580 C   0  0  0  0  0  0  0  0  0  0  0  0
   33.6280   29.6340   50.9120 O   0  0  0  0  0  0  0  0  0  0  0  0
   31.7660   27.2260   48.1710 C   0  0  0  0  0  0  0  0  0  0  0  0
   32.3050   27.0790   46.9020 C   0  0  0  0  0  0  0  0  0  0  0  0
   33.4980   27.6830   46.6020 C   0  0  0  0  0  0  0  0  0  0  0  0
   34.1110   28.4050   47.5520 N   0  0  0  0  0  0  0  0  0  0  0  0
   33.5760   28.5490   48.8040 C   0  0  0  0  0  0  0  0  0  0  0  0
   32.3990   27.9520   49.1020 N   0  0  0  0  0  0  0  0  0  0  0  0
   30.8300   26.7350   48.3640 H   0  0  0  0  0  0  0  0  0  0  0  0
   31.7960   26.4930   46.1480 H   0  0  0  0  0  0  0  0  0  0  0  0
   34.2280   26.3510   44.7040 C   0  0  0  0  0  0  0  0  0  0  0  0
   34.1460   27.5900   45.3000 C   0  0  0  0  0  0  0  0  0  0  0  0
   34.6870   28.6360   44.6110 C   0  0  0  0  0  0  0  0  0  0  0  0
   34.6370   29.6220   45.0550 H   0  0  0  0  0  0  0  0  0  0  0  0
   35.2960   28.5370   43.3850 C   0  0  0  0  0  0  0  0  0  0  0  0
   35.8690   29.4610   42.5890 N   0  0  0  0  0  0  0  0  0  0  0  0
   35.9460   30.4790   42.7980 H   0  0  0  0  0  0  0  0  0  0  0  0
   36.3250   28.8500   41.4830 C   0  0  0  0  0  0  0  0  0  0  0  0
   36.8300   29.3810   40.6830 H   0  0  0  0  0  0  0  0  0  0  0  0
   36.0260   27.5070   41.5930 C   0  0  0  0  0  0  0  0  0  0  0  0
   35.3700   27.2960   42.8020 C   0  0  0  0  0  0  0  0  0  0  0  0
   34.8370   26.2080   43.4610 C   0  0  0  0  0  0  0  0  0  0  0  0
   35.5940   29.7670   49.6870 C   0  0  0  0  0  0  0  0  0  0  0  0
   36.5650   29.6840   50.6870 C   0  0  0  0  0  0  0  0  0  0  0  0
   37.6960   30.2150   50.0670 C   0  0  0  0  0  0  0  0  0  0  0  0
   37.3770   30.5800   48.7830 C   0  0  0  0  0  0  0  0  0  0  0  0
   36.1100   30.2930   48.6020 O   0  0  0  0  0  0  0  0  0  0  0  0
   36.4690   29.3010   51.6980 H   0  0  0  0  0  0  0  0  0  0  0  0
   38.6790   30.3220   50.5340 H   0  0  0  0  0  0  0  0  0  0  0  0
   38.7540   32.4490   48.0020 C   0  0  0  0  0  0  0  0  0  0  0  0
   38.2630   31.1740   47.7930 C   0  0  0  0  0  0  0  0  0  0  0  0
   38.5970   30.4380   46.6550 C   0  0  0  0  0  0  0  0  0  0  0  0
   39.4430   30.9910   45.6990 C   0  0  0  0  0  0  0  0  0  0  0  0
   39.9370   30.5460   44.5280 N   0  0  0  0  0  0  0  0  0  0  0  0
   40.6990   31.5140   44.0430 N   0  0  0  0  0  0  0  0  0  0  0  0
   40.7050   32.5780   44.8840 C   0  0  0  0  0  0  0  0  0  0  0  0
   39.8930   32.2580   45.9680 C   0  0  0  0  0  0  0  0  0  0  0  0
   39.6090   33.0370   47.0620 C   0  0  0  0  0  0  0  0  0  0  0  0
   38.4960   33.0190   48.8850 H   0  0  0  0  0  0  0  0  0  0  0  0
   38.1920   29.4440   46.5270 H   0  0  0  0  0  0  0  0  0  0  0  0
   39.7130   29.6020   44.1430 H   0  0  0  0  0  0  0  0  0  0  0  0
   41.2590   33.5160   44.7180 H   0  0  0  0  0  0  0  0  0  0  0  0
   39.9930   34.0180   47.2110 H   0  0  0  0  0  0  0  0  0  0  0  0
  1  2  2  0  0  0  0
  3  9  1  0  0  0  0
  3  8  1  0  0  0  0
  4  3  2  0  0  0  0
  5  4  1  0  0  0  0
  5  6  2  0  0  0  0
  6  7  1  0  0  0  0
  7  8  2  0  0  0  0
  7  1  1  0  0  0  0
 10  4  1  0  0  0  0
 11 12  1  0  0  0  0
 12  5  1  0  0  0  0
 13 14  1  0  0  0  0
 13 12  2  0  0  0  0
 15 13  1  0  0  0  0
 16 17  1  0  0  0  0
 16 15  1  0  0  0  0
 18 20  2  0  0  0  0
 18 16  1  0  0  0  0
 19 18  1  0  0  0  0
 20 21  1  0  0  0  0
 21 15  2  0  0  0  0
 21 22  1  0  0  0  0
 22 11  2  0  0  0  0
 23  1  1  0  0  0  0
 23 24  2  0  0  0  0
 24 28  1  0  0  0  0
 25 29  1  0  0  0  0
 25 24  1  0  0  0  0
 26 25  2  0  0  0  0
 27 26  1  0  0  0  0
 27 23  1  0  0  0  0
 30 39  1  0  0  0  0
 31 30  1  0  0  0  0
 31 26  1  0  0  0  0
 32 31  2  0  0  0  0
 33 37  2  0  0  0  0
 33 32  1  0  0  0  0
 34 33  1  0  0  0  0
 35 34  1  0  0  0  0
 35 36  2  0  0  0  0
 36 37  1  0  0  0  0
 37 38  1  0  0  0  0
 38 43  1  0  0  0  0
 38 30  2  0  0  0  0
 40 32  1  0  0  0  0
 41 34  1  0  0  0  0
 42 36  1  0  0  0  0
M  END
>  <minimizedAffinity>
-6.87847948

>  <minimizedRMSD>
2.35107636

$$$$
