
 OpenBabel03272510133D

 44 48  0  0  0  0  0  0  0  0999 V2000
   38.4390   31.6860   48.9120 C   0  0  0  0  0  0  0  0  0  0  0  0
   38.5740   32.9310   49.4880 C   0  0  0  0  0  0  0  0  0  0  0  0
   39.1890   33.7570   48.5520 C   0  0  0  0  0  0  0  0  0  0  0  0
   39.4080   33.0240   47.4660 N   0  0  0  0  0  0  0  0  0  0  0  0
   38.9680   31.8360   47.6970 N   0  0  0  0  0  0  0  0  0  0  0  0
   38.3240   33.3790   50.4420 H   0  0  0  0  0  0  0  0  0  0  0  0
   39.4730   34.8040   48.6070 H   0  0  0  0  0  0  0  0  0  0  0  0
   40.0410   33.4350   46.2440 C   0  0  0  0  0  0  0  0  0  0  0  0
   40.9300   34.0620   46.5520 H   0  0  0  0  0  0  0  0  0  0  0  0
   39.4190   34.1230   45.6470 H   0  0  0  0  0  0  0  0  0  0  0  0
   40.5310   32.2510   45.4910 C   0  0  0  0  0  0  0  0  0  0  0  0
   40.7970   31.3990   46.1990 H   0  0  0  0  0  0  0  0  0  0  0  0
   41.4920   32.4750   44.9610 H   0  0  0  0  0  0  0  0  0  0  0  0
   38.6810   32.1940   43.6520 C   0  0  0  0  0  3  0  0  0  0  0  0
   39.6030   31.6770   44.5240 C   0  0  0  0  0  0  0  0  0  0  0  0
   39.7240   30.2800   44.4690 C   0  0  0  0  0  0  0  0  0  0  0  0
   40.4060   29.6720   45.0880 H   0  0  0  0  0  0  0  0  0  0  0  0
   38.9850   29.4790   43.6130 C   0  0  0  0  0  0  0  0  0  0  0  0
   38.8920   28.1760   43.3480 N   0  0  0  0  0  0  0  0  0  0  0  0
   39.4610   27.4260   43.8330 H   0  0  0  0  0  0  0  0  0  0  0  0
   37.9910   27.9310   42.3970 C   0  0  0  0  0  0  0  0  0  0  0  0
   37.7420   26.9400   42.0150 H   0  0  0  0  0  0  0  0  0  0  0  0
   37.4380   29.1280   41.9870 C   0  0  0  0  0  3  0  0  0  0  0  0
   38.0770   30.0730   42.7600 C   0  0  0  0  0  0  0  0  0  0  0  0
   37.9300   31.4340   42.7860 C   0  0  0  0  0  3  0  0  0  0  0  0
   37.8440   30.7380   49.7160 O   0  0  0  0  0  0  0  0  0  0  0  0
   34.2440   28.9850   48.4280 C   0  0  0  0  0  0  0  0  0  0  0  0
   34.9760   28.4340   49.4380 C   0  0  0  0  0  0  0  0  0  0  0  0
   36.1590   28.9460   49.9150 C   0  0  0  0  0  0  0  0  0  0  0  0
   36.6790   30.0850   49.3700 C   0  0  0  0  0  0  0  0  0  0  0  0
   35.9400   30.6630   48.3330 C   0  0  0  0  0  0  0  0  0  0  0  0
   34.7790   30.1260   47.8940 N   0  0  0  0  0  0  0  0  0  0  0  0
   34.6210   27.5290   49.9140 H   0  0  0  0  0  0  0  0  0  0  0  0
   36.7330   28.5030   50.7150 H   0  0  0  0  0  0  0  0  0  0  0  0
   36.2340   31.5610   47.8160 H   0  0  0  0  0  0  0  0  0  0  0  0
   32.1310   27.6940   48.6940 C   0  0  0  0  0  0  0  0  0  0  0  0
   33.0150   28.4600   47.9190 C   0  0  0  0  0  0  0  0  0  0  0  0
   32.6550   28.6940   46.6130 C   0  0  0  0  0  0  0  0  0  0  0  0
   31.4810   28.1880   46.1280 N   0  0  0  0  0  0  0  0  0  0  0  0
   30.6600   27.4510   46.9250 C   0  0  0  0  0  0  0  0  0  0  0  0
   30.9740   27.1930   48.2260 N   0  0  0  0  0  0  0  0  0  0  0  0
   32.3710   27.4840   49.7280 H   0  0  0  0  0  0  0  0  0  0  0  0
   33.2450   29.2670   45.9110 H   0  0  0  0  0  0  0  0  0  0  0  0
   29.7240   27.0450   46.5450 H   0  0  0  0  0  0  0  0  0  0  0  0
  1  2  1  0  0  0  0
  1 26  1  0  0  0  0
  2  6  1  0  0  0  0
  3  7  1  0  0  0  0
  3  2  2  0  0  0  0
  4  5  1  0  0  0  0
  4  3  1  0  0  0  0
  5  1  2  0  0  0  0
  8  9  1  0  0  0  0
  8  4  1  0  0  0  0
 10  8  1  0  0  0  0
 11 12  1  0  0  0  0
 11  8  1  0  0  0  0
 13 11  1  0  0  0  0
 14 15  1  0  0  0  0
 15 11  1  0  0  0  0
 16 15  2  0  0  0  0
 16 17  1  0  0  0  0
 18 16  1  0  0  0  0
 19 18  1  0  0  0  0
 19 20  1  0  0  0  0
 21 19  1  0  0  0  0
 22 21  1  0  0  0  0
 23 21  2  0  0  0  0
 23 24  1  0  0  0  0
 24 25  1  0  0  0  0
 24 18  2  0  0  0  0
 25 14  2  0  0  0  0
 27 28  1  0  0  0  0
 28 33  1  0  0  0  0
 28 29  2  0  0  0  0
 29 34  1  0  0  0  0
 30 26  1  0  0  0  0
 30 29  1  0  0  0  0
 31 30  2  0  0  0  0
 32 31  1  0  0  0  0
 32 27  2  0  0  0  0
 35 31  1  0  0  0  0
 36 42  1  0  0  0  0
 37 27  1  0  0  0  0
 37 36  2  0  0  0  0
 38 37  1  0  0  0  0
 39 38  2  0  0  0  0
 39 40  1  0  0  0  0
 40 41  2  0  0  0  0
 41 36  1  0  0  0  0
 43 38  1  0  0  0  0
 44 40  1  0  0  0  0
M  END
>  <minimizedAffinity>
-6.36937666

>  <minimizedRMSD>
1.22125733

$$$$
