
 OpenBabel03272506553D

 23 25  0  0  0  0  0  0  0  0999 V2000
   32.8620   28.5100   49.3600 C   0  0  0  0  0  3  0  0  0  0  0  0
   34.0700   28.1840   48.7420 C   0  0  0  0  0  0  0  0  0  0  0  0
   34.1430   27.2180   47.7550 C   0  0  0  0  0  0  0  0  0  0  0  0
   35.0960   26.9820   47.2900 H   0  0  0  0  0  0  0  0  0  0  0  0
   33.0100   26.5440   47.3470 C   0  0  0  0  0  0  0  0  0  0  0  0
   32.8230   25.5770   46.4190 N   0  0  0  0  0  0  0  0  0  0  0  0
   33.5720   25.1550   45.8170 H   0  0  0  0  0  0  0  0  0  0  0  0
   31.5150   25.2480   46.4010 C   0  0  0  0  0  0  0  0  0  0  0  0
   31.0640   24.4930   45.7500 H   0  0  0  0  0  0  0  0  0  0  0  0
   30.8460   26.0300   47.3470 C   0  0  0  0  0  3  0  0  0  0  0  0
   31.8000   26.8300   47.9240 C   0  0  0  0  0  0  0  0  0  0  0  0
   31.7590   27.7960   48.9040 C   0  0  0  0  0  3  0  0  0  0  0  0
   36.6470   29.6460   50.9230 C   0  0  0  0  0  0  0  0  0  0  0  0
   37.5350   30.2520   50.0190 C   0  0  0  0  0  0  0  0  0  0  0  0
   37.2270   30.1450   48.6550 C   0  0  0  0  0  0  0  0  0  0  0  0
   36.1130   29.4780   48.2830 N   0  0  0  0  0  0  0  0  0  0  0  0
   35.2810   28.9060   49.1800 C   0  0  0  0  0  0  0  0  0  0  0  0
   35.5340   28.9820   50.5050 N   0  0  0  0  0  0  0  0  0  0  0  0
   36.8980   29.7370   51.9760 H   0  0  0  0  0  0  0  0  0  0  0  0
   37.8970   30.6050   47.9460 H   0  0  0  0  0  0  0  0  0  0  0  0
   38.6760   30.9290   50.5150 N   0  0  0  0  0  0  0  0  0  0  0  0
   38.5580   31.4430   51.4350 H   0  0  0  0  0  0  0  0  0  0  0  0
   39.6040   30.9480   50.0340 H   0  0  0  0  0  0  0  0  0  0  0  0
  2 17  1  0  0  0  0
  2  1  2  0  0  0  0
  3  2  1  0  0  0  0
  4  3  1  0  0  0  0
  5  3  2  0  0  0  0
  5 11  1  0  0  0  0
  6  5  1  0  0  0  0
  7  6  1  0  0  0  0
  8  6  1  0  0  0  0
  8 10  2  0  0  0  0
  9  8  1  0  0  0  0
 10 11  1  0  0  0  0
 11 12  2  0  0  0  0
 12  1  1  0  0  0  0
 13 19  1  0  0  0  0
 14 21  1  0  0  0  0
 14 13  2  0  0  0  0
 15 14  1  0  0  0  0
 16 15  2  0  0  0  0
 16 17  1  0  0  0  0
 17 18  2  0  0  0  0
 18 13  1  0  0  0  0
 20 15  1  0  0  0  0
 21 22  1  0  0  0  0
 23 21  1  0  0  0  0
M  END
>  <minimizedAffinity>
-4.55880499

>  <minimizedRMSD>
1.55245614

$$$$
