
 OpenBabel03272504083D

 36 39  0  0  0  0  0  0  0  0999 V2000
   37.9190   30.5040   50.1110 C   0  0  0  0  0  0  0  0  0  0  0  0
   37.3860   30.6770   48.8550 C   0  0  0  0  0  0  0  0  0  0  0  0
   36.0490   30.2970   48.5970 C   0  0  0  0  0  0  0  0  0  0  0  0
   35.3380   29.7680   49.6200 N   0  0  0  0  0  0  0  0  0  0  0  0
   35.9050   29.6100   50.8670 C   0  0  0  0  0  0  0  0  0  0  0  0
   37.1960   29.9810   51.1020 N   0  0  0  0  0  0  0  0  0  0  0  0
   35.0860   29.0410   51.8950 N   0  0  0  0  0  0  0  0  0  0  0  0
   38.9270   30.7740   50.3700 H   0  0  0  0  0  0  0  0  0  0  0  0
   34.6300   28.0930   51.7640 H   0  0  0  0  0  0  0  0  0  0  0  0
   34.9360   29.5560   52.7720 H   0  0  0  0  0  0  0  0  0  0  0  0
   38.4130   33.5320   49.0800 Cl  0  0  0  0  0  0  0  0  0  0  0  0
   38.7910   32.5150   47.7110 C   0  0  0  0  0  0  0  0  0  0  0  0
   38.2470   31.2690   47.7960 C   0  0  0  0  0  0  0  0  0  0  0  0
   38.5020   30.3700   46.7470 C   0  0  0  0  0  0  0  0  0  0  0  0
   39.2540   30.6960   45.6760 C   0  0  0  0  0  0  0  0  0  0  0  0
   39.7940   31.9820   45.6210 C   0  0  0  0  0  0  0  0  0  0  0  0
   40.7760   32.4500   44.2690 Cl  0  0  0  0  0  0  0  0  0  0  0  0
   39.5550   32.8700   46.6380 C   0  0  0  0  0  0  0  0  0  0  0  0
   38.1290   29.3550   46.7240 H   0  0  0  0  0  0  0  0  0  0  0  0
   39.4750   30.0400   44.8470 H   0  0  0  0  0  0  0  0  0  0  0  0
   39.9580   33.8720   46.6310 H   0  0  0  0  0  0  0  0  0  0  0  0
   35.4940   30.4730   47.2610 C   0  0  0  0  0  0  0  0  0  0  0  0
   35.3090   31.5560   47.0690 H   0  0  0  0  0  0  0  0  0  0  0  0
   36.1740   30.0650   46.4880 H   0  0  0  0  0  0  0  0  0  0  0  0
   33.2110   30.4390   46.3770 C   0  0  0  0  0  3  0  0  0  0  0  0
   34.2040   29.7590   47.0530 C   0  0  0  0  0  0  0  0  0  0  0  0
   33.9240   28.4590   47.5000 C   0  0  0  0  0  0  0  0  0  0  0  0
   34.7230   27.9470   48.0310 H   0  0  0  0  0  0  0  0  0  0  0  0
   32.6910   27.8990   47.2590 C   0  0  0  0  0  0  0  0  0  0  0  0
   32.1680   26.7010   47.5710 N   0  0  0  0  0  0  0  0  0  0  0  0
   32.6520   25.9110   48.1000 H   0  0  0  0  0  0  0  0  0  0  0  0
   30.8830   26.5940   47.1210 C   0  0  0  0  0  0  0  0  0  0  0  0
   30.2620   25.7170   47.2570 H   0  0  0  0  0  0  0  0  0  0  0  0
   30.6280   27.8240   46.4930 C   0  0  0  0  0  3  0  0  0  0  0  0
   31.7320   28.6460   46.5670 C   0  0  0  0  0  0  0  0  0  0  0  0
   31.9590   29.9260   46.1090 C   0  0  0  0  0  3  0  0  0  0  0  0
  1  8  1  0  0  0  0
  1  6  1  0  0  0  0
  2  1  2  0  0  0  0
  3  2  1  0  0  0  0
  3  4  2  0  0  0  0
  4  5  1  0  0  0  0
  5  6  2  0  0  0  0
  5  7  1  0  0  0  0
  7 10  1  0  0  0  0
  9  7  1  0  0  0  0
 12 13  1  0  0  0  0
 12 11  1  0  0  0  0
 13  2  1  0  0  0  0
 14 13  2  0  0  0  0
 15 14  1  0  0  0  0
 16 15  2  0  0  0  0
 16 18  1  0  0  0  0
 17 16  1  0  0  0  0
 18 12  2  0  0  0  0
 19 14  1  0  0  0  0
 20 15  1  0  0  0  0
 21 18  1  0  0  0  0
 22  3  1  0  0  0  0
 23 22  1  0  0  0  0
 24 22  1  0  0  0  0
 25 26  1  0  0  0  0
 26 22  1  0  0  0  0
 26 27  2  0  0  0  0
 27 28  1  0  0  0  0
 29 27  1  0  0  0  0
 29 30  1  0  0  0  0
 30 31  1  0  0  0  0
 32 33  1  0  0  0  0
 32 30  1  0  0  0  0
 34 35  1  0  0  0  0
 34 32  2  0  0  0  0
 35 29  2  0  0  0  0
 36 25  2  0  0  0  0
 36 35  1  0  0  0  0
M  END
>  <minimizedAffinity>
-6.50342321

>  <minimizedRMSD>
1.23118508

$$$$
