
 OpenBabel03272507243D

 33 36  0  0  1  0  0  0  0  0999 V2000
   37.3370   25.8650   30.9760 C   0  0  0  0  0  0  0  0  0  0  0  0
   36.8650   24.5460   31.0420 C   0  0  0  0  0  0  0  0  0  0  0  0
   37.0240   23.8430   32.2470 C   0  0  0  0  0  0  0  0  0  0  0  0
   37.6240   24.4930   33.2600 N   0  0  0  0  0  0  0  0  0  0  0  0
   38.0790   25.7610   33.2010 C   0  0  0  0  0  0  0  0  0  0  0  0
   37.9280   26.4450   32.0380 N   0  0  0  0  0  0  0  0  0  0  0  0
   36.5880   22.5170   32.3910 N   0  0  0  0  0  0  0  0  0  0  0  0
   35.4500   21.9400   31.6770 C   0  0  0  0  0  0  0  0  0  0  0  0
   35.1930   20.5990   32.2970 C   0  0  0  0  0  0  0  0  0  0  0  0
   35.8150   20.7820   33.6800 C   0  0  0  0  0  0  0  0  0  0  0  0
   37.1030   21.4870   33.1940 C   0  0  2  0  0  0  0  0  0  0  0  0
   37.2030   26.3780   30.0470 H   0  0  0  0  0  0  0  0  0  0  0  0
   36.3930   24.0840   30.1940 H   0  0  0  0  0  0  0  0  0  0  0  0
   38.5390   26.1390   34.1060 H   0  0  0  0  0  0  0  0  0  0  0  0
   34.5760   22.6020   31.6910 H   0  0  0  0  0  0  0  0  0  0  0  0
   35.8150   21.7560   30.6320 H   0  0  0  0  0  0  0  0  0  0  0  0
   35.6150   19.7480   31.7560 H   0  0  0  0  0  0  0  0  0  0  0  0
   34.0830   20.4990   32.4360 H   0  0  0  0  0  0  0  0  0  0  0  0
   36.0520   19.8250   34.1560 H   0  0  0  0  0  0  0  0  0  0  0  0
   35.1720   21.4560   34.2500 H   0  0  0  0  0  0  0  0  0  0  0  0
   37.6090   20.6740   32.5760 H   0  0  0  0  0  0  0  0  0  0  0  0
   39.3740   21.9200   34.2410 C   0  0  0  0  0  3  0  0  0  0  0  0
   38.0050   21.8460   34.2680 C   0  0  0  0  0  0  0  0  0  0  0  0
   37.4150   22.1790   35.4860 C   0  0  0  0  0  0  0  0  0  0  0  0
   36.3460   22.1550   35.6200 H   0  0  0  0  0  0  0  0  0  0  0  0
   38.1490   22.5620   36.5990 C   0  0  0  0  0  0  0  0  0  0  0  0
   37.7850   22.9200   37.8510 N   0  0  0  0  0  0  0  0  0  0  0  0
   36.8080   22.9710   38.2150 H   0  0  0  0  0  0  0  0  0  0  0  0
   38.9210   23.1990   38.5410 C   0  0  0  0  0  0  0  0  0  0  0  0
   38.8860   23.5160   39.5940 H   0  0  0  0  0  0  0  0  0  0  0  0
   40.0180   23.0220   37.7410 C   0  0  0  0  0  3  0  0  0  0  0  0
   39.5420   22.6200   36.5120 C   0  0  0  0  0  0  0  0  0  0  0  0
   40.1520   22.2940   35.3160 C   0  0  0  0  0  3  0  0  0  0  0  0
  1  2  2  0  0  0  0
  1  6  1  0  0  0  0
  2  3  1  0  0  0  0
  3  7  1  0  0  0  0
  3  4  2  0  0  0  0
  5  4  1  0  0  0  0
  5 14  1  0  0  0  0
  6  5  2  0  0  0  0
  7 11  1  0  0  0  0
  8 15  1  0  0  0  0
  8  9  1  0  0  0  0
  8  7  1  0  0  0  0
  9 18  1  0  0  0  0
  9 10  1  0  0  0  0
 10 19  1  0  0  0  0
 10 20  1  0  0  0  0
 11 21  1  6  0  0  0
 11 10  1  0  0  0  0
 11 23  1  0  0  0  0
 12  1  1  0  0  0  0
 13  2  1  0  0  0  0
 16  8  1  0  0  0  0
 17  9  1  0  0  0  0
 22 23  2  0  0  0  0
 22 33  1  0  0  0  0
 23 24  1  0  0  0  0
 24 25  1  0  0  0  0
 24 26  2  0  0  0  0
 26 27  1  0  0  0  0
 27 28  1  0  0  0  0
 27 29  1  0  0  0  0
 29 30  1  0  0  0  0
 31 29  2  0  0  0  0
 32 26  1  0  0  0  0
 32 31  1  0  0  0  0
 33 32  2  0  0  0  0
M  END
>  <minimizedAffinity>
-5.62217712

$$$$

 OpenBabel03272507243D

 33 36  0  0  1  0  0  0  0  0999 V2000
   36.9260   23.1890   31.3110 C   0  0  0  0  0  0  0  0  0  0  0  0
   36.7940   24.2260   32.2460 C   0  0  0  0  0  0  0  0  0  0  0  0
   37.8900   24.5170   33.0740 C   0  0  0  0  0  0  0  0  0  0  0  0
   38.9970   23.7730   32.9070 N   0  0  0  0  0  0  0  0  0  0  0  0
   39.1280   22.7750   32.0100 C   0  0  0  0  0  0  0  0  0  0  0  0
   38.0720   22.4890   31.2070 N   0  0  0  0  0  0  0  0  0  0  0  0
   37.8350   25.5330   34.0410 N   0  0  0  0  0  0  0  0  0  0  0  0
   37.0230   26.7430   33.9230 C   0  0  0  0  0  0  0  0  0  0  0  0
   37.4410   27.6490   35.0430 C   0  0  0  0  0  0  0  0  0  0  0  0
   38.8490   27.1340   35.3370 C   0  0  0  0  0  0  0  0  0  0  0  0
   38.4940   25.6290   35.2760 C   0  0  2  0  0  0  0  0  0  0  0  0
   36.0770   22.9870   30.6930 H   0  0  0  0  0  0  0  0  0  0  0  0
   35.8790   24.7840   32.3280 H   0  0  0  0  0  0  0  0  0  0  0  0
   40.0880   22.2710   32.0020 H   0  0  0  0  0  0  0  0  0  0  0  0
   37.1120   27.2040   32.9320 H   0  0  0  0  0  0  0  0  0  0  0  0
   35.9700   26.4170   34.1360 H   0  0  0  0  0  0  0  0  0  0  0  0
   36.7930   27.6280   35.9230 H   0  0  0  0  0  0  0  0  0  0  0  0
   37.5410   28.6840   34.6200 H   0  0  0  0  0  0  0  0  0  0  0  0
   39.1890   27.4120   36.3400 H   0  0  0  0  0  0  0  0  0  0  0  0
   39.4940   27.4340   34.5100 H   0  0  0  0  0  0  0  0  0  0  0  0
   37.7790   25.5100   36.1550 H   0  0  0  0  0  0  0  0  0  0  0  0
   40.8940   24.8500   34.9970 C   0  0  0  0  0  3  0  0  0  0  0  0
   39.6270   24.7600   35.5150 C   0  0  0  0  0  0  0  0  0  0  0  0
   39.4210   23.7040   36.4000 C   0  0  0  0  0  0  0  0  0  0  0  0
   38.4640   23.5380   36.8670 H   0  0  0  0  0  0  0  0  0  0  0  0
   40.4170   22.8010   36.7430 C   0  0  0  0  0  0  0  0  0  0  0  0
   40.4310   21.7260   37.5630 N   0  0  0  0  0  0  0  0  0  0  0  0
   39.6230   21.3720   38.1220 H   0  0  0  0  0  0  0  0  0  0  0  0
   41.6820   21.2000   37.5250 C   0  0  0  0  0  0  0  0  0  0  0  0
   41.9450   20.3100   38.1150 H   0  0  0  0  0  0  0  0  0  0  0  0
   42.4780   21.9290   36.6820 C   0  0  0  0  0  3  0  0  0  0  0  0
   41.6890   22.9420   36.1820 C   0  0  0  0  0  0  0  0  0  0  0  0
   41.9200   23.9820   35.3020 C   0  0  0  0  0  3  0  0  0  0  0  0
  1  2  1  0  0  0  0
  2 13  1  0  0  0  0
  2  3  2  0  0  0  0
  3  7  1  0  0  0  0
  4  3  1  0  0  0  0
  5  4  2  0  0  0  0
  6  1  2  0  0  0  0
  6  5  1  0  0  0  0
  7 11  1  0  0  0  0
  8  7  1  0  0  0  0
  8 16  1  0  0  0  0
  8  9  1  0  0  0  0
  9 10  1  0  0  0  0
  9 17  1  0  0  0  0
 10 19  1  0  0  0  0
 11 10  1  0  0  0  0
 11 23  1  0  0  0  0
 11 21  1  1  0  0  0
 12  1  1  0  0  0  0
 14  5  1  0  0  0  0
 15  8  1  0  0  0  0
 18  9  1  0  0  0  0
 20 10  1  0  0  0  0
 22 33  2  0  0  0  0
 22 23  1  0  0  0  0
 23 24  2  0  0  0  0
 24 26  1  0  0  0  0
 24 25  1  0  0  0  0
 26 27  1  0  0  0  0
 27 28  1  0  0  0  0
 29 27  1  0  0  0  0
 29 30  1  0  0  0  0
 31 29  2  0  0  0  0
 32 31  1  0  0  0  0
 32 26  2  0  0  0  0
 33 32  1  0  0  0  0
M  END
>  <minimizedAffinity>
-5.56300402

$$$$

 OpenBabel03272507243D

 33 36  0  0  1  0  0  0  0  0999 V2000
   36.8600   27.7420   30.4200 C   0  0  0  0  0  0  0  0  0  0  0  0
   38.2130   27.9020   30.7530 C   0  0  0  0  0  0  0  0  0  0  0  0
   38.7090   27.2030   31.8670 C   0  0  0  0  0  0  0  0  0  0  0  0
   37.8410   26.4260   32.5370 N   0  0  0  0  0  0  0  0  0  0  0  0
   36.5390   26.2700   32.2200 C   0  0  0  0  0  0  0  0  0  0  0  0
   36.0550   26.9430   31.1450 N   0  0  0  0  0  0  0  0  0  0  0  0
   40.0480   27.3160   32.2710 N   0  0  0  0  0  0  0  0  0  0  0  0
   41.1650   27.5770   31.3650 C   0  0  0  0  0  0  0  0  0  0  0  0
   42.4190   27.3820   32.1660 C   0  0  0  0  0  0  0  0  0  0  0  0
   41.9240   26.4590   33.2780 C   0  0  0  0  0  0  0  0  0  0  0  0
   40.6060   27.2200   33.5560 C   0  0  2  0  0  0  0  0  0  0  0  0
   36.5070   28.2850   29.5680 H   0  0  0  0  0  0  0  0  0  0  0  0
   38.8540   28.5400   30.1740 H   0  0  0  0  0  0  0  0  0  0  0  0
   35.9740   25.6060   32.8630 H   0  0  0  0  0  0  0  0  0  0  0  0
   41.1210   26.9530   30.4650 H   0  0  0  0  0  0  0  0  0  0  0  0
   41.0990   28.6700   31.1170 H   0  0  0  0  0  0  0  0  0  0  0  0
   42.8710   28.2990   32.5510 H   0  0  0  0  0  0  0  0  0  0  0  0
   43.1350   26.7940   31.5320 H   0  0  0  0  0  0  0  0  0  0  0  0
   42.5780   26.4830   34.1560 H   0  0  0  0  0  0  0  0  0  0  0  0
   41.7420   25.4750   32.8420 H   0  0  0  0  0  0  0  0  0  0  0  0
   40.9790   28.2260   33.9380 H   0  0  0  0  0  0  0  0  0  0  0  0
   38.9530   27.2430   35.4810 C   0  0  0  0  0  3  0  0  0  0  0  0
   39.8060   26.6240   34.6040 C   0  0  0  0  0  0  0  0  0  0  0  0
   39.8890   25.2390   34.7350 C   0  0  0  0  0  0  0  0  0  0  0  0
   40.5290   24.6500   34.0980 H   0  0  0  0  0  0  0  0  0  0  0  0
   39.1670   24.5250   35.6800 C   0  0  0  0  0  0  0  0  0  0  0  0
   39.1010   23.2070   35.9730 N   0  0  0  0  0  0  0  0  0  0  0  0
   39.6280   22.4450   35.4920 H   0  0  0  0  0  0  0  0  0  0  0  0
   38.2250   23.0610   37.0000 C   0  0  0  0  0  0  0  0  0  0  0  0
   38.0000   22.0690   37.4220 H   0  0  0  0  0  0  0  0  0  0  0  0
   37.7250   24.2790   37.3750 C   0  0  0  0  0  3  0  0  0  0  0  0
   38.3130   25.2110   36.5480 C   0  0  0  0  0  0  0  0  0  0  0  0
   38.2110   26.5850   36.4390 C   0  0  0  0  0  3  0  0  0  0  0  0
  1  2  2  0  0  0  0
  1  6  1  0  0  0  0
  2  3  1  0  0  0  0
  3  7  1  0  0  0  0
  3  4  2  0  0  0  0
  5  4  1  0  0  0  0
  5 14  1  0  0  0  0
  6  5  2  0  0  0  0
  7 11  1  0  0  0  0
  8  9  1  0  0  0  0
  8  7  1  0  0  0  0
  9 17  1  0  0  0  0
  9 10  1  0  0  0  0
 10 11  1  0  0  0  0
 10 19  1  0  0  0  0
 11 21  1  1  0  0  0
 11 23  1  0  0  0  0
 12  1  1  0  0  0  0
 13  2  1  0  0  0  0
 15  8  1  0  0  0  0
 16  8  1  0  0  0  0
 18  9  1  0  0  0  0
 20 10  1  0  0  0  0
 22 33  1  0  0  0  0
 23 24  1  0  0  0  0
 23 22  2  0  0  0  0
 24 26  2  0  0  0  0
 25 24  1  0  0  0  0
 26 27  1  0  0  0  0
 26 32  1  0  0  0  0
 27 29  1  0  0  0  0
 28 27  1  0  0  0  0
 29 31  2  0  0  0  0
 29 30  1  0  0  0  0
 32 31  1  0  0  0  0
 33 32  2  0  0  0  0
M  END
>  <minimizedAffinity>
-5.53969955

$$$$

 OpenBabel03272507243D

 33 36  0  0  1  0  0  0  0  0999 V2000
   35.5240   22.3700   31.3280 C   0  0  0  0  0  0  0  0  0  0  0  0
   35.9140   23.7150   31.3970 C   0  0  0  0  0  0  0  0  0  0  0  0
   37.0040   24.0490   32.2190 C   0  0  0  0  0  0  0  0  0  0  0  0
   37.5980   23.0440   32.8850 N   0  0  0  0  0  0  0  0  0  0  0  0
   37.2240   21.7500   32.8220 C   0  0  0  0  0  0  0  0  0  0  0  0
   36.1720   21.4220   32.0300 N   0  0  0  0  0  0  0  0  0  0  0  0
   37.4510   25.3730   32.3490 N   0  0  0  0  0  0  0  0  0  0  0  0
   37.3460   26.3870   31.3010 C   0  0  0  0  0  0  0  0  0  0  0  0
   38.1480   27.5660   31.7670 C   0  0  0  0  0  0  0  0  0  0  0  0
   39.1130   26.9050   32.7490 C   0  0  0  0  0  0  0  0  0  0  0  0
   38.0600   26.0080   33.4420 C   0  0  2  0  0  0  0  0  0  0  0  0
   34.6920   22.1420   30.6960 H   0  0  0  0  0  0  0  0  0  0  0  0
   35.3960   24.4710   30.8360 H   0  0  0  0  0  0  0  0  0  0  0  0
   37.8080   21.0610   33.4220 H   0  0  0  0  0  0  0  0  0  0  0  0
   37.6610   26.0040   30.3230 H   0  0  0  0  0  0  0  0  0  0  0  0
   36.2680   26.7010   31.2960 H   0  0  0  0  0  0  0  0  0  0  0  0
   37.5670   28.3710   32.2250 H   0  0  0  0  0  0  0  0  0  0  0  0
   38.7520   27.9290   30.8920 H   0  0  0  0  0  0  0  0  0  0  0  0
   39.5380   27.6230   33.4580 H   0  0  0  0  0  0  0  0  0  0  0  0
   39.8300   26.3190   32.1710 H   0  0  0  0  0  0  0  0  0  0  0  0
   37.3710   26.7730   33.9330 H   0  0  0  0  0  0  0  0  0  0  0  0
   39.7930   24.4840   34.4990 C   0  0  0  0  0  3  0  0  0  0  0  0
   38.6100   25.1790   34.4940 C   0  0  0  0  0  0  0  0  0  0  0  0
   37.8600   25.0840   35.6640 C   0  0  0  0  0  0  0  0  0  0  0  0
   36.9140   25.5890   35.7700 H   0  0  0  0  0  0  0  0  0  0  0  0
   38.2680   24.3440   36.7640 C   0  0  0  0  0  0  0  0  0  0  0  0
   37.7050   24.1210   37.9720 N   0  0  0  0  0  0  0  0  0  0  0  0
   36.7920   24.5050   38.3030 H   0  0  0  0  0  0  0  0  0  0  0  0
   38.5440   23.3120   38.6700 C   0  0  0  0  0  0  0  0  0  0  0  0
   38.3020   22.9860   39.6930 H   0  0  0  0  0  0  0  0  0  0  0  0
   39.6460   23.0090   37.9170 C   0  0  0  0  0  3  0  0  0  0  0  0
   39.4830   23.6560   36.7110 C   0  0  0  0  0  0  0  0  0  0  0  0
   40.2470   23.7340   35.5620 C   0  0  0  0  0  3  0  0  0  0  0  0
  1  2  2  0  0  0  0
  1  6  1  0  0  0  0
  2  3  1  0  0  0  0
  3  7  1  0  0  0  0
  3  4  2  0  0  0  0
  5  4  1  0  0  0  0
  5 14  1  0  0  0  0
  6  5  2  0  0  0  0
  7 11  1  0  0  0  0
  8  9  1  0  0  0  0
  8  7  1  0  0  0  0
  9 17  1  0  0  0  0
  9 10  1  0  0  0  0
 10 11  1  0  0  0  0
 10 19  1  0  0  0  0
 11 21  1  1  0  0  0
 11 23  1  0  0  0  0
 12  1  1  0  0  0  0
 13  2  1  0  0  0  0
 15  8  1  0  0  0  0
 16  8  1  0  0  0  0
 18  9  1  0  0  0  0
 20 10  1  0  0  0  0
 22 33  1  0  0  0  0
 23 22  2  0  0  0  0
 23 24  1  0  0  0  0
 24 25  1  0  0  0  0
 24 26  2  0  0  0  0
 26 27  1  0  0  0  0
 27 28  1  0  0  0  0
 27 29  1  0  0  0  0
 29 30  1  0  0  0  0
 31 29  2  0  0  0  0
 32 26  1  0  0  0  0
 32 31  1  0  0  0  0
 33 32  2  0  0  0  0
M  END
>  <minimizedAffinity>
-5.50809526

$$$$

 OpenBabel03272507243D

 33 36  0  0  1  0  0  0  0  0999 V2000
   39.4740   24.9620   35.3000 C   0  0  0  0  0  0  0  0  0  0  0  0
   38.7530   25.5410   34.2460 C   0  0  0  0  0  0  0  0  0  0  0  0
   37.8920   24.7180   33.5000 C   0  0  0  0  0  0  0  0  0  0  0  0
   37.8220   23.4240   33.8570 N   0  0  0  0  0  0  0  0  0  0  0  0
   38.5140   22.8640   34.8700 C   0  0  0  0  0  0  0  0  0  0  0  0
   39.3470   23.6540   35.5940 N   0  0  0  0  0  0  0  0  0  0  0  0
   37.1440   25.2180   32.4240 N   0  0  0  0  0  0  0  0  0  0  0  0
   36.6550   26.5920   32.3250 C   0  0  0  0  0  0  0  0  0  0  0  0
   35.7170   26.6290   31.1550 C   0  0  0  0  0  0  0  0  0  0  0  0
   35.2980   25.1620   31.0590 C   0  0  0  0  0  0  0  0  0  0  0  0
   36.7140   24.5700   31.2550 C   0  0  2  0  0  0  0  0  0  0  0  0
   40.1230   25.6090   35.8520 H   0  0  0  0  0  0  0  0  0  0  0  0
   38.8550   26.5840   34.0130 H   0  0  0  0  0  0  0  0  0  0  0  0
   38.3450   21.8050   35.0280 H   0  0  0  0  0  0  0  0  0  0  0  0
   36.1990   26.9370   33.2610 H   0  0  0  0  0  0  0  0  0  0  0  0
   37.5520   27.2080   32.0490 H   0  0  0  0  0  0  0  0  0  0  0  0
   36.1490   27.0040   30.2240 H   0  0  0  0  0  0  0  0  0  0  0  0
   34.8130   27.2190   31.4660 H   0  0  0  0  0  0  0  0  0  0  0  0
   34.9050   24.9090   30.0690 H   0  0  0  0  0  0  0  0  0  0  0  0
   34.6450   24.9450   31.9060 H   0  0  0  0  0  0  0  0  0  0  0  0
   37.2660   24.9420   30.3300 H   0  0  0  0  0  0  0  0  0  0  0  0
   37.7560   22.2980   30.8130 C   0  0  0  0  0  3  0  0  0  0  0  0
   36.7410   23.1230   31.2270 C   0  0  0  0  0  0  0  0  0  0  0  0
   35.6030   22.4730   31.7000 C   0  0  0  0  0  0  0  0  0  0  0  0
   34.7450   23.0220   32.0520 H   0  0  0  0  0  0  0  0  0  0  0  0
   35.4910   21.0910   31.7540 C   0  0  0  0  0  0  0  0  0  0  0  0
   34.4980   20.2730   32.1680 N   0  0  0  0  0  0  0  0  0  0  0  0
   33.5730   20.5740   32.5480 H   0  0  0  0  0  0  0  0  0  0  0  0
   34.9250   18.9950   31.9980 C   0  0  0  0  0  0  0  0  0  0  0  0
   34.2870   18.1390   32.2660 H   0  0  0  0  0  0  0  0  0  0  0  0
   36.1900   18.9830   31.4750 C   0  0  0  0  0  3  0  0  0  0  0  0
   36.5580   20.3020   31.3170 C   0  0  0  0  0  0  0  0  0  0  0  0
   37.6990   20.9210   30.8440 C   0  0  0  0  0  3  0  0  0  0  0  0
  1  6  1  0  0  0  0
  1 12  1  0  0  0  0
  2  1  2  0  0  0  0
  3  4  2  0  0  0  0
  3  2  1  0  0  0  0
  4  5  1  0  0  0  0
  5 14  1  0  0  0  0
  5  6  2  0  0  0  0
  7  3  1  0  0  0  0
  8  7  1  0  0  0  0
  8 15  1  0  0  0  0
  9 18  1  0  0  0  0
  9  8  1  0  0  0  0
 10  9  1  0  0  0  0
 10 11  1  0  0  0  0
 10 20  1  0  0  0  0
 11 21  1  6  0  0  0
 11  7  1  0  0  0  0
 13  2  1  0  0  0  0
 16  8  1  0  0  0  0
 17  9  1  0  0  0  0
 19 10  1  0  0  0  0
 22 33  2  0  0  0  0
 22 23  1  0  0  0  0
 23 11  1  0  0  0  0
 23 24  2  0  0  0  0
 24 26  1  0  0  0  0
 24 25  1  0  0  0  0
 26 27  1  0  0  0  0
 27 28  1  0  0  0  0
 29 27  1  0  0  0  0
 29 30  1  0  0  0  0
 31 29  2  0  0  0  0
 32 31  1  0  0  0  0
 32 26  2  0  0  0  0
 33 32  1  0  0  0  0
M  END
>  <minimizedAffinity>
-5.44232512

$$$$

 OpenBabel03272507243D

 33 36  0  0  1  0  0  0  0  0999 V2000
   35.5820   22.3640   31.4430 C   0  0  0  0  0  0  0  0  0  0  0  0
   36.0040   23.6940   31.5820 C   0  0  0  0  0  0  0  0  0  0  0  0
   37.0440   23.9700   32.4860 C   0  0  0  0  0  0  0  0  0  0  0  0
   37.5630   22.9280   33.1580 N   0  0  0  0  0  0  0  0  0  0  0  0
   37.1590   21.6470   33.0270 C   0  0  0  0  0  0  0  0  0  0  0  0
   36.1550   21.3750   32.1550 N   0  0  0  0  0  0  0  0  0  0  0  0
   37.5170   25.2750   32.6890 N   0  0  0  0  0  0  0  0  0  0  0  0
   37.5130   26.3230   31.6700 C   0  0  0  0  0  0  0  0  0  0  0  0
   38.3130   27.4630   32.2270 C   0  0  0  0  0  0  0  0  0  0  0  0
   39.1900   26.7440   33.2510 C   0  0  0  0  0  0  0  0  0  0  0  0
   38.0670   25.8580   33.8410 C   0  0  2  0  0  0  0  0  0  0  0  0
   34.7890   22.1800   30.7490 H   0  0  0  0  0  0  0  0  0  0  0  0
   35.5460   24.4820   31.0130 H   0  0  0  0  0  0  0  0  0  0  0  0
   37.6810   20.9240   33.6430 H   0  0  0  0  0  0  0  0  0  0  0  0
   37.8830   25.9620   30.7040 H   0  0  0  0  0  0  0  0  0  0  0  0
   36.4470   26.6700   31.6030 H   0  0  0  0  0  0  0  0  0  0  0  0
   37.7250   28.2710   32.6710 H   0  0  0  0  0  0  0  0  0  0  0  0
   38.9850   27.8350   31.4080 H   0  0  0  0  0  0  0  0  0  0  0  0
   39.5850   27.4270   34.0090 H   0  0  0  0  0  0  0  0  0  0  0  0
   39.9280   26.1540   32.7040 H   0  0  0  0  0  0  0  0  0  0  0  0
   37.3680   26.6280   34.3090 H   0  0  0  0  0  0  0  0  0  0  0  0
   37.8320   24.5510   36.0040 C   0  0  0  0  0  3  0  0  0  0  0  0
   38.5220   24.9810   34.9000 C   0  0  0  0  0  0  0  0  0  0  0  0
   39.8190   24.4880   34.7800 C   0  0  0  0  0  0  0  0  0  0  0  0
   40.4520   24.7600   33.9510 H   0  0  0  0  0  0  0  0  0  0  0  0
   40.3860   23.6220   35.7050 C   0  0  0  0  0  0  0  0  0  0  0  0
   41.6020   23.0360   35.7790 N   0  0  0  0  0  0  0  0  0  0  0  0
   42.3800   23.1490   35.0920 H   0  0  0  0  0  0  0  0  0  0  0  0
   41.6200   22.2780   36.9060 C   0  0  0  0  0  0  0  0  0  0  0  0
   42.5110   21.6970   37.1880 H   0  0  0  0  0  0  0  0  0  0  0  0
   40.4220   22.3720   37.5610 C   0  0  0  0  0  3  0  0  0  0  0  0
   39.6340   23.2180   36.8110 C   0  0  0  0  0  0  0  0  0  0  0  0
   38.3440   23.6930   36.9540 C   0  0  0  0  0  3  0  0  0  0  0  0
  1  2  2  0  0  0  0
  1  6  1  0  0  0  0
  2  3  1  0  0  0  0
  3  7  1  0  0  0  0
  3  4  2  0  0  0  0
  5  4  1  0  0  0  0
  5 14  1  0  0  0  0
  6  5  2  0  0  0  0
  7 11  1  0  0  0  0
  8  9  1  0  0  0  0
  8  7  1  0  0  0  0
  9 17  1  0  0  0  0
  9 10  1  0  0  0  0
 10 11  1  0  0  0  0
 10 19  1  0  0  0  0
 11 21  1  1  0  0  0
 11 23  1  0  0  0  0
 12  1  1  0  0  0  0
 13  2  1  0  0  0  0
 15  8  1  0  0  0  0
 16  8  1  0  0  0  0
 18  9  1  0  0  0  0
 20 10  1  0  0  0  0
 22 33  1  0  0  0  0
 23 22  2  0  0  0  0
 24 23  1  0  0  0  0
 24 26  2  0  0  0  0
 25 24  1  0  0  0  0
 26 27  1  0  0  0  0
 26 32  1  0  0  0  0
 27 29  1  0  0  0  0
 28 27  1  0  0  0  0
 29 30  1  0  0  0  0
 29 31  2  0  0  0  0
 32 33  2  0  0  0  0
 32 31  1  0  0  0  0
M  END
>  <minimizedAffinity>
-5.30542326

$$$$

 OpenBabel03272507243D

 33 36  0  0  1  0  0  0  0  0999 V2000
   37.1260   22.3360   32.3070 C   0  0  0  0  0  0  0  0  0  0  0  0
   37.6280   23.2090   33.2830 C   0  0  0  0  0  0  0  0  0  0  0  0
   37.4230   24.5880   33.1090 C   0  0  0  0  0  0  0  0  0  0  0  0
   36.7550   24.9730   32.0080 N   0  0  0  0  0  0  0  0  0  0  0  0
   36.2720   24.1360   31.0670 C   0  0  0  0  0  0  0  0  0  0  0  0
   36.4660   22.8030   31.2300 N   0  0  0  0  0  0  0  0  0  0  0  0
   37.9020   25.5280   34.0350 N   0  0  0  0  0  0  0  0  0  0  0  0
   38.0600   25.2710   35.4650 C   0  0  0  0  0  0  0  0  0  0  0  0
   38.3620   26.5940   36.1060 C   0  0  0  0  0  0  0  0  0  0  0  0
   37.7670   27.5640   35.0860 C   0  0  0  0  0  0  0  0  0  0  0  0
   38.3220   26.8510   33.8310 C   0  0  2  0  0  0  0  0  0  0  0  0
   37.2950   21.2920   32.4640 H   0  0  0  0  0  0  0  0  0  0  0  0
   38.1540   22.8360   34.1420 H   0  0  0  0  0  0  0  0  0  0  0  0
   35.7560   24.6070   30.2380 H   0  0  0  0  0  0  0  0  0  0  0  0
   37.1840   24.7690   35.8940 H   0  0  0  0  0  0  0  0  0  0  0  0
   38.9850   24.6410   35.5550 H   0  0  0  0  0  0  0  0  0  0  0  0
   39.4200   26.7840   36.3000 H   0  0  0  0  0  0  0  0  0  0  0  0
   37.7440   26.6640   37.0400 H   0  0  0  0  0  0  0  0  0  0  0  0
   38.1890   28.5700   35.1800 H   0  0  0  0  0  0  0  0  0  0  0  0
   36.6800   27.4910   35.1490 H   0  0  0  0  0  0  0  0  0  0  0  0
   39.4490   26.9680   33.9600 H   0  0  0  0  0  0  0  0  0  0  0  0
   36.8320   28.2360   32.3130 C   0  0  0  0  0  3  0  0  0  0  0  0
   37.9560   27.5010   32.5900 C   0  0  0  0  0  0  0  0  0  0  0  0
   38.8650   27.3870   31.5400 C   0  0  0  0  0  0  0  0  0  0  0  0
   39.7830   26.8320   31.6460 H   0  0  0  0  0  0  0  0  0  0  0  0
   38.6620   27.9720   30.2990 C   0  0  0  0  0  0  0  0  0  0  0  0
   39.3990   27.9860   29.1660 N   0  0  0  0  0  0  0  0  0  0  0  0
   40.3230   27.5200   29.0300 H   0  0  0  0  0  0  0  0  0  0  0  0
   38.7180   28.7180   28.2460 C   0  0  0  0  0  0  0  0  0  0  0  0
   39.1180   28.8760   27.2330 H   0  0  0  0  0  0  0  0  0  0  0  0
   37.5420   29.1750   28.7780 C   0  0  0  0  0  3  0  0  0  0  0  0
   37.4970   28.7100   30.0750 C   0  0  0  0  0  0  0  0  0  0  0  0
   36.5780   28.8380   31.0990 C   0  0  0  0  0  3  0  0  0  0  0  0
  1 12  1  0  0  0  0
  1  2  1  0  0  0  0
  2 13  1  0  0  0  0
  3  2  2  0  0  0  0
  3  7  1  0  0  0  0
  4  3  1  0  0  0  0
  5  6  1  0  0  0  0
  5  4  2  0  0  0  0
  6  1  2  0  0  0  0
  7  8  1  0  0  0  0
  8 16  1  0  0  0  0
  8 15  1  0  0  0  0
  8  9  1  0  0  0  0
  9 17  1  0  0  0  0
  9 18  1  0  0  0  0
 10 20  1  0  0  0  0
 10 19  1  0  0  0  0
 10  9  1  0  0  0  0
 11 21  1  1  0  0  0
 11  7  1  0  0  0  0
 11 10  1  0  0  0  0
 14  5  1  0  0  0  0
 22 23  1  0  0  0  0
 23 11  1  0  0  0  0
 24 25  1  0  0  0  0
 24 23  2  0  0  0  0
 26 24  1  0  0  0  0
 27 26  1  0  0  0  0
 28 27  1  0  0  0  0
 29 31  2  0  0  0  0
 29 27  1  0  0  0  0
 30 29  1  0  0  0  0
 31 32  1  0  0  0  0
 32 26  2  0  0  0  0
 32 33  1  0  0  0  0
 33 22  2  0  0  0  0
M  END
>  <minimizedAffinity>
-5.22169542

$$$$

 OpenBabel03272507243D

 33 36  0  0  1  0  0  0  0  0999 V2000
   36.9150   22.1630   31.9720 C   0  0  0  0  0  0  0  0  0  0  0  0
   37.4920   22.8250   33.0660 C   0  0  0  0  0  0  0  0  0  0  0  0
   37.3700   24.2230   33.1360 C   0  0  0  0  0  0  0  0  0  0  0  0
   36.7030   24.8290   32.1390 N   0  0  0  0  0  0  0  0  0  0  0  0
   36.1470   24.1960   31.0850 C   0  0  0  0  0  0  0  0  0  0  0  0
   36.2620   22.8460   31.0130 N   0  0  0  0  0  0  0  0  0  0  0  0
   37.9270   24.9600   34.1920 N   0  0  0  0  0  0  0  0  0  0  0  0
   38.1010   24.4520   35.5520 C   0  0  0  0  0  0  0  0  0  0  0  0
   38.5000   25.6250   36.3980 C   0  0  0  0  0  0  0  0  0  0  0  0
   37.9440   26.7890   35.5790 C   0  0  0  0  0  0  0  0  0  0  0  0
   38.4260   26.2720   34.2030 C   0  0  2  0  0  0  0  0  0  0  0  0
   37.0220   21.0990   31.9430 H   0  0  0  0  0  0  0  0  0  0  0  0
   38.0130   22.2790   33.8310 H   0  0  0  0  0  0  0  0  0  0  0  0
   35.6430   24.8310   30.3660 H   0  0  0  0  0  0  0  0  0  0  0  0
   37.2060   23.9350   35.9170 H   0  0  0  0  0  0  0  0  0  0  0  0
   38.9870   23.7640   35.5030 H   0  0  0  0  0  0  0  0  0  0  0  0
   39.5720   25.7170   36.5870 H   0  0  0  0  0  0  0  0  0  0  0  0
   37.9090   25.5690   37.3510 H   0  0  0  0  0  0  0  0  0  0  0  0
   38.4300   27.7380   35.8290 H   0  0  0  0  0  0  0  0  0  0  0  0
   36.8570   26.7690   35.6640 H   0  0  0  0  0  0  0  0  0  0  0  0
   39.5600   26.2990   34.3130 H   0  0  0  0  0  0  0  0  0  0  0  0
   38.7100   27.2980   31.8990 C   0  0  0  0  0  3  0  0  0  0  0  0
   38.0730   27.1450   33.1040 C   0  0  0  0  0  0  0  0  0  0  0  0
   36.9270   27.9200   33.2720 C   0  0  0  0  0  0  0  0  0  0  0  0
   36.3470   27.8800   34.1800 H   0  0  0  0  0  0  0  0  0  0  0  0
   36.4530   28.7880   32.3000 C   0  0  0  0  0  0  0  0  0  0  0  0
   35.3850   29.6150   32.2580 N   0  0  0  0  0  0  0  0  0  0  0  0
   34.6810   29.7460   33.0180 H   0  0  0  0  0  0  0  0  0  0  0  0
   35.3980   30.2390   31.0510 C   0  0  0  0  0  0  0  0  0  0  0  0
   34.6220   30.9690   30.7770 H   0  0  0  0  0  0  0  0  0  0  0  0
   36.4720   29.8190   30.3130 C   0  0  0  0  0  3  0  0  0  0  0  0
   37.1450   28.9020   31.0910 C   0  0  0  0  0  0  0  0  0  0  0  0
   38.2840   28.1450   30.8980 C   0  0  0  0  0  3  0  0  0  0  0  0
  1  2  1  0  0  0  0
  2  3  2  0  0  0  0
  2 13  1  0  0  0  0
  3  7  1  0  0  0  0
  4  3  1  0  0  0  0
  5  4  2  0  0  0  0
  6  5  1  0  0  0  0
  6  1  2  0  0  0  0
  7 11  1  0  0  0  0
  7  8  1  0  0  0  0
  8 15  1  0  0  0  0
  8  9  1  0  0  0  0
  9 17  1  0  0  0  0
  9 18  1  0  0  0  0
 10 20  1  0  0  0  0
 10 19  1  0  0  0  0
 10  9  1  0  0  0  0
 11 21  1  1  0  0  0
 11 10  1  0  0  0  0
 12  1  1  0  0  0  0
 14  5  1  0  0  0  0
 16  8  1  0  0  0  0
 22 23  1  0  0  0  0
 23 24  2  0  0  0  0
 23 11  1  0  0  0  0
 24 25  1  0  0  0  0
 26 24  1  0  0  0  0
 27 26  1  0  0  0  0
 27 28  1  0  0  0  0
 29 27  1  0  0  0  0
 30 29  1  0  0  0  0
 31 29  2  0  0  0  0
 31 32  1  0  0  0  0
 32 26  2  0  0  0  0
 33 32  1  0  0  0  0
 33 22  2  0  0  0  0
M  END
>  <minimizedAffinity>
-5.16329241

$$$$

 OpenBabel03272507243D

 33 36  0  0  1  0  0  0  0  0999 V2000
   37.6730   25.6720   33.3220 C   0  0  0  0  0  0  0  0  0  0  0  0
   37.4110   26.6030   32.3060 C   0  0  0  0  0  0  0  0  0  0  0  0
   36.9120   27.8630   32.6740 C   0  0  0  0  0  0  0  0  0  0  0  0
   36.7200   28.0870   33.9860 N   0  0  0  0  0  0  0  0  0  0  0  0
   36.9710   27.1940   34.9650 C   0  0  0  0  0  0  0  0  0  0  0  0
   37.4540   25.9750   34.6150 N   0  0  0  0  0  0  0  0  0  0  0  0
   36.6150   28.8470   31.7170 N   0  0  0  0  0  0  0  0  0  0  0  0
   37.3070   28.9890   30.4370 C   0  0  0  0  0  0  0  0  0  0  0  0
   36.8450   30.2880   29.8450 C   0  0  0  0  0  0  0  0  0  0  0  0
   36.3960   31.0450   31.0940 C   0  0  0  0  0  0  0  0  0  0  0  0
   35.6460   29.8610   31.7480 C   0  0  2  0  0  0  0  0  0  0  0  0
   38.0530   24.7200   33.0160 H   0  0  0  0  0  0  0  0  0  0  0  0
   37.5870   26.3600   31.2740 H   0  0  0  0  0  0  0  0  0  0  0  0
   36.7620   27.5300   35.9740 H   0  0  0  0  0  0  0  0  0  0  0  0
   38.3960   28.9220   30.5470 H   0  0  0  0  0  0  0  0  0  0  0  0
   36.9030   28.1670   29.7870 H   0  0  0  0  0  0  0  0  0  0  0  0
   36.0530   30.2020   29.0970 H   0  0  0  0  0  0  0  0  0  0  0  0
   37.7510   30.8130   29.4390 H   0  0  0  0  0  0  0  0  0  0  0  0
   35.7040   31.8590   30.8560 H   0  0  0  0  0  0  0  0  0  0  0  0
   37.2890   31.3220   31.6570 H   0  0  0  0  0  0  0  0  0  0  0  0
   34.7990   29.6690   31.0090 H   0  0  0  0  0  0  0  0  0  0  0  0
   33.9330   29.6450   33.6080 C   0  0  0  0  0  3  0  0  0  0  0  0
   35.0450   30.1930   33.0230 C   0  0  0  0  0  0  0  0  0  0  0  0
   35.6830   31.1820   33.7690 C   0  0  0  0  0  0  0  0  0  0  0  0
   36.5660   31.6810   33.4050 H   0  0  0  0  0  0  0  0  0  0  0  0
   35.2370   31.5920   35.0160 C   0  0  0  0  0  0  0  0  0  0  0  0
   35.6960   32.5150   35.8910 N   0  0  0  0  0  0  0  0  0  0  0  0
   36.5360   33.1210   35.7580 H   0  0  0  0  0  0  0  0  0  0  0  0
   34.8680   32.5050   36.9670 C   0  0  0  0  0  0  0  0  0  0  0  0
   35.0350   33.1760   37.8220 H   0  0  0  0  0  0  0  0  0  0  0  0
   33.8730   31.5800   36.7920 C   0  0  0  0  0  3  0  0  0  0  0  0
   34.0970   30.9980   35.5630 C   0  0  0  0  0  0  0  0  0  0  0  0
   33.4450   30.0140   34.8440 C   0  0  0  0  0  3  0  0  0  0  0  0
  1  6  1  0  0  0  0
  2  3  1  0  0  0  0
  2  1  2  0  0  0  0
  3  4  2  0  0  0  0
  4  5  1  0  0  0  0
  5 14  1  0  0  0  0
  6  5  2  0  0  0  0
  7 11  1  0  0  0  0
  7  3  1  0  0  0  0
  8 15  1  0  0  0  0
  8  7  1  0  0  0  0
  9  8  1  0  0  0  0
  9 10  1  0  0  0  0
 10 20  1  0  0  0  0
 10 11  1  0  0  0  0
 11 21  1  6  0  0  0
 11 23  1  0  0  0  0
 12  1  1  0  0  0  0
 13  2  1  0  0  0  0
 16  8  1  0  0  0  0
 17  9  1  0  0  0  0
 18  9  1  0  0  0  0
 19 10  1  0  0  0  0
 22 33  1  0  0  0  0
 23 22  2  0  0  0  0
 23 24  1  0  0  0  0
 24 26  2  0  0  0  0
 25 24  1  0  0  0  0
 26 32  1  0  0  0  0
 26 27  1  0  0  0  0
 27 29  1  0  0  0  0
 28 27  1  0  0  0  0
 29 30  1  0  0  0  0
 31 29  2  0  0  0  0
 32 31  1  0  0  0  0
 33 32  2  0  0  0  0
M  END
>  <minimizedAffinity>
-5.15854692

$$$$
