
 OpenBabel03272502463D

 45 49  0  0  0  0  0  0  0  0999 V2000
   34.3480   27.8310   49.5800 Cl  0  0  0  0  0  0  0  0  0  0  0  0
   33.7290   28.6810   48.1900 C   0  0  0  0  0  0  0  0  0  0  0  0
   34.3290   29.8510   47.7940 C   0  0  0  0  0  0  0  0  0  0  0  0
   33.8650   30.5440   46.7020 C   0  0  0  0  0  0  0  0  0  0  0  0
   32.7770   30.0840   45.9700 C   0  0  0  0  0  0  0  0  0  0  0  0
   32.1690   28.9150   46.3560 C   0  0  0  0  0  0  0  0  0  0  0  0
   30.7940   28.2470   45.5060 Cl  0  0  0  0  0  0  0  0  0  0  0  0
   32.6610   28.2430   47.4580 C   0  0  0  0  0  0  0  0  0  0  0  0
   34.3690   31.4580   46.4310 H   0  0  0  0  0  0  0  0  0  0  0  0
   32.4130   30.4150   43.4980 C   0  0  0  0  0  0  0  0  0  0  0  0
   32.2840   30.8210   44.8100 C   0  0  0  0  0  0  0  0  0  0  0  0
   31.6300   32.0260   45.0110 C   0  0  0  0  0  0  0  0  0  0  0  0
   31.5140   32.3710   46.0300 H   0  0  0  0  0  0  0  0  0  0  0  0
   31.1230   32.8040   43.9870 C   0  0  0  0  0  0  0  0  0  0  0  0
   30.4710   33.9710   43.9110 N   0  0  0  0  0  0  0  0  0  0  0  0
   30.1940   34.5760   44.6980 H   0  0  0  0  0  0  0  0  0  0  0  0
   30.2120   34.2690   42.6260 C   0  0  0  0  0  0  0  0  0  0  0  0
   29.6960   35.1450   42.2180 H   0  0  0  0  0  0  0  0  0  0  0  0
   30.7100   33.2650   41.8220 C   0  0  0  0  0  0  0  0  0  0  0  0
   31.2750   32.3590   42.6870 C   0  0  0  0  0  0  0  0  0  0  0  0
   31.9230   31.1570   42.4440 C   0  0  0  0  0  0  0  0  0  0  0  0
   36.6570   30.6220   50.5220 C   0  0  0  0  0  0  0  0  0  0  0  0
   37.6630   31.3430   49.8900 C   0  0  0  0  0  0  0  0  0  0  0  0
   37.5240   31.5570   48.5150 C   0  0  0  0  0  0  0  0  0  0  0  0
   36.4280   31.0540   47.8850 N   0  0  0  0  0  0  0  0  0  0  0  0
   35.4770   30.3570   48.5490 C   0  0  0  0  0  0  0  0  0  0  0  0
   35.6100   30.1570   49.8470 N   0  0  0  0  0  0  0  0  0  0  0  0
   36.7890   30.4710   51.5850 H   0  0  0  0  0  0  0  0  0  0  0  0
   38.5350   31.7420   50.3990 H   0  0  0  0  0  0  0  0  0  0  0  0
   38.5120   32.3000   47.7330 C   0  0  0  0  0  0  0  0  0  0  0  0
   39.2110   33.3810   48.2150 C   0  0  0  0  0  0  0  0  0  0  0  0
   40.0560   33.8670   47.2660 N   0  0  0  0  0  0  0  0  0  0  0  0
   39.8830   33.0890   46.1940 C   0  0  0  0  0  0  0  0  0  0  0  0
   38.9580   32.1590   46.4920 N   0  0  0  0  0  0  0  0  0  0  0  0
   40.6130   31.8700   44.2150 C   0  0  0  0  0  0  0  0  0  0  0  0
   40.2030   30.8230   44.7420 O   0  0  0  0  0  0  0  0  0  0  0  0
   40.4850   33.1050   44.9060 N   0  0  0  0  0  0  0  0  0  0  0  0
   39.1780   33.8630   49.1850 H   0  0  0  0  0  0  0  0  0  0  0  0
   40.7210   34.6500   47.2700 H   0  0  0  0  0  0  0  0  0  0  0  0
   41.0780   31.8330   43.2010 H   0  0  0  0  0  0  0  0  0  0  0  0
   40.8160   34.0070   44.4980 H   0  0  0  0  0  0  0  0  0  0  0  0
   32.0040   26.9790   47.8780 C   0  0  0  0  0  0  0  0  0  0  0  0
   32.9380   25.9400   47.9370 F   0  0  0  0  0  0  0  0  0  0  0  0
   31.0930   26.5570   46.8970 F   0  0  0  0  0  0  0  0  0  0  0  0
   31.2950   27.1120   49.0470 F   0  0  0  0  0  0  0  0  0  0  0  0
  2  1  1  0  0  0  0
  3  2  1  0  0  0  0
  3 26  1  0  0  0  0
  4  3  2  0  0  0  0
  5  6  2  0  0  0  0
  5  4  1  0  0  0  0
  6  8  1  0  0  0  0
  7  6  1  0  0  0  0
  8 42  1  0  0  0  0
  8  2  2  0  0  0  0
  9  4  1  0  0  0  0
 10 11  1  0  0  0  0
 11 12  2  0  0  0  0
 11  5  1  0  0  0  0
 12 13  1  0  0  0  0
 14 12  1  0  0  0  0
 15 14  1  0  0  0  0
 15 16  1  0  0  0  0
 17 15  1  0  0  0  0
 18 17  1  0  0  0  0
 19 17  2  0  0  0  0
 19 20  1  0  0  0  0
 20 14  2  0  0  0  0
 21 20  1  0  0  0  0
 21 10  2  0  0  0  0
 22 28  1  0  0  0  0
 23 29  1  0  0  0  0
 23 22  1  0  0  0  0
 24 23  2  0  0  0  0
 25 24  1  0  0  0  0
 25 26  2  0  0  0  0
 26 27  1  0  0  0  0
 27 22  2  0  0  0  0
 30 31  2  0  0  0  0
 30 24  1  0  0  0  0
 31 38  1  0  0  0  0
 32 39  1  0  0  0  0
 32 31  1  0  0  0  0
 33 34  2  0  0  0  0
 33 32  1  0  0  0  0
 34 30  1  0  0  0  0
 35 36  2  0  0  0  0
 35 37  1  0  0  0  0
 37 33  1  0  0  0  0
 40 35  1  0  0  0  0
 41 37  1  0  0  0  0
 42 43  1  0  0  0  0
 42 45  1  0  0  0  0
 44 42  1  0  0  0  0
M  END
>  <minimizedAffinity>
-7.6042943

>  <minimizedRMSD>
0.555452466

$$$$
