
 OpenBabel03272510143D

 44 48  0  0  0  0  0  0  0  0999 V2000
   35.9850   26.3340   31.4910 C   0  0  0  0  0  0  0  0  0  0  0  0
   35.0870   25.3890   31.0460 C   0  0  0  0  0  0  0  0  0  0  0  0
   35.6700   24.1390   31.2370 C   0  0  0  0  0  0  0  0  0  0  0  0
   36.8680   24.3450   31.7750 N   0  0  0  0  0  0  0  0  0  0  0  0
   37.0250   25.6150   31.9120 N   0  0  0  0  0  0  0  0  0  0  0  0
   34.0950   25.4000   30.6100 H   0  0  0  0  0  0  0  0  0  0  0  0
   35.2990   23.1410   31.0220 H   0  0  0  0  0  0  0  0  0  0  0  0
   37.8490   23.3580   32.1310 C   0  0  0  0  0  0  0  0  0  0  0  0
   38.2300   22.9340   31.1540 H   0  0  0  0  0  0  0  0  0  0  0  0
   37.4160   22.4880   32.6520 H   0  0  0  0  0  0  0  0  0  0  0  0
   38.9850   23.9930   32.8490 C   0  0  0  0  0  0  0  0  0  0  0  0
   39.3290   24.9380   32.3130 H   0  0  0  0  0  0  0  0  0  0  0  0
   39.8900   23.3330   32.8450 H   0  0  0  0  0  0  0  0  0  0  0  0
   38.5480   25.6060   34.8530 C   0  0  0  0  0  3  0  0  0  0  0  0
   38.7260   24.4010   34.2240 C   0  0  0  0  0  0  0  0  0  0  0  0
   38.6000   23.2880   35.0710 C   0  0  0  0  0  0  0  0  0  0  0  0
   38.7080   22.2350   34.7630 H   0  0  0  0  0  0  0  0  0  0  0  0
   38.3190   23.3820   36.4260 C   0  0  0  0  0  0  0  0  0  0  0  0
   38.1490   22.5340   37.4380 N   0  0  0  0  0  0  0  0  0  0  0  0
   38.2110   21.4800   37.3500 H   0  0  0  0  0  0  0  0  0  0  0  0
   37.8890   23.1740   38.5770 C   0  0  0  0  0  0  0  0  0  0  0  0
   37.7130   22.6870   39.5380 H   0  0  0  0  0  0  0  0  0  0  0  0
   37.8810   24.5330   38.3350 C   0  0  0  0  0  3  0  0  0  0  0  0
   38.1520   24.6310   36.9870 C   0  0  0  0  0  0  0  0  0  0  0  0
   38.2680   25.7400   36.1920 C   0  0  0  0  0  3  0  0  0  0  0  0
   35.5580   27.6390   31.3690 O   0  0  0  0  0  0  0  0  0  0  0  0
   34.7200   30.2970   34.5200 C   0  0  0  0  0  0  0  0  0  0  0  0
   35.8020   29.4680   34.5640 C   0  0  0  0  0  0  0  0  0  0  0  0
   36.1430   28.5740   33.5770 C   0  0  0  0  0  0  0  0  0  0  0  0
   35.3730   28.4720   32.4530 C   0  0  0  0  0  0  0  0  0  0  0  0
   34.2590   29.3160   32.3930 C   0  0  0  0  0  0  0  0  0  0  0  0
   33.9600   30.1820   33.3870 N   0  0  0  0  0  0  0  0  0  0  0  0
   36.4540   29.4980   35.4270 H   0  0  0  0  0  0  0  0  0  0  0  0
   37.0020   27.9210   33.6200 H   0  0  0  0  0  0  0  0  0  0  0  0
   33.5690   29.3390   31.5660 H   0  0  0  0  0  0  0  0  0  0  0  0
   33.0570   31.3040   36.0760 C   0  0  0  0  0  0  0  0  0  0  0  0
   34.3520   31.2270   35.5420 C   0  0  0  0  0  0  0  0  0  0  0  0
   35.2850   32.1040   36.0430 C   0  0  0  0  0  0  0  0  0  0  0  0
   34.9290   32.9950   37.0180 N   0  0  0  0  0  0  0  0  0  0  0  0
   33.6570   33.0260   37.5000 C   0  0  0  0  0  0  0  0  0  0  0  0
   32.6980   32.1760   37.0350 N   0  0  0  0  0  0  0  0  0  0  0  0
   32.2890   30.6340   35.7140 H   0  0  0  0  0  0  0  0  0  0  0  0
   36.3160   32.1490   35.7190 H   0  0  0  0  0  0  0  0  0  0  0  0
   33.3680   33.7330   38.2760 H   0  0  0  0  0  0  0  0  0  0  0  0
  1  5  2  0  0  0  0
  2  3  2  0  0  0  0
  2  1  1  0  0  0  0
  3  4  1  0  0  0  0
  4  5  1  0  0  0  0
  4  8  1  0  0  0  0
  6  2  1  0  0  0  0
  7  3  1  0  0  0  0
  8 10  1  0  0  0  0
  8 11  1  0  0  0  0
  9  8  1  0  0  0  0
 11 15  1  0  0  0  0
 12 11  1  0  0  0  0
 13 11  1  0  0  0  0
 14 25  1  0  0  0  0
 15 14  2  0  0  0  0
 15 16  1  0  0  0  0
 16 18  2  0  0  0  0
 17 16  1  0  0  0  0
 18 24  1  0  0  0  0
 18 19  1  0  0  0  0
 19 21  1  0  0  0  0
 20 19  1  0  0  0  0
 21 22  1  0  0  0  0
 23 21  2  0  0  0  0
 24 23  1  0  0  0  0
 25 24  2  0  0  0  0
 26  1  1  0  0  0  0
 26 30  1  0  0  0  0
 27 28  1  0  0  0  0
 27 37  1  0  0  0  0
 28 33  1  0  0  0  0
 29 34  1  0  0  0  0
 29 28  2  0  0  0  0
 30 29  1  0  0  0  0
 31 30  2  0  0  0  0
 31 32  1  0  0  0  0
 32 27  2  0  0  0  0
 35 31  1  0  0  0  0
 36 41  1  0  0  0  0
 37 38  1  0  0  0  0
 37 36  2  0  0  0  0
 38 39  2  0  0  0  0
 39 40  1  0  0  0  0
 40 44  1  0  0  0  0
 41 40  2  0  0  0  0
 42 36  1  0  0  0  0
 43 38  1  0  0  0  0
M  END
>  <minimizedAffinity>
-6.51089525

$$$$

 OpenBabel03272510143D

 44 48  0  0  0  0  0  0  0  0999 V2000
   36.6840   27.8140   32.2840 C   0  0  0  0  0  0  0  0  0  0  0  0
   36.2290   28.7170   31.3480 C   0  0  0  0  0  0  0  0  0  0  0  0
   35.5060   29.6930   32.0300 C   0  0  0  0  0  0  0  0  0  0  0  0
   35.5370   29.3730   33.3200 N   0  0  0  0  0  0  0  0  0  0  0  0
   36.2200   28.2890   33.4400 N   0  0  0  0  0  0  0  0  0  0  0  0
   36.3020   28.8310   30.2740 H   0  0  0  0  0  0  0  0  0  0  0  0
   34.9870   30.5750   31.6680 H   0  0  0  0  0  0  0  0  0  0  0  0
   34.9120   30.0700   34.4100 C   0  0  0  0  0  0  0  0  0  0  0  0
   34.2910   29.2980   34.9540 H   0  0  0  0  0  0  0  0  0  0  0  0
   34.1780   30.8210   34.0770 H   0  0  0  0  0  0  0  0  0  0  0  0
   35.9410   30.5980   35.3430 C   0  0  0  0  0  0  0  0  0  0  0  0
   36.9890   30.4550   34.9190 H   0  0  0  0  0  0  0  0  0  0  0  0
   35.9550   30.0210   36.3030 H   0  0  0  0  0  0  0  0  0  0  0  0
   36.3790   33.1620   35.1370 C   0  0  0  0  0  3  0  0  0  0  0  0
   35.8450   32.0160   35.6670 C   0  0  0  0  0  0  0  0  0  0  0  0
   34.9760   32.2350   36.7470 C   0  0  0  0  0  0  0  0  0  0  0  0
   34.4460   31.4490   37.3110 H   0  0  0  0  0  0  0  0  0  0  0  0
   34.6720   33.4930   37.2460 C   0  0  0  0  0  0  0  0  0  0  0  0
   33.9120   33.9880   38.2210 N   0  0  0  0  0  0  0  0  0  0  0  0
   33.3240   33.3990   38.8760 H   0  0  0  0  0  0  0  0  0  0  0  0
   33.9820   35.3170   38.2720 C   0  0  0  0  0  0  0  0  0  0  0  0
   33.4460   35.9410   38.9880 H   0  0  0  0  0  0  0  0  0  0  0  0
   34.8350   35.7590   37.2800 C   0  0  0  0  0  3  0  0  0  0  0  0
   35.2480   34.6000   36.6590 C   0  0  0  0  0  0  0  0  0  0  0  0
   36.1020   34.4250   35.6020 C   0  0  0  0  0  3  0  0  0  0  0  0
   37.4240   26.7720   31.7690 O   0  0  0  0  0  0  0  0  0  0  0  0
   36.3580   22.7040   31.9000 C   0  0  0  0  0  0  0  0  0  0  0  0
   35.5050   23.6420   31.3980 C   0  0  0  0  0  0  0  0  0  0  0  0
   35.7790   24.9870   31.3210 C   0  0  0  0  0  0  0  0  0  0  0  0
   36.9780   25.4660   31.7670 C   0  0  0  0  0  0  0  0  0  0  0  0
   37.8650   24.5160   32.2840 C   0  0  0  0  0  0  0  0  0  0  0  0
   37.5550   23.2010   32.3410 N   0  0  0  0  0  0  0  0  0  0  0  0
   34.5370   23.3300   31.0280 H   0  0  0  0  0  0  0  0  0  0  0  0
   35.0970   25.7230   30.9220 H   0  0  0  0  0  0  0  0  0  0  0  0
   38.8420   24.7560   32.6690 H   0  0  0  0  0  0  0  0  0  0  0  0
   36.2680   20.4170   30.9190 C   0  0  0  0  0  0  0  0  0  0  0  0
   36.0830   21.3040   31.9910 C   0  0  0  0  0  0  0  0  0  0  0  0
   35.6120   20.7690   33.1660 C   0  0  0  0  0  0  0  0  0  0  0  0
   35.3470   19.4310   33.2490 N   0  0  0  0  0  0  0  0  0  0  0  0
   35.5440   18.6160   32.1770 C   0  0  0  0  0  0  0  0  0  0  0  0
   36.0110   19.0990   30.9910 N   0  0  0  0  0  0  0  0  0  0  0  0
   36.6390   20.7910   29.9740 H   0  0  0  0  0  0  0  0  0  0  0  0
   35.4260   21.3420   34.0650 H   0  0  0  0  0  0  0  0  0  0  0  0
   35.3340   17.5480   32.2370 H   0  0  0  0  0  0  0  0  0  0  0  0
  1  5  2  0  0  0  0
  2  3  2  0  0  0  0
  2  1  1  0  0  0  0
  3  4  1  0  0  0  0
  4  5  1  0  0  0  0
  4  8  1  0  0  0  0
  6  2  1  0  0  0  0
  7  3  1  0  0  0  0
  8  9  1  0  0  0  0
  8 11  1  0  0  0  0
 10  8  1  0  0  0  0
 11 15  1  0  0  0  0
 11 13  1  0  0  0  0
 12 11  1  0  0  0  0
 14 25  2  0  0  0  0
 14 15  1  0  0  0  0
 15 16  2  0  0  0  0
 16 18  1  0  0  0  0
 16 17  1  0  0  0  0
 18 19  1  0  0  0  0
 19 21  1  0  0  0  0
 19 20  1  0  0  0  0
 21 22  1  0  0  0  0
 23 21  2  0  0  0  0
 24 18  2  0  0  0  0
 24 23  1  0  0  0  0
 25 24  1  0  0  0  0
 26  1  1  0  0  0  0
 27 37  1  0  0  0  0
 27 32  1  0  0  0  0
 28 27  2  0  0  0  0
 29 28  1  0  0  0  0
 29 30  2  0  0  0  0
 30 26  1  0  0  0  0
 30 31  1  0  0  0  0
 31 32  2  0  0  0  0
 31 35  1  0  0  0  0
 33 28  1  0  0  0  0
 34 29  1  0  0  0  0
 36 41  2  0  0  0  0
 36 37  1  0  0  0  0
 37 38  2  0  0  0  0
 38 39  1  0  0  0  0
 38 43  1  0  0  0  0
 40 44  1  0  0  0  0
 40 39  2  0  0  0  0
 41 40  1  0  0  0  0
 42 36  1  0  0  0  0
M  END
>  <minimizedAffinity>
-6.39889288

$$$$

 OpenBabel03272510143D

 44 48  0  0  0  0  0  0  0  0999 V2000
   36.1060   26.1250   31.4130 C   0  0  0  0  0  0  0  0  0  0  0  0
   35.1270   25.2500   30.9960 C   0  0  0  0  0  0  0  0  0  0  0  0
   35.6190   23.9600   31.1770 C   0  0  0  0  0  0  0  0  0  0  0  0
   36.8430   24.0750   31.6830 N   0  0  0  0  0  0  0  0  0  0  0  0
   37.1000   25.3300   31.8090 N   0  0  0  0  0  0  0  0  0  0  0  0
   34.1280   25.3350   30.5870 H   0  0  0  0  0  0  0  0  0  0  0  0
   35.1680   22.9930   30.9770 H   0  0  0  0  0  0  0  0  0  0  0  0
   37.7550   23.0170   32.0170 C   0  0  0  0  0  0  0  0  0  0  0  0
   38.0830   22.5680   31.0320 H   0  0  0  0  0  0  0  0  0  0  0  0
   37.2710   22.1810   32.5470 H   0  0  0  0  0  0  0  0  0  0  0  0
   38.9500   23.5650   32.7110 C   0  0  0  0  0  0  0  0  0  0  0  0
   38.9670   24.7040   32.6570 H   0  0  0  0  0  0  0  0  0  0  0  0
   39.8970   23.2550   32.1990 H   0  0  0  0  0  0  0  0  0  0  0  0
   39.7400   22.2810   34.8400 C   0  0  0  0  0  3  0  0  0  0  0  0
   39.0720   23.2430   34.1270 C   0  0  0  0  0  0  0  0  0  0  0  0
   38.3660   24.1590   34.9220 C   0  0  0  0  0  0  0  0  0  0  0  0
   37.7650   25.0030   34.5430 H   0  0  0  0  0  0  0  0  0  0  0  0
   38.3360   24.1110   36.3070 C   0  0  0  0  0  0  0  0  0  0  0  0
   37.7740   24.8180   37.2870 N   0  0  0  0  0  0  0  0  0  0  0  0
   37.1600   25.6680   37.1330 H   0  0  0  0  0  0  0  0  0  0  0  0
   38.0790   24.3240   38.4860 C   0  0  0  0  0  0  0  0  0  0  0  0
   37.7330   24.7370   39.4340 H   0  0  0  0  0  0  0  0  0  0  0  0
   38.8930   23.2210   38.3220 C   0  0  0  0  0  3  0  0  0  0  0  0
   39.0340   23.1140   36.9550 C   0  0  0  0  0  0  0  0  0  0  0  0
   39.7350   22.2010   36.2130 C   0  0  0  0  0  3  0  0  0  0  0  0
   35.7770   27.4590   31.2960 O   0  0  0  0  0  0  0  0  0  0  0  0
   34.8980   30.0960   34.4540 C   0  0  0  0  0  0  0  0  0  0  0  0
   35.9340   29.2130   34.5380 C   0  0  0  0  0  0  0  0  0  0  0  0
   36.2840   28.3220   33.5520 C   0  0  0  0  0  0  0  0  0  0  0  0
   35.5730   28.2790   32.3860 C   0  0  0  0  0  0  0  0  0  0  0  0
   34.5070   29.1790   32.2840 C   0  0  0  0  0  0  0  0  0  0  0  0
   34.1970   30.0400   33.2790 N   0  0  0  0  0  0  0  0  0  0  0  0
   36.5390   29.1940   35.4350 H   0  0  0  0  0  0  0  0  0  0  0  0
   37.1070   27.6260   33.6270 H   0  0  0  0  0  0  0  0  0  0  0  0
   33.8660   29.2520   31.4210 H   0  0  0  0  0  0  0  0  0  0  0  0
   35.3730   32.0350   35.9410 C   0  0  0  0  0  0  0  0  0  0  0  0
   34.5210   31.0240   35.4730 C   0  0  0  0  0  0  0  0  0  0  0  0
   33.2730   30.9470   36.0460 C   0  0  0  0  0  0  0  0  0  0  0  0
   32.9160   31.8340   37.0240 N   0  0  0  0  0  0  0  0  0  0  0  0
   33.7840   32.7960   37.4400 C   0  0  0  0  0  0  0  0  0  0  0  0
   35.0310   32.9120   36.9020 N   0  0  0  0  0  0  0  0  0  0  0  0
   36.3650   32.1350   35.5200 H   0  0  0  0  0  0  0  0  0  0  0  0
   32.5220   30.2160   35.7780 H   0  0  0  0  0  0  0  0  0  0  0  0
   33.5050   33.5050   38.2190 H   0  0  0  0  0  0  0  0  0  0  0  0
  1  5  2  0  0  0  0
  2  3  2  0  0  0  0
  2  1  1  0  0  0  0
  3  4  1  0  0  0  0
  4  5  1  0  0  0  0
  4  8  1  0  0  0  0
  6  2  1  0  0  0  0
  7  3  1  0  0  0  0
  8 10  1  0  0  0  0
  8 11  1  0  0  0  0
  9  8  1  0  0  0  0
 11 15  1  0  0  0  0
 12 11  1  0  0  0  0
 13 11  1  0  0  0  0
 14 25  1  0  0  0  0
 15 14  2  0  0  0  0
 15 16  1  0  0  0  0
 16 18  2  0  0  0  0
 17 16  1  0  0  0  0
 18 24  1  0  0  0  0
 18 19  1  0  0  0  0
 19 21  1  0  0  0  0
 20 19  1  0  0  0  0
 21 22  1  0  0  0  0
 23 21  2  0  0  0  0
 24 23  1  0  0  0  0
 25 24  2  0  0  0  0
 26  1  1  0  0  0  0
 26 30  1  0  0  0  0
 27 28  1  0  0  0  0
 27 37  1  0  0  0  0
 28 33  1  0  0  0  0
 29 34  1  0  0  0  0
 29 28  2  0  0  0  0
 30 29  1  0  0  0  0
 31 30  2  0  0  0  0
 31 32  1  0  0  0  0
 32 27  2  0  0  0  0
 35 31  1  0  0  0  0
 36 41  1  0  0  0  0
 37 36  2  0  0  0  0
 37 38  1  0  0  0  0
 38 39  2  0  0  0  0
 39 40  1  0  0  0  0
 40 44  1  0  0  0  0
 41 40  2  0  0  0  0
 42 36  1  0  0  0  0
 43 38  1  0  0  0  0
M  END
>  <minimizedAffinity>
-6.36365938

$$$$

 OpenBabel03272510143D

 44 48  0  0  0  0  0  0  0  0999 V2000
   36.7850   25.3520   31.1740 C   0  0  0  0  0  0  0  0  0  0  0  0
   35.4900   24.8820   31.1860 C   0  0  0  0  0  0  0  0  0  0  0  0
   35.5530   23.4920   31.2270 C   0  0  0  0  0  0  0  0  0  0  0  0
   36.8390   23.1590   31.2390 N   0  0  0  0  0  0  0  0  0  0  0  0
   37.5280   24.2460   31.2080 N   0  0  0  0  0  0  0  0  0  0  0  0
   34.5010   25.3220   31.1710 H   0  0  0  0  0  0  0  0  0  0  0  0
   34.7650   22.7450   31.2490 H   0  0  0  0  0  0  0  0  0  0  0  0
   37.4020   21.8370   31.2570 C   0  0  0  0  0  0  0  0  0  0  0  0
   38.5070   21.9680   31.0590 H   0  0  0  0  0  0  0  0  0  0  0  0
   37.0510   21.2080   30.4220 H   0  0  0  0  0  0  0  0  0  0  0  0
   37.2270   21.2180   32.5970 C   0  0  0  0  0  0  0  0  0  0  0  0
   37.3430   20.0860   32.5410 H   0  0  0  0  0  0  0  0  0  0  0  0
   36.1860   21.3670   32.9820 H   0  0  0  0  0  0  0  0  0  0  0  0
   39.5120   21.8770   33.6720 C   0  0  0  0  0  3  0  0  0  0  0  0
   38.1600   21.6530   33.6300 C   0  0  0  0  0  0  0  0  0  0  0  0
   37.4940   21.9320   34.8340 C   0  0  0  0  0  0  0  0  0  0  0  0
   36.4110   21.8170   35.0060 H   0  0  0  0  0  0  0  0  0  0  0  0
   38.1320   22.3950   35.9740 C   0  0  0  0  0  0  0  0  0  0  0  0
   37.7730   22.7330   37.2120 N   0  0  0  0  0  0  0  0  0  0  0  0
   36.7800   22.6940   37.5770 H   0  0  0  0  0  0  0  0  0  0  0  0
   38.8200   23.1280   37.9360 C   0  0  0  0  0  0  0  0  0  0  0  0
   38.7690   23.4520   38.9760 H   0  0  0  0  0  0  0  0  0  0  0  0
   39.9560   23.0580   37.1550 C   0  0  0  0  0  3  0  0  0  0  0  0
   39.4950   22.5980   35.9400 C   0  0  0  0  0  0  0  0  0  0  0  0
   40.1790   22.3360   34.7820 C   0  0  0  0  0  3  0  0  0  0  0  0
   36.9020   26.7250   31.1300 O   0  0  0  0  0  0  0  0  0  0  0  0
   35.5440   29.3840   34.0940 C   0  0  0  0  0  0  0  0  0  0  0  0
   36.4380   28.3970   34.3870 C   0  0  0  0  0  0  0  0  0  0  0  0
   36.9280   27.4910   33.4760 C   0  0  0  0  0  0  0  0  0  0  0  0
   36.5200   27.5430   32.1740 C   0  0  0  0  0  0  0  0  0  0  0  0
   35.6040   28.5510   31.8570 C   0  0  0  0  0  0  0  0  0  0  0  0
   35.1470   29.4230   32.7850 N   0  0  0  0  0  0  0  0  0  0  0  0
   36.8020   28.2990   35.4010 H   0  0  0  0  0  0  0  0  0  0  0  0
   37.6360   26.7110   33.7170 H   0  0  0  0  0  0  0  0  0  0  0  0
   35.2010   28.7060   30.8700 H   0  0  0  0  0  0  0  0  0  0  0  0
   33.6530   30.4590   35.3050 C   0  0  0  0  0  0  0  0  0  0  0  0
   35.0230   30.3290   35.0320 C   0  0  0  0  0  0  0  0  0  0  0  0
   35.8760   31.1650   35.7130 C   0  0  0  0  0  0  0  0  0  0  0  0
   35.3740   32.0700   36.6060 N   0  0  0  0  0  0  0  0  0  0  0  0
   34.0350   32.1550   36.8330 C   0  0  0  0  0  0  0  0  0  0  0  0
   33.1500   31.3460   36.1820 N   0  0  0  0  0  0  0  0  0  0  0  0
   32.9440   29.8220   34.7940 H   0  0  0  0  0  0  0  0  0  0  0  0
   36.9510   31.1680   35.5950 H   0  0  0  0  0  0  0  0  0  0  0  0
   33.6290   32.8740   37.5430 H   0  0  0  0  0  0  0  0  0  0  0  0
  1  2  1  0  0  0  0
  1  5  2  0  0  0  0
  2  3  2  0  0  0  0
  3  4  1  0  0  0  0
  3  7  1  0  0  0  0
  4  8  1  0  0  0  0
  5  4  1  0  0  0  0
  6  2  1  0  0  0  0
  8 11  1  0  0  0  0
  9  8  1  0  0  0  0
 10  8  1  0  0  0  0
 11 13  1  0  0  0  0
 11 15  1  0  0  0  0
 12 11  1  0  0  0  0
 14 25  1  0  0  0  0
 15 14  2  0  0  0  0
 15 16  1  0  0  0  0
 16 17  1  0  0  0  0
 16 18  2  0  0  0  0
 18 19  1  0  0  0  0
 19 20  1  0  0  0  0
 19 21  1  0  0  0  0
 21 22  1  0  0  0  0
 23 21  2  0  0  0  0
 24 18  1  0  0  0  0
 24 23  1  0  0  0  0
 25 24  2  0  0  0  0
 26  1  1  0  0  0  0
 26 30  1  0  0  0  0
 27 28  1  0  0  0  0
 27 37  1  0  0  0  0
 28 33  1  0  0  0  0
 29 34  1  0  0  0  0
 29 28  2  0  0  0  0
 30 29  1  0  0  0  0
 31 30  2  0  0  0  0
 31 32  1  0  0  0  0
 32 27  2  0  0  0  0
 35 31  1  0  0  0  0
 36 41  1  0  0  0  0
 37 36  2  0  0  0  0
 37 38  1  0  0  0  0
 38 39  2  0  0  0  0
 39 40  1  0  0  0  0
 40 44  1  0  0  0  0
 41 40  2  0  0  0  0
 42 36  1  0  0  0  0
 43 38  1  0  0  0  0
M  END
>  <minimizedAffinity>
-6.30484104

$$$$

 OpenBabel03272510143D

 44 48  0  0  0  0  0  0  0  0999 V2000
   38.4180   27.6650   31.0930 C   0  0  0  0  0  0  0  0  0  0  0  0
   38.8170   26.8410   30.0630 C   0  0  0  0  0  0  0  0  0  0  0  0
   39.9840   26.2010   30.4720 C   0  0  0  0  0  0  0  0  0  0  0  0
   40.2590   26.6350   31.6980 N   0  0  0  0  0  0  0  0  0  0  0  0
   39.3440   27.4760   32.0320 N   0  0  0  0  0  0  0  0  0  0  0  0
   38.4500   26.5950   29.0740 H   0  0  0  0  0  0  0  0  0  0  0  0
   40.6130   25.4770   29.9630 H   0  0  0  0  0  0  0  0  0  0  0  0
   41.3790   26.2760   32.5230 C   0  0  0  0  0  0  0  0  0  0  0  0
   42.2970   26.6460   31.9770 H   0  0  0  0  0  0  0  0  0  0  0  0
   41.5290   25.1860   32.5960 H   0  0  0  0  0  0  0  0  0  0  0  0
   41.2960   26.9660   33.8370 C   0  0  0  0  0  0  0  0  0  0  0  0
   41.1090   28.0820   33.6990 H   0  0  0  0  0  0  0  0  0  0  0  0
   42.2720   26.9190   34.3840 H   0  0  0  0  0  0  0  0  0  0  0  0
   39.2260   27.1180   35.4170 C   0  0  0  0  0  3  0  0  0  0  0  0
   40.2470   26.5060   34.7380 C   0  0  0  0  0  0  0  0  0  0  0  0
   40.2930   25.1130   34.9050 C   0  0  0  0  0  0  0  0  0  0  0  0
   41.0360   24.4380   34.4450 H   0  0  0  0  0  0  0  0  0  0  0  0
   39.3920   24.4020   35.6820 C   0  0  0  0  0  0  0  0  0  0  0  0
   39.1970   23.1270   36.0130 N   0  0  0  0  0  0  0  0  0  0  0  0
   39.8000   22.3240   35.6760 H   0  0  0  0  0  0  0  0  0  0  0  0
   38.1470   22.9840   36.8200 C   0  0  0  0  0  0  0  0  0  0  0  0
   37.7950   22.0320   37.2210 H   0  0  0  0  0  0  0  0  0  0  0  0
   37.5920   24.2250   37.0570 C   0  0  0  0  0  3  0  0  0  0  0  0
   38.3890   25.0880   36.3350 C   0  0  0  0  0  0  0  0  0  0  0  0
   38.3130   26.4480   36.1970 C   0  0  0  0  0  3  0  0  0  0  0  0
   37.2670   28.3820   30.8460 O   0  0  0  0  0  0  0  0  0  0  0  0
   35.2410   30.2660   34.0160 C   0  0  0  0  0  0  0  0  0  0  0  0
   35.5440   30.9410   32.8720 C   0  0  0  0  0  0  0  0  0  0  0  0
   36.2020   30.3970   31.7940 C   0  0  0  0  0  0  0  0  0  0  0  0
   36.6010   29.0910   31.8250 C   0  0  0  0  0  0  0  0  0  0  0  0
   36.2970   28.3840   32.9920 C   0  0  0  0  0  0  0  0  0  0  0  0
   35.6470   28.9580   34.0310 N   0  0  0  0  0  0  0  0  0  0  0  0
   35.2570   31.9800   32.7810 H   0  0  0  0  0  0  0  0  0  0  0  0
   36.4390   30.9400   30.8900 H   0  0  0  0  0  0  0  0  0  0  0  0
   36.5520   27.3500   33.1500 H   0  0  0  0  0  0  0  0  0  0  0  0
   35.1950   31.6430   36.0900 C   0  0  0  0  0  0  0  0  0  0  0  0
   34.5630   30.8200   35.1460 C   0  0  0  0  0  0  0  0  0  0  0  0
   33.2290   30.5520   35.3480 C   0  0  0  0  0  0  0  0  0  0  0  0
   32.5840   31.0800   36.4310 N   0  0  0  0  0  0  0  0  0  0  0  0
   33.2470   31.8740   37.3170 C   0  0  0  0  0  0  0  0  0  0  0  0
   34.5680   32.1690   37.1580 N   0  0  0  0  0  0  0  0  0  0  0  0
   36.2430   31.8840   35.9720 H   0  0  0  0  0  0  0  0  0  0  0  0
   32.6260   29.9330   34.6970 H   0  0  0  0  0  0  0  0  0  0  0  0
   32.7380   32.2970   38.1810 H   0  0  0  0  0  0  0  0  0  0  0  0
  1  5  2  0  0  0  0
  2  3  2  0  0  0  0
  2  1  1  0  0  0  0
  3  4  1  0  0  0  0
  4  5  1  0  0  0  0
  4  8  1  0  0  0  0
  6  2  1  0  0  0  0
  7  3  1  0  0  0  0
  8 10  1  0  0  0  0
  8 11  1  0  0  0  0
  9  8  1  0  0  0  0
 11 13  1  0  0  0  0
 11 15  1  0  0  0  0
 12 11  1  0  0  0  0
 14 25  1  0  0  0  0
 15 16  1  0  0  0  0
 15 14  2  0  0  0  0
 16 18  2  0  0  0  0
 17 16  1  0  0  0  0
 18 19  1  0  0  0  0
 18 24  1  0  0  0  0
 19 21  1  0  0  0  0
 20 19  1  0  0  0  0
 21 23  2  0  0  0  0
 21 22  1  0  0  0  0
 24 23  1  0  0  0  0
 25 24  2  0  0  0  0
 26  1  1  0  0  0  0
 26 30  1  0  0  0  0
 27 32  1  0  0  0  0
 27 37  1  0  0  0  0
 28 27  2  0  0  0  0
 29 30  2  0  0  0  0
 29 28  1  0  0  0  0
 30 31  1  0  0  0  0
 31 35  1  0  0  0  0
 31 32  2  0  0  0  0
 33 28  1  0  0  0  0
 34 29  1  0  0  0  0
 36 41  1  0  0  0  0
 37 38  1  0  0  0  0
 37 36  2  0  0  0  0
 38 39  2  0  0  0  0
 39 40  1  0  0  0  0
 40 44  1  0  0  0  0
 41 40  2  0  0  0  0
 42 36  1  0  0  0  0
 43 38  1  0  0  0  0
M  END
>  <minimizedAffinity>
-6.26237488

$$$$

 OpenBabel03272510143D

 44 48  0  0  0  0  0  0  0  0999 V2000
   36.1630   28.1050   31.4140 C   0  0  0  0  0  0  0  0  0  0  0  0
   36.9540   28.6130   30.4060 C   0  0  0  0  0  0  0  0  0  0  0  0
   36.7150   29.9830   30.3400 C   0  0  0  0  0  0  0  0  0  0  0  0
   35.8160   30.2690   31.2770 N   0  0  0  0  0  0  0  0  0  0  0  0
   35.5150   29.1730   31.8810 N   0  0  0  0  0  0  0  0  0  0  0  0
   37.6710   28.2110   29.7010 H   0  0  0  0  0  0  0  0  0  0  0  0
   37.1310   30.7460   29.6900 H   0  0  0  0  0  0  0  0  0  0  0  0
   35.2400   31.5500   31.5760 C   0  0  0  0  0  0  0  0  0  0  0  0
   34.1920   31.3400   31.9440 H   0  0  0  0  0  0  0  0  0  0  0  0
   35.0910   32.1750   30.6800 H   0  0  0  0  0  0  0  0  0  0  0  0
   36.0020   32.2190   32.6620 C   0  0  0  0  0  0  0  0  0  0  0  0
   36.0420   33.3460   32.4980 H   0  0  0  0  0  0  0  0  0  0  0  0
   37.0780   31.9060   32.6580 H   0  0  0  0  0  0  0  0  0  0  0  0
   36.0400   32.0410   35.2650 C   0  0  0  0  0  3  0  0  0  0  0  0
   35.4820   32.0420   34.0130 C   0  0  0  0  0  0  0  0  0  0  0  0
   34.0900   31.8680   34.0040 C   0  0  0  0  0  0  0  0  0  0  0  0
   33.4550   31.8380   33.1030 H   0  0  0  0  0  0  0  0  0  0  0  0
   33.3290   31.7110   35.1520 C   0  0  0  0  0  0  0  0  0  0  0  0
   32.0400   31.5340   35.4410 N   0  0  0  0  0  0  0  0  0  0  0  0
   31.2690   31.4780   34.7170 H   0  0  0  0  0  0  0  0  0  0  0  0
   31.8390   31.4380   36.7540 C   0  0  0  0  0  0  0  0  0  0  0  0
   30.8670   31.2910   37.2250 H   0  0  0  0  0  0  0  0  0  0  0  0
   33.0530   31.5540   37.4020 C   0  0  0  0  0  3  0  0  0  0  0  0
   33.9600   31.7220   36.3780 C   0  0  0  0  0  0  0  0  0  0  0  0
   35.3190   31.8890   36.4260 C   0  0  0  0  0  3  0  0  0  0  0  0
   36.2790   26.7460   31.6110 O   0  0  0  0  0  0  0  0  0  0  0  0
   38.2200   24.7900   34.7890 C   0  0  0  0  0  0  0  0  0  0  0  0
   37.8260   26.0910   34.8960 C   0  0  0  0  0  0  0  0  0  0  0  0
   37.1880   26.7980   33.9050 C   0  0  0  0  0  0  0  0  0  0  0  0
   36.9070   26.1980   32.7100 C   0  0  0  0  0  0  0  0  0  0  0  0
   37.3050   24.8640   32.5850 C   0  0  0  0  0  0  0  0  0  0  0  0
   37.9310   24.2040   33.5860 N   0  0  0  0  0  0  0  0  0  0  0  0
   38.0180   26.6260   35.8160 H   0  0  0  0  0  0  0  0  0  0  0  0
   36.8790   27.8290   33.9980 H   0  0  0  0  0  0  0  0  0  0  0  0
   37.1460   24.2710   31.6990 H   0  0  0  0  0  0  0  0  0  0  0  0
   40.0970   23.3640   35.5930 C   0  0  0  0  0  0  0  0  0  0  0  0
   38.8890   24.0450   35.8100 C   0  0  0  0  0  0  0  0  0  0  0  0
   38.3500   23.9690   37.0720 C   0  0  0  0  0  0  0  0  0  0  0  0
   38.9900   23.2530   38.0450 N   0  0  0  0  0  0  0  0  0  0  0  0
   40.1600   22.6100   37.7790 C   0  0  0  0  0  0  0  0  0  0  0  0
   40.7340   22.6570   36.5440 N   0  0  0  0  0  0  0  0  0  0  0  0
   40.5600   23.3960   34.6160 H   0  0  0  0  0  0  0  0  0  0  0  0
   37.4260   24.4460   37.3710 H   0  0  0  0  0  0  0  0  0  0  0  0
   40.6740   22.0380   38.5500 H   0  0  0  0  0  0  0  0  0  0  0  0
  1 26  1  0  0  0  0
  1  5  2  0  0  0  0
  2  1  1  0  0  0  0
  3  2  2  0  0  0  0
  3  4  1  0  0  0  0
  4  8  1  0  0  0  0
  4  5  1  0  0  0  0
  6  2  1  0  0  0  0
  7  3  1  0  0  0  0
  8  9  1  0  0  0  0
  8 11  1  0  0  0  0
 10  8  1  0  0  0  0
 11 15  1  0  0  0  0
 12 11  1  0  0  0  0
 13 11  1  0  0  0  0
 14 25  1  0  0  0  0
 15 14  2  0  0  0  0
 16 15  1  0  0  0  0
 16 18  2  0  0  0  0
 17 16  1  0  0  0  0
 18 19  1  0  0  0  0
 18 24  1  0  0  0  0
 19 21  1  0  0  0  0
 20 19  1  0  0  0  0
 21 22  1  0  0  0  0
 21 23  2  0  0  0  0
 24 25  2  0  0  0  0
 24 23  1  0  0  0  0
 26 30  1  0  0  0  0
 27 28  1  0  0  0  0
 27 37  1  0  0  0  0
 28 33  1  0  0  0  0
 29 34  1  0  0  0  0
 29 28  2  0  0  0  0
 30 29  1  0  0  0  0
 31 30  2  0  0  0  0
 31 32  1  0  0  0  0
 32 27  2  0  0  0  0
 35 31  1  0  0  0  0
 36 37  2  0  0  0  0
 36 41  1  0  0  0  0
 37 38  1  0  0  0  0
 38 43  1  0  0  0  0
 38 39  2  0  0  0  0
 40 39  1  0  0  0  0
 40 44  1  0  0  0  0
 41 40  2  0  0  0  0
 42 36  1  0  0  0  0
M  END
>  <minimizedAffinity>
-6.19185448

$$$$

 OpenBabel03272510143D

 44 48  0  0  0  0  0  0  0  0999 V2000
   35.8750   28.6640   32.3150 C   0  0  0  0  0  0  0  0  0  0  0  0
   36.0830   29.5240   31.2580 C   0  0  0  0  0  0  0  0  0  0  0  0
   35.4800   30.7350   31.5830 C   0  0  0  0  0  0  0  0  0  0  0  0
   34.9360   30.5920   32.7870 N   0  0  0  0  0  0  0  0  0  0  0  0
   35.1780   29.3920   33.1880 N   0  0  0  0  0  0  0  0  0  0  0  0
   36.5780   29.4710   30.2970 H   0  0  0  0  0  0  0  0  0  0  0  0
   35.4130   31.6670   31.0290 H   0  0  0  0  0  0  0  0  0  0  0  0
   34.1860   31.5650   33.5320 C   0  0  0  0  0  0  0  0  0  0  0  0
   34.2140   32.5130   32.9170 H   0  0  0  0  0  0  0  0  0  0  0  0
   34.6690   31.8460   34.4820 H   0  0  0  0  0  0  0  0  0  0  0  0
   32.7720   31.1300   33.6740 C   0  0  0  0  0  0  0  0  0  0  0  0
   32.5040   30.3520   32.8850 H   0  0  0  0  0  0  0  0  0  0  0  0
   32.0650   31.9750   33.4740 H   0  0  0  0  0  0  0  0  0  0  0  0
   32.3910   30.9670   36.2500 C   0  0  0  0  0  3  0  0  0  0  0  0
   32.4120   30.5280   34.9510 C   0  0  0  0  0  0  0  0  0  0  0  0
   31.9560   29.2110   34.7840 C   0  0  0  0  0  0  0  0  0  0  0  0
   31.8960   28.6730   33.8220 H   0  0  0  0  0  0  0  0  0  0  0  0
   31.5160   28.4120   35.8280 C   0  0  0  0  0  0  0  0  0  0  0  0
   31.0450   27.1730   35.9640 N   0  0  0  0  0  0  0  0  0  0  0  0
   30.9100   26.4940   35.1620 H   0  0  0  0  0  0  0  0  0  0  0  0
   30.7620   26.8930   37.2360 C   0  0  0  0  0  0  0  0  0  0  0  0
   30.3640   25.9410   37.5890 H   0  0  0  0  0  0  0  0  0  0  0  0
   31.0540   27.9960   38.0130 C   0  0  0  0  0  3  0  0  0  0  0  0
   31.5220   28.9240   37.1080 C   0  0  0  0  0  0  0  0  0  0  0  0
   31.9610   30.2060   37.3110 C   0  0  0  0  0  3  0  0  0  0  0  0
   36.4130   27.4060   32.1520 O   0  0  0  0  0  0  0  0  0  0  0  0
   38.3870   25.0740   35.0430 C   0  0  0  0  0  0  0  0  0  0  0  0
   38.0670   26.3770   35.2860 C   0  0  0  0  0  0  0  0  0  0  0  0
   37.4230   27.2020   34.3940 C   0  0  0  0  0  0  0  0  0  0  0  0
   37.0590   26.7290   33.1660 C   0  0  0  0  0  0  0  0  0  0  0  0
   37.3810   25.3940   32.9020 C   0  0  0  0  0  0  0  0  0  0  0  0
   38.0150   24.6160   33.8080 N   0  0  0  0  0  0  0  0  0  0  0  0
   38.3260   26.8150   36.2400 H   0  0  0  0  0  0  0  0  0  0  0  0
   37.1730   28.2340   34.5940 H   0  0  0  0  0  0  0  0  0  0  0  0
   37.1520   24.8950   31.9750 H   0  0  0  0  0  0  0  0  0  0  0  0
   38.5500   23.8870   37.2260 C   0  0  0  0  0  0  0  0  0  0  0  0
   39.0600   24.2060   35.9590 C   0  0  0  0  0  0  0  0  0  0  0  0
   40.2670   23.6450   35.6150 C   0  0  0  0  0  0  0  0  0  0  0  0
   40.9110   22.8190   36.4940 N   0  0  0  0  0  0  0  0  0  0  0  0
   40.3690   22.5430   37.7120 C   0  0  0  0  0  0  0  0  0  0  0  0
   39.1750   23.0750   38.0980 N   0  0  0  0  0  0  0  0  0  0  0  0
   37.6030   24.3040   37.5410 H   0  0  0  0  0  0  0  0  0  0  0  0
   40.7690   23.8090   34.6710 H   0  0  0  0  0  0  0  0  0  0  0  0
   40.8770   21.8860   38.4160 H   0  0  0  0  0  0  0  0  0  0  0  0
  1  5  2  0  0  0  0
  2  3  2  0  0  0  0
  2  1  1  0  0  0  0
  3  4  1  0  0  0  0
  4  5  1  0  0  0  0
  4  8  1  0  0  0  0
  6  2  1  0  0  0  0
  7  3  1  0  0  0  0
  8 11  1  0  0  0  0
  8 10  1  0  0  0  0
  9  8  1  0  0  0  0
 11 15  1  0  0  0  0
 12 11  1  0  0  0  0
 13 11  1  0  0  0  0
 14 25  1  0  0  0  0
 15 14  2  0  0  0  0
 16 15  1  0  0  0  0
 16 18  2  0  0  0  0
 17 16  1  0  0  0  0
 18 19  1  0  0  0  0
 18 24  1  0  0  0  0
 19 21  1  0  0  0  0
 20 19  1  0  0  0  0
 21 22  1  0  0  0  0
 21 23  2  0  0  0  0
 24 25  2  0  0  0  0
 24 23  1  0  0  0  0
 26  1  1  0  0  0  0
 26 30  1  0  0  0  0
 27 28  1  0  0  0  0
 27 37  1  0  0  0  0
 28 33  1  0  0  0  0
 29 34  1  0  0  0  0
 29 28  2  0  0  0  0
 30 29  1  0  0  0  0
 31 30  2  0  0  0  0
 31 32  1  0  0  0  0
 32 27  2  0  0  0  0
 35 31  1  0  0  0  0
 36 42  1  0  0  0  0
 36 41  1  0  0  0  0
 37 36  2  0  0  0  0
 38 37  1  0  0  0  0
 38 39  2  0  0  0  0
 39 40  1  0  0  0  0
 40 41  2  0  0  0  0
 40 44  1  0  0  0  0
 43 38  1  0  0  0  0
M  END
>  <minimizedAffinity>
-6.17030239

$$$$

 OpenBabel03272510143D

 44 48  0  0  0  0  0  0  0  0999 V2000
   35.4060   28.7570   32.1650 C   0  0  0  0  0  0  0  0  0  0  0  0
   35.6560   29.8900   31.4230 C   0  0  0  0  0  0  0  0  0  0  0  0
   34.6360   30.7980   31.6940 C   0  0  0  0  0  0  0  0  0  0  0  0
   33.8160   30.2170   32.5630 N   0  0  0  0  0  0  0  0  0  0  0  0
   34.2800   29.0440   32.8190 N   0  0  0  0  0  0  0  0  0  0  0  0
   36.4180   30.2120   30.7240 H   0  0  0  0  0  0  0  0  0  0  0  0
   34.4600   31.8020   31.3190 H   0  0  0  0  0  0  0  0  0  0  0  0
   32.6060   30.7550   33.1210 C   0  0  0  0  0  0  0  0  0  0  0  0
   31.7590   30.2550   32.5640 H   0  0  0  0  0  0  0  0  0  0  0  0
   32.4740   31.8280   32.9070 H   0  0  0  0  0  0  0  0  0  0  0  0
   32.5010   30.4060   34.5620 C   0  0  0  0  0  0  0  0  0  0  0  0
   32.9640   29.3850   34.7690 H   0  0  0  0  0  0  0  0  0  0  0  0
   31.4320   30.2890   34.8760 H   0  0  0  0  0  0  0  0  0  0  0  0
   34.4240   31.4510   35.9820 C   0  0  0  0  0  3  0  0  0  0  0  0
   33.1510   31.3210   35.4930 C   0  0  0  0  0  0  0  0  0  0  0  0
   32.2570   32.3020   35.9510 C   0  0  0  0  0  0  0  0  0  0  0  0
   31.1910   32.3730   35.6780 H   0  0  0  0  0  0  0  0  0  0  0  0
   32.6150   33.3210   36.8200 C   0  0  0  0  0  0  0  0  0  0  0  0
   32.0060   34.3520   37.4030 N   0  0  0  0  0  0  0  0  0  0  0  0
   30.9840   34.5940   37.2700 H   0  0  0  0  0  0  0  0  0  0  0  0
   32.8430   35.0440   38.1750 C   0  0  0  0  0  0  0  0  0  0  0  0
   32.5690   35.9290   38.7510 H   0  0  0  0  0  0  0  0  0  0  0  0
   34.0910   34.4580   38.1200 C   0  0  0  0  0  3  0  0  0  0  0  0
   33.9170   33.3870   37.2690 C   0  0  0  0  0  0  0  0  0  0  0  0
   34.8180   32.4470   36.8440 C   0  0  0  0  0  3  0  0  0  0  0  0
   36.3310   27.7470   32.0090 O   0  0  0  0  0  0  0  0  0  0  0  0
   38.0180   25.3870   35.0560 C   0  0  0  0  0  0  0  0  0  0  0  0
   37.7030   26.6970   35.2690 C   0  0  0  0  0  0  0  0  0  0  0  0
   37.1500   27.5310   34.3270 C   0  0  0  0  0  0  0  0  0  0  0  0
   36.8800   27.0620   33.0730 C   0  0  0  0  0  0  0  0  0  0  0  0
   37.1970   25.7210   32.8380 C   0  0  0  0  0  0  0  0  0  0  0  0
   37.7410   24.9330   33.7950 N   0  0  0  0  0  0  0  0  0  0  0  0
   37.8910   27.1330   36.2410 H   0  0  0  0  0  0  0  0  0  0  0  0
   36.9030   28.5680   34.5050 H   0  0  0  0  0  0  0  0  0  0  0  0
   37.0370   25.2230   31.8960 H   0  0  0  0  0  0  0  0  0  0  0  0
   38.0160   24.2610   37.2760 C   0  0  0  0  0  0  0  0  0  0  0  0
   38.5980   24.5110   36.0250 C   0  0  0  0  0  0  0  0  0  0  0  0
   39.7830   23.8680   35.7510 C   0  0  0  0  0  0  0  0  0  0  0  0
   40.3370   23.0330   36.6800 N   0  0  0  0  0  0  0  0  0  0  0  0
   39.7280   22.8280   37.8800 C   0  0  0  0  0  0  0  0  0  0  0  0
   38.5530   23.4410   38.1970 N   0  0  0  0  0  0  0  0  0  0  0  0
   37.0830   24.7430   37.5370 H   0  0  0  0  0  0  0  0  0  0  0  0
   40.3340   23.9740   34.8260 H   0  0  0  0  0  0  0  0  0  0  0  0
   40.1650   22.1640   38.6250 H   0  0  0  0  0  0  0  0  0  0  0  0
  1  5  2  0  0  0  0
  2  3  2  0  0  0  0
  2  1  1  0  0  0  0
  3  4  1  0  0  0  0
  4  5  1  0  0  0  0
  4  8  1  0  0  0  0
  6  2  1  0  0  0  0
  7  3  1  0  0  0  0
  8 11  1  0  0  0  0
  9  8  1  0  0  0  0
 10  8  1  0  0  0  0
 11 12  1  0  0  0  0
 11 13  1  0  0  0  0
 11 15  1  0  0  0  0
 14 25  1  0  0  0  0
 15 16  1  0  0  0  0
 15 14  2  0  0  0  0
 16 18  2  0  0  0  0
 17 16  1  0  0  0  0
 18 24  1  0  0  0  0
 18 19  1  0  0  0  0
 19 21  1  0  0  0  0
 20 19  1  0  0  0  0
 21 22  1  0  0  0  0
 23 21  2  0  0  0  0
 24 23  1  0  0  0  0
 25 24  2  0  0  0  0
 26  1  1  0  0  0  0
 26 30  1  0  0  0  0
 27 28  1  0  0  0  0
 27 37  1  0  0  0  0
 28 33  1  0  0  0  0
 29 34  1  0  0  0  0
 29 28  2  0  0  0  0
 30 29  1  0  0  0  0
 31 30  2  0  0  0  0
 31 32  1  0  0  0  0
 32 27  2  0  0  0  0
 35 31  1  0  0  0  0
 36 42  1  0  0  0  0
 36 41  1  0  0  0  0
 37 36  2  0  0  0  0
 38 37  1  0  0  0  0
 38 39  2  0  0  0  0
 39 40  1  0  0  0  0
 40 41  2  0  0  0  0
 40 44  1  0  0  0  0
 43 38  1  0  0  0  0
M  END
>  <minimizedAffinity>
-6.16300154

$$$$

 OpenBabel03272510143D

 44 48  0  0  0  0  0  0  0  0999 V2000
   35.9870   28.7390   33.6660 C   0  0  0  0  0  0  0  0  0  0  0  0
   36.4470   28.0600   32.5590 C   0  0  0  0  0  0  0  0  0  0  0  0
   37.4160   27.1610   32.9970 C   0  0  0  0  0  0  0  0  0  0  0  0
   37.5200   27.3080   34.3140 N   0  0  0  0  0  0  0  0  0  0  0  0
   36.6880   28.2210   34.6750 N   0  0  0  0  0  0  0  0  0  0  0  0
   36.2370   28.0680   31.4970 H   0  0  0  0  0  0  0  0  0  0  0  0
   38.0190   26.4430   32.4480 H   0  0  0  0  0  0  0  0  0  0  0  0
   38.4060   26.6120   35.2050 C   0  0  0  0  0  0  0  0  0  0  0  0
   38.7050   27.3650   35.9940 H   0  0  0  0  0  0  0  0  0  0  0  0
   39.3590   26.3270   34.7300 H   0  0  0  0  0  0  0  0  0  0  0  0
   37.6960   25.4860   35.8660 C   0  0  0  0  0  0  0  0  0  0  0  0
   37.0630   24.9080   35.1150 H   0  0  0  0  0  0  0  0  0  0  0  0
   36.9550   25.8570   36.6190 H   0  0  0  0  0  0  0  0  0  0  0  0
   38.5300   23.8650   37.7320 C   0  0  0  0  0  3  0  0  0  0  0  0
   38.5400   24.4870   36.5110 C   0  0  0  0  0  0  0  0  0  0  0  0
   39.5670   24.0570   35.6560 C   0  0  0  0  0  0  0  0  0  0  0  0
   39.7480   24.4330   34.6350 H   0  0  0  0  0  0  0  0  0  0  0  0
   40.4960   23.0880   36.0000 C   0  0  0  0  0  0  0  0  0  0  0  0
   41.5410   22.5010   35.4170 N   0  0  0  0  0  0  0  0  0  0  0  0
   41.8790   22.7210   34.4380 H   0  0  0  0  0  0  0  0  0  0  0  0
   42.1090   21.6010   36.2190 C   0  0  0  0  0  0  0  0  0  0  0  0
   42.9780   20.9970   35.9570 H   0  0  0  0  0  0  0  0  0  0  0  0
   41.4190   21.5680   37.4140 C   0  0  0  0  0  3  0  0  0  0  0  0
   40.4210   22.5040   37.2470 C   0  0  0  0  0  0  0  0  0  0  0  0
   39.4330   22.8990   38.1090 C   0  0  0  0  0  3  0  0  0  0  0  0
   35.0140   29.6790   33.4040 O   0  0  0  0  0  0  0  0  0  0  0  0
   33.8210   32.7120   36.0660 C   0  0  0  0  0  0  0  0  0  0  0  0
   35.0740   32.6960   35.5290 C   0  0  0  0  0  0  0  0  0  0  0  0
   35.5380   31.7420   34.6540 C   0  0  0  0  0  0  0  0  0  0  0  0
   34.7230   30.7170   34.2660 C   0  0  0  0  0  0  0  0  0  0  0  0
   33.4340   30.7190   34.8080 C   0  0  0  0  0  0  0  0  0  0  0  0
   33.0170   31.6780   35.6660 N   0  0  0  0  0  0  0  0  0  0  0  0
   35.7710   33.4800   35.7940 H   0  0  0  0  0  0  0  0  0  0  0  0
   36.5330   31.7380   34.2330 H   0  0  0  0  0  0  0  0  0  0  0  0
   32.6900   29.9710   34.5880 H   0  0  0  0  0  0  0  0  0  0  0  0
   32.0270   34.2150   36.9140 C   0  0  0  0  0  0  0  0  0  0  0  0
   33.3280   33.6940   36.9800 C   0  0  0  0  0  0  0  0  0  0  0  0
   34.1400   34.1740   37.9800 C   0  0  0  0  0  0  0  0  0  0  0  0
   33.6680   35.1160   38.8500 N   0  0  0  0  0  0  0  0  0  0  0  0
   32.3960   35.5880   38.7400 C   0  0  0  0  0  0  0  0  0  0  0  0
   31.5520   35.1420   37.7660 N   0  0  0  0  0  0  0  0  0  0  0  0
   31.3500   33.8680   36.1450 H   0  0  0  0  0  0  0  0  0  0  0  0
   35.1620   33.8560   38.1400 H   0  0  0  0  0  0  0  0  0  0  0  0
   32.0130   36.3390   39.4300 H   0  0  0  0  0  0  0  0  0  0  0  0
  1  5  2  0  0  0  0
  2  3  2  0  0  0  0
  2  1  1  0  0  0  0
  3  4  1  0  0  0  0
  4  5  1  0  0  0  0
  4  8  1  0  0  0  0
  6  2  1  0  0  0  0
  7  3  1  0  0  0  0
  8 11  1  0  0  0  0
  8  9  1  0  0  0  0
 10  8  1  0  0  0  0
 11 15  1  0  0  0  0
 11 13  1  0  0  0  0
 12 11  1  0  0  0  0
 14 25  1  0  0  0  0
 15 14  2  0  0  0  0
 16 18  2  0  0  0  0
 16 15  1  0  0  0  0
 17 16  1  0  0  0  0
 18 24  1  0  0  0  0
 19 18  1  0  0  0  0
 19 21  1  0  0  0  0
 20 19  1  0  0  0  0
 21 23  2  0  0  0  0
 22 21  1  0  0  0  0
 24 23  1  0  0  0  0
 24 25  2  0  0  0  0
 26  1  1  0  0  0  0
 26 30  1  0  0  0  0
 27 37  1  0  0  0  0
 28 33  1  0  0  0  0
 28 27  2  0  0  0  0
 29 28  1  0  0  0  0
 30 29  2  0  0  0  0
 30 31  1  0  0  0  0
 31 32  2  0  0  0  0
 32 27  1  0  0  0  0
 34 29  1  0  0  0  0
 35 31  1  0  0  0  0
 36 37  2  0  0  0  0
 36 41  1  0  0  0  0
 37 38  1  0  0  0  0
 38 43  1  0  0  0  0
 38 39  2  0  0  0  0
 40 39  1  0  0  0  0
 40 44  1  0  0  0  0
 41 40  2  0  0  0  0
 42 36  1  0  0  0  0
M  END
>  <minimizedAffinity>
-5.9185214

$$$$
