
 OpenBabel03272509273D

 44 47  0  0  1  0  0  0  0  0999 V2000
   38.5480   32.2110   48.6910 C   0  0  2  0  0  0  0  0  0  0  0  0
   39.0270   33.0650   49.8540 C   0  0  0  0  0  0  0  0  0  0  0  0
   39.6970   34.3120   49.3640 C   0  0  0  0  0  0  0  0  0  0  0  0
   40.4200   34.0400   48.0630 C   0  0  0  0  0  0  0  0  0  0  0  0
   39.3170   34.0150   47.0570 C   0  0  0  0  0  0  0  0  0  0  0  0
   38.3580   32.9190   47.4440 C   0  0  1  0  0  0  0  0  0  0  0  0
   39.2430   31.3360   48.7030 H   0  0  0  0  0  0  0  0  0  0  0  0
   38.1530   33.3260   50.5140 H   0  0  0  0  0  0  0  0  0  0  0  0
   39.7350   32.5310   50.5200 H   0  0  0  0  0  0  0  0  0  0  0  0
   38.9360   35.0860   49.1750 H   0  0  0  0  0  0  0  0  0  0  0  0
   40.4020   34.6410   50.1350 H   0  0  0  0  0  0  0  0  0  0  0  0
   41.0430   34.9430   47.8530 H   0  0  0  0  0  0  0  0  0  0  0  0
   41.0550   33.1540   48.0690 H   0  0  0  0  0  0  0  0  0  0  0  0
   39.6970   34.0210   46.0520 H   0  0  0  0  0  0  0  0  0  0  0  0
   38.7600   34.9910   47.1750 H   0  0  0  0  0  0  0  0  0  0  0  0
   37.3170   33.2930   47.3420 H   0  0  0  0  0  0  0  0  0  0  0  0
   39.4580   30.9200   46.2220 C   0  0  0  0  0  0  0  0  0  0  0  0
   38.5720   31.9720   46.3010 C   0  0  0  0  0  0  0  0  0  0  0  0
   37.8390   32.1340   45.1110 C   0  0  0  0  0  0  0  0  0  0  0  0
   37.1040   32.9250   45.0100 H   0  0  0  0  0  0  0  0  0  0  0  0
   37.9600   31.3580   43.9810 C   0  0  0  0  0  0  0  0  0  0  0  0
   37.3780   31.3390   42.7830 N   0  0  0  0  0  0  0  0  0  0  0  0
   36.6390   31.9890   42.4470 H   0  0  0  0  0  0  0  0  0  0  0  0
   37.8960   30.3380   42.0540 C   0  0  0  0  0  0  0  0  0  0  0  0
   37.6470   30.0490   41.0430 H   0  0  0  0  0  0  0  0  0  0  0  0
   38.8620   29.6670   42.8070 C   0  0  0  0  0  0  0  0  0  0  0  0
   38.8770   30.3280   44.0070 C   0  0  0  0  0  0  0  0  0  0  0  0
   39.6200   30.1130   45.1210 C   0  0  0  0  0  0  0  0  0  0  0  0
   36.9730   31.4760   49.2310 S   0  0  0  0  0  0  0  0  0  0  0  0
   36.6260   29.8960   48.4470 C   0  0  0  0  0  0  0  0  0  0  0  0
   36.2800   29.2220   49.2520 H   0  0  0  0  0  0  0  0  0  0  0  0
   37.5590   29.3860   48.0850 H   0  0  0  0  0  0  0  0  0  0  0  0
   35.6300   30.1520   47.3470 C   0  0  0  0  0  0  0  0  0  0  0  0
   35.9760   29.9030   46.3290 H   0  0  0  0  0  0  0  0  0  0  0  0
   35.3330   31.2440   47.3190 H   0  0  0  0  0  0  0  0  0  0  0  0
   32.9840   27.9500   48.8070 C   0  0  0  0  0  0  0  0  0  0  0  0
   34.1780   28.6540   48.6610 C   0  0  0  0  0  0  0  0  0  0  0  0
   34.3930   29.4030   47.5460 C   0  0  0  0  0  0  0  0  0  0  0  0
   33.3940   29.4220   46.6100 N   0  0  0  0  0  0  0  0  0  0  0  0
   32.2620   28.7420   46.7700 C   0  0  0  0  0  0  0  0  0  0  0  0
   32.0300   28.0010   47.8520 N   0  0  0  0  0  0  0  0  0  0  0  0
   32.7390   27.3340   49.6590 H   0  0  0  0  0  0  0  0  0  0  0  0
   34.8090   28.5020   49.5200 H   0  0  0  0  0  0  0  0  0  0  0  0
   31.5590   28.8560   45.9360 H   0  0  0  0  0  0  0  0  0  0  0  0
  1  7  1  6  0  0  0
  1 29  1  0  0  0  0
  1  2  1  0  0  0  0
  2  8  1  0  0  0  0
  2  9  1  0  0  0  0
  3  2  1  0  0  0  0
  3 11  1  0  0  0  0
  4 13  1  0  0  0  0
  4  3  1  0  0  0  0
  5 15  1  0  0  0  0
  5  6  1  0  0  0  0
  5  4  1  0  0  0  0
  6 16  1  6  0  0  0
  6  1  1  0  0  0  0
 10  3  1  0  0  0  0
 12  4  1  0  0  0  0
 14  5  1  0  0  0  0
 17 18  1  0  0  0  0
 18  6  1  0  0  0  0
 19 18  2  0  0  0  0
 20 19  1  0  0  0  0
 21 27  2  0  0  0  0
 21 19  1  0  0  0  0
 22 21  1  0  0  0  0
 23 22  1  0  0  0  0
 24 22  1  0  0  0  0
 24 26  2  0  0  0  0
 25 24  1  0  0  0  0
 26 27  1  0  0  0  0
 27 28  1  0  0  0  0
 28 17  2  0  0  0  0
 30 29  1  0  0  0  0
 30 31  1  0  0  0  0
 32 30  1  0  0  0  0
 33 38  1  0  0  0  0
 33 30  1  0  0  0  0
 34 33  1  0  0  0  0
 35 33  1  0  0  0  0
 36 42  1  0  0  0  0
 37 36  1  0  0  0  0
 37 43  1  0  0  0  0
 38 37  2  0  0  0  0
 39 40  2  0  0  0  0
 39 38  1  0  0  0  0
 40 41  1  0  0  0  0
 41 36  2  0  0  0  0
 44 40  1  0  0  0  0
M  END
>  <minimizedAffinity>
-4.02364969

>  <minimizedRMSD>
1.69667757

$$$$
