
 OpenBabel03262520283D

 23 25  0  0  0  0  0  0  0  0999 V2000
   38.0470   26.8990   35.6640 C   0  0  0  0  0  3  0  0  0  0  0  0
   38.2430   25.6260   35.1740 C   0  0  0  0  0  0  0  0  0  0  0  0
   37.7640   25.3600   33.8930 C   0  0  0  0  0  0  0  0  0  0  0  0
   37.9320   24.3600   33.5390 H   0  0  0  0  0  0  0  0  0  0  0  0
   37.1230   26.3420   33.1650 C   0  0  0  0  0  0  0  0  0  0  0  0
   36.6050   26.2550   31.9260 N   0  0  0  0  0  0  0  0  0  0  0  0
   36.5920   25.4170   31.2830 H   0  0  0  0  0  0  0  0  0  0  0  0
   36.0730   27.4620   31.6070 C   0  0  0  0  0  0  0  0  0  0  0  0
   35.5840   27.6750   30.6560 H   0  0  0  0  0  0  0  0  0  0  0  0
   36.2670   28.3200   32.6760 C   0  0  0  0  0  3  0  0  0  0  0  0
   36.9270   27.6140   33.6540 C   0  0  0  0  0  0  0  0  0  0  0  0
   37.4000   27.8840   34.9210 C   0  0  0  0  0  3  0  0  0  0  0  0
   40.7340   23.1450   36.1650 C   0  0  0  0  0  0  0  0  0  0  0  0
   40.2270   22.6350   37.3700 C   0  0  0  0  0  0  0  0  0  0  0  0
   39.0170   23.1630   37.8280 C   0  0  0  0  0  0  0  0  0  0  0  0
   38.3960   24.1230   37.1070 N   0  0  0  0  0  0  0  0  0  0  0  0
   38.9200   24.5890   35.9450 C   0  0  0  0  0  0  0  0  0  0  0  0
   40.0730   24.0940   35.4990 N   0  0  0  0  0  0  0  0  0  0  0  0
   38.5240   22.6340   39.0450 N   0  0  0  0  0  0  0  0  0  0  0  0
   41.6740   22.7670   35.7660 H   0  0  0  0  0  0  0  0  0  0  0  0
   40.8210   21.8680   37.8500 H   0  0  0  0  0  0  0  0  0  0  0  0
   38.1070   23.0980   39.8890 H   0  0  0  0  0  0  0  0  0  0  0  0
   38.5630   21.6000   39.1650 H   0  0  0  0  0  0  0  0  0  0  0  0
  2  1  1  0  0  0  0
  2 17  1  0  0  0  0
  3  2  2  0  0  0  0
  4  3  1  0  0  0  0
  5 11  2  0  0  0  0
  5  3  1  0  0  0  0
  6  5  1  0  0  0  0
  7  6  1  0  0  0  0
  8  6  1  0  0  0  0
  8 10  2  0  0  0  0
  9  8  1  0  0  0  0
 10 11  1  0  0  0  0
 11 12  1  0  0  0  0
 12  1  2  0  0  0  0
 13 14  1  0  0  0  0
 14 15  2  0  0  0  0
 14 21  1  0  0  0  0
 15 19  1  0  0  0  0
 16 15  1  0  0  0  0
 17 16  2  0  0  0  0
 18 17  1  0  0  0  0
 18 13  2  0  0  0  0
 19 23  1  0  0  0  0
 19 22  1  0  0  0  0
 20 13  1  0  0  0  0
M  END
>  <minimizedAffinity>
-5.42597771

$$$$

 OpenBabel03262520283D

 23 25  0  0  0  0  0  0  0  0999 V2000
   39.8660   26.3590   34.7330 C   0  0  0  0  0  3  0  0  0  0  0  0
   38.8680   25.4500   35.0130 C   0  0  0  0  0  0  0  0  0  0  0  0
   37.8570   25.3090   34.0650 C   0  0  0  0  0  0  0  0  0  0  0  0
   37.0950   24.5920   34.3100 H   0  0  0  0  0  0  0  0  0  0  0  0
   37.8720   26.0570   32.9060 C   0  0  0  0  0  0  0  0  0  0  0  0
   36.9820   26.0440   31.8950 N   0  0  0  0  0  0  0  0  0  0  0  0
   36.1070   25.4590   31.8050 H   0  0  0  0  0  0  0  0  0  0  0  0
   37.3930   26.9390   30.9610 C   0  0  0  0  0  0  0  0  0  0  0  0
   36.8570   27.1340   30.0320 H   0  0  0  0  0  0  0  0  0  0  0  0
   38.5690   27.5210   31.4040 C   0  0  0  0  0  3  0  0  0  0  0  0
   38.8680   26.9650   32.6260 C   0  0  0  0  0  0  0  0  0  0  0  0
   39.8720   27.1090   33.5600 C   0  0  0  0  0  3  0  0  0  0  0  0
   37.9430   24.2890   38.3500 C   0  0  0  0  0  0  0  0  0  0  0  0
   38.7960   23.1950   38.5650 C   0  0  0  0  0  0  0  0  0  0  0  0
   39.6880   22.8700   37.5390 C   0  0  0  0  0  0  0  0  0  0  0  0
   39.6950   23.6080   36.4060 N   0  0  0  0  0  0  0  0  0  0  0  0
   38.8540   24.6600   36.2390 C   0  0  0  0  0  0  0  0  0  0  0  0
   37.9980   24.9780   37.2090 N   0  0  0  0  0  0  0  0  0  0  0  0
   40.5380   21.7630   37.7760 N   0  0  0  0  0  0  0  0  0  0  0  0
   37.2300   24.5820   39.1190 H   0  0  0  0  0  0  0  0  0  0  0  0
   38.6910   22.6880   39.5150 H   0  0  0  0  0  0  0  0  0  0  0  0
   40.8180   20.9550   37.1670 H   0  0  0  0  0  0  0  0  0  0  0  0
   40.9900   21.7020   38.7130 H   0  0  0  0  0  0  0  0  0  0  0  0
  1  2  1  0  0  0  0
  2 17  1  0  0  0  0
  3  4  1  0  0  0  0
  3  2  2  0  0  0  0
  5  3  1  0  0  0  0
  6  5  1  0  0  0  0
  7  6  1  0  0  0  0
  8 10  2  0  0  0  0
  8  6  1  0  0  0  0
  9  8  1  0  0  0  0
 10 11  1  0  0  0  0
 11  5  2  0  0  0  0
 11 12  1  0  0  0  0
 12  1  2  0  0  0  0
 13 14  1  0  0  0  0
 13 20  1  0  0  0  0
 14 21  1  0  0  0  0
 15 19  1  0  0  0  0
 15 14  2  0  0  0  0
 16 15  1  0  0  0  0
 17 16  2  0  0  0  0
 17 18  1  0  0  0  0
 18 13  2  0  0  0  0
 19 23  1  0  0  0  0
 22 19  1  0  0  0  0
M  END
>  <minimizedAffinity>
-5.29416418

$$$$

 OpenBabel03262520283D

 23 25  0  0  0  0  0  0  0  0999 V2000
   38.8820   24.6610   34.2420 C   0  0  0  0  0  3  0  0  0  0  0  0
   37.8880   25.5030   34.6940 C   0  0  0  0  0  0  0  0  0  0  0  0
   37.5540   25.4200   36.0440 C   0  0  0  0  0  0  0  0  0  0  0  0
   36.7770   26.0890   36.3660 H   0  0  0  0  0  0  0  0  0  0  0  0
   38.2000   24.5270   36.8730 C   0  0  0  0  0  0  0  0  0  0  0  0
   38.0020   24.3190   38.1890 N   0  0  0  0  0  0  0  0  0  0  0  0
   37.3140   24.8030   38.8280 H   0  0  0  0  0  0  0  0  0  0  0  0
   38.8590   23.3490   38.5960 C   0  0  0  0  0  0  0  0  0  0  0  0
   38.9140   22.9800   39.6210 H   0  0  0  0  0  0  0  0  0  0  0  0
   39.6080   22.9440   37.5040 C   0  0  0  0  0  3  0  0  0  0  0  0
   39.1930   23.6850   36.4230 C   0  0  0  0  0  0  0  0  0  0  0  0
   39.5280   23.7630   35.0880 C   0  0  0  0  0  3  0  0  0  0  0  0
   36.1930   28.5260   33.5400 C   0  0  0  0  0  0  0  0  0  0  0  0
   35.9190   28.2530   32.1900 C   0  0  0  0  0  0  0  0  0  0  0  0
   36.3300   27.0130   31.6940 C   0  0  0  0  0  0  0  0  0  0  0  0
   36.9610   26.1440   32.5150 N   0  0  0  0  0  0  0  0  0  0  0  0
   37.2060   26.4470   33.8150 C   0  0  0  0  0  0  0  0  0  0  0  0
   36.8200   27.6260   34.3000 N   0  0  0  0  0  0  0  0  0  0  0  0
   36.0440   26.7580   30.3310 N   0  0  0  0  0  0  0  0  0  0  0  0
   35.8930   29.4780   33.9750 H   0  0  0  0  0  0  0  0  0  0  0  0
   35.4080   29.0320   31.6410 H   0  0  0  0  0  0  0  0  0  0  0  0
   36.6250   26.3430   29.5620 H   0  0  0  0  0  0  0  0  0  0  0  0
   35.0940   27.0150   29.9880 H   0  0  0  0  0  0  0  0  0  0  0  0
  1  2  2  0  0  0  0
  1 12  1  0  0  0  0
  2  3  1  0  0  0  0
  3  4  1  0  0  0  0
  3  5  2  0  0  0  0
  5  6  1  0  0  0  0
  6  8  1  0  0  0  0
  6  7  1  0  0  0  0
  8  9  1  0  0  0  0
 10  8  2  0  0  0  0
 11  5  1  0  0  0  0
 11 10  1  0  0  0  0
 12 11  2  0  0  0  0
 13 20  1  0  0  0  0
 13 18  1  0  0  0  0
 14 13  2  0  0  0  0
 15 14  1  0  0  0  0
 15 16  2  0  0  0  0
 16 17  1  0  0  0  0
 17 18  2  0  0  0  0
 17  2  1  0  0  0  0
 19 15  1  0  0  0  0
 21 14  1  0  0  0  0
 22 19  1  0  0  0  0
 23 19  1  0  0  0  0
M  END
>  <minimizedAffinity>
-5.07311392

$$$$

 OpenBabel03262520283D

 23 25  0  0  0  0  0  0  0  0999 V2000
   33.7800   29.4760   34.4080 C   0  0  0  0  0  3  0  0  0  0  0  0
   35.1530   29.5800   34.3340 C   0  0  0  0  0  0  0  0  0  0  0  0
   35.7570   30.5560   35.1220 C   0  0  0  0  0  0  0  0  0  0  0  0
   36.8270   30.6120   35.0430 H   0  0  0  0  0  0  0  0  0  0  0  0
   34.9970   31.3740   35.9330 C   0  0  0  0  0  0  0  0  0  0  0  0
   35.4160   32.3580   36.7500 N   0  0  0  0  0  0  0  0  0  0  0  0
   36.4060   32.6860   36.9200 H   0  0  0  0  0  0  0  0  0  0  0  0
   34.3270   32.8960   37.3560 C   0  0  0  0  0  0  0  0  0  0  0  0
   34.3760   33.7160   38.0730 H   0  0  0  0  0  0  0  0  0  0  0  0
   33.2030   32.2270   36.9010 C   0  0  0  0  0  3  0  0  0  0  0  0
   33.6260   31.2710   36.0080 C   0  0  0  0  0  0  0  0  0  0  0  0
   33.0220   30.3060   35.2310 C   0  0  0  0  0  3  0  0  0  0  0  0
   37.6020   27.0790   33.2910 C   0  0  0  0  0  0  0  0  0  0  0  0
   37.4840   27.0680   31.8920 C   0  0  0  0  0  0  0  0  0  0  0  0
   36.5470   27.9350   31.3240 C   0  0  0  0  0  0  0  0  0  0  0  0
   35.8090   28.7340   32.1260 N   0  0  0  0  0  0  0  0  0  0  0  0
   35.9550   28.7140   33.4760 C   0  0  0  0  0  0  0  0  0  0  0  0
   36.8440   27.8910   34.0290 N   0  0  0  0  0  0  0  0  0  0  0  0
   36.4440   27.9080   29.9120 N   0  0  0  0  0  0  0  0  0  0  0  0
   38.3180   26.4220   33.7820 H   0  0  0  0  0  0  0  0  0  0  0  0
   38.1340   26.3820   31.3650 H   0  0  0  0  0  0  0  0  0  0  0  0
   35.6120   27.8990   29.2730 H   0  0  0  0  0  0  0  0  0  0  0  0
   37.3350   27.8930   29.3700 H   0  0  0  0  0  0  0  0  0  0  0  0
  1 12  1  0  0  0  0
  2  1  2  0  0  0  0
  2  3  1  0  0  0  0
  3  5  2  0  0  0  0
  4  3  1  0  0  0  0
  5 11  1  0  0  0  0
  5  6  1  0  0  0  0
  6  7  1  0  0  0  0
  6  8  1  0  0  0  0
  8  9  1  0  0  0  0
 10  8  2  0  0  0  0
 11 10  1  0  0  0  0
 12 11  2  0  0  0  0
 13 20  1  0  0  0  0
 13 18  1  0  0  0  0
 14 13  2  0  0  0  0
 15 14  1  0  0  0  0
 15 16  2  0  0  0  0
 16 17  1  0  0  0  0
 17 18  2  0  0  0  0
 17  2  1  0  0  0  0
 19 15  1  0  0  0  0
 21 14  1  0  0  0  0
 22 19  1  0  0  0  0
 23 19  1  0  0  0  0
M  END
>  <minimizedAffinity>
-4.98522425

$$$$

 OpenBabel03262520283D

 23 25  0  0  0  0  0  0  0  0999 V2000
   39.9020   26.2370   34.3180 C   0  0  0  0  0  3  0  0  0  0  0  0
   39.1900   25.0980   34.6290 C   0  0  0  0  0  0  0  0  0  0  0  0
   38.0100   24.8770   33.9220 C   0  0  0  0  0  0  0  0  0  0  0  0
   37.4790   23.9810   34.1860 H   0  0  0  0  0  0  0  0  0  0  0  0
   37.5900   25.7720   32.9600 C   0  0  0  0  0  0  0  0  0  0  0  0
   36.4860   25.7110   32.1920 N   0  0  0  0  0  0  0  0  0  0  0  0
   35.7370   24.9660   32.1860 H   0  0  0  0  0  0  0  0  0  0  0  0
   36.4740   26.8020   31.3840 C   0  0  0  0  0  0  0  0  0  0  0  0
   35.6890   27.0070   30.6560 H   0  0  0  0  0  0  0  0  0  0  0  0
   37.6000   27.5590   31.6590 C   0  0  0  0  0  3  0  0  0  0  0  0
   38.3000   26.9100   32.6490 C   0  0  0  0  0  0  0  0  0  0  0  0
   39.4690   27.1340   33.3440 C   0  0  0  0  0  3  0  0  0  0  0  0
   41.2730   22.6810   36.4080 C   0  0  0  0  0  0  0  0  0  0  0  0
   40.5110   22.3670   37.5450 C   0  0  0  0  0  0  0  0  0  0  0  0
   39.2750   23.0040   37.6810 C   0  0  0  0  0  0  0  0  0  0  0  0
   38.8690   23.8780   36.7330 N   0  0  0  0  0  0  0  0  0  0  0  0
   39.6360   24.1530   35.6470 C   0  0  0  0  0  0  0  0  0  0  0  0
   40.8170   23.5530   35.5060 N   0  0  0  0  0  0  0  0  0  0  0  0
   38.5240   22.6730   38.8350 N   0  0  0  0  0  0  0  0  0  0  0  0
   42.2430   22.2120   36.2560 H   0  0  0  0  0  0  0  0  0  0  0  0
   40.9490   21.6520   38.2280 H   0  0  0  0  0  0  0  0  0  0  0  0
   37.9860   23.2680   39.5120 H   0  0  0  0  0  0  0  0  0  0  0  0
   38.4690   21.6650   39.0940 H   0  0  0  0  0  0  0  0  0  0  0  0
  1  2  1  0  0  0  0
  2 17  1  0  0  0  0
  3  4  1  0  0  0  0
  3  2  2  0  0  0  0
  5  3  1  0  0  0  0
  6  5  1  0  0  0  0
  7  6  1  0  0  0  0
  8 10  2  0  0  0  0
  8  6  1  0  0  0  0
  9  8  1  0  0  0  0
 10 11  1  0  0  0  0
 11  5  2  0  0  0  0
 11 12  1  0  0  0  0
 12  1  2  0  0  0  0
 13 14  1  0  0  0  0
 14 15  2  0  0  0  0
 14 21  1  0  0  0  0
 15 19  1  0  0  0  0
 16 15  1  0  0  0  0
 17 16  2  0  0  0  0
 18 17  1  0  0  0  0
 18 13  2  0  0  0  0
 19 23  1  0  0  0  0
 19 22  1  0  0  0  0
 20 13  1  0  0  0  0
M  END
>  <minimizedAffinity>
-4.98020935

$$$$

 OpenBabel03262520283D

 23 25  0  0  0  0  0  0  0  0999 V2000
   37.7690   27.5090   35.0160 C   0  0  0  0  0  3  0  0  0  0  0  0
   37.4240   27.0230   33.7730 C   0  0  0  0  0  0  0  0  0  0  0  0
   37.5380   25.6480   33.5780 C   0  0  0  0  0  0  0  0  0  0  0  0
   37.2620   25.2990   32.6000 H   0  0  0  0  0  0  0  0  0  0  0  0
   37.9800   24.8290   34.5970 C   0  0  0  0  0  0  0  0  0  0  0  0
   38.1470   23.4930   34.5770 N   0  0  0  0  0  0  0  0  0  0  0  0
   37.9710   22.8260   33.7770 H   0  0  0  0  0  0  0  0  0  0  0  0
   38.5980   23.1070   35.7980 C   0  0  0  0  0  0  0  0  0  0  0  0
   38.8190   22.0730   36.0630 H   0  0  0  0  0  0  0  0  0  0  0  0
   38.7140   24.2340   36.5950 C   0  0  0  0  0  3  0  0  0  0  0  0
   38.3250   25.3140   35.8380 C   0  0  0  0  0  0  0  0  0  0  0  0
   38.2140   26.6740   36.0380 C   0  0  0  0  0  3  0  0  0  0  0  0
   35.8540   29.8390   32.0570 C   0  0  0  0  0  0  0  0  0  0  0  0
   36.0620   29.5520   30.6980 C   0  0  0  0  0  0  0  0  0  0  0  0
   36.7510   28.3760   30.3930 C   0  0  0  0  0  0  0  0  0  0  0  0
   37.1800   27.5770   31.3960 N   0  0  0  0  0  0  0  0  0  0  0  0
   36.9570   27.8900   32.6970 C   0  0  0  0  0  0  0  0  0  0  0  0
   36.3020   29.0100   33.0010 N   0  0  0  0  0  0  0  0  0  0  0  0
   36.9510   28.1060   29.0180 N   0  0  0  0  0  0  0  0  0  0  0  0
   35.3230   30.7440   32.3470 H   0  0  0  0  0  0  0  0  0  0  0  0
   35.6690   30.2730   29.9940 H   0  0  0  0  0  0  0  0  0  0  0  0
   37.7920   27.7710   28.4870 H   0  0  0  0  0  0  0  0  0  0  0  0
   36.1380   28.2540   28.3810 H   0  0  0  0  0  0  0  0  0  0  0  0
  1 12  1  0  0  0  0
  2  1  2  0  0  0  0
  3  2  1  0  0  0  0
  3  5  2  0  0  0  0
  4  3  1  0  0  0  0
  5 11  1  0  0  0  0
  6  5  1  0  0  0  0
  6  8  1  0  0  0  0
  7  6  1  0  0  0  0
  8  9  1  0  0  0  0
  8 10  2  0  0  0  0
 11 12  2  0  0  0  0
 11 10  1  0  0  0  0
 13 20  1  0  0  0  0
 13 18  1  0  0  0  0
 14 13  2  0  0  0  0
 15 14  1  0  0  0  0
 15 16  2  0  0  0  0
 16 17  1  0  0  0  0
 17 18  2  0  0  0  0
 17  2  1  0  0  0  0
 19 15  1  0  0  0  0
 21 14  1  0  0  0  0
 22 19  1  0  0  0  0
 23 19  1  0  0  0  0
M  END
>  <minimizedAffinity>
-4.97925186

$$$$

 OpenBabel03262520283D

 23 25  0  0  0  0  0  0  0  0999 V2000
   38.5130   25.7010   33.2970 C   0  0  0  0  0  3  0  0  0  0  0  0
   38.1920   25.6970   34.6370 C   0  0  0  0  0  0  0  0  0  0  0  0
   37.3250   26.6920   35.0830 C   0  0  0  0  0  0  0  0  0  0  0  0
   37.0940   26.6620   36.1320 H   0  0  0  0  0  0  0  0  0  0  0  0
   36.8230   27.6310   34.2060 C   0  0  0  0  0  0  0  0  0  0  0  0
   35.9820   28.6500   34.4680 N   0  0  0  0  0  0  0  0  0  0  0  0
   35.5540   28.9180   35.3950 H   0  0  0  0  0  0  0  0  0  0  0  0
   35.7540   29.3170   33.3080 C   0  0  0  0  0  0  0  0  0  0  0  0
   35.1070   30.1900   33.2290 H   0  0  0  0  0  0  0  0  0  0  0  0
   36.4730   28.6950   32.3000 C   0  0  0  0  0  3  0  0  0  0  0  0
   37.1430   27.6360   32.8660 C   0  0  0  0  0  0  0  0  0  0  0  0
   38.0000   26.6540   32.4190 C   0  0  0  0  0  3  0  0  0  0  0  0
   40.4860   23.3120   36.1840 C   0  0  0  0  0  0  0  0  0  0  0  0
   39.7630   22.8310   37.2880 C   0  0  0  0  0  0  0  0  0  0  0  0
   38.4790   23.3460   37.4820 C   0  0  0  0  0  0  0  0  0  0  0  0
   37.9930   24.2660   36.6190 N   0  0  0  0  0  0  0  0  0  0  0  0
   38.7240   24.7040   35.5630 C   0  0  0  0  0  0  0  0  0  0  0  0
   39.9500   24.2220   35.3670 N   0  0  0  0  0  0  0  0  0  0  0  0
   37.7680   22.8480   38.6010 N   0  0  0  0  0  0  0  0  0  0  0  0
   41.4910   22.9430   35.9890 H   0  0  0  0  0  0  0  0  0  0  0  0
   40.2650   22.0960   37.9020 H   0  0  0  0  0  0  0  0  0  0  0  0
   37.1870   23.3300   39.3300 H   0  0  0  0  0  0  0  0  0  0  0  0
   37.8000   21.8190   38.7660 H   0  0  0  0  0  0  0  0  0  0  0  0
  1  2  1  0  0  0  0
  2  3  2  0  0  0  0
  2 17  1  0  0  0  0
  3  4  1  0  0  0  0
  5  6  1  0  0  0  0
  5  3  1  0  0  0  0
  6  7  1  0  0  0  0
  8  6  1  0  0  0  0
  9  8  1  0  0  0  0
 10 11  1  0  0  0  0
 10  8  2  0  0  0  0
 11  5  2  0  0  0  0
 12 11  1  0  0  0  0
 12  1  2  0  0  0  0
 13 14  1  0  0  0  0
 14 15  2  0  0  0  0
 14 21  1  0  0  0  0
 15 19  1  0  0  0  0
 16 15  1  0  0  0  0
 17 16  2  0  0  0  0
 18 17  1  0  0  0  0
 18 13  2  0  0  0  0
 19 23  1  0  0  0  0
 19 22  1  0  0  0  0
 20 13  1  0  0  0  0
M  END
>  <minimizedAffinity>
-4.93963432

$$$$

 OpenBabel03262520283D

 23 25  0  0  0  0  0  0  0  0999 V2000
   36.2280   28.4650   34.0540 C   0  0  0  0  0  3  0  0  0  0  0  0
   35.3670   29.5000   33.7620 C   0  0  0  0  0  0  0  0  0  0  0  0
   35.3090   29.9200   32.4350 C   0  0  0  0  0  0  0  0  0  0  0  0
   34.6290   30.7280   32.2380 H   0  0  0  0  0  0  0  0  0  0  0  0
   36.0900   29.3140   31.4720 C   0  0  0  0  0  0  0  0  0  0  0  0
   36.1570   29.5930   30.1570 N   0  0  0  0  0  0  0  0  0  0  0  0
   35.6230   30.3300   29.6200 H   0  0  0  0  0  0  0  0  0  0  0  0
   37.0550   28.7480   29.5910 C   0  0  0  0  0  0  0  0  0  0  0  0
   37.3070   28.7530   28.5310 H   0  0  0  0  0  0  0  0  0  0  0  0
   37.5590   27.9220   30.5830 C   0  0  0  0  0  3  0  0  0  0  0  0
   36.9510   28.2790   31.7630 C   0  0  0  0  0  0  0  0  0  0  0  0
   37.0120   27.8590   33.0750 C   0  0  0  0  0  3  0  0  0  0  0  0
   32.4470   30.3990   35.7640 C   0  0  0  0  0  0  0  0  0  0  0  0
   32.9560   31.3250   36.6880 C   0  0  0  0  0  0  0  0  0  0  0  0
   34.3170   31.6280   36.6040 C   0  0  0  0  0  0  0  0  0  0  0  0
   35.0740   31.0310   35.6570 N   0  0  0  0  0  0  0  0  0  0  0  0
   34.5420   30.1400   34.7810 C   0  0  0  0  0  0  0  0  0  0  0  0
   33.2460   29.8430   34.8510 N   0  0  0  0  0  0  0  0  0  0  0  0
   34.8090   32.5640   37.5450 N   0  0  0  0  0  0  0  0  0  0  0  0
   31.3920   30.1290   35.7880 H   0  0  0  0  0  0  0  0  0  0  0  0
   32.2450   31.7310   37.3960 H   0  0  0  0  0  0  0  0  0  0  0  0
   35.6780   32.5710   38.1340 H   0  0  0  0  0  0  0  0  0  0  0  0
   34.2340   33.4170   37.7140 H   0  0  0  0  0  0  0  0  0  0  0  0
  2  1  1  0  0  0  0
  2 17  1  0  0  0  0
  3  2  2  0  0  0  0
  4  3  1  0  0  0  0
  5 11  2  0  0  0  0
  5  3  1  0  0  0  0
  6  5  1  0  0  0  0
  7  6  1  0  0  0  0
  8  6  1  0  0  0  0
  8 10  2  0  0  0  0
  9  8  1  0  0  0  0
 10 11  1  0  0  0  0
 11 12  1  0  0  0  0
 12  1  2  0  0  0  0
 13 20  1  0  0  0  0
 13 14  1  0  0  0  0
 14 21  1  0  0  0  0
 15 14  2  0  0  0  0
 15 19  1  0  0  0  0
 16 15  1  0  0  0  0
 17 18  1  0  0  0  0
 17 16  2  0  0  0  0
 18 13  2  0  0  0  0
 19 23  1  0  0  0  0
 19 22  1  0  0  0  0
M  END
>  <minimizedAffinity>
-4.93541765

$$$$

 OpenBabel03262520283D

 23 25  0  0  0  0  0  0  0  0999 V2000
   38.4700   27.2510   34.9600 C   0  0  0  0  0  3  0  0  0  0  0  0
   38.4870   26.4350   33.8490 C   0  0  0  0  0  0  0  0  0  0  0  0
   38.3360   25.0670   34.0660 C   0  0  0  0  0  0  0  0  0  0  0  0
   38.3530   24.4580   33.1810 H   0  0  0  0  0  0  0  0  0  0  0  0
   38.1790   24.5720   35.3440 C   0  0  0  0  0  0  0  0  0  0  0  0
   38.0220   23.2910   35.7270 N   0  0  0  0  0  0  0  0  0  0  0  0
   37.9910   22.4290   35.1180 H   0  0  0  0  0  0  0  0  0  0  0  0
   37.9030   23.2670   37.0790 C   0  0  0  0  0  0  0  0  0  0  0  0
   37.7650   22.3540   37.6580 H   0  0  0  0  0  0  0  0  0  0  0  0
   37.9900   24.5680   37.5460 C   0  0  0  0  0  3  0  0  0  0  0  0
   38.1620   25.3860   36.4540 C   0  0  0  0  0  0  0  0  0  0  0  0
   38.3110   26.7410   36.2470 C   0  0  0  0  0  3  0  0  0  0  0  0
   40.0900   27.6520   30.8000 C   0  0  0  0  0  0  0  0  0  0  0  0
   39.0080   27.9490   29.9570 C   0  0  0  0  0  0  0  0  0  0  0  0
   37.7250   27.7210   30.4620 C   0  0  0  0  0  0  0  0  0  0  0  0
   37.5790   27.2340   31.7140 N   0  0  0  0  0  0  0  0  0  0  0  0
   38.6530   26.9610   32.4980 C   0  0  0  0  0  0  0  0  0  0  0  0
   39.8820   27.1740   32.0290 N   0  0  0  0  0  0  0  0  0  0  0  0
   36.6480   28.0260   29.5950 N   0  0  0  0  0  0  0  0  0  0  0  0
   41.1100   27.8130   30.4540 H   0  0  0  0  0  0  0  0  0  0  0  0
   39.2590   28.3330   28.9780 H   0  0  0  0  0  0  0  0  0  0  0  0
   35.7650   27.5050   29.3670 H   0  0  0  0  0  0  0  0  0  0  0  0
   36.7010   28.9250   29.0680 H   0  0  0  0  0  0  0  0  0  0  0  0
  1 12  1  0  0  0  0
  2  3  1  0  0  0  0
  2  1  2  0  0  0  0
  3  5  2  0  0  0  0
  4  3  1  0  0  0  0
  5  6  1  0  0  0  0
  5 11  1  0  0  0  0
  6  8  1  0  0  0  0
  7  6  1  0  0  0  0
  8 10  2  0  0  0  0
  8  9  1  0  0  0  0
 11 10  1  0  0  0  0
 12 11  2  0  0  0  0
 13 18  1  0  0  0  0
 14 15  1  0  0  0  0
 14 13  2  0  0  0  0
 15 16  2  0  0  0  0
 16 17  1  0  0  0  0
 17  2  1  0  0  0  0
 18 17  2  0  0  0  0
 19 15  1  0  0  0  0
 20 13  1  0  0  0  0
 21 14  1  0  0  0  0
 22 19  1  0  0  0  0
 23 19  1  0  0  0  0
M  END
>  <minimizedAffinity>
-4.91305733

$$$$
