
 OpenBabel03272509283D

 44 47  0  0  1  0  0  0  0  0999 V2000
   36.3820   21.6360   33.5210 C   0  0  2  0  0  0  0  0  0  0  0  0
   35.9540   20.2210   33.8760 C   0  0  0  0  0  0  0  0  0  0  0  0
   35.2930   19.5520   32.7110 C   0  0  0  0  0  0  0  0  0  0  0  0
   34.5260   20.5670   31.8910 C   0  0  0  0  0  0  0  0  0  0  0  0
   35.5980   21.2640   31.1200 C   0  0  0  0  0  0  0  0  0  0  0  0
   36.5480   21.8930   32.1070 C   0  0  1  0  0  0  0  0  0  0  0  0
   35.6720   22.2790   34.0970 H   0  0  0  0  0  0  0  0  0  0  0  0
   36.8520   19.6290   34.2080 H   0  0  0  0  0  0  0  0  0  0  0  0
   35.2560   20.1840   34.7380 H   0  0  0  0  0  0  0  0  0  0  0  0
   36.0620   19.1020   32.0630 H   0  0  0  0  0  0  0  0  0  0  0  0
   34.6170   18.7840   33.1020 H   0  0  0  0  0  0  0  0  0  0  0  0
   33.9140   19.9850   31.1600 H   0  0  0  0  0  0  0  0  0  0  0  0
   33.8750   21.2240   32.4680 H   0  0  0  0  0  0  0  0  0  0  0  0
   35.1880   21.8880   30.3470 H   0  0  0  0  0  0  0  0  0  0  0  0
   36.1770   20.4570   30.5820 H   0  0  0  0  0  0  0  0  0  0  0  0
   37.5920   21.7040   31.7780 H   0  0  0  0  0  0  0  0  0  0  0  0
   35.2160   23.9020   31.1640 C   0  0  0  0  0  3  0  0  0  0  0  0
   36.2820   23.3430   31.8340 C   0  0  0  0  0  0  0  0  0  0  0  0
   37.2100   24.3160   32.2520 C   0  0  0  0  0  0  0  0  0  0  0  0
   38.1110   24.0360   32.7870 H   0  0  0  0  0  0  0  0  0  0  0  0
   37.1030   25.6710   32.0390 C   0  0  0  0  0  0  0  0  0  0  0  0
   37.8460   26.7350   32.3440 N   0  0  0  0  0  0  0  0  0  0  0  0
   38.7490   26.7280   32.8590 H   0  0  0  0  0  0  0  0  0  0  0  0
   37.2450   27.8410   31.8780 C   0  0  0  0  0  0  0  0  0  0  0  0
   37.5810   28.8660   31.9540 H   0  0  0  0  0  0  0  0  0  0  0  0
   36.0550   27.4910   31.2390 C   0  0  0  0  0  3  0  0  0  0  0  0
   35.9950   26.1270   31.3580 C   0  0  0  0  0  0  0  0  0  0  0  0
   35.0590   25.2460   30.9240 C   0  0  0  0  0  3  0  0  0  0  0  0
   37.9590   21.9100   34.3880 S   0  0  0  0  0  0  0  0  0  0  0  0
   37.7460   22.5340   36.0600 C   0  0  0  0  0  0  0  0  0  0  0  0
   37.4340   21.6700   36.6740 H   0  0  0  0  0  0  0  0  0  0  0  0
   36.8670   23.2280   36.1480 H   0  0  0  0  0  0  0  0  0  0  0  0
   39.0470   23.1770   36.4660 C   0  0  0  0  0  0  0  0  0  0  0  0
   39.9570   22.6750   36.0960 H   0  0  0  0  0  0  0  0  0  0  0  0
   39.1450   23.2100   37.5940 H   0  0  0  0  0  0  0  0  0  0  0  0
   38.3200   26.7960   35.8800 C   0  0  0  0  0  0  0  0  0  0  0  0
   38.1970   25.4870   36.3410 C   0  0  0  0  0  0  0  0  0  0  0  0
   39.1360   24.5600   36.0120 C   0  0  0  0  0  0  0  0  0  0  0  0
   40.1760   24.9830   35.2270 N   0  0  0  0  0  0  0  0  0  0  0  0
   40.2730   26.2380   34.7980 C   0  0  0  0  0  0  0  0  0  0  0  0
   39.3650   27.1630   35.1070 N   0  0  0  0  0  0  0  0  0  0  0  0
   37.6170   27.5880   36.0960 H   0  0  0  0  0  0  0  0  0  0  0  0
   37.3130   25.3850   36.9470 H   0  0  0  0  0  0  0  0  0  0  0  0
   41.1590   26.4260   34.1800 H   0  0  0  0  0  0  0  0  0  0  0  0
  1  2  1  0  0  0  0
  1  7  1  1  0  0  0
  1 29  1  0  0  0  0
  2  8  1  0  0  0  0
  2  9  1  0  0  0  0
  3 11  1  0  0  0  0
  3  2  1  0  0  0  0
  4 13  1  0  0  0  0
  4  3  1  0  0  0  0
  5  4  1  0  0  0  0
  5  6  1  0  0  0  0
  6 16  1  6  0  0  0
  6  1  1  0  0  0  0
 10  3  1  0  0  0  0
 12  4  1  0  0  0  0
 14  5  1  0  0  0  0
 15  5  1  0  0  0  0
 17 18  1  0  0  0  0
 18  6  1  0  0  0  0
 18 19  2  0  0  0  0
 19 20  1  0  0  0  0
 21 19  1  0  0  0  0
 21 22  1  0  0  0  0
 22 23  1  0  0  0  0
 24 25  1  0  0  0  0
 24 22  1  0  0  0  0
 26 27  1  0  0  0  0
 26 24  2  0  0  0  0
 27 21  2  0  0  0  0
 28 17  2  0  0  0  0
 28 27  1  0  0  0  0
 29 30  1  0  0  0  0
 30 32  1  0  0  0  0
 30 33  1  0  0  0  0
 30 31  1  0  0  0  0
 33 35  1  0  0  0  0
 34 33  1  0  0  0  0
 36 42  1  0  0  0  0
 36 37  1  0  0  0  0
 37 43  1  0  0  0  0
 38 37  2  0  0  0  0
 38 33  1  0  0  0  0
 39 38  1  0  0  0  0
 40 41  1  0  0  0  0
 40 39  2  0  0  0  0
 41 36  2  0  0  0  0
 44 40  1  0  0  0  0
M  END
>  <minimizedAffinity>
-5.91727495

$$$$

 OpenBabel03272509283D

 44 47  0  0  1  0  0  0  0  0999 V2000
   39.0060   25.2290   33.3260 C   0  0  2  0  0  0  0  0  0  0  0  0
   40.3430   24.5450   33.5660 C   0  0  0  0  0  0  0  0  0  0  0  0
   41.1190   25.2440   34.6380 C   0  0  0  0  0  0  0  0  0  0  0  0
   40.8400   26.7310   34.6020 C   0  0  0  0  0  0  0  0  0  0  0  0
   39.4960   26.8420   35.2440 C   0  0  0  0  0  0  0  0  0  0  0  0
   38.5210   26.0350   34.4260 C   0  0  1  0  0  0  0  0  0  0  0  0
   39.1340   25.7170   32.3290 H   0  0  0  0  0  0  0  0  0  0  0  0
   40.1690   23.4690   33.8470 H   0  0  0  0  0  0  0  0  0  0  0  0
   40.9740   24.5010   32.6540 H   0  0  0  0  0  0  0  0  0  0  0  0
   40.8060   24.8630   35.6240 H   0  0  0  0  0  0  0  0  0  0  0  0
   42.1830   25.0480   34.4670 H   0  0  0  0  0  0  0  0  0  0  0  0
   41.5790   27.2080   35.2910 H   0  0  0  0  0  0  0  0  0  0  0  0
   40.9160   27.1870   33.6150 H   0  0  0  0  0  0  0  0  0  0  0  0
   39.2460   27.8640   35.4630 H   0  0  0  0  0  0  0  0  0  0  0  0
   39.5810   26.3300   36.2470 H   0  0  0  0  0  0  0  0  0  0  0  0
   37.8740   25.4440   35.1100 H   0  0  0  0  0  0  0  0  0  0  0  0
   36.6790   27.8490   34.5450 C   0  0  0  0  0  3  0  0  0  0  0  0
   37.6590   27.1370   33.8880 C   0  0  0  0  0  0  0  0  0  0  0  0
   37.7800   27.5280   32.5420 C   0  0  0  0  0  0  0  0  0  0  0  0
   38.5030   27.0550   31.8850 H   0  0  0  0  0  0  0  0  0  0  0  0
   37.0330   28.4990   31.9170 C   0  0  0  0  0  0  0  0  0  0  0  0
   36.9890   29.0100   30.6870 N   0  0  0  0  0  0  0  0  0  0  0  0
   37.5850   28.7300   29.8820 H   0  0  0  0  0  0  0  0  0  0  0  0
   36.0420   29.9600   30.6360 C   0  0  0  0  0  0  0  0  0  0  0  0
   35.7500   30.5680   29.7900 H   0  0  0  0  0  0  0  0  0  0  0  0
   35.4350   30.0800   31.8870 C   0  0  0  0  0  3  0  0  0  0  0  0
   36.0780   29.1530   32.6660 C   0  0  0  0  0  0  0  0  0  0  0  0
   35.9040   28.8280   33.9710 C   0  0  0  0  0  3  0  0  0  0  0  0
   37.8210   23.8940   32.9690 S   0  0  0  0  0  0  0  0  0  0  0  0
   38.3910   22.2800   33.5170 C   0  0  0  0  0  0  0  0  0  0  0  0
   39.4750   22.3840   33.7080 H   0  0  0  0  0  0  0  0  0  0  0  0
   38.3600   21.5150   32.6940 H   0  0  0  0  0  0  0  0  0  0  0  0
   37.5590   21.8940   34.7110 C   0  0  0  0  0  0  0  0  0  0  0  0
   37.4070   20.8100   34.8510 H   0  0  0  0  0  0  0  0  0  0  0  0
   36.5240   22.3500   34.6450 H   0  0  0  0  0  0  0  0  0  0  0  0
   39.9660   22.7240   37.4490 C   0  0  0  0  0  0  0  0  0  0  0  0
   39.4590   22.2450   36.2420 C   0  0  0  0  0  0  0  0  0  0  0  0
   38.1360   22.3840   35.9590 C   0  0  0  0  0  0  0  0  0  0  0  0
   37.3620   23.0050   36.9020 N   0  0  0  0  0  0  0  0  0  0  0  0
   37.8670   23.4540   38.0480 C   0  0  0  0  0  0  0  0  0  0  0  0
   39.1590   23.3280   38.3470 N   0  0  0  0  0  0  0  0  0  0  0  0
   41.0020   22.6510   37.7480 H   0  0  0  0  0  0  0  0  0  0  0  0
   40.2460   21.8070   35.6540 H   0  0  0  0  0  0  0  0  0  0  0  0
   37.1240   23.9280   38.7010 H   0  0  0  0  0  0  0  0  0  0  0  0
  1  7  1  6  0  0  0
  1  2  1  0  0  0  0
  1  6  1  0  0  0  0
  2  8  1  0  0  0  0
  2  3  1  0  0  0  0
  3 10  1  0  0  0  0
  4  3  1  0  0  0  0
  4  5  1  0  0  0  0
  4 12  1  0  0  0  0
  5 14  1  0  0  0  0
  5 15  1  0  0  0  0
  6 16  1  1  0  0  0
  6  5  1  0  0  0  0
  9  2  1  0  0  0  0
 11  3  1  0  0  0  0
 13  4  1  0  0  0  0
 18  6  1  0  0  0  0
 18 17  2  0  0  0  0
 19 18  1  0  0  0  0
 20 19  1  0  0  0  0
 21 19  2  0  0  0  0
 21 27  1  0  0  0  0
 22 21  1  0  0  0  0
 23 22  1  0  0  0  0
 24 22  1  0  0  0  0
 24 26  2  0  0  0  0
 25 24  1  0  0  0  0
 26 27  1  0  0  0  0
 27 28  2  0  0  0  0
 28 17  1  0  0  0  0
 29  1  1  0  0  0  0
 29 30  1  0  0  0  0
 30 31  1  0  0  0  0
 30 33  1  0  0  0  0
 32 30  1  0  0  0  0
 33 34  1  0  0  0  0
 33 38  1  0  0  0  0
 35 33  1  0  0  0  0
 36 42  1  0  0  0  0
 36 41  1  0  0  0  0
 37 36  2  0  0  0  0
 38 37  1  0  0  0  0
 38 39  2  0  0  0  0
 39 40  1  0  0  0  0
 40 41  2  0  0  0  0
 40 44  1  0  0  0  0
 43 37  1  0  0  0  0
M  END
>  <minimizedAffinity>
-5.89188433

$$$$

 OpenBabel03272509283D

 44 47  0  0  1  0  0  0  0  0999 V2000
   38.5300   24.9230   34.3620 C   0  0  2  0  0  0  0  0  0  0  0  0
   38.6030   24.6320   35.8520 C   0  0  0  0  0  0  0  0  0  0  0  0
   38.1400   25.8090   36.6530 C   0  0  0  0  0  0  0  0  0  0  0  0
   38.5050   27.0980   35.9490 C   0  0  0  0  0  0  0  0  0  0  0  0
   37.4820   27.1970   34.8650 C   0  0  0  0  0  0  0  0  0  0  0  0
   37.6160   25.9800   33.9860 C   0  0  1  0  0  0  0  0  0  0  0  0
   39.6020   25.0160   34.0580 H   0  0  0  0  0  0  0  0  0  0  0  0
   37.9770   23.7270   36.0900 H   0  0  0  0  0  0  0  0  0  0  0  0
   39.6260   24.3640   36.1900 H   0  0  0  0  0  0  0  0  0  0  0  0
   37.0430   25.7750   36.7530 H   0  0  0  0  0  0  0  0  0  0  0  0
   38.6200   25.7590   37.6360 H   0  0  0  0  0  0  0  0  0  0  0  0
   38.3030   27.9230   36.6740 H   0  0  0  0  0  0  0  0  0  0  0  0
   39.5400   27.1570   35.6100 H   0  0  0  0  0  0  0  0  0  0  0  0
   37.4960   28.1630   34.3950 H   0  0  0  0  0  0  0  0  0  0  0  0
   36.4760   27.1220   35.3720 H   0  0  0  0  0  0  0  0  0  0  0  0
   36.6040   25.5830   33.7580 H   0  0  0  0  0  0  0  0  0  0  0  0
   39.4010   26.8790   32.3410 C   0  0  0  0  0  3  0  0  0  0  0  0
   38.1020   26.6260   32.7220 C   0  0  0  0  0  0  0  0  0  0  0  0
   37.1740   27.0920   31.7720 C   0  0  0  0  0  0  0  0  0  0  0  0
   36.1070   26.9770   31.9300 H   0  0  0  0  0  0  0  0  0  0  0  0
   37.4830   27.7270   30.5920 C   0  0  0  0  0  0  0  0  0  0  0  0
   36.7790   28.2330   29.5800 N   0  0  0  0  0  0  0  0  0  0  0  0
   35.7420   28.2380   29.4930 H   0  0  0  0  0  0  0  0  0  0  0  0
   37.6200   28.7470   28.6680 C   0  0  0  0  0  0  0  0  0  0  0  0
   37.3760   29.2310   27.7330 H   0  0  0  0  0  0  0  0  0  0  0  0
   38.9360   28.5710   29.0990 C   0  0  0  0  0  3  0  0  0  0  0  0
   38.8160   27.9300   30.3040 C   0  0  0  0  0  0  0  0  0  0  0  0
   39.7670   27.5080   31.1750 C   0  0  0  0  0  3  0  0  0  0  0  0
   38.0260   23.3620   33.5740 S   0  0  0  0  0  0  0  0  0  0  0  0
   38.1100   23.4180   31.7790 C   0  0  0  0  0  0  0  0  0  0  0  0
   38.8180   22.6240   31.4790 H   0  0  0  0  0  0  0  0  0  0  0  0
   38.6130   24.3500   31.4050 H   0  0  0  0  0  0  0  0  0  0  0  0
   36.7040   23.2590   31.2620 C   0  0  0  0  0  0  0  0  0  0  0  0
   36.5490   23.5680   30.2140 H   0  0  0  0  0  0  0  0  0  0  0  0
   35.9760   23.8680   31.8800 H   0  0  0  0  0  0  0  0  0  0  0  0
   34.7350   20.1950   32.1060 C   0  0  0  0  0  0  0  0  0  0  0  0
   35.1330   21.5290   32.0480 C   0  0  0  0  0  0  0  0  0  0  0  0
   36.2460   21.8760   31.3460 C   0  0  0  0  0  0  0  0  0  0  0  0
   36.9240   20.8650   30.7210 N   0  0  0  0  0  0  0  0  0  0  0  0
   36.5260   19.5970   30.7900 C   0  0  0  0  0  0  0  0  0  0  0  0
   35.4410   19.2340   31.4720 N   0  0  0  0  0  0  0  0  0  0  0  0
   33.8670   19.8400   32.6420 H   0  0  0  0  0  0  0  0  0  0  0  0
   34.4480   22.1480   32.6010 H   0  0  0  0  0  0  0  0  0  0  0  0
   37.1710   18.9020   30.2390 H   0  0  0  0  0  0  0  0  0  0  0  0
  1  7  1  6  0  0  0
  1  2  1  0  0  0  0
  2  8  1  0  0  0  0
  2  9  1  0  0  0  0
  2  3  1  0  0  0  0
  3 10  1  0  0  0  0
  3 11  1  0  0  0  0
  4  3  1  0  0  0  0
  4 12  1  0  0  0  0
  5 15  1  0  0  0  0
  5  4  1  0  0  0  0
  6 16  1  6  0  0  0
  6  1  1  0  0  0  0
  6  5  1  0  0  0  0
 13  4  1  0  0  0  0
 14  5  1  0  0  0  0
 17 18  1  0  0  0  0
 18  6  1  0  0  0  0
 19 20  1  0  0  0  0
 19 18  2  0  0  0  0
 21 19  1  0  0  0  0
 22 21  1  0  0  0  0
 23 22  1  0  0  0  0
 24 26  2  0  0  0  0
 24 22  1  0  0  0  0
 25 24  1  0  0  0  0
 26 27  1  0  0  0  0
 27 21  2  0  0  0  0
 27 28  1  0  0  0  0
 28 17  2  0  0  0  0
 29  1  1  0  0  0  0
 30 29  1  0  0  0  0
 31 30  1  0  0  0  0
 32 30  1  0  0  0  0
 33 38  1  0  0  0  0
 33 30  1  0  0  0  0
 33 35  1  0  0  0  0
 34 33  1  0  0  0  0
 36 42  1  0  0  0  0
 37 36  1  0  0  0  0
 37 43  1  0  0  0  0
 38 37  2  0  0  0  0
 39 40  2  0  0  0  0
 39 38  1  0  0  0  0
 40 41  1  0  0  0  0
 41 36  2  0  0  0  0
 44 40  1  0  0  0  0
M  END
>  <minimizedAffinity>
-5.70609331

$$$$

 OpenBabel03272509283D

 44 47  0  0  1  0  0  0  0  0999 V2000
   37.4870   25.9290   33.0060 C   0  0  2  0  0  0  0  0  0  0  0  0
   36.5620   27.0100   32.4710 C   0  0  0  0  0  0  0  0  0  0  0  0
   36.5610   28.2080   33.3710 C   0  0  0  0  0  0  0  0  0  0  0  0
   36.7410   27.7810   34.8110 C   0  0  0  0  0  0  0  0  0  0  0  0
   38.2020   27.4850   34.8990 C   0  0  0  0  0  0  0  0  0  0  0  0
   38.5160   26.3910   33.9110 C   0  0  1  0  0  0  0  0  0  0  0  0
   36.7860   25.1340   33.3610 H   0  0  0  0  0  0  0  0  0  0  0  0
   36.8850   27.3020   31.4330 H   0  0  0  0  0  0  0  0  0  0  0  0
   35.5150   26.6640   32.3550 H   0  0  0  0  0  0  0  0  0  0  0  0
   37.4020   28.8670   33.1030 H   0  0  0  0  0  0  0  0  0  0  0  0
   35.6050   28.7260   33.2400 H   0  0  0  0  0  0  0  0  0  0  0  0
   36.5460   28.6860   35.4360 H   0  0  0  0  0  0  0  0  0  0  0  0
   36.0890   26.9690   35.1330 H   0  0  0  0  0  0  0  0  0  0  0  0
   38.5180   27.3510   35.9180 H   0  0  0  0  0  0  0  0  0  0  0  0
   38.7350   28.4120   34.5370 H   0  0  0  0  0  0  0  0  0  0  0  0
   39.4510   26.6480   33.3690 H   0  0  0  0  0  0  0  0  0  0  0  0
   38.0780   24.6800   35.8030 C   0  0  0  0  0  3  0  0  0  0  0  0
   38.8760   25.2840   34.8560 C   0  0  0  0  0  0  0  0  0  0  0  0
   40.1850   24.7660   34.8630 C   0  0  0  0  0  0  0  0  0  0  0  0
   40.9390   25.1430   34.1810 H   0  0  0  0  0  0  0  0  0  0  0  0
   40.6530   23.7760   35.6960 C   0  0  0  0  0  0  0  0  0  0  0  0
   41.8210   23.1560   35.8620 N   0  0  0  0  0  0  0  0  0  0  0  0
   42.6940   23.3340   35.3250 H   0  0  0  0  0  0  0  0  0  0  0  0
   41.7050   22.2490   36.8450 C   0  0  0  0  0  0  0  0  0  0  0  0
   42.4630   21.5800   37.2290 H   0  0  0  0  0  0  0  0  0  0  0  0
   40.4030   22.2720   37.3480 C   0  0  0  0  0  3  0  0  0  0  0  0
   39.7700   23.2370   36.6080 C   0  0  0  0  0  0  0  0  0  0  0  0
   38.4930   23.6880   36.6600 C   0  0  0  0  0  3  0  0  0  0  0  0
   38.2510   25.1610   31.5430 S   0  0  0  0  0  0  0  0  0  0  0  0
   37.2000   23.9280   30.7630 C   0  0  0  0  0  0  0  0  0  0  0  0
   37.8810   23.1990   30.2880 H   0  0  0  0  0  0  0  0  0  0  0  0
   36.6350   24.3430   29.8860 H   0  0  0  0  0  0  0  0  0  0  0  0
   36.3010   23.3670   31.8340 C   0  0  0  0  0  0  0  0  0  0  0  0
   35.3020   23.8310   31.9010 H   0  0  0  0  0  0  0  0  0  0  0  0
   36.7710   23.4840   32.8570 H   0  0  0  0  0  0  0  0  0  0  0  0
   34.8520   19.9290   32.0670 C   0  0  0  0  0  0  0  0  0  0  0  0
   35.0310   21.2970   32.2580 C   0  0  0  0  0  0  0  0  0  0  0  0
   36.0700   21.9370   31.6580 C   0  0  0  0  0  0  0  0  0  0  0  0
   36.9000   21.1760   30.8780 N   0  0  0  0  0  0  0  0  0  0  0  0
   36.7100   19.8700   30.7100 C   0  0  0  0  0  0  0  0  0  0  0  0
   35.7000   19.2220   31.2880 N   0  0  0  0  0  0  0  0  0  0  0  0
   34.0550   19.3490   32.5080 H   0  0  0  0  0  0  0  0  0  0  0  0
   34.2580   21.6890   32.8960 H   0  0  0  0  0  0  0  0  0  0  0  0
   37.4560   19.3970   30.0590 H   0  0  0  0  0  0  0  0  0  0  0  0
  1  7  1  1  0  0  0
  1  6  1  0  0  0  0
  2  1  1  0  0  0  0
  2  3  1  0  0  0  0
  3  4  1  0  0  0  0
  4  5  1  0  0  0  0
  4 13  1  0  0  0  0
  4 12  1  0  0  0  0
  5 14  1  0  0  0  0
  6 16  1  6  0  0  0
  6 18  1  0  0  0  0
  6  5  1  0  0  0  0
  8  2  1  0  0  0  0
  9  2  1  0  0  0  0
 10  3  1  0  0  0  0
 11  3  1  0  0  0  0
 15  5  1  0  0  0  0
 17 28  1  0  0  0  0
 18 19  1  0  0  0  0
 18 17  2  0  0  0  0
 19 21  2  0  0  0  0
 20 19  1  0  0  0  0
 21 22  1  0  0  0  0
 21 27  1  0  0  0  0
 22 24  1  0  0  0  0
 23 22  1  0  0  0  0
 24 25  1  0  0  0  0
 24 26  2  0  0  0  0
 27 28  2  0  0  0  0
 27 26  1  0  0  0  0
 29  1  1  0  0  0  0
 30 29  1  0  0  0  0
 30 33  1  0  0  0  0
 31 30  1  0  0  0  0
 32 30  1  0  0  0  0
 33 34  1  0  0  0  0
 33 35  1  0  0  0  0
 36 37  1  0  0  0  0
 36 42  1  0  0  0  0
 37 43  1  0  0  0  0
 38 33  1  0  0  0  0
 38 37  2  0  0  0  0
 39 38  1  0  0  0  0
 40 39  2  0  0  0  0
 40 41  1  0  0  0  0
 41 36  2  0  0  0  0
 44 40  1  0  0  0  0
M  END
>  <minimizedAffinity>
-5.70508718

$$$$

 OpenBabel03272509283D

 44 47  0  0  1  0  0  0  0  0999 V2000
   36.7470   21.7420   31.7880 C   0  0  2  0  0  0  0  0  0  0  0  0
   35.6520   21.0030   31.0350 C   0  0  0  0  0  0  0  0  0  0  0  0
   34.8200   20.1810   31.9700 C   0  0  0  0  0  0  0  0  0  0  0  0
   35.6710   19.6560   33.1060 C   0  0  0  0  0  0  0  0  0  0  0  0
   35.8270   20.8460   33.9940 C   0  0  0  0  0  0  0  0  0  0  0  0
   36.5010   21.9350   33.2000 C   0  0  1  0  0  0  0  0  0  0  0  0
   37.6820   21.2130   31.4800 H   0  0  0  0  0  0  0  0  0  0  0  0
   35.0060   21.7440   30.4870 H   0  0  0  0  0  0  0  0  0  0  0  0
   36.0480   20.3330   30.2450 H   0  0  0  0  0  0  0  0  0  0  0  0
   34.0260   20.8110   32.4040 H   0  0  0  0  0  0  0  0  0  0  0  0
   34.3880   19.3520   31.3990 H   0  0  0  0  0  0  0  0  0  0  0  0
   35.0440   18.9110   33.6530 H   0  0  0  0  0  0  0  0  0  0  0  0
   36.6060   19.1880   32.7980 H   0  0  0  0  0  0  0  0  0  0  0  0
   36.2520   20.5780   34.9440 H   0  0  0  0  0  0  0  0  0  0  0  0
   34.7830   21.2100   34.2230 H   0  0  0  0  0  0  0  0  0  0  0  0
   35.9870   22.9000   33.3960 H   0  0  0  0  0  0  0  0  0  0  0  0
   39.0800   21.8520   33.4070 C   0  0  0  0  0  3  0  0  0  0  0  0
   37.8130   22.0100   33.9240 C   0  0  0  0  0  0  0  0  0  0  0  0
   37.8340   22.2310   35.3130 C   0  0  0  0  0  0  0  0  0  0  0  0
   36.9140   22.3670   35.8730 H   0  0  0  0  0  0  0  0  0  0  0  0
   38.9620   22.2910   36.1000 C   0  0  0  0  0  0  0  0  0  0  0  0
   39.1980   22.4860   37.3970 N   0  0  0  0  0  0  0  0  0  0  0  0
   38.4840   22.6470   38.1360 H   0  0  0  0  0  0  0  0  0  0  0  0
   40.5220   22.4430   37.6170 C   0  0  0  0  0  0  0  0  0  0  0  0
   41.0470   22.5630   38.5540 H   0  0  0  0  0  0  0  0  0  0  0  0
   41.1860   22.2100   36.4110 C   0  0  0  0  0  3  0  0  0  0  0  0
   40.1830   22.1210   35.4820 C   0  0  0  0  0  0  0  0  0  0  0  0
   40.2380   21.9030   34.1450 C   0  0  0  0  0  3  0  0  0  0  0  0
   36.9130   23.3560   30.9630 S   0  0  0  0  0  0  0  0  0  0  0  0
   36.3490   24.7290   31.9780 C   0  0  0  0  0  0  0  0  0  0  0  0
   37.2570   25.1900   32.4050 H   0  0  0  0  0  0  0  0  0  0  0  0
   35.7960   24.3830   32.8930 H   0  0  0  0  0  0  0  0  0  0  0  0
   35.5230   25.6270   31.0940 C   0  0  0  0  0  0  0  0  0  0  0  0
   34.4370   25.6090   31.2870 H   0  0  0  0  0  0  0  0  0  0  0  0
   35.6530   25.3490   30.0040 H   0  0  0  0  0  0  0  0  0  0  0  0
   37.1760   28.9230   30.4830 C   0  0  0  0  0  0  0  0  0  0  0  0
   36.8120   27.5860   30.3360 C   0  0  0  0  0  0  0  0  0  0  0  0
   35.9300   27.0240   31.2050 C   0  0  0  0  0  0  0  0  0  0  0  0
   35.4380   27.8290   32.1980 N   0  0  0  0  0  0  0  0  0  0  0  0
   35.8000   29.1030   32.3190 C   0  0  0  0  0  0  0  0  0  0  0  0
   36.6630   29.6750   31.4810 N   0  0  0  0  0  0  0  0  0  0  0  0
   37.8700   29.4420   29.8370 H   0  0  0  0  0  0  0  0  0  0  0  0
   37.3110   27.1550   29.4860 H   0  0  0  0  0  0  0  0  0  0  0  0
   35.3230   29.6180   33.1620 H   0  0  0  0  0  0  0  0  0  0  0  0
  1  7  1  6  0  0  0
  1  6  1  0  0  0  0
  2  1  1  0  0  0  0
  2  3  1  0  0  0  0
  3 10  1  0  0  0  0
  3  4  1  0  0  0  0
  4 12  1  0  0  0  0
  4  5  1  0  0  0  0
  5 15  1  0  0  0  0
  5 14  1  0  0  0  0
  6 16  1  1  0  0  0
  6 18  1  0  0  0  0
  6  5  1  0  0  0  0
  8  2  1  0  0  0  0
  9  2  1  0  0  0  0
 11  3  1  0  0  0  0
 13  4  1  0  0  0  0
 17 18  2  0  0  0  0
 17 28  1  0  0  0  0
 18 19  1  0  0  0  0
 19 20  1  0  0  0  0
 19 21  2  0  0  0  0
 21 22  1  0  0  0  0
 22 24  1  0  0  0  0
 22 23  1  0  0  0  0
 24 25  1  0  0  0  0
 26 24  2  0  0  0  0
 27 21  1  0  0  0  0
 27 26  1  0  0  0  0
 28 27  2  0  0  0  0
 29  1  1  0  0  0  0
 29 30  1  0  0  0  0
 30 31  1  0  0  0  0
 30 32  1  0  0  0  0
 33 38  1  0  0  0  0
 33 34  1  0  0  0  0
 33 30  1  0  0  0  0
 35 33  1  0  0  0  0
 36 41  1  0  0  0  0
 37 36  2  0  0  0  0
 37 38  1  0  0  0  0
 38 39  2  0  0  0  0
 39 40  1  0  0  0  0
 40 44  1  0  0  0  0
 41 40  2  0  0  0  0
 42 36  1  0  0  0  0
 43 37  1  0  0  0  0
M  END
>  <minimizedAffinity>
-5.67403889

$$$$

 OpenBabel03272509283D

 44 47  0  0  1  0  0  0  0  0999 V2000
   37.9360   25.8700   31.9470 C   0  0  2  0  0  0  0  0  0  0  0  0
   38.4880   26.4270   30.6450 C   0  0  0  0  0  0  0  0  0  0  0  0
   39.9780   26.2870   30.5890 C   0  0  0  0  0  0  0  0  0  0  0  0
   40.5690   26.4310   31.9750 C   0  0  0  0  0  0  0  0  0  0  0  0
   40.2820   25.1090   32.6070 C   0  0  0  0  0  0  0  0  0  0  0  0
   38.7890   24.9110   32.6160 C   0  0  1  0  0  0  0  0  0  0  0  0
   37.6200   26.7810   32.5110 H   0  0  0  0  0  0  0  0  0  0  0  0
   38.0130   25.8920   29.7760 H   0  0  0  0  0  0  0  0  0  0  0  0
   38.2350   27.4960   30.4910 H   0  0  0  0  0  0  0  0  0  0  0  0
   40.2380   25.2850   30.2110 H   0  0  0  0  0  0  0  0  0  0  0  0
   40.3650   27.0660   29.9230 H   0  0  0  0  0  0  0  0  0  0  0  0
   41.6760   26.5030   31.8400 H   0  0  0  0  0  0  0  0  0  0  0  0
   40.2140   27.2950   32.5370 H   0  0  0  0  0  0  0  0  0  0  0  0
   40.8130   24.9900   33.5350 H   0  0  0  0  0  0  0  0  0  0  0  0
   40.7100   24.3270   31.9130 H   0  0  0  0  0  0  0  0  0  0  0  0
   38.5570   23.8710   32.3020 H   0  0  0  0  0  0  0  0  0  0  0  0
   38.4240   26.0780   34.8980 C   0  0  0  0  0  3  0  0  0  0  0  0
   38.5290   24.9650   34.0920 C   0  0  0  0  0  0  0  0  0  0  0  0
   38.4000   23.7710   34.8250 C   0  0  0  0  0  0  0  0  0  0  0  0
   38.4670   22.8040   34.3370 H   0  0  0  0  0  0  0  0  0  0  0  0
   38.1910   23.6790   36.1820 C   0  0  0  0  0  0  0  0  0  0  0  0
   38.0430   22.6780   37.0480 N   0  0  0  0  0  0  0  0  0  0  0  0
   38.0610   21.6620   36.8250 H   0  0  0  0  0  0  0  0  0  0  0  0
   37.8630   23.1810   38.2800 C   0  0  0  0  0  0  0  0  0  0  0  0
   37.7140   22.6430   39.2060 H   0  0  0  0  0  0  0  0  0  0  0  0
   37.8940   24.5750   38.2220 C   0  0  0  0  0  3  0  0  0  0  0  0
   38.1000   24.8550   36.8960 C   0  0  0  0  0  0  0  0  0  0  0  0
   38.2160   26.0450   36.2560 C   0  0  0  0  0  3  0  0  0  0  0  0
   36.3470   25.0920   31.5220 S   0  0  0  0  0  0  0  0  0  0  0  0
   36.5000   23.3470   31.1190 C   0  0  0  0  0  0  0  0  0  0  0  0
   37.5600   23.0840   31.2870 H   0  0  0  0  0  0  0  0  0  0  0  0
   36.3700   23.1490   30.0210 H   0  0  0  0  0  0  0  0  0  0  0  0
   35.5080   22.6030   31.9740 C   0  0  0  0  0  0  0  0  0  0  0  0
   34.4470   22.8120   31.7550 H   0  0  0  0  0  0  0  0  0  0  0  0
   35.6560   22.8490   33.0700 H   0  0  0  0  0  0  0  0  0  0  0  0
   35.4970   18.9400   32.7220 C   0  0  0  0  0  0  0  0  0  0  0  0
   35.3230   20.3150   32.8720 C   0  0  0  0  0  0  0  0  0  0  0  0
   35.6660   21.1570   31.8610 C   0  0  0  0  0  0  0  0  0  0  0  0
   36.1740   20.5870   30.7240 N   0  0  0  0  0  0  0  0  0  0  0  0
   36.3320   19.2720   30.6030 C   0  0  0  0  0  0  0  0  0  0  0  0
   36.0040   18.4270   31.5800 N   0  0  0  0  0  0  0  0  0  0  0  0
   35.2510   18.2070   33.4770 H   0  0  0  0  0  0  0  0  0  0  0  0
   34.9020   20.5350   33.8380 H   0  0  0  0  0  0  0  0  0  0  0  0
   36.7490   18.9650   29.6360 H   0  0  0  0  0  0  0  0  0  0  0  0
  1  7  1  1  0  0  0
  1  6  1  0  0  0  0
  2  1  1  0  0  0  0
  3  2  1  0  0  0  0
  3  4  1  0  0  0  0
  4 13  1  0  0  0  0
  4  5  1  0  0  0  0
  5  6  1  0  0  0  0
  5 14  1  0  0  0  0
  6 16  1  6  0  0  0
  6 18  1  0  0  0  0
  8  2  1  0  0  0  0
  9  2  1  0  0  0  0
 10  3  1  0  0  0  0
 11  3  1  0  0  0  0
 12  4  1  0  0  0  0
 15  5  1  0  0  0  0
 17 28  1  0  0  0  0
 18 19  1  0  0  0  0
 18 17  2  0  0  0  0
 19 21  2  0  0  0  0
 20 19  1  0  0  0  0
 21 27  1  0  0  0  0
 21 22  1  0  0  0  0
 22 24  1  0  0  0  0
 23 22  1  0  0  0  0
 24 25  1  0  0  0  0
 26 24  2  0  0  0  0
 27 26  1  0  0  0  0
 28 27  2  0  0  0  0
 29  1  1  0  0  0  0
 30 31  1  0  0  0  0
 30 29  1  0  0  0  0
 30 33  1  0  0  0  0
 32 30  1  0  0  0  0
 33 35  1  0  0  0  0
 34 33  1  0  0  0  0
 36 37  1  0  0  0  0
 36 42  1  0  0  0  0
 37 43  1  0  0  0  0
 38 33  1  0  0  0  0
 38 37  2  0  0  0  0
 39 38  1  0  0  0  0
 40 39  2  0  0  0  0
 40 41  1  0  0  0  0
 41 36  2  0  0  0  0
 44 40  1  0  0  0  0
M  END
>  <minimizedAffinity>
-5.59633827

$$$$

 OpenBabel03272509283D

 44 47  0  0  1  0  0  0  0  0999 V2000
   39.1570   25.0940   33.4810 C   0  0  2  0  0  0  0  0  0  0  0  0
   40.4970   24.4270   33.7450 C   0  0  0  0  0  0  0  0  0  0  0  0
   41.3350   25.2520   34.6720 C   0  0  0  0  0  0  0  0  0  0  0  0
   41.0690   26.7240   34.4470 C   0  0  0  0  0  0  0  0  0  0  0  0
   39.7600   26.9440   35.1340 C   0  0  0  0  0  0  0  0  0  0  0  0
   38.7370   26.0500   34.4830 C   0  0  1  0  0  0  0  0  0  0  0  0
   39.2380   25.4390   32.4210 H   0  0  0  0  0  0  0  0  0  0  0  0
   40.3280   23.4020   34.1790 H   0  0  0  0  0  0  0  0  0  0  0  0
   41.0810   24.2490   32.8180 H   0  0  0  0  0  0  0  0  0  0  0  0
   41.0690   25.0140   35.7150 H   0  0  0  0  0  0  0  0  0  0  0  0
   42.3860   25.0170   34.4770 H   0  0  0  0  0  0  0  0  0  0  0  0
   41.8460   27.2780   35.0270 H   0  0  0  0  0  0  0  0  0  0  0  0
   41.0990   27.0410   33.4050 H   0  0  0  0  0  0  0  0  0  0  0  0
   39.5320   27.9910   35.2230 H   0  0  0  0  0  0  0  0  0  0  0  0
   39.8920   26.5720   36.1920 H   0  0  0  0  0  0  0  0  0  0  0  0
   38.1200   25.5680   35.2720 H   0  0  0  0  0  0  0  0  0  0  0  0
   36.7960   27.7590   34.3990 C   0  0  0  0  0  3  0  0  0  0  0  0
   37.8590   27.0830   33.8430 C   0  0  0  0  0  0  0  0  0  0  0  0
   38.0600   27.4350   32.4950 C   0  0  0  0  0  0  0  0  0  0  0  0
   38.8550   26.9830   31.9110 H   0  0  0  0  0  0  0  0  0  0  0  0
   37.3100   28.3410   31.7810 C   0  0  0  0  0  0  0  0  0  0  0  0
   37.3310   28.8080   30.5330 N   0  0  0  0  0  0  0  0  0  0  0  0
   38.0010   28.5360   29.7850 H   0  0  0  0  0  0  0  0  0  0  0  0
   36.3400   29.7000   30.3780 C   0  0  0  0  0  0  0  0  0  0  0  0
   36.0810   30.2620   29.4910 H   0  0  0  0  0  0  0  0  0  0  0  0
   35.6360   29.8270   31.5760 C   0  0  0  0  0  3  0  0  0  0  0  0
   36.2680   28.9650   32.4340 C   0  0  0  0  0  0  0  0  0  0  0  0
   36.0140   28.6740   33.7340 C   0  0  0  0  0  3  0  0  0  0  0  0
   37.9430   23.7430   33.3680 S   0  0  0  0  0  0  0  0  0  0  0  0
   36.7330   23.9890   32.0610 C   0  0  0  0  0  0  0  0  0  0  0  0
   36.8090   25.0510   31.7670 H   0  0  0  0  0  0  0  0  0  0  0  0
   35.6770   23.9140   32.4380 H   0  0  0  0  0  0  0  0  0  0  0  0
   37.0430   22.9940   30.9730 C   0  0  0  0  0  0  0  0  0  0  0  0
   38.1140   22.7820   30.8190 H   0  0  0  0  0  0  0  0  0  0  0  0
   36.6480   23.3550   29.9740 H   0  0  0  0  0  0  0  0  0  0  0  0
   36.2710   19.3370   30.9690 C   0  0  0  0  0  0  0  0  0  0  0  0
   36.9150   20.5460   30.7160 C   0  0  0  0  0  0  0  0  0  0  0  0
   36.4060   21.7040   31.2160 C   0  0  0  0  0  0  0  0  0  0  0  0
   35.2610   21.6080   31.9600 N   0  0  0  0  0  0  0  0  0  0  0  0
   34.6620   20.4430   32.1890 C   0  0  0  0  0  0  0  0  0  0  0  0
   35.1410   19.2960   31.7090 N   0  0  0  0  0  0  0  0  0  0  0  0
   36.6090   18.3770   30.6070 H   0  0  0  0  0  0  0  0  0  0  0  0
   37.7970   20.3820   30.1220 H   0  0  0  0  0  0  0  0  0  0  0  0
   33.7550   20.5260   32.8010 H   0  0  0  0  0  0  0  0  0  0  0  0
  1  7  1  6  0  0  0
  1  2  1  0  0  0  0
  1  6  1  0  0  0  0
  2  8  1  0  0  0  0
  2  3  1  0  0  0  0
  3 10  1  0  0  0  0
  4  3  1  0  0  0  0
  4 12  1  0  0  0  0
  4  5  1  0  0  0  0
  5 14  1  0  0  0  0
  5 15  1  0  0  0  0
  6  5  1  0  0  0  0
  6 16  1  1  0  0  0
  9  2  1  0  0  0  0
 11  3  1  0  0  0  0
 13  4  1  0  0  0  0
 18 17  1  0  0  0  0
 18  6  1  0  0  0  0
 19 18  2  0  0  0  0
 20 19  1  0  0  0  0
 21 27  2  0  0  0  0
 21 19  1  0  0  0  0
 22 21  1  0  0  0  0
 23 22  1  0  0  0  0
 24 22  1  0  0  0  0
 24 26  2  0  0  0  0
 25 24  1  0  0  0  0
 26 27  1  0  0  0  0
 27 28  1  0  0  0  0
 28 17  2  0  0  0  0
 29  1  1  0  0  0  0
 30 32  1  0  0  0  0
 30 29  1  0  0  0  0
 31 30  1  0  0  0  0
 33 38  1  0  0  0  0
 33 30  1  0  0  0  0
 34 33  1  0  0  0  0
 35 33  1  0  0  0  0
 36 41  1  0  0  0  0
 37 36  2  0  0  0  0
 37 38  1  0  0  0  0
 38 39  2  0  0  0  0
 39 40  1  0  0  0  0
 40 44  1  0  0  0  0
 41 40  2  0  0  0  0
 42 36  1  0  0  0  0
 43 37  1  0  0  0  0
M  END
>  <minimizedAffinity>
-5.49268961

$$$$

 OpenBabel03272509283D

 44 47  0  0  1  0  0  0  0  0999 V2000
   38.1330   27.0770   32.6540 C   0  0  2  0  0  0  0  0  0  0  0  0
   38.8260   27.6450   31.4260 C   0  0  0  0  0  0  0  0  0  0  0  0
   40.1080   26.9220   31.1500 C   0  0  0  0  0  0  0  0  0  0  0  0
   40.7500   26.4810   32.4470 C   0  0  0  0  0  0  0  0  0  0  0  0
   39.9440   25.2860   32.8390 C   0  0  0  0  0  0  0  0  0  0  0  0
   38.5120   25.7250   33.0040 C   0  0  1  0  0  0  0  0  0  0  0  0
   38.2590   27.8780   33.4230 H   0  0  0  0  0  0  0  0  0  0  0  0
   38.1380   27.5730   30.5380 H   0  0  0  0  0  0  0  0  0  0  0  0
   39.0530   28.7270   31.5210 H   0  0  0  0  0  0  0  0  0  0  0  0
   39.8980   26.0210   30.5510 H   0  0  0  0  0  0  0  0  0  0  0  0
   40.7700   27.6040   30.6060 H   0  0  0  0  0  0  0  0  0  0  0  0
   41.7750   26.1210   32.1860 H   0  0  0  0  0  0  0  0  0  0  0  0
   40.8210   27.2570   33.2100 H   0  0  0  0  0  0  0  0  0  0  0  0
   40.4030   24.7470   33.6470 H   0  0  0  0  0  0  0  0  0  0  0  0
   39.9690   24.5840   31.9550 H   0  0  0  0  0  0  0  0  0  0  0  0
   37.8450   24.9770   32.5230 H   0  0  0  0  0  0  0  0  0  0  0  0
   38.3800   26.4920   35.4720 C   0  0  0  0  0  3  0  0  0  0  0  0
   38.3510   25.5340   34.4820 C   0  0  0  0  0  0  0  0  0  0  0  0
   38.1800   24.2390   35.0070 C   0  0  0  0  0  0  0  0  0  0  0  0
   38.1450   23.3720   34.3560 H   0  0  0  0  0  0  0  0  0  0  0  0
   38.0520   23.9230   36.3400 C   0  0  0  0  0  0  0  0  0  0  0  0
   37.8860   22.7960   37.0310 N   0  0  0  0  0  0  0  0  0  0  0  0
   37.8140   21.8360   36.6350 H   0  0  0  0  0  0  0  0  0  0  0  0
   37.8220   23.0840   38.3400 C   0  0  0  0  0  0  0  0  0  0  0  0
   37.6920   22.4020   39.1690 H   0  0  0  0  0  0  0  0  0  0  0  0
   37.9520   24.4620   38.5200 C   0  0  0  0  0  3  0  0  0  0  0  0
   38.0930   24.9580   37.2500 C   0  0  0  0  0  0  0  0  0  0  0  0
   38.2560   26.2330   36.8170 C   0  0  0  0  0  3  0  0  0  0  0  0
   36.3500   27.1460   32.2950 S   0  0  0  0  0  0  0  0  0  0  0  0
   35.9120   26.3560   30.7400 C   0  0  0  0  0  0  0  0  0  0  0  0
   36.8590   26.2170   30.1880 H   0  0  0  0  0  0  0  0  0  0  0  0
   35.3330   27.0400   30.0630 H   0  0  0  0  0  0  0  0  0  0  0  0
   35.1690   25.0900   31.0770 C   0  0  0  0  0  0  0  0  0  0  0  0
   34.3530   24.8240   30.3840 H   0  0  0  0  0  0  0  0  0  0  0  0
   34.6970   25.1610   32.1040 H   0  0  0  0  0  0  0  0  0  0  0  0
   36.6050   21.7180   31.8120 C   0  0  0  0  0  0  0  0  0  0  0  0
   35.7250   22.7980   31.7930 C   0  0  0  0  0  0  0  0  0  0  0  0
   36.0560   23.9320   31.1190 C   0  0  0  0  0  0  0  0  0  0  0  0
   37.2670   23.9430   30.4820 N   0  0  0  0  0  0  0  0  0  0  0  0
   38.0930   22.9010   30.5130 C   0  0  0  0  0  0  0  0  0  0  0  0
   37.7900   21.7800   31.1660 N   0  0  0  0  0  0  0  0  0  0  0  0
   36.4170   20.7850   32.3230 H   0  0  0  0  0  0  0  0  0  0  0  0
   34.8340   22.5630   32.3490 H   0  0  0  0  0  0  0  0  0  0  0  0
   39.0240   23.0590   29.9560 H   0  0  0  0  0  0  0  0  0  0  0  0
  1  6  1  0  0  0  0
  1  7  1  1  0  0  0
  2  9  1  0  0  0  0
  2  1  1  0  0  0  0
  3  2  1  0  0  0  0
  3  4  1  0  0  0  0
  4  5  1  0  0  0  0
  4 13  1  0  0  0  0
  5  6  1  0  0  0  0
  5 14  1  0  0  0  0
  6 16  1  6  0  0  0
  6 18  1  0  0  0  0
  8  2  1  0  0  0  0
 10  3  1  0  0  0  0
 11  3  1  0  0  0  0
 12  4  1  0  0  0  0
 15  5  1  0  0  0  0
 17 28  1  0  0  0  0
 18 19  1  0  0  0  0
 18 17  2  0  0  0  0
 19 21  2  0  0  0  0
 20 19  1  0  0  0  0
 21 22  1  0  0  0  0
 21 27  1  0  0  0  0
 22 24  1  0  0  0  0
 23 22  1  0  0  0  0
 24 26  2  0  0  0  0
 24 25  1  0  0  0  0
 27 26  1  0  0  0  0
 28 27  2  0  0  0  0
 29  1  1  0  0  0  0
 30 33  1  0  0  0  0
 30 29  1  0  0  0  0
 31 30  1  0  0  0  0
 32 30  1  0  0  0  0
 33 38  1  0  0  0  0
 33 35  1  0  0  0  0
 34 33  1  0  0  0  0
 36 42  1  0  0  0  0
 37 36  1  0  0  0  0
 37 43  1  0  0  0  0
 38 37  2  0  0  0  0
 39 40  2  0  0  0  0
 39 38  1  0  0  0  0
 40 41  1  0  0  0  0
 41 36  2  0  0  0  0
 44 40  1  0  0  0  0
M  END
>  <minimizedAffinity>
-5.43070364

$$$$

 OpenBabel03272509283D

 44 47  0  0  1  0  0  0  0  0999 V2000
   37.9230   22.4950   32.6030 C   0  0  2  0  0  0  0  0  0  0  0  0
   37.5760   21.0320   32.8280 C   0  0  0  0  0  0  0  0  0  0  0  0
   36.2370   20.7020   32.2440 C   0  0  0  0  0  0  0  0  0  0  0  0
   35.3110   21.8940   32.3520 C   0  0  0  0  0  0  0  0  0  0  0  0
   35.7770   22.7890   31.2510 C   0  0  0  0  0  0  0  0  0  0  0  0
   37.2210   23.1330   31.5100 C   0  0  1  0  0  0  0  0  0  0  0  0
   37.8380   22.9460   33.6220 H   0  0  0  0  0  0  0  0  0  0  0  0
   38.3730   20.3820   32.3700 H   0  0  0  0  0  0  0  0  0  0  0  0
   37.5640   20.7510   33.9010 H   0  0  0  0  0  0  0  0  0  0  0  0
   36.3540   20.4570   31.1760 H   0  0  0  0  0  0  0  0  0  0  0  0
   35.8300   19.8480   32.7960 H   0  0  0  0  0  0  0  0  0  0  0  0
   34.2920   21.5280   32.0750 H   0  0  0  0  0  0  0  0  0  0  0  0
   35.2760   22.3590   33.3370 H   0  0  0  0  0  0  0  0  0  0  0  0
   35.0890   23.5970   31.0790 H   0  0  0  0  0  0  0  0  0  0  0  0
   35.7560   22.1680   30.3080 H   0  0  0  0  0  0  0  0  0  0  0  0
   37.7900   23.0550   30.5600 H   0  0  0  0  0  0  0  0  0  0  0  0
   37.1530   25.2370   33.0160 C   0  0  0  0  0  3  0  0  0  0  0  0
   37.0910   24.5990   31.7970 C   0  0  0  0  0  0  0  0  0  0  0  0
   36.8360   25.4990   30.7450 C   0  0  0  0  0  0  0  0  0  0  0  0
   36.7490   25.1510   29.7200 H   0  0  0  0  0  0  0  0  0  0  0  0
   36.6650   26.8580   30.8730 C   0  0  0  0  0  0  0  0  0  0  0  0
   36.4240   27.8620   30.0310 N   0  0  0  0  0  0  0  0  0  0  0  0
   36.3070   27.7870   29.0000 H   0  0  0  0  0  0  0  0  0  0  0  0
   36.3510   29.0110   30.7210 C   0  0  0  0  0  0  0  0  0  0  0  0
   36.1670   30.0070   30.3430 H   0  0  0  0  0  0  0  0  0  0  0  0
   36.5540   28.7520   32.0780 C   0  0  0  0  0  3  0  0  0  0  0  0
   36.7480   27.3970   32.1390 C   0  0  0  0  0  0  0  0  0  0  0  0
   36.9900   26.5900   33.2020 C   0  0  0  0  0  3  0  0  0  0  0  0
   39.7160   22.5390   32.2950 S   0  0  0  0  0  0  0  0  0  0  0  0
   40.6840   22.7530   33.7950 C   0  0  0  0  0  0  0  0  0  0  0  0
   41.7440   22.7530   33.4800 H   0  0  0  0  0  0  0  0  0  0  0  0
   40.6290   21.8570   34.4690 H   0  0  0  0  0  0  0  0  0  0  0  0
   40.2080   24.0190   34.4570 C   0  0  0  0  0  0  0  0  0  0  0  0
   39.3970   24.5510   33.9310 H   0  0  0  0  0  0  0  0  0  0  0  0
   41.0560   24.7640   34.5600 H   0  0  0  0  0  0  0  0  0  0  0  0
   38.1420   24.0820   37.5720 C   0  0  0  0  0  0  0  0  0  0  0  0
   38.5690   24.3370   36.2700 C   0  0  0  0  0  0  0  0  0  0  0  0
   39.7190   23.7760   35.8100 C   0  0  0  0  0  0  0  0  0  0  0  0
   40.4070   22.9710   36.6780 N   0  0  0  0  0  0  0  0  0  0  0  0
   39.9820   22.7410   37.9170 C   0  0  0  0  0  0  0  0  0  0  0  0
   38.8590   23.2800   38.3900 N   0  0  0  0  0  0  0  0  0  0  0  0
   37.2430   24.4890   38.0120 H   0  0  0  0  0  0  0  0  0  0  0  0
   37.8700   24.9850   35.7690 H   0  0  0  0  0  0  0  0  0  0  0  0
   40.6380   22.0770   38.4920 H   0  0  0  0  0  0  0  0  0  0  0  0
  1  2  1  0  0  0  0
  1  7  1  1  0  0  0
  2  9  1  0  0  0  0
  3  4  1  0  0  0  0
  3 11  1  0  0  0  0
  3  2  1  0  0  0  0
  4 13  1  0  0  0  0
  5  6  1  0  0  0  0
  5  4  1  0  0  0  0
  6 16  1  6  0  0  0
  6 18  1  0  0  0  0
  6  1  1  0  0  0  0
  8  2  1  0  0  0  0
 10  3  1  0  0  0  0
 12  4  1  0  0  0  0
 14  5  1  0  0  0  0
 15  5  1  0  0  0  0
 17 28  1  0  0  0  0
 18 17  2  0  0  0  0
 19 21  2  0  0  0  0
 19 18  1  0  0  0  0
 20 19  1  0  0  0  0
 21 27  1  0  0  0  0
 22 24  1  0  0  0  0
 22 21  1  0  0  0  0
 23 22  1  0  0  0  0
 24 26  2  0  0  0  0
 25 24  1  0  0  0  0
 26 27  1  0  0  0  0
 27 28  2  0  0  0  0
 29  1  1  0  0  0  0
 29 30  1  0  0  0  0
 30 33  1  0  0  0  0
 30 32  1  0  0  0  0
 31 30  1  0  0  0  0
 33 35  1  0  0  0  0
 33 38  1  0  0  0  0
 34 33  1  0  0  0  0
 36 42  1  0  0  0  0
 36 41  1  0  0  0  0
 37 36  2  0  0  0  0
 38 37  1  0  0  0  0
 38 39  2  0  0  0  0
 39 40  1  0  0  0  0
 40 41  2  0  0  0  0
 40 44  1  0  0  0  0
 43 37  1  0  0  0  0
M  END
>  <minimizedAffinity>
-5.39135265

$$$$
