
 OpenBabel03272506323D

 43 46  0  0  1  0  0  0  0  0999 V2000
   38.1200   26.3550   35.3390 C   0  0  1  0  0  0  0  0  0  0  0  0
   39.4360   26.9360   35.1570 C   0  0  0  0  0  0  0  0  0  0  0  0
   39.9720   26.9840   33.7390 C   0  0  0  0  0  0  0  0  0  0  0  0
   38.9580   27.2890   32.6880 C   0  0  0  0  0  0  0  0  0  0  0  0
   37.5880   26.7520   32.8760 C   0  0  0  0  0  0  0  0  0  0  0  0
   37.1430   26.8050   34.2860 C   0  0  2  0  0  0  0  0  0  0  0  0
   37.6630   26.7870   36.2860 H   0  0  0  0  0  0  0  0  0  0  0  0
   39.3430   28.0290   35.4330 H   0  0  0  0  0  0  0  0  0  0  0  0
   40.2470   26.5900   35.7910 H   0  0  0  0  0  0  0  0  0  0  0  0
   40.4920   26.0090   33.5740 H   0  0  0  0  0  0  0  0  0  0  0  0
   40.7610   27.7710   33.6970 H   0  0  0  0  0  0  0  0  0  0  0  0
   39.3570   26.8450   31.7320 H   0  0  0  0  0  0  0  0  0  0  0  0
   38.9090   28.3780   32.4750 H   0  0  0  0  0  0  0  0  0  0  0  0
   36.8860   27.3280   32.2720 H   0  0  0  0  0  0  0  0  0  0  0  0
   37.5550   25.6860   32.5390 H   0  0  0  0  0  0  0  0  0  0  0  0
   36.1510   26.3810   34.3700 H   0  0  0  0  0  0  0  0  0  0  0  0
   38.3140   23.9320   34.5650 C   0  0  0  0  0  0  0  0  0  0  0  0
   38.0580   24.9060   35.5790 C   0  0  0  0  0  0  0  0  0  0  0  0
   37.7440   24.4030   36.8260 C   0  0  0  0  0  0  0  0  0  0  0  0
   37.6910   23.0430   37.0320 N   0  0  0  0  0  0  0  0  0  0  0  0
   37.9440   22.1680   36.0300 C   0  0  0  0  0  0  0  0  0  0  0  0
   38.2570   22.6320   34.7910 N   0  0  0  0  0  0  0  0  0  0  0  0
   38.5630   24.2960   33.5770 H   0  0  0  0  0  0  0  0  0  0  0  0
   37.5310   25.0520   37.6690 H   0  0  0  0  0  0  0  0  0  0  0  0
   37.8660   21.1330   36.3350 H   0  0  0  0  0  0  0  0  0  0  0  0
   36.9340   28.3160   34.5810 C   0  0  0  0  0  0  0  0  0  0  0  0
   36.6060   28.4850   35.6100 H   0  0  0  0  0  0  0  0  0  0  0  0
   37.8840   28.8730   34.4390 H   0  0  0  0  0  0  0  0  0  0  0  0
   35.8390   28.8840   33.6920 C   0  0  0  0  0  0  0  0  0  0  0  0
   35.3070   28.0630   33.2050 H   0  0  0  0  0  0  0  0  0  0  0  0
   36.3180   29.5770   32.9700 H   0  0  0  0  0  0  0  0  0  0  0  0
   33.5710   29.5340   34.6520 C   0  0  0  0  0  3  0  0  0  0  0  0
   34.9310   29.7020   34.5390 C   0  0  0  0  0  0  0  0  0  0  0  0
   35.5710   30.7110   35.2610 C   0  0  0  0  0  0  0  0  0  0  0  0
   36.6540   30.8750   35.1970 H   0  0  0  0  0  0  0  0  0  0  0  0
   34.9020   31.5670   36.0960 C   0  0  0  0  0  0  0  0  0  0  0  0
   35.2910   32.5970   36.8800 N   0  0  0  0  0  0  0  0  0  0  0  0
   36.2740   32.9560   36.9980 H   0  0  0  0  0  0  0  0  0  0  0  0
   34.1940   33.1010   37.5020 C   0  0  0  0  0  0  0  0  0  0  0  0
   34.2640   33.9430   38.1900 H   0  0  0  0  0  0  0  0  0  0  0  0
   33.1120   32.3710   37.0950 C   0  0  0  0  0  3  0  0  0  0  0  0
   33.5420   31.3970   36.2050 C   0  0  0  0  0  0  0  0  0  0  0  0
   32.8900   30.4020   35.4980 C   0  0  0  0  0  3  0  0  0  0  0  0
  1 18  1  0  0  0  0
  1  7  1  1  0  0  0
  2  1  1  0  0  0  0
  2  8  1  0  0  0  0
  2  9  1  0  0  0  0
  3  2  1  0  0  0  0
  4  5  1  0  0  0  0
  4  3  1  0  0  0  0
  5  6  1  0  0  0  0
  6 16  1  1  0  0  0
  6 26  1  0  0  0  0
  6  1  1  0  0  0  0
 10  3  1  0  0  0  0
 11  3  1  0  0  0  0
 12  4  1  0  0  0  0
 13  4  1  0  0  0  0
 14  5  1  0  0  0  0
 15  5  1  0  0  0  0
 17 22  2  0  0  0  0
 17 18  1  0  0  0  0
 18 19  2  0  0  0  0
 19 20  1  0  0  0  0
 19 24  1  0  0  0  0
 21 25  1  0  0  0  0
 21 20  2  0  0  0  0
 22 21  1  0  0  0  0
 23 17  1  0  0  0  0
 26 27  1  0  0  0  0
 28 26  1  0  0  0  0
 29 33  1  0  0  0  0
 29 26  1  0  0  0  0
 30 29  1  0  0  0  0
 31 29  1  0  0  0  0
 32 43  1  0  0  0  0
 33 32  2  0  0  0  0
 33 34  1  0  0  0  0
 34 36  2  0  0  0  0
 35 34  1  0  0  0  0
 36 42  1  0  0  0  0
 36 37  1  0  0  0  0
 37 38  1  0  0  0  0
 37 39  1  0  0  0  0
 39 40  1  0  0  0  0
 41 39  2  0  0  0  0
 42 41  1  0  0  0  0
 43 42  2  0  0  0  0
M  END
>  <minimizedAffinity>
-6.28185558

$$$$

 OpenBabel03272506323D

 43 46  0  0  1  0  0  0  0  0999 V2000
   38.4740   26.4410   35.4540 C   0  0  1  0  0  0  0  0  0  0  0  0
   39.6740   27.0990   34.9730 C   0  0  0  0  0  0  0  0  0  0  0  0
   39.9100   27.0810   33.4750 C   0  0  0  0  0  0  0  0  0  0  0  0
   38.6840   27.2370   32.6380 C   0  0  0  0  0  0  0  0  0  0  0  0
   37.4290   26.6200   33.1340 C   0  0  0  0  0  0  0  0  0  0  0  0
   37.2720   26.7430   34.6000 C   0  0  2  0  0  0  0  0  0  0  0  0
   38.1820   26.9070   36.4480 H   0  0  0  0  0  0  0  0  0  0  0  0
   39.5460   28.2000   35.1990 H   0  0  0  0  0  0  0  0  0  0  0  0
   40.6220   26.8580   35.4460 H   0  0  0  0  0  0  0  0  0  0  0  0
   40.4660   26.1370   33.2630 H   0  0  0  0  0  0  0  0  0  0  0  0
   40.6040   27.9170   33.2280 H   0  0  0  0  0  0  0  0  0  0  0  0
   38.9190   26.7540   31.6480 H   0  0  0  0  0  0  0  0  0  0  0  0
   38.5020   28.3010   32.3780 H   0  0  0  0  0  0  0  0  0  0  0  0
   36.5740   27.0990   32.6550 H   0  0  0  0  0  0  0  0  0  0  0  0
   37.4180   25.5320   32.8720 H   0  0  0  0  0  0  0  0  0  0  0  0
   36.3560   26.2570   34.9100 H   0  0  0  0  0  0  0  0  0  0  0  0
   37.6850   24.3400   36.6680 C   0  0  0  0  0  0  0  0  0  0  0  0
   38.5830   25.0120   35.7840 C   0  0  0  0  0  0  0  0  0  0  0  0
   39.5840   24.2310   35.2410 C   0  0  0  0  0  0  0  0  0  0  0  0
   39.6710   22.8950   35.5600 N   0  0  0  0  0  0  0  0  0  0  0  0
   38.7880   22.3140   36.4050 C   0  0  0  0  0  0  0  0  0  0  0  0
   37.7910   23.0560   36.9570 N   0  0  0  0  0  0  0  0  0  0  0  0
   36.8900   24.9270   37.1100 H   0  0  0  0  0  0  0  0  0  0  0  0
   40.3210   24.6370   34.5570 H   0  0  0  0  0  0  0  0  0  0  0  0
   38.9760   21.2600   36.5650 H   0  0  0  0  0  0  0  0  0  0  0  0
   37.0010   28.2530   34.8450 C   0  0  0  0  0  0  0  0  0  0  0  0
   36.6640   28.4420   35.8680 H   0  0  0  0  0  0  0  0  0  0  0  0
   37.9260   28.8440   34.6840 H   0  0  0  0  0  0  0  0  0  0  0  0
   35.8840   28.7450   33.9370 C   0  0  0  0  0  0  0  0  0  0  0  0
   34.9920   28.1360   34.0990 H   0  0  0  0  0  0  0  0  0  0  0  0
   36.2550   28.7010   32.8930 H   0  0  0  0  0  0  0  0  0  0  0  0
   35.6030   31.2030   33.3300 C   0  0  0  0  0  3  0  0  0  0  0  0
   35.6330   30.1780   34.2460 C   0  0  0  0  0  0  0  0  0  0  0  0
   35.4160   30.4470   35.5990 C   0  0  0  0  0  0  0  0  0  0  0  0
   35.4330   29.6550   36.3590 H   0  0  0  0  0  0  0  0  0  0  0  0
   35.1680   31.7070   36.0770 C   0  0  0  0  0  0  0  0  0  0  0  0
   34.9340   32.2050   37.3110 N   0  0  0  0  0  0  0  0  0  0  0  0
   34.8960   31.6570   38.2100 H   0  0  0  0  0  0  0  0  0  0  0  0
   34.7510   33.5460   37.2040 C   0  0  0  0  0  0  0  0  0  0  0  0
   34.5450   34.1660   38.0770 H   0  0  0  0  0  0  0  0  0  0  0  0
   34.8750   33.8800   35.8850 C   0  0  0  0  0  3  0  0  0  0  0  0
   35.1390   32.7280   35.1580 C   0  0  0  0  0  0  0  0  0  0  0  0
   35.3520   32.4820   33.8130 C   0  0  0  0  0  3  0  0  0  0  0  0
  1 18  1  0  0  0  0
  1  7  1  1  0  0  0
  2  8  1  0  0  0  0
  2  9  1  0  0  0  0
  2  1  1  0  0  0  0
  3  2  1  0  0  0  0
  4  5  1  0  0  0  0
  4  3  1  0  0  0  0
  5  6  1  0  0  0  0
  6 26  1  0  0  0  0
  6 16  1  1  0  0  0
  6  1  1  0  0  0  0
 10  3  1  0  0  0  0
 11  3  1  0  0  0  0
 12  4  1  0  0  0  0
 13  4  1  0  0  0  0
 14  5  1  0  0  0  0
 15  5  1  0  0  0  0
 17 22  1  0  0  0  0
 17 23  1  0  0  0  0
 18 17  2  0  0  0  0
 19 20  2  0  0  0  0
 19 18  1  0  0  0  0
 20 21  1  0  0  0  0
 21 25  1  0  0  0  0
 21 22  2  0  0  0  0
 24 19  1  0  0  0  0
 26 27  1  0  0  0  0
 28 26  1  0  0  0  0
 29 30  1  0  0  0  0
 29 33  1  0  0  0  0
 29 26  1  0  0  0  0
 31 29  1  0  0  0  0
 32 43  2  0  0  0  0
 32 33  1  0  0  0  0
 33 34  2  0  0  0  0
 34 36  1  0  0  0  0
 34 35  1  0  0  0  0
 36 37  1  0  0  0  0
 37 38  1  0  0  0  0
 39 37  1  0  0  0  0
 39 40  1  0  0  0  0
 41 39  2  0  0  0  0
 42 41  1  0  0  0  0
 42 36  2  0  0  0  0
 43 42  1  0  0  0  0
M  END
>  <minimizedAffinity>
-5.94678688

$$$$

 OpenBabel03272506323D

 43 46  0  0  1  0  0  0  0  0999 V2000
   37.4560   26.8090   33.5130 C   0  0  1  0  0  0  0  0  0  0  0  0
   38.6580   26.5790   32.7340 C   0  0  0  0  0  0  0  0  0  0  0  0
   39.9610   27.0870   33.3200 C   0  0  0  0  0  0  0  0  0  0  0  0
   40.0890   26.9430   34.8000 C   0  0  0  0  0  0  0  0  0  0  0  0
   38.8640   27.1210   35.6180 C   0  0  0  0  0  0  0  0  0  0  0  0
   37.6620   26.5390   34.9800 C   0  0  2  0  0  0  0  0  0  0  0  0
   36.6880   26.0210   33.2330 H   0  0  0  0  0  0  0  0  0  0  0  0
   38.8080   25.4580   32.7060 H   0  0  0  0  0  0  0  0  0  0  0  0
   38.6540   26.8540   31.6830 H   0  0  0  0  0  0  0  0  0  0  0  0
   40.0630   28.1440   32.9740 H   0  0  0  0  0  0  0  0  0  0  0  0
   40.7940   26.5200   32.8450 H   0  0  0  0  0  0  0  0  0  0  0  0
   40.8200   27.7350   35.1280 H   0  0  0  0  0  0  0  0  0  0  0  0
   40.5890   25.9900   35.0740 H   0  0  0  0  0  0  0  0  0  0  0  0
   39.0030   26.6430   36.5890 H   0  0  0  0  0  0  0  0  0  0  0  0
   38.6790   28.2120   35.7820 H   0  0  0  0  0  0  0  0  0  0  0  0
   36.7970   26.7170   35.6050 H   0  0  0  0  0  0  0  0  0  0  0  0
   36.0010   28.7590   34.2830 C   0  0  0  0  0  0  0  0  0  0  0  0
   36.7360   28.0680   33.2710 C   0  0  0  0  0  0  0  0  0  0  0  0
   36.7340   28.6590   32.0230 C   0  0  0  0  0  0  0  0  0  0  0  0
   36.0550   29.8370   31.8140 N   0  0  0  0  0  0  0  0  0  0  0  0
   35.3760   30.4460   32.8150 C   0  0  0  0  0  0  0  0  0  0  0  0
   35.3570   29.8890   34.0560 N   0  0  0  0  0  0  0  0  0  0  0  0
   35.9830   28.3190   35.2720 H   0  0  0  0  0  0  0  0  0  0  0  0
   37.2600   28.2210   31.1810 H   0  0  0  0  0  0  0  0  0  0  0  0
   34.8890   31.3630   32.5080 H   0  0  0  0  0  0  0  0  0  0  0  0
   37.8750   25.0020   35.0570 C   0  0  0  0  0  0  0  0  0  0  0  0
   37.0360   24.4560   34.6190 H   0  0  0  0  0  0  0  0  0  0  0  0
   38.7900   24.7100   34.5010 H   0  0  0  0  0  0  0  0  0  0  0  0
   37.9590   24.5510   36.5070 C   0  0  0  0  0  0  0  0  0  0  0  0
   37.0150   24.0850   36.7970 H   0  0  0  0  0  0  0  0  0  0  0  0
   38.2100   25.4400   37.1220 H   0  0  0  0  0  0  0  0  0  0  0  0
   39.5680   23.0630   37.8060 C   0  0  0  0  0  3  0  0  0  0  0  0
   39.1000   23.6040   36.6320 C   0  0  0  0  0  0  0  0  0  0  0  0
   39.7080   23.2720   35.4200 C   0  0  0  0  0  0  0  0  0  0  0  0
   39.3620   23.6850   34.4640 H   0  0  0  0  0  0  0  0  0  0  0  0
   40.7730   22.4150   35.3320 C   0  0  0  0  0  0  0  0  0  0  0  0
   41.5140   21.9520   34.3020 N   0  0  0  0  0  0  0  0  0  0  0  0
   41.3870   22.1920   33.2830 H   0  0  0  0  0  0  0  0  0  0  0  0
   42.4600   21.1130   34.7950 C   0  0  0  0  0  0  0  0  0  0  0  0
   43.1780   20.6140   34.1440 H   0  0  0  0  0  0  0  0  0  0  0  0
   42.3010   21.0580   36.1520 C   0  0  0  0  0  3  0  0  0  0  0  0
   41.2380   21.8760   36.5080 C   0  0  0  0  0  0  0  0  0  0  0  0
   40.6490   22.1930   37.7200 C   0  0  0  0  0  3  0  0  0  0  0  0
  1  7  1  6  0  0  0
  1  6  1  0  0  0  0
  2  3  1  0  0  0  0
  2  1  1  0  0  0  0
  3  4  1  0  0  0  0
  4 13  1  0  0  0  0
  4 12  1  0  0  0  0
  4  5  1  0  0  0  0
  5 15  1  0  0  0  0
  5 14  1  0  0  0  0
  6 26  1  0  0  0  0
  6 16  1  1  0  0  0
  6  5  1  0  0  0  0
  8  2  1  0  0  0  0
  9  2  1  0  0  0  0
 10  3  1  0  0  0  0
 11  3  1  0  0  0  0
 17 23  1  0  0  0  0
 18  1  1  0  0  0  0
 18 17  2  0  0  0  0
 19 18  1  0  0  0  0
 20 19  2  0  0  0  0
 20 21  1  0  0  0  0
 21 22  2  0  0  0  0
 22 17  1  0  0  0  0
 24 19  1  0  0  0  0
 25 21  1  0  0  0  0
 26 29  1  0  0  0  0
 27 26  1  0  0  0  0
 28 26  1  0  0  0  0
 29 33  1  0  0  0  0
 29 30  1  0  0  0  0
 29 31  1  0  0  0  0
 33 32  2  0  0  0  0
 34 33  1  0  0  0  0
 35 34  1  0  0  0  0
 36 34  2  0  0  0  0
 36 42  1  0  0  0  0
 37 39  1  0  0  0  0
 37 36  1  0  0  0  0
 38 37  1  0  0  0  0
 39 41  2  0  0  0  0
 40 39  1  0  0  0  0
 41 42  1  0  0  0  0
 42 43  2  0  0  0  0
 43 32  1  0  0  0  0
M  END
>  <minimizedAffinity>
-5.83915186

$$$$

 OpenBabel03272506323D

 43 46  0  0  1  0  0  0  0  0999 V2000
   38.9240   23.2520   35.8150 C   0  0  1  0  0  0  0  0  0  0  0  0
   39.3530   23.1480   37.1970 C   0  0  0  0  0  0  0  0  0  0  0  0
   40.4510   22.1450   37.4990 C   0  0  0  0  0  0  0  0  0  0  0  0
   41.5180   22.0420   36.4600 C   0  0  0  0  0  0  0  0  0  0  0  0
   41.1150   22.1980   35.0410 C   0  0  0  0  0  0  0  0  0  0  0  0
   40.0800   23.2400   34.8520 C   0  0  2  0  0  0  0  0  0  0  0  0
   38.4880   24.2870   35.6510 H   0  0  0  0  0  0  0  0  0  0  0  0
   39.8320   24.1380   37.4570 H   0  0  0  0  0  0  0  0  0  0  0  0
   38.5960   23.0300   37.9670 H   0  0  0  0  0  0  0  0  0  0  0  0
   39.9350   21.1740   37.6930 H   0  0  0  0  0  0  0  0  0  0  0  0
   40.9320   22.4430   38.4590 H   0  0  0  0  0  0  0  0  0  0  0  0
   41.9560   21.0100   36.5650 H   0  0  0  0  0  0  0  0  0  0  0  0
   42.3700   22.7170   36.6850 H   0  0  0  0  0  0  0  0  0  0  0  0
   41.9870   22.4670   34.4430 H   0  0  0  0  0  0  0  0  0  0  0  0
   40.7070   21.2290   34.6590 H   0  0  0  0  0  0  0  0  0  0  0  0
   39.8070   23.2960   33.8070 H   0  0  0  0  0  0  0  0  0  0  0  0
   37.6040   21.9990   34.0260 C   0  0  0  0  0  0  0  0  0  0  0  0
   37.8300   22.3660   35.3890 C   0  0  0  0  0  0  0  0  0  0  0  0
   36.9470   21.8320   36.3060 C   0  0  0  0  0  0  0  0  0  0  0  0
   35.9290   21.0060   35.8890 N   0  0  0  0  0  0  0  0  0  0  0  0
   35.7660   20.6930   34.5810 C   0  0  0  0  0  0  0  0  0  0  0  0
   36.6190   21.2030   33.6530 N   0  0  0  0  0  0  0  0  0  0  0  0
   38.2810   22.4030   33.2840 H   0  0  0  0  0  0  0  0  0  0  0  0
   37.0250   22.0440   37.3670 H   0  0  0  0  0  0  0  0  0  0  0  0
   34.9270   20.0350   34.3990 H   0  0  0  0  0  0  0  0  0  0  0  0
   40.8140   24.5820   35.1230 C   0  0  0  0  0  0  0  0  0  0  0  0
   40.4160   25.0890   36.0060 H   0  0  0  0  0  0  0  0  0  0  0  0
   41.8950   24.4040   35.3000 H   0  0  0  0  0  0  0  0  0  0  0  0
   40.6110   25.5420   33.9600 C   0  0  0  0  0  0  0  0  0  0  0  0
   40.4770   24.9700   33.0390 H   0  0  0  0  0  0  0  0  0  0  0  0
   41.4890   26.2180   33.9260 H   0  0  0  0  0  0  0  0  0  0  0  0
   39.0780   26.8740   35.4970 C   0  0  0  0  0  3  0  0  0  0  0  0
   39.4250   26.3880   34.2590 C   0  0  0  0  0  0  0  0  0  0  0  0
   38.6330   26.6820   33.1480 C   0  0  0  0  0  0  0  0  0  0  0  0
   38.8790   26.3120   32.1440 H   0  0  0  0  0  0  0  0  0  0  0  0
   37.5000   27.4490   33.2240 C   0  0  0  0  0  0  0  0  0  0  0  0
   36.5910   27.8600   32.3130 N   0  0  0  0  0  0  0  0  0  0  0  0
   36.5970   27.6430   31.2810 H   0  0  0  0  0  0  0  0  0  0  0  0
   35.6560   28.6110   32.9480 C   0  0  0  0  0  0  0  0  0  0  0  0
   34.8170   29.0550   32.4110 H   0  0  0  0  0  0  0  0  0  0  0  0
   35.9920   28.6630   34.2720 C   0  0  0  0  0  3  0  0  0  0  0  0
   37.1560   27.9320   34.4640 C   0  0  0  0  0  0  0  0  0  0  0  0
   37.9280   27.6520   35.5770 C   0  0  0  0  0  3  0  0  0  0  0  0
  1  7  1  6  0  0  0
  1  2  1  0  0  0  0
  2  8  1  0  0  0  0
  2  3  1  0  0  0  0
  2  9  1  0  0  0  0
  3 10  1  0  0  0  0
  3 11  1  0  0  0  0
  4 12  1  0  0  0  0
  4 13  1  0  0  0  0
  4  3  1  0  0  0  0
  5  4  1  0  0  0  0
  6 16  1  6  0  0  0
  6  5  1  0  0  0  0
  6 26  1  0  0  0  0
  6  1  1  0  0  0  0
 14  5  1  0  0  0  0
 15  5  1  0  0  0  0
 17 18  1  0  0  0  0
 18  1  1  0  0  0  0
 18 19  2  0  0  0  0
 19 24  1  0  0  0  0
 20 19  1  0  0  0  0
 21 20  2  0  0  0  0
 22 17  2  0  0  0  0
 22 21  1  0  0  0  0
 23 17  1  0  0  0  0
 25 21  1  0  0  0  0
 26 28  1  0  0  0  0
 26 27  1  0  0  0  0
 29 33  1  0  0  0  0
 29 26  1  0  0  0  0
 30 29  1  0  0  0  0
 31 29  1  0  0  0  0
 32 43  1  0  0  0  0
 33 32  2  0  0  0  0
 34 36  2  0  0  0  0
 34 33  1  0  0  0  0
 35 34  1  0  0  0  0
 36 42  1  0  0  0  0
 37 39  1  0  0  0  0
 37 36  1  0  0  0  0
 38 37  1  0  0  0  0
 39 41  2  0  0  0  0
 40 39  1  0  0  0  0
 41 42  1  0  0  0  0
 42 43  2  0  0  0  0
M  END
>  <minimizedAffinity>
-5.77186394

$$$$

 OpenBabel03272506323D

 43 46  0  0  1  0  0  0  0  0999 V2000
   38.8550   24.3000   35.0660 C   0  0  1  0  0  0  0  0  0  0  0  0
   37.8610   25.0270   35.8320 C   0  0  0  0  0  0  0  0  0  0  0  0
   38.2790   26.3730   36.3920 C   0  0  0  0  0  0  0  0  0  0  0  0
   39.1590   27.1850   35.5010 C   0  0  0  0  0  0  0  0  0  0  0  0
   40.1480   26.4620   34.6660 C   0  0  0  0  0  0  0  0  0  0  0  0
   39.6190   25.1900   34.1240 C   0  0  2  0  0  0  0  0  0  0  0  0
   38.3180   23.6010   34.3500 H   0  0  0  0  0  0  0  0  0  0  0  0
   37.0360   25.2960   35.1070 H   0  0  0  0  0  0  0  0  0  0  0  0
   37.3330   24.5040   36.6240 H   0  0  0  0  0  0  0  0  0  0  0  0
   38.7410   26.1620   37.3860 H   0  0  0  0  0  0  0  0  0  0  0  0
   37.3550   26.9620   36.5940 H   0  0  0  0  0  0  0  0  0  0  0  0
   39.7400   27.8720   36.1780 H   0  0  0  0  0  0  0  0  0  0  0  0
   38.5660   27.8770   34.8650 H   0  0  0  0  0  0  0  0  0  0  0  0
   40.4490   27.0930   33.8280 H   0  0  0  0  0  0  0  0  0  0  0  0
   41.0560   26.2290   35.2780 H   0  0  0  0  0  0  0  0  0  0  0  0
   40.3860   24.6940   33.5450 H   0  0  0  0  0  0  0  0  0  0  0  0
   39.5910   23.1290   37.2110 C   0  0  0  0  0  0  0  0  0  0  0  0
   39.7340   23.3870   35.8130 C   0  0  0  0  0  0  0  0  0  0  0  0
   40.7660   22.7190   35.1840 C   0  0  0  0  0  0  0  0  0  0  0  0
   41.5790   21.8690   35.8980 N   0  0  0  0  0  0  0  0  0  0  0  0
   41.3930   21.6640   37.2230 C   0  0  0  0  0  0  0  0  0  0  0  0
   40.3860   22.3070   37.8720 N   0  0  0  0  0  0  0  0  0  0  0  0
   38.7910   23.6390   37.7310 H   0  0  0  0  0  0  0  0  0  0  0  0
   40.9660   22.8410   34.1240 H   0  0  0  0  0  0  0  0  0  0  0  0
   42.1050   20.9720   37.6540 H   0  0  0  0  0  0  0  0  0  0  0  0
   38.5640   25.6180   33.0660 C   0  0  0  0  0  0  0  0  0  0  0  0
   37.5440   25.4620   33.4270 H   0  0  0  0  0  0  0  0  0  0  0  0
   38.6720   26.6960   32.8260 H   0  0  0  0  0  0  0  0  0  0  0  0
   38.7000   24.7710   31.8100 C   0  0  0  0  0  0  0  0  0  0  0  0
   39.6620   24.2530   31.8250 H   0  0  0  0  0  0  0  0  0  0  0  0
   38.5850   25.4450   30.9360 H   0  0  0  0  0  0  0  0  0  0  0  0
   36.2560   24.1330   31.4770 C   0  0  0  0  0  3  0  0  0  0  0  0
   37.5620   23.8150   31.7700 C   0  0  0  0  0  0  0  0  0  0  0  0
   37.9080   22.4940   32.0630 C   0  0  0  0  0  0  0  0  0  0  0  0
   38.9390   22.2030   32.3010 H   0  0  0  0  0  0  0  0  0  0  0  0
   36.9970   21.4710   32.0750 C   0  0  0  0  0  0  0  0  0  0  0  0
   37.0880   20.1460   32.3230 N   0  0  0  0  0  0  0  0  0  0  0  0
   37.9640   19.6150   32.5740 H   0  0  0  0  0  0  0  0  0  0  0  0
   35.8520   19.5990   32.1940 C   0  0  0  0  0  0  0  0  0  0  0  0
   35.6800   18.5340   32.3480 H   0  0  0  0  0  0  0  0  0  0  0  0
   34.9860   20.6030   31.8610 C   0  0  0  0  0  3  0  0  0  0  0  0
   35.6930   21.7930   31.7830 C   0  0  0  0  0  0  0  0  0  0  0  0
   35.3300   23.0960   31.4900 C   0  0  0  0  0  3  0  0  0  0  0  0
  1  7  1  6  0  0  0
  1 18  1  0  0  0  0
  1  2  1  0  0  0  0
  2  3  1  0  0  0  0
  2  9  1  0  0  0  0
  3 11  1  0  0  0  0
  3 10  1  0  0  0  0
  4 12  1  0  0  0  0
  4  3  1  0  0  0  0
  5 15  1  0  0  0  0
  5  4  1  0  0  0  0
  6 16  1  6  0  0  0
  6  5  1  0  0  0  0
  6  1  1  0  0  0  0
  8  2  1  0  0  0  0
 13  4  1  0  0  0  0
 14  5  1  0  0  0  0
 17 23  1  0  0  0  0
 17 22  1  0  0  0  0
 18 17  2  0  0  0  0
 19 18  1  0  0  0  0
 19 20  2  0  0  0  0
 20 21  1  0  0  0  0
 21 25  1  0  0  0  0
 21 22  2  0  0  0  0
 24 19  1  0  0  0  0
 26 27  1  0  0  0  0
 26  6  1  0  0  0  0
 28 26  1  0  0  0  0
 29 30  1  0  0  0  0
 29 26  1  0  0  0  0
 31 29  1  0  0  0  0
 32 43  2  0  0  0  0
 32 33  1  0  0  0  0
 33 29  1  0  0  0  0
 33 34  2  0  0  0  0
 34 36  1  0  0  0  0
 34 35  1  0  0  0  0
 36 37  1  0  0  0  0
 37 38  1  0  0  0  0
 39 37  1  0  0  0  0
 39 40  1  0  0  0  0
 41 39  2  0  0  0  0
 42 41  1  0  0  0  0
 42 36  2  0  0  0  0
 43 42  1  0  0  0  0
M  END
>  <minimizedAffinity>
-5.61391497

$$$$

 OpenBabel03272506323D

 43 46  0  0  1  0  0  0  0  0999 V2000
   38.8740   24.4290   35.0550 C   0  0  1  0  0  0  0  0  0  0  0  0
   37.8560   25.0700   35.8670 C   0  0  0  0  0  0  0  0  0  0  0  0
   38.2120   26.4130   36.4760 C   0  0  0  0  0  0  0  0  0  0  0  0
   39.0290   27.3070   35.6050 C   0  0  0  0  0  0  0  0  0  0  0  0
   40.0400   26.6740   34.7240 C   0  0  0  0  0  0  0  0  0  0  0  0
   39.5700   25.3980   34.1380 C   0  0  2  0  0  0  0  0  0  0  0  0
   38.3610   23.7320   34.3190 H   0  0  0  0  0  0  0  0  0  0  0  0
   37.0040   25.3220   35.1680 H   0  0  0  0  0  0  0  0  0  0  0  0
   37.3720   24.4860   36.6460 H   0  0  0  0  0  0  0  0  0  0  0  0
   38.7030   26.1860   37.4530 H   0  0  0  0  0  0  0  0  0  0  0  0
   37.2610   26.9410   36.7180 H   0  0  0  0  0  0  0  0  0  0  0  0
   39.5840   27.9970   36.3000 H   0  0  0  0  0  0  0  0  0  0  0  0
   38.3870   27.9910   35.0090 H   0  0  0  0  0  0  0  0  0  0  0  0
   40.2900   27.3550   33.9090 H   0  0  0  0  0  0  0  0  0  0  0  0
   40.9710   26.4660   35.3100 H   0  0  0  0  0  0  0  0  0  0  0  0
   40.3520   24.9690   33.5260 H   0  0  0  0  0  0  0  0  0  0  0  0
   39.6080   23.0590   37.0780 C   0  0  0  0  0  0  0  0  0  0  0  0
   39.8150   23.5370   35.7480 C   0  0  0  0  0  0  0  0  0  0  0  0
   40.9730   23.1070   35.1310 C   0  0  0  0  0  0  0  0  0  0  0  0
   41.8430   22.2720   35.7940 N   0  0  0  0  0  0  0  0  0  0  0  0
   41.5910   21.8510   37.0560 C   0  0  0  0  0  0  0  0  0  0  0  0
   40.4600   22.2570   37.6910 N   0  0  0  0  0  0  0  0  0  0  0  0
   38.7090   23.3790   37.5870 H   0  0  0  0  0  0  0  0  0  0  0  0
   41.2310   23.4080   34.1210 H   0  0  0  0  0  0  0  0  0  0  0  0
   42.3600   21.2000   37.4530 H   0  0  0  0  0  0  0  0  0  0  0  0
   38.4740   25.8100   33.1170 C   0  0  0  0  0  0  0  0  0  0  0  0
   38.0080   24.9380   32.6510 H   0  0  0  0  0  0  0  0  0  0  0  0
   37.6710   26.3870   33.6220 H   0  0  0  0  0  0  0  0  0  0  0  0
   39.0830   26.6190   31.9820 C   0  0  0  0  0  0  0  0  0  0  0  0
   39.3030   25.9550   31.1420 H   0  0  0  0  0  0  0  0  0  0  0  0
   39.9850   27.1280   32.3780 H   0  0  0  0  0  0  0  0  0  0  0  0
   38.1830   28.4570   30.4660 C   0  0  0  0  0  3  0  0  0  0  0  0
   38.1180   27.6840   31.6010 C   0  0  0  0  0  0  0  0  0  0  0  0
   37.0770   27.8700   32.5120 C   0  0  0  0  0  0  0  0  0  0  0  0
   36.9920   27.2720   33.4290 H   0  0  0  0  0  0  0  0  0  0  0  0
   36.0900   28.8050   32.3340 C   0  0  0  0  0  0  0  0  0  0  0  0
   35.0070   29.1640   33.0570 N   0  0  0  0  0  0  0  0  0  0  0  0
   34.7000   28.7450   33.9740 H   0  0  0  0  0  0  0  0  0  0  0  0
   34.3660   30.1640   32.4010 C   0  0  0  0  0  0  0  0  0  0  0  0
   33.4570   30.6170   32.7970 H   0  0  0  0  0  0  0  0  0  0  0  0
   35.0650   30.4270   31.2560 C   0  0  0  0  0  3  0  0  0  0  0  0
   36.1590   29.5760   31.1980 C   0  0  0  0  0  0  0  0  0  0  0  0
   37.1830   29.4060   30.2830 C   0  0  0  0  0  3  0  0  0  0  0  0
  1  7  1  6  0  0  0
  1 18  1  0  0  0  0
  1  2  1  0  0  0  0
  2  3  1  0  0  0  0
  2  9  1  0  0  0  0
  3 11  1  0  0  0  0
  3 10  1  0  0  0  0
  4 12  1  0  0  0  0
  4  3  1  0  0  0  0
  5 15  1  0  0  0  0
  5  4  1  0  0  0  0
  6 16  1  6  0  0  0
  6  5  1  0  0  0  0
  6  1  1  0  0  0  0
  8  2  1  0  0  0  0
 13  4  1  0  0  0  0
 14  5  1  0  0  0  0
 17 23  1  0  0  0  0
 17 22  1  0  0  0  0
 18 17  2  0  0  0  0
 19 18  1  0  0  0  0
 19 20  2  0  0  0  0
 20 21  1  0  0  0  0
 21 25  1  0  0  0  0
 21 22  2  0  0  0  0
 24 19  1  0  0  0  0
 26 28  1  0  0  0  0
 26  6  1  0  0  0  0
 27 26  1  0  0  0  0
 29 31  1  0  0  0  0
 29 26  1  0  0  0  0
 30 29  1  0  0  0  0
 32 33  1  0  0  0  0
 33 29  1  0  0  0  0
 33 34  2  0  0  0  0
 34 35  1  0  0  0  0
 36 34  1  0  0  0  0
 36 37  1  0  0  0  0
 37 38  1  0  0  0  0
 39 40  1  0  0  0  0
 39 37  1  0  0  0  0
 41 39  2  0  0  0  0
 42 41  1  0  0  0  0
 42 36  2  0  0  0  0
 43 32  2  0  0  0  0
 43 42  1  0  0  0  0
M  END
>  <minimizedAffinity>
-5.57758904

$$$$

 OpenBabel03272506323D

 43 46  0  0  1  0  0  0  0  0999 V2000
   38.3410   26.1040   35.2730 C   0  0  1  0  0  0  0  0  0  0  0  0
   39.3130   27.1800   35.2220 C   0  0  0  0  0  0  0  0  0  0  0  0
   40.3030   27.1540   34.0740 C   0  0  0  0  0  0  0  0  0  0  0  0
   39.7460   26.6970   32.7670 C   0  0  0  0  0  0  0  0  0  0  0  0
   38.7110   25.6350   32.7930 C   0  0  0  0  0  0  0  0  0  0  0  0
   37.7630   25.7880   33.9200 C   0  0  2  0  0  0  0  0  0  0  0  0
   37.4280   26.4700   35.8410 H   0  0  0  0  0  0  0  0  0  0  0  0
   38.7270   28.1290   35.0340 H   0  0  0  0  0  0  0  0  0  0  0  0
   39.8770   27.4120   36.1220 H   0  0  0  0  0  0  0  0  0  0  0  0
   41.1630   26.5320   34.4230 H   0  0  0  0  0  0  0  0  0  0  0  0
   40.6980   28.1870   33.9390 H   0  0  0  0  0  0  0  0  0  0  0  0
   40.6180   26.2920   32.1810 H   0  0  0  0  0  0  0  0  0  0  0  0
   39.3900   27.5540   32.1550 H   0  0  0  0  0  0  0  0  0  0  0  0
   38.1430   25.6580   31.8610 H   0  0  0  0  0  0  0  0  0  0  0  0
   39.2030   24.6350   32.8840 H   0  0  0  0  0  0  0  0  0  0  0  0
   37.0480   24.9770   33.9050 H   0  0  0  0  0  0  0  0  0  0  0  0
   39.8270   24.0630   35.6460 C   0  0  0  0  0  0  0  0  0  0  0  0
   38.7250   24.8940   36.0160 C   0  0  0  0  0  0  0  0  0  0  0  0
   38.0230   24.4930   37.1350 C   0  0  0  0  0  0  0  0  0  0  0  0
   38.3960   23.3580   37.8180 N   0  0  0  0  0  0  0  0  0  0  0  0
   39.4520   22.6110   37.4180 C   0  0  0  0  0  0  0  0  0  0  0  0
   40.1640   22.9790   36.3200 N   0  0  0  0  0  0  0  0  0  0  0  0
   40.3960   24.3520   34.7720 H   0  0  0  0  0  0  0  0  0  0  0  0
   37.1680   25.0490   37.5050 H   0  0  0  0  0  0  0  0  0  0  0  0
   39.6290   21.7480   38.0470 H   0  0  0  0  0  0  0  0  0  0  0  0
   36.9210   27.0430   33.5640 C   0  0  0  0  0  0  0  0  0  0  0  0
   36.0800   27.1730   34.2500 H   0  0  0  0  0  0  0  0  0  0  0  0
   37.5450   27.9590   33.6240 H   0  0  0  0  0  0  0  0  0  0  0  0
   36.3130   26.8980   32.1770 C   0  0  0  0  0  0  0  0  0  0  0  0
   35.2470   26.6780   32.2700 H   0  0  0  0  0  0  0  0  0  0  0  0
   36.8740   26.1020   31.6450 H   0  0  0  0  0  0  0  0  0  0  0  0
   36.3130   29.4310   31.9090 C   0  0  0  0  0  3  0  0  0  0  0  0
   36.5500   28.1640   31.4320 C   0  0  0  0  0  0  0  0  0  0  0  0
   37.0570   27.9880   30.1440 C   0  0  0  0  0  0  0  0  0  0  0  0
   37.2590   26.9920   29.7290 H   0  0  0  0  0  0  0  0  0  0  0  0
   37.3400   29.0340   29.3050 C   0  0  0  0  0  0  0  0  0  0  0  0
   37.8240   29.1150   28.0470 N   0  0  0  0  0  0  0  0  0  0  0  0
   38.0980   28.3060   27.4290 H   0  0  0  0  0  0  0  0  0  0  0  0
   37.9050   30.4250   27.7010 C   0  0  0  0  0  0  0  0  0  0  0  0
   38.2720   30.7370   26.7230 H   0  0  0  0  0  0  0  0  0  0  0  0
   37.4630   31.1640   28.7630 C   0  0  0  0  0  3  0  0  0  0  0  0
   37.1010   30.3000   29.7860 C   0  0  0  0  0  0  0  0  0  0  0  0
   36.5990   30.4950   31.0600 C   0  0  0  0  0  3  0  0  0  0  0  0
  1  7  1  1  0  0  0
  1 18  1  0  0  0  0
  2  1  1  0  0  0  0
  2  9  1  0  0  0  0
  3 10  1  0  0  0  0
  3  2  1  0  0  0  0
  4  5  1  0  0  0  0
  4  3  1  0  0  0  0
  5 15  1  0  0  0  0
  5  6  1  0  0  0  0
  6 16  1  1  0  0  0
  6  1  1  0  0  0  0
  8  2  1  0  0  0  0
 11  3  1  0  0  0  0
 12  4  1  0  0  0  0
 13  4  1  0  0  0  0
 14  5  1  0  0  0  0
 17 18  2  0  0  0  0
 17 22  1  0  0  0  0
 18 19  1  0  0  0  0
 19 24  1  0  0  0  0
 19 20  2  0  0  0  0
 21 20  1  0  0  0  0
 21 25  1  0  0  0  0
 22 21  2  0  0  0  0
 23 17  1  0  0  0  0
 26 28  1  0  0  0  0
 26  6  1  0  0  0  0
 26 27  1  0  0  0  0
 29 30  1  0  0  0  0
 29 26  1  0  0  0  0
 31 29  1  0  0  0  0
 33 32  1  0  0  0  0
 33 29  1  0  0  0  0
 34 33  2  0  0  0  0
 35 34  1  0  0  0  0
 36 42  2  0  0  0  0
 36 34  1  0  0  0  0
 37 36  1  0  0  0  0
 38 37  1  0  0  0  0
 39 37  1  0  0  0  0
 39 41  2  0  0  0  0
 40 39  1  0  0  0  0
 41 42  1  0  0  0  0
 42 43  1  0  0  0  0
 43 32  2  0  0  0  0
M  END
>  <minimizedAffinity>
-5.56367159

$$$$

 OpenBabel03272506323D

 43 46  0  0  1  0  0  0  0  0999 V2000
   38.5980   26.4250   35.4220 C   0  0  1  0  0  0  0  0  0  0  0  0
   39.7270   27.0630   34.7720 C   0  0  0  0  0  0  0  0  0  0  0  0
   39.7290   27.0720   33.2560 C   0  0  0  0  0  0  0  0  0  0  0  0
   38.3930   27.2760   32.6220 C   0  0  0  0  0  0  0  0  0  0  0  0
   37.2130   26.6810   33.2950 C   0  0  0  0  0  0  0  0  0  0  0  0
   37.2880   26.7750   34.7700 C   0  0  2  0  0  0  0  0  0  0  0  0
   38.4760   26.8760   36.4570 H   0  0  0  0  0  0  0  0  0  0  0  0
   39.6670   28.1610   35.0360 H   0  0  0  0  0  0  0  0  0  0  0  0
   40.7300   26.7870   35.0890 H   0  0  0  0  0  0  0  0  0  0  0  0
   40.2190   26.1180   32.9430 H   0  0  0  0  0  0  0  0  0  0  0  0
   40.4010   27.8950   32.9190 H   0  0  0  0  0  0  0  0  0  0  0  0
   38.4590   26.8100   31.5990 H   0  0  0  0  0  0  0  0  0  0  0  0
   38.2040   28.3510   32.4130 H   0  0  0  0  0  0  0  0  0  0  0  0
   36.3080   27.1920   32.9630 H   0  0  0  0  0  0  0  0  0  0  0  0
   37.1310   25.5990   33.0180 H   0  0  0  0  0  0  0  0  0  0  0  0
   36.4170   26.3060   35.2080 H   0  0  0  0  0  0  0  0  0  0  0  0
   37.7730   24.2630   36.4970 C   0  0  0  0  0  0  0  0  0  0  0  0
   38.7170   24.9860   35.7040 C   0  0  0  0  0  0  0  0  0  0  0  0
   39.7700   24.2470   35.2050 C   0  0  0  0  0  0  0  0  0  0  0  0
   39.8650   22.9020   35.4790 N   0  0  0  0  0  0  0  0  0  0  0  0
   38.9370   22.2700   36.2380 C   0  0  0  0  0  0  0  0  0  0  0  0
   37.8880   22.9700   36.7450 N   0  0  0  0  0  0  0  0  0  0  0  0
   36.9360   24.8160   36.9030 H   0  0  0  0  0  0  0  0  0  0  0  0
   40.5440   24.6940   34.5910 H   0  0  0  0  0  0  0  0  0  0  0  0
   39.1380   21.2150   36.3710 H   0  0  0  0  0  0  0  0  0  0  0  0
   37.1010   28.2860   35.0810 C   0  0  0  0  0  0  0  0  0  0  0  0
   37.0010   28.4680   36.1540 H   0  0  0  0  0  0  0  0  0  0  0  0
   37.9770   28.8660   34.7240 H   0  0  0  0  0  0  0  0  0  0  0  0
   35.8190   28.8030   34.4460 C   0  0  0  0  0  0  0  0  0  0  0  0
   34.9590   28.3550   34.9500 H   0  0  0  0  0  0  0  0  0  0  0  0
   35.8590   28.5630   33.3640 H   0  0  0  0  0  0  0  0  0  0  0  0
   36.0400   31.0040   35.7090 C   0  0  0  0  0  3  0  0  0  0  0  0
   35.8110   30.2860   34.5590 C   0  0  0  0  0  0  0  0  0  0  0  0
   35.5440   30.9540   33.3630 C   0  0  0  0  0  0  0  0  0  0  0  0
   35.3570   30.4150   32.4250 H   0  0  0  0  0  0  0  0  0  0  0  0
   35.4960   32.3200   33.2670 C   0  0  0  0  0  0  0  0  0  0  0  0
   35.2610   33.1750   32.2480 N   0  0  0  0  0  0  0  0  0  0  0  0
   35.0560   32.9140   31.2470 H   0  0  0  0  0  0  0  0  0  0  0  0
   35.3360   34.4430   32.7250 C   0  0  0  0  0  0  0  0  0  0  0  0
   35.1810   35.3080   32.0790 H   0  0  0  0  0  0  0  0  0  0  0  0
   35.6200   34.3700   34.0610 C   0  0  0  0  0  3  0  0  0  0  0  0
   35.7240   33.0340   34.4200 C   0  0  0  0  0  0  0  0  0  0  0  0
   35.9900   32.3900   35.6160 C   0  0  0  0  0  3  0  0  0  0  0  0
  1 18  1  0  0  0  0
  1  7  1  1  0  0  0
  2  8  1  0  0  0  0
  2  9  1  0  0  0  0
  2  1  1  0  0  0  0
  3  2  1  0  0  0  0
  4  3  1  0  0  0  0
  4  5  1  0  0  0  0
  5  6  1  0  0  0  0
  6 26  1  0  0  0  0
  6 16  1  1  0  0  0
  6  1  1  0  0  0  0
 10  3  1  0  0  0  0
 11  3  1  0  0  0  0
 12  4  1  0  0  0  0
 13  4  1  0  0  0  0
 14  5  1  0  0  0  0
 15  5  1  0  0  0  0
 17 22  1  0  0  0  0
 17 23  1  0  0  0  0
 18 17  2  0  0  0  0
 19 20  2  0  0  0  0
 19 18  1  0  0  0  0
 20 21  1  0  0  0  0
 21 25  1  0  0  0  0
 21 22  2  0  0  0  0
 24 19  1  0  0  0  0
 26 27  1  0  0  0  0
 28 26  1  0  0  0  0
 29 33  1  0  0  0  0
 29 30  1  0  0  0  0
 29 26  1  0  0  0  0
 31 29  1  0  0  0  0
 33 32  2  0  0  0  0
 34 33  1  0  0  0  0
 35 34  1  0  0  0  0
 36 34  2  0  0  0  0
 36 42  1  0  0  0  0
 37 39  1  0  0  0  0
 37 36  1  0  0  0  0
 38 37  1  0  0  0  0
 39 41  2  0  0  0  0
 40 39  1  0  0  0  0
 41 42  1  0  0  0  0
 42 43  2  0  0  0  0
 43 32  1  0  0  0  0
M  END
>  <minimizedAffinity>
-5.52370787

$$$$

 OpenBabel03272506323D

 43 46  0  0  1  0  0  0  0  0999 V2000
   39.5990   23.9100   35.5050 C   0  0  1  0  0  0  0  0  0  0  0  0
   38.7490   23.1750   34.5880 C   0  0  0  0  0  0  0  0  0  0  0  0
   37.8320   22.1290   35.1930 C   0  0  0  0  0  0  0  0  0  0  0  0
   37.2310   22.4980   36.5080 C   0  0  0  0  0  0  0  0  0  0  0  0
   38.0590   23.2960   37.4440 C   0  0  0  0  0  0  0  0  0  0  0  0
   38.8710   24.3250   36.7550 C   0  0  2  0  0  0  0  0  0  0  0  0
   39.8540   24.9120   35.0350 H   0  0  0  0  0  0  0  0  0  0  0  0
   38.0270   23.9270   34.1510 H   0  0  0  0  0  0  0  0  0  0  0  0
   39.2020   22.7280   33.7070 H   0  0  0  0  0  0  0  0  0  0  0  0
   38.4290   21.1850   35.2350 H   0  0  0  0  0  0  0  0  0  0  0  0
   37.0020   21.9430   34.4730 H   0  0  0  0  0  0  0  0  0  0  0  0
   36.9930   21.5260   37.0250 H   0  0  0  0  0  0  0  0  0  0  0  0
   36.2380   22.9800   36.3790 H   0  0  0  0  0  0  0  0  0  0  0  0
   37.4120   23.7970   38.1660 H   0  0  0  0  0  0  0  0  0  0  0  0
   38.7540   22.6180   38.0010 H   0  0  0  0  0  0  0  0  0  0  0  0
   39.4710   24.8590   37.4790 H   0  0  0  0  0  0  0  0  0  0  0  0
   41.1100   22.0510   36.3840 C   0  0  0  0  0  0  0  0  0  0  0  0
   40.9230   23.3380   35.7910 C   0  0  0  0  0  0  0  0  0  0  0  0
   42.0790   24.0320   35.4930 C   0  0  0  0  0  0  0  0  0  0  0  0
   43.3090   23.4810   35.7670 N   0  0  0  0  0  0  0  0  0  0  0  0
   43.4220   22.2550   36.3300 C   0  0  0  0  0  0  0  0  0  0  0  0
   42.3040   21.5450   36.6360 N   0  0  0  0  0  0  0  0  0  0  0  0
   40.2220   21.4820   36.6280 H   0  0  0  0  0  0  0  0  0  0  0  0
   42.0540   25.0180   35.0410 H   0  0  0  0  0  0  0  0  0  0  0  0
   44.4480   21.9490   36.4890 H   0  0  0  0  0  0  0  0  0  0  0  0
   37.8420   25.3800   36.2630 C   0  0  0  0  0  0  0  0  0  0  0  0
   37.3640   25.0730   35.3290 H   0  0  0  0  0  0  0  0  0  0  0  0
   37.0400   25.5190   37.0180 H   0  0  0  0  0  0  0  0  0  0  0  0
   38.5370   26.7000   35.9670 C   0  0  0  0  0  0  0  0  0  0  0  0
   39.6190   26.5540   35.9990 H   0  0  0  0  0  0  0  0  0  0  0  0
   38.1780   27.4430   36.7080 H   0  0  0  0  0  0  0  0  0  0  0  0
   38.7430   26.9610   33.4410 C   0  0  0  0  0  3  0  0  0  0  0  0
   38.0850   27.1710   34.6300 C   0  0  0  0  0  0  0  0  0  0  0  0
   36.8840   27.8810   34.6460 C   0  0  0  0  0  0  0  0  0  0  0  0
   36.3300   28.0680   35.5750 H   0  0  0  0  0  0  0  0  0  0  0  0
   36.3080   28.3950   33.5130 C   0  0  0  0  0  0  0  0  0  0  0  0
   35.1790   29.1000   33.2800 N   0  0  0  0  0  0  0  0  0  0  0  0
   34.4740   29.4090   34.0000 H   0  0  0  0  0  0  0  0  0  0  0  0
   35.0980   29.3510   31.9480 C   0  0  0  0  0  0  0  0  0  0  0  0
   34.2640   29.9100   31.5220 H   0  0  0  0  0  0  0  0  0  0  0  0
   36.1930   28.7920   31.3510 C   0  0  0  0  0  3  0  0  0  0  0  0
   36.9690   28.1830   32.3270 C   0  0  0  0  0  0  0  0  0  0  0  0
   38.1610   27.4820   32.2910 C   0  0  0  0  0  3  0  0  0  0  0  0
  1  7  1  6  0  0  0
  1 18  1  0  0  0  0
  1  6  1  0  0  0  0
  2  3  1  0  0  0  0
  2  1  1  0  0  0  0
  3 10  1  0  0  0  0
  3  4  1  0  0  0  0
  4 12  1  0  0  0  0
  4  5  1  0  0  0  0
  5 15  1  0  0  0  0
  5 14  1  0  0  0  0
  6  5  1  0  0  0  0
  6 16  1  1  0  0  0
  8  2  1  0  0  0  0
  9  2  1  0  0  0  0
 11  3  1  0  0  0  0
 13  4  1  0  0  0  0
 17 23  1  0  0  0  0
 17 22  1  0  0  0  0
 18 17  2  0  0  0  0
 19 20  2  0  0  0  0
 19 18  1  0  0  0  0
 20 21  1  0  0  0  0
 21 25  1  0  0  0  0
 21 22  2  0  0  0  0
 24 19  1  0  0  0  0
 26  6  1  0  0  0  0
 26 28  1  0  0  0  0
 27 26  1  0  0  0  0
 29 30  1  0  0  0  0
 29 26  1  0  0  0  0
 29 31  1  0  0  0  0
 32 33  1  0  0  0  0
 33 34  2  0  0  0  0
 33 29  1  0  0  0  0
 34 35  1  0  0  0  0
 36 34  1  0  0  0  0
 37 36  1  0  0  0  0
 37 38  1  0  0  0  0
 39 37  1  0  0  0  0
 40 39  1  0  0  0  0
 41 39  2  0  0  0  0
 41 42  1  0  0  0  0
 42 36  2  0  0  0  0
 43 42  1  0  0  0  0
 43 32  2  0  0  0  0
M  END
>  <minimizedAffinity>
-5.4730711

$$$$
