
 OpenBabel03272504083D

 36 39  0  0  0  0  0  0  0  0999 V2000
   37.8410   30.5110   50.1690 C   0  0  0  0  0  0  0  0  0  0  0  0
   37.3470   30.6990   48.9000 C   0  0  0  0  0  0  0  0  0  0  0  0
   36.0250   30.3060   48.5890 C   0  0  0  0  0  0  0  0  0  0  0  0
   35.2890   29.7480   49.5790 N   0  0  0  0  0  0  0  0  0  0  0  0
   35.8160   29.5740   50.8410 C   0  0  0  0  0  0  0  0  0  0  0  0
   37.0930   29.9590   51.1260 N   0  0  0  0  0  0  0  0  0  0  0  0
   34.9720   28.9750   51.8300 N   0  0  0  0  0  0  0  0  0  0  0  0
   38.8360   30.7900   50.4660 H   0  0  0  0  0  0  0  0  0  0  0  0
   34.5350   28.0230   51.6670 H   0  0  0  0  0  0  0  0  0  0  0  0
   34.7850   29.4710   52.7120 H   0  0  0  0  0  0  0  0  0  0  0  0
   38.3110   33.5700   49.2020 Cl  0  0  0  0  0  0  0  0  0  0  0  0
   38.7570   32.5800   47.8330 C   0  0  0  0  0  0  0  0  0  0  0  0
   38.2340   31.3240   47.8810 C   0  0  0  0  0  0  0  0  0  0  0  0
   38.5430   30.4450   46.8280 C   0  0  0  0  0  0  0  0  0  0  0  0
   39.3270   30.8020   45.7900 C   0  0  0  0  0  0  0  0  0  0  0  0
   39.8440   32.0980   45.7740 C   0  0  0  0  0  0  0  0  0  0  0  0
   40.8640   32.6050   44.4640 Cl  0  0  0  0  0  0  0  0  0  0  0  0
   39.5510   32.9660   46.7940 C   0  0  0  0  0  0  0  0  0  0  0  0
   38.1910   29.4240   46.7780 H   0  0  0  0  0  0  0  0  0  0  0  0
   39.5900   30.1630   44.9600 H   0  0  0  0  0  0  0  0  0  0  0  0
   39.9350   33.9760   46.8150 H   0  0  0  0  0  0  0  0  0  0  0  0
   35.5120   30.4990   47.2390 C   0  0  0  0  0  0  0  0  0  0  0  0
   35.2800   31.5760   47.0740 H   0  0  0  0  0  0  0  0  0  0  0  0
   36.2400   30.1510   46.4810 H   0  0  0  0  0  0  0  0  0  0  0  0
   33.1940   30.4330   46.4540 C   0  0  0  0  0  3  0  0  0  0  0  0
   34.2680   29.7290   46.9600 C   0  0  0  0  0  0  0  0  0  0  0  0
   34.1100   28.3520   47.1790 C   0  0  0  0  0  0  0  0  0  0  0  0
   34.9700   27.8220   47.5780 H   0  0  0  0  0  0  0  0  0  0  0  0
   32.9080   27.7440   46.8910 C   0  0  0  0  0  0  0  0  0  0  0  0
   32.4920   26.4710   47.0060 N   0  0  0  0  0  0  0  0  0  0  0  0
   33.0600   25.6440   47.3670 H   0  0  0  0  0  0  0  0  0  0  0  0
   31.1960   26.3410   46.5950 C   0  0  0  0  0  0  0  0  0  0  0  0
   30.6500   25.4050   46.5980 H   0  0  0  0  0  0  0  0  0  0  0  0
   30.8190   27.6370   46.2070 C   0  0  0  0  0  3  0  0  0  0  0  0
   31.8620   28.5200   46.3820 C   0  0  0  0  0  0  0  0  0  0  0  0
   31.9700   29.8740   46.1490 C   0  0  0  0  0  3  0  0  0  0  0  0
  1  8  1  0  0  0  0
  1  6  1  0  0  0  0
  2  1  2  0  0  0  0
  3  2  1  0  0  0  0
  3  4  2  0  0  0  0
  4  5  1  0  0  0  0
  5  6  2  0  0  0  0
  5  7  1  0  0  0  0
  7 10  1  0  0  0  0
  9  7  1  0  0  0  0
 12 13  1  0  0  0  0
 12 11  1  0  0  0  0
 13  2  1  0  0  0  0
 14 13  2  0  0  0  0
 15 14  1  0  0  0  0
 16 15  2  0  0  0  0
 16 18  1  0  0  0  0
 17 16  1  0  0  0  0
 18 21  1  0  0  0  0
 18 12  2  0  0  0  0
 19 14  1  0  0  0  0
 20 15  1  0  0  0  0
 22  3  1  0  0  0  0
 23 22  1  0  0  0  0
 24 22  1  0  0  0  0
 25 26  1  0  0  0  0
 26 27  2  0  0  0  0
 26 22  1  0  0  0  0
 27 28  1  0  0  0  0
 29 30  1  0  0  0  0
 29 27  1  0  0  0  0
 30 31  1  0  0  0  0
 32 33  1  0  0  0  0
 32 30  1  0  0  0  0
 34 35  1  0  0  0  0
 34 32  2  0  0  0  0
 35 29  2  0  0  0  0
 36 35  1  0  0  0  0
 36 25  2  0  0  0  0
M  END
>  <minimizedAffinity>
-6.39168262

>  <minimizedRMSD>
1.20029438

$$$$
