
 OpenBabel03272504103D

 36 39  0  0  0  0  0  0  0  0999 V2000
   35.3170   24.6530   30.8790 C   0  0  0  0  0  0  0  0  0  0  0  0
   36.3920   24.1260   31.5550 C   0  0  0  0  0  0  0  0  0  0  0  0
   37.3240   24.9840   32.1820 C   0  0  0  0  0  0  0  0  0  0  0  0
   37.1110   26.3170   32.0860 N   0  0  0  0  0  0  0  0  0  0  0  0
   36.0210   26.8120   31.4010 C   0  0  0  0  0  0  0  0  0  0  0  0
   35.1310   25.9720   30.8010 N   0  0  0  0  0  0  0  0  0  0  0  0
   35.8690   28.2350   31.3450 N   0  0  0  0  0  0  0  0  0  0  0  0
   34.5740   24.0540   30.3840 H   0  0  0  0  0  0  0  0  0  0  0  0
   36.6420   28.8490   30.9570 H   0  0  0  0  0  0  0  0  0  0  0  0
   35.0020   28.6700   31.6850 H   0  0  0  0  0  0  0  0  0  0  0  0
   38.5200   22.6990   29.9140 Cl  0  0  0  0  0  0  0  0  0  0  0  0
   37.4110   21.8330   30.9480 C   0  0  0  0  0  0  0  0  0  0  0  0
   36.5380   22.6450   31.6060 C   0  0  0  0  0  0  0  0  0  0  0  0
   35.6090   22.0440   32.4730 C   0  0  0  0  0  0  0  0  0  0  0  0
   35.5550   20.7110   32.6680 C   0  0  0  0  0  0  0  0  0  0  0  0
   36.4640   19.9090   31.9760 C   0  0  0  0  0  0  0  0  0  0  0  0
   36.4400   18.1880   32.1980 Cl  0  0  0  0  0  0  0  0  0  0  0  0
   37.3760   20.4810   31.1280 C   0  0  0  0  0  0  0  0  0  0  0  0
   34.8840   22.6000   33.0520 H   0  0  0  0  0  0  0  0  0  0  0  0
   34.8600   20.2050   33.3220 H   0  0  0  0  0  0  0  0  0  0  0  0
   38.0950   19.8920   30.5780 H   0  0  0  0  0  0  0  0  0  0  0  0
   38.4670   24.4180   32.8870 C   0  0  0  0  0  0  0  0  0  0  0  0
   38.6110   23.3560   32.5790 H   0  0  0  0  0  0  0  0  0  0  0  0
   39.3880   24.9970   32.6850 H   0  0  0  0  0  0  0  0  0  0  0  0
   38.3800   25.6650   34.9920 C   0  0  0  0  0  3  0  0  0  0  0  0
   38.3190   24.4340   34.3690 C   0  0  0  0  0  0  0  0  0  0  0  0
   38.1330   23.2990   35.1700 C   0  0  0  0  0  0  0  0  0  0  0  0
   38.0910   22.3430   34.6560 H   0  0  0  0  0  0  0  0  0  0  0  0
   38.0170   23.4320   36.5350 C   0  0  0  0  0  0  0  0  0  0  0  0
   37.8400   22.5310   37.5180 N   0  0  0  0  0  0  0  0  0  0  0  0
   37.7510   21.4750   37.4060 H   0  0  0  0  0  0  0  0  0  0  0  0
   37.7880   23.1410   38.7390 C   0  0  0  0  0  0  0  0  0  0  0  0
   37.6510   22.6140   39.6740 H   0  0  0  0  0  0  0  0  0  0  0  0
   37.9450   24.5080   38.4550 C   0  0  0  0  0  3  0  0  0  0  0  0
   38.0880   24.7100   37.0990 C   0  0  0  0  0  0  0  0  0  0  0  0
   38.2710   25.8540   36.3550 C   0  0  0  0  0  3  0  0  0  0  0  0
  1  2  1  0  0  0  0
  2 13  1  0  0  0  0
  2  3  2  0  0  0  0
  3 22  1  0  0  0  0
  4  3  1  0  0  0  0
  5  4  2  0  0  0  0
  6  1  2  0  0  0  0
  6  5  1  0  0  0  0
  7  5  1  0  0  0  0
  7 10  1  0  0  0  0
  8  1  1  0  0  0  0
  9  7  1  0  0  0  0
 11 12  1  0  0  0  0
 12 18  2  0  0  0  0
 12 13  1  0  0  0  0
 13 14  2  0  0  0  0
 14 15  1  0  0  0  0
 14 19  1  0  0  0  0
 15 20  1  0  0  0  0
 16 17  1  0  0  0  0
 16 15  2  0  0  0  0
 18 16  1  0  0  0  0
 21 18  1  0  0  0  0
 22 26  1  0  0  0  0
 23 22  1  0  0  0  0
 24 22  1  0  0  0  0
 25 36  1  0  0  0  0
 26 25  2  0  0  0  0
 26 27  1  0  0  0  0
 27 29  2  0  0  0  0
 28 27  1  0  0  0  0
 29 35  1  0  0  0  0
 29 30  1  0  0  0  0
 30 32  1  0  0  0  0
 31 30  1  0  0  0  0
 32 33  1  0  0  0  0
 34 32  2  0  0  0  0
 35 34  1  0  0  0  0
 36 35  2  0  0  0  0
M  END
>  <minimizedAffinity>
-6.4733057

$$$$

 OpenBabel03272504103D

 36 39  0  0  0  0  0  0  0  0999 V2000
   35.2240   30.2080   32.0060 C   0  0  0  0  0  0  0  0  0  0  0  0
   35.5100   29.7660   33.2770 C   0  0  0  0  0  0  0  0  0  0  0  0
   36.1930   28.5430   33.4640 C   0  0  0  0  0  0  0  0  0  0  0  0
   36.5420   27.8450   32.3580 N   0  0  0  0  0  0  0  0  0  0  0  0
   36.2400   28.3180   31.0980 C   0  0  0  0  0  0  0  0  0  0  0  0
   35.5810   29.5000   30.9330 N   0  0  0  0  0  0  0  0  0  0  0  0
   36.6440   27.5190   29.9810 N   0  0  0  0  0  0  0  0  0  0  0  0
   34.7100   31.1290   31.8000 H   0  0  0  0  0  0  0  0  0  0  0  0
   36.3300   26.5100   29.8920 H   0  0  0  0  0  0  0  0  0  0  0  0
   37.2460   27.9250   29.2520 H   0  0  0  0  0  0  0  0  0  0  0  0
   32.8480   29.2910   34.6730 Cl  0  0  0  0  0  0  0  0  0  0  0  0
   33.9450   30.5570   35.1710 C   0  0  0  0  0  0  0  0  0  0  0  0
   35.0860   30.6070   34.4300 C   0  0  0  0  0  0  0  0  0  0  0  0
   36.0390   31.5860   34.7590 C   0  0  0  0  0  0  0  0  0  0  0  0
   35.8600   32.4640   35.7670 C   0  0  0  0  0  0  0  0  0  0  0  0
   34.6780   32.3850   36.5040 C   0  0  0  0  0  0  0  0  0  0  0  0
   34.4020   33.4870   37.8160 Cl  0  0  0  0  0  0  0  0  0  0  0  0
   33.7400   31.4350   36.1950 C   0  0  0  0  0  0  0  0  0  0  0  0
   36.9830   31.7000   34.2430 H   0  0  0  0  0  0  0  0  0  0  0  0
   36.5620   33.2320   36.0550 H   0  0  0  0  0  0  0  0  0  0  0  0
   32.8140   31.3420   36.7440 H   0  0  0  0  0  0  0  0  0  0  0  0
   36.4820   28.0760   34.8140 C   0  0  0  0  0  0  0  0  0  0  0  0
   36.7080   28.9460   35.4730 H   0  0  0  0  0  0  0  0  0  0  0  0
   35.6330   27.5000   35.2280 H   0  0  0  0  0  0  0  0  0  0  0  0
   37.3740   25.8170   35.1240 C   0  0  0  0  0  3  0  0  0  0  0  0
   37.6460   27.1500   34.8860 C   0  0  0  0  0  0  0  0  0  0  0  0
   38.9870   27.5330   34.7380 C   0  0  0  0  0  0  0  0  0  0  0  0
   39.1740   28.5860   34.5540 H   0  0  0  0  0  0  0  0  0  0  0  0
   39.9860   26.5900   34.8330 C   0  0  0  0  0  0  0  0  0  0  0  0
   41.3240   26.6800   34.7380 N   0  0  0  0  0  0  0  0  0  0  0  0
   41.8920   27.5640   34.5590 H   0  0  0  0  0  0  0  0  0  0  0  0
   41.9110   25.4590   34.9080 C   0  0  0  0  0  0  0  0  0  0  0  0
   42.9800   25.2900   34.8730 H   0  0  0  0  0  0  0  0  0  0  0  0
   40.8360   24.5790   35.1190 C   0  0  0  0  0  3  0  0  0  0  0  0
   39.6370   25.2580   35.0760 C   0  0  0  0  0  0  0  0  0  0  0  0
   38.3360   24.8330   35.2290 C   0  0  0  0  0  3  0  0  0  0  0  0
  1  2  1  0  0  0  0
  2  3  2  0  0  0  0
  2 13  1  0  0  0  0
  3 22  1  0  0  0  0
  4  3  1  0  0  0  0
  5  4  2  0  0  0  0
  6  5  1  0  0  0  0
  6  1  2  0  0  0  0
  7  5  1  0  0  0  0
  8  1  1  0  0  0  0
  9  7  1  0  0  0  0
 10  7  1  0  0  0  0
 11 12  1  0  0  0  0
 12 18  1  0  0  0  0
 13 14  1  0  0  0  0
 13 12  2  0  0  0  0
 14 15  2  0  0  0  0
 15 20  1  0  0  0  0
 15 16  1  0  0  0  0
 16 17  1  0  0  0  0
 18 16  2  0  0  0  0
 18 21  1  0  0  0  0
 19 14  1  0  0  0  0
 22 26  1  0  0  0  0
 22 24  1  0  0  0  0
 22 23  1  0  0  0  0
 25 36  1  0  0  0  0
 26 25  2  0  0  0  0
 27 29  2  0  0  0  0
 27 26  1  0  0  0  0
 28 27  1  0  0  0  0
 29 35  1  0  0  0  0
 30 29  1  0  0  0  0
 30 32  1  0  0  0  0
 31 30  1  0  0  0  0
 32 34  2  0  0  0  0
 33 32  1  0  0  0  0
 35 34  1  0  0  0  0
 35 36  2  0  0  0  0
M  END
>  <minimizedAffinity>
-6.35485935

$$$$

 OpenBabel03272504103D

 36 39  0  0  0  0  0  0  0  0999 V2000
   41.3970   24.1110   34.1760 C   0  0  0  0  0  0  0  0  0  0  0  0
   40.1370   24.5300   34.5360 C   0  0  0  0  0  0  0  0  0  0  0  0
   39.9000   25.8950   34.8180 C   0  0  0  0  0  0  0  0  0  0  0  0
   40.9470   26.7460   34.7200 N   0  0  0  0  0  0  0  0  0  0  0  0
   42.1970   26.2910   34.3560 C   0  0  0  0  0  0  0  0  0  0  0  0
   42.4110   24.9720   34.0870 N   0  0  0  0  0  0  0  0  0  0  0  0
   43.2510   27.2570   34.2760 N   0  0  0  0  0  0  0  0  0  0  0  0
   41.6390   23.0880   33.9490 H   0  0  0  0  0  0  0  0  0  0  0  0
   43.4980   27.8630   35.1110 H   0  0  0  0  0  0  0  0  0  0  0  0
   43.7790   27.3670   33.4000 H   0  0  0  0  0  0  0  0  0  0  0  0
   39.4200   23.1950   37.1740 Cl  0  0  0  0  0  0  0  0  0  0  0  0
   38.5920   22.8110   35.6850 C   0  0  0  0  0  0  0  0  0  0  0  0
   39.0490   23.5170   34.6140 C   0  0  0  0  0  0  0  0  0  0  0  0
   38.4390   23.2880   33.3690 C   0  0  0  0  0  0  0  0  0  0  0  0
   37.4340   22.4040   33.2040 C   0  0  0  0  0  0  0  0  0  0  0  0
   36.9920   21.6960   34.3230 C   0  0  0  0  0  0  0  0  0  0  0  0
   35.6970   20.5520   34.1650 Cl  0  0  0  0  0  0  0  0  0  0  0  0
   37.5770   21.9100   35.5440 C   0  0  0  0  0  0  0  0  0  0  0  0
   38.7180   23.8060   32.4610 H   0  0  0  0  0  0  0  0  0  0  0  0
   36.9370   22.1940   32.2680 H   0  0  0  0  0  0  0  0  0  0  0  0
   37.2600   21.3830   36.4320 H   0  0  0  0  0  0  0  0  0  0  0  0
   38.5650   26.3300   35.2090 C   0  0  0  0  0  0  0  0  0  0  0  0
   37.9250   25.4420   35.4210 H   0  0  0  0  0  0  0  0  0  0  0  0
   38.6030   26.9860   36.0990 H   0  0  0  0  0  0  0  0  0  0  0  0
   36.7900   27.8920   34.5710 C   0  0  0  0  0  3  0  0  0  0  0  0
   37.8730   27.1360   34.1660 C   0  0  0  0  0  0  0  0  0  0  0  0
   38.2340   27.1770   32.8120 C   0  0  0  0  0  0  0  0  0  0  0  0
   39.0880   26.5730   32.5180 H   0  0  0  0  0  0  0  0  0  0  0  0
   37.5150   27.9540   31.9310 C   0  0  0  0  0  0  0  0  0  0  0  0
   37.6380   28.1700   30.6090 N   0  0  0  0  0  0  0  0  0  0  0  0
   38.3700   27.7460   29.9600 H   0  0  0  0  0  0  0  0  0  0  0  0
   36.6770   29.0290   30.1610 C   0  0  0  0  0  0  0  0  0  0  0  0
   36.5820   29.3480   29.1310 H   0  0  0  0  0  0  0  0  0  0  0  0
   35.9290   29.3470   31.3070 C   0  0  0  0  0  3  0  0  0  0  0  0
   36.4300   28.6930   32.4120 C   0  0  0  0  0  0  0  0  0  0  0  0
   36.0360   28.6850   33.7320 C   0  0  0  0  0  3  0  0  0  0  0  0
  1  2  1  0  0  0  0
  2 13  1  0  0  0  0
  2  3  2  0  0  0  0
  3 22  1  0  0  0  0
  4  3  1  0  0  0  0
  5  4  2  0  0  0  0
  6  1  2  0  0  0  0
  6  5  1  0  0  0  0
  7  5  1  0  0  0  0
  7  9  1  0  0  0  0
  8  1  1  0  0  0  0
 10  7  1  0  0  0  0
 12 11  1  0  0  0  0
 13 12  2  0  0  0  0
 14 13  1  0  0  0  0
 15 14  2  0  0  0  0
 15 16  1  0  0  0  0
 16 18  2  0  0  0  0
 17 16  1  0  0  0  0
 18 12  1  0  0  0  0
 18 21  1  0  0  0  0
 19 14  1  0  0  0  0
 20 15  1  0  0  0  0
 22 23  1  0  0  0  0
 22 24  1  0  0  0  0
 26 25  1  0  0  0  0
 26 22  1  0  0  0  0
 27 26  2  0  0  0  0
 28 27  1  0  0  0  0
 29 35  2  0  0  0  0
 29 27  1  0  0  0  0
 30 29  1  0  0  0  0
 31 30  1  0  0  0  0
 32 30  1  0  0  0  0
 32 34  2  0  0  0  0
 33 32  1  0  0  0  0
 34 35  1  0  0  0  0
 35 36  1  0  0  0  0
 36 25  2  0  0  0  0
M  END
>  <minimizedAffinity>
-6.33826351

$$$$

 OpenBabel03272504103D

 36 39  0  0  0  0  0  0  0  0999 V2000
   36.8370   28.7210   30.0010 C   0  0  0  0  0  0  0  0  0  0  0  0
   36.5290   28.2530   31.2570 C   0  0  0  0  0  0  0  0  0  0  0  0
   36.1860   29.1600   32.2860 C   0  0  0  0  0  0  0  0  0  0  0  0
   36.1780   30.4790   31.9810 N   0  0  0  0  0  0  0  0  0  0  0  0
   36.4920   30.9130   30.7110 C   0  0  0  0  0  0  0  0  0  0  0  0
   36.8200   30.0270   29.7290 N   0  0  0  0  0  0  0  0  0  0  0  0
   36.4610   32.3250   30.4720 N   0  0  0  0  0  0  0  0  0  0  0  0
   37.1040   28.0830   29.1790 H   0  0  0  0  0  0  0  0  0  0  0  0
   37.0450   32.9890   31.0570 H   0  0  0  0  0  0  0  0  0  0  0  0
   35.8650   32.7040   29.7240 H   0  0  0  0  0  0  0  0  0  0  0  0
   38.9290   26.9310   32.5790 Cl  0  0  0  0  0  0  0  0  0  0  0  0
   37.5380   26.0150   32.0530 C   0  0  0  0  0  0  0  0  0  0  0  0
   36.5640   26.7840   31.4930 C   0  0  0  0  0  0  0  0  0  0  0  0
   35.3970   26.1410   31.0470 C   0  0  0  0  0  0  0  0  0  0  0  0
   35.2150   24.8090   31.1520 C   0  0  0  0  0  0  0  0  0  0  0  0
   36.2350   24.0510   31.7310 C   0  0  0  0  0  0  0  0  0  0  0  0
   36.0480   22.3340   31.8980 Cl  0  0  0  0  0  0  0  0  0  0  0  0
   37.3790   24.6650   32.1720 C   0  0  0  0  0  0  0  0  0  0  0  0
   34.5600   26.6610   30.6000 H   0  0  0  0  0  0  0  0  0  0  0  0
   34.3380   24.2720   30.8230 H   0  0  0  0  0  0  0  0  0  0  0  0
   38.1880   24.1120   32.6260 H   0  0  0  0  0  0  0  0  0  0  0  0
   35.8710   28.6570   33.6170 C   0  0  0  0  0  0  0  0  0  0  0  0
   35.1580   27.8040   33.5390 H   0  0  0  0  0  0  0  0  0  0  0  0
   36.7860   28.3340   34.1490 H   0  0  0  0  0  0  0  0  0  0  0  0
   36.1040   30.4990   35.2120 C   0  0  0  0  0  3  0  0  0  0  0  0
   35.2490   29.6770   34.5060 C   0  0  0  0  0  0  0  0  0  0  0  0
   33.8690   29.8540   34.6820 C   0  0  0  0  0  0  0  0  0  0  0  0
   33.2190   29.1930   34.1170 H   0  0  0  0  0  0  0  0  0  0  0  0
   33.4050   30.8260   35.5400 C   0  0  0  0  0  0  0  0  0  0  0  0
   32.1620   31.2000   35.8910 N   0  0  0  0  0  0  0  0  0  0  0  0
   31.2470   30.7800   35.5410 H   0  0  0  0  0  0  0  0  0  0  0  0
   32.1950   32.2260   36.7920 C   0  0  0  0  0  0  0  0  0  0  0  0
   31.3130   32.6890   37.2150 H   0  0  0  0  0  0  0  0  0  0  0  0
   33.5630   32.4770   36.9870 C   0  0  0  0  0  3  0  0  0  0  0  0
   34.3290   31.6230   36.2220 C   0  0  0  0  0  0  0  0  0  0  0  0
   35.6920   31.4870   36.0840 C   0  0  0  0  0  3  0  0  0  0  0  0
  1  2  1  0  0  0  0
  2 13  1  0  0  0  0
  2  3  2  0  0  0  0
  3 22  1  0  0  0  0
  4  3  1  0  0  0  0
  5  4  2  0  0  0  0
  6  1  2  0  0  0  0
  6  5  1  0  0  0  0
  7  5  1  0  0  0  0
  7  9  1  0  0  0  0
  8  1  1  0  0  0  0
 10  7  1  0  0  0  0
 12 18  1  0  0  0  0
 12 11  1  0  0  0  0
 13 12  2  0  0  0  0
 14 15  2  0  0  0  0
 14 13  1  0  0  0  0
 15 16  1  0  0  0  0
 16 17  1  0  0  0  0
 16 18  2  0  0  0  0
 18 21  1  0  0  0  0
 19 14  1  0  0  0  0
 20 15  1  0  0  0  0
 22 24  1  0  0  0  0
 22 26  1  0  0  0  0
 23 22  1  0  0  0  0
 25 36  1  0  0  0  0
 26 27  1  0  0  0  0
 26 25  2  0  0  0  0
 27 29  2  0  0  0  0
 28 27  1  0  0  0  0
 29 30  1  0  0  0  0
 29 35  1  0  0  0  0
 30 32  1  0  0  0  0
 31 30  1  0  0  0  0
 32 34  2  0  0  0  0
 32 33  1  0  0  0  0
 35 34  1  0  0  0  0
 36 35  2  0  0  0  0
M  END
>  <minimizedAffinity>
-6.24500179

$$$$

 OpenBabel03272504103D

 36 39  0  0  0  0  0  0  0  0999 V2000
   38.1580   25.4940   36.7430 C   0  0  0  0  0  0  0  0  0  0  0  0
   38.6060   24.9520   35.5620 C   0  0  0  0  0  0  0  0  0  0  0  0
   39.0530   23.6110   35.5230 C   0  0  0  0  0  0  0  0  0  0  0  0
   39.0180   22.9060   36.6780 N   0  0  0  0  0  0  0  0  0  0  0  0
   38.5620   23.4810   37.8450 C   0  0  0  0  0  0  0  0  0  0  0  0
   38.1340   24.7760   37.8670 N   0  0  0  0  0  0  0  0  0  0  0  0
   38.5590   22.6670   39.0230 N   0  0  0  0  0  0  0  0  0  0  0  0
   37.8050   26.5050   36.8360 H   0  0  0  0  0  0  0  0  0  0  0  0
   39.4500   22.2050   39.3670 H   0  0  0  0  0  0  0  0  0  0  0  0
   37.6840   22.5270   39.5450 H   0  0  0  0  0  0  0  0  0  0  0  0
   41.1310   26.3740   34.6350 Cl  0  0  0  0  0  0  0  0  0  0  0  0
   39.6150   26.5240   33.7810 C   0  0  0  0  0  0  0  0  0  0  0  0
   38.6030   25.8080   34.3440 C   0  0  0  0  0  0  0  0  0  0  0  0
   37.3430   25.8540   33.7240 C   0  0  0  0  0  0  0  0  0  0  0  0
   37.1080   26.5760   32.6090 C   0  0  0  0  0  0  0  0  0  0  0  0
   38.1670   27.2990   32.0600 C   0  0  0  0  0  0  0  0  0  0  0  0
   37.9190   28.2380   30.6220 Cl  0  0  0  0  0  0  0  0  0  0  0  0
   39.4020   27.2620   32.6530 C   0  0  0  0  0  0  0  0  0  0  0  0
   36.4790   25.3120   34.0830 H   0  0  0  0  0  0  0  0  0  0  0  0
   36.1580   26.6430   32.1000 H   0  0  0  0  0  0  0  0  0  0  0  0
   40.2460   27.8080   32.2560 H   0  0  0  0  0  0  0  0  0  0  0  0
   39.5370   23.0470   34.2700 C   0  0  0  0  0  0  0  0  0  0  0  0
   40.0450   23.8380   33.6710 H   0  0  0  0  0  0  0  0  0  0  0  0
   40.2360   22.2080   34.4530 H   0  0  0  0  0  0  0  0  0  0  0  0
   38.4990   22.7600   32.0720 C   0  0  0  0  0  3  0  0  0  0  0  0
   38.4580   22.4710   33.4210 C   0  0  0  0  0  0  0  0  0  0  0  0
   37.4080   21.6680   33.8910 C   0  0  0  0  0  0  0  0  0  0  0  0
   37.3980   21.4570   34.9570 H   0  0  0  0  0  0  0  0  0  0  0  0
   36.4580   21.1960   33.0150 C   0  0  0  0  0  0  0  0  0  0  0  0
   35.3680   20.4280   33.1920 N   0  0  0  0  0  0  0  0  0  0  0  0
   35.0210   20.0170   34.1130 H   0  0  0  0  0  0  0  0  0  0  0  0
   34.7160   20.2210   32.0110 C   0  0  0  0  0  0  0  0  0  0  0  0
   33.8130   19.6320   31.9120 H   0  0  0  0  0  0  0  0  0  0  0  0
   35.4800   20.9190   31.0610 C   0  0  0  0  0  3  0  0  0  0  0  0
   36.5620   21.5290   31.6610 C   0  0  0  0  0  0  0  0  0  0  0  0
   37.5720   22.3140   31.1510 C   0  0  0  0  0  3  0  0  0  0  0  0
  1  8  1  0  0  0  0
  1  6  1  0  0  0  0
  2  1  2  0  0  0  0
  3  2  1  0  0  0  0
  3  4  2  0  0  0  0
  4  5  1  0  0  0  0
  5  6  2  0  0  0  0
  5  7  1  0  0  0  0
  7  9  1  0  0  0  0
  7 10  1  0  0  0  0
 12 13  1  0  0  0  0
 12 11  1  0  0  0  0
 13  2  1  0  0  0  0
 14 19  1  0  0  0  0
 14 13  2  0  0  0  0
 15 14  1  0  0  0  0
 16 15  2  0  0  0  0
 16 18  1  0  0  0  0
 17 16  1  0  0  0  0
 18 12  2  0  0  0  0
 20 15  1  0  0  0  0
 21 18  1  0  0  0  0
 22 24  1  0  0  0  0
 22  3  1  0  0  0  0
 23 22  1  0  0  0  0
 25 26  1  0  0  0  0
 26 27  2  0  0  0  0
 26 22  1  0  0  0  0
 27 28  1  0  0  0  0
 29 30  1  0  0  0  0
 29 27  1  0  0  0  0
 30 31  1  0  0  0  0
 32 30  1  0  0  0  0
 33 32  1  0  0  0  0
 34 35  1  0  0  0  0
 34 32  2  0  0  0  0
 35 29  2  0  0  0  0
 36 35  1  0  0  0  0
 36 25  2  0  0  0  0
M  END
>  <minimizedAffinity>
-6.19362116

$$$$

 OpenBabel03272504103D

 36 39  0  0  0  0  0  0  0  0999 V2000
   35.1340   25.9560   30.9650 C   0  0  0  0  0  0  0  0  0  0  0  0
   36.1090   26.5230   31.7520 C   0  0  0  0  0  0  0  0  0  0  0  0
   37.0280   25.7000   32.4420 C   0  0  0  0  0  0  0  0  0  0  0  0
   36.9050   24.3610   32.2940 N   0  0  0  0  0  0  0  0  0  0  0  0
   35.9150   23.8260   31.4960 C   0  0  0  0  0  0  0  0  0  0  0  0
   35.0360   24.6320   30.8360 N   0  0  0  0  0  0  0  0  0  0  0  0
   35.8520   22.3990   31.3940 N   0  0  0  0  0  0  0  0  0  0  0  0
   34.4080   26.5270   30.4150 H   0  0  0  0  0  0  0  0  0  0  0  0
   35.7540   21.7960   32.2610 H   0  0  0  0  0  0  0  0  0  0  0  0
   35.9020   21.9500   30.4700 H   0  0  0  0  0  0  0  0  0  0  0  0
   37.4960   28.1870   29.6160 Cl  0  0  0  0  0  0  0  0  0  0  0  0
   36.7390   28.9140   31.0120 C   0  0  0  0  0  0  0  0  0  0  0  0
   36.1650   28.0070   31.8500 C   0  0  0  0  0  0  0  0  0  0  0  0
   35.5190   28.4940   32.9990 C   0  0  0  0  0  0  0  0  0  0  0  0
   35.4520   29.8080   33.2940 C   0  0  0  0  0  0  0  0  0  0  0  0
   36.0530   30.7090   32.4140 C   0  0  0  0  0  0  0  0  0  0  0  0
   35.9900   32.4120   32.7440 Cl  0  0  0  0  0  0  0  0  0  0  0  0
   36.6860   30.2490   31.2880 C   0  0  0  0  0  0  0  0  0  0  0  0
   35.0200   27.8590   33.7200 H   0  0  0  0  0  0  0  0  0  0  0  0
   34.9690   30.2270   34.1640 H   0  0  0  0  0  0  0  0  0  0  0  0
   37.1600   30.9170   30.5830 H   0  0  0  0  0  0  0  0  0  0  0  0
   38.0520   26.3090   33.2830 C   0  0  0  0  0  0  0  0  0  0  0  0
   38.9660   26.5110   32.6780 H   0  0  0  0  0  0  0  0  0  0  0  0
   37.6870   27.2490   33.7400 H   0  0  0  0  0  0  0  0  0  0  0  0
   39.5870   24.6750   34.2670 C   0  0  0  0  0  3  0  0  0  0  0  0
   38.4600   25.4560   34.4330 C   0  0  0  0  0  0  0  0  0  0  0  0
   37.7850   25.3850   35.6600 C   0  0  0  0  0  0  0  0  0  0  0  0
   36.9010   26.0070   35.7650 H   0  0  0  0  0  0  0  0  0  0  0  0
   38.2490   24.5520   36.6530 C   0  0  0  0  0  0  0  0  0  0  0  0
   37.8030   24.2930   37.8960 N   0  0  0  0  0  0  0  0  0  0  0  0
   36.9470   24.7180   38.3670 H   0  0  0  0  0  0  0  0  0  0  0  0
   38.6000   23.3780   38.5210 C   0  0  0  0  0  0  0  0  0  0  0  0
   38.4340   23.0180   39.5290 H   0  0  0  0  0  0  0  0  0  0  0  0
   39.5950   23.0740   37.5770 C   0  0  0  0  0  3  0  0  0  0  0  0
   39.3960   23.7890   36.4150 C   0  0  0  0  0  0  0  0  0  0  0  0
   40.0940   23.8240   35.2280 C   0  0  0  0  0  3  0  0  0  0  0  0
  1  2  1  0  0  0  0
  2 13  1  0  0  0  0
  2  3  2  0  0  0  0
  3 22  1  0  0  0  0
  4  3  1  0  0  0  0
  5  4  2  0  0  0  0
  6  1  2  0  0  0  0
  6  5  1  0  0  0  0
  7  5  1  0  0  0  0
  7  9  1  0  0  0  0
  8  1  1  0  0  0  0
 10  7  1  0  0  0  0
 11 12  1  0  0  0  0
 12 18  2  0  0  0  0
 12 13  1  0  0  0  0
 13 14  2  0  0  0  0
 14 15  1  0  0  0  0
 14 19  1  0  0  0  0
 15 20  1  0  0  0  0
 16 17  1  0  0  0  0
 16 15  2  0  0  0  0
 18 16  1  0  0  0  0
 21 18  1  0  0  0  0
 22 24  1  0  0  0  0
 22 26  1  0  0  0  0
 23 22  1  0  0  0  0
 25 26  2  0  0  0  0
 25 36  1  0  0  0  0
 26 27  1  0  0  0  0
 27 28  1  0  0  0  0
 27 29  2  0  0  0  0
 29 30  1  0  0  0  0
 30 31  1  0  0  0  0
 30 32  1  0  0  0  0
 32 33  1  0  0  0  0
 34 32  2  0  0  0  0
 35 29  1  0  0  0  0
 35 34  1  0  0  0  0
 36 35  2  0  0  0  0
M  END
>  <minimizedAffinity>
-6.18192816

$$$$

 OpenBabel03272504103D

 36 39  0  0  0  0  0  0  0  0999 V2000
   37.8210   26.9760   35.4400 C   0  0  0  0  0  0  0  0  0  0  0  0
   38.2870   25.9490   34.6520 C   0  0  0  0  0  0  0  0  0  0  0  0
   37.9190   25.8810   33.2890 C   0  0  0  0  0  0  0  0  0  0  0  0
   37.1080   26.8520   32.8090 N   0  0  0  0  0  0  0  0  0  0  0  0
   36.6600   27.8680   33.6270 C   0  0  0  0  0  0  0  0  0  0  0  0
   37.0230   27.9210   34.9410 N   0  0  0  0  0  0  0  0  0  0  0  0
   35.8040   28.8550   33.0420 N   0  0  0  0  0  0  0  0  0  0  0  0
   38.0660   27.0830   36.4810 H   0  0  0  0  0  0  0  0  0  0  0  0
   34.9000   28.5750   32.5630 H   0  0  0  0  0  0  0  0  0  0  0  0
   36.0650   29.8490   33.0850 H   0  0  0  0  0  0  0  0  0  0  0  0
   41.2910   25.9870   34.1730 Cl  0  0  0  0  0  0  0  0  0  0  0  0
   40.5260   24.7750   35.1730 C   0  0  0  0  0  0  0  0  0  0  0  0
   39.1770   24.9300   35.2720 C   0  0  0  0  0  0  0  0  0  0  0  0
   38.4690   24.0100   36.0640 C   0  0  0  0  0  0  0  0  0  0  0  0
   39.0730   22.9950   36.7150 C   0  0  0  0  0  0  0  0  0  0  0  0
   40.4570   22.8660   36.5890 C   0  0  0  0  0  0  0  0  0  0  0  0
   41.2840   21.5820   37.4130 Cl  0  0  0  0  0  0  0  0  0  0  0  0
   41.1610   23.7570   35.8210 C   0  0  0  0  0  0  0  0  0  0  0  0
   37.3990   24.0520   36.2200 H   0  0  0  0  0  0  0  0  0  0  0  0
   38.5710   22.2650   37.3330 H   0  0  0  0  0  0  0  0  0  0  0  0
   42.2330   23.6900   35.7020 H   0  0  0  0  0  0  0  0  0  0  0  0
   38.4080   24.7840   32.4640 C   0  0  0  0  0  0  0  0  0  0  0  0
   38.6340   25.1550   31.4370 H   0  0  0  0  0  0  0  0  0  0  0  0
   39.3130   24.3240   32.9050 H   0  0  0  0  0  0  0  0  0  0  0  0
   36.4270   23.8190   31.3960 C   0  0  0  0  0  3  0  0  0  0  0  0
   37.4350   23.6640   32.3260 C   0  0  0  0  0  0  0  0  0  0  0  0
   37.4660   22.4780   33.0730 C   0  0  0  0  0  0  0  0  0  0  0  0
   38.2680   22.3820   33.7990 H   0  0  0  0  0  0  0  0  0  0  0  0
   36.5070   21.5110   32.8680 C   0  0  0  0  0  0  0  0  0  0  0  0
   36.3020   20.3090   33.4350 N   0  0  0  0  0  0  0  0  0  0  0  0
   36.8900   19.8570   34.2010 H   0  0  0  0  0  0  0  0  0  0  0  0
   35.2040   19.6970   32.9020 C   0  0  0  0  0  0  0  0  0  0  0  0
   34.8480   18.7200   33.2060 H   0  0  0  0  0  0  0  0  0  0  0  0
   34.7240   20.6070   31.9470 C   0  0  0  0  0  3  0  0  0  0  0  0
   35.5150   21.7360   31.9090 C   0  0  0  0  0  0  0  0  0  0  0  0
   35.4420   22.8840   31.1520 C   0  0  0  0  0  3  0  0  0  0  0  0
  1  8  1  0  0  0  0
  2 13  1  0  0  0  0
  2  1  2  0  0  0  0
  3  2  1  0  0  0  0
  4  3  2  0  0  0  0
  4  5  1  0  0  0  0
  5  6  2  0  0  0  0
  6  1  1  0  0  0  0
  7 10  1  0  0  0  0
  7  5  1  0  0  0  0
  9  7  1  0  0  0  0
 11 12  1  0  0  0  0
 12 13  2  0  0  0  0
 12 18  1  0  0  0  0
 13 14  1  0  0  0  0
 14 19  1  0  0  0  0
 14 15  2  0  0  0  0
 15 20  1  0  0  0  0
 16 15  1  0  0  0  0
 16 17  1  0  0  0  0
 18 16  2  0  0  0  0
 21 18  1  0  0  0  0
 22 24  1  0  0  0  0
 22  3  1  0  0  0  0
 23 22  1  0  0  0  0
 25 26  1  0  0  0  0
 26 22  1  0  0  0  0
 26 27  2  0  0  0  0
 27 28  1  0  0  0  0
 29 27  1  0  0  0  0
 29 30  1  0  0  0  0
 30 31  1  0  0  0  0
 32 33  1  0  0  0  0
 32 30  1  0  0  0  0
 34 32  2  0  0  0  0
 35 34  1  0  0  0  0
 35 29  2  0  0  0  0
 36 25  2  0  0  0  0
 36 35  1  0  0  0  0
M  END
>  <minimizedAffinity>
-6.00541878

$$$$

 OpenBabel03272504103D

 36 39  0  0  0  0  0  0  0  0999 V2000
   38.2800   26.9270   35.6810 C   0  0  0  0  0  0  0  0  0  0  0  0
   38.6910   25.9410   34.8150 C   0  0  0  0  0  0  0  0  0  0  0  0
   38.1590   25.8830   33.5060 C   0  0  0  0  0  0  0  0  0  0  0  0
   37.2490   26.8210   33.1580 N   0  0  0  0  0  0  0  0  0  0  0  0
   36.8600   27.7960   34.0520 C   0  0  0  0  0  0  0  0  0  0  0  0
   37.3820   27.8400   35.3110 N   0  0  0  0  0  0  0  0  0  0  0  0
   35.8910   28.7510   33.6050 N   0  0  0  0  0  0  0  0  0  0  0  0
   38.6480   27.0240   36.6870 H   0  0  0  0  0  0  0  0  0  0  0  0
   34.9480   28.4370   33.2350 H   0  0  0  0  0  0  0  0  0  0  0  0
   36.1090   29.7560   33.6410 H   0  0  0  0  0  0  0  0  0  0  0  0
   37.8760   23.5650   36.5330 Cl  0  0  0  0  0  0  0  0  0  0  0  0
   39.5360   23.8470   36.0660 C   0  0  0  0  0  0  0  0  0  0  0  0
   39.6990   24.9550   35.2920 C   0  0  0  0  0  0  0  0  0  0  0  0
   40.9990   25.2630   34.8540 C   0  0  0  0  0  0  0  0  0  0  0  0
   42.0710   24.5090   35.1740 C   0  0  0  0  0  0  0  0  0  0  0  0
   41.8660   23.3820   35.9710 C   0  0  0  0  0  0  0  0  0  0  0  0
   43.2110   22.3740   36.4040 Cl  0  0  0  0  0  0  0  0  0  0  0  0
   40.6040   23.0690   36.4030 C   0  0  0  0  0  0  0  0  0  0  0  0
   41.2340   26.1110   34.2250 H   0  0  0  0  0  0  0  0  0  0  0  0
   43.0860   24.7070   34.8620 H   0  0  0  0  0  0  0  0  0  0  0  0
   40.4070   22.2030   37.0200 H   0  0  0  0  0  0  0  0  0  0  0  0
   38.5910   24.8280   32.5980 C   0  0  0  0  0  0  0  0  0  0  0  0
   38.7890   25.2580   31.5880 H   0  0  0  0  0  0  0  0  0  0  0  0
   39.5000   24.3220   32.9760 H   0  0  0  0  0  0  0  0  0  0  0  0
   36.6140   23.9290   31.4670 C   0  0  0  0  0  3  0  0  0  0  0  0
   37.5870   23.7410   32.4280 C   0  0  0  0  0  0  0  0  0  0  0  0
   37.5560   22.5540   33.1740 C   0  0  0  0  0  0  0  0  0  0  0  0
   38.3310   22.4310   33.9250 H   0  0  0  0  0  0  0  0  0  0  0  0
   36.5730   21.6190   32.9370 C   0  0  0  0  0  0  0  0  0  0  0  0
   36.3110   20.4240   33.4950 N   0  0  0  0  0  0  0  0  0  0  0  0
   36.8600   19.9520   34.2780 H   0  0  0  0  0  0  0  0  0  0  0  0
   35.2110   19.8480   32.9270 C   0  0  0  0  0  0  0  0  0  0  0  0
   34.8140   18.8840   33.2180 H   0  0  0  0  0  0  0  0  0  0  0  0
   34.7910   20.7740   31.9580 C   0  0  0  0  0  3  0  0  0  0  0  0
   35.6200   21.8760   31.9470 C   0  0  0  0  0  0  0  0  0  0  0  0
   35.6080   23.0270   31.1900 C   0  0  0  0  0  3  0  0  0  0  0  0
  1  8  1  0  0  0  0
  2 13  1  0  0  0  0
  2  1  2  0  0  0  0
  3  2  1  0  0  0  0
  4  3  2  0  0  0  0
  4  5  1  0  0  0  0
  5  6  2  0  0  0  0
  6  1  1  0  0  0  0
  7 10  1  0  0  0  0
  7  5  1  0  0  0  0
  9  7  1  0  0  0  0
 12 18  1  0  0  0  0
 12 11  1  0  0  0  0
 13 12  2  0  0  0  0
 14 15  2  0  0  0  0
 14 13  1  0  0  0  0
 15 16  1  0  0  0  0
 16 18  2  0  0  0  0
 16 17  1  0  0  0  0
 18 21  1  0  0  0  0
 19 14  1  0  0  0  0
 20 15  1  0  0  0  0
 22 24  1  0  0  0  0
 22  3  1  0  0  0  0
 23 22  1  0  0  0  0
 25 26  1  0  0  0  0
 26 22  1  0  0  0  0
 26 27  2  0  0  0  0
 27 28  1  0  0  0  0
 29 27  1  0  0  0  0
 29 30  1  0  0  0  0
 30 31  1  0  0  0  0
 32 33  1  0  0  0  0
 32 30  1  0  0  0  0
 34 32  2  0  0  0  0
 35 34  1  0  0  0  0
 35 29  2  0  0  0  0
 36 25  2  0  0  0  0
 36 35  1  0  0  0  0
M  END
>  <minimizedAffinity>
-5.99219084

$$$$

 OpenBabel03272504103D

 36 39  0  0  0  0  0  0  0  0999 V2000
   35.4010   25.2940   30.9870 C   0  0  0  0  0  0  0  0  0  0  0  0
   36.3380   25.9250   31.7710 C   0  0  0  0  0  0  0  0  0  0  0  0
   37.1960   25.1650   32.5980 C   0  0  0  0  0  0  0  0  0  0  0  0
   37.0530   23.8190   32.5810 N   0  0  0  0  0  0  0  0  0  0  0  0
   36.1020   23.2190   31.7820 C   0  0  0  0  0  0  0  0  0  0  0  0
   35.2820   23.9660   30.9890 N   0  0  0  0  0  0  0  0  0  0  0  0
   36.0140   21.7910   31.8220 N   0  0  0  0  0  0  0  0  0  0  0  0
   34.7220   25.8160   30.3380 H   0  0  0  0  0  0  0  0  0  0  0  0
   35.8510   21.2820   32.7380 H   0  0  0  0  0  0  0  0  0  0  0  0
   36.1110   21.2470   30.9540 H   0  0  0  0  0  0  0  0  0  0  0  0
   38.4010   27.3260   30.0270 Cl  0  0  0  0  0  0  0  0  0  0  0  0
   37.2670   28.2120   31.0170 C   0  0  0  0  0  0  0  0  0  0  0  0
   36.4200   27.4100   31.7190 C   0  0  0  0  0  0  0  0  0  0  0  0
   35.4610   28.0290   32.5400 C   0  0  0  0  0  0  0  0  0  0  0  0
   35.3580   29.3690   32.6530 C   0  0  0  0  0  0  0  0  0  0  0  0
   36.2440   30.1600   31.9200 C   0  0  0  0  0  0  0  0  0  0  0  0
   36.1480   31.8900   32.0250 Cl  0  0  0  0  0  0  0  0  0  0  0  0
   37.1830   29.5700   31.1150 C   0  0  0  0  0  0  0  0  0  0  0  0
   34.7340   27.4840   33.1270 H   0  0  0  0  0  0  0  0  0  0  0  0
   34.6390   29.8880   33.2710 H   0  0  0  0  0  0  0  0  0  0  0  0
   37.8840   30.1500   30.5320 H   0  0  0  0  0  0  0  0  0  0  0  0
   38.1800   25.8410   33.4340 C   0  0  0  0  0  0  0  0  0  0  0  0
   39.0980   26.0550   32.8390 H   0  0  0  0  0  0  0  0  0  0  0  0
   37.7720   26.7830   33.8480 H   0  0  0  0  0  0  0  0  0  0  0  0
   37.8760   25.2320   35.7860 C   0  0  0  0  0  3  0  0  0  0  0  0
   38.5970   25.0470   34.6230 C   0  0  0  0  0  0  0  0  0  0  0  0
   39.6640   24.1380   34.6470 C   0  0  0  0  0  0  0  0  0  0  0  0
   40.2160   24.0120   33.7200 H   0  0  0  0  0  0  0  0  0  0  0  0
   39.9670   23.4630   35.8080 C   0  0  0  0  0  0  0  0  0  0  0  0
   40.9170   22.5590   36.1060 N   0  0  0  0  0  0  0  0  0  0  0  0
   41.6610   22.1760   35.4450 H   0  0  0  0  0  0  0  0  0  0  0  0
   40.8290   22.1660   37.4100 C   0  0  0  0  0  0  0  0  0  0  0  0
   41.4910   21.4440   37.8720 H   0  0  0  0  0  0  0  0  0  0  0  0
   39.7410   22.8930   37.9230 C   0  0  0  0  0  3  0  0  0  0  0  0
   39.1940   23.7010   36.9490 C   0  0  0  0  0  0  0  0  0  0  0  0
   38.1370   24.5830   36.9760 C   0  0  0  0  0  3  0  0  0  0  0  0
  1  6  2  0  0  0  0
  1  2  1  0  0  0  0
  2  3  2  0  0  0  0
  3 22  1  0  0  0  0
  4  3  1  0  0  0  0
  5  7  1  0  0  0  0
  5  4  2  0  0  0  0
  6  5  1  0  0  0  0
  7  9  1  0  0  0  0
  8  1  1  0  0  0  0
 10  7  1  0  0  0  0
 11 12  1  0  0  0  0
 12 18  2  0  0  0  0
 12 13  1  0  0  0  0
 13  2  1  0  0  0  0
 13 14  2  0  0  0  0
 14 15  1  0  0  0  0
 14 19  1  0  0  0  0
 15 20  1  0  0  0  0
 16 17  1  0  0  0  0
 16 15  2  0  0  0  0
 18 16  1  0  0  0  0
 21 18  1  0  0  0  0
 22 24  1  0  0  0  0
 22 26  1  0  0  0  0
 23 22  1  0  0  0  0
 25 36  1  0  0  0  0
 26 27  1  0  0  0  0
 26 25  2  0  0  0  0
 27 29  2  0  0  0  0
 28 27  1  0  0  0  0
 29 30  1  0  0  0  0
 29 35  1  0  0  0  0
 30 32  1  0  0  0  0
 31 30  1  0  0  0  0
 32 33  1  0  0  0  0
 32 34  2  0  0  0  0
 35 36  2  0  0  0  0
 35 34  1  0  0  0  0
M  END
>  <minimizedAffinity>
-5.87953424

$$$$
