
 OpenBabel03272506553D

 23 25  0  0  0  0  0  0  0  0999 V2000
   32.7840   28.4390   49.2970 C   0  0  0  0  0  3  0  0  0  0  0  0
   33.9970   28.1270   48.6800 C   0  0  0  0  0  0  0  0  0  0  0  0
   34.0780   27.1810   47.6750 C   0  0  0  0  0  0  0  0  0  0  0  0
   35.0340   26.9570   47.2130 H   0  0  0  0  0  0  0  0  0  0  0  0
   32.9480   26.5140   47.2460 C   0  0  0  0  0  0  0  0  0  0  0  0
   32.7700   25.5650   46.2970 N   0  0  0  0  0  0  0  0  0  0  0  0
   33.5240   25.1560   45.6920 H   0  0  0  0  0  0  0  0  0  0  0  0
   31.4630   25.2350   46.2640 C   0  0  0  0  0  0  0  0  0  0  0  0
   31.0170   24.4920   45.5960 H   0  0  0  0  0  0  0  0  0  0  0  0
   30.7860   25.9960   47.2210 C   0  0  0  0  0  3  0  0  0  0  0  0
   31.7340   26.7860   47.8200 C   0  0  0  0  0  0  0  0  0  0  0  0
   31.6860   27.7320   48.8200 C   0  0  0  0  0  3  0  0  0  0  0  0
   36.5490   29.5580   50.9100 C   0  0  0  0  0  0  0  0  0  0  0  0
   37.4480   30.1760   50.0240 C   0  0  0  0  0  0  0  0  0  0  0  0
   37.1550   30.0870   48.6550 C   0  0  0  0  0  0  0  0  0  0  0  0
   36.0450   29.4260   48.2620 N   0  0  0  0  0  0  0  0  0  0  0  0
   35.2030   28.8430   49.1410 C   0  0  0  0  0  0  0  0  0  0  0  0
   35.4400   28.9000   50.4700 N   0  0  0  0  0  0  0  0  0  0  0  0
   36.7880   29.6360   51.9670 H   0  0  0  0  0  0  0  0  0  0  0  0
   37.8340   30.5550   47.9610 H   0  0  0  0  0  0  0  0  0  0  0  0
   38.5840   30.8460   50.5410 N   0  0  0  0  0  0  0  0  0  0  0  0
   38.4550   31.3470   51.4670 H   0  0  0  0  0  0  0  0  0  0  0  0
   39.5170   30.8700   50.0720 H   0  0  0  0  0  0  0  0  0  0  0  0
  2 17  1  0  0  0  0
  2  1  2  0  0  0  0
  3  2  1  0  0  0  0
  4  3  1  0  0  0  0
  5  3  2  0  0  0  0
  5 11  1  0  0  0  0
  6  5  1  0  0  0  0
  7  6  1  0  0  0  0
  8  6  1  0  0  0  0
  8 10  2  0  0  0  0
  9  8  1  0  0  0  0
 10 11  1  0  0  0  0
 11 12  2  0  0  0  0
 12  1  1  0  0  0  0
 13 19  1  0  0  0  0
 14 21  1  0  0  0  0
 14 13  2  0  0  0  0
 15 14  1  0  0  0  0
 16 15  2  0  0  0  0
 16 17  1  0  0  0  0
 17 18  2  0  0  0  0
 18 13  1  0  0  0  0
 20 15  1  0  0  0  0
 21 22  1  0  0  0  0
 23 21  1  0  0  0  0
M  END
>  <minimizedAffinity>
-4.56053448

>  <minimizedRMSD>
1.53131008

$$$$
