
 OpenBabel03272510133D

 44 48  0  0  0  0  0  0  0  0999 V2000
   38.3670   31.6370   48.9870 C   0  0  0  0  0  0  0  0  0  0  0  0
   38.5140   32.8920   49.5370 C   0  0  0  0  0  0  0  0  0  0  0  0
   39.1600   33.6860   48.5940 C   0  0  0  0  0  0  0  0  0  0  0  0
   39.3840   32.9240   47.5280 N   0  0  0  0  0  0  0  0  0  0  0  0
   38.9190   31.7500   47.7790 N   0  0  0  0  0  0  0  0  0  0  0  0
   38.2570   33.3660   50.4760 H   0  0  0  0  0  0  0  0  0  0  0  0
   39.4620   34.7280   48.6290 H   0  0  0  0  0  0  0  0  0  0  0  0
   40.0440   33.2960   46.3080 C   0  0  0  0  0  0  0  0  0  0  0  0
   41.0050   33.8050   46.6190 H   0  0  0  0  0  0  0  0  0  0  0  0
   39.5000   34.0700   45.7420 H   0  0  0  0  0  0  0  0  0  0  0  0
   40.3810   32.0870   45.5120 C   0  0  0  0  0  0  0  0  0  0  0  0
   40.6210   31.2050   46.1930 H   0  0  0  0  0  0  0  0  0  0  0  0
   41.3210   32.2370   44.9210 H   0  0  0  0  0  0  0  0  0  0  0  0
   39.1340   30.4370   43.9210 C   0  0  0  0  0  3  0  0  0  0  0  0
   39.3460   31.6060   44.6060 C   0  0  0  0  0  0  0  0  0  0  0  0
   38.3310   32.5610   44.4410 C   0  0  0  0  0  0  0  0  0  0  0  0
   38.3110   33.5610   44.9040 H   0  0  0  0  0  0  0  0  0  0  0  0
   37.2030   32.3550   43.6570 C   0  0  0  0  0  0  0  0  0  0  0  0
   36.1170   33.0520   43.3280 N   0  0  0  0  0  0  0  0  0  0  0  0
   35.9110   34.0330   43.6680 H   0  0  0  0  0  0  0  0  0  0  0  0
   35.3190   32.3600   42.5140 C   0  0  0  0  0  0  0  0  0  0  0  0
   34.3730   32.7250   42.1120 H   0  0  0  0  0  0  0  0  0  0  0  0
   35.8870   31.1250   42.2750 C   0  0  0  0  0  3  0  0  0  0  0  0
   37.0590   31.1520   42.9990 C   0  0  0  0  0  0  0  0  0  0  0  0
   38.0310   30.1960   43.1360 C   0  0  0  0  0  3  0  0  0  0  0  0
   37.7420   30.7180   49.8030 O   0  0  0  0  0  0  0  0  0  0  0  0
   34.1720   28.9400   48.4650 C   0  0  0  0  0  0  0  0  0  0  0  0
   34.9070   28.3800   49.4680 C   0  0  0  0  0  0  0  0  0  0  0  0
   36.0810   28.8990   49.9600 C   0  0  0  0  0  0  0  0  0  0  0  0
   36.5880   30.0560   49.4390 C   0  0  0  0  0  0  0  0  0  0  0  0
   35.8450   30.6430   48.4090 C   0  0  0  0  0  0  0  0  0  0  0  0
   34.6930   30.0980   47.9550 N   0  0  0  0  0  0  0  0  0  0  0  0
   34.5630   27.4620   49.9250 H   0  0  0  0  0  0  0  0  0  0  0  0
   36.6580   28.4490   50.7550 H   0  0  0  0  0  0  0  0  0  0  0  0
   36.1280   31.5540   47.9100 H   0  0  0  0  0  0  0  0  0  0  0  0
   32.0690   27.6270   48.7020 C   0  0  0  0  0  0  0  0  0  0  0  0
   32.9530   28.4080   47.9410 C   0  0  0  0  0  0  0  0  0  0  0  0
   32.6010   28.6510   46.6350 C   0  0  0  0  0  0  0  0  0  0  0  0
   31.4360   28.1380   46.1350 N   0  0  0  0  0  0  0  0  0  0  0  0
   30.6150   27.3860   46.9190 C   0  0  0  0  0  0  0  0  0  0  0  0
   30.9210   27.1190   48.2200 N   0  0  0  0  0  0  0  0  0  0  0  0
   32.3030   27.4100   49.7360 H   0  0  0  0  0  0  0  0  0  0  0  0
   33.1910   29.2360   45.9430 H   0  0  0  0  0  0  0  0  0  0  0  0
   29.6860   26.9740   46.5260 H   0  0  0  0  0  0  0  0  0  0  0  0
  1  2  1  0  0  0  0
  1 26  1  0  0  0  0
  2  6  1  0  0  0  0
  3  7  1  0  0  0  0
  3  2  2  0  0  0  0
  4  5  1  0  0  0  0
  4  3  1  0  0  0  0
  5  1  2  0  0  0  0
  8  9  1  0  0  0  0
  8  4  1  0  0  0  0
 10  8  1  0  0  0  0
 11 12  1  0  0  0  0
 11  8  1  0  0  0  0
 13 11  1  0  0  0  0
 14 15  1  0  0  0  0
 15 11  1  0  0  0  0
 16 15  2  0  0  0  0
 16 17  1  0  0  0  0
 18 16  1  0  0  0  0
 19 18  1  0  0  0  0
 19 20  1  0  0  0  0
 21 19  1  0  0  0  0
 22 21  1  0  0  0  0
 23 21  2  0  0  0  0
 23 24  1  0  0  0  0
 24 25  1  0  0  0  0
 24 18  2  0  0  0  0
 25 14  2  0  0  0  0
 27 28  1  0  0  0  0
 28 33  1  0  0  0  0
 28 29  2  0  0  0  0
 29 34  1  0  0  0  0
 30 26  1  0  0  0  0
 30 29  1  0  0  0  0
 31 30  2  0  0  0  0
 32 31  1  0  0  0  0
 32 27  2  0  0  0  0
 35 31  1  0  0  0  0
 36 42  1  0  0  0  0
 37 27  1  0  0  0  0
 37 36  2  0  0  0  0
 38 37  1  0  0  0  0
 39 38  2  0  0  0  0
 39 40  1  0  0  0  0
 40 41  2  0  0  0  0
 41 36  1  0  0  0  0
 43 38  1  0  0  0  0
 44 40  1  0  0  0  0
M  END
>  <minimizedAffinity>
-6.79429626

>  <minimizedRMSD>
1.46155977

$$$$
