
 OpenBabel03272502363D

 39 42  0  0  1  0  0  0  0  0999 V2000
   36.5000   29.2830   30.8480 C   0  0  0  0  0  0  0  0  0  0  0  0
   37.1300   28.0820   31.1040 C   0  0  0  0  0  0  0  0  0  0  0  0
   37.1810   27.5040   32.3450 C   0  0  0  0  0  0  0  0  0  0  0  0
   36.5700   28.1780   33.3320 N   0  0  0  0  0  0  0  0  0  0  0  0
   35.9540   29.3370   33.1180 C   0  0  0  0  0  0  0  0  0  0  0  0
   35.9110   29.8950   31.8950 N   0  0  0  0  0  0  0  0  0  0  0  0
   36.4290   29.7760   29.9120 H   0  0  0  0  0  0  0  0  0  0  0  0
   37.5640   27.6840   30.1960 H   0  0  0  0  0  0  0  0  0  0  0  0
   36.0420   30.8260   35.0860 C   0  0  0  0  0  3  0  0  0  0  0  0
   35.3020   30.0340   34.2230 C   0  0  0  0  0  0  0  0  0  0  0  0
   33.9530   29.9420   34.4590 C   0  0  0  0  0  0  0  0  0  0  0  0
   33.4080   29.3110   33.7610 H   0  0  0  0  0  0  0  0  0  0  0  0
   33.3280   30.5990   35.5040 C   0  0  0  0  0  0  0  0  0  0  0  0
   32.0320   30.6110   35.8660 N   0  0  0  0  0  0  0  0  0  0  0  0
   31.2430   30.1060   35.4030 H   0  0  0  0  0  0  0  0  0  0  0  0
   31.9630   31.4120   36.9560 C   0  0  0  0  0  0  0  0  0  0  0  0
   31.0130   31.5950   37.4540 H   0  0  0  0  0  0  0  0  0  0  0  0
   33.2010   31.9080   37.2900 C   0  0  0  0  0  3  0  0  0  0  0  0
   34.0850   31.3820   36.3500 C   0  0  0  0  0  0  0  0  0  0  0  0
   35.4550   31.4960   36.1390 C   0  0  0  0  0  3  0  0  0  0  0  0
   37.8720   26.2500   32.5240 C   0  0  0  0  0  3  0  0  0  0  0  0
   37.4340   25.3190   33.3090 C   0  0  0  0  0  3  0  0  0  0  0  0
   38.2330   24.0510   33.4070 C   0  0  1  0  0  0  0  0  0  0  0  0
   39.1520   24.1370   32.8030 H   0  0  0  0  0  0  0  0  0  0  0  0
   38.5240   23.7580   34.8180 C   0  0  0  0  0  0  0  0  0  0  0  0
   37.9100   24.6730   35.7150 C   0  0  0  0  0  0  0  0  0  0  0  0
   38.0420   24.5970   37.0850 C   0  0  0  0  0  0  0  0  0  0  0  0
   38.8110   23.5810   37.6750 C   0  0  0  0  0  0  0  0  0  0  0  0
   39.3730   22.7340   36.7280 C   0  0  0  0  0  0  0  0  0  0  0  0
   39.2630   22.7820   35.3940 N   0  0  0  0  0  0  0  0  0  0  0  0
   37.2690   25.5390   35.5060 H   0  0  0  0  0  0  0  0  0  0  0  0
   37.6030   25.2590   37.8180 H   0  0  0  0  0  0  0  0  0  0  0  0
   39.0070   23.3890   38.7060 H   0  0  0  0  0  0  0  0  0  0  0  0
   40.0010   21.8910   37.0290 H   0  0  0  0  0  0  0  0  0  0  0  0
   37.1630   22.6930   32.8200 S   0  0  0  0  0  0  0  0  0  0  0  0
   36.2260   23.1870   31.3860 C   0  0  0  0  0  0  0  0  0  0  0  0
   35.1270   23.9730   31.6940 F   0  0  0  0  0  0  0  0  0  0  0  0
   37.0270   23.7830   30.4320 F   0  0  0  0  0  0  0  0  0  0  0  0
   35.7470   21.9980   30.7990 F   0  0  0  0  0  0  0  0  0  0  0  0
  1  2  2  0  0  0  0
  1  6  1  0  0  0  0
  2  3  1  0  0  0  0
  3 21  1  0  0  0  0
  3  4  2  0  0  0  0
  5  4  1  0  0  0  0
  5 10  1  0  0  0  0
  6  5  2  0  0  0  0
  7  1  1  0  0  0  0
  8  2  1  0  0  0  0
  9 20  1  0  0  0  0
 10 11  1  0  0  0  0
 10  9  2  0  0  0  0
 11 13  2  0  0  0  0
 12 11  1  0  0  0  0
 13 14  1  0  0  0  0
 13 19  1  0  0  0  0
 14 16  1  0  0  0  0
 15 14  1  0  0  0  0
 16 18  2  0  0  0  0
 16 17  1  0  0  0  0
 19 18  1  0  0  0  0
 20 19  2  0  0  0  0
 21 22  2  0  0  0  0
 22 23  1  0  0  0  0
 23 24  1  6  0  0  0
 23 25  1  0  0  0  0
 25 30  2  0  0  0  0
 25 26  1  0  0  0  0
 26 27  2  0  0  0  0
 27 28  1  0  0  0  0
 27 32  1  0  0  0  0
 28 33  1  0  0  0  0
 29 34  1  0  0  0  0
 29 28  2  0  0  0  0
 30 29  1  0  0  0  0
 31 26  1  0  0  0  0
 35 23  1  0  0  0  0
 36 37  1  0  0  0  0
 36 35  1  0  0  0  0
 38 36  1  0  0  0  0
 39 36  1  0  0  0  0
M  END
>  <minimizedAffinity>
-6.53071642

$$$$

 OpenBabel03272502363D

 39 42  0  0  1  0  0  0  0  0999 V2000
   36.1160   27.9820   31.0760 C   0  0  0  0  0  0  0  0  0  0  0  0
   37.1050   27.1590   31.5750 C   0  0  0  0  0  0  0  0  0  0  0  0
   37.4460   27.1040   32.9010 C   0  0  0  0  0  0  0  0  0  0  0  0
   36.7530   27.9120   33.7190 N   0  0  0  0  0  0  0  0  0  0  0  0
   35.7940   28.7160   33.2690 C   0  0  0  0  0  0  0  0  0  0  0  0
   35.4690   28.7620   31.9640 N   0  0  0  0  0  0  0  0  0  0  0  0
   35.8110   28.0660   30.0640 H   0  0  0  0  0  0  0  0  0  0  0  0
   37.5520   26.5820   30.7770 H   0  0  0  0  0  0  0  0  0  0  0  0
   33.6870   29.4990   34.2930 C   0  0  0  0  0  3  0  0  0  0  0  0
   35.0670   29.5780   34.1970 C   0  0  0  0  0  0  0  0  0  0  0  0
   35.7000   30.4910   35.0040 C   0  0  0  0  0  0  0  0  0  0  0  0
   36.7820   30.5230   34.8990 H   0  0  0  0  0  0  0  0  0  0  0  0
   35.0180   31.3110   35.8860 C   0  0  0  0  0  0  0  0  0  0  0  0
   35.4860   32.2460   36.7340 N   0  0  0  0  0  0  0  0  0  0  0  0
   36.4820   32.5250   36.8790 H   0  0  0  0  0  0  0  0  0  0  0  0
   34.3960   32.7500   37.3600 C   0  0  0  0  0  0  0  0  0  0  0  0
   34.4950   33.5340   38.1080 H   0  0  0  0  0  0  0  0  0  0  0  0
   33.2420   32.1460   36.9190 C   0  0  0  0  0  3  0  0  0  0  0  0
   33.6450   31.2150   35.9640 C   0  0  0  0  0  0  0  0  0  0  0  0
   32.9740   30.3000   35.1600 C   0  0  0  0  0  3  0  0  0  0  0  0
   38.5010   26.2210   33.3350 C   0  0  0  0  0  3  0  0  0  0  0  0
   38.2840   25.1970   34.0950 C   0  0  0  0  0  3  0  0  0  0  0  0
   39.4600   24.3420   34.4730 C   0  0  1  0  0  0  0  0  0  0  0  0
   40.3990   24.8860   34.2790 H   0  0  0  0  0  0  0  0  0  0  0  0
   39.3400   23.9300   35.8790 C   0  0  0  0  0  0  0  0  0  0  0  0
   38.2640   24.5640   36.5550 C   0  0  0  0  0  0  0  0  0  0  0  0
   37.9580   24.3330   37.8800 C   0  0  0  0  0  0  0  0  0  0  0  0
   38.7200   23.4340   38.6450 C   0  0  0  0  0  0  0  0  0  0  0  0
   39.7490   22.8620   37.9070 C   0  0  0  0  0  0  0  0  0  0  0  0
   40.0690   23.0650   36.6220 N   0  0  0  0  0  0  0  0  0  0  0  0
   37.5330   25.2930   36.1840 H   0  0  0  0  0  0  0  0  0  0  0  0
   37.1570   24.7820   38.4490 H   0  0  0  0  0  0  0  0  0  0  0  0
   38.6110   23.1520   39.6670 H   0  0  0  0  0  0  0  0  0  0  0  0
   40.4320   22.1390   38.3600 H   0  0  0  0  0  0  0  0  0  0  0  0
   39.3510   22.8090   33.4870 S   0  0  0  0  0  0  0  0  0  0  0  0
   37.7050   22.1260   33.5430 C   0  0  0  0  0  0  0  0  0  0  0  0
   37.2170   21.9750   34.8310 F   0  0  0  0  0  0  0  0  0  0  0  0
   36.8290   22.8370   32.7460 F   0  0  0  0  0  0  0  0  0  0  0  0
   37.7910   20.8410   32.9700 F   0  0  0  0  0  0  0  0  0  0  0  0
  1  2  2  0  0  0  0
  1  6  1  0  0  0  0
  2  3  1  0  0  0  0
  3 21  1  0  0  0  0
  3  4  2  0  0  0  0
  5  4  1  0  0  0  0
  5 10  1  0  0  0  0
  6  5  2  0  0  0  0
  7  1  1  0  0  0  0
  8  2  1  0  0  0  0
  9 20  1  0  0  0  0
 10  9  2  0  0  0  0
 10 11  1  0  0  0  0
 11 13  2  0  0  0  0
 12 11  1  0  0  0  0
 13 19  1  0  0  0  0
 13 14  1  0  0  0  0
 14 15  1  0  0  0  0
 14 16  1  0  0  0  0
 16 17  1  0  0  0  0
 18 16  2  0  0  0  0
 19 18  1  0  0  0  0
 20 19  2  0  0  0  0
 21 22  2  0  0  0  0
 22 23  1  0  0  0  0
 23 24  1  6  0  0  0
 23 25  1  0  0  0  0
 25 26  2  0  0  0  0
 25 30  1  0  0  0  0
 26 27  1  0  0  0  0
 27 32  1  0  0  0  0
 27 28  2  0  0  0  0
 28 33  1  0  0  0  0
 29 34  1  0  0  0  0
 29 28  1  0  0  0  0
 30 29  2  0  0  0  0
 31 26  1  0  0  0  0
 35 36  1  0  0  0  0
 35 23  1  0  0  0  0
 36 37  1  0  0  0  0
 38 36  1  0  0  0  0
 39 36  1  0  0  0  0
M  END
>  <minimizedAffinity>
-6.51167822

$$$$

 OpenBabel03272502363D

 39 42  0  0  1  0  0  0  0  0999 V2000
   36.6210   29.0100   30.6190 C   0  0  0  0  0  0  0  0  0  0  0  0
   37.2530   27.8230   30.9290 C   0  0  0  0  0  0  0  0  0  0  0  0
   37.2190   27.2490   32.1720 C   0  0  0  0  0  0  0  0  0  0  0  0
   36.5190   27.9130   33.1060 N   0  0  0  0  0  0  0  0  0  0  0  0
   35.8980   29.0580   32.8390 C   0  0  0  0  0  0  0  0  0  0  0  0
   35.9400   29.6130   31.6140 N   0  0  0  0  0  0  0  0  0  0  0  0
   36.6140   29.4990   29.6790 H   0  0  0  0  0  0  0  0  0  0  0  0
   37.7650   27.4320   30.0600 H   0  0  0  0  0  0  0  0  0  0  0  0
   33.7920   29.5120   34.0470 C   0  0  0  0  0  3  0  0  0  0  0  0
   35.1480   29.7450   33.8880 C   0  0  0  0  0  0  0  0  0  0  0  0
   35.7360   30.6370   34.7490 C   0  0  0  0  0  0  0  0  0  0  0  0
   36.8010   30.7930   34.5910 H   0  0  0  0  0  0  0  0  0  0  0  0
   35.0330   31.2920   35.7450 C   0  0  0  0  0  0  0  0  0  0  0  0
   35.4570   32.1850   36.6590 N   0  0  0  0  0  0  0  0  0  0  0  0
   36.4280   32.5520   36.7790 H   0  0  0  0  0  0  0  0  0  0  0  0
   34.3640   32.5090   37.3900 C   0  0  0  0  0  0  0  0  0  0  0  0
   34.4320   33.2230   38.2080 H   0  0  0  0  0  0  0  0  0  0  0  0
   33.2500   31.8320   36.9490 C   0  0  0  0  0  3  0  0  0  0  0  0
   33.6840   31.0450   35.8850 C   0  0  0  0  0  0  0  0  0  0  0  0
   33.0580   30.1460   35.0280 C   0  0  0  0  0  3  0  0  0  0  0  0
   37.9190   26.0100   32.4110 C   0  0  0  0  0  3  0  0  0  0  0  0
   37.5270   25.1470   33.2910 C   0  0  0  0  0  3  0  0  0  0  0  0
   38.3300   23.8860   33.4430 C   0  0  1  0  0  0  0  0  0  0  0  0
   39.2580   23.9580   32.8520 H   0  0  0  0  0  0  0  0  0  0  0  0
   38.5990   23.6400   34.8680 C   0  0  0  0  0  0  0  0  0  0  0  0
   37.9800   24.5910   35.7230 C   0  0  0  0  0  0  0  0  0  0  0  0
   38.0920   24.5610   37.0970 C   0  0  0  0  0  0  0  0  0  0  0  0
   38.8450   23.5610   37.7330 C   0  0  0  0  0  0  0  0  0  0  0  0
   39.4140   22.6770   36.8240 C   0  0  0  0  0  0  0  0  0  0  0  0
   39.3230   22.6800   35.4880 N   0  0  0  0  0  0  0  0  0  0  0  0
   37.3490   25.4530   35.4760 H   0  0  0  0  0  0  0  0  0  0  0  0
   37.6480   25.2520   37.8000 H   0  0  0  0  0  0  0  0  0  0  0  0
   39.0250   23.4040   38.7720 H   0  0  0  0  0  0  0  0  0  0  0  0
   40.0310   21.8410   37.1620 H   0  0  0  0  0  0  0  0  0  0  0  0
   37.2760   22.5050   32.8830 S   0  0  0  0  0  0  0  0  0  0  0  0
   36.3410   22.9560   31.4340 C   0  0  0  0  0  0  0  0  0  0  0  0
   35.2350   23.7410   31.7180 F   0  0  0  0  0  0  0  0  0  0  0  0
   37.1420   23.5350   30.4680 F   0  0  0  0  0  0  0  0  0  0  0  0
   35.8730   21.7500   30.8750 F   0  0  0  0  0  0  0  0  0  0  0  0
  1  2  2  0  0  0  0
  1  6  1  0  0  0  0
  2  3  1  0  0  0  0
  3 21  1  0  0  0  0
  3  4  2  0  0  0  0
  5  4  1  0  0  0  0
  5 10  1  0  0  0  0
  6  5  2  0  0  0  0
  7  1  1  0  0  0  0
  8  2  1  0  0  0  0
  9 20  1  0  0  0  0
 10  9  2  0  0  0  0
 10 11  1  0  0  0  0
 11 13  2  0  0  0  0
 12 11  1  0  0  0  0
 13 19  1  0  0  0  0
 13 14  1  0  0  0  0
 14 15  1  0  0  0  0
 14 16  1  0  0  0  0
 16 17  1  0  0  0  0
 18 16  2  0  0  0  0
 19 18  1  0  0  0  0
 20 19  2  0  0  0  0
 21 22  2  0  0  0  0
 22 23  1  0  0  0  0
 23 24  1  6  0  0  0
 23 25  1  0  0  0  0
 25 30  2  0  0  0  0
 25 26  1  0  0  0  0
 26 27  2  0  0  0  0
 27 28  1  0  0  0  0
 27 32  1  0  0  0  0
 28 33  1  0  0  0  0
 29 34  1  0  0  0  0
 29 28  2  0  0  0  0
 30 29  1  0  0  0  0
 31 26  1  0  0  0  0
 35 23  1  0  0  0  0
 36 37  1  0  0  0  0
 36 35  1  0  0  0  0
 38 36  1  0  0  0  0
 39 36  1  0  0  0  0
M  END
>  <minimizedAffinity>
-6.49211693

$$$$

 OpenBabel03272502363D

 39 42  0  0  1  0  0  0  0  0999 V2000
   38.2570   27.4940   31.4790 C   0  0  0  0  0  0  0  0  0  0  0  0
   37.1880   28.3140   31.7760 C   0  0  0  0  0  0  0  0  0  0  0  0
   36.5080   28.2720   32.9650 C   0  0  0  0  0  0  0  0  0  0  0  0
   36.9440   27.3690   33.8570 N   0  0  0  0  0  0  0  0  0  0  0  0
   37.9720   26.5650   33.6020 C   0  0  0  0  0  0  0  0  0  0  0  0
   38.6300   26.6150   32.4300 N   0  0  0  0  0  0  0  0  0  0  0  0
   38.8180   27.4820   30.5790 H   0  0  0  0  0  0  0  0  0  0  0  0
   36.9790   28.9750   30.9450 H   0  0  0  0  0  0  0  0  0  0  0  0
   39.4210   24.6950   34.3140 C   0  0  0  0  0  3  0  0  0  0  0  0
   38.4100   25.5970   34.6050 C   0  0  0  0  0  0  0  0  0  0  0  0
   37.8540   25.5330   35.8580 C   0  0  0  0  0  0  0  0  0  0  0  0
   37.0650   26.2570   36.0470 H   0  0  0  0  0  0  0  0  0  0  0  0
   38.2640   24.6200   36.8140 C   0  0  0  0  0  0  0  0  0  0  0  0
   37.8260   24.4310   38.0730 N   0  0  0  0  0  0  0  0  0  0  0  0
   37.0720   24.9620   38.5650 H   0  0  0  0  0  0  0  0  0  0  0  0
   38.5650   23.4100   38.5690 C   0  0  0  0  0  0  0  0  0  0  0  0
   38.4100   23.0520   39.5840 H   0  0  0  0  0  0  0  0  0  0  0  0
   39.4670   22.9490   37.6380 C   0  0  0  0  0  3  0  0  0  0  0  0
   39.2710   23.7320   36.5030 C   0  0  0  0  0  0  0  0  0  0  0  0
   39.8550   23.7710   35.2410 C   0  0  0  0  0  3  0  0  0  0  0  0
   35.3940   29.1610   33.1860 C   0  0  0  0  0  3  0  0  0  0  0  0
   34.8720   29.3460   34.3560 C   0  0  0  0  0  3  0  0  0  0  0  0
   33.7210   30.3050   34.4660 C   0  0  1  0  0  0  0  0  0  0  0  0
   33.5560   30.8090   33.4990 H   0  0  0  0  0  0  0  0  0  0  0  0
   32.5230   29.5870   34.9270 C   0  0  0  0  0  0  0  0  0  0  0  0
   32.2590   29.7730   36.3100 C   0  0  0  0  0  0  0  0  0  0  0  0
   31.1900   29.1970   36.9630 C   0  0  0  0  0  0  0  0  0  0  0  0
   30.2860   28.3750   36.2710 C   0  0  0  0  0  0  0  0  0  0  0  0
   30.6190   28.2470   34.9280 C   0  0  0  0  0  0  0  0  0  0  0  0
   31.6470   28.7940   34.2660 N   0  0  0  0  0  0  0  0  0  0  0  0
   32.8070   30.3610   37.0570 H   0  0  0  0  0  0  0  0  0  0  0  0
   30.9360   29.2990   38.0090 H   0  0  0  0  0  0  0  0  0  0  0  0
   29.4220   27.8640   36.6290 H   0  0  0  0  0  0  0  0  0  0  0  0
   30.0120   27.6390   34.2530 H   0  0  0  0  0  0  0  0  0  0  0  0
   34.1340   31.4940   35.7880 S   0  0  0  0  0  0  0  0  0  0  0  0
   35.7650   32.1740   35.5530 C   0  0  0  0  0  0  0  0  0  0  0  0
   36.1060   32.3340   34.2190 F   0  0  0  0  0  0  0  0  0  0  0  0
   35.9390   33.3450   36.2660 F   0  0  0  0  0  0  0  0  0  0  0  0
   36.6650   31.2450   36.1120 F   0  0  0  0  0  0  0  0  0  0  0  0
  1  2  2  0  0  0  0
  1  6  1  0  0  0  0
  2  3  1  0  0  0  0
  3 21  1  0  0  0  0
  3  4  2  0  0  0  0
  5  4  1  0  0  0  0
  5 10  1  0  0  0  0
  6  5  2  0  0  0  0
  7  1  1  0  0  0  0
  8  2  1  0  0  0  0
  9 10  2  0  0  0  0
  9 20  1  0  0  0  0
 10 11  1  0  0  0  0
 11 12  1  0  0  0  0
 11 13  2  0  0  0  0
 13 14  1  0  0  0  0
 14 15  1  0  0  0  0
 14 16  1  0  0  0  0
 16 17  1  0  0  0  0
 18 16  2  0  0  0  0
 19 13  1  0  0  0  0
 19 18  1  0  0  0  0
 20 19  2  0  0  0  0
 21 22  2  0  0  0  0
 22 23  1  0  0  0  0
 23 24  1  6  0  0  0
 23 25  1  0  0  0  0
 23 35  1  0  0  0  0
 25 26  1  0  0  0  0
 26 27  2  0  0  0  0
 26 31  1  0  0  0  0
 27 32  1  0  0  0  0
 28 33  1  0  0  0  0
 28 27  1  0  0  0  0
 29 28  2  0  0  0  0
 30 25  2  0  0  0  0
 30 29  1  0  0  0  0
 34 29  1  0  0  0  0
 36 35  1  0  0  0  0
 36 39  1  0  0  0  0
 36 38  1  0  0  0  0
 37 36  1  0  0  0  0
M  END
>  <minimizedAffinity>
-6.4572444

$$$$

 OpenBabel03272502363D

 39 42  0  0  1  0  0  0  0  0999 V2000
   37.2390   26.1570   32.1890 C   0  0  0  0  0  0  0  0  0  0  0  0
   36.7280   27.3320   32.7000 C   0  0  0  0  0  0  0  0  0  0  0  0
   36.8090   27.6810   34.0230 C   0  0  0  0  0  0  0  0  0  0  0  0
   37.4290   26.8010   34.8250 N   0  0  0  0  0  0  0  0  0  0  0  0
   37.9320   25.6600   34.3630 C   0  0  0  0  0  0  0  0  0  0  0  0
   37.8460   25.3280   33.0620 N   0  0  0  0  0  0  0  0  0  0  0  0
   37.2060   25.8360   31.1790 H   0  0  0  0  0  0  0  0  0  0  0  0
   36.2680   27.9160   31.9140 H   0  0  0  0  0  0  0  0  0  0  0  0
   38.0620   24.4710   36.5240 C   0  0  0  0  0  3  0  0  0  0  0  0
   38.5980   24.7320   35.2740 C   0  0  0  0  0  0  0  0  0  0  0  0
   39.7640   24.0870   34.9450 C   0  0  0  0  0  0  0  0  0  0  0  0
   40.1520   24.3190   33.9560 H   0  0  0  0  0  0  0  0  0  0  0  0
   40.4010   23.2070   35.8020 C   0  0  0  0  0  0  0  0  0  0  0  0
   41.5360   22.5030   35.6310 N   0  0  0  0  0  0  0  0  0  0  0  0
   42.1550   22.4990   34.7900 H   0  0  0  0  0  0  0  0  0  0  0  0
   41.7070   21.8010   36.7770 C   0  0  0  0  0  0  0  0  0  0  0  0
   42.5630   21.1410   36.9030 H   0  0  0  0  0  0  0  0  0  0  0  0
   40.6950   22.0530   37.6730 C   0  0  0  0  0  3  0  0  0  0  0  0
   39.8500   22.9620   37.0410 C   0  0  0  0  0  0  0  0  0  0  0  0
   38.6680   23.6010   37.4060 C   0  0  0  0  0  3  0  0  0  0  0  0
   36.2360   28.9260   34.4730 C   0  0  0  0  0  3  0  0  0  0  0  0
   35.1460   29.4130   33.9730 C   0  0  0  0  0  3  0  0  0  0  0  0
   34.6380   30.7120   34.5300 C   0  0  1  0  0  0  0  0  0  0  0  0
   34.3820   31.4000   33.7070 H   0  0  0  0  0  0  0  0  0  0  0  0
   33.4920   30.4560   35.4150 C   0  0  0  0  0  0  0  0  0  0  0  0
   32.6880   29.3670   34.9840 C   0  0  0  0  0  0  0  0  0  0  0  0
   31.5610   28.9440   35.6550 C   0  0  0  0  0  0  0  0  0  0  0  0
   31.1430   29.5880   36.8310 C   0  0  0  0  0  0  0  0  0  0  0  0
   31.9830   30.6380   37.1780 C   0  0  0  0  0  0  0  0  0  0  0  0
   33.0830   31.0720   36.5480 N   0  0  0  0  0  0  0  0  0  0  0  0
   32.8020   28.7120   34.1110 H   0  0  0  0  0  0  0  0  0  0  0  0
   30.9100   28.1260   35.3800 H   0  0  0  0  0  0  0  0  0  0  0  0
   30.3040   29.3820   37.4560 H   0  0  0  0  0  0  0  0  0  0  0  0
   31.7930   31.2400   38.0710 H   0  0  0  0  0  0  0  0  0  0  0  0
   35.9550   31.3930   35.5950 S   0  0  0  0  0  0  0  0  0  0  0  0
   36.4280   33.0290   35.0660 C   0  0  0  0  0  0  0  0  0  0  0  0
   35.4200   33.9670   35.2170 F   0  0  0  0  0  0  0  0  0  0  0  0
   37.6020   33.4410   35.6680 F   0  0  0  0  0  0  0  0  0  0  0  0
   36.7150   32.9310   33.6900 F   0  0  0  0  0  0  0  0  0  0  0  0
  1  2  2  0  0  0  0
  1  6  1  0  0  0  0
  2  3  1  0  0  0  0
  3 21  1  0  0  0  0
  3  4  2  0  0  0  0
  5  4  1  0  0  0  0
  5 10  1  0  0  0  0
  6  5  2  0  0  0  0
  7  1  1  0  0  0  0
  8  2  1  0  0  0  0
  9 20  1  0  0  0  0
 10  9  2  0  0  0  0
 11 10  1  0  0  0  0
 11 13  2  0  0  0  0
 12 11  1  0  0  0  0
 13 19  1  0  0  0  0
 14 13  1  0  0  0  0
 14 16  1  0  0  0  0
 15 14  1  0  0  0  0
 16 17  1  0  0  0  0
 16 18  2  0  0  0  0
 19 20  2  0  0  0  0
 19 18  1  0  0  0  0
 22 21  2  0  0  0  0
 22 23  1  0  0  0  0
 23 24  1  6  0  0  0
 23 25  1  0  0  0  0
 23 35  1  0  0  0  0
 25 30  1  0  0  0  0
 26 25  2  0  0  0  0
 26 27  1  0  0  0  0
 27 28  2  0  0  0  0
 28 29  1  0  0  0  0
 28 33  1  0  0  0  0
 29 34  1  0  0  0  0
 30 29  2  0  0  0  0
 31 26  1  0  0  0  0
 32 27  1  0  0  0  0
 36 37  1  0  0  0  0
 36 35  1  0  0  0  0
 36 38  1  0  0  0  0
 39 36  1  0  0  0  0
M  END
>  <minimizedAffinity>
-6.27482796

$$$$

 OpenBabel03272502363D

 39 42  0  0  1  0  0  0  0  0999 V2000
   37.9550   26.1310   31.5150 C   0  0  0  0  0  0  0  0  0  0  0  0
   37.1640   27.2360   31.7530 C   0  0  0  0  0  0  0  0  0  0  0  0
   36.7710   27.6310   33.0040 C   0  0  0  0  0  0  0  0  0  0  0  0
   37.2050   26.8710   34.0220 N   0  0  0  0  0  0  0  0  0  0  0  0
   37.9690   25.8000   33.8270 C   0  0  0  0  0  0  0  0  0  0  0  0
   38.3480   25.4220   32.5920 N   0  0  0  0  0  0  0  0  0  0  0  0
   38.2890   25.7790   30.5720 H   0  0  0  0  0  0  0  0  0  0  0  0
   36.9120   27.7250   30.8210 H   0  0  0  0  0  0  0  0  0  0  0  0
   37.7970   25.1310   36.1980 C   0  0  0  0  0  3  0  0  0  0  0  0
   38.4170   25.0030   34.9660 C   0  0  0  0  0  0  0  0  0  0  0  0
   39.4530   24.1070   34.8760 C   0  0  0  0  0  0  0  0  0  0  0  0
   39.9130   24.0370   33.8930 H   0  0  0  0  0  0  0  0  0  0  0  0
   39.8840   23.3490   35.9500 C   0  0  0  0  0  0  0  0  0  0  0  0
   40.8720   22.4390   36.0240 N   0  0  0  0  0  0  0  0  0  0  0  0
   41.5100   22.1360   35.2540 H   0  0  0  0  0  0  0  0  0  0  0  0
   40.8690   21.9980   37.3050 C   0  0  0  0  0  0  0  0  0  0  0  0
   41.5810   21.2450   37.6370 H   0  0  0  0  0  0  0  0  0  0  0  0
   39.8890   22.6180   38.0440 C   0  0  0  0  0  3  0  0  0  0  0  0
   39.2520   23.4930   37.1670 C   0  0  0  0  0  0  0  0  0  0  0  0
   38.1980   24.3930   37.2920 C   0  0  0  0  0  3  0  0  0  0  0  0
   35.9320   28.7950   33.1600 C   0  0  0  0  0  3  0  0  0  0  0  0
   35.6820   29.3240   34.3140 C   0  0  0  0  0  3  0  0  0  0  0  0
   34.8030   30.5420   34.3500 C   0  0  1  0  0  0  0  0  0  0  0  0
   34.2490   30.5780   35.3030 H   0  0  0  0  0  0  0  0  0  0  0  0
   35.6200   31.7460   34.1400 C   0  0  0  0  0  0  0  0  0  0  0  0
   36.1360   32.2880   35.3480 C   0  0  0  0  0  0  0  0  0  0  0  0
   36.9280   33.4150   35.3970 C   0  0  0  0  0  0  0  0  0  0  0  0
   37.2720   34.1010   34.2210 C   0  0  0  0  0  0  0  0  0  0  0  0
   36.7280   33.5050   33.0900 C   0  0  0  0  0  0  0  0  0  0  0  0
   35.9570   32.4120   33.0110 N   0  0  0  0  0  0  0  0  0  0  0  0
   36.0130   31.9420   36.3820 H   0  0  0  0  0  0  0  0  0  0  0  0
   37.3490   33.8760   36.2800 H   0  0  0  0  0  0  0  0  0  0  0  0
   37.8690   34.9750   34.0940 H   0  0  0  0  0  0  0  0  0  0  0  0
   36.9040   33.9190   32.0940 H   0  0  0  0  0  0  0  0  0  0  0  0
   33.6790   30.4390   32.9160 S   0  0  0  0  0  0  0  0  0  0  0  0
   32.2460   29.4480   33.2930 C   0  0  0  0  0  0  0  0  0  0  0  0
   31.0500   30.1220   33.1100 F   0  0  0  0  0  0  0  0  0  0  0  0
   32.2620   28.2460   32.6120 F   0  0  0  0  0  0  0  0  0  0  0  0
   32.3420   29.1180   34.6600 F   0  0  0  0  0  0  0  0  0  0  0  0
  1  2  2  0  0  0  0
  1  6  1  0  0  0  0
  2  3  1  0  0  0  0
  3 21  1  0  0  0  0
  3  4  2  0  0  0  0
  5  4  1  0  0  0  0
  5 10  1  0  0  0  0
  6  5  2  0  0  0  0
  7  1  1  0  0  0  0
  8  2  1  0  0  0  0
  9 20  1  0  0  0  0
 10  9  2  0  0  0  0
 11 10  1  0  0  0  0
 11 13  2  0  0  0  0
 12 11  1  0  0  0  0
 13 14  1  0  0  0  0
 13 19  1  0  0  0  0
 14 16  1  0  0  0  0
 15 14  1  0  0  0  0
 16 17  1  0  0  0  0
 16 18  2  0  0  0  0
 19 20  2  0  0  0  0
 19 18  1  0  0  0  0
 21 22  2  0  0  0  0
 22 23  1  0  0  0  0
 23 24  1  1  0  0  0
 25 23  1  0  0  0  0
 25 26  1  0  0  0  0
 26 27  2  0  0  0  0
 26 31  1  0  0  0  0
 27 32  1  0  0  0  0
 28 27  1  0  0  0  0
 29 28  2  0  0  0  0
 30 29  1  0  0  0  0
 30 25  2  0  0  0  0
 33 28  1  0  0  0  0
 34 29  1  0  0  0  0
 35 36  1  0  0  0  0
 35 23  1  0  0  0  0
 36 39  1  0  0  0  0
 37 36  1  0  0  0  0
 38 36  1  0  0  0  0
M  END
>  <minimizedAffinity>
-6.13908672

$$$$

 OpenBabel03272502363D

 39 42  0  0  1  0  0  0  0  0999 V2000
   37.8250   27.8990   31.6030 C   0  0  0  0  0  0  0  0  0  0  0  0
   36.7540   28.6610   32.0210 C   0  0  0  0  0  0  0  0  0  0  0  0
   36.1530   28.5170   33.2440 C   0  0  0  0  0  0  0  0  0  0  0  0
   36.6710   27.5710   34.0440 N   0  0  0  0  0  0  0  0  0  0  0  0
   37.7030   26.8200   33.6710 C   0  0  0  0  0  0  0  0  0  0  0  0
   38.2840   26.9700   32.4660 N   0  0  0  0  0  0  0  0  0  0  0  0
   38.3280   27.9660   30.6720 H   0  0  0  0  0  0  0  0  0  0  0  0
   36.4730   29.3680   31.2520 H   0  0  0  0  0  0  0  0  0  0  0  0
   39.2500   24.9580   34.1620 C   0  0  0  0  0  3  0  0  0  0  0  0
   38.2320   25.8030   34.5750 C   0  0  0  0  0  0  0  0  0  0  0  0
   37.7590   25.6350   35.8520 C   0  0  0  0  0  0  0  0  0  0  0  0
   36.9610   26.3170   36.1380 H   0  0  0  0  0  0  0  0  0  0  0  0
   38.2540   24.6740   36.7160 C   0  0  0  0  0  0  0  0  0  0  0  0
   37.9020   24.3850   37.9820 N   0  0  0  0  0  0  0  0  0  0  0  0
   37.1650   24.8550   38.5550 H   0  0  0  0  0  0  0  0  0  0  0  0
   38.7020   23.3590   38.3600 C   0  0  0  0  0  0  0  0  0  0  0  0
   38.6210   22.9270   39.3560 H   0  0  0  0  0  0  0  0  0  0  0  0
   39.5570   22.9930   37.3470 C   0  0  0  0  0  3  0  0  0  0  0  0
   39.2670   23.8440   36.2830 C   0  0  0  0  0  0  0  0  0  0  0  0
   39.7690   23.9880   34.9940 C   0  0  0  0  0  3  0  0  0  0  0  0
   35.0300   29.3510   33.5940 C   0  0  0  0  0  3  0  0  0  0  0  0
   34.7190   29.6220   34.8210 C   0  0  0  0  0  3  0  0  0  0  0  0
   33.5330   30.5120   35.0640 C   0  0  1  0  0  0  0  0  0  0  0  0
   32.8930   30.0790   35.8500 H   0  0  0  0  0  0  0  0  0  0  0  0
   33.9940   31.8650   35.4080 C   0  0  0  0  0  0  0  0  0  0  0  0
   34.0140   32.1080   36.8080 C   0  0  0  0  0  0  0  0  0  0  0  0
   34.4090   33.3050   37.3650 C   0  0  0  0  0  0  0  0  0  0  0  0
   34.8220   34.3730   36.5510 C   0  0  0  0  0  0  0  0  0  0  0  0
   34.7710   34.0500   35.2000 C   0  0  0  0  0  0  0  0  0  0  0  0
   34.3930   32.8980   34.6300 N   0  0  0  0  0  0  0  0  0  0  0  0
   33.7440   31.4460   37.6400 H   0  0  0  0  0  0  0  0  0  0  0  0
   34.4470   33.5520   38.4160 H   0  0  0  0  0  0  0  0  0  0  0  0
   35.1530   35.3480   36.8260 H   0  0  0  0  0  0  0  0  0  0  0  0
   35.0620   34.7760   34.4360 H   0  0  0  0  0  0  0  0  0  0  0  0
   32.6450   30.6700   33.4770 S   0  0  0  0  0  0  0  0  0  0  0  0
   31.3310   29.4710   33.3540 C   0  0  0  0  0  0  0  0  0  0  0  0
   30.1900   29.9690   32.7470 F   0  0  0  0  0  0  0  0  0  0  0  0
   31.7600   28.3040   32.7520 F   0  0  0  0  0  0  0  0  0  0  0  0
   30.9910   29.1200   34.6760 F   0  0  0  0  0  0  0  0  0  0  0  0
  1  2  2  0  0  0  0
  1  6  1  0  0  0  0
  2  3  1  0  0  0  0
  3 21  1  0  0  0  0
  3  4  2  0  0  0  0
  5  4  1  0  0  0  0
  5 10  1  0  0  0  0
  6  5  2  0  0  0  0
  7  1  1  0  0  0  0
  8  2  1  0  0  0  0
  9 10  2  0  0  0  0
  9 20  1  0  0  0  0
 10 11  1  0  0  0  0
 11 12  1  0  0  0  0
 11 13  2  0  0  0  0
 13 14  1  0  0  0  0
 14 16  1  0  0  0  0
 14 15  1  0  0  0  0
 16 17  1  0  0  0  0
 18 16  2  0  0  0  0
 19 13  1  0  0  0  0
 19 18  1  0  0  0  0
 20 19  2  0  0  0  0
 21 22  2  0  0  0  0
 22 23  1  0  0  0  0
 23 25  1  0  0  0  0
 23 24  1  1  0  0  0
 25 26  1  0  0  0  0
 26 27  2  0  0  0  0
 26 31  1  0  0  0  0
 27 32  1  0  0  0  0
 28 33  1  0  0  0  0
 28 27  1  0  0  0  0
 29 28  2  0  0  0  0
 30 29  1  0  0  0  0
 30 25  2  0  0  0  0
 34 29  1  0  0  0  0
 35 23  1  0  0  0  0
 36 35  1  0  0  0  0
 36 39  1  0  0  0  0
 37 36  1  0  0  0  0
 38 36  1  0  0  0  0
M  END
>  <minimizedAffinity>
-6.04176664

$$$$

 OpenBabel03272502363D

 39 42  0  0  1  0  0  0  0  0999 V2000
   37.4170   26.2490   31.8770 C   0  0  0  0  0  0  0  0  0  0  0  0
   36.7890   27.2590   32.5770 C   0  0  0  0  0  0  0  0  0  0  0  0
   37.0070   27.5090   33.9060 C   0  0  0  0  0  0  0  0  0  0  0  0
   37.8880   26.7010   34.5170 N   0  0  0  0  0  0  0  0  0  0  0  0
   38.5100   25.7190   33.8710 C   0  0  0  0  0  0  0  0  0  0  0  0
   38.2860   25.4830   32.5660 N   0  0  0  0  0  0  0  0  0  0  0  0
   37.2870   26.0110   30.8520 H   0  0  0  0  0  0  0  0  0  0  0  0
   36.1180   27.8060   31.9270 H   0  0  0  0  0  0  0  0  0  0  0  0
   40.8050   24.8830   34.2420 C   0  0  0  0  0  3  0  0  0  0  0  0
   39.4610   24.8650   34.5790 C   0  0  0  0  0  0  0  0  0  0  0  0
   39.0800   24.0190   35.5900 C   0  0  0  0  0  0  0  0  0  0  0  0
   38.0180   24.0340   35.8240 H   0  0  0  0  0  0  0  0  0  0  0  0
   39.9740   23.2070   36.2650 C   0  0  0  0  0  0  0  0  0  0  0  0
   39.7620   22.3340   37.2670 N   0  0  0  0  0  0  0  0  0  0  0  0
   38.8510   22.1090   37.7260 H   0  0  0  0  0  0  0  0  0  0  0  0
   40.9760   21.8070   37.5560 C   0  0  0  0  0  0  0  0  0  0  0  0
   41.0870   21.0620   38.3420 H   0  0  0  0  0  0  0  0  0  0  0  0
   41.9550   22.3350   36.7490 C   0  0  0  0  0  3  0  0  0  0  0  0
   41.3070   23.2420   35.9130 C   0  0  0  0  0  0  0  0  0  0  0  0
   41.7260   24.0880   34.8920 C   0  0  0  0  0  3  0  0  0  0  0  0
   36.2980   28.5800   34.5610 C   0  0  0  0  0  3  0  0  0  0  0  0
   35.6240   29.4710   33.9080 C   0  0  0  0  0  3  0  0  0  0  0  0
   34.9160   30.5340   34.6990 C   0  0  1  0  0  0  0  0  0  0  0  0
   34.7300   30.1790   35.7250 H   0  0  0  0  0  0  0  0  0  0  0  0
   35.7060   31.7750   34.6770 C   0  0  0  0  0  0  0  0  0  0  0  0
   35.9990   32.2250   33.3610 C   0  0  0  0  0  0  0  0  0  0  0  0
   36.7270   33.3650   33.0950 C   0  0  0  0  0  0  0  0  0  0  0  0
   37.2260   34.1580   34.1410 C   0  0  0  0  0  0  0  0  0  0  0  0
   36.8950   33.6450   35.3890 C   0  0  0  0  0  0  0  0  0  0  0  0
   36.1900   32.5430   35.6800 N   0  0  0  0  0  0  0  0  0  0  0  0
   35.7250   31.7900   32.3920 H   0  0  0  0  0  0  0  0  0  0  0  0
   36.9830   33.7600   32.1220 H   0  0  0  0  0  0  0  0  0  0  0  0
   37.7990   35.0560   34.0980 H   0  0  0  0  0  0  0  0  0  0  0  0
   37.2100   34.1480   36.3070 H   0  0  0  0  0  0  0  0  0  0  0  0
   33.3600   30.9120   33.8220 S   0  0  0  0  0  0  0  0  0  0  0  0
   32.2340   29.5310   33.8860 C   0  0  0  0  0  0  0  0  0  0  0  0
   32.3360   28.7960   35.0560 F   0  0  0  0  0  0  0  0  0  0  0  0
   30.9320   29.9220   33.6410 F   0  0  0  0  0  0  0  0  0  0  0  0
   32.5890   28.6820   32.8180 F   0  0  0  0  0  0  0  0  0  0  0  0
  1  6  2  0  0  0  0
  1  2  1  0  0  0  0
  2  3  2  0  0  0  0
  3  4  1  0  0  0  0
  3 21  1  0  0  0  0
  5  4  2  0  0  0  0
  5 10  1  0  0  0  0
  6  5  1  0  0  0  0
  7  1  1  0  0  0  0
  8  2  1  0  0  0  0
  9 10  2  0  0  0  0
  9 20  1  0  0  0  0
 10 11  1  0  0  0  0
 11 12  1  0  0  0  0
 11 13  2  0  0  0  0
 13 14  1  0  0  0  0
 14 16  1  0  0  0  0
 14 15  1  0  0  0  0
 16 17  1  0  0  0  0
 18 16  2  0  0  0  0
 19 13  1  0  0  0  0
 19 18  1  0  0  0  0
 20 19  2  0  0  0  0
 22 21  2  0  0  0  0
 22 23  1  0  0  0  0
 23 24  1  1  0  0  0
 25 23  1  0  0  0  0
 25 30  1  0  0  0  0
 26 25  2  0  0  0  0
 27 26  1  0  0  0  0
 27 28  2  0  0  0  0
 28 29  1  0  0  0  0
 29 30  2  0  0  0  0
 29 34  1  0  0  0  0
 31 26  1  0  0  0  0
 32 27  1  0  0  0  0
 33 28  1  0  0  0  0
 35 36  1  0  0  0  0
 35 23  1  0  0  0  0
 36 37  1  0  0  0  0
 38 36  1  0  0  0  0
 39 36  1  0  0  0  0
M  END
>  <minimizedAffinity>
-5.94999933

$$$$

 OpenBabel03272502363D

 39 42  0  0  1  0  0  0  0  0999 V2000
   39.3670   25.7790   30.1140 C   0  0  0  0  0  0  0  0  0  0  0  0
   39.3780   24.7530   31.0370 C   0  0  0  0  0  0  0  0  0  0  0  0
   38.6480   24.7700   32.1970 C   0  0  0  0  0  0  0  0  0  0  0  0
   37.8970   25.8630   32.4010 N   0  0  0  0  0  0  0  0  0  0  0  0
   37.8640   26.8680   31.5310 C   0  0  0  0  0  0  0  0  0  0  0  0
   38.5860   26.8410   30.3960 N   0  0  0  0  0  0  0  0  0  0  0  0
   39.9090   25.8210   29.2040 H   0  0  0  0  0  0  0  0  0  0  0  0
   40.0350   23.9590   30.7080 H   0  0  0  0  0  0  0  0  0  0  0  0
   36.5040   28.2520   33.0600 C   0  0  0  0  0  3  0  0  0  0  0  0
   37.0300   28.0380   31.7960 C   0  0  0  0  0  0  0  0  0  0  0  0
   36.7330   28.9650   30.8290 C   0  0  0  0  0  0  0  0  0  0  0  0
   37.1650   28.7610   29.8510 H   0  0  0  0  0  0  0  0  0  0  0  0
   35.9440   30.0760   31.0720 C   0  0  0  0  0  0  0  0  0  0  0  0
   35.5640   31.0650   30.2410 N   0  0  0  0  0  0  0  0  0  0  0  0
   35.8080   31.1680   29.2300 H   0  0  0  0  0  0  0  0  0  0  0  0
   34.8000   31.8970   30.9880 C   0  0  0  0  0  0  0  0  0  0  0  0
   34.3590   32.7910   30.5510 H   0  0  0  0  0  0  0  0  0  0  0  0
   34.6890   31.4460   32.2830 C   0  0  0  0  0  3  0  0  0  0  0  0
   35.4310   30.2680   32.3360 C   0  0  0  0  0  0  0  0  0  0  0  0
   35.7130   29.3470   33.3400 C   0  0  0  0  0  3  0  0  0  0  0  0
   38.7290   23.6570   33.1110 C   0  0  0  0  0  3  0  0  0  0  0  0
   37.6960   23.1950   33.7390 C   0  0  0  0  0  3  0  0  0  0  0  0
   37.8990   22.0240   34.6580 C   0  0  1  0  0  0  0  0  0  0  0  0
   38.7050   21.3780   34.2720 H   0  0  0  0  0  0  0  0  0  0  0  0
   38.1810   22.5070   36.0180 C   0  0  0  0  0  0  0  0  0  0  0  0
   39.5360   22.3220   36.4050 C   0  0  0  0  0  0  0  0  0  0  0  0
   40.0310   22.6980   37.6350 C   0  0  0  0  0  0  0  0  0  0  0  0
   39.1950   23.2990   38.5910 C   0  0  0  0  0  0  0  0  0  0  0  0
   37.8920   23.4400   38.1310 C   0  0  0  0  0  0  0  0  0  0  0  0
   37.3820   23.0870   36.9440 N   0  0  0  0  0  0  0  0  0  0  0  0
   40.3730   21.8850   35.8470 H   0  0  0  0  0  0  0  0  0  0  0  0
   41.0460   22.5850   37.9890 H   0  0  0  0  0  0  0  0  0  0  0  0
   39.4250   23.6410   39.5740 H   0  0  0  0  0  0  0  0  0  0  0  0
   37.1190   23.8920   38.7580 H   0  0  0  0  0  0  0  0  0  0  0  0
   36.3080   21.1350   34.7590 S   0  0  0  0  0  0  0  0  0  0  0  0
   35.8760   20.4110   33.1880 C   0  0  0  0  0  0  0  0  0  0  0  0
   35.2470   19.1820   33.3060 F   0  0  0  0  0  0  0  0  0  0  0  0
   35.1450   21.2850   32.4060 F   0  0  0  0  0  0  0  0  0  0  0  0
   37.0890   20.2030   32.5020 F   0  0  0  0  0  0  0  0  0  0  0  0
  1  6  2  0  0  0  0
  1  2  1  0  0  0  0
  2  3  2  0  0  0  0
  3  4  1  0  0  0  0
  3 21  1  0  0  0  0
  5 10  1  0  0  0  0
  5  4  2  0  0  0  0
  6  5  1  0  0  0  0
  7  1  1  0  0  0  0
  8  2  1  0  0  0  0
  9 20  1  0  0  0  0
 10  9  2  0  0  0  0
 11 13  2  0  0  0  0
 11 10  1  0  0  0  0
 12 11  1  0  0  0  0
 13 19  1  0  0  0  0
 14 16  1  0  0  0  0
 14 13  1  0  0  0  0
 15 14  1  0  0  0  0
 16 18  2  0  0  0  0
 17 16  1  0  0  0  0
 18 19  1  0  0  0  0
 19 20  2  0  0  0  0
 21 22  2  0  0  0  0
 22 23  1  0  0  0  0
 23 24  1  6  0  0  0
 23 35  1  0  0  0  0
 23 25  1  0  0  0  0
 25 26  2  0  0  0  0
 25 30  1  0  0  0  0
 26 27  1  0  0  0  0
 27 32  1  0  0  0  0
 27 28  2  0  0  0  0
 28 33  1  0  0  0  0
 29 28  1  0  0  0  0
 29 34  1  0  0  0  0
 30 29  2  0  0  0  0
 31 26  1  0  0  0  0
 36 37  1  0  0  0  0
 36 35  1  0  0  0  0
 38 36  1  0  0  0  0
 39 36  1  0  0  0  0
M  END
>  <minimizedAffinity>
-5.92545462

$$$$
