
 OpenBabel03272510133D

 44 48  0  0  0  0  0  0  0  0999 V2000
   38.3460   31.6360   49.0150 C   0  0  0  0  0  0  0  0  0  0  0  0
   38.4810   32.8940   49.5610 C   0  0  0  0  0  0  0  0  0  0  0  0
   39.1440   33.6840   48.6260 C   0  0  0  0  0  0  0  0  0  0  0  0
   39.3880   32.9170   47.5680 N   0  0  0  0  0  0  0  0  0  0  0  0
   38.9190   31.7440   47.8160 N   0  0  0  0  0  0  0  0  0  0  0  0
   38.2060   33.3730   50.4930 H   0  0  0  0  0  0  0  0  0  0  0  0
   39.4430   34.7270   48.6620 H   0  0  0  0  0  0  0  0  0  0  0  0
   40.0710   33.2850   46.3590 C   0  0  0  0  0  0  0  0  0  0  0  0
   41.0500   33.7470   46.6850 H   0  0  0  0  0  0  0  0  0  0  0  0
   39.5630   34.0910   45.8050 H   0  0  0  0  0  0  0  0  0  0  0  0
   40.3630   32.0780   45.5420 C   0  0  0  0  0  0  0  0  0  0  0  0
   40.7180   31.2170   46.2000 H   0  0  0  0  0  0  0  0  0  0  0  0
   41.2180   32.2570   44.8420 H   0  0  0  0  0  0  0  0  0  0  0  0
   38.8920   30.2890   44.3400 C   0  0  0  0  0  3  0  0  0  0  0  0
   39.2480   31.5410   44.7710 C   0  0  0  0  0  0  0  0  0  0  0  0
   38.3300   32.5470   44.4340 C   0  0  0  0  0  0  0  0  0  0  0  0
   38.4320   33.6160   44.6850 H   0  0  0  0  0  0  0  0  0  0  0  0
   37.1580   32.3130   43.7300 C   0  0  0  0  0  0  0  0  0  0  0  0
   36.1370   33.0430   43.2840 N   0  0  0  0  0  0  0  0  0  0  0  0
   36.0460   34.0890   43.4230 H   0  0  0  0  0  0  0  0  0  0  0  0
   35.2410   32.2930   42.6430 C   0  0  0  0  0  0  0  0  0  0  0  0
   34.3220   32.6720   42.1930 H   0  0  0  0  0  0  0  0  0  0  0  0
   35.6700   30.9810   42.6470 C   0  0  0  0  0  3  0  0  0  0  0  0
   36.8660   31.0260   43.3310 C   0  0  0  0  0  0  0  0  0  0  0  0
   37.7390   30.0170   43.6410 C   0  0  0  0  0  3  0  0  0  0  0  0
   37.7070   30.7210   49.8220 O   0  0  0  0  0  0  0  0  0  0  0  0
   34.1780   28.9140   48.4140 C   0  0  0  0  0  0  0  0  0  0  0  0
   34.8770   28.3810   49.4560 C   0  0  0  0  0  0  0  0  0  0  0  0
   36.0350   28.9110   49.9730 C   0  0  0  0  0  0  0  0  0  0  0  0
   36.5630   30.0510   49.4380 C   0  0  0  0  0  0  0  0  0  0  0  0
   35.8570   30.6110   48.3680 C   0  0  0  0  0  0  0  0  0  0  0  0
   34.7200   30.0570   47.8900 N   0  0  0  0  0  0  0  0  0  0  0  0
   34.5140   27.4770   49.9270 H   0  0  0  0  0  0  0  0  0  0  0  0
   36.5830   28.4810   50.7990 H   0  0  0  0  0  0  0  0  0  0  0  0
   36.1600   31.5080   47.8540 H   0  0  0  0  0  0  0  0  0  0  0  0
   32.1440   27.4860   48.5670 C   0  0  0  0  0  0  0  0  0  0  0  0
   32.9750   28.3710   47.8640 C   0  0  0  0  0  0  0  0  0  0  0  0
   32.5880   28.7080   46.5890 C   0  0  0  0  0  0  0  0  0  0  0  0
   31.4400   28.1840   46.0630 N   0  0  0  0  0  0  0  0  0  0  0  0
   30.6700   27.3280   46.7910 C   0  0  0  0  0  0  0  0  0  0  0  0
   31.0120   26.9650   48.0590 N   0  0  0  0  0  0  0  0  0  0  0  0
   32.4070   27.1920   49.5740 H   0  0  0  0  0  0  0  0  0  0  0  0
   33.1380   29.3780   45.9410 H   0  0  0  0  0  0  0  0  0  0  0  0
   29.7540   26.9070   46.3780 H   0  0  0  0  0  0  0  0  0  0  0  0
  1  2  1  0  0  0  0
  1 26  1  0  0  0  0
  2  6  1  0  0  0  0
  3  7  1  0  0  0  0
  3  2  2  0  0  0  0
  4  5  1  0  0  0  0
  4  3  1  0  0  0  0
  5  1  2  0  0  0  0
  8  9  1  0  0  0  0
  8  4  1  0  0  0  0
 10  8  1  0  0  0  0
 11 12  1  0  0  0  0
 11  8  1  0  0  0  0
 13 11  1  0  0  0  0
 14 15  1  0  0  0  0
 15 11  1  0  0  0  0
 16 17  1  0  0  0  0
 16 15  2  0  0  0  0
 18 16  1  0  0  0  0
 19 20  1  0  0  0  0
 19 18  1  0  0  0  0
 21 23  2  0  0  0  0
 21 19  1  0  0  0  0
 22 21  1  0  0  0  0
 23 24  1  0  0  0  0
 24 25  1  0  0  0  0
 24 18  2  0  0  0  0
 25 14  2  0  0  0  0
 27 28  1  0  0  0  0
 28 33  1  0  0  0  0
 28 29  2  0  0  0  0
 29 34  1  0  0  0  0
 30 26  1  0  0  0  0
 30 29  1  0  0  0  0
 31 30  2  0  0  0  0
 32 31  1  0  0  0  0
 32 27  2  0  0  0  0
 35 31  1  0  0  0  0
 36 42  1  0  0  0  0
 37 27  1  0  0  0  0
 37 36  2  0  0  0  0
 38 37  1  0  0  0  0
 39 38  2  0  0  0  0
 39 40  1  0  0  0  0
 40 41  2  0  0  0  0
 41 36  1  0  0  0  0
 43 38  1  0  0  0  0
 44 40  1  0  0  0  0
M  END
>  <minimizedAffinity>
-6.83427525

>  <minimizedRMSD>
1.32347953

$$$$
