
 OpenBabel03272501343D

 39 43  0  0  1  0  0  0  0  0999 V2000
   37.1950   29.9800   51.5900 C   0  0  0  0  0  0  0  0  0  0  0  0
   37.7880   30.9550   50.7860 C   0  0  0  0  0  0  0  0  0  0  0  0
   37.2750   31.2230   49.5350 C   0  0  0  0  0  0  0  0  0  0  0  0
   36.2000   30.5100   49.1450 N   0  0  0  0  0  0  0  0  0  0  0  0
   35.6330   29.5690   49.9260 C   0  0  0  0  0  0  0  0  0  0  0  0
   36.1170   29.2930   51.1480 N   0  0  0  0  0  0  0  0  0  0  0  0
   37.6190   29.7890   52.5740 H   0  0  0  0  0  0  0  0  0  0  0  0
   38.6440   31.4740   51.1830 H   0  0  0  0  0  0  0  0  0  0  0  0
   34.6050   27.9100   48.4180 C   0  0  0  0  0  0  0  0  0  0  0  0
   34.4700   28.8360   49.4320 C   0  0  0  0  0  0  0  0  0  0  0  0
   33.2320   29.0520   49.9610 C   0  0  0  0  0  0  0  0  0  0  0  0
   33.0590   29.7680   50.7610 H   0  0  0  0  0  0  0  0  0  0  0  0
   32.1770   28.3170   49.4380 C   0  0  0  0  0  0  0  0  0  0  0  0
   30.8610   28.3300   49.7710 N   0  0  0  0  0  0  0  0  0  0  0  0
   30.3650   28.9030   50.4980 H   0  0  0  0  0  0  0  0  0  0  0  0
   30.1730   27.4460   49.0020 C   0  0  0  0  0  0  0  0  0  0  0  0
   29.1120   27.2420   49.0420 H   0  0  0  0  0  0  0  0  0  0  0  0
   31.0810   26.8340   48.1320 C   0  0  0  0  0  0  0  0  0  0  0  0
   32.3020   27.3900   48.4250 C   0  0  0  0  0  0  0  0  0  0  0  0
   33.5580   27.1750   47.8940 C   0  0  0  0  0  0  0  0  0  0  0  0
   37.8770   32.2330   48.6760 C   0  0  0  0  0  0  0  0  0  0  0  0
   38.3080   33.3350   49.1020 O   0  0  0  0  0  0  0  0  0  0  0  0
   37.9820   31.9480   47.2120 C   0  0  2  0  0  0  0  0  0  0  0  0
   38.3100   30.4790   46.9440 C   0  0  0  0  0  0  0  0  0  0  0  0
   39.2830   31.6170   46.6020 C   0  0  1  0  0  0  0  0  0  0  0  0
   37.3810   32.5970   46.5610 H   0  0  0  0  0  0  0  0  0  0  0  0
   37.7620   30.0100   46.0930 H   0  0  0  0  0  0  0  0  0  0  0  0
   38.5650   29.8220   47.7710 H   0  0  0  0  0  0  0  0  0  0  0  0
   40.1880   31.6180   47.2240 H   0  0  0  0  0  0  0  0  0  0  0  0
   39.5080   31.7750   45.1570 C   0  0  0  0  0  0  0  0  0  0  0  0
   39.0210   32.8800   44.4630 C   0  0  0  0  0  0  0  0  0  0  0  0
   39.2630   32.9550   43.1120 C   0  0  0  0  0  0  0  0  0  0  0  0
   39.9550   31.9950   42.4310 C   0  0  0  0  0  0  0  0  0  0  0  0
   40.4270   30.9040   43.1530 C   0  0  0  0  0  0  0  0  0  0  0  0
   40.1910   30.8310   44.4710 N   0  0  0  0  0  0  0  0  0  0  0  0
   38.4670   33.6610   44.9750 H   0  0  0  0  0  0  0  0  0  0  0  0
   38.9080   33.7930   42.5220 H   0  0  0  0  0  0  0  0  0  0  0  0
   40.1980   31.9570   41.3780 H   0  0  0  0  0  0  0  0  0  0  0  0
   40.9950   30.0500   42.7660 H   0  0  0  0  0  0  0  0  0  0  0  0
  1  7  1  0  0  0  0
  2  8  1  0  0  0  0
  2  1  2  0  0  0  0
  3  2  1  0  0  0  0
  4  3  2  0  0  0  0
  4  5  1  0  0  0  0
  5  6  2  0  0  0  0
  6  1  1  0  0  0  0
  9 10  1  0  0  0  0
 10  5  1  0  0  0  0
 10 11  2  0  0  0  0
 11 12  1  0  0  0  0
 13 14  1  0  0  0  0
 13 11  1  0  0  0  0
 14 15  1  0  0  0  0
 16 17  1  0  0  0  0
 16 14  1  0  0  0  0
 18 19  1  0  0  0  0
 18 16  2  0  0  0  0
 19 13  2  0  0  0  0
 20  9  2  0  0  0  0
 20 19  1  0  0  0  0
 21 22  2  0  0  0  0
 21  3  1  0  0  0  0
 23 26  1  6  0  0  0
 23 21  1  0  0  0  0
 24 23  1  0  0  0  0
 24 28  1  0  0  0  0
 25 24  1  0  0  0  0
 25 23  1  0  0  0  0
 25 29  1  1  0  0  0
 27 24  1  0  0  0  0
 30 25  1  0  0  0  0
 31 36  1  0  0  0  0
 31 30  2  0  0  0  0
 32 31  1  0  0  0  0
 33 32  2  0  0  0  0
 33 34  1  0  0  0  0
 34 35  2  0  0  0  0
 35 30  1  0  0  0  0
 37 32  1  0  0  0  0
 38 33  1  0  0  0  0
 39 34  1  0  0  0  0
M  END
>  <minimizedAffinity>
-7.11434364

>  <minimizedRMSD>
1.08533108

$$$$
