
 OpenBabel03272510133D

 44 48  0  0  0  0  0  0  0  0999 V2000
   38.2930   31.6230   48.8870 C   0  0  0  0  0  0  0  0  0  0  0  0
   38.5100   32.8870   49.3900 C   0  0  0  0  0  0  0  0  0  0  0  0
   39.1860   33.6120   48.4130 C   0  0  0  0  0  0  0  0  0  0  0  0
   39.3610   32.8020   47.3740 N   0  0  0  0  0  0  0  0  0  0  0  0
   38.8390   31.6630   47.6710 N   0  0  0  0  0  0  0  0  0  0  0  0
   38.2860   33.4080   50.3120 H   0  0  0  0  0  0  0  0  0  0  0  0
   39.5420   34.6390   48.4080 H   0  0  0  0  0  0  0  0  0  0  0  0
   40.0290   33.0950   46.1360 C   0  0  0  0  0  0  0  0  0  0  0  0
   40.8450   33.8340   46.3930 H   0  0  0  0  0  0  0  0  0  0  0  0
   39.3900   33.6380   45.4200 H   0  0  0  0  0  0  0  0  0  0  0  0
   40.6550   31.8670   45.5820 C   0  0  0  0  0  0  0  0  0  0  0  0
   40.7670   31.0680   46.3870 H   0  0  0  0  0  0  0  0  0  0  0  0
   41.7050   32.0620   45.2440 H   0  0  0  0  0  0  0  0  0  0  0  0
   39.2270   30.0540   44.3640 C   0  0  0  0  0  3  0  0  0  0  0  0
   39.9390   31.2190   44.4900 C   0  0  0  0  0  0  0  0  0  0  0  0
   39.9700   32.0020   43.3250 C   0  0  0  0  0  0  0  0  0  0  0  0
   40.4870   32.9700   43.2190 H   0  0  0  0  0  0  0  0  0  0  0  0
   39.3410   31.6420   42.1430 C   0  0  0  0  0  0  0  0  0  0  0  0
   39.2040   32.1660   40.9240 N   0  0  0  0  0  0  0  0  0  0  0  0
   39.6230   33.0890   40.6200 H   0  0  0  0  0  0  0  0  0  0  0  0
   38.4710   31.3820   40.1330 C   0  0  0  0  0  0  0  0  0  0  0  0
   38.2250   31.6030   39.0940 H   0  0  0  0  0  0  0  0  0  0  0  0
   38.0850   30.2640   40.8450 C   0  0  0  0  0  3  0  0  0  0  0  0
   38.6420   30.4550   42.0920 C   0  0  0  0  0  0  0  0  0  0  0  0
   38.5900   29.6640   43.2090 C   0  0  0  0  0  3  0  0  0  0  0  0
   37.6300   30.7670   49.7390 O   0  0  0  0  0  0  0  0  0  0  0  0
   34.1110   28.8960   48.3920 C   0  0  0  0  0  0  0  0  0  0  0  0
   34.8550   28.3590   49.4010 C   0  0  0  0  0  0  0  0  0  0  0  0
   36.0130   28.9090   49.8960 C   0  0  0  0  0  0  0  0  0  0  0  0
   36.4930   30.0750   49.3720 C   0  0  0  0  0  0  0  0  0  0  0  0
   35.7420   30.6390   48.3370 C   0  0  0  0  0  0  0  0  0  0  0  0
   34.6060   30.0640   47.8790 N   0  0  0  0  0  0  0  0  0  0  0  0
   34.5300   27.4350   49.8610 H   0  0  0  0  0  0  0  0  0  0  0  0
   36.5960   28.4770   50.6960 H   0  0  0  0  0  0  0  0  0  0  0  0
   36.0050   31.5550   47.8350 H   0  0  0  0  0  0  0  0  0  0  0  0
   32.0820   27.4660   48.5980 C   0  0  0  0  0  0  0  0  0  0  0  0
   32.9080   28.3320   47.8640 C   0  0  0  0  0  0  0  0  0  0  0  0
   32.5140   28.6270   46.5810 C   0  0  0  0  0  0  0  0  0  0  0  0
   31.3650   28.0830   46.0770 N   0  0  0  0  0  0  0  0  0  0  0  0
   30.6010   27.2490   46.8340 C   0  0  0  0  0  0  0  0  0  0  0  0
   30.9500   26.9270   48.1120 N   0  0  0  0  0  0  0  0  0  0  0  0
   32.3500   27.2050   49.6130 H   0  0  0  0  0  0  0  0  0  0  0  0
   33.0590   29.2780   45.9100 H   0  0  0  0  0  0  0  0  0  0  0  0
   29.6850   26.8120   46.4380 H   0  0  0  0  0  0  0  0  0  0  0  0
  1  2  1  0  0  0  0
  1 26  1  0  0  0  0
  2  6  1  0  0  0  0
  3  2  2  0  0  0  0
  4  5  1  0  0  0  0
  4  3  1  0  0  0  0
  5  1  2  0  0  0  0
  7  3  1  0  0  0  0
  8  9  1  0  0  0  0
  8  4  1  0  0  0  0
 10  8  1  0  0  0  0
 11  8  1  0  0  0  0
 11 12  1  0  0  0  0
 13 11  1  0  0  0  0
 14 15  1  0  0  0  0
 15 11  1  0  0  0  0
 16 15  2  0  0  0  0
 17 16  1  0  0  0  0
 18 16  1  0  0  0  0
 19 18  1  0  0  0  0
 20 19  1  0  0  0  0
 21 23  2  0  0  0  0
 21 19  1  0  0  0  0
 22 21  1  0  0  0  0
 23 24  1  0  0  0  0
 24 18  2  0  0  0  0
 24 25  1  0  0  0  0
 25 14  2  0  0  0  0
 27 28  1  0  0  0  0
 28 33  1  0  0  0  0
 28 29  2  0  0  0  0
 29 34  1  0  0  0  0
 30 26  1  0  0  0  0
 30 29  1  0  0  0  0
 31 30  2  0  0  0  0
 32 31  1  0  0  0  0
 32 27  2  0  0  0  0
 35 31  1  0  0  0  0
 36 42  1  0  0  0  0
 37 27  1  0  0  0  0
 37 36  2  0  0  0  0
 38 37  1  0  0  0  0
 39 38  2  0  0  0  0
 39 40  1  0  0  0  0
 40 41  2  0  0  0  0
 41 36  1  0  0  0  0
 43 38  1  0  0  0  0
 44 40  1  0  0  0  0
M  END
>  <minimizedAffinity>
-6.5086174

>  <minimizedRMSD>
1.33749139

$$$$
