
 OpenBabel03272501323D

 30 33  0  0  1  0  0  0  0  0999 V2000
   37.2790   31.6040   46.5980 C   0  0  2  0  0  0  0  0  0  0  0  0
   36.8420   30.3260   45.8830 C   0  0  0  0  0  0  0  0  0  0  0  0
   37.5940   31.4950   45.2430 C   0  0  2  0  0  0  0  0  0  0  0  0
   36.2850   32.0110   46.9770 H   0  0  0  0  0  0  0  0  0  0  0  0
   37.3320   29.4110   46.1710 H   0  0  0  0  0  0  0  0  0  0  0  0
   35.8190   30.1920   45.5090 H   0  0  0  0  0  0  0  0  0  0  0  0
   36.9560   32.1950   44.6030 H   0  0  0  0  0  0  0  0  0  0  0  0
   39.8830   31.4680   44.2990 C   0  0  0  0  0  0  0  0  0  0  0  0
   38.6090   30.9240   44.4050 C   0  0  0  0  0  0  0  0  0  0  0  0
   38.3520   29.7740   43.6430 C   0  0  0  0  0  0  0  0  0  0  0  0
   37.4000   29.2680   43.6440 H   0  0  0  0  0  0  0  0  0  0  0  0
   39.3030   29.1920   42.8200 C   0  0  0  0  0  0  0  0  0  0  0  0
   39.3040   28.1180   42.0100 N   0  0  0  0  0  0  0  0  0  0  0  0
   38.4950   27.4620   41.8450 H   0  0  0  0  0  0  0  0  0  0  0  0
   40.5090   27.9990   41.4320 C   0  0  0  0  0  0  0  0  0  0  0  0
   40.8570   27.2520   40.7290 H   0  0  0  0  0  0  0  0  0  0  0  0
   41.3230   29.0400   41.8860 C   0  0  0  0  0  0  0  0  0  0  0  0
   40.5270   29.7790   42.7650 C   0  0  0  0  0  0  0  0  0  0  0  0
   40.8360   30.8980   43.4830 C   0  0  0  0  0  0  0  0  0  0  0  0
   38.1070   31.3630   47.7920 C   0  0  0  0  0  0  0  0  0  0  0  0
   39.2970   31.7890   47.7060 O   0  0  0  0  0  0  0  0  0  0  0  0
   37.5330   30.3140   51.3180 C   0  0  0  0  0  0  0  0  0  0  0  0
   38.0310   30.9890   50.2210 C   0  0  0  0  0  0  0  0  0  0  0  0
   37.6110   30.6960   48.9550 C   0  0  0  0  0  0  0  0  0  0  0  0
   36.7040   29.7340   48.8330 N   0  0  0  0  0  0  0  0  0  0  0  0
   36.2060   29.0610   49.9130 C   0  0  0  0  0  0  0  0  0  0  0  0
   36.6120   29.3450   51.1380 N   0  0  0  0  0  0  0  0  0  0  0  0
   37.8770   30.5580   52.3190 H   0  0  0  0  0  0  0  0  0  0  0  0
   38.7700   31.7680   50.3660 H   0  0  0  0  0  0  0  0  0  0  0  0
   35.4540   28.2610   49.8350 H   0  0  0  0  0  0  0  0  0  0  0  0
  1  4  1  1  0  0  0
  1 20  1  0  0  0  0
  2  5  1  0  0  0  0
  2  1  1  0  0  0  0
  3  7  1  6  0  0  0
  3  2  1  0  0  0  0
  3  1  1  0  0  0  0
  6  2  1  0  0  0  0
  8  9  1  0  0  0  0
  9  3  1  0  0  0  0
 10 11  1  0  0  0  0
 10  9  2  0  0  0  0
 12 10  1  0  0  0  0
 13 12  1  0  0  0  0
 14 13  1  0  0  0  0
 15 17  2  0  0  0  0
 15 13  1  0  0  0  0
 16 15  1  0  0  0  0
 17 18  1  0  0  0  0
 18 12  2  0  0  0  0
 18 19  1  0  0  0  0
 19  8  2  0  0  0  0
 20 24  1  0  0  0  0
 21 20  2  0  0  0  0
 22 28  1  0  0  0  0
 23 29  1  0  0  0  0
 23 22  2  0  0  0  0
 24 23  1  0  0  0  0
 25 24  2  0  0  0  0
 25 26  1  0  0  0  0
 26 27  2  0  0  0  0
 27 22  1  0  0  0  0
 30 26  1  0  0  0  0
M  END
>  <minimizedAffinity>
-5.14641094

>  <minimizedRMSD>
4.13128948

$$$$
