
 OpenBabel03272510223D

 39 43  0  0  0  0  0  0  0  0999 V2000
   36.7590   26.9040   32.3790 C   0  0  0  0  0  0  0  0  0  0  0  0
   36.5720   26.1140   31.2740 C   0  0  0  0  0  0  0  0  0  0  0  0
   36.9180   24.7720   31.2460 C   0  0  0  0  0  0  0  0  0  0  0  0
   37.4570   24.2040   32.3290 N   0  0  0  0  0  0  0  0  0  0  0  0
   37.6440   24.9630   33.4150 C   0  0  0  0  0  0  0  0  0  0  0  0
   37.3040   26.2560   33.4210 N   0  0  0  0  0  0  0  0  0  0  0  0
   36.1310   26.5670   30.3780 H   0  0  0  0  0  0  0  0  0  0  0  0
   36.7450   24.1900   30.3340 H   0  0  0  0  0  0  0  0  0  0  0  0
   37.8440   24.8370   35.9000 C   0  0  0  0  0  3  0  0  0  0  0  0
   38.2280   24.4240   34.6430 C   0  0  0  0  0  0  0  0  0  0  0  0
   39.2230   23.4440   34.6350 C   0  0  0  0  0  0  0  0  0  0  0  0
   39.5310   23.1120   33.6360 H   0  0  0  0  0  0  0  0  0  0  0  0
   39.7760   22.9330   35.7880 C   0  0  0  0  0  0  0  0  0  0  0  0
   40.7280   21.9980   35.8840 N   0  0  0  0  0  0  0  0  0  0  0  0
   41.2170   21.4940   35.0950 H   0  0  0  0  0  0  0  0  0  0  0  0
   40.9380   21.8280   37.1930 C   0  0  0  0  0  0  0  0  0  0  0  0
   41.6540   21.1360   37.6110 H   0  0  0  0  0  0  0  0  0  0  0  0
   40.1040   22.6700   37.9350 C   0  0  0  0  0  3  0  0  0  0  0  0
   39.3530   23.3830   37.0130 C   0  0  0  0  0  0  0  0  0  0  0  0
   38.3710   24.3510   37.0780 C   0  0  0  0  0  3  0  0  0  0  0  0
   35.3490   32.8730   32.5590 Br  0  0  0  0  0  0  0  0  0  0  0  0
   35.7700   31.0150   32.5460 C   0  0  0  0  0  0  0  0  0  0  0  0
   35.5070   30.2180   33.6590 C   0  0  0  0  0  0  0  0  0  0  0  0
   35.8360   28.8880   33.5820 C   0  0  0  0  0  0  0  0  0  0  0  0
   36.4120   28.3140   32.4550 C   0  0  0  0  0  0  0  0  0  0  0  0
   36.6560   29.1220   31.3840 C   0  0  0  0  0  0  0  0  0  0  0  0
   36.3330   30.4570   31.4450 C   0  0  0  0  0  0  0  0  0  0  0  0
   35.6570   28.1990   34.4190 H   0  0  0  0  0  0  0  0  0  0  0  0
   37.1040   28.7490   30.4690 H   0  0  0  0  0  0  0  0  0  0  0  0
   36.5280   31.0860   30.5990 H   0  0  0  0  0  0  0  0  0  0  0  0
   32.9670   31.1170   36.1260 C   0  0  0  0  0  0  0  0  0  0  0  0
   33.7050   31.8430   37.1070 C   0  0  0  0  0  0  0  0  0  0  0  0
   35.0600   32.0060   36.8970 C   0  0  0  0  0  0  0  0  0  0  0  0
   35.6220   31.4710   35.7720 N   0  0  0  0  0  0  0  0  0  0  0  0
   34.9050   30.7850   34.8540 C   0  0  0  0  0  0  0  0  0  0  0  0
   33.5770   30.6180   35.0480 N   0  0  0  0  0  0  0  0  0  0  0  0
   31.9130   31.0150   36.3340 H   0  0  0  0  0  0  0  0  0  0  0  0
   33.2980   32.2760   37.9990 H   0  0  0  0  0  0  0  0  0  0  0  0
   35.7300   32.5320   37.5570 H   0  0  0  0  0  0  0  0  0  0  0  0
  1 25  1  0  0  0  0
  1  6  1  0  0  0  0
  2  1  2  0  0  0  0
  3  2  1  0  0  0  0
  3  4  2  0  0  0  0
  4  5  1  0  0  0  0
  5  6  2  0  0  0  0
  5 10  1  0  0  0  0
  7  2  1  0  0  0  0
  8  3  1  0  0  0  0
  9 20  1  0  0  0  0
 10  9  2  0  0  0  0
 11 10  1  0  0  0  0
 11 13  2  0  0  0  0
 12 11  1  0  0  0  0
 13 14  1  0  0  0  0
 13 19  1  0  0  0  0
 14 16  1  0  0  0  0
 15 14  1  0  0  0  0
 16 17  1  0  0  0  0
 16 18  2  0  0  0  0
 19 20  2  0  0  0  0
 19 18  1  0  0  0  0
 22 21  1  0  0  0  0
 22 23  1  0  0  0  0
 23 35  1  0  0  0  0
 24 23  2  0  0  0  0
 24 28  1  0  0  0  0
 25 24  1  0  0  0  0
 26 27  1  0  0  0  0
 26 25  2  0  0  0  0
 27 22  2  0  0  0  0
 29 26  1  0  0  0  0
 30 27  1  0  0  0  0
 31 37  1  0  0  0  0
 31 32  1  0  0  0  0
 32 38  1  0  0  0  0
 33 32  2  0  0  0  0
 33 39  1  0  0  0  0
 34 33  1  0  0  0  0
 35 36  1  0  0  0  0
 35 34  2  0  0  0  0
 36 31  2  0  0  0  0
M  END
>  <minimizedAffinity>
-6.94090271

$$$$

 OpenBabel03272510223D

 39 43  0  0  0  0  0  0  0  0999 V2000
   36.7600   26.9450   32.2710 C   0  0  0  0  0  0  0  0  0  0  0  0
   36.5690   26.1890   31.1420 C   0  0  0  0  0  0  0  0  0  0  0  0
   36.9070   24.8460   31.0740 C   0  0  0  0  0  0  0  0  0  0  0  0
   37.4420   24.2430   32.1410 N   0  0  0  0  0  0  0  0  0  0  0  0
   37.6330   24.9680   33.2490 C   0  0  0  0  0  0  0  0  0  0  0  0
   37.3010   26.2620   33.2940 N   0  0  0  0  0  0  0  0  0  0  0  0
   36.1310   26.6710   30.2610 H   0  0  0  0  0  0  0  0  0  0  0  0
   36.7310   24.2930   30.1450 H   0  0  0  0  0  0  0  0  0  0  0  0
   39.2270   23.4570   34.4360 C   0  0  0  0  0  3  0  0  0  0  0  0
   38.2120   24.3890   34.4600 C   0  0  0  0  0  0  0  0  0  0  0  0
   37.7810   24.7400   35.7420 C   0  0  0  0  0  0  0  0  0  0  0  0
   36.9730   25.4820   35.7650 H   0  0  0  0  0  0  0  0  0  0  0  0
   38.3230   24.1990   36.8860 C   0  0  0  0  0  0  0  0  0  0  0  0
   37.9790   24.4680   38.1500 N   0  0  0  0  0  0  0  0  0  0  0  0
   37.2360   25.1390   38.4860 H   0  0  0  0  0  0  0  0  0  0  0  0
   38.7740   23.7090   38.9110 C   0  0  0  0  0  0  0  0  0  0  0  0
   38.7500   23.6910   39.9910 H   0  0  0  0  0  0  0  0  0  0  0  0
   39.6330   22.9480   38.1120 C   0  0  0  0  0  3  0  0  0  0  0  0
   39.3320   23.2730   36.7990 C   0  0  0  0  0  0  0  0  0  0  0  0
   39.7970   22.8920   35.5560 C   0  0  0  0  0  3  0  0  0  0  0  0
   35.3910   32.9150   32.6310 Br  0  0  0  0  0  0  0  0  0  0  0  0
   35.7970   31.0550   32.5610 C   0  0  0  0  0  0  0  0  0  0  0  0
   35.4820   30.2170   33.6300 C   0  0  0  0  0  0  0  0  0  0  0  0
   35.8040   28.8890   33.5130 C   0  0  0  0  0  0  0  0  0  0  0  0
   36.4210   28.3540   32.3890 C   0  0  0  0  0  0  0  0  0  0  0  0
   36.7160   29.2010   31.3620 C   0  0  0  0  0  0  0  0  0  0  0  0
   36.4000   30.5350   31.4630 C   0  0  0  0  0  0  0  0  0  0  0  0
   35.5850   28.1690   34.3140 H   0  0  0  0  0  0  0  0  0  0  0  0
   37.1980   28.8600   30.4520 H   0  0  0  0  0  0  0  0  0  0  0  0
   36.6360   31.1960   30.6510 H   0  0  0  0  0  0  0  0  0  0  0  0
   35.0530   31.9170   36.8340 C   0  0  0  0  0  0  0  0  0  0  0  0
   33.6620   31.7620   37.1050 C   0  0  0  0  0  0  0  0  0  0  0  0
   32.9030   31.0770   36.1770 C   0  0  0  0  0  0  0  0  0  0  0  0
   33.5150   30.5840   35.0580 N   0  0  0  0  0  0  0  0  0  0  0  0
   34.8360   30.7420   34.8200 C   0  0  0  0  0  0  0  0  0  0  0  0
   35.5900   31.4120   35.7220 N   0  0  0  0  0  0  0  0  0  0  0  0
   35.6040   32.4600   37.5880 H   0  0  0  0  0  0  0  0  0  0  0  0
   33.1490   32.1340   37.9700 H   0  0  0  0  0  0  0  0  0  0  0  0
   31.8450   30.8900   36.2580 H   0  0  0  0  0  0  0  0  0  0  0  0
  1 25  1  0  0  0  0
  1  6  1  0  0  0  0
  2  1  2  0  0  0  0
  3  2  1  0  0  0  0
  3  4  2  0  0  0  0
  4  5  1  0  0  0  0
  5  6  2  0  0  0  0
  5 10  1  0  0  0  0
  7  2  1  0  0  0  0
  8  3  1  0  0  0  0
  9 10  2  0  0  0  0
  9 20  1  0  0  0  0
 10 11  1  0  0  0  0
 11 12  1  0  0  0  0
 11 13  2  0  0  0  0
 13 14  1  0  0  0  0
 14 15  1  0  0  0  0
 14 16  1  0  0  0  0
 16 17  1  0  0  0  0
 18 16  2  0  0  0  0
 19 13  1  0  0  0  0
 19 18  1  0  0  0  0
 20 19  2  0  0  0  0
 22 21  1  0  0  0  0
 22 23  1  0  0  0  0
 23 35  1  0  0  0  0
 24 23  2  0  0  0  0
 24 28  1  0  0  0  0
 25 24  1  0  0  0  0
 26 27  1  0  0  0  0
 26 25  2  0  0  0  0
 27 22  2  0  0  0  0
 29 26  1  0  0  0  0
 30 27  1  0  0  0  0
 31 32  1  0  0  0  0
 31 37  1  0  0  0  0
 32 38  1  0  0  0  0
 33 39  1  0  0  0  0
 33 32  2  0  0  0  0
 34 33  1  0  0  0  0
 35 34  2  0  0  0  0
 35 36  1  0  0  0  0
 36 31  2  0  0  0  0
M  END
>  <minimizedAffinity>
-6.93979454

$$$$

 OpenBabel03272510223D

 39 43  0  0  0  0  0  0  0  0999 V2000
   36.7940   27.4570   32.3870 C   0  0  0  0  0  0  0  0  0  0  0  0
   37.1010   28.1250   31.2290 C   0  0  0  0  0  0  0  0  0  0  0  0
   36.8220   29.4700   31.0440 C   0  0  0  0  0  0  0  0  0  0  0  0
   36.2300   30.1640   32.0200 N   0  0  0  0  0  0  0  0  0  0  0  0
   35.9260   29.5260   33.1560 C   0  0  0  0  0  0  0  0  0  0  0  0
   36.2020   28.2280   33.3150 N   0  0  0  0  0  0  0  0  0  0  0  0
   37.5860   27.5670   30.4200 H   0  0  0  0  0  0  0  0  0  0  0  0
   37.0900   29.9500   30.0960 H   0  0  0  0  0  0  0  0  0  0  0  0
   35.9700   30.9570   35.2020 C   0  0  0  0  0  3  0  0  0  0  0  0
   35.2770   30.2080   34.2750 C   0  0  0  0  0  0  0  0  0  0  0  0
   33.8980   30.1540   34.4920 C   0  0  0  0  0  0  0  0  0  0  0  0
   33.3430   29.5590   33.7560 H   0  0  0  0  0  0  0  0  0  0  0  0
   33.2820   30.7950   35.5430 C   0  0  0  0  0  0  0  0  0  0  0  0
   31.9760   30.8020   35.8330 N   0  0  0  0  0  0  0  0  0  0  0  0
   31.1970   30.3200   35.3080 H   0  0  0  0  0  0  0  0  0  0  0  0
   31.8540   31.5500   36.9340 C   0  0  0  0  0  0  0  0  0  0  0  0
   30.9170   31.7570   37.4310 H   0  0  0  0  0  0  0  0  0  0  0  0
   33.1040   32.0220   37.3450 C   0  0  0  0  0  3  0  0  0  0  0  0
   34.0250   31.5260   36.4350 C   0  0  0  0  0  0  0  0  0  0  0  0
   35.3920   31.6130   36.2670 C   0  0  0  0  0  3  0  0  0  0  0  0
   37.8840   21.4840   33.2660 Br  0  0  0  0  0  0  0  0  0  0  0  0
   37.5650   23.3470   33.0350 C   0  0  0  0  0  0  0  0  0  0  0  0
   37.9360   24.2610   34.0200 C   0  0  0  0  0  0  0  0  0  0  0  0
   37.6760   25.5880   33.7880 C   0  0  0  0  0  0  0  0  0  0  0  0
   37.0670   26.0490   32.6270 C   0  0  0  0  0  0  0  0  0  0  0  0
   36.7160   25.1290   31.6840 C   0  0  0  0  0  0  0  0  0  0  0  0
   36.9690   23.7960   31.9010 C   0  0  0  0  0  0  0  0  0  0  0  0
   37.9420   26.3650   34.5190 H   0  0  0  0  0  0  0  0  0  0  0  0
   36.2360   25.4110   30.7530 H   0  0  0  0  0  0  0  0  0  0  0  0
   36.6900   23.0780   31.1540 H   0  0  0  0  0  0  0  0  0  0  0  0
   38.3490   23.2740   37.5120 C   0  0  0  0  0  0  0  0  0  0  0  0
   39.7380   22.9660   37.6050 C   0  0  0  0  0  0  0  0  0  0  0  0
   40.5010   23.1050   36.4620 C   0  0  0  0  0  0  0  0  0  0  0  0
   39.8960   23.5260   35.3110 N   0  0  0  0  0  0  0  0  0  0  0  0
   38.5760   23.8130   35.2450 C   0  0  0  0  0  0  0  0  0  0  0  0
   37.8180   23.6810   36.3580 N   0  0  0  0  0  0  0  0  0  0  0  0
   37.7950   23.1500   38.4310 H   0  0  0  0  0  0  0  0  0  0  0  0
   40.2470   22.6340   38.4880 H   0  0  0  0  0  0  0  0  0  0  0  0
   41.5580   22.9060   36.3950 H   0  0  0  0  0  0  0  0  0  0  0  0
  1 25  1  0  0  0  0
  1  6  1  0  0  0  0
  2  1  2  0  0  0  0
  3  2  1  0  0  0  0
  3  4  2  0  0  0  0
  4  5  1  0  0  0  0
  5  6  2  0  0  0  0
  5 10  1  0  0  0  0
  7  2  1  0  0  0  0
  8  3  1  0  0  0  0
  9 20  1  0  0  0  0
 10 11  1  0  0  0  0
 10  9  2  0  0  0  0
 11 13  2  0  0  0  0
 12 11  1  0  0  0  0
 13 14  1  0  0  0  0
 13 19  1  0  0  0  0
 14 16  1  0  0  0  0
 15 14  1  0  0  0  0
 16 18  2  0  0  0  0
 16 17  1  0  0  0  0
 19 18  1  0  0  0  0
 20 19  2  0  0  0  0
 22 21  1  0  0  0  0
 22 23  1  0  0  0  0
 23 35  1  0  0  0  0
 24 23  2  0  0  0  0
 24 28  1  0  0  0  0
 25 24  1  0  0  0  0
 26 27  1  0  0  0  0
 26 25  2  0  0  0  0
 27 22  2  0  0  0  0
 29 26  1  0  0  0  0
 30 27  1  0  0  0  0
 31 32  1  0  0  0  0
 31 37  1  0  0  0  0
 32 38  1  0  0  0  0
 33 32  2  0  0  0  0
 34 33  1  0  0  0  0
 35 34  2  0  0  0  0
 35 36  1  0  0  0  0
 36 31  2  0  0  0  0
 39 33  1  0  0  0  0
M  END
>  <minimizedAffinity>
-6.78663015

$$$$

 OpenBabel03272510223D

 39 43  0  0  0  0  0  0  0  0999 V2000
   37.5290   26.6400   33.7890 C   0  0  0  0  0  0  0  0  0  0  0  0
   38.5380   26.5140   34.7090 C   0  0  0  0  0  0  0  0  0  0  0  0
   39.1640   25.3060   34.9740 C   0  0  0  0  0  0  0  0  0  0  0  0
   38.7850   24.2060   34.3170 N   0  0  0  0  0  0  0  0  0  0  0  0
   37.8010   24.3130   33.4150 C   0  0  0  0  0  0  0  0  0  0  0  0
   37.2100   25.4880   33.1750 N   0  0  0  0  0  0  0  0  0  0  0  0
   38.8590   27.4090   35.2550 H   0  0  0  0  0  0  0  0  0  0  0  0
   39.9650   25.2660   35.7200 H   0  0  0  0  0  0  0  0  0  0  0  0
   36.1830   23.1930   31.8800 C   0  0  0  0  0  3  0  0  0  0  0  0
   37.3230   23.1610   32.6520 C   0  0  0  0  0  0  0  0  0  0  0  0
   37.9900   21.9340   32.6460 C   0  0  0  0  0  0  0  0  0  0  0  0
   38.8990   21.9050   33.2600 H   0  0  0  0  0  0  0  0  0  0  0  0
   37.5450   20.8460   31.9290 C   0  0  0  0  0  0  0  0  0  0  0  0
   38.1100   19.6360   31.8610 N   0  0  0  0  0  0  0  0  0  0  0  0
   38.9910   19.3080   32.3430 H   0  0  0  0  0  0  0  0  0  0  0  0
   37.3280   18.9160   31.0500 C   0  0  0  0  0  0  0  0  0  0  0  0
   37.5080   17.8850   30.7850 H   0  0  0  0  0  0  0  0  0  0  0  0
   36.2510   19.6860   30.6010 C   0  0  0  0  0  3  0  0  0  0  0  0
   36.4010   20.9380   31.1780 C   0  0  0  0  0  0  0  0  0  0  0  0
   35.7030   22.1290   31.1480 C   0  0  0  0  0  3  0  0  0  0  0  0
   34.6840   31.8770   32.3320 Br  0  0  0  0  0  0  0  0  0  0  0  0
   35.5530   30.2560   32.8290 C   0  0  0  0  0  0  0  0  0  0  0  0
   35.5200   29.8060   34.1470 C   0  0  0  0  0  0  0  0  0  0  0  0
   36.1680   28.6310   34.4350 C   0  0  0  0  0  0  0  0  0  0  0  0
   36.8440   27.8840   33.4780 C   0  0  0  0  0  0  0  0  0  0  0  0
   36.8570   28.3530   32.1980 C   0  0  0  0  0  0  0  0  0  0  0  0
   36.2130   29.5290   31.8930 C   0  0  0  0  0  0  0  0  0  0  0  0
   36.1840   28.2140   35.4520 H   0  0  0  0  0  0  0  0  0  0  0  0
   37.3630   27.8280   31.3950 H   0  0  0  0  0  0  0  0  0  0  0  0
   36.2280   29.8910   30.8830 H   0  0  0  0  0  0  0  0  0  0  0  0
   34.9430   32.1610   36.8800 C   0  0  0  0  0  0  0  0  0  0  0  0
   33.5480   32.0250   37.1410 C   0  0  0  0  0  0  0  0  0  0  0  0
   32.8370   31.1270   36.3690 C   0  0  0  0  0  0  0  0  0  0  0  0
   33.4980   30.4180   35.4050 N   0  0  0  0  0  0  0  0  0  0  0  0
   34.8220   30.5610   35.1730 C   0  0  0  0  0  0  0  0  0  0  0  0
   35.5290   31.4390   35.9220 N   0  0  0  0  0  0  0  0  0  0  0  0
   35.4550   32.8750   37.5080 H   0  0  0  0  0  0  0  0  0  0  0  0
   32.9970   32.5630   37.8870 H   0  0  0  0  0  0  0  0  0  0  0  0
   31.7820   30.9290   36.4620 H   0  0  0  0  0  0  0  0  0  0  0  0
  1  2  1  0  0  0  0
  2  3  2  0  0  0  0
  2  7  1  0  0  0  0
  3  8  1  0  0  0  0
  4  3  1  0  0  0  0
  5  4  2  0  0  0  0
  6  5  1  0  0  0  0
  6  1  2  0  0  0  0
  9 10  1  0  0  0  0
 10  5  1  0  0  0  0
 11 10  2  0  0  0  0
 11 12  1  0  0  0  0
 13 11  1  0  0  0  0
 14 13  1  0  0  0  0
 14 15  1  0  0  0  0
 16 14  1  0  0  0  0
 17 16  1  0  0  0  0
 18 16  2  0  0  0  0
 18 19  1  0  0  0  0
 19 13  2  0  0  0  0
 20 19  1  0  0  0  0
 20  9  2  0  0  0  0
 21 22  1  0  0  0  0
 22 23  1  0  0  0  0
 23 24  2  0  0  0  0
 23 35  1  0  0  0  0
 24 28  1  0  0  0  0
 25  1  1  0  0  0  0
 25 24  1  0  0  0  0
 26 25  2  0  0  0  0
 27 26  1  0  0  0  0
 27 22  2  0  0  0  0
 29 26  1  0  0  0  0
 30 27  1  0  0  0  0
 31 32  1  0  0  0  0
 31 37  1  0  0  0  0
 32 38  1  0  0  0  0
 33 39  1  0  0  0  0
 33 32  2  0  0  0  0
 34 33  1  0  0  0  0
 35 34  2  0  0  0  0
 35 36  1  0  0  0  0
 36 31  2  0  0  0  0
M  END
>  <minimizedAffinity>
-6.73957062

$$$$

 OpenBabel03272510223D

 39 43  0  0  0  0  0  0  0  0999 V2000
   36.4580   27.1530   31.9130 C   0  0  0  0  0  0  0  0  0  0  0  0
   36.7010   27.8230   30.7410 C   0  0  0  0  0  0  0  0  0  0  0  0
   36.3570   29.1520   30.5530 C   0  0  0  0  0  0  0  0  0  0  0  0
   35.7620   29.8280   31.5420 N   0  0  0  0  0  0  0  0  0  0  0  0
   35.5190   29.1870   32.6910 C   0  0  0  0  0  0  0  0  0  0  0  0
   35.8590   27.9040   32.8510 N   0  0  0  0  0  0  0  0  0  0  0  0
   37.1880   27.2800   29.9230 H   0  0  0  0  0  0  0  0  0  0  0  0
   36.5760   29.6360   29.5950 H   0  0  0  0  0  0  0  0  0  0  0  0
   33.5530   29.6420   34.1600 C   0  0  0  0  0  3  0  0  0  0  0  0
   34.8720   29.8490   33.8230 C   0  0  0  0  0  0  0  0  0  0  0  0
   35.5460   30.7460   34.6550 C   0  0  0  0  0  0  0  0  0  0  0  0
   36.5980   30.9140   34.3900 H   0  0  0  0  0  0  0  0  0  0  0  0
   34.9430   31.3720   35.7220 C   0  0  0  0  0  0  0  0  0  0  0  0
   35.5010   32.2420   36.5720 N   0  0  0  0  0  0  0  0  0  0  0  0
   36.4960   32.5960   36.5690 H   0  0  0  0  0  0  0  0  0  0  0  0
   34.5360   32.5760   37.4340 C   0  0  0  0  0  0  0  0  0  0  0  0
   34.6620   33.2680   38.2530 H   0  0  0  0  0  0  0  0  0  0  0  0
   33.3490   31.9050   37.1220 C   0  0  0  0  0  3  0  0  0  0  0  0
   33.6240   31.1260   36.0090 C   0  0  0  0  0  0  0  0  0  0  0  0
   32.9110   30.2470   35.2190 C   0  0  0  0  0  3  0  0  0  0  0  0
   37.8310   21.2400   32.8110 Br  0  0  0  0  0  0  0  0  0  0  0  0
   37.4280   23.0870   32.5710 C   0  0  0  0  0  0  0  0  0  0  0  0
   37.8770   24.0380   33.4850 C   0  0  0  0  0  0  0  0  0  0  0  0
   37.5500   25.3500   33.2520 C   0  0  0  0  0  0  0  0  0  0  0  0
   36.8010   25.7600   32.1550 C   0  0  0  0  0  0  0  0  0  0  0  0
   36.3780   24.8040   31.2800 C   0  0  0  0  0  0  0  0  0  0  0  0
   36.6970   23.4860   31.5000 C   0  0  0  0  0  0  0  0  0  0  0  0
   37.8690   26.1540   33.9290 H   0  0  0  0  0  0  0  0  0  0  0  0
   35.7890   25.0460   30.4010 H   0  0  0  0  0  0  0  0  0  0  0  0
   36.3600   22.7390   30.8070 H   0  0  0  0  0  0  0  0  0  0  0  0
   38.6850   23.0300   36.9020 C   0  0  0  0  0  0  0  0  0  0  0  0
   40.1040   22.8920   36.8770 C   0  0  0  0  0  0  0  0  0  0  0  0
   40.7500   23.1480   35.6830 C   0  0  0  0  0  0  0  0  0  0  0  0
   40.0080   23.5190   34.5970 N   0  0  0  0  0  0  0  0  0  0  0  0
   38.6620   23.6440   34.6420 C   0  0  0  0  0  0  0  0  0  0  0  0
   38.0180   23.3950   35.8060 N   0  0  0  0  0  0  0  0  0  0  0  0
   38.2260   22.8180   37.8560 H   0  0  0  0  0  0  0  0  0  0  0  0
   40.7180   22.6040   37.7070 H   0  0  0  0  0  0  0  0  0  0  0  0
   41.8140   23.0810   35.5280 H   0  0  0  0  0  0  0  0  0  0  0  0
  1 25  1  0  0  0  0
  1  6  1  0  0  0  0
  2  1  2  0  0  0  0
  3  2  1  0  0  0  0
  3  4  2  0  0  0  0
  4  5  1  0  0  0  0
  5  6  2  0  0  0  0
  5 10  1  0  0  0  0
  7  2  1  0  0  0  0
  8  3  1  0  0  0  0
  9 20  1  0  0  0  0
 10  9  2  0  0  0  0
 10 11  1  0  0  0  0
 11 13  2  0  0  0  0
 12 11  1  0  0  0  0
 13 19  1  0  0  0  0
 13 14  1  0  0  0  0
 14 16  1  0  0  0  0
 15 14  1  0  0  0  0
 16 17  1  0  0  0  0
 18 16  2  0  0  0  0
 19 18  1  0  0  0  0
 20 19  2  0  0  0  0
 22 21  1  0  0  0  0
 22 23  1  0  0  0  0
 23 35  1  0  0  0  0
 24 23  2  0  0  0  0
 24 28  1  0  0  0  0
 25 24  1  0  0  0  0
 26 27  1  0  0  0  0
 26 25  2  0  0  0  0
 27 22  2  0  0  0  0
 29 26  1  0  0  0  0
 30 27  1  0  0  0  0
 31 37  1  0  0  0  0
 32 31  1  0  0  0  0
 32 38  1  0  0  0  0
 33 32  2  0  0  0  0
 34 35  2  0  0  0  0
 34 33  1  0  0  0  0
 35 36  1  0  0  0  0
 36 31  2  0  0  0  0
 39 33  1  0  0  0  0
M  END
>  <minimizedAffinity>
-6.65991545

$$$$

 OpenBabel03272510223D

 39 43  0  0  0  0  0  0  0  0999 V2000
   37.6130   27.0600   33.9330 C   0  0  0  0  0  0  0  0  0  0  0  0
   37.8160   27.2780   32.5940 C   0  0  0  0  0  0  0  0  0  0  0  0
   37.1750   28.2870   31.8930 C   0  0  0  0  0  0  0  0  0  0  0  0
   36.3210   29.0950   32.5290 N   0  0  0  0  0  0  0  0  0  0  0  0
   36.1140   28.8960   33.8360 C   0  0  0  0  0  0  0  0  0  0  0  0
   36.7420   27.9150   34.4930 N   0  0  0  0  0  0  0  0  0  0  0  0
   38.5140   26.6220   32.0600 H   0  0  0  0  0  0  0  0  0  0  0  0
   37.3760   28.4130   30.8240 H   0  0  0  0  0  0  0  0  0  0  0  0
   33.8260   29.6160   34.5270 C   0  0  0  0  0  3  0  0  0  0  0  0
   35.1960   29.7310   34.6100 C   0  0  0  0  0  0  0  0  0  0  0  0
   35.6410   30.7140   35.4970 C   0  0  0  0  0  0  0  0  0  0  0  0
   36.7320   30.8080   35.5660 H   0  0  0  0  0  0  0  0  0  0  0  0
   34.7820   31.5030   36.2280 C   0  0  0  0  0  0  0  0  0  0  0  0
   35.1090   32.4650   37.0980 N   0  0  0  0  0  0  0  0  0  0  0  0
   36.0780   32.7830   37.3720 H   0  0  0  0  0  0  0  0  0  0  0  0
   33.9500   32.9490   37.5560 C   0  0  0  0  0  0  0  0  0  0  0  0
   33.8640   33.7450   38.2810 H   0  0  0  0  0  0  0  0  0  0  0  0
   32.8740   32.2800   36.9640 C   0  0  0  0  0  3  0  0  0  0  0  0
   33.4250   31.3430   36.1040 C   0  0  0  0  0  0  0  0  0  0  0  0
   32.9320   30.3850   35.2400 C   0  0  0  0  0  3  0  0  0  0  0  0
   40.2290   22.6430   37.2930 Br  0  0  0  0  0  0  0  0  0  0  0  0
   39.4550   24.0160   36.2230 C   0  0  0  0  0  0  0  0  0  0  0  0
   40.1590   24.5670   35.1540 C   0  0  0  0  0  0  0  0  0  0  0  0
   39.5420   25.5530   34.4250 C   0  0  0  0  0  0  0  0  0  0  0  0
   38.2620   26.0150   34.7080 C   0  0  0  0  0  0  0  0  0  0  0  0
   37.6020   25.4550   35.7610 C   0  0  0  0  0  0  0  0  0  0  0  0
   38.2060   24.4670   36.5010 C   0  0  0  0  0  0  0  0  0  0  0  0
   40.0350   26.0320   33.5680 H   0  0  0  0  0  0  0  0  0  0  0  0
   36.6010   25.7630   36.0450 H   0  0  0  0  0  0  0  0  0  0  0  0
   37.6800   24.0310   37.3280 H   0  0  0  0  0  0  0  0  0  0  0  0
   42.8400   22.6270   33.6080 C   0  0  0  0  0  0  0  0  0  0  0  0
   44.0210   23.1870   34.1770 C   0  0  0  0  0  0  0  0  0  0  0  0
   43.8680   24.2220   35.0790 C   0  0  0  0  0  0  0  0  0  0  0  0
   42.6060   24.6520   35.3800 N   0  0  0  0  0  0  0  0  0  0  0  0
   41.4990   24.1070   34.8300 C   0  0  0  0  0  0  0  0  0  0  0  0
   41.6360   23.0930   33.9450 N   0  0  0  0  0  0  0  0  0  0  0  0
   43.0110   21.8220   32.9080 H   0  0  0  0  0  0  0  0  0  0  0  0
   45.0250   22.8760   33.9640 H   0  0  0  0  0  0  0  0  0  0  0  0
   44.6740   24.7320   35.5790 H   0  0  0  0  0  0  0  0  0  0  0  0
  1  6  1  0  0  0  0
  1 25  1  0  0  0  0
  2  1  2  0  0  0  0
  3  4  2  0  0  0  0
  3  2  1  0  0  0  0
  4  5  1  0  0  0  0
  5  6  2  0  0  0  0
  5 10  1  0  0  0  0
  7  2  1  0  0  0  0
  8  3  1  0  0  0  0
  9 10  2  0  0  0  0
  9 20  1  0  0  0  0
 10 11  1  0  0  0  0
 11 12  1  0  0  0  0
 11 13  2  0  0  0  0
 13 14  1  0  0  0  0
 14 15  1  0  0  0  0
 14 16  1  0  0  0  0
 16 17  1  0  0  0  0
 18 16  2  0  0  0  0
 19 13  1  0  0  0  0
 19 18  1  0  0  0  0
 20 19  2  0  0  0  0
 22 27  1  0  0  0  0
 22 21  1  0  0  0  0
 23 22  2  0  0  0  0
 24 25  2  0  0  0  0
 24 23  1  0  0  0  0
 25 26  1  0  0  0  0
 26 29  1  0  0  0  0
 26 27  2  0  0  0  0
 27 30  1  0  0  0  0
 28 24  1  0  0  0  0
 31 36  2  0  0  0  0
 31 32  1  0  0  0  0
 32 33  2  0  0  0  0
 33 34  1  0  0  0  0
 33 39  1  0  0  0  0
 35 23  1  0  0  0  0
 35 34  2  0  0  0  0
 36 35  1  0  0  0  0
 37 31  1  0  0  0  0
 38 32  1  0  0  0  0
M  END
>  <minimizedAffinity>
-6.52651405

$$$$

 OpenBabel03272510223D

 39 43  0  0  0  0  0  0  0  0999 V2000
   37.0540   27.3600   33.5420 C   0  0  0  0  0  0  0  0  0  0  0  0
   37.1470   27.6680   32.2090 C   0  0  0  0  0  0  0  0  0  0  0  0
   36.6210   28.8310   31.6700 C   0  0  0  0  0  0  0  0  0  0  0  0
   35.9930   29.7040   32.4640 N   0  0  0  0  0  0  0  0  0  0  0  0
   35.8950   29.4180   33.7670 C   0  0  0  0  0  0  0  0  0  0  0  0
   36.4090   28.2890   34.2670 N   0  0  0  0  0  0  0  0  0  0  0  0
   37.6600   26.9600   31.5460 H   0  0  0  0  0  0  0  0  0  0  0  0
   36.7260   29.0230   30.5960 H   0  0  0  0  0  0  0  0  0  0  0  0
   35.9070   31.1410   35.5730 C   0  0  0  0  0  3  0  0  0  0  0  0
   35.2240   30.3150   34.7070 C   0  0  0  0  0  0  0  0  0  0  0  0
   33.8330   30.4050   34.7980 C   0  0  0  0  0  0  0  0  0  0  0  0
   33.2860   29.7490   34.1090 H   0  0  0  0  0  0  0  0  0  0  0  0
   33.1960   31.2480   35.6810 C   0  0  0  0  0  0  0  0  0  0  0  0
   31.8780   31.4050   35.8420 N   0  0  0  0  0  0  0  0  0  0  0  0
   31.1020   30.9100   35.3230 H   0  0  0  0  0  0  0  0  0  0  0  0
   31.7370   32.3220   36.8030 C   0  0  0  0  0  0  0  0  0  0  0  0
   30.7870   32.6770   37.1740 H   0  0  0  0  0  0  0  0  0  0  0  0
   32.9890   32.7510   37.2560 C   0  0  0  0  0  3  0  0  0  0  0  0
   33.9300   32.0480   36.5200 C   0  0  0  0  0  0  0  0  0  0  0  0
   35.3090   31.9990   36.4710 C   0  0  0  0  0  3  0  0  0  0  0  0
   39.3420   22.3490   36.2430 Br  0  0  0  0  0  0  0  0  0  0  0  0
   38.6240   23.8800   35.3660 C   0  0  0  0  0  0  0  0  0  0  0  0
   38.1910   23.8050   34.0430 C   0  0  0  0  0  0  0  0  0  0  0  0
   37.6860   24.9450   33.4720 C   0  0  0  0  0  0  0  0  0  0  0  0
   37.5900   26.1540   34.1520 C   0  0  0  0  0  0  0  0  0  0  0  0
   38.0230   26.1930   35.4450 C   0  0  0  0  0  0  0  0  0  0  0  0
   38.5320   25.0590   36.0310 C   0  0  0  0  0  0  0  0  0  0  0  0
   37.3250   24.9620   32.4350 H   0  0  0  0  0  0  0  0  0  0  0  0
   37.9810   27.0990   36.0400 H   0  0  0  0  0  0  0  0  0  0  0  0
   38.8700   25.0980   37.0480 H   0  0  0  0  0  0  0  0  0  0  0  0
   37.2040   20.5980   32.5980 C   0  0  0  0  0  0  0  0  0  0  0  0
   38.3800   20.1710   31.9130 C   0  0  0  0  0  0  0  0  0  0  0  0
   39.4850   20.9970   31.9630 C   0  0  0  0  0  0  0  0  0  0  0  0
   39.4010   22.1700   32.6600 N   0  0  0  0  0  0  0  0  0  0  0  0
   38.2760   22.5570   33.3030 C   0  0  0  0  0  0  0  0  0  0  0  0
   37.1870   21.7560   33.2610 N   0  0  0  0  0  0  0  0  0  0  0  0
   36.3670   19.9190   32.5290 H   0  0  0  0  0  0  0  0  0  0  0  0
   38.4820   19.2590   31.3580 H   0  0  0  0  0  0  0  0  0  0  0  0
   40.4320   20.7950   31.4910 H   0  0  0  0  0  0  0  0  0  0  0  0
  1 25  1  0  0  0  0
  1  6  1  0  0  0  0
  2  1  2  0  0  0  0
  3  2  1  0  0  0  0
  3  4  2  0  0  0  0
  4  5  1  0  0  0  0
  5  6  2  0  0  0  0
  5 10  1  0  0  0  0
  7  2  1  0  0  0  0
  8  3  1  0  0  0  0
  9 20  1  0  0  0  0
 10 11  1  0  0  0  0
 10  9  2  0  0  0  0
 11 13  2  0  0  0  0
 12 11  1  0  0  0  0
 13 14  1  0  0  0  0
 13 19  1  0  0  0  0
 14 16  1  0  0  0  0
 15 14  1  0  0  0  0
 16 17  1  0  0  0  0
 16 18  2  0  0  0  0
 19 18  1  0  0  0  0
 20 19  2  0  0  0  0
 22 27  1  0  0  0  0
 22 21  1  0  0  0  0
 23 22  2  0  0  0  0
 24 23  1  0  0  0  0
 24 25  2  0  0  0  0
 25 26  1  0  0  0  0
 26 27  2  0  0  0  0
 26 29  1  0  0  0  0
 27 30  1  0  0  0  0
 28 24  1  0  0  0  0
 31 36  1  0  0  0  0
 32 33  1  0  0  0  0
 32 31  2  0  0  0  0
 33 34  2  0  0  0  0
 34 35  1  0  0  0  0
 35 23  1  0  0  0  0
 36 35  2  0  0  0  0
 37 31  1  0  0  0  0
 38 32  1  0  0  0  0
 39 33  1  0  0  0  0
M  END
>  <minimizedAffinity>
-6.47676802

$$$$

 OpenBabel03272510223D

 39 43  0  0  0  0  0  0  0  0999 V2000
   36.8470   27.3800   32.5090 C   0  0  0  0  0  0  0  0  0  0  0  0
   36.8440   27.8820   31.2330 C   0  0  0  0  0  0  0  0  0  0  0  0
   36.3120   29.1230   30.9180 C   0  0  0  0  0  0  0  0  0  0  0  0
   35.7760   29.8780   31.8820 N   0  0  0  0  0  0  0  0  0  0  0  0
   35.7740   29.4010   33.1330 C   0  0  0  0  0  0  0  0  0  0  0  0
   36.2910   28.2010   33.4150 N   0  0  0  0  0  0  0  0  0  0  0  0
   37.2800   27.2730   30.4330 H   0  0  0  0  0  0  0  0  0  0  0  0
   36.3370   29.4720   29.8800 H   0  0  0  0  0  0  0  0  0  0  0  0
   35.9800   30.8610   35.1470 C   0  0  0  0  0  3  0  0  0  0  0  0
   35.2080   30.1590   34.2470 C   0  0  0  0  0  0  0  0  0  0  0  0
   33.8340   30.2310   34.4870 C   0  0  0  0  0  0  0  0  0  0  0  0
   33.2150   29.6740   33.7720 H   0  0  0  0  0  0  0  0  0  0  0  0
   33.2950   30.9440   35.5350 C   0  0  0  0  0  0  0  0  0  0  0  0
   32.0000   31.0720   35.8460 N   0  0  0  0  0  0  0  0  0  0  0  0
   31.1720   30.6510   35.3430 H   0  0  0  0  0  0  0  0  0  0  0  0
   31.9640   31.8500   36.9320 C   0  0  0  0  0  0  0  0  0  0  0  0
   31.0590   32.1470   37.4400 H   0  0  0  0  0  0  0  0  0  0  0  0
   33.2580   32.2170   37.3130 C   0  0  0  0  0  3  0  0  0  0  0  0
   34.1150   31.6240   36.3990 C   0  0  0  0  0  0  0  0  0  0  0  0
   35.4820   31.5860   36.2080 C   0  0  0  0  0  3  0  0  0  0  0  0
   39.2460   21.9910   34.1970 Br  0  0  0  0  0  0  0  0  0  0  0  0
   38.4720   23.6410   33.6440 C   0  0  0  0  0  0  0  0  0  0  0  0
   37.4560   23.6670   32.6910 C   0  0  0  0  0  0  0  0  0  0  0  0
   36.9450   24.8900   32.3380 C   0  0  0  0  0  0  0  0  0  0  0  0
   37.3930   26.0860   32.8870 C   0  0  0  0  0  0  0  0  0  0  0  0
   38.3890   26.0250   33.8170 C   0  0  0  0  0  0  0  0  0  0  0  0
   38.9120   24.8070   34.1810 C   0  0  0  0  0  0  0  0  0  0  0  0
   36.1420   24.9880   31.5940 H   0  0  0  0  0  0  0  0  0  0  0  0
   38.7920   26.9140   34.2900 H   0  0  0  0  0  0  0  0  0  0  0  0
   39.6950   24.7680   34.9130 H   0  0  0  0  0  0  0  0  0  0  0  0
   35.3240   20.7640   32.0850 C   0  0  0  0  0  0  0  0  0  0  0  0
   35.9790   20.0950   31.0080 C   0  0  0  0  0  0  0  0  0  0  0  0
   37.1380   20.6590   30.5150 C   0  0  0  0  0  0  0  0  0  0  0  0
   37.5990   21.8170   31.0760 N   0  0  0  0  0  0  0  0  0  0  0  0
   36.9630   22.4360   32.0970 C   0  0  0  0  0  0  0  0  0  0  0  0
   35.8260   21.8930   32.5880 N   0  0  0  0  0  0  0  0  0  0  0  0
   34.4220   20.2850   32.4350 H   0  0  0  0  0  0  0  0  0  0  0  0
   35.6470   19.1870   30.5440 H   0  0  0  0  0  0  0  0  0  0  0  0
   37.7280   20.2580   29.7080 H   0  0  0  0  0  0  0  0  0  0  0  0
  1 25  1  0  0  0  0
  1  6  1  0  0  0  0
  2  1  2  0  0  0  0
  3  2  1  0  0  0  0
  3  4  2  0  0  0  0
  4  5  1  0  0  0  0
  5  6  2  0  0  0  0
  5 10  1  0  0  0  0
  7  2  1  0  0  0  0
  8  3  1  0  0  0  0
  9 20  1  0  0  0  0
 10 11  1  0  0  0  0
 10  9  2  0  0  0  0
 11 13  2  0  0  0  0
 12 11  1  0  0  0  0
 13 14  1  0  0  0  0
 13 19  1  0  0  0  0
 14 16  1  0  0  0  0
 15 14  1  0  0  0  0
 16 18  2  0  0  0  0
 16 17  1  0  0  0  0
 19 18  1  0  0  0  0
 20 19  2  0  0  0  0
 22 27  1  0  0  0  0
 22 21  1  0  0  0  0
 23 22  2  0  0  0  0
 24 23  1  0  0  0  0
 24 25  2  0  0  0  0
 25 26  1  0  0  0  0
 26 27  2  0  0  0  0
 26 29  1  0  0  0  0
 27 30  1  0  0  0  0
 28 24  1  0  0  0  0
 31 37  1  0  0  0  0
 31 36  1  0  0  0  0
 32 31  2  0  0  0  0
 33 32  1  0  0  0  0
 33 34  2  0  0  0  0
 34 35  1  0  0  0  0
 35 36  2  0  0  0  0
 35 23  1  0  0  0  0
 38 32  1  0  0  0  0
 39 33  1  0  0  0  0
M  END
>  <minimizedAffinity>
-6.41253996

$$$$

 OpenBabel03272510223D

 39 43  0  0  0  0  0  0  0  0999 V2000
   37.4280   27.2210   33.9460 C   0  0  0  0  0  0  0  0  0  0  0  0
   37.4490   27.3750   32.5840 C   0  0  0  0  0  0  0  0  0  0  0  0
   36.7890   28.4080   31.9370 C   0  0  0  0  0  0  0  0  0  0  0  0
   36.0980   29.3020   32.6520 N   0  0  0  0  0  0  0  0  0  0  0  0
   36.0700   29.1640   33.9820 C   0  0  0  0  0  0  0  0  0  0  0  0
   36.7130   28.1600   34.5860 N   0  0  0  0  0  0  0  0  0  0  0  0
   38.0120   26.6490   31.9860 H   0  0  0  0  0  0  0  0  0  0  0  0
   36.8420   28.4810   30.8460 H   0  0  0  0  0  0  0  0  0  0  0  0
   35.9620   31.0300   35.6380 C   0  0  0  0  0  3  0  0  0  0  0  0
   35.3380   30.0960   34.8400 C   0  0  0  0  0  0  0  0  0  0  0  0
   33.9440   30.1110   34.9160 C   0  0  0  0  0  0  0  0  0  0  0  0
   33.4430   29.3680   34.2820 H   0  0  0  0  0  0  0  0  0  0  0  0
   33.2490   30.9860   35.7220 C   0  0  0  0  0  0  0  0  0  0  0  0
   31.9220   31.0770   35.8630 N   0  0  0  0  0  0  0  0  0  0  0  0
   31.1830   30.4960   35.3820 H   0  0  0  0  0  0  0  0  0  0  0  0
   31.7190   32.0620   36.7430 C   0  0  0  0  0  0  0  0  0  0  0  0
   30.7460   32.3900   37.0780 H   0  0  0  0  0  0  0  0  0  0  0  0
   32.9380   32.6000   37.1640 C   0  0  0  0  0  3  0  0  0  0  0  0
   33.9260   31.8940   36.4950 C   0  0  0  0  0  0  0  0  0  0  0  0
   35.3060   31.9230   36.4570 C   0  0  0  0  0  3  0  0  0  0  0  0
   40.1630   22.7110   37.0830 Br  0  0  0  0  0  0  0  0  0  0  0  0
   39.3510   24.1140   36.0810 C   0  0  0  0  0  0  0  0  0  0  0  0
   40.0160   24.6950   35.0030 C   0  0  0  0  0  0  0  0  0  0  0  0
   39.3730   25.7010   34.3260 C   0  0  0  0  0  0  0  0  0  0  0  0
   38.1050   26.1540   34.6680 C   0  0  0  0  0  0  0  0  0  0  0  0
   37.4820   25.5640   35.7280 C   0  0  0  0  0  0  0  0  0  0  0  0
   38.1130   24.5550   36.4170 C   0  0  0  0  0  0  0  0  0  0  0  0
   39.8350   26.2050   33.4660 H   0  0  0  0  0  0  0  0  0  0  0  0
   36.4920   25.8630   36.0560 H   0  0  0  0  0  0  0  0  0  0  0  0
   37.6170   24.0960   37.2490 H   0  0  0  0  0  0  0  0  0  0  0  0
   43.6600   24.4960   34.8440 C   0  0  0  0  0  0  0  0  0  0  0  0
   43.8900   23.4330   33.9210 C   0  0  0  0  0  0  0  0  0  0  0  0
   42.7860   22.8090   33.3750 C   0  0  0  0  0  0  0  0  0  0  0  0
   41.5400   23.2360   33.7410 N   0  0  0  0  0  0  0  0  0  0  0  0
   41.3420   24.2450   34.6180 C   0  0  0  0  0  0  0  0  0  0  0  0
   42.4160   24.8640   35.1590 N   0  0  0  0  0  0  0  0  0  0  0  0
   44.5530   24.9520   35.2440 H   0  0  0  0  0  0  0  0  0  0  0  0
   44.8520   23.0730   33.6120 H   0  0  0  0  0  0  0  0  0  0  0  0
   42.8200   21.9960   32.6690 H   0  0  0  0  0  0  0  0  0  0  0  0
  1  6  1  0  0  0  0
  1 25  1  0  0  0  0
  2  1  2  0  0  0  0
  3  2  1  0  0  0  0
  3  4  2  0  0  0  0
  4  5  1  0  0  0  0
  5  6  2  0  0  0  0
  5 10  1  0  0  0  0
  7  2  1  0  0  0  0
  8  3  1  0  0  0  0
  9 20  1  0  0  0  0
 10 11  1  0  0  0  0
 10  9  2  0  0  0  0
 11 13  2  0  0  0  0
 12 11  1  0  0  0  0
 13 14  1  0  0  0  0
 13 19  1  0  0  0  0
 14 16  1  0  0  0  0
 15 14  1  0  0  0  0
 16 17  1  0  0  0  0
 16 18  2  0  0  0  0
 19 18  1  0  0  0  0
 20 19  2  0  0  0  0
 22 27  1  0  0  0  0
 22 21  1  0  0  0  0
 23 22  2  0  0  0  0
 24 25  2  0  0  0  0
 24 23  1  0  0  0  0
 25 26  1  0  0  0  0
 26 29  1  0  0  0  0
 26 27  2  0  0  0  0
 27 30  1  0  0  0  0
 28 24  1  0  0  0  0
 31 36  1  0  0  0  0
 31 37  1  0  0  0  0
 32 31  2  0  0  0  0
 33 34  2  0  0  0  0
 33 32  1  0  0  0  0
 34 35  1  0  0  0  0
 35 23  1  0  0  0  0
 35 36  2  0  0  0  0
 38 32  1  0  0  0  0
 39 33  1  0  0  0  0
M  END
>  <minimizedAffinity>
-6.39768362

$$$$
