
 OpenBabel03272504113D

 24 26  0  0  0  0  0  0  0  0999 V2000
   36.3420   29.8070   49.7950 C   0  0  0  0  0  0  0  0  0  0  0  0
   37.2550   30.5160   48.9970 C   0  0  0  0  0  0  0  0  0  0  0  0
   36.9050   30.7870   47.6780 C   0  0  0  0  0  0  0  0  0  0  0  0
   35.6970   30.3520   47.2320 N   0  0  0  0  0  0  0  0  0  0  0  0
   34.8420   29.6690   48.0380 C   0  0  0  0  0  0  0  0  0  0  0  0
   35.1640   29.4000   49.3080 N   0  0  0  0  0  0  0  0  0  0  0  0
   38.2010   30.8500   49.3710 H   0  0  0  0  0  0  0  0  0  0  0  0
   33.9080   29.3710   47.5730 H   0  0  0  0  0  0  0  0  0  0  0  0
   38.8490   32.1700   47.3050 C   0  0  0  0  0  0  0  0  0  0  0  0
   37.7670   31.5130   46.7550 C   0  0  0  0  0  0  0  0  0  0  0  0
   37.5610   31.5750   45.4120 C   0  0  0  0  0  0  0  0  0  0  0  0
   36.7310   31.0760   44.9650 H   0  0  0  0  0  0  0  0  0  0  0  0
   38.4280   32.2870   44.6080 C   0  0  0  0  0  0  0  0  0  0  0  0
   38.4350   32.4890   43.2920 N   0  0  0  0  0  0  0  0  0  0  0  0
   37.7270   32.1080   42.6160 H   0  0  0  0  0  0  0  0  0  0  0  0
   39.4750   33.2550   42.9180 C   0  0  0  0  0  0  0  0  0  0  0  0
   39.7970   33.6220   41.9410 H   0  0  0  0  0  0  0  0  0  0  0  0
   40.1460   33.5380   44.0910 C   0  0  0  0  0  0  0  0  0  0  0  0
   39.5100   32.9440   45.1570 C   0  0  0  0  0  0  0  0  0  0  0  0
   39.7450   32.9000   46.5200 C   0  0  0  0  0  0  0  0  0  0  0  0
   36.7280   29.5150   51.2110 C   0  0  0  0  0  0  0  0  0  0  0  0
   35.6200   29.1440   51.9400 F   0  0  0  0  0  0  0  0  0  0  0  0
   37.6940   28.5330   51.1760 F   0  0  0  0  0  0  0  0  0  0  0  0
   37.2350   30.6730   51.7610 F   0  0  0  0  0  0  0  0  0  0  0  0
  1 21  1  0  0  0  0
  2  7  1  0  0  0  0
  2  1  2  0  0  0  0
  3  2  1  0  0  0  0
  4  3  2  0  0  0  0
  4  5  1  0  0  0  0
  5  6  2  0  0  0  0
  6  1  1  0  0  0  0
  8  5  1  0  0  0  0
 10  9  1  0  0  0  0
 10  3  1  0  0  0  0
 11 10  2  0  0  0  0
 12 11  1  0  0  0  0
 13 19  2  0  0  0  0
 13 11  1  0  0  0  0
 14 13  1  0  0  0  0
 15 14  1  0  0  0  0
 16 14  1  0  0  0  0
 16 18  2  0  0  0  0
 17 16  1  0  0  0  0
 18 19  1  0  0  0  0
 19 20  1  0  0  0  0
 20  9  2  0  0  0  0
 21 24  1  0  0  0  0
 21 22  1  0  0  0  0
 23 21  1  0  0  0  0
M  END
>  <minimizedAffinity>
-6.4714613

>  <minimizedRMSD>
3.61329532

$$$$
