
 OpenBabel03272505583D

 47 51  0  0  1  0  0  0  0  0999 V2000
   35.3830   30.5490   49.9280 C   0  0  2  0  0  0  0  0  0  0  0  0
   36.3040   31.3450   49.0830 C   0  0  0  0  0  0  0  0  0  0  0  0
   37.7540   30.8320   49.1430 C   0  0  2  0  0  0  0  0  0  0  0  0
   38.3080   30.7550   50.4940 C   0  0  0  0  0  0  0  0  0  0  0  0
   37.3060   30.2640   51.5330 C   0  0  0  0  0  0  0  0  0  0  0  0
   36.1000   29.6380   50.8960 C   0  0  0  0  0  0  0  0  0  0  0  0
   34.7280   31.1970   50.5850 H   0  0  0  0  0  0  0  0  0  0  0  0
   36.1440   31.4780   48.0410 H   0  0  0  0  0  0  0  0  0  0  0  0
   36.3450   32.3960   49.5240 H   0  0  0  0  0  0  0  0  0  0  0  0
   37.7680   29.8840   48.6040 H   0  0  0  0  0  0  0  0  0  0  0  0
   38.6680   31.7270   50.8860 H   0  0  0  0  0  0  0  0  0  0  0  0
   39.2150   30.1070   50.4700 H   0  0  0  0  0  0  0  0  0  0  0  0
   37.8160   29.4610   52.1030 H   0  0  0  0  0  0  0  0  0  0  0  0
   37.0270   31.0280   52.2680 H   0  0  0  0  0  0  0  0  0  0  0  0
   35.3930   29.3590   51.6880 H   0  0  0  0  0  0  0  0  0  0  0  0
   36.3650   28.7160   50.3530 H   0  0  0  0  0  0  0  0  0  0  0  0
   38.1370   30.1070   46.3140 Cl  0  0  0  0  0  0  0  0  0  0  0  0
   38.7750   31.5920   46.9980 C   0  0  0  0  0  0  0  0  0  0  0  0
   38.5110   31.8370   48.3360 C   0  0  0  0  0  0  0  0  0  0  0  0
   39.0450   33.0290   48.7790 C   0  0  0  0  0  0  0  0  0  0  0  0
   39.7670   33.8760   47.9580 C   0  0  0  0  0  0  0  0  0  0  0  0
   39.9870   33.5520   46.6240 C   0  0  0  0  0  0  0  0  0  0  0  0
   39.4650   32.3600   46.1350 C   0  0  0  0  0  0  0  0  0  0  0  0
   38.8720   33.2840   49.8160 H   0  0  0  0  0  0  0  0  0  0  0  0
   40.1440   34.7930   48.4180 H   0  0  0  0  0  0  0  0  0  0  0  0
   40.5530   34.2390   46.0210 H   0  0  0  0  0  0  0  0  0  0  0  0
   39.1060   32.9390   43.8450 C   0  0  0  0  0  0  0  0  0  0  0  0
   39.7020   32.0360   44.7320 C   0  0  0  0  0  0  0  0  0  0  0  0
   40.4100   30.9910   44.1770 C   0  0  0  0  0  0  0  0  0  0  0  0
   40.8410   30.3350   44.9210 H   0  0  0  0  0  0  0  0  0  0  0  0
   40.5090   30.8720   42.8170 C   0  0  0  0  0  0  0  0  0  0  0  0
   41.1570   29.9220   42.1140 N   0  0  0  0  0  0  0  0  0  0  0  0
   41.7020   29.1030   42.5150 H   0  0  0  0  0  0  0  0  0  0  0  0
   40.9810   30.2080   40.8200 C   0  0  0  0  0  0  0  0  0  0  0  0
   41.3880   29.6200   40.0020 H   0  0  0  0  0  0  0  0  0  0  0  0
   40.2120   31.3550   40.6740 C   0  0  0  0  0  0  0  0  0  0  0  0
   39.9240   31.7580   41.9650 C   0  0  0  0  0  0  0  0  0  0  0  0
   39.2050   32.8190   42.4670 C   0  0  0  0  0  0  0  0  0  0  0  0
   34.4570   29.7170   49.1440 C   0  0  0  0  0  0  0  0  0  0  0  0
   34.3810   30.0320   47.7870 C   0  0  0  0  0  0  0  0  0  0  0  0
   33.5240   29.2580   46.9900 C   0  0  0  0  0  0  0  0  0  0  0  0
   32.8010   28.2290   47.5830 N   0  0  0  0  0  0  0  0  0  0  0  0
   32.9080   27.9620   48.9010 C   0  0  0  0  0  0  0  0  0  0  0  0
   33.7300   28.7120   49.6390 N   0  0  0  0  0  0  0  0  0  0  0  0
   34.7830   30.7300   47.0760 H   0  0  0  0  0  0  0  0  0  0  0  0
   33.2770   29.2770   45.9560 H   0  0  0  0  0  0  0  0  0  0  0  0
   32.3730   27.1850   49.3900 H   0  0  0  0  0  0  0  0  0  0  0  0
  1  7  1  1  0  0  0
  1  6  1  0  0  0  0
  2  3  1  0  0  0  0
  2  9  1  0  0  0  0
  2  1  1  0  0  0  0
  3 10  1  6  0  0  0
  3  4  1  0  0  0  0
  4 11  1  0  0  0  0
  4  5  1  0  0  0  0
  5 13  1  0  0  0  0
  5 14  1  0  0  0  0
  6  5  1  0  0  0  0
  6 15  1  0  0  0  0
  8  2  1  0  0  0  0
 12  4  1  0  0  0  0
 16  6  1  0  0  0  0
 17 18  1  0  0  0  0
 18 19  1  0  0  0  0
 19 20  2  0  0  0  0
 19  3  1  0  0  0  0
 20 24  1  0  0  0  0
 21 25  1  0  0  0  0
 21 20  1  0  0  0  0
 22 21  2  0  0  0  0
 23 22  1  0  0  0  0
 23 18  2  0  0  0  0
 26 22  1  0  0  0  0
 27 28  1  0  0  0  0
 28 23  1  0  0  0  0
 29 28  2  0  0  0  0
 29 30  1  0  0  0  0
 31 29  1  0  0  0  0
 32 33  1  0  0  0  0
 32 31  1  0  0  0  0
 34 32  1  0  0  0  0
 35 34  1  0  0  0  0
 36 34  2  0  0  0  0
 36 37  1  0  0  0  0
 37 38  1  0  0  0  0
 37 31  2  0  0  0  0
 38 27  2  0  0  0  0
 39 44  1  0  0  0  0
 39  1  1  0  0  0  0
 40 39  2  0  0  0  0
 41 42  2  0  0  0  0
 41 40  1  0  0  0  0
 42 43  1  0  0  0  0
 43 47  1  0  0  0  0
 43 44  2  0  0  0  0
 45 40  1  0  0  0  0
 46 41  1  0  0  0  0
M  END
>  <minimizedAffinity>
-8.23261929

>  <minimizedRMSD>
1.05213916

$$$$
