
 OpenBabel03272505053D

 36 39  0  0  1  0  0  0  0  0999 V2000
   36.9010   29.2170   50.7650 C   0  0  0  0  0  0  0  0  0  0  0  0
   37.3540   29.7100   49.5380 C   0  0  0  0  0  0  0  0  0  0  0  0
   36.4290   30.2980   48.6940 C   0  0  0  0  0  0  0  0  0  0  0  0
   35.1450   30.3580   49.1110 N   0  0  0  0  0  0  0  0  0  0  0  0
   34.7290   29.8780   50.2940 C   0  0  0  0  0  0  0  0  0  0  0  0
   35.6100   29.3050   51.1250 N   0  0  0  0  0  0  0  0  0  0  0  0
   36.6660   30.8610   47.4040 N   0  0  0  0  0  0  0  0  0  0  0  0
   37.7600   31.7400   47.1030 C   0  0  0  0  0  0  0  0  0  0  0  0
   38.5060   31.4740   45.8580 C   0  0  0  0  0  0  0  0  0  0  0  0
   37.7120   30.9930   44.6930 C   0  0  0  0  0  0  0  0  0  0  0  0
   36.7420   29.9440   45.1640 C   0  0  0  0  0  0  0  0  0  0  0  0
   35.8750   30.6500   46.2330 C   0  0  1  0  0  0  0  0  0  0  0  0
   37.7100   28.7800   51.3420 H   0  0  0  0  0  0  0  0  0  0  0  0
   38.3630   29.6870   49.1600 H   0  0  0  0  0  0  0  0  0  0  0  0
   33.6930   29.9340   50.6160 H   0  0  0  0  0  0  0  0  0  0  0  0
   37.3300   32.7810   47.0810 H   0  0  0  0  0  0  0  0  0  0  0  0
   38.4610   31.7080   47.9650 H   0  0  0  0  0  0  0  0  0  0  0  0
   38.9970   32.4340   45.5320 H   0  0  0  0  0  0  0  0  0  0  0  0
   39.3390   30.7680   46.0690 H   0  0  0  0  0  0  0  0  0  0  0  0
   38.4250   30.4950   43.9900 H   0  0  0  0  0  0  0  0  0  0  0  0
   37.1900   31.7950   44.1250 H   0  0  0  0  0  0  0  0  0  0  0  0
   37.3360   29.1940   45.7380 H   0  0  0  0  0  0  0  0  0  0  0  0
   36.1330   29.4820   44.3850 H   0  0  0  0  0  0  0  0  0  0  0  0
   35.4730   31.6100   45.8490 H   0  0  0  0  0  0  0  0  0  0  0  0
   34.8030   28.3810   46.6470 C   0  0  0  0  0  0  0  0  0  0  0  0
   34.7150   29.7380   46.4160 C   0  0  0  0  0  0  0  0  0  0  0  0
   33.4000   30.2130   46.3630 C   0  0  0  0  0  0  0  0  0  0  0  0
   33.2590   31.2700   46.1840 H   0  0  0  0  0  0  0  0  0  0  0  0
   32.2710   29.4550   46.5190 C   0  0  0  0  0  0  0  0  0  0  0  0
   30.9640   29.7700   46.4950 N   0  0  0  0  0  0  0  0  0  0  0  0
   30.5740   30.7450   46.3360 H   0  0  0  0  0  0  0  0  0  0  0  0
   30.2730   28.6590   46.7020 C   0  0  0  0  0  0  0  0  0  0  0  0
   29.2060   28.6490   46.7280 H   0  0  0  0  0  0  0  0  0  0  0  0
   31.1270   27.6070   46.8640 C   0  0  0  0  0  0  0  0  0  0  0  0
   32.4250   28.1100   46.7490 C   0  0  0  0  0  0  0  0  0  0  0  0
   33.6950   27.5760   46.8120 C   0  0  0  0  0  0  0  0  0  0  0  0
  1  6  1  0  0  0  0
  1 13  1  0  0  0  0
  2  1  2  0  0  0  0
  3  4  2  0  0  0  0
  3  2  1  0  0  0  0
  4  5  1  0  0  0  0
  5 15  1  0  0  0  0
  5  6  2  0  0  0  0
  7  3  1  0  0  0  0
  8  7  1  0  0  0  0
  8 17  1  0  0  0  0
  9 19  1  0  0  0  0
  9  8  1  0  0  0  0
 10 11  1  0  0  0  0
 10  9  1  0  0  0  0
 11 22  1  0  0  0  0
 11 12  1  0  0  0  0
 12 24  1  6  0  0  0
 12 26  1  0  0  0  0
 12  7  1  0  0  0  0
 14  2  1  0  0  0  0
 16  8  1  0  0  0  0
 18  9  1  0  0  0  0
 20 10  1  0  0  0  0
 21 10  1  0  0  0  0
 23 11  1  0  0  0  0
 25 36  1  0  0  0  0
 26 25  2  0  0  0  0
 27 26  1  0  0  0  0
 27 29  2  0  0  0  0
 28 27  1  0  0  0  0
 29 35  1  0  0  0  0
 30 29  1  0  0  0  0
 30 32  1  0  0  0  0
 31 30  1  0  0  0  0
 32 33  1  0  0  0  0
 32 34  2  0  0  0  0
 35 36  2  0  0  0  0
 35 34  1  0  0  0  0
M  END
>  <minimizedAffinity>
-4.62129545

>  <minimizedRMSD>
2.85272408

$$$$
