
 OpenBabel03272509493D

 36 39  0  0  0  0  0  0  0  0999 V2000
   37.3050   30.1510   51.4110 C   0  0  0  0  0  0  0  0  0  0  0  0
   37.8380   30.7580   50.2630 C   0  0  0  0  0  0  0  0  0  0  0  0
   37.2270   30.5390   49.0480 C   0  0  0  0  0  0  0  0  0  0  0  0
   36.1220   29.7320   49.0330 N   0  0  0  0  0  0  0  0  0  0  0  0
   35.6270   29.1580   50.1470 C   0  0  0  0  0  0  0  0  0  0  0  0
   36.2320   29.3790   51.3360 N   0  0  0  0  0  0  0  0  0  0  0  0
   37.7720   30.3140   52.3660 H   0  0  0  0  0  0  0  0  0  0  0  0
   38.6950   31.3760   50.3200 H   0  0  0  0  0  0  0  0  0  0  0  0
   37.0630   30.6880   46.6390 C   0  0  0  0  0  3  0  0  0  0  0  0
   37.6870   31.1130   47.7880 C   0  0  0  0  0  0  0  0  0  0  0  0
   38.6850   32.0260   47.7450 C   0  0  0  0  0  0  0  0  0  0  0  0
   39.1920   32.3800   48.6070 H   0  0  0  0  0  0  0  0  0  0  0  0
   39.1140   32.5630   46.5580 C   0  0  0  0  0  0  0  0  0  0  0  0
   40.0620   33.4670   46.2230 N   0  0  0  0  0  0  0  0  0  0  0  0
   40.6810   33.9440   46.9100 H   0  0  0  0  0  0  0  0  0  0  0  0
   40.1090   33.6720   44.8980 C   0  0  0  0  0  0  0  0  0  0  0  0
   40.7910   34.3530   44.4110 H   0  0  0  0  0  0  0  0  0  0  0  0
   39.1420   32.8620   44.3410 C   0  0  0  0  0  3  0  0  0  0  0  0
   38.5220   32.1730   45.3610 C   0  0  0  0  0  0  0  0  0  0  0  0
   37.4990   31.2320   45.4360 C   0  0  0  0  0  3  0  0  0  0  0  0
   34.5180   28.3870   49.9230 O   0  0  0  0  0  0  0  0  0  0  0  0
   33.7740   28.6280   48.7280 C   0  0  0  0  0  0  0  0  0  0  0  0
   34.5000   28.8540   47.9390 H   0  0  0  0  0  0  0  0  0  0  0  0
   33.1130   29.5210   48.9010 H   0  0  0  0  0  0  0  0  0  0  0  0
   32.8680   27.4620   48.4360 C   0  0  0  0  0  0  0  0  0  0  0  0
   32.9770   26.6410   49.1610 H   0  0  0  0  0  0  0  0  0  0  0  0
   33.1660   27.0920   47.4260 H   0  0  0  0  0  0  0  0  0  0  0  0
   31.4410   27.8710   48.3320 C   0  0  0  0  0  0  0  0  0  0  0  0
   30.6650   27.7280   49.4550 C   0  0  0  0  0  0  0  0  0  0  0  0
   29.3300   28.0770   49.4680 C   0  0  0  0  0  0  0  0  0  0  0  0
   28.7720   28.5680   48.3590 N   0  0  0  0  0  0  0  0  0  0  0  0
   29.5340   28.7070   47.2600 C   0  0  0  0  0  0  0  0  0  0  0  0
   30.8370   28.3760   47.2200 N   0  0  0  0  0  0  0  0  0  0  0  0
   31.0370   27.3420   50.3860 H   0  0  0  0  0  0  0  0  0  0  0  0
   28.7120   27.9610   50.3700 H   0  0  0  0  0  0  0  0  0  0  0  0
   29.0590   29.1070   46.3750 H   0  0  0  0  0  0  0  0  0  0  0  0
  1  7  1  0  0  0  0
  2  8  1  0  0  0  0
  2  1  2  0  0  0  0
  3  2  1  0  0  0  0
  4  3  2  0  0  0  0
  4  5  1  0  0  0  0
  5  6  2  0  0  0  0
  6  1  1  0  0  0  0
  9 10  1  0  0  0  0
 10  3  1  0  0  0  0
 11 10  2  0  0  0  0
 11 12  1  0  0  0  0
 13 11  1  0  0  0  0
 14 13  1  0  0  0  0
 14 15  1  0  0  0  0
 16 14  1  0  0  0  0
 17 16  1  0  0  0  0
 18 16  2  0  0  0  0
 18 19  1  0  0  0  0
 19 20  1  0  0  0  0
 19 13  2  0  0  0  0
 20  9  2  0  0  0  0
 21  5  1  0  0  0  0
 22 24  1  0  0  0  0
 22 21  1  0  0  0  0
 23 22  1  0  0  0  0
 25 22  1  0  0  0  0
 25 26  1  0  0  0  0
 27 25  1  0  0  0  0
 28 25  1  0  0  0  0
 28 29  1  0  0  0  0
 29 30  2  0  0  0  0
 29 34  1  0  0  0  0
 30 35  1  0  0  0  0
 31 30  1  0  0  0  0
 32 31  2  0  0  0  0
 33 32  1  0  0  0  0
 33 28  2  0  0  0  0
 36 32  1  0  0  0  0
M  END
>  <minimizedAffinity>
-6.89100456

>  <minimizedRMSD>
0.792667568

$$$$
