
 OpenBabel03262523223D

 36 39  0  0  1  0  0  0  0  0999 V2000
   38.3650   32.4480   46.3370 C   0  0  0  0  0  0  0  0  0  0  0  0
   38.1480   31.4790   45.3250 C   0  0  0  0  0  0  0  0  0  0  0  0
   37.5330   30.2690   45.6770 C   0  0  0  0  0  0  0  0  0  0  0  0
   37.1860   30.1080   46.9760 N   0  0  0  0  0  0  0  0  0  0  0  0
   37.3950   31.0310   47.9180 C   0  0  0  0  0  0  0  0  0  0  0  0
   37.9890   32.2130   47.6120 N   0  0  0  0  0  0  0  0  0  0  0  0
   36.9880   30.7960   49.2670 N   0  0  0  0  0  0  0  0  0  0  0  0
   37.8860   31.1000   50.3720 C   0  0  0  0  0  0  0  0  0  0  0  0
   37.7580   30.1800   51.5520 C   0  0  0  0  0  0  0  0  0  0  0  0
   37.0820   28.9160   51.0850 C   0  0  0  0  0  0  0  0  0  0  0  0
   35.6560   29.3220   50.7300 C   0  0  0  0  0  0  0  0  0  0  0  0
   35.6940   30.2630   49.5640 C   0  0  2  0  0  0  0  0  0  0  0  0
   38.8440   33.4050   46.0960 H   0  0  0  0  0  0  0  0  0  0  0  0
   38.4610   31.7070   44.3320 H   0  0  0  0  0  0  0  0  0  0  0  0
   37.3590   29.5230   44.9290 H   0  0  0  0  0  0  0  0  0  0  0  0
   38.9280   31.1700   50.0020 H   0  0  0  0  0  0  0  0  0  0  0  0
   37.5830   32.1220   50.7200 H   0  0  0  0  0  0  0  0  0  0  0  0
   37.1780   30.6360   52.3990 H   0  0  0  0  0  0  0  0  0  0  0  0
   38.7790   29.9270   51.8840 H   0  0  0  0  0  0  0  0  0  0  0  0
   37.5750   28.6200   50.1310 H   0  0  0  0  0  0  0  0  0  0  0  0
   37.1100   28.1080   51.8330 H   0  0  0  0  0  0  0  0  0  0  0  0
   34.9510   28.5030   50.6800 H   0  0  0  0  0  0  0  0  0  0  0  0
   35.3290   29.9270   51.6340 H   0  0  0  0  0  0  0  0  0  0  0  0
   35.0970   31.2170   49.8630 H   0  0  0  0  0  0  0  0  0  0  0  0
   34.7350   28.4730   47.9400 C   0  0  0  0  0  0  0  0  0  0  0  0
   34.9180   29.7490   48.4260 C   0  0  0  0  0  0  0  0  0  0  0  0
   34.1770   30.6920   47.6940 C   0  0  0  0  0  0  0  0  0  0  0  0
   34.2340   31.7550   47.9800 H   0  0  0  0  0  0  0  0  0  0  0  0
   33.3600   30.4140   46.6190 C   0  0  0  0  0  0  0  0  0  0  0  0
   32.6030   31.1900   45.8330 N   0  0  0  0  0  0  0  0  0  0  0  0
   32.4990   32.2430   45.9160 H   0  0  0  0  0  0  0  0  0  0  0  0
   32.0110   30.3860   44.9320 C   0  0  0  0  0  0  0  0  0  0  0  0
   31.3390   30.7190   44.1610 H   0  0  0  0  0  0  0  0  0  0  0  0
   32.3860   29.0820   45.1350 C   0  0  0  0  0  0  0  0  0  0  0  0
   33.2460   29.1010   46.2110 C   0  0  0  0  0  0  0  0  0  0  0  0
   33.9430   28.1510   46.8870 C   0  0  0  0  0  0  0  0  0  0  0  0
  1  6  1  0  0  0  0
  2  3  1  0  0  0  0
  2  1  2  0  0  0  0
  3  4  2  0  0  0  0
  4  5  1  0  0  0  0
  5  7  1  0  0  0  0
  6  5  2  0  0  0  0
  7 12  1  0  0  0  0
  7  8  1  0  0  0  0
  8 17  1  0  0  0  0
  8  9  1  0  0  0  0
  9 19  1  0  0  0  0
  9 18  1  0  0  0  0
 10  9  1  0  0  0  0
 10 21  1  0  0  0  0
 11 10  1  0  0  0  0
 11 23  1  0  0  0  0
 12 24  1  1  0  0  0
 12 11  1  0  0  0  0
 13  1  1  0  0  0  0
 14  2  1  0  0  0  0
 15  3  1  0  0  0  0
 16  8  1  0  0  0  0
 20 10  1  0  0  0  0
 22 11  1  0  0  0  0
 25 26  1  0  0  0  0
 26 12  1  0  0  0  0
 27 28  1  0  0  0  0
 27 26  2  0  0  0  0
 29 27  1  0  0  0  0
 30 31  1  0  0  0  0
 30 29  1  0  0  0  0
 32 34  2  0  0  0  0
 32 30  1  0  0  0  0
 33 32  1  0  0  0  0
 34 35  1  0  0  0  0
 35 29  2  0  0  0  0
 35 36  1  0  0  0  0
 36 25  2  0  0  0  0
M  END
>  <minimizedAffinity>
-5.43250895

>  <minimizedRMSD>
2.408499

$$$$
