
 OpenBabel03262521223D

 36 38  0  0  0  0  0  0  0  0999 V2000
   36.9130   27.1250   34.7990 C   0  0  0  0  0  0  0  0  0  0  0  0
   36.3260   26.1650   34.6260 H   0  0  0  0  0  0  0  0  0  0  0  0
   36.1180   27.7450   35.2810 H   0  0  0  0  0  0  0  0  0  0  0  0
   38.0500   26.8640   35.4610 C   0  0  0  0  0  0  0  0  0  0  0  0
   39.0050   27.0740   34.8950 H   0  0  0  0  0  0  0  0  0  0  0  0
   38.1860   27.3870   36.4310 H   0  0  0  0  0  0  0  0  0  0  0  0
   37.8600   25.5260   35.7040 O   0  0  0  0  0  0  0  0  0  0  0  0
   38.9680   24.7340   35.8700 C   0  0  0  0  0  0  0  0  0  0  0  0
   40.0300   25.1220   35.0730 C   0  0  0  0  0  0  0  0  0  0  0  0
   41.2380   24.4090   35.1280 C   0  0  0  0  0  0  0  0  0  0  0  0
   41.2760   23.3460   35.9960 N   0  0  0  0  0  0  0  0  0  0  0  0
   40.2080   22.9870   36.7710 C   0  0  0  0  0  0  0  0  0  0  0  0
   39.0630   23.6870   36.6990 N   0  0  0  0  0  0  0  0  0  0  0  0
   41.6230   21.2220   37.5520 C   0  0  0  0  0  0  0  0  0  0  0  0
   42.5850   21.5590   36.7970 O   0  0  0  0  0  0  0  0  0  0  0  0
   40.3660   21.8650   37.6320 N   0  0  0  0  0  0  0  0  0  0  0  0
   40.0370   25.9610   34.3700 H   0  0  0  0  0  0  0  0  0  0  0  0
   42.0730   24.6790   34.5300 H   0  0  0  0  0  0  0  0  0  0  0  0
   41.8470   20.3580   38.1640 H   0  0  0  0  0  0  0  0  0  0  0  0
   39.6030   21.5550   38.2660 H   0  0  0  0  0  0  0  0  0  0  0  0
   37.0840   27.7040   33.4130 C   0  0  0  0  0  0  0  0  0  0  0  0
   37.2400   26.8410   32.7080 H   0  0  0  0  0  0  0  0  0  0  0  0
   38.0170   28.3080   33.3020 H   0  0  0  0  0  0  0  0  0  0  0  0
   35.6920   28.6390   32.8350 S   0  0  0  0  0  0  0  0  0  0  0  0
   33.5140   29.4590   34.4840 C   0  0  0  0  0  3  0  0  0  0  0  0
   34.8470   29.5600   34.0740 C   0  0  0  0  0  0  0  0  0  0  0  0
   35.6070   30.5280   34.7400 C   0  0  0  0  0  0  0  0  0  0  0  0
   36.6660   30.6930   34.4970 H   0  0  0  0  0  0  0  0  0  0  0  0
   35.1160   31.3330   35.7240 C   0  0  0  0  0  0  0  0  0  0  0  0
   35.5840   32.3000   36.5020 N   0  0  0  0  0  0  0  0  0  0  0  0
   36.5710   32.6830   36.5000 H   0  0  0  0  0  0  0  0  0  0  0  0
   34.6340   32.7910   37.3500 C   0  0  0  0  0  0  0  0  0  0  0  0
   34.7010   33.5700   38.0950 H   0  0  0  0  0  0  0  0  0  0  0  0
   33.4790   32.0680   37.0780 C   0  0  0  0  0  3  0  0  0  0  0  0
   33.7950   31.1780   36.0770 C   0  0  0  0  0  0  0  0  0  0  0  0
   32.9870   30.2570   35.4760 C   0  0  0  0  0  3  0  0  0  0  0  0
  1  3  1  0  0  0  0
  1  4  1  0  0  0  0
  2  1  1  0  0  0  0
  4  7  1  0  0  0  0
  4  6  1  0  0  0  0
  5  4  1  0  0  0  0
  7  8  1  0  0  0  0
  8 13  1  0  0  0  0
  9 10  1  0  0  0  0
  9  8  2  0  0  0  0
 10 11  2  0  0  0  0
 11 12  1  0  0  0  0
 12 16  1  0  0  0  0
 13 12  2  0  0  0  0
 14 16  1  0  0  0  0
 14 19  1  0  0  0  0
 15 14  2  0  0  0  0
 16 20  1  0  0  0  0
 17  9  1  0  0  0  0
 18 10  1  0  0  0  0
 21  1  1  0  0  0  0
 22 21  1  0  0  0  0
 23 21  1  0  0  0  0
 24 21  1  0  0  0  0
 24 26  1  0  0  0  0
 25 36  1  0  0  0  0
 26 25  2  0  0  0  0
 26 27  1  0  0  0  0
 27 29  2  0  0  0  0
 28 27  1  0  0  0  0
 29 35  1  0  0  0  0
 29 30  1  0  0  0  0
 30 32  1  0  0  0  0
 31 30  1  0  0  0  0
 32 33  1  0  0  0  0
 34 32  2  0  0  0  0
 35 34  1  0  0  0  0
 36 35  2  0  0  0  0
M  END
>  <minimizedAffinity>
-5.4411211

$$$$

 OpenBabel03262521223D

 36 38  0  0  0  0  0  0  0  0999 V2000
   38.0030   27.5400   34.8540 C   0  0  0  0  0  0  0  0  0  0  0  0
   38.5470   28.5320   34.9780 H   0  0  0  0  0  0  0  0  0  0  0  0
   36.9460   27.9020   34.8940 H   0  0  0  0  0  0  0  0  0  0  0  0
   38.4480   26.8980   33.7630 C   0  0  0  0  0  0  0  0  0  0  0  0
   39.3690   27.3370   33.2780 H   0  0  0  0  0  0  0  0  0  0  0  0
   38.6940   25.8220   33.8920 H   0  0  0  0  0  0  0  0  0  0  0  0
   37.3300   27.0040   32.9730 O   0  0  0  0  0  0  0  0  0  0  0  0
   36.8200   25.8590   32.4160 C   0  0  0  0  0  0  0  0  0  0  0  0
   35.7440   26.1010   31.5820 C   0  0  0  0  0  0  0  0  0  0  0  0
   35.1100   25.0280   30.9360 C   0  0  0  0  0  0  0  0  0  0  0  0
   35.6210   23.7800   31.1890 N   0  0  0  0  0  0  0  0  0  0  0  0
   36.6870   23.5730   32.0200 C   0  0  0  0  0  0  0  0  0  0  0  0
   37.2760   24.6180   32.6260 N   0  0  0  0  0  0  0  0  0  0  0  0
   36.3690   21.2530   31.5240 C   0  0  0  0  0  0  0  0  0  0  0  0
   35.3620   21.4730   30.7840 O   0  0  0  0  0  0  0  0  0  0  0  0
   37.1280   22.2330   32.2070 N   0  0  0  0  0  0  0  0  0  0  0  0
   35.3080   27.0800   31.3570 H   0  0  0  0  0  0  0  0  0  0  0  0
   34.2810   25.1780   30.2890 H   0  0  0  0  0  0  0  0  0  0  0  0
   36.6190   20.2030   31.5980 H   0  0  0  0  0  0  0  0  0  0  0  0
   37.9480   22.0080   32.8050 H   0  0  0  0  0  0  0  0  0  0  0  0
   38.2320   26.8300   36.1680 C   0  0  0  0  0  0  0  0  0  0  0  0
   37.4820   27.2350   36.9010 H   0  0  0  0  0  0  0  0  0  0  0  0
   39.2170   27.0750   36.6330 H   0  0  0  0  0  0  0  0  0  0  0  0
   38.0280   25.0690   36.0910 S   0  0  0  0  0  0  0  0  0  0  0  0
   40.6350   24.3170   35.2130 C   0  0  0  0  0  3  0  0  0  0  0  0
   39.5260   24.1460   36.0470 C   0  0  0  0  0  0  0  0  0  0  0  0
   39.6250   23.0970   36.9680 C   0  0  0  0  0  0  0  0  0  0  0  0
   38.8110   22.8730   37.6710 H   0  0  0  0  0  0  0  0  0  0  0  0
   40.7100   22.2790   37.0730 C   0  0  0  0  0  0  0  0  0  0  0  0
   41.0690   21.2460   37.8210 N   0  0  0  0  0  0  0  0  0  0  0  0
   40.4930   20.7970   38.5890 H   0  0  0  0  0  0  0  0  0  0  0  0
   42.3110   20.7780   37.5020 C   0  0  0  0  0  0  0  0  0  0  0  0
   42.8770   19.9610   37.9230 H   0  0  0  0  0  0  0  0  0  0  0  0
   42.7630   21.5900   36.4690 C   0  0  0  0  0  3  0  0  0  0  0  0
   41.7650   22.5060   36.2200 C   0  0  0  0  0  0  0  0  0  0  0  0
   41.7480   23.5080   35.2930 C   0  0  0  0  0  3  0  0  0  0  0  0
  1  3  1  0  0  0  0
  1  2  1  0  0  0  0
  1 21  1  0  0  0  0
  4  6  1  0  0  0  0
  4  1  1  0  0  0  0
  5  4  1  0  0  0  0
  7  4  1  0  0  0  0
  8 13  1  0  0  0  0
  8  7  1  0  0  0  0
  9  8  2  0  0  0  0
 10 11  2  0  0  0  0
 10  9  1  0  0  0  0
 11 12  1  0  0  0  0
 12 16  1  0  0  0  0
 12 13  2  0  0  0  0
 14 19  1  0  0  0  0
 14 16  1  0  0  0  0
 15 14  2  0  0  0  0
 16 20  1  0  0  0  0
 17  9  1  0  0  0  0
 18 10  1  0  0  0  0
 21 23  1  0  0  0  0
 21 22  1  0  0  0  0
 24 21  1  0  0  0  0
 25 36  2  0  0  0  0
 25 26  1  0  0  0  0
 26 24  1  0  0  0  0
 26 27  2  0  0  0  0
 27 29  1  0  0  0  0
 27 28  1  0  0  0  0
 29 30  1  0  0  0  0
 30 31  1  0  0  0  0
 32 30  1  0  0  0  0
 32 33  1  0  0  0  0
 34 32  2  0  0  0  0
 35 34  1  0  0  0  0
 35 29  2  0  0  0  0
 36 35  1  0  0  0  0
M  END
>  <minimizedAffinity>
-5.36460209

$$$$

 OpenBabel03262521223D

 36 38  0  0  0  0  0  0  0  0999 V2000
   37.0680   27.4210   34.6040 C   0  0  0  0  0  0  0  0  0  0  0  0
   36.1790   26.7100   34.5730 H   0  0  0  0  0  0  0  0  0  0  0  0
   36.5380   28.3690   34.8660 H   0  0  0  0  0  0  0  0  0  0  0  0
   38.0190   26.9400   35.4190 C   0  0  0  0  0  0  0  0  0  0  0  0
   39.0490   26.8430   34.9650 H   0  0  0  0  0  0  0  0  0  0  0  0
   38.1890   27.5020   36.3620 H   0  0  0  0  0  0  0  0  0  0  0  0
   37.4560   25.7260   35.7230 O   0  0  0  0  0  0  0  0  0  0  0  0
   38.2620   24.7560   36.2630 C   0  0  0  0  0  0  0  0  0  0  0  0
   37.8930   24.4040   37.5480 C   0  0  0  0  0  0  0  0  0  0  0  0
   38.6230   23.4220   38.2380 C   0  0  0  0  0  0  0  0  0  0  0  0
   39.6820   22.8690   37.5640 N   0  0  0  0  0  0  0  0  0  0  0  0
   40.0230   23.2380   36.2920 C   0  0  0  0  0  0  0  0  0  0  0  0
   39.3070   24.1800   35.6540 N   0  0  0  0  0  0  0  0  0  0  0  0
   41.8040   21.6560   36.5230 C   0  0  0  0  0  0  0  0  0  0  0  0
   41.4830   21.3580   37.7130 O   0  0  0  0  0  0  0  0  0  0  0  0
   41.1430   22.5950   35.6950 N   0  0  0  0  0  0  0  0  0  0  0  0
   37.0570   24.8230   38.1170 H   0  0  0  0  0  0  0  0  0  0  0  0
   38.3660   23.1290   39.2260 H   0  0  0  0  0  0  0  0  0  0  0  0
   42.6680   21.1110   36.1670 H   0  0  0  0  0  0  0  0  0  0  0  0
   41.4400   22.8100   34.7230 H   0  0  0  0  0  0  0  0  0  0  0  0
   37.4670   27.5720   33.1540 C   0  0  0  0  0  0  0  0  0  0  0  0
   38.4650   27.0690   33.0290 H   0  0  0  0  0  0  0  0  0  0  0  0
   37.6660   28.6320   32.8620 H   0  0  0  0  0  0  0  0  0  0  0  0
   36.3330   26.8360   32.0040 S   0  0  0  0  0  0  0  0  0  0  0  0
   35.5070   24.1990   31.3030 C   0  0  0  0  0  3  0  0  0  0  0  0
   36.4110   25.0810   31.9010 C   0  0  0  0  0  0  0  0  0  0  0  0
   37.5250   24.4830   32.4990 C   0  0  0  0  0  0  0  0  0  0  0  0
   38.2990   25.0820   32.9990 H   0  0  0  0  0  0  0  0  0  0  0  0
   37.7470   23.1380   32.5180 C   0  0  0  0  0  0  0  0  0  0  0  0
   38.6770   22.3200   32.9900 N   0  0  0  0  0  0  0  0  0  0  0  0
   39.5480   22.6030   33.5220 H   0  0  0  0  0  0  0  0  0  0  0  0
   38.4030   21.0100   32.7230 C   0  0  0  0  0  0  0  0  0  0  0  0
   38.9570   20.1180   32.9720 H   0  0  0  0  0  0  0  0  0  0  0  0
   37.2010   21.0130   32.0250 C   0  0  0  0  0  3  0  0  0  0  0  0
   36.8150   22.3300   31.9090 C   0  0  0  0  0  0  0  0  0  0  0  0
   35.7010   22.8340   31.3030 C   0  0  0  0  0  3  0  0  0  0  0  0
  1  3  1  0  0  0  0
  1  4  1  0  0  0  0
  2  1  1  0  0  0  0
  4  7  1  0  0  0  0
  4  6  1  0  0  0  0
  5  4  1  0  0  0  0
  7  8  1  0  0  0  0
  8  9  1  0  0  0  0
  9 17  1  0  0  0  0
  9 10  2  0  0  0  0
 10 18  1  0  0  0  0
 11 10  1  0  0  0  0
 12 11  2  0  0  0  0
 13  8  2  0  0  0  0
 13 12  1  0  0  0  0
 14 15  2  0  0  0  0
 16 12  1  0  0  0  0
 16 14  1  0  0  0  0
 19 14  1  0  0  0  0
 20 16  1  0  0  0  0
 21  1  1  0  0  0  0
 22 21  1  0  0  0  0
 23 21  1  0  0  0  0
 24 21  1  0  0  0  0
 25 26  1  0  0  0  0
 26 24  1  0  0  0  0
 26 27  2  0  0  0  0
 27 29  1  0  0  0  0
 27 28  1  0  0  0  0
 29 30  1  0  0  0  0
 30 31  1  0  0  0  0
 32 33  1  0  0  0  0
 32 30  1  0  0  0  0
 34 32  2  0  0  0  0
 35 34  1  0  0  0  0
 35 29  2  0  0  0  0
 36 25  2  0  0  0  0
 36 35  1  0  0  0  0
M  END
>  <minimizedAffinity>
-5.17519426

$$$$

 OpenBabel03262521223D

 36 38  0  0  0  0  0  0  0  0999 V2000
   37.8230   27.1650   32.4580 C   0  0  0  0  0  0  0  0  0  0  0  0
   38.5530   26.8490   31.6420 H   0  0  0  0  0  0  0  0  0  0  0  0
   37.8420   28.2720   32.3050 H   0  0  0  0  0  0  0  0  0  0  0  0
   36.6690   26.4920   32.3350 C   0  0  0  0  0  0  0  0  0  0  0  0
   36.4060   25.8100   33.1960 H   0  0  0  0  0  0  0  0  0  0  0  0
   35.7560   27.1060   32.1840 H   0  0  0  0  0  0  0  0  0  0  0  0
   36.9360   25.8060   31.1760 O   0  0  0  0  0  0  0  0  0  0  0  0
   36.8830   24.4360   31.2090 C   0  0  0  0  0  0  0  0  0  0  0  0
   37.9920   23.8410   30.6350 C   0  0  0  0  0  0  0  0  0  0  0  0
   38.0850   22.4410   30.5900 C   0  0  0  0  0  0  0  0  0  0  0  0
   37.0360   21.7450   31.1360 N   0  0  0  0  0  0  0  0  0  0  0  0
   35.9520   22.3620   31.6970 C   0  0  0  0  0  0  0  0  0  0  0  0
   35.8880   23.7040   31.7270 N   0  0  0  0  0  0  0  0  0  0  0  0
   35.1370   20.1440   32.0780 C   0  0  0  0  0  0  0  0  0  0  0  0
   36.1400   19.6010   31.5230 O   0  0  0  0  0  0  0  0  0  0  0  0
   34.9240   21.5350   32.2300 N   0  0  0  0  0  0  0  0  0  0  0  0
   38.8450   24.3620   30.1890 H   0  0  0  0  0  0  0  0  0  0  0  0
   38.9220   21.9520   30.1560 H   0  0  0  0  0  0  0  0  0  0  0  0
   34.4160   19.4270   32.4480 H   0  0  0  0  0  0  0  0  0  0  0  0
   34.0860   21.9390   32.6920 H   0  0  0  0  0  0  0  0  0  0  0  0
   38.5840   26.9260   33.7420 C   0  0  0  0  0  0  0  0  0  0  0  0
   38.9480   27.9260   34.1050 H   0  0  0  0  0  0  0  0  0  0  0  0
   39.5230   26.3400   33.5930 H   0  0  0  0  0  0  0  0  0  0  0  0
   37.6170   26.1920   35.0360 S   0  0  0  0  0  0  0  0  0  0  0  0
   38.0670   24.3530   37.1690 C   0  0  0  0  0  3  0  0  0  0  0  0
   38.4310   24.9240   35.9460 C   0  0  0  0  0  0  0  0  0  0  0  0
   39.6020   24.4170   35.3740 C   0  0  0  0  0  0  0  0  0  0  0  0
   39.9820   24.7930   34.4130 H   0  0  0  0  0  0  0  0  0  0  0  0
   40.3610   23.4350   35.9390 C   0  0  0  0  0  0  0  0  0  0  0  0
   41.4750   22.7830   35.6380 N   0  0  0  0  0  0  0  0  0  0  0  0
   42.0710   22.9270   34.7740 H   0  0  0  0  0  0  0  0  0  0  0  0
   41.8120   21.8620   36.5870 C   0  0  0  0  0  0  0  0  0  0  0  0
   42.6500   21.1820   36.6310 H   0  0  0  0  0  0  0  0  0  0  0  0
   40.8230   21.9480   37.5600 C   0  0  0  0  0  3  0  0  0  0  0  0
   39.9410   22.9200   37.1440 C   0  0  0  0  0  0  0  0  0  0  0  0
   38.8110   23.3600   37.7690 C   0  0  0  0  0  3  0  0  0  0  0  0
  1 21  1  0  0  0  0
  2  1  1  0  0  0  0
  3  1  1  0  0  0  0
  4  1  1  0  0  0  0
  4  5  1  0  0  0  0
  6  4  1  0  0  0  0
  7  8  1  0  0  0  0
  7  4  1  0  0  0  0
  8 13  1  0  0  0  0
  9  8  2  0  0  0  0
 10  9  1  0  0  0  0
 10 11  2  0  0  0  0
 11 12  1  0  0  0  0
 12 13  2  0  0  0  0
 12 16  1  0  0  0  0
 14 16  1  0  0  0  0
 14 19  1  0  0  0  0
 15 14  2  0  0  0  0
 16 20  1  0  0  0  0
 17  9  1  0  0  0  0
 18 10  1  0  0  0  0
 21 22  1  0  0  0  0
 21 24  1  0  0  0  0
 23 21  1  0  0  0  0
 24 26  1  0  0  0  0
 25 36  1  0  0  0  0
 26 25  2  0  0  0  0
 27 29  2  0  0  0  0
 27 26  1  0  0  0  0
 28 27  1  0  0  0  0
 29 35  1  0  0  0  0
 30 29  1  0  0  0  0
 30 32  1  0  0  0  0
 31 30  1  0  0  0  0
 32 33  1  0  0  0  0
 32 34  2  0  0  0  0
 35 34  1  0  0  0  0
 35 36  2  0  0  0  0
M  END
>  <minimizedAffinity>
-5.09585047

$$$$

 OpenBabel03262521223D

 36 38  0  0  0  0  0  0  0  0999 V2000
   36.1770   27.5170   31.8550 C   0  0  0  0  0  0  0  0  0  0  0  0
   36.3230   26.7020   32.6360 H   0  0  0  0  0  0  0  0  0  0  0  0
   35.9800   26.8810   30.9570 H   0  0  0  0  0  0  0  0  0  0  0  0
   35.2520   28.3970   32.2670 C   0  0  0  0  0  0  0  0  0  0  0  0
   35.0610   29.2680   31.5730 H   0  0  0  0  0  0  0  0  0  0  0  0
   34.2410   27.9870   32.4750 H   0  0  0  0  0  0  0  0  0  0  0  0
   35.8260   28.7800   33.4540 O   0  0  0  0  0  0  0  0  0  0  0  0
   35.0970   29.5820   34.2960 C   0  0  0  0  0  0  0  0  0  0  0  0
   35.8780   30.5060   34.9670 C   0  0  0  0  0  0  0  0  0  0  0  0
   35.2770   31.3990   35.8680 C   0  0  0  0  0  0  0  0  0  0  0  0
   33.9190   31.2860   36.0210 N   0  0  0  0  0  0  0  0  0  0  0  0
   33.1740   30.3610   35.3430 C   0  0  0  0  0  0  0  0  0  0  0  0
   33.7730   29.5170   34.4850 N   0  0  0  0  0  0  0  0  0  0  0  0
   31.3150   31.2680   36.5460 C   0  0  0  0  0  0  0  0  0  0  0  0
   32.0360   32.0930   37.1850 O   0  0  0  0  0  0  0  0  0  0  0  0
   31.7720   30.3370   35.5850 N   0  0  0  0  0  0  0  0  0  0  0  0
   36.9620   30.6250   34.8730 H   0  0  0  0  0  0  0  0  0  0  0  0
   35.8470   32.1200   36.4000 H   0  0  0  0  0  0  0  0  0  0  0  0
   30.2660   31.3330   36.8050 H   0  0  0  0  0  0  0  0  0  0  0  0
   31.1450   29.6760   35.0840 H   0  0  0  0  0  0  0  0  0  0  0  0
   37.5650   28.0800   31.6490 C   0  0  0  0  0  0  0  0  0  0  0  0
   37.6010   29.0770   32.1670 H   0  0  0  0  0  0  0  0  0  0  0  0
   37.7840   28.3270   30.5820 H   0  0  0  0  0  0  0  0  0  0  0  0
   38.8670   27.0710   32.3090 S   0  0  0  0  0  0  0  0  0  0  0  0
   38.5400   27.2310   35.1380 C   0  0  0  0  0  3  0  0  0  0  0  0
   38.6030   26.4950   33.9510 C   0  0  0  0  0  0  0  0  0  0  0  0
   38.4350   25.1130   34.0940 C   0  0  0  0  0  0  0  0  0  0  0  0
   38.4660   24.4380   33.2270 H   0  0  0  0  0  0  0  0  0  0  0  0
   38.2230   24.4930   35.2900 C   0  0  0  0  0  0  0  0  0  0  0  0
   38.0360   23.2510   35.7120 N   0  0  0  0  0  0  0  0  0  0  0  0
   38.0150   22.3810   35.1090 H   0  0  0  0  0  0  0  0  0  0  0  0
   37.8660   23.1810   37.0650 C   0  0  0  0  0  0  0  0  0  0  0  0
   37.6950   22.3260   37.7020 H   0  0  0  0  0  0  0  0  0  0  0  0
   37.9530   24.4900   37.5220 C   0  0  0  0  0  3  0  0  0  0  0  0
   38.1730   25.2820   36.4170 C   0  0  0  0  0  0  0  0  0  0  0  0
   38.3270   26.6360   36.3630 C   0  0  0  0  0  3  0  0  0  0  0  0
  1  4  1  0  0  0  0
  1  2  1  0  0  0  0
  3  1  1  0  0  0  0
  4  6  1  0  0  0  0
  4  7  1  0  0  0  0
  5  4  1  0  0  0  0
  7  8  1  0  0  0  0
  8 13  2  0  0  0  0
  8  9  1  0  0  0  0
  9 10  2  0  0  0  0
 10 11  1  0  0  0  0
 10 18  1  0  0  0  0
 12 16  1  0  0  0  0
 12 11  2  0  0  0  0
 13 12  1  0  0  0  0
 14 19  1  0  0  0  0
 14 15  2  0  0  0  0
 16 14  1  0  0  0  0
 17  9  1  0  0  0  0
 20 16  1  0  0  0  0
 21  1  1  0  0  0  0
 21 22  1  0  0  0  0
 21 24  1  0  0  0  0
 23 21  1  0  0  0  0
 24 26  1  0  0  0  0
 25 36  1  0  0  0  0
 26 27  1  0  0  0  0
 26 25  2  0  0  0  0
 27 29  2  0  0  0  0
 28 27  1  0  0  0  0
 29 30  1  0  0  0  0
 29 35  1  0  0  0  0
 30 32  1  0  0  0  0
 31 30  1  0  0  0  0
 32 34  2  0  0  0  0
 32 33  1  0  0  0  0
 35 34  1  0  0  0  0
 36 35  2  0  0  0  0
M  END
>  <minimizedAffinity>
-5.09408665

$$$$

 OpenBabel03262521223D

 36 38  0  0  0  0  0  0  0  0999 V2000
   42.8820   25.3660   34.7920 C   0  0  0  0  0  0  0  0  0  0  0  0
   43.8330   25.8710   35.1630 H   0  0  0  0  0  0  0  0  0  0  0  0
   42.4900   24.9720   35.7620 H   0  0  0  0  0  0  0  0  0  0  0  0
   42.1470   26.2280   34.0740 C   0  0  0  0  0  0  0  0  0  0  0  0
   42.6830   27.1620   33.7320 H   0  0  0  0  0  0  0  0  0  0  0  0
   41.6810   25.8260   33.1490 H   0  0  0  0  0  0  0  0  0  0  0  0
   41.1580   26.4890   34.9900 O   0  0  0  0  0  0  0  0  0  0  0  0
   39.9140   26.8270   34.5200 C   0  0  0  0  0  0  0  0  0  0  0  0
   39.0050   27.0730   35.5340 C   0  0  0  0  0  0  0  0  0  0  0  0
   37.6860   27.4300   35.2130 C   0  0  0  0  0  0  0  0  0  0  0  0
   37.3870   27.5120   33.8770 N   0  0  0  0  0  0  0  0  0  0  0  0
   38.3080   27.2630   32.8970 C   0  0  0  0  0  0  0  0  0  0  0  0
   39.5650   26.9230   33.2310 N   0  0  0  0  0  0  0  0  0  0  0  0
   36.5150   27.7060   31.3750 C   0  0  0  0  0  0  0  0  0  0  0  0
   35.6750   27.8990   32.3060 O   0  0  0  0  0  0  0  0  0  0  0  0
   37.8810   27.3770   31.5450 N   0  0  0  0  0  0  0  0  0  0  0  0
   39.2060   27.0160   36.6080 H   0  0  0  0  0  0  0  0  0  0  0  0
   36.9630   27.6250   35.9670 H   0  0  0  0  0  0  0  0  0  0  0  0
   36.0870   27.8170   30.3880 H   0  0  0  0  0  0  0  0  0  0  0  0
   38.5360   27.2270   30.7530 H   0  0  0  0  0  0  0  0  0  0  0  0
   43.3820   24.1520   34.0410 C   0  0  0  0  0  0  0  0  0  0  0  0
   44.4360   23.9600   34.3820 H   0  0  0  0  0  0  0  0  0  0  0  0
   43.4870   24.3290   32.9430 H   0  0  0  0  0  0  0  0  0  0  0  0
   42.4350   22.6790   34.3240 S   0  0  0  0  0  0  0  0  0  0  0  0
   39.6430   23.2530   34.3970 C   0  0  0  0  0  3  0  0  0  0  0  0
   40.8460   22.9390   35.0350 C   0  0  0  0  0  0  0  0  0  0  0  0
   40.7720   22.8190   36.4270 C   0  0  0  0  0  0  0  0  0  0  0  0
   41.6580   22.5760   37.0300 H   0  0  0  0  0  0  0  0  0  0  0  0
   39.6260   22.9890   37.1440 C   0  0  0  0  0  0  0  0  0  0  0  0
   39.2700   22.9390   38.4200 N   0  0  0  0  0  0  0  0  0  0  0  0
   39.9060   22.7280   39.2400 H   0  0  0  0  0  0  0  0  0  0  0  0
   37.9420   23.2000   38.6010 C   0  0  0  0  0  0  0  0  0  0  0  0
   37.3570   23.2340   39.5070 H   0  0  0  0  0  0  0  0  0  0  0  0
   37.4290   23.4300   37.3300 C   0  0  0  0  0  3  0  0  0  0  0  0
   38.4780   23.2960   36.4490 C   0  0  0  0  0  0  0  0  0  0  0  0
   38.4660   23.4310   35.0910 C   0  0  0  0  0  3  0  0  0  0  0  0
  1  2  1  0  0  0  0
  1  3  1  0  0  0  0
  4  1  1  0  0  0  0
  4  7  1  0  0  0  0
  5  4  1  0  0  0  0
  6  4  1  0  0  0  0
  8  7  1  0  0  0  0
  8  9  1  0  0  0  0
  9 17  1  0  0  0  0
 10  9  2  0  0  0  0
 10 18  1  0  0  0  0
 11 10  1  0  0  0  0
 12 13  1  0  0  0  0
 12 11  2  0  0  0  0
 13  8  2  0  0  0  0
 14 16  1  0  0  0  0
 14 15  2  0  0  0  0
 16 12  1  0  0  0  0
 19 14  1  0  0  0  0
 20 16  1  0  0  0  0
 21 24  1  0  0  0  0
 21 22  1  0  0  0  0
 21  1  1  0  0  0  0
 23 21  1  0  0  0  0
 24 26  1  0  0  0  0
 25 26  2  0  0  0  0
 25 36  1  0  0  0  0
 26 27  1  0  0  0  0
 27 28  1  0  0  0  0
 27 29  2  0  0  0  0
 29 30  1  0  0  0  0
 30 32  1  0  0  0  0
 30 31  1  0  0  0  0
 32 33  1  0  0  0  0
 34 32  2  0  0  0  0
 35 29  1  0  0  0  0
 35 34  1  0  0  0  0
 36 35  2  0  0  0  0
M  END
>  <minimizedAffinity>
-5.01620722

$$$$

 OpenBabel03262521223D

 36 38  0  0  0  0  0  0  0  0999 V2000
   35.7030   20.9780   31.6350 C   0  0  0  0  0  0  0  0  0  0  0  0
   34.6840   21.3840   31.9430 H   0  0  0  0  0  0  0  0  0  0  0  0
   35.3840   20.0150   31.1640 H   0  0  0  0  0  0  0  0  0  0  0  0
   36.3680   21.8890   30.9100 C   0  0  0  0  0  0  0  0  0  0  0  0
   37.4310   22.0920   31.2340 H   0  0  0  0  0  0  0  0  0  0  0  0
   36.4490   21.6870   29.8210 H   0  0  0  0  0  0  0  0  0  0  0  0
   35.5400   22.9680   31.0980 O   0  0  0  0  0  0  0  0  0  0  0  0
   36.0970   24.2210   31.0900 C   0  0  0  0  0  0  0  0  0  0  0  0
   37.4230   24.2170   30.6970 C   0  0  0  0  0  0  0  0  0  0  0  0
   38.1350   25.4250   30.6380 C   0  0  0  0  0  0  0  0  0  0  0  0
   37.4410   26.5560   30.9860 N   0  0  0  0  0  0  0  0  0  0  0  0
   36.1280   26.5280   31.3710 C   0  0  0  0  0  0  0  0  0  0  0  0
   35.4700   25.3580   31.4180 N   0  0  0  0  0  0  0  0  0  0  0  0
   36.3640   28.8950   31.6420 C   0  0  0  0  0  0  0  0  0  0  0  0
   37.5890   28.8850   31.3120 O   0  0  0  0  0  0  0  0  0  0  0  0
   35.5140   27.7660   31.7100 N   0  0  0  0  0  0  0  0  0  0  0  0
   38.0100   23.3370   30.4140 H   0  0  0  0  0  0  0  0  0  0  0  0
   39.1540   25.4570   30.3410 H   0  0  0  0  0  0  0  0  0  0  0  0
   35.9970   29.8840   31.8800 H   0  0  0  0  0  0  0  0  0  0  0  0
   34.5130   27.8180   31.9850 H   0  0  0  0  0  0  0  0  0  0  0  0
   36.3510   20.5870   32.9440 C   0  0  0  0  0  0  0  0  0  0  0  0
   36.4600   19.4680   32.9410 H   0  0  0  0  0  0  0  0  0  0  0  0
   35.7030   20.7870   33.8310 H   0  0  0  0  0  0  0  0  0  0  0  0
   37.9580   21.2930   33.2020 S   0  0  0  0  0  0  0  0  0  0  0  0
   38.1660   23.9570   34.2000 C   0  0  0  0  0  3  0  0  0  0  0  0
   38.0220   22.5810   34.4000 C   0  0  0  0  0  0  0  0  0  0  0  0
   37.9180   22.1780   35.7360 C   0  0  0  0  0  0  0  0  0  0  0  0
   37.8020   21.1190   36.0090 H   0  0  0  0  0  0  0  0  0  0  0  0
   37.9500   23.0370   36.7930 C   0  0  0  0  0  0  0  0  0  0  0  0
   37.8770   22.9450   38.1130 N   0  0  0  0  0  0  0  0  0  0  0  0
   37.7640   22.0540   38.6740 H   0  0  0  0  0  0  0  0  0  0  0  0
   37.9660   24.1610   38.7260 C   0  0  0  0  0  0  0  0  0  0  0  0
   37.9400   24.4170   39.7750 H   0  0  0  0  0  0  0  0  0  0  0  0
   38.1060   25.0890   37.7000 C   0  0  0  0  0  3  0  0  0  0  0  0
   38.0940   24.3780   36.5210 C   0  0  0  0  0  0  0  0  0  0  0  0
   38.2020   24.8530   35.2460 C   0  0  0  0  0  3  0  0  0  0  0  0
  1  2  1  0  0  0  0
  1 21  1  0  0  0  0
  3  1  1  0  0  0  0
  4  7  1  0  0  0  0
  4  5  1  0  0  0  0
  4  1  1  0  0  0  0
  6  4  1  0  0  0  0
  8  7  1  0  0  0  0
  8 13  1  0  0  0  0
  9  8  2  0  0  0  0
 10  9  1  0  0  0  0
 10 11  2  0  0  0  0
 11 12  1  0  0  0  0
 12 13  2  0  0  0  0
 12 16  1  0  0  0  0
 14 16  1  0  0  0  0
 14 19  1  0  0  0  0
 15 14  2  0  0  0  0
 16 20  1  0  0  0  0
 17  9  1  0  0  0  0
 18 10  1  0  0  0  0
 21 24  1  0  0  0  0
 21 23  1  0  0  0  0
 22 21  1  0  0  0  0
 24 26  1  0  0  0  0
 25 26  2  0  0  0  0
 25 36  1  0  0  0  0
 26 27  1  0  0  0  0
 27 28  1  0  0  0  0
 27 29  2  0  0  0  0
 29 30  1  0  0  0  0
 30 31  1  0  0  0  0
 30 32  1  0  0  0  0
 32 33  1  0  0  0  0
 34 32  2  0  0  0  0
 35 29  1  0  0  0  0
 35 34  1  0  0  0  0
 36 35  2  0  0  0  0
M  END
>  <minimizedAffinity>
-5.00270033

$$$$

 OpenBabel03262521223D

 36 38  0  0  0  0  0  0  0  0999 V2000
   37.3490   26.9920   31.4750 C   0  0  0  0  0  0  0  0  0  0  0  0
   36.9360   27.5680   30.5840 H   0  0  0  0  0  0  0  0  0  0  0  0
   37.3440   27.8060   32.2420 H   0  0  0  0  0  0  0  0  0  0  0  0
   36.6330   25.8760   31.6800 C   0  0  0  0  0  0  0  0  0  0  0  0
   36.6240   25.4880   32.7410 H   0  0  0  0  0  0  0  0  0  0  0  0
   35.5600   25.9210   31.3970 H   0  0  0  0  0  0  0  0  0  0  0  0
   37.2840   25.0340   30.8120 O   0  0  0  0  0  0  0  0  0  0  0  0
   37.0900   23.6840   30.9530 C   0  0  0  0  0  0  0  0  0  0  0  0
   38.1720   22.9380   30.5230 C   0  0  0  0  0  0  0  0  0  0  0  0
   38.1270   21.5370   30.6010 C   0  0  0  0  0  0  0  0  0  0  0  0
   36.9750   20.9950   31.1150 N   0  0  0  0  0  0  0  0  0  0  0  0
   35.9210   21.7600   31.5320 C   0  0  0  0  0  0  0  0  0  0  0  0
   35.9910   23.1000   31.4470 N   0  0  0  0  0  0  0  0  0  0  0  0
   34.8600   19.6720   32.0270 C   0  0  0  0  0  0  0  0  0  0  0  0
   35.8410   18.9890   31.6020 O   0  0  0  0  0  0  0  0  0  0  0  0
   34.7780   21.0850   32.0460 N   0  0  0  0  0  0  0  0  0  0  0  0
   39.1050   23.3330   30.1070 H   0  0  0  0  0  0  0  0  0  0  0  0
   38.9400   20.9340   30.2790 H   0  0  0  0  0  0  0  0  0  0  0  0
   34.0450   19.0630   32.3950 H   0  0  0  0  0  0  0  0  0  0  0  0
   33.9540   21.6070   32.4030 H   0  0  0  0  0  0  0  0  0  0  0  0
   38.8050   26.7780   31.1300 C   0  0  0  0  0  0  0  0  0  0  0  0
   39.0840   27.5540   30.3650 H   0  0  0  0  0  0  0  0  0  0  0  0
   38.9940   25.8100   30.6060 H   0  0  0  0  0  0  0  0  0  0  0  0
   39.9130   26.9410   32.5070 S   0  0  0  0  0  0  0  0  0  0  0  0
   38.8630   27.1870   35.1470 C   0  0  0  0  0  3  0  0  0  0  0  0
   39.2620   26.4120   34.0540 C   0  0  0  0  0  0  0  0  0  0  0  0
   39.1250   25.0300   34.2180 C   0  0  0  0  0  0  0  0  0  0  0  0
   39.4090   24.3260   33.4230 H   0  0  0  0  0  0  0  0  0  0  0  0
   38.6410   24.4430   35.3500 C   0  0  0  0  0  0  0  0  0  0  0  0
   38.4080   23.2090   35.7730 N   0  0  0  0  0  0  0  0  0  0  0  0
   38.5830   22.3170   35.2290 H   0  0  0  0  0  0  0  0  0  0  0  0
   37.8990   23.1790   37.0390 C   0  0  0  0  0  0  0  0  0  0  0  0
   37.6100   22.3410   37.6540 H   0  0  0  0  0  0  0  0  0  0  0  0
   37.8070   24.5080   37.4370 C   0  0  0  0  0  3  0  0  0  0  0  0
   38.2680   25.2690   36.3860 C   0  0  0  0  0  0  0  0  0  0  0  0
   38.3700   26.6270   36.3050 C   0  0  0  0  0  3  0  0  0  0  0  0
  1  4  1  0  0  0  0
  1  3  1  0  0  0  0
  2  1  1  0  0  0  0
  4  5  1  0  0  0  0
  6  4  1  0  0  0  0
  7  8  1  0  0  0  0
  7  4  1  0  0  0  0
  8 13  1  0  0  0  0
  9 10  1  0  0  0  0
  9  8  2  0  0  0  0
 10 11  2  0  0  0  0
 11 12  1  0  0  0  0
 12 16  1  0  0  0  0
 13 12  2  0  0  0  0
 14 16  1  0  0  0  0
 14 19  1  0  0  0  0
 15 14  2  0  0  0  0
 16 20  1  0  0  0  0
 17  9  1  0  0  0  0
 18 10  1  0  0  0  0
 21  1  1  0  0  0  0
 21 24  1  0  0  0  0
 22 21  1  0  0  0  0
 23 21  1  0  0  0  0
 24 26  1  0  0  0  0
 25 36  1  0  0  0  0
 26 27  1  0  0  0  0
 26 25  2  0  0  0  0
 27 29  2  0  0  0  0
 28 27  1  0  0  0  0
 29 30  1  0  0  0  0
 29 35  1  0  0  0  0
 30 32  1  0  0  0  0
 31 30  1  0  0  0  0
 32 34  2  0  0  0  0
 32 33  1  0  0  0  0
 35 34  1  0  0  0  0
 36 35  2  0  0  0  0
M  END
>  <minimizedAffinity>
-4.91274071

$$$$

 OpenBabel03262521223D

 36 38  0  0  0  0  0  0  0  0999 V2000
   35.8610   21.9410   31.3870 C   0  0  0  0  0  0  0  0  0  0  0  0
   35.2980   21.4690   30.5190 H   0  0  0  0  0  0  0  0  0  0  0  0
   35.1620   21.6890   32.2220 H   0  0  0  0  0  0  0  0  0  0  0  0
   37.1270   21.4960   31.4190 C   0  0  0  0  0  0  0  0  0  0  0  0
   37.4300   20.8220   30.5640 H   0  0  0  0  0  0  0  0  0  0  0  0
   37.9210   22.2720   31.4490 H   0  0  0  0  0  0  0  0  0  0  0  0
   37.1000   20.8430   32.6260 O   0  0  0  0  0  0  0  0  0  0  0  0
   37.6490   21.4720   33.7140 C   0  0  0  0  0  0  0  0  0  0  0  0
   38.9510   21.8860   33.4960 C   0  0  0  0  0  0  0  0  0  0  0  0
   39.6520   22.5460   34.5180 C   0  0  0  0  0  0  0  0  0  0  0  0
   38.9720   22.7370   35.6940 N   0  0  0  0  0  0  0  0  0  0  0  0
   37.6840   22.3160   35.8800 C   0  0  0  0  0  0  0  0  0  0  0  0
   37.0360   21.6860   34.8850 N   0  0  0  0  0  0  0  0  0  0  0  0
   37.9220   23.2070   38.0890 C   0  0  0  0  0  0  0  0  0  0  0  0
   39.1260   23.5570   37.8970 O   0  0  0  0  0  0  0  0  0  0  0  0
   37.0830   22.5690   37.1450 N   0  0  0  0  0  0  0  0  0  0  0  0
   39.5250   21.7510   32.5740 H   0  0  0  0  0  0  0  0  0  0  0  0
   40.6520   22.8770   34.3830 H   0  0  0  0  0  0  0  0  0  0  0  0
   37.5630   23.4450   39.0810 H   0  0  0  0  0  0  0  0  0  0  0  0
   36.1000   22.2980   37.3430 H   0  0  0  0  0  0  0  0  0  0  0  0
   35.6990   23.4270   31.1650 C   0  0  0  0  0  0  0  0  0  0  0  0
   35.3580   23.8750   32.1380 H   0  0  0  0  0  0  0  0  0  0  0  0
   34.8730   23.6760   30.4550 H   0  0  0  0  0  0  0  0  0  0  0  0
   37.1860   24.2580   30.6700 S   0  0  0  0  0  0  0  0  0  0  0  0
   39.1160   25.9940   31.8500 C   0  0  0  0  0  3  0  0  0  0  0  0
   37.9740   25.1940   31.9350 C   0  0  0  0  0  0  0  0  0  0  0  0
   37.3810   25.1290   33.2010 C   0  0  0  0  0  0  0  0  0  0  0  0
   36.4790   24.5290   33.3830 H   0  0  0  0  0  0  0  0  0  0  0  0
   37.8560   25.7870   34.2970 C   0  0  0  0  0  0  0  0  0  0  0  0
   37.5160   25.9070   35.5720 N   0  0  0  0  0  0  0  0  0  0  0  0
   36.6900   25.4450   36.0460 H   0  0  0  0  0  0  0  0  0  0  0  0
   38.3670   26.7200   36.2640 C   0  0  0  0  0  0  0  0  0  0  0  0
   38.3600   27.0130   37.3030 H   0  0  0  0  0  0  0  0  0  0  0  0
   39.3160   27.1410   35.3400 C   0  0  0  0  0  3  0  0  0  0  0  0
   38.9860   26.5570   34.1380 C   0  0  0  0  0  0  0  0  0  0  0  0
   39.6230   26.6730   32.9370 C   0  0  0  0  0  3  0  0  0  0  0  0
  1  4  1  0  0  0  0
  1  3  1  0  0  0  0
  2  1  1  0  0  0  0
  4  6  1  0  0  0  0
  4  7  1  0  0  0  0
  5  4  1  0  0  0  0
  7  8  1  0  0  0  0
  8 13  1  0  0  0  0
  9  8  2  0  0  0  0
  9 10  1  0  0  0  0
 10 11  2  0  0  0  0
 11 12  1  0  0  0  0
 12 16  1  0  0  0  0
 13 12  2  0  0  0  0
 14 19  1  0  0  0  0
 15 14  2  0  0  0  0
 16 20  1  0  0  0  0
 16 14  1  0  0  0  0
 17  9  1  0  0  0  0
 18 10  1  0  0  0  0
 21  1  1  0  0  0  0
 21 22  1  0  0  0  0
 23 21  1  0  0  0  0
 24 21  1  0  0  0  0
 24 26  1  0  0  0  0
 25 26  2  0  0  0  0
 25 36  1  0  0  0  0
 26 27  1  0  0  0  0
 27 28  1  0  0  0  0
 27 29  2  0  0  0  0
 29 30  1  0  0  0  0
 30 31  1  0  0  0  0
 30 32  1  0  0  0  0
 32 33  1  0  0  0  0
 34 32  2  0  0  0  0
 35 29  1  0  0  0  0
 35 34  1  0  0  0  0
 36 35  2  0  0  0  0
M  END
>  <minimizedAffinity>
-4.90937567

$$$$
