
 OpenBabel03272504133D

 24 26  0  0  0  0  0  0  0  0999 V2000
   38.3320   23.7100   37.0600 C   0  0  0  0  0  0  0  0  0  0  0  0
   37.8830   24.8540   36.3800 C   0  0  0  0  0  0  0  0  0  0  0  0
   37.9320   24.8550   34.9890 C   0  0  0  0  0  0  0  0  0  0  0  0
   38.4110   23.7480   34.3620 N   0  0  0  0  0  0  0  0  0  0  0  0
   38.8360   22.6610   35.0590 C   0  0  0  0  0  0  0  0  0  0  0  0
   38.7960   22.6450   36.3960 N   0  0  0  0  0  0  0  0  0  0  0  0
   37.5090   25.7140   36.8950 H   0  0  0  0  0  0  0  0  0  0  0  0
   39.1980   21.8370   34.4530 H   0  0  0  0  0  0  0  0  0  0  0  0
   37.0170   27.0850   34.8500 C   0  0  0  0  0  3  0  0  0  0  0  0
   37.4940   25.9810   34.1740 C   0  0  0  0  0  0  0  0  0  0  0  0
   37.5310   25.9950   32.8150 C   0  0  0  0  0  0  0  0  0  0  0  0
   37.8960   25.1510   32.2720 H   0  0  0  0  0  0  0  0  0  0  0  0
   37.0960   27.1040   32.1190 C   0  0  0  0  0  0  0  0  0  0  0  0
   37.0360   27.3500   30.8120 N   0  0  0  0  0  0  0  0  0  0  0  0
   37.3350   26.6850   30.0550 H   0  0  0  0  0  0  0  0  0  0  0  0
   36.5400   28.5740   30.5640 C   0  0  0  0  0  0  0  0  0  0  0  0
   36.3480   29.1090   29.6310 H   0  0  0  0  0  0  0  0  0  0  0  0
   36.2780   29.1090   31.8100 C   0  0  0  0  0  3  0  0  0  0  0  0
   36.6180   28.2090   32.7940 C   0  0  0  0  0  0  0  0  0  0  0  0
   36.5680   28.2240   34.1770 C   0  0  0  0  0  3  0  0  0  0  0  0
   38.2810   23.7190   38.5560 C   0  0  0  0  0  0  0  0  0  0  0  0
   37.9250   24.9690   39.0120 F   0  0  0  0  0  0  0  0  0  0  0  0
   37.3910   22.7400   38.9380 F   0  0  0  0  0  0  0  0  0  0  0  0
   39.5460   23.4350   39.0260 F   0  0  0  0  0  0  0  0  0  0  0  0
  1 21  1  0  0  0  0
  2  7  1  0  0  0  0
  2  1  2  0  0  0  0
  3  2  1  0  0  0  0
  4  3  2  0  0  0  0
  4  5  1  0  0  0  0
  5  6  2  0  0  0  0
  6  1  1  0  0  0  0
  8  5  1  0  0  0  0
 10  9  2  0  0  0  0
 10  3  1  0  0  0  0
 11 10  1  0  0  0  0
 12 11  1  0  0  0  0
 13 19  1  0  0  0  0
 13 11  2  0  0  0  0
 14 13  1  0  0  0  0
 15 14  1  0  0  0  0
 16 14  1  0  0  0  0
 16 18  2  0  0  0  0
 17 16  1  0  0  0  0
 18 19  1  0  0  0  0
 19 20  2  0  0  0  0
 20  9  1  0  0  0  0
 21 23  1  0  0  0  0
 21 22  1  0  0  0  0
 21 24  1  0  0  0  0
M  END
>  <minimizedAffinity>
-5.97903728

$$$$

 OpenBabel03272504133D

 24 26  0  0  0  0  0  0  0  0999 V2000
   40.0190   23.0230   37.0740 C   0  0  0  0  0  0  0  0  0  0  0  0
   39.6170   23.8480   36.0110 C   0  0  0  0  0  0  0  0  0  0  0  0
   38.4550   24.6000   36.1630 C   0  0  0  0  0  0  0  0  0  0  0  0
   37.7720   24.4960   37.3340 N   0  0  0  0  0  0  0  0  0  0  0  0
   38.1960   23.6840   38.3390 C   0  0  0  0  0  0  0  0  0  0  0  0
   39.3100   22.9550   38.2080 N   0  0  0  0  0  0  0  0  0  0  0  0
   40.1720   23.9150   35.0990 H   0  0  0  0  0  0  0  0  0  0  0  0
   37.5700   23.6820   39.2250 H   0  0  0  0  0  0  0  0  0  0  0  0
   37.6740   26.7900   35.5130 C   0  0  0  0  0  3  0  0  0  0  0  0
   37.9390   25.4910   35.1330 C   0  0  0  0  0  0  0  0  0  0  0  0
   37.7120   25.1120   33.8460 C   0  0  0  0  0  0  0  0  0  0  0  0
   37.9090   24.1120   33.5300 H   0  0  0  0  0  0  0  0  0  0  0  0
   37.2200   26.0210   32.9310 C   0  0  0  0  0  0  0  0  0  0  0  0
   36.9220   25.8890   31.6400 N   0  0  0  0  0  0  0  0  0  0  0  0
   37.0250   25.0060   31.0810 H   0  0  0  0  0  0  0  0  0  0  0  0
   36.4660   27.0420   31.1210 C   0  0  0  0  0  0  0  0  0  0  0  0
   36.1300   27.3080   30.1160 H   0  0  0  0  0  0  0  0  0  0  0  0
   36.4860   27.9370   32.1720 C   0  0  0  0  0  3  0  0  0  0  0  0
   36.9540   27.3200   33.3110 C   0  0  0  0  0  0  0  0  0  0  0  0
   37.1750   27.7350   34.6130 C   0  0  0  0  0  3  0  0  0  0  0  0
   41.2660   22.2140   36.9010 C   0  0  0  0  0  0  0  0  0  0  0  0
   41.4010   21.3200   37.9400 F   0  0  0  0  0  0  0  0  0  0  0  0
   41.1810   21.5940   35.6740 F   0  0  0  0  0  0  0  0  0  0  0  0
   42.3400   23.0770   36.9350 F   0  0  0  0  0  0  0  0  0  0  0  0
  1  6  1  0  0  0  0
  2  3  1  0  0  0  0
  2  1  2  0  0  0  0
  3  4  2  0  0  0  0
  4  5  1  0  0  0  0
  5  8  1  0  0  0  0
  6  5  2  0  0  0  0
  7  2  1  0  0  0  0
 10  9  1  0  0  0  0
 10  3  1  0  0  0  0
 11 10  2  0  0  0  0
 12 11  1  0  0  0  0
 13 19  2  0  0  0  0
 13 11  1  0  0  0  0
 14 13  1  0  0  0  0
 15 14  1  0  0  0  0
 16 14  1  0  0  0  0
 16 18  2  0  0  0  0
 17 16  1  0  0  0  0
 18 19  1  0  0  0  0
 19 20  1  0  0  0  0
 20  9  2  0  0  0  0
 21 24  1  0  0  0  0
 21  1  1  0  0  0  0
 21 22  1  0  0  0  0
 23 21  1  0  0  0  0
M  END
>  <minimizedAffinity>
-5.54573345

$$$$

 OpenBabel03272504133D

 24 26  0  0  0  0  0  0  0  0999 V2000
   38.3210   23.7100   36.8630 C   0  0  0  0  0  0  0  0  0  0  0  0
   37.7940   22.6220   36.1490 C   0  0  0  0  0  0  0  0  0  0  0  0
   37.8330   22.6650   34.7580 C   0  0  0  0  0  0  0  0  0  0  0  0
   38.3810   23.7580   34.1650 N   0  0  0  0  0  0  0  0  0  0  0  0
   38.8810   24.7910   34.8940 C   0  0  0  0  0  0  0  0  0  0  0  0
   38.8500   24.7650   36.2310 N   0  0  0  0  0  0  0  0  0  0  0  0
   37.3680   21.7710   36.6380 H   0  0  0  0  0  0  0  0  0  0  0  0
   39.2920   25.6100   34.3120 H   0  0  0  0  0  0  0  0  0  0  0  0
   36.1330   21.0120   34.3040 C   0  0  0  0  0  3  0  0  0  0  0  0
   37.3180   21.5970   33.9110 C   0  0  0  0  0  0  0  0  0  0  0  0
   37.9360   21.1610   32.7800 C   0  0  0  0  0  0  0  0  0  0  0  0
   38.8540   21.5990   32.4570 H   0  0  0  0  0  0  0  0  0  0  0  0
   37.3790   20.1420   32.0340 C   0  0  0  0  0  0  0  0  0  0  0  0
   37.7890   19.5550   30.9110 N   0  0  0  0  0  0  0  0  0  0  0  0
   38.6650   19.7980   30.3840 H   0  0  0  0  0  0  0  0  0  0  0  0
   36.9350   18.5940   30.5190 C   0  0  0  0  0  0  0  0  0  0  0  0
   36.9430   17.9140   29.6640 H   0  0  0  0  0  0  0  0  0  0  0  0
   35.9360   18.5970   31.4730 C   0  0  0  0  0  3  0  0  0  0  0  0
   36.1940   19.5560   32.4260 C   0  0  0  0  0  0  0  0  0  0  0  0
   35.5430   19.9780   33.5720 C   0  0  0  0  0  3  0  0  0  0  0  0
   38.2700   23.6590   38.3580 C   0  0  0  0  0  0  0  0  0  0  0  0
   37.2840   22.7910   38.7700 F   0  0  0  0  0  0  0  0  0  0  0  0
   39.5230   23.2870   38.7940 F   0  0  0  0  0  0  0  0  0  0  0  0
   37.9510   24.9200   38.8150 F   0  0  0  0  0  0  0  0  0  0  0  0
  1 21  1  0  0  0  0
  2  7  1  0  0  0  0
  2  1  2  0  0  0  0
  3  2  1  0  0  0  0
  4  3  2  0  0  0  0
  4  5  1  0  0  0  0
  5  6  2  0  0  0  0
  6  1  1  0  0  0  0
  8  5  1  0  0  0  0
 10  9  1  0  0  0  0
 10  3  1  0  0  0  0
 11 10  2  0  0  0  0
 12 11  1  0  0  0  0
 13 19  2  0  0  0  0
 13 11  1  0  0  0  0
 14 13  1  0  0  0  0
 15 14  1  0  0  0  0
 16 14  1  0  0  0  0
 16 18  2  0  0  0  0
 17 16  1  0  0  0  0
 18 19  1  0  0  0  0
 19 20  1  0  0  0  0
 20  9  2  0  0  0  0
 21 22  1  0  0  0  0
 21 23  1  0  0  0  0
 21 24  1  0  0  0  0
M  END
>  <minimizedAffinity>
-5.47443151

$$$$

 OpenBabel03272504133D

 24 26  0  0  0  0  0  0  0  0999 V2000
   40.0750   22.9910   37.1120 C   0  0  0  0  0  0  0  0  0  0  0  0
   39.6460   23.7700   36.0250 C   0  0  0  0  0  0  0  0  0  0  0  0
   38.4810   24.5190   36.1700 C   0  0  0  0  0  0  0  0  0  0  0  0
   37.8220   24.4570   37.3570 N   0  0  0  0  0  0  0  0  0  0  0  0
   38.2720   23.6900   38.3850 C   0  0  0  0  0  0  0  0  0  0  0  0
   39.3890   22.9640   38.2610 N   0  0  0  0  0  0  0  0  0  0  0  0
   40.1820   23.8040   35.1000 H   0  0  0  0  0  0  0  0  0  0  0  0
   37.6640   23.7190   39.2830 H   0  0  0  0  0  0  0  0  0  0  0  0
   37.9940   24.8640   33.8300 C   0  0  0  0  0  3  0  0  0  0  0  0
   37.9390   25.3640   35.1150 C   0  0  0  0  0  0  0  0  0  0  0  0
   37.3940   26.5930   35.3300 C   0  0  0  0  0  0  0  0  0  0  0  0
   37.3420   26.9990   36.3150 H   0  0  0  0  0  0  0  0  0  0  0  0
   36.9020   27.3290   34.2720 C   0  0  0  0  0  0  0  0  0  0  0  0
   36.3340   28.5330   34.2320 N   0  0  0  0  0  0  0  0  0  0  0  0
   36.1620   29.1500   35.0650 H   0  0  0  0  0  0  0  0  0  0  0  0
   35.9980   28.8770   32.9770 C   0  0  0  0  0  0  0  0  0  0  0  0
   35.5230   29.7710   32.5680 H   0  0  0  0  0  0  0  0  0  0  0  0
   36.3920   27.8060   32.1990 C   0  0  0  0  0  3  0  0  0  0  0  0
   36.9580   26.8300   32.9870 C   0  0  0  0  0  0  0  0  0  0  0  0
   37.5060   25.5840   32.7370 C   0  0  0  0  0  3  0  0  0  0  0  0
   41.3240   22.1840   36.9460 C   0  0  0  0  0  0  0  0  0  0  0  0
   42.4220   23.0140   36.8960 F   0  0  0  0  0  0  0  0  0  0  0  0
   41.3770   21.2960   37.9980 F   0  0  0  0  0  0  0  0  0  0  0  0
   41.2400   21.5110   35.7470 F   0  0  0  0  0  0  0  0  0  0  0  0
  1  6  1  0  0  0  0
  2  3  1  0  0  0  0
  2  1  2  0  0  0  0
  3  4  2  0  0  0  0
  4  5  1  0  0  0  0
  5  8  1  0  0  0  0
  6  5  2  0  0  0  0
  7  2  1  0  0  0  0
  9 10  1  0  0  0  0
 10 11  2  0  0  0  0
 10  3  1  0  0  0  0
 11 12  1  0  0  0  0
 13 11  1  0  0  0  0
 14 13  1  0  0  0  0
 14 15  1  0  0  0  0
 16 14  1  0  0  0  0
 17 16  1  0  0  0  0
 18 16  2  0  0  0  0
 18 19  1  0  0  0  0
 19 13  2  0  0  0  0
 20 19  1  0  0  0  0
 20  9  2  0  0  0  0
 21  1  1  0  0  0  0
 21 23  1  0  0  0  0
 22 21  1  0  0  0  0
 24 21  1  0  0  0  0
M  END
>  <minimizedAffinity>
-5.40819216

$$$$

 OpenBabel03272504133D

 24 26  0  0  0  0  0  0  0  0999 V2000
   36.4330   27.9570   33.8970 C   0  0  0  0  0  0  0  0  0  0  0  0
   37.0920   27.1490   34.8380 C   0  0  0  0  0  0  0  0  0  0  0  0
   37.6150   25.9310   34.4110 C   0  0  0  0  0  0  0  0  0  0  0  0
   37.4610   25.5900   33.1040 N   0  0  0  0  0  0  0  0  0  0  0  0
   36.8160   26.4020   32.2250 C   0  0  0  0  0  0  0  0  0  0  0  0
   36.3080   27.5750   32.6200 N   0  0  0  0  0  0  0  0  0  0  0  0
   37.2020   27.4390   35.8620 H   0  0  0  0  0  0  0  0  0  0  0  0
   36.7540   26.0250   31.2090 H   0  0  0  0  0  0  0  0  0  0  0  0
   37.7720   24.8130   36.5450 C   0  0  0  0  0  3  0  0  0  0  0  0
   38.3180   25.0100   35.2930 C   0  0  0  0  0  0  0  0  0  0  0  0
   39.4580   24.3510   34.9510 C   0  0  0  0  0  0  0  0  0  0  0  0
   39.8980   24.4890   33.9890 H   0  0  0  0  0  0  0  0  0  0  0  0
   40.0610   23.4950   35.8490 C   0  0  0  0  0  0  0  0  0  0  0  0
   41.1620   22.7520   35.7470 N   0  0  0  0  0  0  0  0  0  0  0  0
   41.7830   22.7030   34.9010 H   0  0  0  0  0  0  0  0  0  0  0  0
   41.3920   22.0560   36.8730 C   0  0  0  0  0  0  0  0  0  0  0  0
   42.1840   21.3570   37.1500 H   0  0  0  0  0  0  0  0  0  0  0  0
   40.3580   22.4020   37.7210 C   0  0  0  0  0  3  0  0  0  0  0  0
   39.5160   23.2980   37.1010 C   0  0  0  0  0  0  0  0  0  0  0  0
   38.3570   23.9540   37.4780 C   0  0  0  0  0  3  0  0  0  0  0  0
   35.8700   29.2620   34.3650 C   0  0  0  0  0  0  0  0  0  0  0  0
   36.5470   29.6990   35.4820 F   0  0  0  0  0  0  0  0  0  0  0  0
   35.9580   30.1440   33.3110 F   0  0  0  0  0  0  0  0  0  0  0  0
   34.5530   29.0540   34.7150 F   0  0  0  0  0  0  0  0  0  0  0  0
  1 21  1  0  0  0  0
  1  2  1  0  0  0  0
  2  7  1  0  0  0  0
  3  2  2  0  0  0  0
  3 10  1  0  0  0  0
  4  3  1  0  0  0  0
  5  6  1  0  0  0  0
  5  4  2  0  0  0  0
  6  1  2  0  0  0  0
  8  5  1  0  0  0  0
  9 20  1  0  0  0  0
 10  9  2  0  0  0  0
 11 10  1  0  0  0  0
 11 13  2  0  0  0  0
 12 11  1  0  0  0  0
 13 19  1  0  0  0  0
 14 13  1  0  0  0  0
 14 16  1  0  0  0  0
 15 14  1  0  0  0  0
 16 17  1  0  0  0  0
 16 18  2  0  0  0  0
 19 20  2  0  0  0  0
 19 18  1  0  0  0  0
 21 24  1  0  0  0  0
 21 22  1  0  0  0  0
 23 21  1  0  0  0  0
M  END
>  <minimizedAffinity>
-5.34625387

$$$$

 OpenBabel03272504133D

 24 26  0  0  0  0  0  0  0  0999 V2000
   36.0190   28.8850   33.9380 C   0  0  0  0  0  0  0  0  0  0  0  0
   36.8030   27.9780   34.6680 C   0  0  0  0  0  0  0  0  0  0  0  0
   37.2090   26.8030   34.0420 C   0  0  0  0  0  0  0  0  0  0  0  0
   36.8230   26.5960   32.7540 N   0  0  0  0  0  0  0  0  0  0  0  0
   36.0630   27.5010   32.0830 C   0  0  0  0  0  0  0  0  0  0  0  0
   35.6650   28.6350   32.6710 N   0  0  0  0  0  0  0  0  0  0  0  0
   37.0960   28.1630   35.6810 H   0  0  0  0  0  0  0  0  0  0  0  0
   35.8160   27.2290   31.0620 H   0  0  0  0  0  0  0  0  0  0  0  0
   39.0930   25.2940   33.9770 C   0  0  0  0  0  3  0  0  0  0  0  0
   38.0240   25.7890   34.6960 C   0  0  0  0  0  0  0  0  0  0  0  0
   37.7870   25.3160   35.9500 C   0  0  0  0  0  0  0  0  0  0  0  0
   36.9660   25.6840   36.5230 H   0  0  0  0  0  0  0  0  0  0  0  0
   38.6100   24.3530   36.4960 C   0  0  0  0  0  0  0  0  0  0  0  0
   38.5810   23.7460   37.6810 N   0  0  0  0  0  0  0  0  0  0  0  0
   37.8730   23.9250   38.4370 H   0  0  0  0  0  0  0  0  0  0  0  0
   39.5840   22.8600   37.8040 C   0  0  0  0  0  0  0  0  0  0  0  0
   39.8710   22.1910   38.6190 H   0  0  0  0  0  0  0  0  0  0  0  0
   40.2700   22.9320   36.6080 C   0  0  0  0  0  3  0  0  0  0  0  0
   39.6790   23.8580   35.7780 C   0  0  0  0  0  0  0  0  0  0  0  0
   39.9450   24.3180   34.5000 C   0  0  0  0  0  3  0  0  0  0  0  0
   35.5830   30.1440   34.6200 C   0  0  0  0  0  0  0  0  0  0  0  0
   36.3950   30.4040   35.7010 F   0  0  0  0  0  0  0  0  0  0  0  0
   35.6140   31.1490   33.6780 F   0  0  0  0  0  0  0  0  0  0  0  0
   34.2990   29.9530   35.0830 F   0  0  0  0  0  0  0  0  0  0  0  0
  1 21  1  0  0  0  0
  1  2  1  0  0  0  0
  2  7  1  0  0  0  0
  3  2  2  0  0  0  0
  3 10  1  0  0  0  0
  4  3  1  0  0  0  0
  5  6  1  0  0  0  0
  5  4  2  0  0  0  0
  6  1  2  0  0  0  0
  8  5  1  0  0  0  0
  9 20  2  0  0  0  0
  9 10  1  0  0  0  0
 10 11  2  0  0  0  0
 11 13  1  0  0  0  0
 11 12  1  0  0  0  0
 13 14  1  0  0  0  0
 14 16  1  0  0  0  0
 14 15  1  0  0  0  0
 16 17  1  0  0  0  0
 18 16  2  0  0  0  0
 19 13  2  0  0  0  0
 19 18  1  0  0  0  0
 20 19  1  0  0  0  0
 21 24  1  0  0  0  0
 21 22  1  0  0  0  0
 23 21  1  0  0  0  0
M  END
>  <minimizedAffinity>
-5.24721479

$$$$

 OpenBabel03272504133D

 24 26  0  0  0  0  0  0  0  0999 V2000
   36.5960   26.6770   32.5670 C   0  0  0  0  0  0  0  0  0  0  0  0
   37.2940   25.6800   33.2680 C   0  0  0  0  0  0  0  0  0  0  0  0
   37.6530   25.9310   34.5890 C   0  0  0  0  0  0  0  0  0  0  0  0
   37.3080   27.1290   35.1310 N   0  0  0  0  0  0  0  0  0  0  0  0
   36.6310   28.0670   34.4180 C   0  0  0  0  0  0  0  0  0  0  0  0
   36.2790   27.8410   33.1470 N   0  0  0  0  0  0  0  0  0  0  0  0
   37.5540   24.7440   32.8200 H   0  0  0  0  0  0  0  0  0  0  0  0
   36.4100   28.9850   34.9540 H   0  0  0  0  0  0  0  0  0  0  0  0
   37.8020   24.6420   36.6250 C   0  0  0  0  0  3  0  0  0  0  0  0
   38.3780   24.9760   35.4160 C   0  0  0  0  0  0  0  0  0  0  0  0
   39.5640   24.4120   35.0630 C   0  0  0  0  0  0  0  0  0  0  0  0
   40.0280   24.6570   34.1340 H   0  0  0  0  0  0  0  0  0  0  0  0
   40.1850   23.5140   35.9070 C   0  0  0  0  0  0  0  0  0  0  0  0
   41.3290   22.8440   35.7840 N   0  0  0  0  0  0  0  0  0  0  0  0
   41.9810   22.9030   34.9610 H   0  0  0  0  0  0  0  0  0  0  0  0
   41.5610   22.0660   36.8550 C   0  0  0  0  0  0  0  0  0  0  0  0
   42.3820   21.3890   37.1010 H   0  0  0  0  0  0  0  0  0  0  0  0
   40.4810   22.2800   37.6880 C   0  0  0  0  0  3  0  0  0  0  0  0
   39.6110   23.1800   37.1160 C   0  0  0  0  0  0  0  0  0  0  0  0
   38.4050   23.7370   37.5030 C   0  0  0  0  0  3  0  0  0  0  0  0
   36.2180   26.4010   31.1460 C   0  0  0  0  0  0  0  0  0  0  0  0
   36.1390   27.5790   30.4370 F   0  0  0  0  0  0  0  0  0  0  0  0
   37.1600   25.5350   30.6350 F   0  0  0  0  0  0  0  0  0  0  0  0
   34.9700   25.8150   31.1440 F   0  0  0  0  0  0  0  0  0  0  0  0
  1  6  2  0  0  0  0
  1  2  1  0  0  0  0
  2  3  2  0  0  0  0
  3  4  1  0  0  0  0
  3 10  1  0  0  0  0
  5  8  1  0  0  0  0
  5  4  2  0  0  0  0
  6  5  1  0  0  0  0
  7  2  1  0  0  0  0
  9 20  1  0  0  0  0
 10  9  2  0  0  0  0
 11 10  1  0  0  0  0
 11 13  2  0  0  0  0
 12 11  1  0  0  0  0
 13 19  1  0  0  0  0
 14 13  1  0  0  0  0
 14 16  1  0  0  0  0
 15 14  1  0  0  0  0
 16 17  1  0  0  0  0
 16 18  2  0  0  0  0
 19 20  2  0  0  0  0
 19 18  1  0  0  0  0
 21  1  1  0  0  0  0
 22 21  1  0  0  0  0
 23 21  1  0  0  0  0
 24 21  1  0  0  0  0
M  END
>  <minimizedAffinity>
-5.2413578

$$$$

 OpenBabel03272504133D

 24 26  0  0  0  0  0  0  0  0999 V2000
   38.1660   24.1310   36.9140 C   0  0  0  0  0  0  0  0  0  0  0  0
   38.1200   23.0640   36.0020 C   0  0  0  0  0  0  0  0  0  0  0  0
   38.0530   23.3610   34.6440 C   0  0  0  0  0  0  0  0  0  0  0  0
   38.0370   24.6680   34.2720 N   0  0  0  0  0  0  0  0  0  0  0  0
   38.0840   25.6710   35.1890 C   0  0  0  0  0  0  0  0  0  0  0  0
   38.1480   25.4020   36.4970 N   0  0  0  0  0  0  0  0  0  0  0  0
   38.1350   22.0420   36.3180 H   0  0  0  0  0  0  0  0  0  0  0  0
   38.0650   26.6740   34.7760 H   0  0  0  0  0  0  0  0  0  0  0  0
   39.1600   21.6270   33.3790 C   0  0  0  0  0  3  0  0  0  0  0  0
   38.0010   22.3410   33.6050 C   0  0  0  0  0  0  0  0  0  0  0  0
   36.8930   22.0670   32.8640 C   0  0  0  0  0  0  0  0  0  0  0  0
   35.9860   22.6070   33.0220 H   0  0  0  0  0  0  0  0  0  0  0  0
   36.9300   21.0830   31.8980 C   0  0  0  0  0  0  0  0  0  0  0  0
   35.9910   20.6410   31.0620 N   0  0  0  0  0  0  0  0  0  0  0  0
   35.0060   21.0040   31.0100 H   0  0  0  0  0  0  0  0  0  0  0  0
   36.4580   19.6560   30.2760 C   0  0  0  0  0  0  0  0  0  0  0  0
   35.9850   19.0660   29.4870 H   0  0  0  0  0  0  0  0  0  0  0  0
   37.7730   19.4890   30.6600 C   0  0  0  0  0  3  0  0  0  0  0  0
   38.0870   20.3690   31.6710 C   0  0  0  0  0  0  0  0  0  0  0  0
   39.2310   20.6250   32.4080 C   0  0  0  0  0  3  0  0  0  0  0  0
   38.2330   23.8030   38.3730 C   0  0  0  0  0  0  0  0  0  0  0  0
   38.0490   24.9430   39.1250 F   0  0  0  0  0  0  0  0  0  0  0  0
   37.2750   22.8440   38.6190 F   0  0  0  0  0  0  0  0  0  0  0  0
   39.4920   23.3110   38.6410 F   0  0  0  0  0  0  0  0  0  0  0  0
  1 21  1  0  0  0  0
  2  7  1  0  0  0  0
  2  1  2  0  0  0  0
  3  2  1  0  0  0  0
  4  3  2  0  0  0  0
  4  5  1  0  0  0  0
  5  6  2  0  0  0  0
  6  1  1  0  0  0  0
  8  5  1  0  0  0  0
  9 10  1  0  0  0  0
 10  3  1  0  0  0  0
 11 12  1  0  0  0  0
 11 10  2  0  0  0  0
 13 11  1  0  0  0  0
 14 13  1  0  0  0  0
 15 14  1  0  0  0  0
 16 18  2  0  0  0  0
 16 14  1  0  0  0  0
 17 16  1  0  0  0  0
 18 19  1  0  0  0  0
 19 13  2  0  0  0  0
 19 20  1  0  0  0  0
 20  9  2  0  0  0  0
 21 23  1  0  0  0  0
 21 24  1  0  0  0  0
 21 22  1  0  0  0  0
M  END
>  <minimizedAffinity>
-5.2225666

$$$$

 OpenBabel03272504133D

 24 26  0  0  0  0  0  0  0  0999 V2000
   40.2870   22.8630   35.9420 C   0  0  0  0  0  0  0  0  0  0  0  0
   39.5640   24.0620   35.8300 C   0  0  0  0  0  0  0  0  0  0  0  0
   38.9490   24.3490   34.6140 C   0  0  0  0  0  0  0  0  0  0  0  0
   39.0800   23.4520   33.6010 N   0  0  0  0  0  0  0  0  0  0  0  0
   39.7890   22.3020   33.7520 C   0  0  0  0  0  0  0  0  0  0  0  0
   40.3860   22.0120   34.9140 N   0  0  0  0  0  0  0  0  0  0  0  0
   39.4740   24.7520   36.6420 H   0  0  0  0  0  0  0  0  0  0  0  0
   39.8250   21.6640   32.8760 H   0  0  0  0  0  0  0  0  0  0  0  0
   38.1800   26.5060   35.3810 C   0  0  0  0  0  3  0  0  0  0  0  0
   38.1730   25.5590   34.3770 C   0  0  0  0  0  0  0  0  0  0  0  0
   37.4600   25.7940   33.2430 C   0  0  0  0  0  0  0  0  0  0  0  0
   37.4390   25.0760   32.4550 H   0  0  0  0  0  0  0  0  0  0  0  0
   36.7510   26.9690   33.1000 C   0  0  0  0  0  0  0  0  0  0  0  0
   35.9920   27.4170   32.1010 N   0  0  0  0  0  0  0  0  0  0  0  0
   35.8060   26.9040   31.2040 H   0  0  0  0  0  0  0  0  0  0  0  0
   35.4810   28.6290   32.3780 C   0  0  0  0  0  0  0  0  0  0  0  0
   34.8260   29.2930   31.8080 H   0  0  0  0  0  0  0  0  0  0  0  0
   35.9620   28.9380   33.6350 C   0  0  0  0  0  3  0  0  0  0  0  0
   36.7570   27.9160   34.1030 C   0  0  0  0  0  0  0  0  0  0  0  0
   37.4730   27.7050   35.2680 C   0  0  0  0  0  3  0  0  0  0  0  0
   40.9500   22.5640   37.2500 C   0  0  0  0  0  0  0  0  0  0  0  0
   40.1700   23.0160   38.2920 F   0  0  0  0  0  0  0  0  0  0  0  0
   41.1630   21.2040   37.2970 F   0  0  0  0  0  0  0  0  0  0  0  0
   42.1480   23.2440   37.2850 F   0  0  0  0  0  0  0  0  0  0  0  0
  1 21  1  0  0  0  0
  2  1  1  0  0  0  0
  2  7  1  0  0  0  0
  3  2  2  0  0  0  0
  4  5  2  0  0  0  0
  4  3  1  0  0  0  0
  5  6  1  0  0  0  0
  6  1  2  0  0  0  0
  8  5  1  0  0  0  0
 10  3  1  0  0  0  0
 10  9  2  0  0  0  0
 11 10  1  0  0  0  0
 12 11  1  0  0  0  0
 13 11  2  0  0  0  0
 13 19  1  0  0  0  0
 14 16  1  0  0  0  0
 14 13  1  0  0  0  0
 15 14  1  0  0  0  0
 16 18  2  0  0  0  0
 17 16  1  0  0  0  0
 18 19  1  0  0  0  0
 19 20  2  0  0  0  0
 20  9  1  0  0  0  0
 21 24  1  0  0  0  0
 21 23  1  0  0  0  0
 21 22  1  0  0  0  0
M  END
>  <minimizedAffinity>
-5.10036707

$$$$
