
 OpenBabel03272510193D

 39 43  0  0  0  0  0  0  0  0999 V2000
   32.7960   29.3290   46.8800 C   0  0  0  0  0  0  0  0  0  0  0  0
   31.8880   28.3090   46.7550 C   0  0  0  0  0  0  0  0  0  0  0  0
   30.8310   28.3540   45.8590 C   0  0  0  0  0  0  0  0  0  0  0  0
   30.6710   29.4250   45.0760 N   0  0  0  0  0  0  0  0  0  0  0  0
   31.5500   30.4280   45.1870 C   0  0  0  0  0  0  0  0  0  0  0  0
   32.5630   30.3650   46.0580 N   0  0  0  0  0  0  0  0  0  0  0  0
   32.0070   27.4250   47.3910 H   0  0  0  0  0  0  0  0  0  0  0  0
   30.1360   27.5090   45.8030 H   0  0  0  0  0  0  0  0  0  0  0  0
   30.2500   32.2350   44.0570 C   0  0  0  0  0  3  0  0  0  0  0  0
   31.4510   31.6360   44.3700 C   0  0  0  0  0  0  0  0  0  0  0  0
   32.5710   32.2810   43.8420 C   0  0  0  0  0  0  0  0  0  0  0  0
   33.5310   31.8080   44.0880 H   0  0  0  0  0  0  0  0  0  0  0  0
   32.4840   33.4190   43.0720 C   0  0  0  0  0  0  0  0  0  0  0  0
   33.4940   34.1050   42.5240 N   0  0  0  0  0  0  0  0  0  0  0  0
   34.5270   33.8920   42.5870 H   0  0  0  0  0  0  0  0  0  0  0  0
   32.9280   35.1240   41.8720 C   0  0  0  0  0  0  0  0  0  0  0  0
   33.4720   35.8750   41.3170 H   0  0  0  0  0  0  0  0  0  0  0  0
   31.5360   35.0810   42.0120 C   0  0  0  0  0  3  0  0  0  0  0  0
   31.2590   33.9690   42.7930 C   0  0  0  0  0  0  0  0  0  0  0  0
   30.1180   33.3720   43.2900 C   0  0  0  0  0  3  0  0  0  0  0  0
   37.4760   29.1980   50.8460 Br  0  0  0  0  0  0  0  0  0  0  0  0
   36.0420   29.2760   49.5940 C   0  0  0  0  0  0  0  0  0  0  0  0
   36.0030   30.2690   48.6180 C   0  0  0  0  0  0  0  0  0  0  0  0
   34.9410   30.2670   47.7490 C   0  0  0  0  0  0  0  0  0  0  0  0
   33.9190   29.3270   47.8040 C   0  0  0  0  0  0  0  0  0  0  0  0
   33.9880   28.3680   48.7720 C   0  0  0  0  0  0  0  0  0  0  0  0
   35.0450   28.3570   49.6500 C   0  0  0  0  0  0  0  0  0  0  0  0
   34.8440   31.0190   46.9530 H   0  0  0  0  0  0  0  0  0  0  0  0
   33.2290   27.6010   48.8790 H   0  0  0  0  0  0  0  0  0  0  0  0
   35.0920   27.6000   50.4090 H   0  0  0  0  0  0  0  0  0  0  0  0
   38.0300   33.1970   49.4310 C   0  0  0  0  0  0  0  0  0  0  0  0
   39.0320   33.1960   48.4170 C   0  0  0  0  0  0  0  0  0  0  0  0
   38.9870   32.1850   47.4760 C   0  0  0  0  0  0  0  0  0  0  0  0
   37.9960   31.2480   47.5610 N   0  0  0  0  0  0  0  0  0  0  0  0
   37.0550   31.2680   48.5310 C   0  0  0  0  0  0  0  0  0  0  0  0
   37.0880   32.2520   49.4590 N   0  0  0  0  0  0  0  0  0  0  0  0
   38.1070   34.0060   50.1430 H   0  0  0  0  0  0  0  0  0  0  0  0
   39.8230   33.9130   48.3190 H   0  0  0  0  0  0  0  0  0  0  0  0
   39.6810   32.0680   46.6600 H   0  0  0  0  0  0  0  0  0  0  0  0
  1 25  1  0  0  0  0
  2  1  1  0  0  0  0
  2  7  1  0  0  0  0
  3  2  2  0  0  0  0
  4  5  2  0  0  0  0
  4  3  1  0  0  0  0
  5  6  1  0  0  0  0
  6  1  2  0  0  0  0
  8  3  1  0  0  0  0
  9 10  1  0  0  0  0
 10  5  1  0  0  0  0
 11 12  1  0  0  0  0
 11 10  2  0  0  0  0
 13 11  1  0  0  0  0
 14 15  1  0  0  0  0
 14 13  1  0  0  0  0
 16 18  2  0  0  0  0
 16 14  1  0  0  0  0
 17 16  1  0  0  0  0
 18 19  1  0  0  0  0
 19 13  2  0  0  0  0
 19 20  1  0  0  0  0
 20  9  2  0  0  0  0
 22 27  1  0  0  0  0
 22 21  1  0  0  0  0
 23 22  2  0  0  0  0
 24 25  2  0  0  0  0
 24 23  1  0  0  0  0
 25 26  1  0  0  0  0
 26 29  1  0  0  0  0
 26 27  2  0  0  0  0
 27 30  1  0  0  0  0
 28 24  1  0  0  0  0
 31 36  1  0  0  0  0
 31 37  1  0  0  0  0
 32 31  2  0  0  0  0
 33 34  2  0  0  0  0
 33 32  1  0  0  0  0
 34 35  1  0  0  0  0
 35 23  1  0  0  0  0
 35 36  2  0  0  0  0
 38 32  1  0  0  0  0
 39 33  1  0  0  0  0
M  END
>  <minimizedAffinity>
-6.96570396

>  <minimizedRMSD>
1.2781384

$$$$
