
 OpenBabel03272509493D

 36 39  0  0  0  0  0  0  0  0999 V2000
   37.1820   30.0850   51.5030 C   0  0  0  0  0  0  0  0  0  0  0  0
   37.7760   30.7520   50.4190 C   0  0  0  0  0  0  0  0  0  0  0  0
   37.2590   30.5640   49.1570 C   0  0  0  0  0  0  0  0  0  0  0  0
   36.1840   29.7270   49.0320 N   0  0  0  0  0  0  0  0  0  0  0  0
   35.6290   29.0970   50.0850 C   0  0  0  0  0  0  0  0  0  0  0  0
   36.1410   29.2870   51.3220 N   0  0  0  0  0  0  0  0  0  0  0  0
   37.5740   30.2240   52.4950 H   0  0  0  0  0  0  0  0  0  0  0  0
   38.6070   31.3910   50.5610 H   0  0  0  0  0  0  0  0  0  0  0  0
   38.8550   32.0550   48.1150 C   0  0  0  0  0  3  0  0  0  0  0  0
   37.7900   31.2000   47.9550 C   0  0  0  0  0  0  0  0  0  0  0  0
   37.2610   30.9620   46.7320 C   0  0  0  0  0  0  0  0  0  0  0  0
   36.4410   30.3100   46.5640 H   0  0  0  0  0  0  0  0  0  0  0  0
   37.7640   31.5630   45.6060 C   0  0  0  0  0  0  0  0  0  0  0  0
   37.4450   31.5150   44.2920 N   0  0  0  0  0  0  0  0  0  0  0  0
   36.6720   30.9390   43.9020 H   0  0  0  0  0  0  0  0  0  0  0  0
   38.2480   32.3000   43.5560 C   0  0  0  0  0  0  0  0  0  0  0  0
   38.1720   32.4110   42.4860 H   0  0  0  0  0  0  0  0  0  0  0  0
   39.1330   32.8890   44.4330 C   0  0  0  0  0  3  0  0  0  0  0  0
   38.8410   32.4390   45.7030 C   0  0  0  0  0  0  0  0  0  0  0  0
   39.3640   32.6640   46.9730 C   0  0  0  0  0  3  0  0  0  0  0  0
   34.5630   28.3040   49.7540 O   0  0  0  0  0  0  0  0  0  0  0  0
   34.0510   28.4060   48.4240 C   0  0  0  0  0  0  0  0  0  0  0  0
   34.9130   28.4300   47.7490 H   0  0  0  0  0  0  0  0  0  0  0  0
   33.4790   29.3700   48.3430 H   0  0  0  0  0  0  0  0  0  0  0  0
   33.0720   27.2940   48.1580 C   0  0  0  0  0  0  0  0  0  0  0  0
   33.1320   26.4810   48.8990 H   0  0  0  0  0  0  0  0  0  0  0  0
   33.3430   26.8850   47.1540 H   0  0  0  0  0  0  0  0  0  0  0  0
   31.6730   27.7890   48.0490 C   0  0  0  0  0  0  0  0  0  0  0  0
   30.8500   27.5820   49.1270 C   0  0  0  0  0  0  0  0  0  0  0  0
   29.5340   28.0010   49.1300 C   0  0  0  0  0  0  0  0  0  0  0  0
   29.0440   28.6270   48.0580 N   0  0  0  0  0  0  0  0  0  0  0  0
   29.8540   28.8280   47.0020 C   0  0  0  0  0  0  0  0  0  0  0  0
   31.1380   28.4300   46.9720 N   0  0  0  0  0  0  0  0  0  0  0  0
   31.1660   27.0880   50.0270 H   0  0  0  0  0  0  0  0  0  0  0  0
   28.8780   27.8340   49.9960 H   0  0  0  0  0  0  0  0  0  0  0  0
   29.4340   29.3360   46.1460 H   0  0  0  0  0  0  0  0  0  0  0  0
  1  7  1  0  0  0  0
  2  8  1  0  0  0  0
  2  1  2  0  0  0  0
  3  2  1  0  0  0  0
  4  3  2  0  0  0  0
  4  5  1  0  0  0  0
  5  6  2  0  0  0  0
  6  1  1  0  0  0  0
 10  9  1  0  0  0  0
 10  3  1  0  0  0  0
 11 10  2  0  0  0  0
 12 11  1  0  0  0  0
 13 19  2  0  0  0  0
 13 11  1  0  0  0  0
 14 13  1  0  0  0  0
 15 14  1  0  0  0  0
 16 14  1  0  0  0  0
 16 18  2  0  0  0  0
 17 16  1  0  0  0  0
 18 19  1  0  0  0  0
 19 20  1  0  0  0  0
 20  9  2  0  0  0  0
 21  5  1  0  0  0  0
 22 21  1  0  0  0  0
 23 22  1  0  0  0  0
 24 22  1  0  0  0  0
 25 22  1  0  0  0  0
 25 26  1  0  0  0  0
 27 25  1  0  0  0  0
 28 25  1  0  0  0  0
 28 29  1  0  0  0  0
 29 30  2  0  0  0  0
 29 34  1  0  0  0  0
 30 35  1  0  0  0  0
 31 30  1  0  0  0  0
 32 31  2  0  0  0  0
 33 32  1  0  0  0  0
 33 28  2  0  0  0  0
 36 32  1  0  0  0  0
M  END
>  <minimizedAffinity>
-6.5454073

>  <minimizedRMSD>
1.04259384

$$$$
