
 OpenBabel03272509493D

 36 39  0  0  0  0  0  0  0  0999 V2000
   37.2850   30.1350   51.4070 C   0  0  0  0  0  0  0  0  0  0  0  0
   37.8190   30.7400   50.2580 C   0  0  0  0  0  0  0  0  0  0  0  0
   37.2040   30.5290   49.0450 C   0  0  0  0  0  0  0  0  0  0  0  0
   36.0930   29.7300   49.0310 N   0  0  0  0  0  0  0  0  0  0  0  0
   35.5960   29.1580   50.1440 C   0  0  0  0  0  0  0  0  0  0  0  0
   36.2060   29.3710   51.3320 N   0  0  0  0  0  0  0  0  0  0  0  0
   37.7550   30.2920   52.3610 H   0  0  0  0  0  0  0  0  0  0  0  0
   38.6820   31.3520   50.3150 H   0  0  0  0  0  0  0  0  0  0  0  0
   37.0400   30.6810   46.6350 C   0  0  0  0  0  0  0  0  0  0  0  0
   37.6650   31.1030   47.7850 C   0  0  0  0  0  0  0  0  0  0  0  0
   38.6660   32.0120   47.7430 C   0  0  0  0  0  0  0  0  0  0  0  0
   39.1750   32.3640   48.6040 H   0  0  0  0  0  0  0  0  0  0  0  0
   39.0970   32.5490   46.5550 C   0  0  0  0  0  0  0  0  0  0  0  0
   40.0480   33.4500   46.2210 N   0  0  0  0  0  0  0  0  0  0  0  0
   40.6670   33.9240   46.9080 H   0  0  0  0  0  0  0  0  0  0  0  0
   40.0940   33.6570   44.8960 C   0  0  0  0  0  0  0  0  0  0  0  0
   40.7780   34.3350   44.4100 H   0  0  0  0  0  0  0  0  0  0  0  0
   39.1240   32.8500   44.3380 C   0  0  0  0  0  0  0  0  0  0  0  0
   38.5030   32.1610   45.3590 C   0  0  0  0  0  0  0  0  0  0  0  0
   37.4760   31.2240   45.4330 C   0  0  0  0  0  0  0  0  0  0  0  0
   34.4810   28.3960   49.9210 O   0  0  0  0  0  0  0  0  0  0  0  0
   33.7500   28.6290   48.7170 C   0  0  0  0  0  0  0  0  0  0  0  0
   34.4830   28.8520   47.9340 H   0  0  0  0  0  0  0  0  0  0  0  0
   33.0850   29.5210   48.8770 H   0  0  0  0  0  0  0  0  0  0  0  0
   32.8480   27.4600   48.4220 C   0  0  0  0  0  0  0  0  0  0  0  0
   32.9950   26.6180   49.1150 H   0  0  0  0  0  0  0  0  0  0  0  0
   33.1120   27.1270   47.3890 H   0  0  0  0  0  0  0  0  0  0  0  0
   31.4130   27.8520   48.3850 C   0  0  0  0  0  0  0  0  0  0  0  0
   30.7020   27.7350   49.5530 C   0  0  0  0  0  0  0  0  0  0  0  0
   29.3650   28.0710   49.6290 C   0  0  0  0  0  0  0  0  0  0  0  0
   28.7410   28.5230   48.5400 N   0  0  0  0  0  0  0  0  0  0  0  0
   29.4410   28.6370   47.3960 C   0  0  0  0  0  0  0  0  0  0  0  0
   30.7430   28.3170   47.2940 N   0  0  0  0  0  0  0  0  0  0  0  0
   31.1290   27.3800   50.4720 H   0  0  0  0  0  0  0  0  0  0  0  0
   28.8000   27.9750   50.5670 H   0  0  0  0  0  0  0  0  0  0  0  0
   28.9130   29.0050   46.5280 H   0  0  0  0  0  0  0  0  0  0  0  0
  1  7  1  0  0  0  0
  2  8  1  0  0  0  0
  2  1  2  0  0  0  0
  3  2  1  0  0  0  0
  4  3  2  0  0  0  0
  4  5  1  0  0  0  0
  5  6  2  0  0  0  0
  6  1  1  0  0  0  0
  9 10  1  0  0  0  0
 10  3  1  0  0  0  0
 11 10  2  0  0  0  0
 11 12  1  0  0  0  0
 13 11  1  0  0  0  0
 14 13  1  0  0  0  0
 14 15  1  0  0  0  0
 16 14  1  0  0  0  0
 17 16  1  0  0  0  0
 18 16  2  0  0  0  0
 18 19  1  0  0  0  0
 19 20  1  0  0  0  0
 19 13  2  0  0  0  0
 20  9  2  0  0  0  0
 21  5  1  0  0  0  0
 22 24  1  0  0  0  0
 22 21  1  0  0  0  0
 23 22  1  0  0  0  0
 25 22  1  0  0  0  0
 25 26  1  0  0  0  0
 27 25  1  0  0  0  0
 28 25  1  0  0  0  0
 28 29  1  0  0  0  0
 29 30  2  0  0  0  0
 29 34  1  0  0  0  0
 30 35  1  0  0  0  0
 31 30  1  0  0  0  0
 32 31  2  0  0  0  0
 33 32  1  0  0  0  0
 33 28  2  0  0  0  0
 36 32  1  0  0  0  0
M  END
>  <minimizedAffinity>
-6.89447212

>  <minimizedRMSD>
0.615033627

$$$$
