
 OpenBabel03272501533D

 35 38  0  0  1  0  0  0  0  0999 V2000
   37.9510   26.1050   32.0090 N   0  0  0  0  0  0  0  0  0  0  0  0
   38.4140   27.4100   31.5160 C   0  0  0  0  0  0  0  0  0  0  0  0
   37.3760   28.2100   30.8280 C   0  0  0  0  0  0  0  0  0  0  0  0
   36.3170   27.5380   30.1870 N   0  0  0  0  0  0  0  0  0  0  0  0
   35.8910   26.3120   30.8920 C   0  0  0  0  0  0  0  0  0  0  0  0
   37.1390   25.4780   31.0360 C   0  0  2  0  0  0  0  0  0  0  0  0
   38.8320   27.9340   32.3990 H   0  0  0  0  0  0  0  0  0  0  0  0
   39.2680   27.1570   30.8350 H   0  0  0  0  0  0  0  0  0  0  0  0
   37.0050   28.9880   31.5540 H   0  0  0  0  0  0  0  0  0  0  0  0
   37.9070   28.8310   30.0490 H   0  0  0  0  0  0  0  0  0  0  0  0
   35.4760   28.1450   30.1760 H   0  0  0  0  0  0  0  0  0  0  0  0
   35.1860   25.8300   30.1570 H   0  0  0  0  0  0  0  0  0  0  0  0
   35.4160   26.5740   31.8380 H   0  0  0  0  0  0  0  0  0  0  0  0
   37.6530   25.5960   30.0090 H   0  0  0  0  0  0  0  0  0  0  0  0
   37.9360   23.2700   30.6310 C   0  0  0  0  0  3  0  0  0  0  0  0
   36.9110   24.0370   31.1580 C   0  0  0  0  0  0  0  0  0  0  0  0
   35.8010   23.4000   31.7220 C   0  0  0  0  0  0  0  0  0  0  0  0
   35.0460   24.0460   32.1110 H   0  0  0  0  0  0  0  0  0  0  0  0
   35.7690   22.0220   31.7320 C   0  0  0  0  0  0  0  0  0  0  0  0
   34.8320   21.1990   32.2050 N   0  0  0  0  0  0  0  0  0  0  0  0
   33.9260   21.4460   32.6700 H   0  0  0  0  0  0  0  0  0  0  0  0
   35.2160   19.9240   32.0030 C   0  0  0  0  0  0  0  0  0  0  0  0
   34.7260   18.9880   32.2480 H   0  0  0  0  0  0  0  0  0  0  0  0
   36.4550   19.9280   31.3710 C   0  0  0  0  0  3  0  0  0  0  0  0
   36.7660   21.2520   31.2180 C   0  0  0  0  0  0  0  0  0  0  0  0
   37.8520   21.8760   30.6680 C   0  0  0  0  0  3  0  0  0  0  0  0
   38.3120   25.6170   33.2930 C   0  0  0  0  0  0  0  0  0  0  0  0
   39.4720   24.8780   33.5130 C   0  0  0  0  0  0  0  0  0  0  0  0
   39.7710   24.4430   34.8010 C   0  0  0  0  0  0  0  0  0  0  0  0
   38.8920   24.7690   35.8020 N   0  0  0  0  0  0  0  0  0  0  0  0
   37.7610   25.4980   35.5390 C   0  0  0  0  0  0  0  0  0  0  0  0
   37.4550   25.9260   34.3070 N   0  0  0  0  0  0  0  0  0  0  0  0
   40.1570   24.6030   32.7330 H   0  0  0  0  0  0  0  0  0  0  0  0
   40.6450   23.8780   35.0190 H   0  0  0  0  0  0  0  0  0  0  0  0
   37.1660   25.6770   36.4230 H   0  0  0  0  0  0  0  0  0  0  0  0
  1 27  1  0  0  0  0
  2  1  1  0  0  0  0
  2  7  1  0  0  0  0
  3  2  1  0  0  0  0
  3  9  1  0  0  0  0
  4  3  1  0  0  0  0
  4  5  1  0  0  0  0
  5  6  1  0  0  0  0
  5 13  1  0  0  0  0
  6 14  1  6  0  0  0
  6 16  1  0  0  0  0
  6  1  1  0  0  0  0
  8  2  1  0  0  0  0
 10  3  1  0  0  0  0
 11  4  1  0  0  0  0
 12  5  1  0  0  0  0
 15 26  2  0  0  0  0
 15 16  1  0  0  0  0
 16 17  2  0  0  0  0
 17 19  1  0  0  0  0
 17 18  1  0  0  0  0
 19 20  1  0  0  0  0
 20 21  1  0  0  0  0
 22 20  1  0  0  0  0
 22 23  1  0  0  0  0
 24 22  2  0  0  0  0
 25 24  1  0  0  0  0
 25 19  2  0  0  0  0
 26 25  1  0  0  0  0
 27 28  2  0  0  0  0
 27 32  1  0  0  0  0
 28 29  1  0  0  0  0
 29 34  1  0  0  0  0
 29 30  2  0  0  0  0
 31 30  1  0  0  0  0
 31 35  1  0  0  0  0
 32 31  2  0  0  0  0
 33 28  1  0  0  0  0
M  END
>  <minimizedAffinity>
-5.22818661

$$$$

 OpenBabel03272501533D

 35 38  0  0  1  0  0  0  0  0999 V2000
   40.6220   24.0670   35.4790 N   0  0  0  0  0  0  0  0  0  0  0  0
   41.2650   23.2040   36.4810 C   0  0  0  0  0  0  0  0  0  0  0  0
   40.5250   21.9580   36.7830 C   0  0  0  0  0  0  0  0  0  0  0  0
   39.1260   21.9450   36.6190 N   0  0  0  0  0  0  0  0  0  0  0  0
   38.6630   22.7650   35.4820 C   0  0  0  0  0  0  0  0  0  0  0  0
   39.2310   24.1410   35.7220 C   0  0  2  0  0  0  0  0  0  0  0  0
   42.2850   23.0040   36.0960 H   0  0  0  0  0  0  0  0  0  0  0  0
   41.3660   23.8610   37.3840 H   0  0  0  0  0  0  0  0  0  0  0  0
   41.0240   21.1180   36.2230 H   0  0  0  0  0  0  0  0  0  0  0  0
   40.7440   21.7030   37.8610 H   0  0  0  0  0  0  0  0  0  0  0  0
   38.8120   20.9810   36.3980 H   0  0  0  0  0  0  0  0  0  0  0  0
   37.5450   22.7790   35.6190 H   0  0  0  0  0  0  0  0  0  0  0  0
   38.9770   22.3090   34.5420 H   0  0  0  0  0  0  0  0  0  0  0  0
   39.0720   24.2950   36.8550 H   0  0  0  0  0  0  0  0  0  0  0  0
   38.4310   26.3790   35.8860 C   0  0  0  0  0  3  0  0  0  0  0  0
   38.4840   25.2370   35.1040 C   0  0  0  0  0  0  0  0  0  0  0  0
   37.8440   25.2300   33.8600 C   0  0  0  0  0  0  0  0  0  0  0  0
   37.9220   24.3210   33.3050 H   0  0  0  0  0  0  0  0  0  0  0  0
   37.1780   26.3670   33.4570 C   0  0  0  0  0  0  0  0  0  0  0  0
   36.5010   26.6000   32.3310 N   0  0  0  0  0  0  0  0  0  0  0  0
   36.3440   25.9520   31.5230 H   0  0  0  0  0  0  0  0  0  0  0  0
   36.0110   27.8540   32.3580 C   0  0  0  0  0  0  0  0  0  0  0  0
   35.4170   28.3990   31.6320 H   0  0  0  0  0  0  0  0  0  0  0  0
   36.3900   28.4540   33.5540 C   0  0  0  0  0  3  0  0  0  0  0  0
   37.1140   27.4980   34.2120 C   0  0  0  0  0  0  0  0  0  0  0  0
   37.7420   27.5050   35.4270 C   0  0  0  0  0  3  0  0  0  0  0  0
   41.3640   24.7000   34.4470 C   0  0  0  0  0  0  0  0  0  0  0  0
   42.0290   25.9090   34.6360 C   0  0  0  0  0  0  0  0  0  0  0  0
   42.7500   26.4650   33.5830 C   0  0  0  0  0  0  0  0  0  0  0  0
   42.7660   25.7810   32.3940 N   0  0  0  0  0  0  0  0  0  0  0  0
   42.0960   24.5940   32.2520 C   0  0  0  0  0  0  0  0  0  0  0  0
   41.3970   24.0420   33.2530 N   0  0  0  0  0  0  0  0  0  0  0  0
   42.0070   26.4590   35.5580 H   0  0  0  0  0  0  0  0  0  0  0  0
   43.2740   27.3840   33.6800 H   0  0  0  0  0  0  0  0  0  0  0  0
   42.1990   24.1740   31.2620 H   0  0  0  0  0  0  0  0  0  0  0  0
  1  6  1  0  0  0  0
  1  2  1  0  0  0  0
  2  3  1  0  0  0  0
  2  8  1  0  0  0  0
  3 10  1  0  0  0  0
  4  3  1  0  0  0  0
  5 12  1  0  0  0  0
  5  6  1  0  0  0  0
  5  4  1  0  0  0  0
  6 14  1  1  0  0  0
  7  2  1  0  0  0  0
  9  3  1  0  0  0  0
 11  4  1  0  0  0  0
 13  5  1  0  0  0  0
 16  6  1  0  0  0  0
 16 15  2  0  0  0  0
 17 16  1  0  0  0  0
 18 17  1  0  0  0  0
 19 17  2  0  0  0  0
 19 25  1  0  0  0  0
 20 22  1  0  0  0  0
 20 19  1  0  0  0  0
 21 20  1  0  0  0  0
 22 24  2  0  0  0  0
 23 22  1  0  0  0  0
 24 25  1  0  0  0  0
 25 26  2  0  0  0  0
 26 15  1  0  0  0  0
 27 28  1  0  0  0  0
 27  1  1  0  0  0  0
 28 33  1  0  0  0  0
 29 34  1  0  0  0  0
 29 28  2  0  0  0  0
 30 29  1  0  0  0  0
 31 30  2  0  0  0  0
 31 32  1  0  0  0  0
 32 27  2  0  0  0  0
 35 31  1  0  0  0  0
M  END
>  <minimizedAffinity>
-5.19595957

$$$$

 OpenBabel03272501533D

 35 38  0  0  1  0  0  0  0  0999 V2000
   38.0260   26.2790   31.9570 N   0  0  0  0  0  0  0  0  0  0  0  0
   38.4780   27.5990   31.4930 C   0  0  0  0  0  0  0  0  0  0  0  0
   37.4360   28.4030   30.8190 C   0  0  0  0  0  0  0  0  0  0  0  0
   36.3860   27.7350   30.1590 N   0  0  0  0  0  0  0  0  0  0  0  0
   35.9680   26.4910   30.8360 C   0  0  0  0  0  0  0  0  0  0  0  0
   37.2240   25.6650   30.9670 C   0  0  2  0  0  0  0  0  0  0  0  0
   38.8880   28.1080   32.3890 H   0  0  0  0  0  0  0  0  0  0  0  0
   39.3380   27.3680   30.8110 H   0  0  0  0  0  0  0  0  0  0  0  0
   37.0540   29.1620   31.5590 H   0  0  0  0  0  0  0  0  0  0  0  0
   37.9630   29.0460   30.0550 H   0  0  0  0  0  0  0  0  0  0  0  0
   35.5390   28.3350   30.1570 H   0  0  0  0  0  0  0  0  0  0  0  0
   35.2710   26.0170   30.0880 H   0  0  0  0  0  0  0  0  0  0  0  0
   35.4870   26.7270   31.7850 H   0  0  0  0  0  0  0  0  0  0  0  0
   37.7400   25.8100   29.9450 H   0  0  0  0  0  0  0  0  0  0  0  0
   35.7590   23.8770   31.5430 C   0  0  0  0  0  3  0  0  0  0  0  0
   37.0090   24.2200   31.0570 C   0  0  0  0  0  0  0  0  0  0  0  0
   37.9140   23.2070   30.7230 C   0  0  0  0  0  0  0  0  0  0  0  0
   38.8600   23.5360   30.3550 H   0  0  0  0  0  0  0  0  0  0  0  0
   37.5250   21.8960   30.8910 C   0  0  0  0  0  0  0  0  0  0  0  0
   38.2010   20.7720   30.6460 N   0  0  0  0  0  0  0  0  0  0  0  0
   39.1740   20.6690   30.2730 H   0  0  0  0  0  0  0  0  0  0  0  0
   37.4300   19.7130   30.9580 C   0  0  0  0  0  0  0  0  0  0  0  0
   37.6300   18.6480   30.8950 H   0  0  0  0  0  0  0  0  0  0  0  0
   36.2040   20.1760   31.4220 C   0  0  0  0  0  3  0  0  0  0  0  0
   36.3000   21.5390   31.3660 C   0  0  0  0  0  0  0  0  0  0  0  0
   35.4160   22.5300   31.6920 C   0  0  0  0  0  3  0  0  0  0  0  0
   38.3860   25.7670   33.2310 C   0  0  0  0  0  0  0  0  0  0  0  0
   37.5530   25.8710   34.3430 C   0  0  0  0  0  0  0  0  0  0  0  0
   37.9650   25.3330   35.5590 C   0  0  0  0  0  0  0  0  0  0  0  0
   39.1910   24.7190   35.5990 N   0  0  0  0  0  0  0  0  0  0  0  0
   39.9790   24.6410   34.4800 C   0  0  0  0  0  0  0  0  0  0  0  0
   39.6010   25.1520   33.3000 N   0  0  0  0  0  0  0  0  0  0  0  0
   36.5990   26.3640   34.3240 H   0  0  0  0  0  0  0  0  0  0  0  0
   37.3640   25.3860   36.4340 H   0  0  0  0  0  0  0  0  0  0  0  0
   40.9140   24.1320   34.6640 H   0  0  0  0  0  0  0  0  0  0  0  0
  1 27  1  0  0  0  0
  2  1  1  0  0  0  0
  2  7  1  0  0  0  0
  3  2  1  0  0  0  0
  3  9  1  0  0  0  0
  4  3  1  0  0  0  0
  4  5  1  0  0  0  0
  5  6  1  0  0  0  0
  5 13  1  0  0  0  0
  6 14  1  6  0  0  0
  6 16  1  0  0  0  0
  6  1  1  0  0  0  0
  8  2  1  0  0  0  0
 10  3  1  0  0  0  0
 11  4  1  0  0  0  0
 12  5  1  0  0  0  0
 15 26  1  0  0  0  0
 16 15  2  0  0  0  0
 17 19  2  0  0  0  0
 17 16  1  0  0  0  0
 18 17  1  0  0  0  0
 19 25  1  0  0  0  0
 20 19  1  0  0  0  0
 20 22  1  0  0  0  0
 21 20  1  0  0  0  0
 22 24  2  0  0  0  0
 23 22  1  0  0  0  0
 25 24  1  0  0  0  0
 25 26  2  0  0  0  0
 27 32  2  0  0  0  0
 27 28  1  0  0  0  0
 28 29  2  0  0  0  0
 29 30  1  0  0  0  0
 29 34  1  0  0  0  0
 31 35  1  0  0  0  0
 31 30  2  0  0  0  0
 32 31  1  0  0  0  0
 33 28  1  0  0  0  0
M  END
>  <minimizedAffinity>
-5.10723972

$$$$

 OpenBabel03272501533D

 35 38  0  0  1  0  0  0  0  0999 V2000
   40.4000   24.3500   34.9020 N   0  0  0  0  0  0  0  0  0  0  0  0
   41.7680   23.8670   35.1400 C   0  0  0  0  0  0  0  0  0  0  0  0
   42.7710   24.9360   35.3440 C   0  0  0  0  0  0  0  0  0  0  0  0
   42.5500   26.1930   34.7480 N   0  0  0  0  0  0  0  0  0  0  0  0
   41.1250   26.5800   34.7090 C   0  0  0  0  0  0  0  0  0  0  0  0
   40.4210   25.4450   34.0080 C   0  0  2  0  0  0  0  0  0  0  0  0
   41.6990   23.1850   36.0120 H   0  0  0  0  0  0  0  0  0  0  0  0
   41.9980   23.2420   34.2380 H   0  0  0  0  0  0  0  0  0  0  0  0
   42.9620   25.0210   36.4500 H   0  0  0  0  0  0  0  0  0  0  0  0
   43.7530   24.5410   34.9520 H   0  0  0  0  0  0  0  0  0  0  0  0
   43.0110   26.9310   35.3130 H   0  0  0  0  0  0  0  0  0  0  0  0
   41.1300   27.4960   34.0530 H   0  0  0  0  0  0  0  0  0  0  0  0
   40.7650   26.7740   35.7200 H   0  0  0  0  0  0  0  0  0  0  0  0
   41.1380   25.1880   33.1410 H   0  0  0  0  0  0  0  0  0  0  0  0
   38.5920   26.9630   33.8430 C   0  0  0  0  0  3  0  0  0  0  0  0
   39.1700   25.8090   33.3410 C   0  0  0  0  0  0  0  0  0  0  0  0
   38.5350   25.1250   32.2990 C   0  0  0  0  0  0  0  0  0  0  0  0
   39.0310   24.2440   31.9560 H   0  0  0  0  0  0  0  0  0  0  0  0
   37.3490   25.6260   31.8100 C   0  0  0  0  0  0  0  0  0  0  0  0
   36.5670   25.1570   30.8350 N   0  0  0  0  0  0  0  0  0  0  0  0
   36.7080   24.3040   30.2450 H   0  0  0  0  0  0  0  0  0  0  0  0
   35.5020   25.9680   30.6900 C   0  0  0  0  0  0  0  0  0  0  0  0
   34.6590   25.9170   30.0090 H   0  0  0  0  0  0  0  0  0  0  0  0
   35.6030   27.0040   31.6130 C   0  0  0  0  0  3  0  0  0  0  0  0
   36.7650   26.7570   32.2910 C   0  0  0  0  0  0  0  0  0  0  0  0
   37.3870   27.4270   33.3080 C   0  0  0  0  0  3  0  0  0  0  0  0
   39.2730   23.7480   35.5210 C   0  0  0  0  0  0  0  0  0  0  0  0
   38.7130   22.5580   35.0600 C   0  0  0  0  0  0  0  0  0  0  0  0
   37.6160   22.0170   35.7240 C   0  0  0  0  0  0  0  0  0  0  0  0
   37.1360   22.6960   36.8160 N   0  0  0  0  0  0  0  0  0  0  0  0
   37.7190   23.8650   37.2340 C   0  0  0  0  0  0  0  0  0  0  0  0
   38.7750   24.4020   36.6080 N   0  0  0  0  0  0  0  0  0  0  0  0
   39.0710   22.0310   34.1960 H   0  0  0  0  0  0  0  0  0  0  0  0
   37.1550   21.1120   35.4120 H   0  0  0  0  0  0  0  0  0  0  0  0
   37.2330   24.2830   38.1030 H   0  0  0  0  0  0  0  0  0  0  0  0
  1  2  1  0  0  0  0
  1 27  1  0  0  0  0
  2  3  1  0  0  0  0
  2  7  1  0  0  0  0
  3  9  1  0  0  0  0
  4 11  1  0  0  0  0
  4  3  1  0  0  0  0
  5  4  1  0  0  0  0
  5 13  1  0  0  0  0
  6 14  1  6  0  0  0
  6  5  1  0  0  0  0
  6  1  1  0  0  0  0
  8  2  1  0  0  0  0
 10  3  1  0  0  0  0
 12  5  1  0  0  0  0
 16 15  1  0  0  0  0
 16  6  1  0  0  0  0
 17 16  2  0  0  0  0
 18 17  1  0  0  0  0
 19 25  2  0  0  0  0
 19 17  1  0  0  0  0
 20 19  1  0  0  0  0
 21 20  1  0  0  0  0
 22 20  1  0  0  0  0
 22 24  2  0  0  0  0
 23 22  1  0  0  0  0
 24 25  1  0  0  0  0
 25 26  1  0  0  0  0
 26 15  2  0  0  0  0
 27 32  1  0  0  0  0
 28 27  2  0  0  0  0
 28 29  1  0  0  0  0
 29 30  2  0  0  0  0
 30 31  1  0  0  0  0
 31 35  1  0  0  0  0
 32 31  2  0  0  0  0
 33 28  1  0  0  0  0
 34 29  1  0  0  0  0
M  END
>  <minimizedAffinity>
-5.05527163

$$$$

 OpenBabel03272501533D

 35 38  0  0  1  0  0  0  0  0999 V2000
   38.9490   26.8060   31.6150 N   0  0  0  0  0  0  0  0  0  0  0  0
   39.3550   27.8250   30.6360 C   0  0  0  0  0  0  0  0  0  0  0  0
   40.8160   27.9210   30.4190 C   0  0  0  0  0  0  0  0  0  0  0  0
   41.6810   27.5510   31.4670 N   0  0  0  0  0  0  0  0  0  0  0  0
   41.1750   26.4210   32.2730 C   0  0  0  0  0  0  0  0  0  0  0  0
   39.8040   26.8440   32.7400 C   0  0  2  0  0  0  0  0  0  0  0  0
   38.8070   27.5810   29.7030 H   0  0  0  0  0  0  0  0  0  0  0  0
   38.9270   28.7780   31.0410 H   0  0  0  0  0  0  0  0  0  0  0  0
   41.0580   27.3800   29.4610 H   0  0  0  0  0  0  0  0  0  0  0  0
   41.0360   28.9970   30.1590 H   0  0  0  0  0  0  0  0  0  0  0  0
   42.5810   27.2150   31.0730 H   0  0  0  0  0  0  0  0  0  0  0  0
   41.8880   26.3920   33.1450 H   0  0  0  0  0  0  0  0  0  0  0  0
   41.1820   25.5080   31.6780 H   0  0  0  0  0  0  0  0  0  0  0  0
   39.9590   27.9500   33.0350 H   0  0  0  0  0  0  0  0  0  0  0  0
   38.6970   27.0730   34.8370 C   0  0  0  0  0  3  0  0  0  0  0  0
   39.3450   26.2050   33.9730 C   0  0  0  0  0  0  0  0  0  0  0  0
   39.5020   24.8650   34.3430 C   0  0  0  0  0  0  0  0  0  0  0  0
   40.0090   24.2480   33.6350 H   0  0  0  0  0  0  0  0  0  0  0  0
   39.0040   24.4570   35.5610 C   0  0  0  0  0  0  0  0  0  0  0  0
   39.0330   23.2480   36.1260 N   0  0  0  0  0  0  0  0  0  0  0  0
   39.4450   22.3640   35.7470 H   0  0  0  0  0  0  0  0  0  0  0  0
   38.4260   23.3050   37.3270 C   0  0  0  0  0  0  0  0  0  0  0  0
   38.2530   22.5350   38.0720 H   0  0  0  0  0  0  0  0  0  0  0  0
   37.9870   24.6070   37.5430 C   0  0  0  0  0  3  0  0  0  0  0  0
   38.3660   25.2950   36.4220 C   0  0  0  0  0  0  0  0  0  0  0  0
   38.2110   26.6040   36.0600 C   0  0  0  0  0  3  0  0  0  0  0  0
   37.8440   25.9440   31.3860 C   0  0  0  0  0  0  0  0  0  0  0  0
   36.5240   26.3580   31.5560 C   0  0  0  0  0  0  0  0  0  0  0  0
   35.4890   25.4640   31.3000 C   0  0  0  0  0  0  0  0  0  0  0  0
   35.8280   24.2000   30.8890 N   0  0  0  0  0  0  0  0  0  0  0  0
   37.1410   23.8350   30.7360 C   0  0  0  0  0  0  0  0  0  0  0  0
   38.1520   24.6810   30.9760 N   0  0  0  0  0  0  0  0  0  0  0  0
   36.2510   27.3400   31.8950 H   0  0  0  0  0  0  0  0  0  0  0  0
   34.4670   25.7330   31.4140 H   0  0  0  0  0  0  0  0  0  0  0  0
   37.2530   22.8120   30.4080 H   0  0  0  0  0  0  0  0  0  0  0  0
  1  6  1  0  0  0  0
  2  8  1  0  0  0  0
  2  1  1  0  0  0  0
  3  2  1  0  0  0  0
  3  4  1  0  0  0  0
  4  5  1  0  0  0  0
  5  6  1  0  0  0  0
  5 12  1  0  0  0  0
  6 14  1  1  0  0  0
  6 16  1  0  0  0  0
  7  2  1  0  0  0  0
  9  3  1  0  0  0  0
 10  3  1  0  0  0  0
 11  4  1  0  0  0  0
 13  5  1  0  0  0  0
 15 26  1  0  0  0  0
 16 17  1  0  0  0  0
 16 15  2  0  0  0  0
 17 19  2  0  0  0  0
 18 17  1  0  0  0  0
 19 20  1  0  0  0  0
 19 25  1  0  0  0  0
 20 22  1  0  0  0  0
 21 20  1  0  0  0  0
 22 24  2  0  0  0  0
 22 23  1  0  0  0  0
 25 24  1  0  0  0  0
 26 25  2  0  0  0  0
 27 28  1  0  0  0  0
 27  1  1  0  0  0  0
 28 33  1  0  0  0  0
 29 34  1  0  0  0  0
 29 28  2  0  0  0  0
 30 29  1  0  0  0  0
 31 30  2  0  0  0  0
 31 32  1  0  0  0  0
 32 27  2  0  0  0  0
 35 31  1  0  0  0  0
M  END
>  <minimizedAffinity>
-4.99200439

$$$$

 OpenBabel03272501533D

 35 38  0  0  1  0  0  0  0  0999 V2000
   38.3250   24.2850   36.2350 N   0  0  0  0  0  0  0  0  0  0  0  0
   37.9020   24.6350   37.5990 C   0  0  0  0  0  0  0  0  0  0  0  0
   38.6220   23.9110   38.6700 C   0  0  0  0  0  0  0  0  0  0  0  0
   39.1470   22.6340   38.3890 N   0  0  0  0  0  0  0  0  0  0  0  0
   39.6470   22.4990   37.0070 C   0  0  0  0  0  0  0  0  0  0  0  0
   38.4890   22.8860   36.1210 C   0  0  2  0  0  0  0  0  0  0  0  0
   38.0250   25.7340   37.6790 H   0  0  0  0  0  0  0  0  0  0  0  0
   36.8030   24.4150   37.6090 H   0  0  0  0  0  0  0  0  0  0  0  0
   39.4030   24.6060   39.0900 H   0  0  0  0  0  0  0  0  0  0  0  0
   37.9000   23.8010   39.5310 H   0  0  0  0  0  0  0  0  0  0  0  0
   39.9740   22.4580   38.9910 H   0  0  0  0  0  0  0  0  0  0  0  0
   39.8490   21.3940   36.9180 H   0  0  0  0  0  0  0  0  0  0  0  0
   40.5380   23.1130   36.8720 H   0  0  0  0  0  0  0  0  0  0  0  0
   37.5880   22.3760   36.6320 H   0  0  0  0  0  0  0  0  0  0  0  0
   39.7930   22.0870   34.2940 C   0  0  0  0  0  3  0  0  0  0  0  0
   38.5140   22.3050   34.7780 C   0  0  0  0  0  0  0  0  0  0  0  0
   37.4160   21.9760   33.9770 C   0  0  0  0  0  0  0  0  0  0  0  0
   36.4570   22.1680   34.4060 H   0  0  0  0  0  0  0  0  0  0  0  0
   37.6490   21.4460   32.7270 C   0  0  0  0  0  0  0  0  0  0  0  0
   36.7780   21.0600   31.7930 N   0  0  0  0  0  0  0  0  0  0  0  0
   35.7320   21.0870   31.8310 H   0  0  0  0  0  0  0  0  0  0  0  0
   37.4500   20.6000   30.7200 C   0  0  0  0  0  0  0  0  0  0  0  0
   37.0930   20.2040   29.7750 H   0  0  0  0  0  0  0  0  0  0  0  0
   38.8140   20.6940   30.9760 C   0  0  0  0  0  3  0  0  0  0  0  0
   38.8990   21.2250   32.2340 C   0  0  0  0  0  0  0  0  0  0  0  0
   39.9720   21.5450   33.0190 C   0  0  0  0  0  3  0  0  0  0  0  0
   38.5200   25.2730   35.2330 C   0  0  0  0  0  0  0  0  0  0  0  0
   39.7760   25.7980   34.9340 C   0  0  0  0  0  0  0  0  0  0  0  0
   39.8950   26.7530   33.9290 C   0  0  0  0  0  0  0  0  0  0  0  0
   38.7500   27.1340   33.2760 N   0  0  0  0  0  0  0  0  0  0  0  0
   37.5350   26.5910   33.6040 C   0  0  0  0  0  0  0  0  0  0  0  0
   37.3990   25.6700   34.5680 N   0  0  0  0  0  0  0  0  0  0  0  0
   40.6730   25.5180   35.4520 H   0  0  0  0  0  0  0  0  0  0  0  0
   40.8300   27.1820   33.6640 H   0  0  0  0  0  0  0  0  0  0  0  0
   36.7270   26.9880   33.0060 H   0  0  0  0  0  0  0  0  0  0  0  0
  1  2  1  0  0  0  0
  2  8  1  0  0  0  0
  2  7  1  0  0  0  0
  2  3  1  0  0  0  0
  3  9  1  0  0  0  0
  3 10  1  0  0  0  0
  4  3  1  0  0  0  0
  4 11  1  0  0  0  0
  5  4  1  0  0  0  0
  6  1  1  0  0  0  0
  6 14  1  1  0  0  0
  6  5  1  0  0  0  0
 12  5  1  0  0  0  0
 13  5  1  0  0  0  0
 15 16  1  0  0  0  0
 16  6  1  0  0  0  0
 17 18  1  0  0  0  0
 17 16  2  0  0  0  0
 19 17  1  0  0  0  0
 20 21  1  0  0  0  0
 20 19  1  0  0  0  0
 22 24  2  0  0  0  0
 22 20  1  0  0  0  0
 23 22  1  0  0  0  0
 24 25  1  0  0  0  0
 25 19  2  0  0  0  0
 25 26  1  0  0  0  0
 26 15  2  0  0  0  0
 27  1  1  0  0  0  0
 28 27  1  0  0  0  0
 28 33  1  0  0  0  0
 29 28  2  0  0  0  0
 30 31  2  0  0  0  0
 30 29  1  0  0  0  0
 31 32  1  0  0  0  0
 32 27  2  0  0  0  0
 34 29  1  0  0  0  0
 35 31  1  0  0  0  0
M  END
>  <minimizedAffinity>
-4.9906764

$$$$

 OpenBabel03272501533D

 35 38  0  0  1  0  0  0  0  0999 V2000
   39.7150   24.5500   32.1460 N   0  0  0  0  0  0  0  0  0  0  0  0
   39.8160   24.0370   30.7720 C   0  0  0  0  0  0  0  0  0  0  0  0
   38.5580   24.1090   29.9960 C   0  0  0  0  0  0  0  0  0  0  0  0
   37.3320   24.0650   30.6880 N   0  0  0  0  0  0  0  0  0  0  0  0
   37.3750   24.7440   31.9990 C   0  0  0  0  0  0  0  0  0  0  0  0
   38.5160   24.1010   32.7460 C   0  0  2  0  0  0  0  0  0  0  0  0
   40.6360   24.6110   30.2960 H   0  0  0  0  0  0  0  0  0  0  0  0
   40.1700   22.9810   30.9000 H   0  0  0  0  0  0  0  0  0  0  0  0
   38.6250   25.0040   29.3140 H   0  0  0  0  0  0  0  0  0  0  0  0
   38.5720   23.2440   29.2720 H   0  0  0  0  0  0  0  0  0  0  0  0
   36.6080   24.5750   30.1470 H   0  0  0  0  0  0  0  0  0  0  0  0
   36.3930   24.4520   32.4680 H   0  0  0  0  0  0  0  0  0  0  0  0
   37.4840   25.8200   31.8570 H   0  0  0  0  0  0  0  0  0  0  0  0
   38.3900   22.9800   32.5010 H   0  0  0  0  0  0  0  0  0  0  0  0
   37.8500   25.3360   34.6710 C   0  0  0  0  0  3  0  0  0  0  0  0
   38.4150   24.1610   34.2050 C   0  0  0  0  0  0  0  0  0  0  0  0
   38.8270   23.1900   35.1240 C   0  0  0  0  0  0  0  0  0  0  0  0
   39.2550   22.3080   34.7020 H   0  0  0  0  0  0  0  0  0  0  0  0
   38.6540   23.4410   36.4670 C   0  0  0  0  0  0  0  0  0  0  0  0
   38.9650   22.6810   37.5190 N   0  0  0  0  0  0  0  0  0  0  0  0
   39.4050   21.7310   37.5250 H   0  0  0  0  0  0  0  0  0  0  0  0
   38.6190   23.3250   38.6500 C   0  0  0  0  0  0  0  0  0  0  0  0
   38.7120   23.0310   39.6910 H   0  0  0  0  0  0  0  0  0  0  0  0
   38.0620   24.5530   38.3110 C   0  0  0  0  0  3  0  0  0  0  0  0
   38.1010   24.5900   36.9440 C   0  0  0  0  0  0  0  0  0  0  0  0
   37.6980   25.5380   36.0450 C   0  0  0  0  0  3  0  0  0  0  0  0
   40.7220   25.3750   32.7150 C   0  0  0  0  0  0  0  0  0  0  0  0
   40.6490   26.7660   32.6960 C   0  0  0  0  0  0  0  0  0  0  0  0
   41.6650   27.5110   33.2860 C   0  0  0  0  0  0  0  0  0  0  0  0
   42.7040   26.8260   33.8630 N   0  0  0  0  0  0  0  0  0  0  0  0
   42.7350   25.4550   33.8570 C   0  0  0  0  0  0  0  0  0  0  0  0
   41.7660   24.7180   33.2950 N   0  0  0  0  0  0  0  0  0  0  0  0
   39.8490   27.3100   32.2310 H   0  0  0  0  0  0  0  0  0  0  0  0
   41.6530   28.5740   33.2980 H   0  0  0  0  0  0  0  0  0  0  0  0
   43.6110   25.0570   34.3470 H   0  0  0  0  0  0  0  0  0  0  0  0
  1 27  1  0  0  0  0
  1  6  1  0  0  0  0
  2  8  1  0  0  0  0
  2  1  1  0  0  0  0
  3  4  1  0  0  0  0
  3  2  1  0  0  0  0
  4  5  1  0  0  0  0
  5 12  1  0  0  0  0
  5  6  1  0  0  0  0
  6 14  1  6  0  0  0
  6 16  1  0  0  0  0
  7  2  1  0  0  0  0
  9  3  1  0  0  0  0
 10  3  1  0  0  0  0
 11  4  1  0  0  0  0
 13  5  1  0  0  0  0
 15 26  1  0  0  0  0
 16 15  2  0  0  0  0
 16 17  1  0  0  0  0
 17 19  2  0  0  0  0
 18 17  1  0  0  0  0
 19 25  1  0  0  0  0
 19 20  1  0  0  0  0
 20 21  1  0  0  0  0
 20 22  1  0  0  0  0
 22 23  1  0  0  0  0
 24 22  2  0  0  0  0
 25 24  1  0  0  0  0
 26 25  2  0  0  0  0
 27 32  1  0  0  0  0
 28 27  2  0  0  0  0
 28 29  1  0  0  0  0
 29 34  1  0  0  0  0
 29 30  2  0  0  0  0
 31 30  1  0  0  0  0
 31 35  1  0  0  0  0
 32 31  2  0  0  0  0
 33 28  1  0  0  0  0
M  END
>  <minimizedAffinity>
-4.94122076

$$$$

 OpenBabel03272501533D

 35 38  0  0  1  0  0  0  0  0999 V2000
   38.2220   25.2430   34.4640 N   0  0  0  0  0  0  0  0  0  0  0  0
   37.0700   26.1470   34.5910 C   0  0  0  0  0  0  0  0  0  0  0  0
   37.4150   27.5300   34.9900 C   0  0  0  0  0  0  0  0  0  0  0  0
   38.5780   27.7430   35.7540 N   0  0  0  0  0  0  0  0  0  0  0  0
   39.6840   26.8290   35.4040 C   0  0  0  0  0  0  0  0  0  0  0  0
   39.1140   25.4390   35.5430 C   0  0  2  0  0  0  0  0  0  0  0  0
   36.5500   26.1100   33.6120 H   0  0  0  0  0  0  0  0  0  0  0  0
   36.4100   25.6450   35.3450 H   0  0  0  0  0  0  0  0  0  0  0  0
   37.3950   28.1700   34.0630 H   0  0  0  0  0  0  0  0  0  0  0  0
   36.5400   27.9250   35.5840 H   0  0  0  0  0  0  0  0  0  0  0  0
   38.9490   28.6940   35.5660 H   0  0  0  0  0  0  0  0  0  0  0  0
   40.4380   27.0210   36.2190 H   0  0  0  0  0  0  0  0  0  0  0  0
   40.0570   27.0620   34.4060 H   0  0  0  0  0  0  0  0  0  0  0  0
   38.4930   25.5070   36.5140 H   0  0  0  0  0  0  0  0  0  0  0  0
   41.3140   24.5950   35.1920 C   0  0  0  0  0  3  0  0  0  0  0  0
   40.0970   24.3910   35.8200 C   0  0  0  0  0  0  0  0  0  0  0  0
   39.9210   23.2530   36.6150 C   0  0  0  0  0  0  0  0  0  0  0  0
   38.9610   23.1530   37.0710 H   0  0  0  0  0  0  0  0  0  0  0  0
   40.9720   22.3720   36.7430 C   0  0  0  0  0  0  0  0  0  0  0  0
   41.0450   21.2330   37.4350 N   0  0  0  0  0  0  0  0  0  0  0  0
   40.3050   20.7840   38.0240 H   0  0  0  0  0  0  0  0  0  0  0  0
   42.2690   20.6940   37.2750 C   0  0  0  0  0  0  0  0  0  0  0  0
   42.7000   19.7820   37.6770 H   0  0  0  0  0  0  0  0  0  0  0  0
   43.0160   21.5220   36.4440 C   0  0  0  0  0  3  0  0  0  0  0  0
   42.1750   22.5560   36.1330 C   0  0  0  0  0  0  0  0  0  0  0  0
   42.3470   23.6690   35.3580 C   0  0  0  0  0  3  0  0  0  0  0  0
   38.3470   24.3330   33.3810 C   0  0  0  0  0  0  0  0  0  0  0  0
   39.0530   24.6430   32.2210 C   0  0  0  0  0  0  0  0  0  0  0  0
   39.1460   23.6960   31.2050 C   0  0  0  0  0  0  0  0  0  0  0  0
   38.5270   22.4880   31.4030 N   0  0  0  0  0  0  0  0  0  0  0  0
   37.8410   22.2270   32.5620 C   0  0  0  0  0  0  0  0  0  0  0  0
   37.7400   23.1240   33.5520 N   0  0  0  0  0  0  0  0  0  0  0  0
   39.5250   25.5920   32.0510 H   0  0  0  0  0  0  0  0  0  0  0  0
   39.6740   23.8850   30.3020 H   0  0  0  0  0  0  0  0  0  0  0  0
   37.4080   21.2380   32.5740 H   0  0  0  0  0  0  0  0  0  0  0  0
  1  2  1  0  0  0  0
  1  6  1  0  0  0  0
  2  3  1  0  0  0  0
  2  8  1  0  0  0  0
  3 10  1  0  0  0  0
  3  4  1  0  0  0  0
  5  6  1  0  0  0  0
  5  4  1  0  0  0  0
  5 12  1  0  0  0  0
  6 16  1  0  0  0  0
  6 14  1  1  0  0  0
  7  2  1  0  0  0  0
  9  3  1  0  0  0  0
 11  4  1  0  0  0  0
 13  5  1  0  0  0  0
 15 26  2  0  0  0  0
 15 16  1  0  0  0  0
 16 17  2  0  0  0  0
 17 19  1  0  0  0  0
 17 18  1  0  0  0  0
 19 20  1  0  0  0  0
 20 21  1  0  0  0  0
 22 20  1  0  0  0  0
 22 23  1  0  0  0  0
 24 22  2  0  0  0  0
 25 24  1  0  0  0  0
 25 19  2  0  0  0  0
 26 25  1  0  0  0  0
 27 32  1  0  0  0  0
 27  1  1  0  0  0  0
 28 27  2  0  0  0  0
 29 30  2  0  0  0  0
 29 28  1  0  0  0  0
 30 31  1  0  0  0  0
 31 35  1  0  0  0  0
 31 32  2  0  0  0  0
 33 28  1  0  0  0  0
 34 29  1  0  0  0  0
M  END
>  <minimizedAffinity>
-4.9275794

$$$$

 OpenBabel03272501533D

 35 38  0  0  1  0  0  0  0  0999 V2000
   40.4720   25.2170   34.6510 N   0  0  0  0  0  0  0  0  0  0  0  0
   41.8100   25.7840   34.8770 C   0  0  0  0  0  0  0  0  0  0  0  0
   42.8870   25.1520   34.0830 C   0  0  0  0  0  0  0  0  0  0  0  0
   42.7370   23.8090   33.6870 N   0  0  0  0  0  0  0  0  0  0  0  0
   41.3410   23.4440   33.3720 C   0  0  0  0  0  0  0  0  0  0  0  0
   40.5440   23.8060   34.6010 C   0  0  2  0  0  0  0  0  0  0  0  0
   41.7150   26.8690   34.6680 H   0  0  0  0  0  0  0  0  0  0  0  0
   41.9750   25.6640   35.9790 H   0  0  0  0  0  0  0  0  0  0  0  0
   43.1110   25.8270   33.2090 H   0  0  0  0  0  0  0  0  0  0  0  0
   43.8300   25.2230   34.6990 H   0  0  0  0  0  0  0  0  0  0  0  0
   43.2600   23.6450   32.8070 H   0  0  0  0  0  0  0  0  0  0  0  0
   41.3910   22.3240   33.2600 H   0  0  0  0  0  0  0  0  0  0  0  0
   41.0190   23.9550   32.4640 H   0  0  0  0  0  0  0  0  0  0  0  0
   41.2220   23.4500   35.4650 H   0  0  0  0  0  0  0  0  0  0  0  0
   38.8280   22.4830   33.6120 C   0  0  0  0  0  3  0  0  0  0  0  0
   39.3060   23.0490   34.7820 C   0  0  0  0  0  0  0  0  0  0  0  0
   38.5920   22.8640   35.9720 C   0  0  0  0  0  0  0  0  0  0  0  0
   39.0120   23.3250   36.8380 H   0  0  0  0  0  0  0  0  0  0  0  0
   37.4330   22.1210   35.9340 C   0  0  0  0  0  0  0  0  0  0  0  0
   36.5910   21.8110   36.9220 N   0  0  0  0  0  0  0  0  0  0  0  0
   36.6520   22.0760   37.9330 H   0  0  0  0  0  0  0  0  0  0  0  0
   35.5840   21.0630   36.4310 C   0  0  0  0  0  0  0  0  0  0  0  0
   34.7210   20.6270   36.9210 H   0  0  0  0  0  0  0  0  0  0  0  0
   35.7880   20.8850   35.0660 C   0  0  0  0  0  3  0  0  0  0  0  0
   36.9470   21.5580   34.7940 C   0  0  0  0  0  0  0  0  0  0  0  0
   37.6460   21.7380   33.6320 C   0  0  0  0  0  3  0  0  0  0  0  0
   39.3220   26.0390   34.5130 C   0  0  0  0  0  0  0  0  0  0  0  0
   38.7640   26.7320   35.5850 C   0  0  0  0  0  0  0  0  0  0  0  0
   37.6440   27.5300   35.3740 C   0  0  0  0  0  0  0  0  0  0  0  0
   37.1400   27.5940   34.1000 N   0  0  0  0  0  0  0  0  0  0  0  0
   37.7210   26.8930   33.0740 C   0  0  0  0  0  0  0  0  0  0  0  0
   38.7990   26.1190   33.2560 N   0  0  0  0  0  0  0  0  0  0  0  0
   39.1420   26.6740   36.5880 H   0  0  0  0  0  0  0  0  0  0  0  0
   37.1840   28.0790   36.1600 H   0  0  0  0  0  0  0  0  0  0  0  0
   37.2150   27.0410   32.1310 H   0  0  0  0  0  0  0  0  0  0  0  0
  1  2  1  0  0  0  0
  2  8  1  0  0  0  0
  3 10  1  0  0  0  0
  3  2  1  0  0  0  0
  4  3  1  0  0  0  0
  5  4  1  0  0  0  0
  5  6  1  0  0  0  0
  6  1  1  0  0  0  0
  6 16  1  0  0  0  0
  6 14  1  1  0  0  0
  7  2  1  0  0  0  0
  9  3  1  0  0  0  0
 11  4  1  0  0  0  0
 12  5  1  0  0  0  0
 13  5  1  0  0  0  0
 15 26  2  0  0  0  0
 15 16  1  0  0  0  0
 16 17  2  0  0  0  0
 17 18  1  0  0  0  0
 19 17  1  0  0  0  0
 19 20  1  0  0  0  0
 20 21  1  0  0  0  0
 22 23  1  0  0  0  0
 22 20  1  0  0  0  0
 24 22  2  0  0  0  0
 25 24  1  0  0  0  0
 25 19  2  0  0  0  0
 26 25  1  0  0  0  0
 27  1  1  0  0  0  0
 27 28  1  0  0  0  0
 28 33  1  0  0  0  0
 29 28  2  0  0  0  0
 29 34  1  0  0  0  0
 30 29  1  0  0  0  0
 31 32  1  0  0  0  0
 31 30  2  0  0  0  0
 32 27  2  0  0  0  0
 35 31  1  0  0  0  0
M  END
>  <minimizedAffinity>
-4.86767673

$$$$
