
 OpenBabel03262523053D

 44 49  0  0  0  0  0  0  0  0999 V2000
   37.3650   30.9870   49.5580 C   0  0  0  0  0  0  0  0  0  0  0  0
   37.6050   30.6370   50.8680 C   0  0  0  0  0  0  0  0  0  0  0  0
   36.7820   29.7220   51.4690 C   0  0  0  0  0  0  0  0  0  0  0  0
   35.7490   29.1770   50.7730 N   0  0  0  0  0  0  0  0  0  0  0  0
   35.5520   29.5430   49.5070 C   0  0  0  0  0  0  0  0  0  0  0  0
   36.3450   30.4400   48.8920 N   0  0  0  0  0  0  0  0  0  0  0  0
   38.4300   31.0760   51.4170 H   0  0  0  0  0  0  0  0  0  0  0  0
   36.9070   29.3970   52.4930 H   0  0  0  0  0  0  0  0  0  0  0  0
   34.4450   28.9640   48.7480 C   0  0  0  0  0  0  0  0  0  0  0  0
   34.4830   28.8570   47.3800 C   0  0  0  0  0  0  0  0  0  0  0  0
   33.5180   28.3380   46.5510 C   0  0  0  0  0  0  0  0  0  0  0  0
   32.3940   27.8800   47.2080 C   0  0  0  0  0  0  0  0  0  0  0  0
   31.3890   27.3490   46.4700 N   0  0  0  0  0  0  0  0  0  0  0  0
   30.2480   26.8740   47.0170 C   0  0  0  0  0  0  0  0  0  0  0  0
   30.0890   26.9260   48.3890 C   0  0  0  0  0  0  0  0  0  0  0  0
   31.1110   27.4660   49.1520 C   0  0  0  0  0  0  0  0  0  0  0  0
   32.2840   27.9540   48.5900 C   0  0  0  0  0  0  0  0  0  0  0  0
   33.2950   28.4900   49.3610 C   0  0  0  0  0  0  0  0  0  0  0  0
   35.3970   29.2360   46.9160 H   0  0  0  0  0  0  0  0  0  0  0  0
   33.6500   28.3000   45.4790 H   0  0  0  0  0  0  0  0  0  0  0  0
   29.4440   26.4500   46.4310 H   0  0  0  0  0  0  0  0  0  0  0  0
   29.1920   26.5540   48.8470 H   0  0  0  0  0  0  0  0  0  0  0  0
   31.0110   27.5170   50.2250 H   0  0  0  0  0  0  0  0  0  0  0  0
   33.1980   28.5440   50.4370 H   0  0  0  0  0  0  0  0  0  0  0  0
   39.4730   33.9140   48.8300 C   0  0  0  0  0  0  0  0  0  0  0  0
   39.8230   33.7000   47.4860 C   0  0  0  0  0  0  0  0  0  0  0  0
   39.3250   32.5450   46.8460 C   0  0  0  0  0  0  0  0  0  0  0  0
   38.5430   31.7260   47.5830 N   0  0  0  0  0  0  0  0  0  0  0  0
   38.2220   31.9610   48.8830 C   0  0  0  0  0  0  0  0  0  0  0  0
   38.6910   33.0520   49.4940 N   0  0  0  0  0  0  0  0  0  0  0  0
   39.8550   34.7980   49.3150 H   0  0  0  0  0  0  0  0  0  0  0  0
   40.4390   34.3580   46.9260 H   0  0  0  0  0  0  0  0  0  0  0  0
   39.2110   33.1170   44.5100 C   0  0  0  0  0  0  0  0  0  0  0  0
   39.6070   32.2000   45.4590 C   0  0  0  0  0  0  0  0  0  0  0  0
   40.2330   31.0260   45.1020 C   0  0  0  0  0  0  0  0  0  0  0  0
   40.5420   30.3120   45.8260 H   0  0  0  0  0  0  0  0  0  0  0  0
   40.4640   30.7710   43.7650 C   0  0  0  0  0  0  0  0  0  0  0  0
   41.0430   29.7230   43.1750 N   0  0  0  0  0  0  0  0  0  0  0  0
   41.4410   28.8730   43.6370 H   0  0  0  0  0  0  0  0  0  0  0  0
   41.0710   29.8670   41.8400 C   0  0  0  0  0  0  0  0  0  0  0  0
   41.4720   29.1880   41.1170 H   0  0  0  0  0  0  0  0  0  0  0  0
   40.4680   31.0840   41.6080 C   0  0  0  0  0  0  0  0  0  0  0  0
   40.0730   31.6800   42.8040 C   0  0  0  0  0  0  0  0  0  0  0  0
   39.4450   32.8570   43.1640 C   0  0  0  0  0  0  0  0  0  0  0  0
  1  2  1  0  0  0  0
  2  7  1  0  0  0  0
  2  3  2  0  0  0  0
  3  8  1  0  0  0  0
  4  3  1  0  0  0  0
  5  4  2  0  0  0  0
  6  5  1  0  0  0  0
  6  1  2  0  0  0  0
  9 18  1  0  0  0  0
  9  5  1  0  0  0  0
 10  9  2  0  0  0  0
 11 12  2  0  0  0  0
 11 10  1  0  0  0  0
 12 17  1  0  0  0  0
 13 14  2  0  0  0  0
 13 12  1  0  0  0  0
 14 15  1  0  0  0  0
 15 22  1  0  0  0  0
 15 16  2  0  0  0  0
 16 23  1  0  0  0  0
 17 16  1  0  0  0  0
 17 18  2  0  0  0  0
 18 24  1  0  0  0  0
 19 10  1  0  0  0  0
 20 11  1  0  0  0  0
 21 14  1  0  0  0  0
 25 31  1  0  0  0  0
 25 30  1  0  0  0  0
 26 25  2  0  0  0  0
 27 26  1  0  0  0  0
 27 28  2  0  0  0  0
 28 29  1  0  0  0  0
 29 30  2  0  0  0  0
 29  1  1  0  0  0  0
 32 26  1  0  0  0  0
 33 34  1  0  0  0  0
 34 27  1  0  0  0  0
 35 34  2  0  0  0  0
 35 36  1  0  0  0  0
 37 35  1  0  0  0  0
 38 39  1  0  0  0  0
 38 37  1  0  0  0  0
 40 38  1  0  0  0  0
 41 40  1  0  0  0  0
 42 40  2  0  0  0  0
 42 43  1  0  0  0  0
 43 44  1  0  0  0  0
 43 37  2  0  0  0  0
 44 33  2  0  0  0  0
M  END
>  <minimizedAffinity>
-8.57861519

>  <minimizedRMSD>
0.504087031

$$$$
