
 OpenBabel03272505073D

 36 39  0  0  1  0  0  0  0  0999 V2000
   35.6580   23.5190   31.1070 C   0  0  0  0  0  0  0  0  0  0  0  0
   35.4860   24.8560   31.4760 C   0  0  0  0  0  0  0  0  0  0  0  0
   36.6080   25.5800   31.8370 C   0  0  0  0  0  0  0  0  0  0  0  0
   37.8010   24.9460   31.8100 N   0  0  0  0  0  0  0  0  0  0  0  0
   37.9470   23.6600   31.4520 C   0  0  0  0  0  0  0  0  0  0  0  0
   36.8720   22.9430   31.0990 N   0  0  0  0  0  0  0  0  0  0  0  0
   36.6650   26.9450   32.2480 N   0  0  0  0  0  0  0  0  0  0  0  0
   35.9780   28.0120   31.5780 C   0  0  0  0  0  0  0  0  0  0  0  0
   35.2610   28.9820   32.4280 C   0  0  0  0  0  0  0  0  0  0  0  0
   35.8980   29.3280   33.7290 C   0  0  0  0  0  0  0  0  0  0  0  0
   36.3990   28.0660   34.3780 C   0  0  0  0  0  0  0  0  0  0  0  0
   37.3960   27.4610   33.3610 C   0  0  1  0  0  0  0  0  0  0  0  0
   34.7140   23.0530   30.8450 H   0  0  0  0  0  0  0  0  0  0  0  0
   34.5600   25.4060   31.5150 H   0  0  0  0  0  0  0  0  0  0  0  0
   38.9130   23.1640   31.4350 H   0  0  0  0  0  0  0  0  0  0  0  0
   36.7530   28.5430   30.9550 H   0  0  0  0  0  0  0  0  0  0  0  0
   35.2630   27.5510   30.8630 H   0  0  0  0  0  0  0  0  0  0  0  0
   35.1660   29.9470   31.8550 H   0  0  0  0  0  0  0  0  0  0  0  0
   34.2200   28.6290   32.5950 H   0  0  0  0  0  0  0  0  0  0  0  0
   35.0970   29.7460   34.3880 H   0  0  0  0  0  0  0  0  0  0  0  0
   36.7050   30.0910   33.6620 H   0  0  0  0  0  0  0  0  0  0  0  0
   35.5420   27.3510   34.3880 H   0  0  0  0  0  0  0  0  0  0  0  0
   36.8470   28.1900   35.3650 H   0  0  0  0  0  0  0  0  0  0  0  0
   38.1370   28.2180   33.0320 H   0  0  0  0  0  0  0  0  0  0  0  0
   39.4770   26.1420   33.9940 C   0  0  0  0  0  3  0  0  0  0  0  0
   38.1400   26.4440   34.1500 C   0  0  0  0  0  0  0  0  0  0  0  0
   37.5080   25.6900   35.1460 C   0  0  0  0  0  0  0  0  0  0  0  0
   36.4580   25.8760   35.3200 H   0  0  0  0  0  0  0  0  0  0  0  0
   38.1060   24.7340   35.9230 C   0  0  0  0  0  0  0  0  0  0  0  0
   37.6330   23.9440   36.9020 N   0  0  0  0  0  0  0  0  0  0  0  0
   36.6300   23.9420   37.2540 H   0  0  0  0  0  0  0  0  0  0  0  0
   38.6310   23.1880   37.3350 C   0  0  0  0  0  0  0  0  0  0  0  0
   38.5050   22.4720   38.1160 H   0  0  0  0  0  0  0  0  0  0  0  0
   39.7670   23.4810   36.6380 C   0  0  0  0  0  3  0  0  0  0  0  0
   39.4410   24.4820   35.7200 C   0  0  0  0  0  0  0  0  0  0  0  0
   40.1240   25.1890   34.7530 C   0  0  0  0  0  3  0  0  0  0  0  0
  1  2  1  0  0  0  0
  2 14  1  0  0  0  0
  2  3  2  0  0  0  0
  3  7  1  0  0  0  0
  4  3  1  0  0  0  0
  5  4  2  0  0  0  0
  6  1  2  0  0  0  0
  6  5  1  0  0  0  0
  7 12  1  0  0  0  0
  8  7  1  0  0  0  0
  8  9  1  0  0  0  0
  9 19  1  0  0  0  0
  9 10  1  0  0  0  0
 10 11  1  0  0  0  0
 10 20  1  0  0  0  0
 11 22  1  0  0  0  0
 11 23  1  0  0  0  0
 12 24  1  6  0  0  0
 12 26  1  0  0  0  0
 12 11  1  0  0  0  0
 13  1  1  0  0  0  0
 15  5  1  0  0  0  0
 16  8  1  0  0  0  0
 17  8  1  0  0  0  0
 18  9  1  0  0  0  0
 21 10  1  0  0  0  0
 25 26  2  0  0  0  0
 25 36  1  0  0  0  0
 26 27  1  0  0  0  0
 27 28  1  0  0  0  0
 27 29  2  0  0  0  0
 29 30  1  0  0  0  0
 30 31  1  0  0  0  0
 30 32  1  0  0  0  0
 32 33  1  0  0  0  0
 34 32  2  0  0  0  0
 35 29  1  0  0  0  0
 35 34  1  0  0  0  0
 36 35  2  0  0  0  0
M  END
>  <minimizedAffinity>
-5.69310093

$$$$

 OpenBabel03272505073D

 36 39  0  0  1  0  0  0  0  0999 V2000
   31.0200   28.2660   35.1540 C   0  0  0  0  0  0  0  0  0  0  0  0
   31.7020   29.3470   35.7180 C   0  0  0  0  0  0  0  0  0  0  0  0
   32.4870   30.1250   34.8860 C   0  0  0  0  0  0  0  0  0  0  0  0
   32.5440   29.7880   33.5790 N   0  0  0  0  0  0  0  0  0  0  0  0
   31.8810   28.7450   33.0550 C   0  0  0  0  0  0  0  0  0  0  0  0
   31.1150   27.9800   33.8450 N   0  0  0  0  0  0  0  0  0  0  0  0
   33.2670   31.2650   35.2450 N   0  0  0  0  0  0  0  0  0  0  0  0
   32.7900   32.3300   36.0800 C   0  0  0  0  0  0  0  0  0  0  0  0
   33.7000   32.8070   37.1390 C   0  0  0  0  0  0  0  0  0  0  0  0
   35.1530   32.8320   36.8090 C   0  0  0  0  0  0  0  0  0  0  0  0
   35.5140   31.5570   36.0990 C   0  0  0  0  0  0  0  0  0  0  0  0
   34.6120   31.5280   34.8420 C   0  0  1  0  0  0  0  0  0  0  0  0
   30.4380   27.7300   35.8970 H   0  0  0  0  0  0  0  0  0  0  0  0
   31.6900   29.6560   36.7500 H   0  0  0  0  0  0  0  0  0  0  0  0
   31.9360   28.4870   32.0010 H   0  0  0  0  0  0  0  0  0  0  0  0
   32.5250   33.1790   35.3880 H   0  0  0  0  0  0  0  0  0  0  0  0
   31.8360   31.9920   36.5400 H   0  0  0  0  0  0  0  0  0  0  0  0
   33.4150   33.8660   37.3960 H   0  0  0  0  0  0  0  0  0  0  0  0
   33.5310   32.2170   38.0670 H   0  0  0  0  0  0  0  0  0  0  0  0
   35.7120   32.8430   37.7780 H   0  0  0  0  0  0  0  0  0  0  0  0
   35.4800   33.7220   36.2270 H   0  0  0  0  0  0  0  0  0  0  0  0
   35.1360   30.7190   36.7320 H   0  0  0  0  0  0  0  0  0  0  0  0
   36.5690   31.4410   35.8460 H   0  0  0  0  0  0  0  0  0  0  0  0
   34.6780   32.4840   34.2830 H   0  0  0  0  0  0  0  0  0  0  0  0
   35.7480   29.2880   34.4370 C   0  0  0  0  0  3  0  0  0  0  0  0
   35.2250   30.4810   33.9830 C   0  0  0  0  0  0  0  0  0  0  0  0
   35.3180   30.6410   32.5960 C   0  0  0  0  0  0  0  0  0  0  0  0
   34.9280   31.5550   32.1720 H   0  0  0  0  0  0  0  0  0  0  0  0
   35.8630   29.7370   31.7230 C   0  0  0  0  0  0  0  0  0  0  0  0
   36.0180   29.7540   30.3880 N   0  0  0  0  0  0  0  0  0  0  0  0
   35.7130   30.5460   29.7490 H   0  0  0  0  0  0  0  0  0  0  0  0
   36.6090   28.6230   30.0310 C   0  0  0  0  0  0  0  0  0  0  0  0
   36.8430   28.4000   29.0140 H   0  0  0  0  0  0  0  0  0  0  0  0
   36.8450   27.8570   31.1350 C   0  0  0  0  0  3  0  0  0  0  0  0
   36.3660   28.5670   32.2390 C   0  0  0  0  0  0  0  0  0  0  0  0
   36.3060   28.3460   33.5990 C   0  0  0  0  0  3  0  0  0  0  0  0
  1  2  1  0  0  0  0
  1 13  1  0  0  0  0
  2 14  1  0  0  0  0
  3  7  1  0  0  0  0
  3  2  2  0  0  0  0
  4  3  1  0  0  0  0
  5  4  2  0  0  0  0
  5  6  1  0  0  0  0
  6  1  2  0  0  0  0
  7  8  1  0  0  0  0
  8 17  1  0  0  0  0
  8  9  1  0  0  0  0
  9 18  1  0  0  0  0
  9 19  1  0  0  0  0
 10  9  1  0  0  0  0
 10 20  1  0  0  0  0
 11 22  1  0  0  0  0
 11 10  1  0  0  0  0
 12 24  1  6  0  0  0
 12  7  1  0  0  0  0
 12 11  1  0  0  0  0
 15  5  1  0  0  0  0
 16  8  1  0  0  0  0
 21 10  1  0  0  0  0
 23 11  1  0  0  0  0
 26 25  1  0  0  0  0
 26 12  1  0  0  0  0
 27 26  2  0  0  0  0
 28 27  1  0  0  0  0
 29 35  2  0  0  0  0
 29 27  1  0  0  0  0
 30 29  1  0  0  0  0
 31 30  1  0  0  0  0
 32 30  1  0  0  0  0
 32 34  2  0  0  0  0
 33 32  1  0  0  0  0
 34 35  1  0  0  0  0
 35 36  1  0  0  0  0
 36 25  2  0  0  0  0
M  END
>  <minimizedAffinity>
-5.6846261

$$$$

 OpenBabel03272505073D

 36 39  0  0  1  0  0  0  0  0999 V2000
   37.9420   27.4020   35.2980 C   0  0  0  0  0  0  0  0  0  0  0  0
   39.1830   26.7880   35.4900 C   0  0  0  0  0  0  0  0  0  0  0  0
   39.5000   25.7010   34.6950 C   0  0  0  0  0  0  0  0  0  0  0  0
   38.5860   25.3030   33.7820 N   0  0  0  0  0  0  0  0  0  0  0  0
   37.3990   25.9060   33.6120 C   0  0  0  0  0  0  0  0  0  0  0  0
   37.0750   26.9600   34.3730 N   0  0  0  0  0  0  0  0  0  0  0  0
   40.6970   24.9270   34.7200 N   0  0  0  0  0  0  0  0  0  0  0  0
   42.0160   25.4930   34.7750 C   0  0  0  0  0  0  0  0  0  0  0  0
   42.9650   24.8850   35.7260 C   0  0  0  0  0  0  0  0  0  0  0  0
   42.8770   23.4080   35.9040 C   0  0  0  0  0  0  0  0  0  0  0  0
   41.4300   23.0150   36.0140 C   0  0  0  0  0  0  0  0  0  0  0  0
   40.7820   23.5010   34.6960 C   0  0  1  0  0  0  0  0  0  0  0  0
   37.8030   28.2400   35.9740 H   0  0  0  0  0  0  0  0  0  0  0  0
   39.9430   27.0660   36.2020 H   0  0  0  0  0  0  0  0  0  0  0  0
   36.6750   25.5740   32.8730 H   0  0  0  0  0  0  0  0  0  0  0  0
   42.4270   25.4330   33.7270 H   0  0  0  0  0  0  0  0  0  0  0  0
   41.9050   26.5740   35.0060 H   0  0  0  0  0  0  0  0  0  0  0  0
   44.0100   25.0990   35.3640 H   0  0  0  0  0  0  0  0  0  0  0  0
   42.8780   25.3930   36.7120 H   0  0  0  0  0  0  0  0  0  0  0  0
   43.3630   23.1640   36.8830 H   0  0  0  0  0  0  0  0  0  0  0  0
   43.3960   22.8150   35.1190 H   0  0  0  0  0  0  0  0  0  0  0  0
   40.9800   23.6650   36.8020 H   0  0  0  0  0  0  0  0  0  0  0  0
   41.2420   21.9550   36.1930 H   0  0  0  0  0  0  0  0  0  0  0  0
   41.3610   23.1540   33.8150 H   0  0  0  0  0  0  0  0  0  0  0  0
   38.9080   22.2350   33.5300 C   0  0  0  0  0  3  0  0  0  0  0  0
   39.4730   22.7970   34.6570 C   0  0  0  0  0  0  0  0  0  0  0  0
   38.6920   22.6480   35.8080 C   0  0  0  0  0  0  0  0  0  0  0  0
   39.0760   23.0660   36.7280 H   0  0  0  0  0  0  0  0  0  0  0  0
   37.4780   22.0170   35.8730 C   0  0  0  0  0  0  0  0  0  0  0  0
   36.6290   21.8000   36.8930 N   0  0  0  0  0  0  0  0  0  0  0  0
   36.7860   22.1160   37.8950 H   0  0  0  0  0  0  0  0  0  0  0  0
   35.5860   21.1340   36.4200 C   0  0  0  0  0  0  0  0  0  0  0  0
   34.7680   20.8430   37.0410 H   0  0  0  0  0  0  0  0  0  0  0  0
   35.7480   20.9100   35.0840 C   0  0  0  0  0  3  0  0  0  0  0  0
   36.9710   21.4770   34.7170 C   0  0  0  0  0  0  0  0  0  0  0  0
   37.6900   21.5880   33.5460 C   0  0  0  0  0  3  0  0  0  0  0  0
  1  2  1  0  0  0  0
  1 13  1  0  0  0  0
  2 14  1  0  0  0  0
  3  7  1  0  0  0  0
  3  2  2  0  0  0  0
  4  3  1  0  0  0  0
  5  4  2  0  0  0  0
  5  6  1  0  0  0  0
  6  1  2  0  0  0  0
  7  8  1  0  0  0  0
  8 17  1  0  0  0  0
  8  9  1  0  0  0  0
  9 10  1  0  0  0  0
  9 19  1  0  0  0  0
 10 11  1  0  0  0  0
 10 20  1  0  0  0  0
 11 23  1  0  0  0  0
 11 22  1  0  0  0  0
 12 24  1  6  0  0  0
 12  7  1  0  0  0  0
 12 11  1  0  0  0  0
 15  5  1  0  0  0  0
 16  8  1  0  0  0  0
 18  9  1  0  0  0  0
 21 10  1  0  0  0  0
 25 36  2  0  0  0  0
 25 26  1  0  0  0  0
 26 12  1  0  0  0  0
 26 27  2  0  0  0  0
 27 29  1  0  0  0  0
 27 28  1  0  0  0  0
 29 30  1  0  0  0  0
 30 31  1  0  0  0  0
 32 30  1  0  0  0  0
 32 33  1  0  0  0  0
 34 32  2  0  0  0  0
 35 34  1  0  0  0  0
 35 29  2  0  0  0  0
 36 35  1  0  0  0  0
M  END
>  <minimizedAffinity>
-5.68151999

$$$$

 OpenBabel03272505073D

 36 39  0  0  1  0  0  0  0  0999 V2000
   42.9380   26.2260   34.2180 C   0  0  0  0  0  0  0  0  0  0  0  0
   42.3030   25.3840   35.1340 C   0  0  0  0  0  0  0  0  0  0  0  0
   41.0500   24.8960   34.8070 C   0  0  0  0  0  0  0  0  0  0  0  0
   40.5210   25.2660   33.6190 N   0  0  0  0  0  0  0  0  0  0  0  0
   41.1480   26.0770   32.7520 C   0  0  0  0  0  0  0  0  0  0  0  0
   42.3620   26.5590   33.0510 N   0  0  0  0  0  0  0  0  0  0  0  0
   40.2240   24.0330   35.5860 N   0  0  0  0  0  0  0  0  0  0  0  0
   40.7020   22.8530   36.2510 C   0  0  0  0  0  0  0  0  0  0  0  0
   40.2570   22.6440   37.6420 C   0  0  0  0  0  0  0  0  0  0  0  0
   38.8630   23.0610   37.9660 C   0  0  0  0  0  0  0  0  0  0  0  0
   38.5980   24.4030   37.3420 C   0  0  0  0  0  0  0  0  0  0  0  0
   38.8250   24.1920   35.8260 C   0  0  1  0  0  0  0  0  0  0  0  0
   43.9110   26.5460   34.5790 H   0  0  0  0  0  0  0  0  0  0  0  0
   42.6800   25.0600   36.0900 H   0  0  0  0  0  0  0  0  0  0  0  0
   40.7100   26.3650   31.8010 H   0  0  0  0  0  0  0  0  0  0  0  0
   40.3880   21.9810   35.6090 H   0  0  0  0  0  0  0  0  0  0  0  0
   41.8130   22.8800   36.2210 H   0  0  0  0  0  0  0  0  0  0  0  0
   40.3190   21.5420   37.8680 H   0  0  0  0  0  0  0  0  0  0  0  0
   40.9730   23.1340   38.3380 H   0  0  0  0  0  0  0  0  0  0  0  0
   38.8090   23.1930   39.0760 H   0  0  0  0  0  0  0  0  0  0  0  0
   38.0800   22.3240   37.6810 H   0  0  0  0  0  0  0  0  0  0  0  0
   39.4320   25.0740   37.6580 H   0  0  0  0  0  0  0  0  0  0  0  0
   37.6180   24.8350   37.5510 H   0  0  0  0  0  0  0  0  0  0  0  0
   38.2570   23.3130   35.4570 H   0  0  0  0  0  0  0  0  0  0  0  0
   38.2000   26.6570   35.7570 C   0  0  0  0  0  3  0  0  0  0  0  0
   38.2150   25.3950   35.2000 C   0  0  0  0  0  0  0  0  0  0  0  0
   37.5890   25.3270   33.9510 C   0  0  0  0  0  0  0  0  0  0  0  0
   37.5640   24.3650   33.4580 H   0  0  0  0  0  0  0  0  0  0  0  0
   37.0010   26.3750   33.2950 C   0  0  0  0  0  0  0  0  0  0  0  0
   36.3720   26.4570   32.1090 N   0  0  0  0  0  0  0  0  0  0  0  0
   36.2220   25.6450   31.4400 H   0  0  0  0  0  0  0  0  0  0  0  0
   35.9850   27.7130   31.9390 C   0  0  0  0  0  0  0  0  0  0  0  0
   35.4600   28.0330   31.0670 H   0  0  0  0  0  0  0  0  0  0  0  0
   36.3600   28.4620   33.0160 C   0  0  0  0  0  3  0  0  0  0  0  0
   37.0200   27.6070   33.9020 C   0  0  0  0  0  0  0  0  0  0  0  0
   37.6210   27.7440   35.1350 C   0  0  0  0  0  3  0  0  0  0  0  0
  1 13  1  0  0  0  0
  1  2  1  0  0  0  0
  2 14  1  0  0  0  0
  3  2  2  0  0  0  0
  3  7  1  0  0  0  0
  4  3  1  0  0  0  0
  5  6  1  0  0  0  0
  5  4  2  0  0  0  0
  6  1  2  0  0  0  0
  7 12  1  0  0  0  0
  7  8  1  0  0  0  0
  8  9  1  0  0  0  0
  9 18  1  0  0  0  0
  9 10  1  0  0  0  0
  9 19  1  0  0  0  0
 10 20  1  0  0  0  0
 11 23  1  0  0  0  0
 11 22  1  0  0  0  0
 11 10  1  0  0  0  0
 12 24  1  6  0  0  0
 12 11  1  0  0  0  0
 15  5  1  0  0  0  0
 16  8  1  0  0  0  0
 17  8  1  0  0  0  0
 21 10  1  0  0  0  0
 26 25  1  0  0  0  0
 26 12  1  0  0  0  0
 27 26  2  0  0  0  0
 28 27  1  0  0  0  0
 29 35  2  0  0  0  0
 29 27  1  0  0  0  0
 30 29  1  0  0  0  0
 31 30  1  0  0  0  0
 32 30  1  0  0  0  0
 32 34  2  0  0  0  0
 33 32  1  0  0  0  0
 34 35  1  0  0  0  0
 35 36  1  0  0  0  0
 36 25  2  0  0  0  0
M  END
>  <minimizedAffinity>
-5.60294104

$$$$

 OpenBabel03272505073D

 36 39  0  0  1  0  0  0  0  0999 V2000
   35.5080   21.9000   32.2030 C   0  0  0  0  0  0  0  0  0  0  0  0
   35.9350   23.1900   31.8780 C   0  0  0  0  0  0  0  0  0  0  0  0
   37.2180   23.5610   32.2420 C   0  0  0  0  0  0  0  0  0  0  0  0
   37.9750   22.6480   32.8910 N   0  0  0  0  0  0  0  0  0  0  0  0
   37.5470   21.4130   33.1940 C   0  0  0  0  0  0  0  0  0  0  0  0
   36.3090   21.0360   32.8490 N   0  0  0  0  0  0  0  0  0  0  0  0
   37.8550   24.8170   32.0180 N   0  0  0  0  0  0  0  0  0  0  0  0
   37.8200   25.5200   30.7660 C   0  0  0  0  0  0  0  0  0  0  0  0
   37.5450   26.9680   30.8220 C   0  0  0  0  0  0  0  0  0  0  0  0
   38.1210   27.7130   31.9760 C   0  0  0  0  0  0  0  0  0  0  0  0
   37.9040   26.9120   33.2310 C   0  0  0  0  0  0  0  0  0  0  0  0
   38.6130   25.5620   32.9720 C   0  0  1  0  0  0  0  0  0  0  0  0
   34.4910   21.7210   31.8690 H   0  0  0  0  0  0  0  0  0  0  0  0
   35.3720   23.9520   31.3640 H   0  0  0  0  0  0  0  0  0  0  0  0
   38.1680   20.6910   33.7150 H   0  0  0  0  0  0  0  0  0  0  0  0
   38.8160   25.3340   30.2730 H   0  0  0  0  0  0  0  0  0  0  0  0
   37.0570   25.0250   30.1270 H   0  0  0  0  0  0  0  0  0  0  0  0
   37.9730   27.4420   29.8930 H   0  0  0  0  0  0  0  0  0  0  0  0
   36.4480   27.1400   30.7670 H   0  0  0  0  0  0  0  0  0  0  0  0
   37.5370   28.6620   32.0810 H   0  0  0  0  0  0  0  0  0  0  0  0
   39.1910   27.9940   31.8600 H   0  0  0  0  0  0  0  0  0  0  0  0
   36.8180   26.6560   33.2620 H   0  0  0  0  0  0  0  0  0  0  0  0
   38.2460   27.3820   34.1540 H   0  0  0  0  0  0  0  0  0  0  0  0
   39.6520   25.7190   32.6160 H   0  0  0  0  0  0  0  0  0  0  0  0
   37.7770   25.0890   35.3270 C   0  0  0  0  0  3  0  0  0  0  0  0
   38.7070   24.9410   34.3200 C   0  0  0  0  0  0  0  0  0  0  0  0
   39.7910   24.1310   34.6730 C   0  0  0  0  0  0  0  0  0  0  0  0
   40.5590   23.9730   33.9290 H   0  0  0  0  0  0  0  0  0  0  0  0
   39.9670   23.5160   35.8850 C   0  0  0  0  0  0  0  0  0  0  0  0
   40.9420   22.7210   36.3590 N   0  0  0  0  0  0  0  0  0  0  0  0
   41.8030   22.4220   35.8150 H   0  0  0  0  0  0  0  0  0  0  0  0
   40.6300   22.3910   37.6040 C   0  0  0  0  0  0  0  0  0  0  0  0
   41.2530   21.7610   38.1980 H   0  0  0  0  0  0  0  0  0  0  0  0
   39.4440   22.9700   37.9510 C   0  0  0  0  0  3  0  0  0  0  0  0
   39.0030   23.7020   36.8460 C   0  0  0  0  0  0  0  0  0  0  0  0
   37.9080   24.4900   36.5630 C   0  0  0  0  0  3  0  0  0  0  0  0
  1  6  1  0  0  0  0
  2  1  2  0  0  0  0
  2  3  1  0  0  0  0
  3  4  2  0  0  0  0
  4  5  1  0  0  0  0
  5 15  1  0  0  0  0
  6  5  2  0  0  0  0
  7  3  1  0  0  0  0
  7 12  1  0  0  0  0
  8  9  1  0  0  0  0
  8  7  1  0  0  0  0
  9 10  1  0  0  0  0
 10 20  1  0  0  0  0
 10 11  1  0  0  0  0
 11 22  1  0  0  0  0
 11 23  1  0  0  0  0
 12 24  1  6  0  0  0
 12 11  1  0  0  0  0
 12 26  1  0  0  0  0
 13  1  1  0  0  0  0
 14  2  1  0  0  0  0
 16  8  1  0  0  0  0
 17  8  1  0  0  0  0
 18  9  1  0  0  0  0
 19  9  1  0  0  0  0
 21 10  1  0  0  0  0
 25 36  1  0  0  0  0
 26 27  1  0  0  0  0
 26 25  2  0  0  0  0
 27 29  2  0  0  0  0
 28 27  1  0  0  0  0
 29 30  1  0  0  0  0
 29 35  1  0  0  0  0
 30 32  1  0  0  0  0
 31 30  1  0  0  0  0
 32 34  2  0  0  0  0
 32 33  1  0  0  0  0
 35 34  1  0  0  0  0
 36 35  2  0  0  0  0
M  END
>  <minimizedAffinity>
-5.48485804

$$$$

 OpenBabel03272505073D

 36 39  0  0  1  0  0  0  0  0999 V2000
   36.3980   27.3890   31.0220 C   0  0  0  0  0  0  0  0  0  0  0  0
   37.7820   27.5810   31.0390 C   0  0  0  0  0  0  0  0  0  0  0  0
   38.5640   26.6130   31.6440 C   0  0  0  0  0  0  0  0  0  0  0  0
   37.9370   25.5430   32.1800 N   0  0  0  0  0  0  0  0  0  0  0  0
   36.6050   25.3760   32.1530 C   0  0  0  0  0  0  0  0  0  0  0  0
   35.8320   26.3030   31.5720 N   0  0  0  0  0  0  0  0  0  0  0  0
   39.9840   26.6050   31.7790 N   0  0  0  0  0  0  0  0  0  0  0  0
   40.8920   26.9210   30.7130 C   0  0  0  0  0  0  0  0  0  0  0  0
   42.0150   27.8200   31.0360 C   0  0  0  0  0  0  0  0  0  0  0  0
   42.6200   27.6710   32.3900 C   0  0  0  0  0  0  0  0  0  0  0  0
   41.5190   27.5370   33.4050 C   0  0  0  0  0  0  0  0  0  0  0  0
   40.7170   26.2890   32.9630 C   0  0  1  0  0  0  0  0  0  0  0  0
   35.8880   28.2080   30.5230 H   0  0  0  0  0  0  0  0  0  0  0  0
   38.3280   28.4140   30.6270 H   0  0  0  0  0  0  0  0  0  0  0  0
   36.1160   24.5100   32.5880 H   0  0  0  0  0  0  0  0  0  0  0  0
   41.2830   25.9350   30.3300 H   0  0  0  0  0  0  0  0  0  0  0  0
   40.2940   27.3620   29.8860 H   0  0  0  0  0  0  0  0  0  0  0  0
   42.8430   27.6270   30.2960 H   0  0  0  0  0  0  0  0  0  0  0  0
   41.7050   28.8750   30.8720 H   0  0  0  0  0  0  0  0  0  0  0  0
   43.1650   28.6230   32.6140 H   0  0  0  0  0  0  0  0  0  0  0  0
   43.3540   26.8400   32.4810 H   0  0  0  0  0  0  0  0  0  0  0  0
   40.8200   28.3910   33.2340 H   0  0  0  0  0  0  0  0  0  0  0  0
   41.8420   27.4670   34.4440 H   0  0  0  0  0  0  0  0  0  0  0  0
   41.3910   25.4230   32.7930 H   0  0  0  0  0  0  0  0  0  0  0  0
   39.2220   26.8820   34.9340 C   0  0  0  0  0  3  0  0  0  0  0  0
   39.8830   25.9600   34.1490 C   0  0  0  0  0  0  0  0  0  0  0  0
   39.7010   24.6370   34.5660 C   0  0  0  0  0  0  0  0  0  0  0  0
   40.1920   23.8620   33.9950 H   0  0  0  0  0  0  0  0  0  0  0  0
   38.9530   24.2350   35.6410 C   0  0  0  0  0  0  0  0  0  0  0  0
   38.6920   23.0190   36.1530 N   0  0  0  0  0  0  0  0  0  0  0  0
   39.0620   22.1020   35.7650 H   0  0  0  0  0  0  0  0  0  0  0  0
   37.9060   23.1800   37.2070 C   0  0  0  0  0  0  0  0  0  0  0  0
   37.5580   22.3560   37.7880 H   0  0  0  0  0  0  0  0  0  0  0  0
   37.6470   24.5070   37.3900 C   0  0  0  0  0  3  0  0  0  0  0  0
   38.3190   25.2020   36.3820 C   0  0  0  0  0  0  0  0  0  0  0  0
   38.4570   26.5260   36.0250 C   0  0  0  0  0  3  0  0  0  0  0  0
  1  2  2  0  0  0  0
  1  6  1  0  0  0  0
  2  3  1  0  0  0  0
  3  7  1  0  0  0  0
  3  4  2  0  0  0  0
  5  4  1  0  0  0  0
  5 15  1  0  0  0  0
  6  5  2  0  0  0  0
  7 12  1  0  0  0  0
  8  9  1  0  0  0  0
  8  7  1  0  0  0  0
  9 10  1  0  0  0  0
 10 21  1  0  0  0  0
 10 20  1  0  0  0  0
 10 11  1  0  0  0  0
 11 23  1  0  0  0  0
 12 24  1  6  0  0  0
 12 11  1  0  0  0  0
 12 26  1  0  0  0  0
 13  1  1  0  0  0  0
 14  2  1  0  0  0  0
 16  8  1  0  0  0  0
 17  8  1  0  0  0  0
 18  9  1  0  0  0  0
 19  9  1  0  0  0  0
 22 11  1  0  0  0  0
 25 36  1  0  0  0  0
 26 27  1  0  0  0  0
 26 25  2  0  0  0  0
 27 29  2  0  0  0  0
 28 27  1  0  0  0  0
 29 30  1  0  0  0  0
 29 35  1  0  0  0  0
 30 32  1  0  0  0  0
 31 30  1  0  0  0  0
 32 34  2  0  0  0  0
 32 33  1  0  0  0  0
 35 34  1  0  0  0  0
 36 35  2  0  0  0  0
M  END
>  <minimizedAffinity>
-5.46004725

$$$$

 OpenBabel03272505073D

 36 39  0  0  1  0  0  0  0  0999 V2000
   39.2610   22.0390   33.8840 C   0  0  0  0  0  0  0  0  0  0  0  0
   40.3940   22.8580   33.8810 C   0  0  0  0  0  0  0  0  0  0  0  0
   40.3780   23.9910   34.6750 C   0  0  0  0  0  0  0  0  0  0  0  0
   39.2650   24.2330   35.4030 N   0  0  0  0  0  0  0  0  0  0  0  0
   38.1860   23.4340   35.3920 C   0  0  0  0  0  0  0  0  0  0  0  0
   38.1840   22.3320   34.6300 N   0  0  0  0  0  0  0  0  0  0  0  0
   41.4120   24.9620   34.8220 N   0  0  0  0  0  0  0  0  0  0  0  0
   42.7960   24.6350   35.0150 C   0  0  0  0  0  0  0  0  0  0  0  0
   43.7790   25.3890   34.2150 C   0  0  0  0  0  0  0  0  0  0  0  0
   43.4740   26.8260   33.9660 C   0  0  0  0  0  0  0  0  0  0  0  0
   42.0230   26.9600   33.5960 C   0  0  0  0  0  0  0  0  0  0  0  0
   41.2470   26.3810   34.8040 C   0  0  1  0  0  0  0  0  0  0  0  0
   39.3870   21.1830   33.2280 H   0  0  0  0  0  0  0  0  0  0  0  0
   41.3020   22.7100   33.3210 H   0  0  0  0  0  0  0  0  0  0  0  0
   37.2990   23.6420   35.9830 H   0  0  0  0  0  0  0  0  0  0  0  0
   43.0020   24.7760   36.1140 H   0  0  0  0  0  0  0  0  0  0  0  0
   42.9130   23.5480   34.8120 H   0  0  0  0  0  0  0  0  0  0  0  0
   44.7660   25.3640   34.7580 H   0  0  0  0  0  0  0  0  0  0  0  0
   43.9540   24.8640   33.2510 H   0  0  0  0  0  0  0  0  0  0  0  0
   44.0750   27.1410   33.0750 H   0  0  0  0  0  0  0  0  0  0  0  0
   43.7400   27.5090   34.8030 H   0  0  0  0  0  0  0  0  0  0  0  0
   41.8340   26.2340   32.7700 H   0  0  0  0  0  0  0  0  0  0  0  0
   41.6910   27.9690   33.3450 H   0  0  0  0  0  0  0  0  0  0  0  0
   41.5970   26.8330   35.7550 H   0  0  0  0  0  0  0  0  0  0  0  0
   38.9750   27.2080   35.5940 C   0  0  0  0  0  3  0  0  0  0  0  0
   39.8510   26.8470   34.5910 C   0  0  0  0  0  0  0  0  0  0  0  0
   39.3080   26.9570   33.3060 C   0  0  0  0  0  0  0  0  0  0  0  0
   39.9420   26.6880   32.4730 H   0  0  0  0  0  0  0  0  0  0  0  0
   38.0380   27.3750   33.0100 C   0  0  0  0  0  0  0  0  0  0  0  0
   37.3900   27.5290   31.8420 N   0  0  0  0  0  0  0  0  0  0  0  0
   37.8040   27.3300   30.8840 H   0  0  0  0  0  0  0  0  0  0  0  0
   36.1680   27.9650   32.1080 C   0  0  0  0  0  0  0  0  0  0  0  0
   35.4550   28.1640   31.3400 H   0  0  0  0  0  0  0  0  0  0  0  0
   36.0100   28.1010   33.4560 C   0  0  0  0  0  3  0  0  0  0  0  0
   37.2150   27.7220   34.0530 C   0  0  0  0  0  0  0  0  0  0  0  0
   37.6880   27.6370   35.3450 C   0  0  0  0  0  3  0  0  0  0  0  0
  1  6  1  0  0  0  0
  2  1  2  0  0  0  0
  2  3  1  0  0  0  0
  3  7  1  0  0  0  0
  3  4  2  0  0  0  0
  5  4  1  0  0  0  0
  5 15  1  0  0  0  0
  6  5  2  0  0  0  0
  7  8  1  0  0  0  0
  8 16  1  0  0  0  0
  9 18  1  0  0  0  0
  9  8  1  0  0  0  0
 10  9  1  0  0  0  0
 10 21  1  0  0  0  0
 11 10  1  0  0  0  0
 11 12  1  0  0  0  0
 12  7  1  0  0  0  0
 12 24  1  1  0  0  0
 13  1  1  0  0  0  0
 14  2  1  0  0  0  0
 17  8  1  0  0  0  0
 19  9  1  0  0  0  0
 20 10  1  0  0  0  0
 22 11  1  0  0  0  0
 23 11  1  0  0  0  0
 26 12  1  0  0  0  0
 26 25  2  0  0  0  0
 27 26  1  0  0  0  0
 28 27  1  0  0  0  0
 29 27  2  0  0  0  0
 29 35  1  0  0  0  0
 30 32  1  0  0  0  0
 30 29  1  0  0  0  0
 31 30  1  0  0  0  0
 32 34  2  0  0  0  0
 33 32  1  0  0  0  0
 34 35  1  0  0  0  0
 35 36  2  0  0  0  0
 36 25  1  0  0  0  0
M  END
>  <minimizedAffinity>
-5.40900803

$$$$

 OpenBabel03272505073D

 36 39  0  0  1  0  0  0  0  0999 V2000
   38.3730   26.0960   36.0550 C   0  0  0  0  0  0  0  0  0  0  0  0
   37.8130   25.1350   35.2090 C   0  0  0  0  0  0  0  0  0  0  0  0
   38.1320   25.1880   33.8630 C   0  0  0  0  0  0  0  0  0  0  0  0
   38.9660   26.1700   33.4540 N   0  0  0  0  0  0  0  0  0  0  0  0
   39.4950   27.0850   34.2820 C   0  0  0  0  0  0  0  0  0  0  0  0
   39.1980   27.0480   35.5880 N   0  0  0  0  0  0  0  0  0  0  0  0
   37.6770   24.3190   32.8280 N   0  0  0  0  0  0  0  0  0  0  0  0
   37.6420   22.8890   32.9410 C   0  0  0  0  0  0  0  0  0  0  0  0
   36.4190   22.2110   32.4720 C   0  0  0  0  0  0  0  0  0  0  0  0
   35.7540   22.7900   31.2710 C   0  0  0  0  0  0  0  0  0  0  0  0
   35.7140   24.2870   31.4090 C   0  0  0  0  0  0  0  0  0  0  0  0
   37.1950   24.7170   31.5430 C   0  0  1  0  0  0  0  0  0  0  0  0
   38.0550   25.9560   37.0830 H   0  0  0  0  0  0  0  0  0  0  0  0
   37.1450   24.3350   35.4850 H   0  0  0  0  0  0  0  0  0  0  0  0
   40.1640   27.8670   33.9380 H   0  0  0  0  0  0  0  0  0  0  0  0
   38.5380   22.5070   32.3730 H   0  0  0  0  0  0  0  0  0  0  0  0
   37.8170   22.6340   34.0090 H   0  0  0  0  0  0  0  0  0  0  0  0
   36.6860   21.1490   32.2060 H   0  0  0  0  0  0  0  0  0  0  0  0
   35.6920   22.1360   33.3100 H   0  0  0  0  0  0  0  0  0  0  0  0
   34.6960   22.4270   31.2720 H   0  0  0  0  0  0  0  0  0  0  0  0
   36.2070   22.4890   30.3000 H   0  0  0  0  0  0  0  0  0  0  0  0
   35.2690   24.5040   32.4090 H   0  0  0  0  0  0  0  0  0  0  0  0
   35.2070   24.8210   30.6040 H   0  0  0  0  0  0  0  0  0  0  0  0
   37.8130   24.2740   30.7350 H   0  0  0  0  0  0  0  0  0  0  0  0
   38.1190   26.8960   30.6130 C   0  0  0  0  0  3  0  0  0  0  0  0
   37.1660   26.1850   31.3110 C   0  0  0  0  0  0  0  0  0  0  0  0
   36.1250   26.9790   31.8050 C   0  0  0  0  0  0  0  0  0  0  0  0
   35.3430   26.4850   32.3640 H   0  0  0  0  0  0  0  0  0  0  0  0
   36.0100   28.3340   31.6440 C   0  0  0  0  0  0  0  0  0  0  0  0
   35.0810   29.2150   32.0550 N   0  0  0  0  0  0  0  0  0  0  0  0
   34.2150   28.9690   32.6200 H   0  0  0  0  0  0  0  0  0  0  0  0
   35.4420   30.4170   31.6310 C   0  0  0  0  0  0  0  0  0  0  0  0
   34.8620   31.2890   31.8330 H   0  0  0  0  0  0  0  0  0  0  0  0
   36.6130   30.3290   30.9360 C   0  0  0  0  0  3  0  0  0  0  0  0
   36.9920   28.9840   30.9370 C   0  0  0  0  0  0  0  0  0  0  0  0
   38.0470   28.2600   30.4220 C   0  0  0  0  0  3  0  0  0  0  0  0
  1 13  1  0  0  0  0
  2 14  1  0  0  0  0
  2  1  2  0  0  0  0
  3  2  1  0  0  0  0
  4  3  2  0  0  0  0
  4  5  1  0  0  0  0
  5  6  2  0  0  0  0
  6  1  1  0  0  0  0
  7  8  1  0  0  0  0
  7  3  1  0  0  0  0
  8 17  1  0  0  0  0
  9  8  1  0  0  0  0
  9 19  1  0  0  0  0
 10 20  1  0  0  0  0
 10 11  1  0  0  0  0
 10  9  1  0  0  0  0
 11 12  1  0  0  0  0
 11 22  1  0  0  0  0
 12 24  1  6  0  0  0
 12  7  1  0  0  0  0
 15  5  1  0  0  0  0
 16  8  1  0  0  0  0
 18  9  1  0  0  0  0
 21 10  1  0  0  0  0
 23 11  1  0  0  0  0
 25 26  1  0  0  0  0
 26 12  1  0  0  0  0
 26 27  2  0  0  0  0
 27 28  1  0  0  0  0
 29 27  1  0  0  0  0
 29 30  1  0  0  0  0
 30 31  1  0  0  0  0
 32 33  1  0  0  0  0
 32 30  1  0  0  0  0
 34 35  1  0  0  0  0
 34 32  2  0  0  0  0
 35 29  2  0  0  0  0
 36 25  2  0  0  0  0
 36 35  1  0  0  0  0
M  END
>  <minimizedAffinity>
-5.36546946

$$$$

 OpenBabel03272505073D

 36 39  0  0  1  0  0  0  0  0999 V2000
   36.5330   23.0830   31.2990 C   0  0  0  0  0  0  0  0  0  0  0  0
   37.3370   23.6140   32.3120 C   0  0  0  0  0  0  0  0  0  0  0  0
   37.1140   24.9240   32.6980 C   0  0  0  0  0  0  0  0  0  0  0  0
   36.1320   25.6070   32.0690 N   0  0  0  0  0  0  0  0  0  0  0  0
   35.3710   25.0790   31.0970 C   0  0  0  0  0  0  0  0  0  0  0  0
   35.5710   23.8130   30.7100 N   0  0  0  0  0  0  0  0  0  0  0  0
   37.8110   25.6640   33.6990 N   0  0  0  0  0  0  0  0  0  0  0  0
   38.1240   25.1490   35.0020 C   0  0  0  0  0  0  0  0  0  0  0  0
   39.4900   25.3890   35.5040 C   0  0  0  0  0  0  0  0  0  0  0  0
   40.1120   26.6950   35.1490 C   0  0  0  0  0  0  0  0  0  0  0  0
   39.8390   26.9870   33.6990 C   0  0  0  0  0  0  0  0  0  0  0  0
   38.2970   27.0010   33.5760 C   0  0  1  0  0  0  0  0  0  0  0  0
   36.7960   22.0530   31.0800 H   0  0  0  0  0  0  0  0  0  0  0  0
   38.1300   23.1130   32.8420 H   0  0  0  0  0  0  0  0  0  0  0  0
   34.5850   25.6410   30.6010 H   0  0  0  0  0  0  0  0  0  0  0  0
   37.3680   25.5980   35.7080 H   0  0  0  0  0  0  0  0  0  0  0  0
   37.9250   24.0550   34.9860 H   0  0  0  0  0  0  0  0  0  0  0  0
   39.4620   25.3470   36.6300 H   0  0  0  0  0  0  0  0  0  0  0  0
   40.1530   24.5530   35.1890 H   0  0  0  0  0  0  0  0  0  0  0  0
   41.2190   26.5760   35.2620 H   0  0  0  0  0  0  0  0  0  0  0  0
   39.8020   27.5470   35.7940 H   0  0  0  0  0  0  0  0  0  0  0  0
   40.1560   26.0830   33.1260 H   0  0  0  0  0  0  0  0  0  0  0  0
   40.2880   27.9020   33.3100 H   0  0  0  0  0  0  0  0  0  0  0  0
   37.8430   27.6600   34.3440 H   0  0  0  0  0  0  0  0  0  0  0  0
   36.9890   28.4770   31.9680 C   0  0  0  0  0  3  0  0  0  0  0  0
   38.0470   27.6390   32.2560 C   0  0  0  0  0  0  0  0  0  0  0  0
   38.9040   27.4270   31.1710 C   0  0  0  0  0  0  0  0  0  0  0  0
   39.7550   26.7790   31.3280 H   0  0  0  0  0  0  0  0  0  0  0  0
   38.7600   27.9680   29.9220 C   0  0  0  0  0  0  0  0  0  0  0  0
   39.4930   27.8560   28.8000 N   0  0  0  0  0  0  0  0  0  0  0  0
   40.3770   27.2750   28.7050 H   0  0  0  0  0  0  0  0  0  0  0  0
   38.9160   28.5900   27.8600 C   0  0  0  0  0  0  0  0  0  0  0  0
   39.3120   28.6630   26.8720 H   0  0  0  0  0  0  0  0  0  0  0  0
   37.7980   29.1890   28.3640 C   0  0  0  0  0  3  0  0  0  0  0  0
   37.6860   28.7960   29.6990 C   0  0  0  0  0  0  0  0  0  0  0  0
   36.8020   29.0470   30.7270 C   0  0  0  0  0  3  0  0  0  0  0  0
  1  2  1  0  0  0  0
  2  3  2  0  0  0  0
  2 14  1  0  0  0  0
  3  7  1  0  0  0  0
  4  3  1  0  0  0  0
  5  4  2  0  0  0  0
  6  5  1  0  0  0  0
  6  1  2  0  0  0  0
  7  8  1  0  0  0  0
  8  9  1  0  0  0  0
  8 16  1  0  0  0  0
  9 18  1  0  0  0  0
 10 20  1  0  0  0  0
 10  9  1  0  0  0  0
 10 21  1  0  0  0  0
 11 10  1  0  0  0  0
 12  7  1  0  0  0  0
 12 11  1  0  0  0  0
 12 24  1  1  0  0  0
 13  1  1  0  0  0  0
 15  5  1  0  0  0  0
 17  8  1  0  0  0  0
 19  9  1  0  0  0  0
 22 11  1  0  0  0  0
 23 11  1  0  0  0  0
 25 26  1  0  0  0  0
 26 12  1  0  0  0  0
 27 28  1  0  0  0  0
 27 26  2  0  0  0  0
 29 27  1  0  0  0  0
 30 29  1  0  0  0  0
 31 30  1  0  0  0  0
 32 34  2  0  0  0  0
 32 30  1  0  0  0  0
 33 32  1  0  0  0  0
 34 35  1  0  0  0  0
 35 29  2  0  0  0  0
 35 36  1  0  0  0  0
 36 25  2  0  0  0  0
M  END
>  <minimizedAffinity>
-5.36042738

$$$$
