
 OpenBabel03272510193D

 39 43  0  0  0  0  0  0  0  0999 V2000
   32.8070   29.4180   46.7520 C   0  0  0  0  0  0  0  0  0  0  0  0
   31.9360   28.3810   46.5380 C   0  0  0  0  0  0  0  0  0  0  0  0
   30.8950   28.4540   45.6260 C   0  0  0  0  0  0  0  0  0  0  0  0
   30.7150   29.5710   44.9140 N   0  0  0  0  0  0  0  0  0  0  0  0
   31.5580   30.5900   45.1110 C   0  0  0  0  0  0  0  0  0  0  0  0
   32.5560   30.5000   45.9960 N   0  0  0  0  0  0  0  0  0  0  0  0
   32.0720   27.4590   47.1150 H   0  0  0  0  0  0  0  0  0  0  0  0
   30.2300   27.5930   45.4980 H   0  0  0  0  0  0  0  0  0  0  0  0
   31.6730   33.0800   44.9480 C   0  0  0  0  0  3  0  0  0  0  0  0
   31.4350   31.8480   44.3760 C   0  0  0  0  0  0  0  0  0  0  0  0
   31.0640   31.9000   43.0310 C   0  0  0  0  0  0  0  0  0  0  0  0
   30.8720   30.9200   42.5710 H   0  0  0  0  0  0  0  0  0  0  0  0
   30.9460   33.0800   42.3330 C   0  0  0  0  0  0  0  0  0  0  0  0
   30.5980   33.2310   41.0500 N   0  0  0  0  0  0  0  0  0  0  0  0
   30.3560   32.4730   40.3550 H   0  0  0  0  0  0  0  0  0  0  0  0
   30.6200   34.5470   40.8210 C   0  0  0  0  0  0  0  0  0  0  0  0
   30.3850   35.0070   39.8720 H   0  0  0  0  0  0  0  0  0  0  0  0
   30.9880   35.2390   41.9800 C   0  0  0  0  0  3  0  0  0  0  0  0
   31.1970   34.2760   42.9560 C   0  0  0  0  0  0  0  0  0  0  0  0
   31.5680   34.2830   44.2860 C   0  0  0  0  0  3  0  0  0  0  0  0
   37.4080   29.1690   50.8040 Br  0  0  0  0  0  0  0  0  0  0  0  0
   36.0000   29.2840   49.5260 C   0  0  0  0  0  0  0  0  0  0  0  0
   35.9900   30.2940   48.5660 C   0  0  0  0  0  0  0  0  0  0  0  0
   34.9460   30.3180   47.6770 C   0  0  0  0  0  0  0  0  0  0  0  0
   33.9130   29.3880   47.6960 C   0  0  0  0  0  0  0  0  0  0  0  0
   33.9520   28.4130   48.6490 C   0  0  0  0  0  0  0  0  0  0  0  0
   34.9920   28.3750   49.5470 C   0  0  0  0  0  0  0  0  0  0  0  0
   34.8720   31.0840   46.8920 H   0  0  0  0  0  0  0  0  0  0  0  0
   33.1830   27.6520   48.7290 H   0  0  0  0  0  0  0  0  0  0  0  0
   35.0160   27.6050   50.2930 H   0  0  0  0  0  0  0  0  0  0  0  0
   38.0280   33.1900   49.4630 C   0  0  0  0  0  0  0  0  0  0  0  0
   39.0530   33.1900   48.4720 C   0  0  0  0  0  0  0  0  0  0  0  0
   39.0200   32.1920   47.5180 C   0  0  0  0  0  0  0  0  0  0  0  0
   38.0170   31.2650   47.5680 N   0  0  0  0  0  0  0  0  0  0  0  0
   37.0540   31.2820   48.5170 C   0  0  0  0  0  0  0  0  0  0  0  0
   37.0760   32.2550   49.4570 N   0  0  0  0  0  0  0  0  0  0  0  0
   38.0970   33.9880   50.1870 H   0  0  0  0  0  0  0  0  0  0  0  0
   39.8530   33.9000   48.4020 H   0  0  0  0  0  0  0  0  0  0  0  0
   39.7310   32.0770   46.7170 H   0  0  0  0  0  0  0  0  0  0  0  0
  1 25  1  0  0  0  0
  2  1  1  0  0  0  0
  2  7  1  0  0  0  0
  3  2  2  0  0  0  0
  4  5  2  0  0  0  0
  4  3  1  0  0  0  0
  5  6  1  0  0  0  0
  6  1  2  0  0  0  0
  8  3  1  0  0  0  0
 10  9  1  0  0  0  0
 10  5  1  0  0  0  0
 11 10  2  0  0  0  0
 12 11  1  0  0  0  0
 13 19  2  0  0  0  0
 13 11  1  0  0  0  0
 14 13  1  0  0  0  0
 15 14  1  0  0  0  0
 16 14  1  0  0  0  0
 16 18  2  0  0  0  0
 17 16  1  0  0  0  0
 18 19  1  0  0  0  0
 19 20  1  0  0  0  0
 20  9  2  0  0  0  0
 22 27  1  0  0  0  0
 22 21  1  0  0  0  0
 23 22  2  0  0  0  0
 24 25  2  0  0  0  0
 24 23  1  0  0  0  0
 25 26  1  0  0  0  0
 26 29  1  0  0  0  0
 26 27  2  0  0  0  0
 27 30  1  0  0  0  0
 28 24  1  0  0  0  0
 31 37  1  0  0  0  0
 32 31  2  0  0  0  0
 33 34  2  0  0  0  0
 33 32  1  0  0  0  0
 34 35  1  0  0  0  0
 35 23  1  0  0  0  0
 35 36  2  0  0  0  0
 36 31  1  0  0  0  0
 38 32  1  0  0  0  0
 39 33  1  0  0  0  0
M  END
>  <minimizedAffinity>
-7.09043217

>  <minimizedRMSD>
0.517119467

$$$$
