
 OpenBabel03272507593D

 29 31  0  0  0  0  0  0  0  0999 V2000
   39.5770   24.9540   34.7420 C   0  0  0  0  0  0  0  0  0  0  0  0
   40.4590   26.0290   34.7470 C   0  0  0  0  0  0  0  0  0  0  0  0
   40.2410   27.0900   33.8890 C   0  0  0  0  0  0  0  0  0  0  0  0
   39.1740   27.1050   33.0350 C   0  0  0  0  0  0  0  0  0  0  0  0
   38.3220   26.0300   33.0540 C   0  0  0  0  0  0  0  0  0  0  0  0
   38.5230   24.9810   33.8900 N   0  0  0  0  0  0  0  0  0  0  0  0
   41.3430   26.1730   35.3550 H   0  0  0  0  0  0  0  0  0  0  0  0
   40.8700   27.9630   33.8250 H   0  0  0  0  0  0  0  0  0  0  0  0
   38.8540   27.8320   32.3140 H   0  0  0  0  0  0  0  0  0  0  0  0
   39.6090   22.7820   37.7930 C   0  0  0  0  0  0  0  0  0  0  0  0
   39.2330   23.8090   36.8770 C   0  0  0  0  0  0  0  0  0  0  0  0
   39.9350   23.9210   35.6920 C   0  0  0  0  0  0  0  0  0  0  0  0
   40.9490   23.0450   35.4550 N   0  0  0  0  0  0  0  0  0  0  0  0
   41.2770   22.0760   36.3570 C   0  0  0  0  0  0  0  0  0  0  0  0
   40.6230   21.9400   37.5060 N   0  0  0  0  0  0  0  0  0  0  0  0
   42.3760   21.2850   35.8780 N   0  0  0  0  0  0  0  0  0  0  0  0
   39.0900   22.6560   38.7300 H   0  0  0  0  0  0  0  0  0  0  0  0
   43.3300   21.7310   35.9600 H   0  0  0  0  0  0  0  0  0  0  0  0
   41.9270   20.4130   35.5470 H   0  0  0  0  0  0  0  0  0  0  0  0
   38.1030   24.7100   37.2500 C   0  0  0  0  0  0  0  0  0  0  0  0
   36.9450   24.3630   36.5620 F   0  0  0  0  0  0  0  0  0  0  0  0
   37.8780   24.5820   38.5900 F   0  0  0  0  0  0  0  0  0  0  0  0
   38.3590   26.0370   36.9790 F   0  0  0  0  0  0  0  0  0  0  0  0
   37.0910   25.7450   32.2630 C   0  0  0  0  0  0  0  0  0  0  0  0
   36.7140   24.4820   32.1400 C   0  0  0  0  0  0  0  0  0  0  0  0
   37.1290   23.5300   32.5140 H   0  0  0  0  0  0  0  0  0  0  0  0
   35.6420   23.9970   31.4760 C   0  0  0  0  0  3  0  0  0  0  0  0
   34.9160   25.1190   30.8770 C   0  0  0  0  0  3  0  0  0  0  0  0
   35.9350   26.6660   31.3990 S   0  0  0  0  0  0  0  0  0  0  0  0
  1  2  1  0  0  0  0
  1 12  1  0  0  0  0
  2  7  1  0  0  0  0
  3  2  2  0  0  0  0
  4  5  2  0  0  0  0
  4  3  1  0  0  0  0
  5  6  1  0  0  0  0
  6  1  2  0  0  0  0
  8  3  1  0  0  0  0
  9  4  1  0  0  0  0
 10 17  1  0  0  0  0
 11 20  1  0  0  0  0
 11 10  2  0  0  0  0
 12 11  1  0  0  0  0
 13 12  2  0  0  0  0
 13 14  1  0  0  0  0
 14 15  2  0  0  0  0
 15 10  1  0  0  0  0
 16 18  1  0  0  0  0
 16 14  1  0  0  0  0
 19 16  1  0  0  0  0
 20 22  1  0  0  0  0
 21 20  1  0  0  0  0
 23 20  1  0  0  0  0
 24  5  1  0  0  0  0
 25 24  2  0  0  0  0
 25 26  1  0  0  0  0
 27 25  1  0  0  0  0
 28 29  1  0  0  0  0
 28 27  2  0  0  0  0
 29 24  1  0  0  0  0
M  END
>  <minimizedAffinity>
-5.81023359

$$$$

 OpenBabel03272507593D

 29 31  0  0  0  0  0  0  0  0999 V2000
   34.6400   29.8750   34.3750 C   0  0  0  0  0  0  0  0  0  0  0  0
   34.2830   30.1850   33.0670 C   0  0  0  0  0  0  0  0  0  0  0  0
   34.9150   29.5430   32.0200 C   0  0  0  0  0  0  0  0  0  0  0  0
   35.8860   28.6080   32.2430 C   0  0  0  0  0  0  0  0  0  0  0  0
   36.2160   28.3230   33.5440 C   0  0  0  0  0  0  0  0  0  0  0  0
   35.6050   28.9450   34.5830 N   0  0  0  0  0  0  0  0  0  0  0  0
   33.5410   30.8940   32.7210 H   0  0  0  0  0  0  0  0  0  0  0  0
   34.7040   29.7190   30.9780 H   0  0  0  0  0  0  0  0  0  0  0  0
   36.4730   28.0200   31.5640 H   0  0  0  0  0  0  0  0  0  0  0  0
   33.7030   32.4570   36.9210 C   0  0  0  0  0  0  0  0  0  0  0  0
   34.4650   31.7360   35.9530 C   0  0  0  0  0  0  0  0  0  0  0  0
   33.8920   30.6260   35.3620 C   0  0  0  0  0  0  0  0  0  0  0  0
   32.6300   30.2740   35.7310 N   0  0  0  0  0  0  0  0  0  0  0  0
   31.9360   30.9900   36.6610 C   0  0  0  0  0  0  0  0  0  0  0  0
   32.4560   32.0630   37.2490 N   0  0  0  0  0  0  0  0  0  0  0  0
   30.6360   30.4200   36.8770 N   0  0  0  0  0  0  0  0  0  0  0  0
   34.1080   33.3300   37.4080 H   0  0  0  0  0  0  0  0  0  0  0  0
   30.6120   29.5520   37.4780 H   0  0  0  0  0  0  0  0  0  0  0  0
   30.0010   31.0450   36.3490 H   0  0  0  0  0  0  0  0  0  0  0  0
   35.8400   32.2200   35.6320 C   0  0  0  0  0  0  0  0  0  0  0  0
   36.0940   33.4390   36.2520 F   0  0  0  0  0  0  0  0  0  0  0  0
   36.7360   31.2950   36.0860 F   0  0  0  0  0  0  0  0  0  0  0  0
   36.0470   32.3960   34.2800 F   0  0  0  0  0  0  0  0  0  0  0  0
   37.2140   27.3720   34.1140 C   0  0  0  0  0  0  0  0  0  0  0  0
   37.7780   27.6870   35.2690 C   0  0  0  0  0  0  0  0  0  0  0  0
   37.6720   28.5490   35.9510 H   0  0  0  0  0  0  0  0  0  0  0  0
   38.6980   26.9820   35.9620 C   0  0  0  0  0  3  0  0  0  0  0  0
   39.0020   25.7550   35.2220 C   0  0  0  0  0  3  0  0  0  0  0  0
   37.8870   25.8670   33.6570 S   0  0  0  0  0  0  0  0  0  0  0  0
  1  6  1  0  0  0  0
  1 12  1  0  0  0  0
  2  1  2  0  0  0  0
  3  4  2  0  0  0  0
  3  2  1  0  0  0  0
  4  5  1  0  0  0  0
  5 24  1  0  0  0  0
  5  6  2  0  0  0  0
  7  2  1  0  0  0  0
  8  3  1  0  0  0  0
  9  4  1  0  0  0  0
 10 15  1  0  0  0  0
 10 17  1  0  0  0  0
 11 10  2  0  0  0  0
 12 13  2  0  0  0  0
 12 11  1  0  0  0  0
 13 14  1  0  0  0  0
 14 16  1  0  0  0  0
 14 15  2  0  0  0  0
 16 18  1  0  0  0  0
 19 16  1  0  0  0  0
 20 11  1  0  0  0  0
 20 22  1  0  0  0  0
 20 21  1  0  0  0  0
 23 20  1  0  0  0  0
 24 25  2  0  0  0  0
 25 26  1  0  0  0  0
 25 27  1  0  0  0  0
 28 27  2  0  0  0  0
 29 24  1  0  0  0  0
 29 28  1  0  0  0  0
M  END
>  <minimizedAffinity>
-5.67306662

$$$$

 OpenBabel03272507593D

 29 31  0  0  0  0  0  0  0  0999 V2000
   37.2600   25.3110   32.4630 C   0  0  0  0  0  0  0  0  0  0  0  0
   36.4080   26.2310   31.8610 C   0  0  0  0  0  0  0  0  0  0  0  0
   35.3470   25.7770   31.1010 C   0  0  0  0  0  0  0  0  0  0  0  0
   35.1180   24.4410   30.9280 C   0  0  0  0  0  0  0  0  0  0  0  0
   35.9760   23.5590   31.5350 C   0  0  0  0  0  0  0  0  0  0  0  0
   37.0210   23.9890   32.2840 N   0  0  0  0  0  0  0  0  0  0  0  0
   36.4490   27.3130   31.8980 H   0  0  0  0  0  0  0  0  0  0  0  0
   34.6380   26.4150   30.5990 H   0  0  0  0  0  0  0  0  0  0  0  0
   34.3570   23.9180   30.3820 H   0  0  0  0  0  0  0  0  0  0  0  0
   40.6290   26.5870   33.4870 C   0  0  0  0  0  0  0  0  0  0  0  0
   39.6050   25.9650   32.7130 C   0  0  0  0  0  0  0  0  0  0  0  0
   38.3220   25.9350   33.2260 C   0  0  0  0  0  0  0  0  0  0  0  0
   38.0980   26.5010   34.4440 N   0  0  0  0  0  0  0  0  0  0  0  0
   39.1060   27.0850   35.1520 C   0  0  0  0  0  0  0  0  0  0  0  0
   40.3510   27.1320   34.6880 N   0  0  0  0  0  0  0  0  0  0  0  0
   38.6170   27.6050   36.3990 N   0  0  0  0  0  0  0  0  0  0  0  0
   41.6450   26.6350   33.1270 H   0  0  0  0  0  0  0  0  0  0  0  0
   38.4530   26.8900   37.1580 H   0  0  0  0  0  0  0  0  0  0  0  0
   38.5410   28.6230   36.2290 H   0  0  0  0  0  0  0  0  0  0  0  0
   39.9740   25.3790   31.3910 C   0  0  0  0  0  0  0  0  0  0  0  0
   39.1810   25.9050   30.3760 F   0  0  0  0  0  0  0  0  0  0  0  0
   41.2800   25.6860   31.1370 F   0  0  0  0  0  0  0  0  0  0  0  0
   39.8360   24.0080   31.3510 F   0  0  0  0  0  0  0  0  0  0  0  0
   36.0010   22.0680   31.5420 C   0  0  0  0  0  0  0  0  0  0  0  0
   35.0330   21.4370   32.1860 C   0  0  0  0  0  0  0  0  0  0  0  0
   34.1540   21.7840   32.7560 H   0  0  0  0  0  0  0  0  0  0  0  0
   34.8580   20.1040   32.3220 C   0  0  0  0  0  3  0  0  0  0  0  0
   35.9440   19.4160   31.6200 C   0  0  0  0  0  3  0  0  0  0  0  0
   37.0120   20.8460   30.8990 S   0  0  0  0  0  0  0  0  0  0  0  0
  1 12  1  0  0  0  0
  2  7  1  0  0  0  0
  2  1  2  0  0  0  0
  3  2  1  0  0  0  0
  4  3  2  0  0  0  0
  4  5  1  0  0  0  0
  5 24  1  0  0  0  0
  5  6  2  0  0  0  0
  6  1  1  0  0  0  0
  8  3  1  0  0  0  0
  9  4  1  0  0  0  0
 10 15  1  0  0  0  0
 11 12  1  0  0  0  0
 11 10  2  0  0  0  0
 12 13  2  0  0  0  0
 13 14  1  0  0  0  0
 14 16  1  0  0  0  0
 15 14  2  0  0  0  0
 16 18  1  0  0  0  0
 17 10  1  0  0  0  0
 19 16  1  0  0  0  0
 20 11  1  0  0  0  0
 21 20  1  0  0  0  0
 22 20  1  0  0  0  0
 23 20  1  0  0  0  0
 24 25  2  0  0  0  0
 25 27  1  0  0  0  0
 25 26  1  0  0  0  0
 28 27  2  0  0  0  0
 29 24  1  0  0  0  0
 29 28  1  0  0  0  0
M  END
>  <minimizedAffinity>
-5.41028214

$$$$

 OpenBabel03272507593D

 29 31  0  0  0  0  0  0  0  0999 V2000
   35.0540   29.8540   32.9970 C   0  0  0  0  0  0  0  0  0  0  0  0
   35.5240   30.7990   32.0910 C   0  0  0  0  0  0  0  0  0  0  0  0
   36.2710   30.3870   31.0040 C   0  0  0  0  0  0  0  0  0  0  0  0
   36.5570   29.0660   30.8000 C   0  0  0  0  0  0  0  0  0  0  0  0
   36.0790   28.1580   31.7110 C   0  0  0  0  0  0  0  0  0  0  0  0
   35.3460   28.5470   32.7820 N   0  0  0  0  0  0  0  0  0  0  0  0
   35.3880   31.8740   32.1060 H   0  0  0  0  0  0  0  0  0  0  0  0
   36.6750   31.0470   30.2540 H   0  0  0  0  0  0  0  0  0  0  0  0
   37.1120   28.5730   30.0250 H   0  0  0  0  0  0  0  0  0  0  0  0
   32.1850   31.0250   35.0980 C   0  0  0  0  0  0  0  0  0  0  0  0
   32.9100   30.4460   34.0150 C   0  0  0  0  0  0  0  0  0  0  0  0
   34.2900   30.4360   34.0800 C   0  0  0  0  0  0  0  0  0  0  0  0
   34.8910   30.9790   35.1740 N   0  0  0  0  0  0  0  0  0  0  0  0
   34.1600   31.5250   36.1890 C   0  0  0  0  0  0  0  0  0  0  0  0
   32.8320   31.5500   36.1590 N   0  0  0  0  0  0  0  0  0  0  0  0
   35.0210   32.0300   37.2220 N   0  0  0  0  0  0  0  0  0  0  0  0
   31.1060   31.0550   35.0920 H   0  0  0  0  0  0  0  0  0  0  0  0
   35.4870   32.9540   37.0160 H   0  0  0  0  0  0  0  0  0  0  0  0
   34.9670   31.3080   37.9630 H   0  0  0  0  0  0  0  0  0  0  0  0
   32.1380   29.8810   32.8690 C   0  0  0  0  0  0  0  0  0  0  0  0
   32.3900   28.5210   32.7240 F   0  0  0  0  0  0  0  0  0  0  0  0
   30.8080   30.0630   33.1180 F   0  0  0  0  0  0  0  0  0  0  0  0
   32.4400   30.4850   31.6670 F   0  0  0  0  0  0  0  0  0  0  0  0
   36.2140   26.6740   31.7740 C   0  0  0  0  0  0  0  0  0  0  0  0
   35.3600   25.9450   31.0730 C   0  0  0  0  0  0  0  0  0  0  0  0
   34.5160   26.2020   30.4100 H   0  0  0  0  0  0  0  0  0  0  0  0
   35.2960   24.5990   30.9830 C   0  0  0  0  0  3  0  0  0  0  0  0
   36.3600   24.0250   31.8100 C   0  0  0  0  0  3  0  0  0  0  0  0
   37.2470   25.5590   32.5610 S   0  0  0  0  0  0  0  0  0  0  0  0
  1 12  1  0  0  0  0
  2  7  1  0  0  0  0
  2  1  2  0  0  0  0
  3  2  1  0  0  0  0
  4  3  2  0  0  0  0
  4  5  1  0  0  0  0
  5 24  1  0  0  0  0
  5  6  2  0  0  0  0
  6  1  1  0  0  0  0
  8  3  1  0  0  0  0
  9  4  1  0  0  0  0
 10 15  1  0  0  0  0
 11 12  1  0  0  0  0
 11 10  2  0  0  0  0
 12 13  2  0  0  0  0
 13 14  1  0  0  0  0
 14 16  1  0  0  0  0
 15 14  2  0  0  0  0
 16 19  1  0  0  0  0
 17 10  1  0  0  0  0
 18 16  1  0  0  0  0
 20 22  1  0  0  0  0
 20 11  1  0  0  0  0
 21 20  1  0  0  0  0
 23 20  1  0  0  0  0
 24 29  1  0  0  0  0
 25 24  2  0  0  0  0
 26 25  1  0  0  0  0
 27 25  1  0  0  0  0
 27 28  2  0  0  0  0
 28 29  1  0  0  0  0
M  END
>  <minimizedAffinity>
-5.40092278

$$$$

 OpenBabel03272507593D

 29 31  0  0  0  0  0  0  0  0999 V2000
   39.5410   24.9420   34.6520 C   0  0  0  0  0  0  0  0  0  0  0  0
   40.4030   26.0330   34.7030 C   0  0  0  0  0  0  0  0  0  0  0  0
   40.1650   27.1250   33.8900 C   0  0  0  0  0  0  0  0  0  0  0  0
   39.0990   27.1550   33.0360 C   0  0  0  0  0  0  0  0  0  0  0  0
   38.2670   26.0650   33.0090 C   0  0  0  0  0  0  0  0  0  0  0  0
   38.4870   24.9860   33.8000 N   0  0  0  0  0  0  0  0  0  0  0  0
   41.2850   26.1680   35.3170 H   0  0  0  0  0  0  0  0  0  0  0  0
   40.7780   28.0110   33.8630 H   0  0  0  0  0  0  0  0  0  0  0  0
   38.7650   27.9060   32.3450 H   0  0  0  0  0  0  0  0  0  0  0  0
   41.2140   21.9110   36.0800 C   0  0  0  0  0  0  0  0  0  0  0  0
   40.8620   22.9480   35.1650 C   0  0  0  0  0  0  0  0  0  0  0  0
   39.9190   23.8780   35.5580 C   0  0  0  0  0  0  0  0  0  0  0  0
   39.3710   23.7600   36.7990 N   0  0  0  0  0  0  0  0  0  0  0  0
   39.7340   22.7530   37.6440 C   0  0  0  0  0  0  0  0  0  0  0  0
   40.6390   21.8420   37.2980 N   0  0  0  0  0  0  0  0  0  0  0  0
   39.0170   22.8450   38.8850 N   0  0  0  0  0  0  0  0  0  0  0  0
   41.9460   21.1630   35.8170 H   0  0  0  0  0  0  0  0  0  0  0  0
   38.0170   22.5090   38.8600 H   0  0  0  0  0  0  0  0  0  0  0  0
   39.7100   23.2500   39.5400 H   0  0  0  0  0  0  0  0  0  0  0  0
   41.5320   22.9720   33.8310 C   0  0  0  0  0  0  0  0  0  0  0  0
   42.4510   24.0130   33.7570 F   0  0  0  0  0  0  0  0  0  0  0  0
   42.1890   21.7870   33.6620 F   0  0  0  0  0  0  0  0  0  0  0  0
   40.6470   23.1300   32.7860 F   0  0  0  0  0  0  0  0  0  0  0  0
   37.0410   25.7900   32.2050 C   0  0  0  0  0  0  0  0  0  0  0  0
   36.6710   24.5280   32.0560 C   0  0  0  0  0  0  0  0  0  0  0  0
   37.0880   23.5710   32.4130 H   0  0  0  0  0  0  0  0  0  0  0  0
   35.6060   24.0510   31.3750 C   0  0  0  0  0  3  0  0  0  0  0  0
   34.8770   25.1820   30.7950 C   0  0  0  0  0  3  0  0  0  0  0  0
   35.8870   26.7230   31.3530 S   0  0  0  0  0  0  0  0  0  0  0  0
  1  2  1  0  0  0  0
  1 12  1  0  0  0  0
  2  7  1  0  0  0  0
  3  2  2  0  0  0  0
  4  3  1  0  0  0  0
  5  4  2  0  0  0  0
  5  6  1  0  0  0  0
  6  1  2  0  0  0  0
  8  3  1  0  0  0  0
  9  4  1  0  0  0  0
 10 15  1  0  0  0  0
 11 12  1  0  0  0  0
 11 10  2  0  0  0  0
 12 13  2  0  0  0  0
 13 14  1  0  0  0  0
 14 16  1  0  0  0  0
 15 14  2  0  0  0  0
 16 19  1  0  0  0  0
 17 10  1  0  0  0  0
 18 16  1  0  0  0  0
 20 11  1  0  0  0  0
 21 20  1  0  0  0  0
 22 20  1  0  0  0  0
 23 20  1  0  0  0  0
 24  5  1  0  0  0  0
 25 24  2  0  0  0  0
 25 26  1  0  0  0  0
 27 25  1  0  0  0  0
 28 29  1  0  0  0  0
 28 27  2  0  0  0  0
 29 24  1  0  0  0  0
M  END
>  <minimizedAffinity>
-5.39122963

$$$$

 OpenBabel03272507593D

 29 31  0  0  0  0  0  0  0  0999 V2000
   38.8140   24.6040   34.7810 C   0  0  0  0  0  0  0  0  0  0  0  0
   37.9210   24.9580   35.7880 C   0  0  0  0  0  0  0  0  0  0  0  0
   38.0200   24.3530   37.0260 C   0  0  0  0  0  0  0  0  0  0  0  0
   38.9780   23.4130   37.2830 C   0  0  0  0  0  0  0  0  0  0  0  0
   39.8430   23.0860   36.2700 C   0  0  0  0  0  0  0  0  0  0  0  0
   39.7590   23.6700   35.0490 N   0  0  0  0  0  0  0  0  0  0  0  0
   37.1120   25.6770   35.7490 H   0  0  0  0  0  0  0  0  0  0  0  0
   37.3740   24.5650   37.8620 H   0  0  0  0  0  0  0  0  0  0  0  0
   39.1990   22.8510   38.1700 H   0  0  0  0  0  0  0  0  0  0  0  0
   39.1520   27.0690   31.9830 C   0  0  0  0  0  0  0  0  0  0  0  0
   39.4000   26.3850   33.2100 C   0  0  0  0  0  0  0  0  0  0  0  0
   38.5860   25.3190   33.5430 C   0  0  0  0  0  0  0  0  0  0  0  0
   37.5870   24.9740   32.6840 N   0  0  0  0  0  0  0  0  0  0  0  0
   37.3830   25.6560   31.5210 C   0  0  0  0  0  0  0  0  0  0  0  0
   38.1480   26.6850   31.1700 N   0  0  0  0  0  0  0  0  0  0  0  0
   36.2750   25.1030   30.7950 N   0  0  0  0  0  0  0  0  0  0  0  0
   39.7630   27.9070   31.6810 H   0  0  0  0  0  0  0  0  0  0  0  0
   35.3170   25.3640   31.1540 H   0  0  0  0  0  0  0  0  0  0  0  0
   36.7230   24.5450   30.0470 H   0  0  0  0  0  0  0  0  0  0  0  0
   40.5270   26.8570   34.0680 C   0  0  0  0  0  0  0  0  0  0  0  0
   41.1950   27.9200   33.4690 F   0  0  0  0  0  0  0  0  0  0  0  0
   40.0090   27.2730   35.2610 F   0  0  0  0  0  0  0  0  0  0  0  0
   41.4600   25.8740   34.3210 F   0  0  0  0  0  0  0  0  0  0  0  0
   40.9770   22.1180   36.2280 C   0  0  0  0  0  0  0  0  0  0  0  0
   41.3430   21.5450   37.3630 C   0  0  0  0  0  0  0  0  0  0  0  0
   40.9770   21.6250   38.4020 H   0  0  0  0  0  0  0  0  0  0  0  0
   42.3330   20.6470   37.5580 C   0  0  0  0  0  3  0  0  0  0  0  0
   42.9810   20.3790   36.2720 C   0  0  0  0  0  3  0  0  0  0  0  0
   42.0210   21.4890   35.0260 S   0  0  0  0  0  0  0  0  0  0  0  0
  1  6  2  0  0  0  0
  1  2  1  0  0  0  0
  2  3  2  0  0  0  0
  3  4  1  0  0  0  0
  3  8  1  0  0  0  0
  4  9  1  0  0  0  0
  5  4  2  0  0  0  0
  6  5  1  0  0  0  0
  7  2  1  0  0  0  0
 10 11  1  0  0  0  0
 11 12  2  0  0  0  0
 11 20  1  0  0  0  0
 12  1  1  0  0  0  0
 13 12  1  0  0  0  0
 14 13  2  0  0  0  0
 15 14  1  0  0  0  0
 15 10  2  0  0  0  0
 16 18  1  0  0  0  0
 16 14  1  0  0  0  0
 17 10  1  0  0  0  0
 19 16  1  0  0  0  0
 20 23  1  0  0  0  0
 20 22  1  0  0  0  0
 21 20  1  0  0  0  0
 24  5  1  0  0  0  0
 24 25  2  0  0  0  0
 25 27  1  0  0  0  0
 25 26  1  0  0  0  0
 28 27  2  0  0  0  0
 29 24  1  0  0  0  0
 29 28  1  0  0  0  0
M  END
>  <minimizedAffinity>
-5.3538785

$$$$

 OpenBabel03272507593D

 29 31  0  0  0  0  0  0  0  0999 V2000
   37.5950   22.8380   32.3470 C   0  0  0  0  0  0  0  0  0  0  0  0
   37.3360   24.0410   31.6980 C   0  0  0  0  0  0  0  0  0  0  0  0
   37.4280   25.2260   32.4030 C   0  0  0  0  0  0  0  0  0  0  0  0
   37.7700   25.2400   33.7260 C   0  0  0  0  0  0  0  0  0  0  0  0
   38.0200   24.0380   34.3370 C   0  0  0  0  0  0  0  0  0  0  0  0
   37.9340   22.8670   33.6600 N   0  0  0  0  0  0  0  0  0  0  0  0
   37.0560   24.2030   30.6650 H   0  0  0  0  0  0  0  0  0  0  0  0
   37.2450   26.2020   31.9830 H   0  0  0  0  0  0  0  0  0  0  0  0
   37.8880   26.0520   34.4180 H   0  0  0  0  0  0  0  0  0  0  0  0
   36.2030   19.7920   30.6720 C   0  0  0  0  0  0  0  0  0  0  0  0
   36.3090   20.9210   31.5370 C   0  0  0  0  0  0  0  0  0  0  0  0
   37.4590   21.6850   31.4820 C   0  0  0  0  0  0  0  0  0  0  0  0
   38.4350   21.3230   30.6040 N   0  0  0  0  0  0  0  0  0  0  0  0
   38.2950   20.2350   29.7940 C   0  0  0  0  0  0  0  0  0  0  0  0
   37.2010   19.4790   29.8210 N   0  0  0  0  0  0  0  0  0  0  0  0
   39.4550   20.0640   28.9650 N   0  0  0  0  0  0  0  0  0  0  0  0
   35.3230   19.1660   30.6800 H   0  0  0  0  0  0  0  0  0  0  0  0
   40.2980   19.6430   29.4410 H   0  0  0  0  0  0  0  0  0  0  0  0
   39.1540   20.4240   28.0420 H   0  0  0  0  0  0  0  0  0  0  0  0
   35.1710   21.2170   32.4570 C   0  0  0  0  0  0  0  0  0  0  0  0
   34.7290   22.5250   32.2950 F   0  0  0  0  0  0  0  0  0  0  0  0
   34.1480   20.3630   32.1590 F   0  0  0  0  0  0  0  0  0  0  0  0
   35.4960   21.0550   33.7870 F   0  0  0  0  0  0  0  0  0  0  0  0
   38.4080   23.7180   35.7410 C   0  0  0  0  0  0  0  0  0  0  0  0
   37.7820   24.3560   36.7160 C   0  0  0  0  0  0  0  0  0  0  0  0
   36.9870   25.1210   36.7290 H   0  0  0  0  0  0  0  0  0  0  0  0
   37.9700   24.2260   38.0480 C   0  0  0  0  0  3  0  0  0  0  0  0
   39.0170   23.2270   38.2770 C   0  0  0  0  0  3  0  0  0  0  0  0
   39.5270   22.6720   36.5060 S   0  0  0  0  0  0  0  0  0  0  0  0
  1  6  1  0  0  0  0
  2  1  2  0  0  0  0
  2  3  1  0  0  0  0
  3  4  2  0  0  0  0
  4  5  1  0  0  0  0
  4  9  1  0  0  0  0
  5 24  1  0  0  0  0
  6  5  2  0  0  0  0
  7  2  1  0  0  0  0
  8  3  1  0  0  0  0
 10 17  1  0  0  0  0
 10 11  1  0  0  0  0
 11 20  1  0  0  0  0
 12 11  2  0  0  0  0
 12  1  1  0  0  0  0
 13 12  1  0  0  0  0
 14 15  1  0  0  0  0
 14 13  2  0  0  0  0
 15 10  2  0  0  0  0
 16 18  1  0  0  0  0
 16 14  1  0  0  0  0
 19 16  1  0  0  0  0
 20 23  1  0  0  0  0
 21 20  1  0  0  0  0
 22 20  1  0  0  0  0
 24 29  1  0  0  0  0
 24 25  2  0  0  0  0
 25 26  1  0  0  0  0
 25 27  1  0  0  0  0
 27 28  2  0  0  0  0
 29 28  1  0  0  0  0
M  END
>  <minimizedAffinity>
-5.34687042

$$$$

 OpenBabel03272507593D

 29 31  0  0  0  0  0  0  0  0999 V2000
   37.6540   25.5480   32.3140 C   0  0  0  0  0  0  0  0  0  0  0  0
   36.7380   26.5030   31.8850 C   0  0  0  0  0  0  0  0  0  0  0  0
   35.5450   26.0950   31.3190 C   0  0  0  0  0  0  0  0  0  0  0  0
   35.2480   24.7690   31.1710 C   0  0  0  0  0  0  0  0  0  0  0  0
   36.1710   23.8520   31.6040 C   0  0  0  0  0  0  0  0  0  0  0  0
   37.3460   24.2370   32.1610 N   0  0  0  0  0  0  0  0  0  0  0  0
   36.8180   27.5820   31.9290 H   0  0  0  0  0  0  0  0  0  0  0  0
   34.7790   26.7620   30.9600 H   0  0  0  0  0  0  0  0  0  0  0  0
   34.3860   24.2780   30.7610 H   0  0  0  0  0  0  0  0  0  0  0  0
   40.1720   26.7970   34.7880 C   0  0  0  0  0  0  0  0  0  0  0  0
   38.9790   26.2230   34.2560 C   0  0  0  0  0  0  0  0  0  0  0  0
   38.8530   26.1270   32.8840 C   0  0  0  0  0  0  0  0  0  0  0  0
   39.8720   26.5840   32.1060 N   0  0  0  0  0  0  0  0  0  0  0  0
   40.9970   27.1270   32.6550 C   0  0  0  0  0  0  0  0  0  0  0  0
   41.1510   27.2340   33.9700 N   0  0  0  0  0  0  0  0  0  0  0  0
   41.9180   27.5320   31.6300 N   0  0  0  0  0  0  0  0  0  0  0  0
   40.3160   26.8930   35.8540 H   0  0  0  0  0  0  0  0  0  0  0  0
   41.6830   28.4350   31.1360 H   0  0  0  0  0  0  0  0  0  0  0  0
   42.6340   26.7830   31.6310 H   0  0  0  0  0  0  0  0  0  0  0  0
   37.9310   25.7580   35.2120 C   0  0  0  0  0  0  0  0  0  0  0  0
   37.7280   24.3870   35.0960 F   0  0  0  0  0  0  0  0  0  0  0  0
   38.3530   26.0390   36.4800 F   0  0  0  0  0  0  0  0  0  0  0  0
   36.7120   26.3720   35.0160 F   0  0  0  0  0  0  0  0  0  0  0  0
   36.1500   22.3600   31.5860 C   0  0  0  0  0  0  0  0  0  0  0  0
   35.1120   21.7500   32.1340 C   0  0  0  0  0  0  0  0  0  0  0  0
   34.1980   22.1170   32.6340 H   0  0  0  0  0  0  0  0  0  0  0  0
   34.8860   20.4220   32.2300 C   0  0  0  0  0  3  0  0  0  0  0  0
   36.0060   19.7110   31.6110 C   0  0  0  0  0  3  0  0  0  0  0  0
   37.1750   21.1170   31.0090 S   0  0  0  0  0  0  0  0  0  0  0  0
  1 12  1  0  0  0  0
  2  7  1  0  0  0  0
  2  1  2  0  0  0  0
  3  2  1  0  0  0  0
  4  3  2  0  0  0  0
  4  5  1  0  0  0  0
  5  6  2  0  0  0  0
  6  1  1  0  0  0  0
  8  3  1  0  0  0  0
  9  4  1  0  0  0  0
 10 17  1  0  0  0  0
 11 10  1  0  0  0  0
 11 20  1  0  0  0  0
 12 11  2  0  0  0  0
 13 14  2  0  0  0  0
 13 12  1  0  0  0  0
 14 15  1  0  0  0  0
 15 10  2  0  0  0  0
 16 19  1  0  0  0  0
 16 14  1  0  0  0  0
 18 16  1  0  0  0  0
 20 22  1  0  0  0  0
 21 20  1  0  0  0  0
 23 20  1  0  0  0  0
 24  5  1  0  0  0  0
 24 25  2  0  0  0  0
 25 27  1  0  0  0  0
 25 26  1  0  0  0  0
 28 27  2  0  0  0  0
 29 24  1  0  0  0  0
 29 28  1  0  0  0  0
M  END
>  <minimizedAffinity>
-5.30291748

$$$$

 OpenBabel03272507593D

 29 31  0  0  0  0  0  0  0  0999 V2000
   36.3340   23.4250   31.5840 C   0  0  0  0  0  0  0  0  0  0  0  0
   35.3740   24.0460   30.7920 C   0  0  0  0  0  0  0  0  0  0  0  0
   35.1660   25.4060   30.9170 C   0  0  0  0  0  0  0  0  0  0  0  0
   35.8850   26.1550   31.8060 C   0  0  0  0  0  0  0  0  0  0  0  0
   36.8250   25.5140   32.5730 C   0  0  0  0  0  0  0  0  0  0  0  0
   37.0410   24.1800   32.4610 N   0  0  0  0  0  0  0  0  0  0  0  0
   34.7260   23.6020   30.0470 H   0  0  0  0  0  0  0  0  0  0  0  0
   34.4460   25.9690   30.3470 H   0  0  0  0  0  0  0  0  0  0  0  0
   35.8580   27.2040   32.0330 H   0  0  0  0  0  0  0  0  0  0  0  0
   37.6370   20.0880   30.4940 C   0  0  0  0  0  0  0  0  0  0  0  0
   37.5630   21.4950   30.7190 C   0  0  0  0  0  0  0  0  0  0  0  0
   36.4380   22.0020   31.3410 C   0  0  0  0  0  0  0  0  0  0  0  0
   35.4550   21.1340   31.7080 N   0  0  0  0  0  0  0  0  0  0  0  0
   35.5640   19.7950   31.4740 C   0  0  0  0  0  0  0  0  0  0  0  0
   36.6320   19.2750   30.8790 N   0  0  0  0  0  0  0  0  0  0  0  0
   34.4020   19.0990   31.9500 N   0  0  0  0  0  0  0  0  0  0  0  0
   38.4960   19.6460   30.0130 H   0  0  0  0  0  0  0  0  0  0  0  0
   33.5440   19.1690   31.3390 H   0  0  0  0  0  0  0  0  0  0  0  0
   34.7180   18.6710   32.8390 H   0  0  0  0  0  0  0  0  0  0  0  0
   38.7060   22.3440   30.2710 C   0  0  0  0  0  0  0  0  0  0  0  0
   39.4710   22.7590   31.3560 F   0  0  0  0  0  0  0  0  0  0  0  0
   39.4890   21.6000   29.4350 F   0  0  0  0  0  0  0  0  0  0  0  0
   38.3040   23.4760   29.5940 F   0  0  0  0  0  0  0  0  0  0  0  0
   37.7560   26.0350   33.6140 C   0  0  0  0  0  0  0  0  0  0  0  0
   37.2780   26.8980   34.4960 C   0  0  0  0  0  0  0  0  0  0  0  0
   36.2820   27.3500   34.6460 H   0  0  0  0  0  0  0  0  0  0  0  0
   37.9340   27.4930   35.5150 C   0  0  0  0  0  3  0  0  0  0  0  0
   39.3230   27.0270   35.5130 C   0  0  0  0  0  3  0  0  0  0  0  0
   39.4040   25.8110   34.0230 S   0  0  0  0  0  0  0  0  0  0  0  0
  1  6  1  0  0  0  0
  2  3  1  0  0  0  0
  2  1  2  0  0  0  0
  3  4  2  0  0  0  0
  4  9  1  0  0  0  0
  4  5  1  0  0  0  0
  5 24  1  0  0  0  0
  6  5  2  0  0  0  0
  7  2  1  0  0  0  0
  8  3  1  0  0  0  0
 10 11  2  0  0  0  0
 10 15  1  0  0  0  0
 11 12  1  0  0  0  0
 12  1  1  0  0  0  0
 12 13  2  0  0  0  0
 14 13  1  0  0  0  0
 14 16  1  0  0  0  0
 15 14  2  0  0  0  0
 16 19  1  0  0  0  0
 17 10  1  0  0  0  0
 18 16  1  0  0  0  0
 20 11  1  0  0  0  0
 20 21  1  0  0  0  0
 22 20  1  0  0  0  0
 23 20  1  0  0  0  0
 24 29  1  0  0  0  0
 24 25  2  0  0  0  0
 25 26  1  0  0  0  0
 25 27  1  0  0  0  0
 28 27  2  0  0  0  0
 29 28  1  0  0  0  0
M  END
>  <minimizedAffinity>
-5.30171442

$$$$
