
 OpenBabel03272504003D

 21 22  0  0  0  0  0  0  0  0999 V2000
   38.1480   30.6510   47.2360 C   0  0  0  0  0  0  0  0  0  0  0  0
   38.5580   29.7520   47.6670 H   0  0  0  0  0  0  0  0  0  0  0  0
   37.2680   30.3170   46.6200 H   0  0  0  0  0  0  0  0  0  0  0  0
   39.0540   31.3170   46.2940 C   0  0  0  0  0  0  0  0  0  0  0  0
   39.3890   32.6590   46.3740 C   0  0  0  0  0  0  0  0  0  0  0  0
   40.2550   33.2120   45.4410 C   0  0  0  0  0  0  0  0  0  0  0  0
   40.7300   32.3750   44.4850 N   0  0  0  0  0  0  0  0  0  0  0  0
   40.4030   31.0590   44.4040 C   0  0  0  0  0  0  0  0  0  0  0  0
   39.5680   30.5650   45.3180 N   0  0  0  0  0  0  0  0  0  0  0  0
   38.9710   33.2660   47.1650 H   0  0  0  0  0  0  0  0  0  0  0  0
   40.5450   34.2470   45.4610 H   0  0  0  0  0  0  0  0  0  0  0  0
   40.8110   30.4330   43.6190 H   0  0  0  0  0  0  0  0  0  0  0  0
   37.5980   31.5150   48.3070 C   0  0  0  0  0  0  0  0  0  0  0  0
   38.3840   32.2110   48.6320 H   0  0  0  0  0  0  0  0  0  0  0  0
   36.8090   32.1530   47.8370 H   0  0  0  0  0  0  0  0  0  0  0  0
   37.1250   30.7870   49.4710 C   0  0  0  0  0  0  0  0  0  0  0  0
   37.7400   30.5710   50.7020 C   0  0  0  0  0  0  0  0  0  0  0  0
   38.7180   30.9930   50.8520 H   0  0  0  0  0  0  0  0  0  0  0  0
   37.0620   29.8410   51.6300 C   0  0  0  0  0  0  0  0  0  0  0  0
   35.7270   29.3250   51.2820 C   0  0  0  0  0  0  0  0  0  0  0  0
   35.5920   30.0040   49.5220 S   0  0  0  0  0  0  0  0  0  0  0  0
  1  2  1  0  0  0  0
  1 13  1  0  0  0  0
  3  1  1  0  0  0  0
  4  5  1  0  0  0  0
  4  1  1  0  0  0  0
  5 10  1  0  0  0  0
  6 11  1  0  0  0  0
  6  5  2  0  0  0  0
  7  6  1  0  0  0  0
  8  7  2  0  0  0  0
  8  9  1  0  0  0  0
  9  4  2  0  0  0  0
 12  8  1  0  0  0  0
 13 14  1  0  0  0  0
 13 16  1  0  0  0  0
 15 13  1  0  0  0  0
 16 21  1  0  0  0  0
 16 17  2  0  0  0  0
 17 18  1  0  0  0  0
 17 19  1  0  0  0  0
 20 19  2  0  0  0  0
 21 20  1  0  0  0  0
M  END
>  <minimizedAffinity>
-4.65135479

>  <minimizedRMSD>
3.52272701

$$$$
