
 OpenBabel03272509423D

 35 37  0  0  1  0  0  0  0  0999 V2000
   37.0210   30.9160   49.0360 C   0  0  0  0  0  0  0  0  0  0  0  0
   36.7360   31.7990   50.0770 C   0  0  0  0  0  0  0  0  0  0  0  0
   37.3240   33.0520   50.1600 C   0  0  0  0  0  0  0  0  0  0  0  0
   38.2340   33.4500   49.1720 C   0  0  0  0  0  0  0  0  0  0  0  0
   38.5050   32.5740   48.1580 C   0  0  0  0  0  0  0  0  0  0  0  0
   37.8960   31.3320   48.1130 C   0  0  0  0  0  0  0  0  0  0  0  0
   36.0310   31.5000   50.8470 H   0  0  0  0  0  0  0  0  0  0  0  0
   37.0520   33.6680   50.9900 H   0  0  0  0  0  0  0  0  0  0  0  0
   38.6300   34.4240   49.3240 H   0  0  0  0  0  0  0  0  0  0  0  0
   39.2260   33.0240   47.4770 H   0  0  0  0  0  0  0  0  0  0  0  0
   36.4330   29.5960   48.9690 C   0  0  2  0  0  0  0  0  0  0  0  0
   36.9630   29.0740   48.0820 H   0  0  0  0  0  0  0  0  0  0  0  0
   33.5720   30.1060   46.7840 C   0  0  0  0  0  0  0  0  0  0  0  0
   32.8880   28.9080   46.8440 C   0  0  0  0  0  0  0  0  0  0  0  0
   33.3670   27.9260   47.6900 C   0  0  0  0  0  0  0  0  0  0  0  0
   34.5010   28.1690   48.4360 N   0  0  0  0  0  0  0  0  0  0  0  0
   35.1110   29.3320   48.3310 C   0  0  0  0  0  0  0  0  0  0  0  0
   34.6550   30.3060   47.5110 N   0  0  0  0  0  0  0  0  0  0  0  0
   33.2230   30.9040   46.1280 H   0  0  0  0  0  0  0  0  0  0  0  0
   32.0140   28.8260   46.2160 H   0  0  0  0  0  0  0  0  0  0  0  0
   32.8300   26.9900   47.7380 H   0  0  0  0  0  0  0  0  0  0  0  0
   36.8700   28.8160   49.8920 O   0  0  0  0  0  0  0  0  0  0  0  0
   36.4080   28.6540   50.7320 H   0  0  0  0  0  0  0  0  0  0  0  0
   38.3030   30.4960   47.0070 C   0  0  0  0  0  3  0  0  0  0  0  0
   38.9680   30.9420   45.9380 C   0  0  0  0  0  3  0  0  0  0  0  0
   39.4740   30.1730   44.7770 C   0  0  0  0  0  0  0  0  0  0  0  0
   38.8180   29.2930   44.5780 H   0  0  0  0  0  0  0  0  0  0  0  0
   40.5160   29.8210   44.9990 H   0  0  0  0  0  0  0  0  0  0  0  0
   39.5730   31.2440   43.3400 S   0  0  0  0  0  0  0  0  0  0  0  0
   37.9620   31.4460   42.6130 C   0  0  0  0  0  0  0  0  0  0  0  0
   37.1940   32.5280   43.1210 C   0  0  0  0  0  0  0  0  0  0  0  0
   37.3710   33.2800   43.8720 H   0  0  0  0  0  0  0  0  0  0  0  0
   35.9460   32.8450   42.6960 C   0  0  0  0  0  3  0  0  0  0  0  0
   35.4110   31.9950   41.6590 C   0  0  0  0  0  3  0  0  0  0  0  0
   36.7880   30.7280   41.3310 S   0  0  0  0  0  0  0  0  0  0  0  0
  1  2  1  0  0  0  0
  2  3  2  0  0  0  0
  2  7  1  0  0  0  0
  3  8  1  0  0  0  0
  4  9  1  0  0  0  0
  4  3  1  0  0  0  0
  5  4  2  0  0  0  0
  6  5  1  0  0  0  0
  6  1  2  0  0  0  0
 10  5  1  0  0  0  0
 11 12  1  6  0  0  0
 11  1  1  0  0  0  0
 11 22  1  0  0  0  0
 13 14  2  0  0  0  0
 13 18  1  0  0  0  0
 14 15  1  0  0  0  0
 15 21  1  0  0  0  0
 15 16  2  0  0  0  0
 17 16  1  0  0  0  0
 17 11  1  0  0  0  0
 18 17  2  0  0  0  0
 19 13  1  0  0  0  0
 20 14  1  0  0  0  0
 22 23  1  0  0  0  0
 24  6  1  0  0  0  0
 25 24  2  0  0  0  0
 26 28  1  0  0  0  0
 26 25  1  0  0  0  0
 27 26  1  0  0  0  0
 29 26  1  0  0  0  0
 30 31  2  0  0  0  0
 30 29  1  0  0  0  0
 31 32  1  0  0  0  0
 33 31  1  0  0  0  0
 34 33  2  0  0  0  0
 35 34  1  0  0  0  0
 35 30  1  0  0  0  0
M  END
>  <minimizedAffinity>
-5.48082399

>  <minimizedRMSD>
0.343811244

$$$$
