
 OpenBabel03272501333D

 24 26  0  0  1  0  0  0  0  0999 V2000
   39.9030   25.4840   34.1240 C   0  0  2  0  0  0  0  0  0  0  0  0
   39.8570   26.8240   34.9520 C   0  0  0  0  0  0  0  0  0  0  0  0
   39.6420   26.7480   33.4610 C   0  0  2  0  0  0  0  0  0  0  0  0
   40.9270   25.0470   34.3560 H   0  0  0  0  0  0  0  0  0  0  0  0
   38.9550   27.0350   35.5230 H   0  0  0  0  0  0  0  0  0  0  0  0
   40.8040   27.2090   35.3480 H   0  0  0  0  0  0  0  0  0  0  0  0
   40.5180   27.1130   32.8360 H   0  0  0  0  0  0  0  0  0  0  0  0
   38.3630   27.1110   32.8910 C   0  0  0  0  0  0  0  0  0  0  0  0
   37.2830   27.6910   33.4580 C   0  0  0  0  0  0  0  0  0  0  0  0
   37.3220   27.9770   34.5240 H   0  0  0  0  0  0  0  0  0  0  0  0
   36.1390   27.9530   32.7710 C   0  0  0  0  0  3  0  0  0  0  0  0
   36.1790   27.5640   31.3980 C   0  0  0  0  0  3  0  0  0  0  0  0
   37.8990   26.8400   31.2200 S   0  0  0  0  0  0  0  0  0  0  0  0
   38.8250   24.5770   34.6020 C   0  0  0  0  0  0  0  0  0  0  0  0
   37.9150   24.2530   33.7650 O   0  0  0  0  0  0  0  0  0  0  0  0
   37.8980   24.1150   38.1950 C   0  0  0  0  0  0  0  0  0  0  0  0
   37.8660   24.5370   36.8730 C   0  0  0  0  0  0  0  0  0  0  0  0
   38.8400   24.1110   35.9680 C   0  0  0  0  0  0  0  0  0  0  0  0
   39.7850   23.2900   36.4280 N   0  0  0  0  0  0  0  0  0  0  0  0
   39.7940   22.8880   37.7310 C   0  0  0  0  0  0  0  0  0  0  0  0
   38.8800   23.2830   38.6010 N   0  0  0  0  0  0  0  0  0  0  0  0
   37.1330   24.4600   38.8770 H   0  0  0  0  0  0  0  0  0  0  0  0
   37.0990   25.2030   36.5040 H   0  0  0  0  0  0  0  0  0  0  0  0
   40.6300   22.2210   37.9450 H   0  0  0  0  0  0  0  0  0  0  0  0
  1  4  1  6  0  0  0
  1 14  1  0  0  0  0
  1  2  1  0  0  0  0
  2  6  1  0  0  0  0
  2  5  1  0  0  0  0
  3  7  1  6  0  0  0
  3  1  1  0  0  0  0
  3  2  1  0  0  0  0
  8  9  2  0  0  0  0
  8  3  1  0  0  0  0
  9 10  1  0  0  0  0
 11  9  1  0  0  0  0
 12 11  2  0  0  0  0
 13 12  1  0  0  0  0
 13  8  1  0  0  0  0
 14 18  1  0  0  0  0
 15 14  2  0  0  0  0
 16 21  1  0  0  0  0
 16 22  1  0  0  0  0
 17 16  2  0  0  0  0
 18 19  2  0  0  0  0
 18 17  1  0  0  0  0
 19 20  1  0  0  0  0
 20 24  1  0  0  0  0
 20 21  2  0  0  0  0
 23 17  1  0  0  0  0
M  END
>  <minimizedAffinity>
-4.38222361

$$$$

 OpenBabel03272501333D

 24 26  0  0  1  0  0  0  0  0999 V2000
   37.4340   26.7910   34.8290 C   0  0  2  0  0  0  0  0  0  0  0  0
   38.6780   27.3530   35.6170 C   0  0  0  0  0  0  0  0  0  0  0  0
   37.9800   26.0610   35.9570 C   0  0  2  0  0  0  0  0  0  0  0  0
   36.6680   27.6300   34.8800 H   0  0  0  0  0  0  0  0  0  0  0  0
   39.6610   27.2250   35.1680 H   0  0  0  0  0  0  0  0  0  0  0  0
   38.5240   28.2380   36.2450 H   0  0  0  0  0  0  0  0  0  0  0  0
   37.3190   26.1060   36.8800 H   0  0  0  0  0  0  0  0  0  0  0  0
   38.6820   24.8010   35.8390 C   0  0  0  0  0  0  0  0  0  0  0  0
   39.9240   24.5290   35.3810 C   0  0  0  0  0  0  0  0  0  0  0  0
   40.5670   25.3600   35.0420 H   0  0  0  0  0  0  0  0  0  0  0  0
   40.4310   23.2690   35.3240 C   0  0  0  0  0  3  0  0  0  0  0  0
   39.5390   22.2580   35.7920 C   0  0  0  0  0  3  0  0  0  0  0  0
   38.0170   23.2380   36.2810 S   0  0  0  0  0  0  0  0  0  0  0  0
   37.8280   26.5260   33.4190 C   0  0  0  0  0  0  0  0  0  0  0  0
   38.8780   27.1100   32.9820 O   0  0  0  0  0  0  0  0  0  0  0  0
   36.5320   23.4300   31.7710 C   0  0  0  0  0  0  0  0  0  0  0  0
   37.2860   24.2740   32.5740 C   0  0  0  0  0  0  0  0  0  0  0  0
   37.0230   25.6450   32.6080 C   0  0  0  0  0  0  0  0  0  0  0  0
   36.0260   26.0940   31.8450 N   0  0  0  0  0  0  0  0  0  0  0  0
   35.2980   25.2450   31.0640 C   0  0  0  0  0  0  0  0  0  0  0  0
   35.5360   23.9450   31.0200 N   0  0  0  0  0  0  0  0  0  0  0  0
   36.7570   22.3720   31.7600 H   0  0  0  0  0  0  0  0  0  0  0  0
   38.0930   23.9060   33.1920 H   0  0  0  0  0  0  0  0  0  0  0  0
   34.5240   25.7690   30.5040 H   0  0  0  0  0  0  0  0  0  0  0  0
  1  4  1  1  0  0  0
  1  2  1  0  0  0  0
  1  3  1  0  0  0  0
  2  3  1  0  0  0  0
  2  6  1  0  0  0  0
  3  7  1  1  0  0  0
  5  2  1  0  0  0  0
  8  3  1  0  0  0  0
  8 13  1  0  0  0  0
  9  8  2  0  0  0  0
 10  9  1  0  0  0  0
 11  9  1  0  0  0  0
 11 12  2  0  0  0  0
 12 13  1  0  0  0  0
 14  1  1  0  0  0  0
 15 14  2  0  0  0  0
 16 17  1  0  0  0  0
 17 18  2  0  0  0  0
 17 23  1  0  0  0  0
 18 14  1  0  0  0  0
 19 18  1  0  0  0  0
 20 19  2  0  0  0  0
 21 20  1  0  0  0  0
 21 16  2  0  0  0  0
 22 16  1  0  0  0  0
 24 20  1  0  0  0  0
M  END
>  <minimizedAffinity>
-4.32871437

$$$$

 OpenBabel03272501333D

 24 26  0  0  1  0  0  0  0  0999 V2000
   38.1100   23.0960   33.7180 C   0  0  2  0  0  0  0  0  0  0  0  0
   39.6430   22.7800   33.9080 C   0  0  0  0  0  0  0  0  0  0  0  0
   38.9100   23.8700   34.6490 C   0  0  2  0  0  0  0  0  0  0  0  0
   38.0010   23.2910   32.6030 H   0  0  0  0  0  0  0  0  0  0  0  0
   39.9100   21.9240   34.5240 H   0  0  0  0  0  0  0  0  0  0  0  0
   40.3200   23.0390   33.0860 H   0  0  0  0  0  0  0  0  0  0  0  0
   39.1280   24.9230   34.2810 H   0  0  0  0  0  0  0  0  0  0  0  0
   38.7650   23.8030   36.0870 C   0  0  0  0  0  0  0  0  0  0  0  0
   37.9010   24.4330   36.9110 C   0  0  0  0  0  0  0  0  0  0  0  0
   37.1420   25.1110   36.4810 H   0  0  0  0  0  0  0  0  0  0  0  0
   37.9100   24.2650   38.2610 C   0  0  0  0  0  3  0  0  0  0  0  0
   38.9120   23.3640   38.7300 C   0  0  0  0  0  3  0  0  0  0  0  0
   39.7680   22.8300   37.1500 S   0  0  0  0  0  0  0  0  0  0  0  0
   37.3120   21.9070   34.1230 C   0  0  0  0  0  0  0  0  0  0  0  0
   37.1600   21.7000   35.3760 O   0  0  0  0  0  0  0  0  0  0  0  0
   35.1490   19.3700   32.4300 C   0  0  0  0  0  0  0  0  0  0  0  0
   35.6630   20.2240   33.3950 C   0  0  0  0  0  0  0  0  0  0  0  0
   36.7580   21.0430   33.1090 C   0  0  0  0  0  0  0  0  0  0  0  0
   37.2740   20.9650   31.8820 N   0  0  0  0  0  0  0  0  0  0  0  0
   36.7510   20.1180   30.9500 C   0  0  0  0  0  0  0  0  0  0  0  0
   35.7150   19.3360   31.2060 N   0  0  0  0  0  0  0  0  0  0  0  0
   34.3010   18.7450   32.6770 H   0  0  0  0  0  0  0  0  0  0  0  0
   35.2420   20.2850   34.3890 H   0  0  0  0  0  0  0  0  0  0  0  0
   37.2860   20.1750   30.0020 H   0  0  0  0  0  0  0  0  0  0  0  0
  1  4  1  6  0  0  0
  1  2  1  0  0  0  0
  1 14  1  0  0  0  0
  1  3  1  0  0  0  0
  2  5  1  0  0  0  0
  2  3  1  0  0  0  0
  3  7  1  6  0  0  0
  3  8  1  0  0  0  0
  6  2  1  0  0  0  0
  8  9  2  0  0  0  0
  8 13  1  0  0  0  0
  9 11  1  0  0  0  0
 10  9  1  0  0  0  0
 11 12  2  0  0  0  0
 13 12  1  0  0  0  0
 14 15  2  0  0  0  0
 16 22  1  0  0  0  0
 16 17  1  0  0  0  0
 17 23  1  0  0  0  0
 18 17  2  0  0  0  0
 18 14  1  0  0  0  0
 19 18  1  0  0  0  0
 20 21  1  0  0  0  0
 20 19  2  0  0  0  0
 21 16  2  0  0  0  0
 24 20  1  0  0  0  0
M  END
>  <minimizedAffinity>
-4.30721617

$$$$

 OpenBabel03272501333D

 24 26  0  0  1  0  0  0  0  0999 V2000
   39.0690   27.0020   33.7920 C   0  0  2  0  0  0  0  0  0  0  0  0
   40.4980   26.8860   34.4480 C   0  0  0  0  0  0  0  0  0  0  0  0
   39.2090   26.6110   35.1820 C   0  0  2  0  0  0  0  0  0  0  0  0
   39.0290   28.0670   33.3950 H   0  0  0  0  0  0  0  0  0  0  0  0
   41.0840   25.9960   34.2270 H   0  0  0  0  0  0  0  0  0  0  0  0
   41.0460   27.8150   34.6380 H   0  0  0  0  0  0  0  0  0  0  0  0
   38.8940   27.4250   35.9090 H   0  0  0  0  0  0  0  0  0  0  0  0
   38.9240   25.2820   35.6790 C   0  0  0  0  0  0  0  0  0  0  0  0
   37.8410   24.8030   36.3280 C   0  0  0  0  0  0  0  0  0  0  0  0
   36.9900   25.4770   36.5290 H   0  0  0  0  0  0  0  0  0  0  0  0
   37.7390   23.5120   36.7430 C   0  0  0  0  0  3  0  0  0  0  0  0
   38.8760   22.7070   36.4320 C   0  0  0  0  0  3  0  0  0  0  0  0
   40.0110   23.9100   35.5510 S   0  0  0  0  0  0  0  0  0  0  0  0
   38.9620   26.0220   32.6770 C   0  0  0  0  0  0  0  0  0  0  0  0
   40.0510   25.5490   32.2030 O   0  0  0  0  0  0  0  0  0  0  0  0
   36.0200   23.9610   31.6410 C   0  0  0  0  0  0  0  0  0  0  0  0
   37.2590   24.3180   32.1530 C   0  0  0  0  0  0  0  0  0  0  0  0
   37.6600   25.6550   32.1740 C   0  0  0  0  0  0  0  0  0  0  0  0
   36.8070   26.5570   31.6870 N   0  0  0  0  0  0  0  0  0  0  0  0
   35.5940   26.1820   31.1890 C   0  0  0  0  0  0  0  0  0  0  0  0
   35.1990   24.9190   31.1610 N   0  0  0  0  0  0  0  0  0  0  0  0
   35.7320   22.9180   31.6340 H   0  0  0  0  0  0  0  0  0  0  0  0
   37.9480   23.5850   32.5470 H   0  0  0  0  0  0  0  0  0  0  0  0
   35.0180   27.0360   30.8310 H   0  0  0  0  0  0  0  0  0  0  0  0
  1  4  1  6  0  0  0
  1  2  1  0  0  0  0
  1  3  1  0  0  0  0
  2  6  1  0  0  0  0
  2  3  1  0  0  0  0
  3  8  1  0  0  0  0
  3  7  1  1  0  0  0
  5  2  1  0  0  0  0
  8  9  2  0  0  0  0
  9 10  1  0  0  0  0
  9 11  1  0  0  0  0
 12 11  2  0  0  0  0
 13  8  1  0  0  0  0
 13 12  1  0  0  0  0
 14  1  1  0  0  0  0
 15 14  2  0  0  0  0
 16 17  1  0  0  0  0
 17 18  2  0  0  0  0
 17 23  1  0  0  0  0
 18 14  1  0  0  0  0
 19 18  1  0  0  0  0
 20 19  2  0  0  0  0
 21 20  1  0  0  0  0
 21 16  2  0  0  0  0
 22 16  1  0  0  0  0
 24 20  1  0  0  0  0
M  END
>  <minimizedAffinity>
-4.15871096

$$$$

 OpenBabel03272501333D

 24 26  0  0  1  0  0  0  0  0999 V2000
   37.3840   26.7220   35.1530 C   0  0  2  0  0  0  0  0  0  0  0  0
   38.8330   27.2510   35.4810 C   0  0  0  0  0  0  0  0  0  0  0  0
   38.2230   26.0220   36.1080 C   0  0  2  0  0  0  0  0  0  0  0  0
   36.7060   27.6070   35.3770 H   0  0  0  0  0  0  0  0  0  0  0  0
   39.6230   27.0390   34.7630 H   0  0  0  0  0  0  0  0  0  0  0  0
   38.9160   28.1760   36.0620 H   0  0  0  0  0  0  0  0  0  0  0  0
   37.8820   26.1580   37.1830 H   0  0  0  0  0  0  0  0  0  0  0  0
   38.8030   24.7190   35.8690 C   0  0  0  0  0  0  0  0  0  0  0  0
   38.3460   23.4860   36.1810 C   0  0  0  0  0  0  0  0  0  0  0  0
   37.3690   23.3840   36.6840 H   0  0  0  0  0  0  0  0  0  0  0  0
   39.0340   22.3490   35.8920 C   0  0  0  0  0  3  0  0  0  0  0  0
   40.2790   22.5700   35.2300 C   0  0  0  0  0  3  0  0  0  0  0  0
   40.3460   24.4380   35.0820 S   0  0  0  0  0  0  0  0  0  0  0  0
   37.3120   26.3570   33.7120 C   0  0  0  0  0  0  0  0  0  0  0  0
   37.2760   25.1130   33.4210 O   0  0  0  0  0  0  0  0  0  0  0  0
   36.3530   29.4460   31.8350 C   0  0  0  0  0  0  0  0  0  0  0  0
   36.3910   28.4600   32.8100 C   0  0  0  0  0  0  0  0  0  0  0  0
   37.2950   27.3990   32.7140 C   0  0  0  0  0  0  0  0  0  0  0  0
   38.1060   27.3830   31.6550 N   0  0  0  0  0  0  0  0  0  0  0  0
   38.0500   28.3640   30.7100 C   0  0  0  0  0  0  0  0  0  0  0  0
   37.1990   29.3740   30.7860 N   0  0  0  0  0  0  0  0  0  0  0  0
   35.6420   30.2560   31.9310 H   0  0  0  0  0  0  0  0  0  0  0  0
   35.7320   28.4760   33.6670 H   0  0  0  0  0  0  0  0  0  0  0  0
   38.7760   28.2040   29.9120 H   0  0  0  0  0  0  0  0  0  0  0  0
  1  4  1  1  0  0  0
  1  2  1  0  0  0  0
  1  3  1  0  0  0  0
  2  6  1  0  0  0  0
  2  3  1  0  0  0  0
  3  7  1  1  0  0  0
  5  2  1  0  0  0  0
  8  3  1  0  0  0  0
  8  9  2  0  0  0  0
  9 10  1  0  0  0  0
 11  9  1  0  0  0  0
 12 11  2  0  0  0  0
 13 12  1  0  0  0  0
 13  8  1  0  0  0  0
 14  1  1  0  0  0  0
 15 14  2  0  0  0  0
 16 22  1  0  0  0  0
 16 17  1  0  0  0  0
 17 23  1  0  0  0  0
 18 17  2  0  0  0  0
 18 14  1  0  0  0  0
 19 18  1  0  0  0  0
 20 21  1  0  0  0  0
 20 19  2  0  0  0  0
 21 16  2  0  0  0  0
 24 20  1  0  0  0  0
M  END
>  <minimizedAffinity>
-4.09684849

$$$$

 OpenBabel03272501333D

 24 26  0  0  1  0  0  0  0  0999 V2000
   37.5150   25.6770   34.2460 C   0  0  2  0  0  0  0  0  0  0  0  0
   37.3240   25.8530   32.6910 C   0  0  0  0  0  0  0  0  0  0  0  0
   38.1240   26.7970   33.5530 C   0  0  2  0  0  0  0  0  0  0  0  0
   36.4540   25.6380   34.6550 H   0  0  0  0  0  0  0  0  0  0  0  0
   37.9270   25.2290   32.0340 H   0  0  0  0  0  0  0  0  0  0  0  0
   36.3320   26.1500   32.3310 H   0  0  0  0  0  0  0  0  0  0  0  0
   37.6140   27.7880   33.7720 H   0  0  0  0  0  0  0  0  0  0  0  0
   39.5490   26.9400   33.3480 C   0  0  0  0  0  0  0  0  0  0  0  0
   40.5590   27.0220   34.2410 C   0  0  0  0  0  0  0  0  0  0  0  0
   40.3320   26.9590   35.3200 H   0  0  0  0  0  0  0  0  0  0  0  0
   41.8600   27.1690   33.8740 C   0  0  0  0  0  3  0  0  0  0  0  0
   42.0660   27.2290   32.4630 C   0  0  0  0  0  3  0  0  0  0  0  0
   40.3280   27.0630   31.7800 S   0  0  0  0  0  0  0  0  0  0  0  0
   38.2260   24.3980   34.5100 C   0  0  0  0  0  0  0  0  0  0  0  0
   38.5350   23.6780   33.4990 O   0  0  0  0  0  0  0  0  0  0  0  0
   39.8890   22.7980   37.4520 C   0  0  0  0  0  0  0  0  0  0  0  0
   39.6160   23.1890   36.1490 C   0  0  0  0  0  0  0  0  0  0  0  0
   38.5280   24.0180   35.8690 C   0  0  0  0  0  0  0  0  0  0  0  0
   37.7780   24.4100   36.8990 N   0  0  0  0  0  0  0  0  0  0  0  0
   38.0660   24.0130   38.1720 C   0  0  0  0  0  0  0  0  0  0  0  0
   39.0920   23.2270   38.4530 N   0  0  0  0  0  0  0  0  0  0  0  0
   40.7370   22.1540   37.6430 H   0  0  0  0  0  0  0  0  0  0  0  0
   40.2270   22.8700   35.3160 H   0  0  0  0  0  0  0  0  0  0  0  0
   37.3580   24.4180   38.8960 H   0  0  0  0  0  0  0  0  0  0  0  0
  1 14  1  0  0  0  0
  1  4  1  1  0  0  0
  2  3  1  0  0  0  0
  2  1  1  0  0  0  0
  3  7  1  1  0  0  0
  3  1  1  0  0  0  0
  5  2  1  0  0  0  0
  6  2  1  0  0  0  0
  8  3  1  0  0  0  0
  8  9  2  0  0  0  0
  9 10  1  0  0  0  0
 11  9  1  0  0  0  0
 12 11  2  0  0  0  0
 13 12  1  0  0  0  0
 13  8  1  0  0  0  0
 14 18  1  0  0  0  0
 15 14  2  0  0  0  0
 16 22  1  0  0  0  0
 16 21  1  0  0  0  0
 17 16  2  0  0  0  0
 18 17  1  0  0  0  0
 18 19  2  0  0  0  0
 19 20  1  0  0  0  0
 20 21  2  0  0  0  0
 20 24  1  0  0  0  0
 23 17  1  0  0  0  0
M  END
>  <minimizedAffinity>
-4.09052658

$$$$

 OpenBabel03272501333D

 24 26  0  0  1  0  0  0  0  0999 V2000
   37.3860   26.7130   35.1260 C   0  0  2  0  0  0  0  0  0  0  0  0
   38.8370   27.2490   35.4320 C   0  0  0  0  0  0  0  0  0  0  0  0
   38.2330   26.0320   36.0880 C   0  0  2  0  0  0  0  0  0  0  0  0
   36.7090   27.6020   35.3390 H   0  0  0  0  0  0  0  0  0  0  0  0
   39.6210   27.0240   34.7110 H   0  0  0  0  0  0  0  0  0  0  0  0
   38.9250   28.1850   35.9930 H   0  0  0  0  0  0  0  0  0  0  0  0
   37.9020   26.1890   37.1630 H   0  0  0  0  0  0  0  0  0  0  0  0
   38.8120   24.7250   35.8700 C   0  0  0  0  0  0  0  0  0  0  0  0
   38.3600   23.4980   36.2100 C   0  0  0  0  0  0  0  0  0  0  0  0
   37.3880   23.4050   36.7250 H   0  0  0  0  0  0  0  0  0  0  0  0
   39.0460   22.3560   35.9370 C   0  0  0  0  0  3  0  0  0  0  0  0
   40.2840   22.5650   35.2600 C   0  0  0  0  0  3  0  0  0  0  0  0
   40.3480   24.4290   35.0730 S   0  0  0  0  0  0  0  0  0  0  0  0
   37.3020   26.3200   33.6940 C   0  0  0  0  0  0  0  0  0  0  0  0
   37.2660   25.0700   33.4280 O   0  0  0  0  0  0  0  0  0  0  0  0
   38.1690   28.3090   30.6480 C   0  0  0  0  0  0  0  0  0  0  0  0
   38.1750   27.3090   31.6100 C   0  0  0  0  0  0  0  0  0  0  0  0
   37.2730   27.3420   32.6750 C   0  0  0  0  0  0  0  0  0  0  0  0
   36.4180   28.3640   32.7190 N   0  0  0  0  0  0  0  0  0  0  0  0
   36.4300   29.3350   31.7620 C   0  0  0  0  0  0  0  0  0  0  0  0
   37.2790   29.3180   30.7470 N   0  0  0  0  0  0  0  0  0  0  0  0
   38.8790   28.2610   29.8330 H   0  0  0  0  0  0  0  0  0  0  0  0
   38.8700   26.4810   31.5710 H   0  0  0  0  0  0  0  0  0  0  0  0
   35.6710   30.0970   31.9430 H   0  0  0  0  0  0  0  0  0  0  0  0
  1  4  1  1  0  0  0
  1  2  1  0  0  0  0
  1  3  1  0  0  0  0
  2  6  1  0  0  0  0
  2  3  1  0  0  0  0
  3  7  1  1  0  0  0
  5  2  1  0  0  0  0
  8  3  1  0  0  0  0
  8  9  2  0  0  0  0
  9 10  1  0  0  0  0
 11  9  1  0  0  0  0
 12 11  2  0  0  0  0
 13 12  1  0  0  0  0
 13  8  1  0  0  0  0
 14  1  1  0  0  0  0
 15 14  2  0  0  0  0
 16 21  2  0  0  0  0
 16 17  1  0  0  0  0
 17 18  2  0  0  0  0
 18 19  1  0  0  0  0
 18 14  1  0  0  0  0
 20 24  1  0  0  0  0
 20 19  2  0  0  0  0
 21 20  1  0  0  0  0
 22 16  1  0  0  0  0
 23 17  1  0  0  0  0
M  END
>  <minimizedAffinity>
-4.06979942

$$$$

 OpenBabel03272501333D

 24 26  0  0  1  0  0  0  0  0999 V2000
   38.6680   26.6350   33.5600 C   0  0  2  0  0  0  0  0  0  0  0  0
   37.7120   27.5440   32.6960 C   0  0  0  0  0  0  0  0  0  0  0  0
   38.2860   26.2340   32.2190 C   0  0  2  0  0  0  0  0  0  0  0  0
   39.5320   27.3220   33.8350 H   0  0  0  0  0  0  0  0  0  0  0  0
   36.6460   27.5100   32.9170 H   0  0  0  0  0  0  0  0  0  0  0  0
   38.1160   28.4880   32.3160 H   0  0  0  0  0  0  0  0  0  0  0  0
   39.1320   26.3320   31.4670 H   0  0  0  0  0  0  0  0  0  0  0  0
   37.4130   25.1180   31.9300 C   0  0  0  0  0  0  0  0  0  0  0  0
   36.1140   25.0950   31.5580 C   0  0  0  0  0  0  0  0  0  0  0  0
   35.5760   26.0490   31.4170 H   0  0  0  0  0  0  0  0  0  0  0  0
   35.4290   23.9410   31.3360 C   0  0  0  0  0  3  0  0  0  0  0  0
   36.2020   22.7570   31.5280 C   0  0  0  0  0  3  0  0  0  0  0  0
   37.8810   23.4290   32.0220 S   0  0  0  0  0  0  0  0  0  0  0  0
   37.9450   26.1880   34.7810 C   0  0  0  0  0  0  0  0  0  0  0  0
   36.8850   26.8250   35.1040 O   0  0  0  0  0  0  0  0  0  0  0  0
   38.2900   23.5710   37.4300 C   0  0  0  0  0  0  0  0  0  0  0  0
   37.7790   24.6170   36.6750 C   0  0  0  0  0  0  0  0  0  0  0  0
   38.4610   25.0780   35.5470 C   0  0  0  0  0  0  0  0  0  0  0  0
   39.6070   24.4720   35.2360 N   0  0  0  0  0  0  0  0  0  0  0  0
   40.0890   23.4460   35.9930 C   0  0  0  0  0  0  0  0  0  0  0  0
   39.4560   22.9980   37.0650 N   0  0  0  0  0  0  0  0  0  0  0  0
   37.7440   23.2320   38.3000 H   0  0  0  0  0  0  0  0  0  0  0  0
   36.8490   25.1060   36.9300 H   0  0  0  0  0  0  0  0  0  0  0  0
   41.0330   23.0620   35.6060 H   0  0  0  0  0  0  0  0  0  0  0  0
  1  4  1  1  0  0  0
  1 14  1  0  0  0  0
  2  5  1  0  0  0  0
  2  1  1  0  0  0  0
  3  7  1  6  0  0  0
  3  2  1  0  0  0  0
  3  1  1  0  0  0  0
  6  2  1  0  0  0  0
  8 13  1  0  0  0  0
  8  3  1  0  0  0  0
  9  8  2  0  0  0  0
 10  9  1  0  0  0  0
 11 12  2  0  0  0  0
 11  9  1  0  0  0  0
 12 13  1  0  0  0  0
 14 15  2  0  0  0  0
 14 18  1  0  0  0  0
 16 22  1  0  0  0  0
 17 23  1  0  0  0  0
 17 16  2  0  0  0  0
 18 17  1  0  0  0  0
 19 18  2  0  0  0  0
 19 20  1  0  0  0  0
 20 21  2  0  0  0  0
 21 16  1  0  0  0  0
 24 20  1  0  0  0  0
M  END
>  <minimizedAffinity>
-4.06161928

$$$$

 OpenBabel03272501333D

 24 26  0  0  1  0  0  0  0  0999 V2000
   39.0490   25.4480   33.9000 C   0  0  2  0  0  0  0  0  0  0  0  0
   37.5390   25.7850   34.2030 C   0  0  0  0  0  0  0  0  0  0  0  0
   38.2070   24.4910   34.5940 C   0  0  2  0  0  0  0  0  0  0  0  0
   39.1410   25.5660   32.7720 H   0  0  0  0  0  0  0  0  0  0  0  0
   37.3280   26.4490   35.0390 H   0  0  0  0  0  0  0  0  0  0  0  0
   36.8430   25.8070   33.3560 H   0  0  0  0  0  0  0  0  0  0  0  0
   37.9240   23.5980   33.9520 H   0  0  0  0  0  0  0  0  0  0  0  0
   38.3620   24.1450   35.9900 C   0  0  0  0  0  0  0  0  0  0  0  0
   37.7370   24.6260   37.0870 C   0  0  0  0  0  0  0  0  0  0  0  0
   36.9560   25.3980   36.9680 H   0  0  0  0  0  0  0  0  0  0  0  0
   38.0160   24.1930   38.3460 C   0  0  0  0  0  3  0  0  0  0  0  0
   39.0260   23.1870   38.4070 C   0  0  0  0  0  3  0  0  0  0  0  0
   39.4910   22.9510   36.6070 S   0  0  0  0  0  0  0  0  0  0  0  0
   39.9190   26.4280   34.6030 C   0  0  0  0  0  0  0  0  0  0  0  0
   39.3430   27.3510   35.2740 O   0  0  0  0  0  0  0  0  0  0  0  0
   43.4610   27.0820   33.5960 C   0  0  0  0  0  0  0  0  0  0  0  0
   42.0850   27.2130   33.7230 C   0  0  0  0  0  0  0  0  0  0  0  0
   41.3540   26.3100   34.4970 C   0  0  0  0  0  0  0  0  0  0  0  0
   42.0330   25.3320   35.1000 N   0  0  0  0  0  0  0  0  0  0  0  0
   43.3850   25.2240   34.9600 C   0  0  0  0  0  0  0  0  0  0  0  0
   44.0910   26.0710   34.2300 N   0  0  0  0  0  0  0  0  0  0  0  0
   44.0050   27.7930   32.9890 H   0  0  0  0  0  0  0  0  0  0  0  0
   41.5390   28.0070   33.2340 H   0  0  0  0  0  0  0  0  0  0  0  0
   43.7850   24.3740   35.5140 H   0  0  0  0  0  0  0  0  0  0  0  0
  1  4  1  6  0  0  0
  1  2  1  0  0  0  0
  1  3  1  0  0  0  0
  1 14  1  0  0  0  0
  2  3  1  0  0  0  0
  2  5  1  0  0  0  0
  3  7  1  6  0  0  0
  3  8  1  0  0  0  0
  6  2  1  0  0  0  0
  8 13  1  0  0  0  0
  8  9  2  0  0  0  0
  9 11  1  0  0  0  0
 10  9  1  0  0  0  0
 11 12  2  0  0  0  0
 13 12  1  0  0  0  0
 14 15  2  0  0  0  0
 16 17  2  0  0  0  0
 16 21  1  0  0  0  0
 17 18  1  0  0  0  0
 18 14  1  0  0  0  0
 18 19  2  0  0  0  0
 20 19  1  0  0  0  0
 20 24  1  0  0  0  0
 21 20  2  0  0  0  0
 22 16  1  0  0  0  0
 23 17  1  0  0  0  0
M  END
>  <minimizedAffinity>
-4.04831839

$$$$
