
 OpenBabel03272504223D

 36 38  0  0  1  0  0  0  0  0999 V2000
   36.8390   31.5890   48.6310 O   0  0  0  0  0  0  0  0  0  0  0  0
   38.8780   32.3970   47.8400 C   0  0  2  0  0  0  0  0  0  0  0  0
   38.1980   31.3880   48.7380 C   0  0  1  0  0  0  0  0  0  0  0  0
   38.6920   31.9280   50.0830 C   0  0  0  0  0  0  0  0  0  0  0  0
   38.3630   33.2750   49.9600 O   0  0  0  0  0  0  0  0  0  0  0  0
   38.6620   33.6590   48.6750 C   0  0  0  0  0  0  0  0  0  0  0  0
   39.9390   32.1540   47.7380 H   0  0  0  0  0  0  0  0  0  0  0  0
   38.5270   30.3500   48.5740 H   0  0  0  0  0  0  0  0  0  0  0  0
   39.7660   31.7450   50.1820 H   0  0  0  0  0  0  0  0  0  0  0  0
   38.0700   31.4530   50.8500 H   0  0  0  0  0  0  0  0  0  0  0  0
   39.5970   34.2670   48.6180 H   0  0  0  0  0  0  0  0  0  0  0  0
   37.8660   34.3020   48.2260 H   0  0  0  0  0  0  0  0  0  0  0  0
   38.1830   32.4340   46.6350 O   0  0  0  0  0  0  0  0  0  0  0  0
   38.8540   31.8600   45.5280 C   0  0  0  0  0  0  0  0  0  0  0  0
   38.2530   31.3700   44.3650 C   0  0  0  0  0  0  0  0  0  0  0  0
   37.1810   31.4180   44.2700 H   0  0  0  0  0  0  0  0  0  0  0  0
   39.0380   30.8440   43.3830 C   0  0  0  0  0  3  0  0  0  0  0  0
   40.4680   30.8140   43.5820 C   0  0  0  0  0  3  0  0  0  0  0  0
   40.6940   31.5380   45.1770 S   0  0  0  0  0  0  0  0  0  0  0  0
   35.9330   29.8370   46.9380 O   0  0  0  0  0  0  0  0  0  0  0  0
   35.9760   30.1670   48.4110 P   0  0  1  0  0  0  0  0  0  0  0  0
   36.7570   28.8790   49.2160 O   0  0  0  0  0  0  0  0  0  0  0  0
   37.4460   29.1910   49.8510 H   0  0  0  0  0  0  0  0  0  0  0  0
   34.3990   30.3390   49.0220 O   0  0  0  0  0  0  0  0  0  0  0  0
   34.1310   29.2070   49.7670 C   0  0  0  0  0  0  0  0  0  0  0  0
   33.6190   29.4890   50.7310 H   0  0  0  0  0  0  0  0  0  0  0  0
   35.0420   28.6710   50.0960 H   0  0  0  0  0  0  0  0  0  0  0  0
   33.2700   28.2270   49.0700 C   0  0  0  0  0  0  0  0  0  0  0  0
   33.8990   27.3350   48.2350 C   0  0  0  0  0  0  0  0  0  0  0  0
   33.1430   26.3840   47.5470 C   0  0  0  0  0  0  0  0  0  0  0  0
   31.7940   26.4020   47.7500 N   0  0  0  0  0  0  0  0  0  0  0  0
   31.2010   27.2870   48.5730 C   0  0  0  0  0  0  0  0  0  0  0  0
   31.9360   28.2080   49.2390 N   0  0  0  0  0  0  0  0  0  0  0  0
   34.9480   27.2430   48.0110 H   0  0  0  0  0  0  0  0  0  0  0  0
   33.5360   25.6500   46.8790 H   0  0  0  0  0  0  0  0  0  0  0  0
   30.1290   27.2120   48.6610 H   0  0  0  0  0  0  0  0  0  0  0  0
  1  3  1  0  0  0  0
  2  7  1  6  0  0  0
  2  6  1  0  0  0  0
  2  3  1  0  0  0  0
  3  8  1  6  0  0  0
  3  4  1  0  0  0  0
  4  9  1  0  0  0  0
  4 10  1  0  0  0  0
  5  4  1  0  0  0  0
  6  5  1  0  0  0  0
 11  6  1  0  0  0  0
 12  6  1  0  0  0  0
 13  2  1  0  0  0  0
 14 13  1  0  0  0  0
 15 14  2  0  0  0  0
 16 15  1  0  0  0  0
 17 18  2  0  0  0  0
 17 15  1  0  0  0  0
 18 19  1  0  0  0  0
 19 14  1  0  0  0  0
 21 20  2  6  0  0  0
 21  1  1  0  0  0  0
 21 24  1  0  0  0  0
 21 22  1  0  0  0  0
 22 23  1  0  0  0  0
 24 25  1  0  0  0  0
 25 27  1  0  0  0  0
 25 26  1  0  0  0  0
 28 33  1  0  0  0  0
 28 25  1  0  0  0  0
 29 28  2  0  0  0  0
 30 31  2  0  0  0  0
 30 29  1  0  0  0  0
 31 32  1  0  0  0  0
 32 36  1  0  0  0  0
 32 33  2  0  0  0  0
 34 29  1  0  0  0  0
 35 30  1  0  0  0  0
M  END
>  <minimizedAffinity>
-4.52039051

>  <minimizedRMSD>
0.334644645

$$$$
