
 OpenBabel03272502553D

 39 42  0  0  0  0  0  0  0  0999 V2000
   36.4690   30.5400   49.3270 C   0  0  0  0  0  0  0  0  0  0  0  0
   36.5280   30.1890   50.6660 C   0  0  0  0  0  0  0  0  0  0  0  0
   35.6030   29.3150   51.2000 C   0  0  0  0  0  0  0  0  0  0  0  0
   34.6350   28.8230   50.3330 C   0  0  0  0  0  0  0  0  0  0  0  0
   34.5680   29.1670   49.0010 C   0  0  0  0  0  0  0  0  0  0  0  0
   35.5010   30.0280   48.5300 N   0  0  0  0  0  0  0  0  0  0  0  0
   33.5460   28.6110   48.2100 N   0  0  0  0  0  0  0  0  0  0  0  0
   32.4420   27.9590   48.8820 C   0  0  0  0  0  0  0  0  0  0  0  0
   31.5710   27.3480   47.8050 C   0  0  0  0  0  0  0  0  0  0  0  0
   31.0800   28.4370   46.8680 C   0  0  0  0  0  0  0  0  0  0  0  0
   32.2030   29.2600   46.3340 C   0  0  0  0  0  0  0  0  0  0  0  0
   33.5300   28.6520   46.7610 C   0  0  0  0  0  0  0  0  0  0  0  0
   37.2980   30.5920   51.3120 H   0  0  0  0  0  0  0  0  0  0  0  0
   35.6540   29.0500   52.2290 H   0  0  0  0  0  0  0  0  0  0  0  0
   33.9370   28.1400   50.8190 H   0  0  0  0  0  0  0  0  0  0  0  0
   32.7640   27.0980   49.5170 H   0  0  0  0  0  0  0  0  0  0  0  0
   31.8080   28.6890   49.4360 H   0  0  0  0  0  0  0  0  0  0  0  0
   32.0620   26.5150   47.2850 H   0  0  0  0  0  0  0  0  0  0  0  0
   30.6580   26.9740   48.3500 H   0  0  0  0  0  0  0  0  0  0  0  0
   30.4560   27.9880   46.0730 H   0  0  0  0  0  0  0  0  0  0  0  0
   30.3810   29.0830   47.4560 H   0  0  0  0  0  0  0  0  0  0  0  0
   32.2020   29.2180   45.2190 H   0  0  0  0  0  0  0  0  0  0  0  0
   32.1950   30.3090   46.6480 H   0  0  0  0  0  0  0  0  0  0  0  0
   34.3870   29.1640   46.3270 H   0  0  0  0  0  0  0  0  0  0  0  0
   33.5790   27.5960   46.4060 H   0  0  0  0  0  0  0  0  0  0  0  0
   38.7790   33.3640   49.0100 C   0  0  0  0  0  0  0  0  0  0  0  0
   39.3190   33.1880   47.7180 C   0  0  0  0  0  0  0  0  0  0  0  0
   38.8690   32.1050   47.0010 C   0  0  0  0  0  0  0  0  0  0  0  0
   37.9490   31.2580   47.5350 N   0  0  0  0  0  0  0  0  0  0  0  0
   37.4500   31.4590   48.7840 C   0  0  0  0  0  0  0  0  0  0  0  0
   37.8790   32.5060   49.4870 N   0  0  0  0  0  0  0  0  0  0  0  0
   39.1090   34.1960   49.5910 H   0  0  0  0  0  0  0  0  0  0  0  0
   40.0390   33.8990   47.3720 H   0  0  0  0  0  0  0  0  0  0  0  0
   39.4050   31.8820   45.6510 C   0  0  0  0  0  0  0  0  0  0  0  0
   40.4090   31.1370   45.2140 C   0  0  0  0  0  0  0  0  0  0  0  0
   40.9690   30.5680   45.9490 H   0  0  0  0  0  0  0  0  0  0  0  0
   40.7240   31.0900   43.8840 C   0  0  0  0  0  0  0  0  0  0  0  0
   39.9070   31.8840   43.0370 C   0  0  0  0  0  0  0  0  0  0  0  0
   38.7080   32.6620   44.2810 S   0  0  0  0  0  0  0  0  0  0  0  0
  1  2  1  0  0  0  0
  2  3  2  0  0  0  0
  2 13  1  0  0  0  0
  3 14  1  0  0  0  0
  4 15  1  0  0  0  0
  4  3  1  0  0  0  0
  5  4  2  0  0  0  0
  6  5  1  0  0  0  0
  6  1  2  0  0  0  0
  7  8  1  0  0  0  0
  7  5  1  0  0  0  0
  8 17  1  0  0  0  0
  8 16  1  0  0  0  0
  9 19  1  0  0  0  0
  9  8  1  0  0  0  0
 10 21  1  0  0  0  0
 10  9  1  0  0  0  0
 11 23  1  0  0  0  0
 11 12  1  0  0  0  0
 11 10  1  0  0  0  0
 12  7  1  0  0  0  0
 18  9  1  0  0  0  0
 20 10  1  0  0  0  0
 22 11  1  0  0  0  0
 24 12  1  0  0  0  0
 25 12  1  0  0  0  0
 26 31  1  0  0  0  0
 26 32  1  0  0  0  0
 27 26  2  0  0  0  0
 28 29  2  0  0  0  0
 28 27  1  0  0  0  0
 29 30  1  0  0  0  0
 30  1  1  0  0  0  0
 30 31  2  0  0  0  0
 33 27  1  0  0  0  0
 34 28  1  0  0  0  0
 35 34  2  0  0  0  0
 35 36  1  0  0  0  0
 37 35  1  0  0  0  0
 38 37  2  0  0  0  0
 38 39  1  0  0  0  0
 39 34  1  0  0  0  0
M  END
>  <minimizedAffinity>
-6.76377916

>  <minimizedRMSD>
1.49975502

$$$$
