
 OpenBabel03272504213D

 36 38  0  0  1  0  0  0  0  0999 V2000
   36.8320   31.5950   48.7030 O   0  0  0  0  0  0  0  0  0  0  0  0
   38.8310   32.4350   47.8440 C   0  0  2  0  0  0  0  0  0  0  0  0
   38.1960   31.3990   48.7450 C   0  0  1  0  0  0  0  0  0  0  0  0
   38.7460   31.9070   50.0810 C   0  0  0  0  0  0  0  0  0  0  0  0
   38.4060   33.2550   50.0060 O   0  0  0  0  0  0  0  0  0  0  0  0
   38.6460   33.6730   48.7200 C   0  0  0  0  0  0  0  0  0  0  0  0
   39.8880   32.2000   47.6900 H   0  0  0  0  0  0  0  0  0  0  0  0
   38.5220   30.3670   48.5410 H   0  0  0  0  0  0  0  0  0  0  0  0
   39.8240   31.7280   50.1280 H   0  0  0  0  0  0  0  0  0  0  0  0
   38.1600   31.4100   50.8620 H   0  0  0  0  0  0  0  0  0  0  0  0
   39.5750   34.2870   48.6370 H   0  0  0  0  0  0  0  0  0  0  0  0
   37.8280   34.3230   48.3230 H   0  0  0  0  0  0  0  0  0  0  0  0
   38.0840   32.4980   46.6720 O   0  0  0  0  0  0  0  0  0  0  0  0
   38.7870   32.1810   45.4840 C   0  0  0  0  0  0  0  0  0  0  0  0
   38.4140   32.5410   44.1860 C   0  0  0  0  0  0  0  0  0  0  0  0
   37.5110   33.1110   44.0410 H   0  0  0  0  0  0  0  0  0  0  0  0
   39.1990   32.1590   43.1400 C   0  0  0  0  0  3  0  0  0  0  0  0
   40.3920   31.3950   43.4140 C   0  0  0  0  0  3  0  0  0  0  0  0
   40.3970   31.2190   45.1710 S   0  0  0  0  0  0  0  0  0  0  0  0
   35.9070   29.8660   46.9970 O   0  0  0  0  0  0  0  0  0  0  0  0
   35.9680   30.1750   48.4740 P   0  0  1  0  0  0  0  0  0  0  0  0
   36.7580   28.8770   49.2520 O   0  0  0  0  0  0  0  0  0  0  0  0
   37.4550   29.1810   49.8830 H   0  0  0  0  0  0  0  0  0  0  0  0
   34.3970   30.3380   49.1060 O   0  0  0  0  0  0  0  0  0  0  0  0
   34.1310   29.1870   49.8200 C   0  0  0  0  0  0  0  0  0  0  0  0
   33.6200   29.4420   50.7920 H   0  0  0  0  0  0  0  0  0  0  0  0
   35.0420   28.6410   50.1330 H   0  0  0  0  0  0  0  0  0  0  0  0
   33.2690   28.2260   49.0970 C   0  0  0  0  0  0  0  0  0  0  0  0
   33.9000   27.3380   48.2590 C   0  0  0  0  0  0  0  0  0  0  0  0
   33.1430   26.4060   47.5470 C   0  0  0  0  0  0  0  0  0  0  0  0
   31.7920   26.4350   47.7310 N   0  0  0  0  0  0  0  0  0  0  0  0
   31.1970   27.3150   48.5590 C   0  0  0  0  0  0  0  0  0  0  0  0
   31.9330   28.2180   49.2480 N   0  0  0  0  0  0  0  0  0  0  0  0
   34.9510   27.2380   48.0480 H   0  0  0  0  0  0  0  0  0  0  0  0
   33.5380   25.6770   46.8740 H   0  0  0  0  0  0  0  0  0  0  0  0
   30.1230   27.2510   48.6310 H   0  0  0  0  0  0  0  0  0  0  0  0
  1  3  1  0  0  0  0
  2  7  1  6  0  0  0
  2  6  1  0  0  0  0
  2  3  1  0  0  0  0
  3  8  1  6  0  0  0
  3  4  1  0  0  0  0
  4  9  1  0  0  0  0
  4 10  1  0  0  0  0
  5  4  1  0  0  0  0
  6  5  1  0  0  0  0
 11  6  1  0  0  0  0
 12  6  1  0  0  0  0
 13  2  1  0  0  0  0
 14 13  1  0  0  0  0
 15 14  2  0  0  0  0
 16 15  1  0  0  0  0
 17 18  2  0  0  0  0
 17 15  1  0  0  0  0
 18 19  1  0  0  0  0
 19 14  1  0  0  0  0
 21 20  2  6  0  0  0
 21  1  1  0  0  0  0
 21 24  1  0  0  0  0
 21 22  1  0  0  0  0
 22 23  1  0  0  0  0
 24 25  1  0  0  0  0
 25 27  1  0  0  0  0
 25 26  1  0  0  0  0
 28 33  1  0  0  0  0
 28 25  1  0  0  0  0
 29 28  2  0  0  0  0
 30 31  2  0  0  0  0
 30 29  1  0  0  0  0
 31 32  1  0  0  0  0
 32 36  1  0  0  0  0
 32 33  2  0  0  0  0
 34 29  1  0  0  0  0
 35 30  1  0  0  0  0
M  END
>  <minimizedAffinity>
-4.5652709

>  <minimizedRMSD>
0.106277399

$$$$
