
 OpenBabel03272508273D

 35 38  0  0  1  0  0  0  0  0999 V2000
   33.8830   28.9630   47.2830 C   0  0  2  0  0  0  0  0  0  0  0  0
   34.6220   28.2000   48.3710 C   0  0  2  0  0  0  0  0  0  0  0  0
   33.6980   28.0070   49.3640 O   0  0  0  0  0  0  0  0  0  0  0  0
   32.4390   28.0680   48.8620 C   0  0  0  0  0  0  0  0  0  0  0  0
   32.5330   28.2640   47.3790 C   0  0  1  0  0  0  0  0  0  0  0  0
   33.7400   30.0230   47.5040 H   0  0  0  0  0  0  0  0  0  0  0  0
   34.9440   27.2300   47.9470 H   0  0  0  0  0  0  0  0  0  0  0  0
   31.9540   28.9860   49.3000 H   0  0  0  0  0  0  0  0  0  0  0  0
   31.7820   27.2180   49.1390 H   0  0  0  0  0  0  0  0  0  0  0  0
   32.5750   27.2860   46.8250 H   0  0  0  0  0  0  0  0  0  0  0  0
   35.6920   30.4590   49.0160 C   0  0  1  0  0  0  0  0  0  0  0  0
   35.7720   29.0230   48.8430 C   0  0  1  0  0  0  0  0  0  0  0  0
   35.8570   29.5490   50.2400 C   0  0  0  0  0  0  0  0  0  0  0  0
   34.7660   31.0660   49.1390 H   0  0  0  0  0  0  0  0  0  0  0  0
   36.7630   28.6570   48.4360 H   0  0  0  0  0  0  0  0  0  0  0  0
   36.8060   29.5640   50.7740 H   0  0  0  0  0  0  0  0  0  0  0  0
   34.9740   29.3450   50.8790 H   0  0  0  0  0  0  0  0  0  0  0  0
   36.8860   31.3490   48.7950 C   0  0  0  0  0  0  0  0  0  0  0  0
   37.1020   32.3970   49.6910 C   0  0  0  0  0  0  0  0  0  0  0  0
   38.1880   33.2000   49.4410 C   0  0  0  0  0  0  0  0  0  0  0  0
   39.0010   32.9640   48.3600 N   0  0  0  0  0  0  0  0  0  0  0  0
   38.7590   31.9320   47.5090 C   0  0  0  0  0  0  0  0  0  0  0  0
   37.6960   31.1160   47.7210 N   0  0  0  0  0  0  0  0  0  0  0  0
   36.4680   32.5940   50.5400 H   0  0  0  0  0  0  0  0  0  0  0  0
   38.4380   34.0470   50.0940 H   0  0  0  0  0  0  0  0  0  0  0  0
   39.3870   31.7150   46.6410 H   0  0  0  0  0  0  0  0  0  0  0  0
   34.4400   28.7960   46.0280 O   0  0  0  0  0  0  0  0  0  0  0  0
   35.0130   27.9630   46.0290 H   0  0  0  0  0  0  0  0  0  0  0  0
   31.5160   29.0440   46.8600 O   0  0  0  0  0  0  0  0  0  0  0  0
   30.8900   28.2400   45.5730 C   0  0  0  0  0  0  0  0  0  0  0  0
   30.0550   29.4830   45.2420 C   0  0  0  0  0  0  0  0  0  0  0  0
   29.7960   30.5270   45.5420 H   0  0  0  0  0  0  0  0  0  0  0  0
   29.2320   29.4610   44.1680 C   0  0  0  0  0  3  0  0  0  0  0  0
   29.1750   28.2570   43.3710 C   0  0  0  0  0  3  0  0  0  0  0  0
   30.4110   27.1330   44.2920 S   0  0  0  0  0  0  0  0  0  0  0  0
  1  5  1  0  0  0  0
  1  6  1  1  0  0  0
  1  2  1  0  0  0  0
  2  7  1  6  0  0  0
  2 12  1  0  0  0  0
  2  3  1  0  0  0  0
  4  9  1  0  0  0  0
  4  8  1  0  0  0  0
  4  3  1  0  0  0  0
  5 10  1  6  0  0  0
  5  4  1  0  0  0  0
 11 14  1  6  0  0  0
 11 13  1  0  0  0  0
 12 15  1  6  0  0  0
 12 11  1  0  0  0  0
 12 13  1  0  0  0  0
 13 16  1  0  0  0  0
 13 17  1  0  0  0  0
 18 11  1  0  0  0  0
 18 19  1  0  0  0  0
 19 24  1  0  0  0  0
 20 19  2  0  0  0  0
 20 25  1  0  0  0  0
 21 20  1  0  0  0  0
 22 23  1  0  0  0  0
 22 21  2  0  0  0  0
 23 18  2  0  0  0  0
 26 22  1  0  0  0  0
 27 28  1  0  0  0  0
 27  1  1  0  0  0  0
 29  5  1  0  0  0  0
 30 29  1  0  0  0  0
 31 32  1  0  0  0  0
 31 30  2  0  0  0  0
 33 31  1  0  0  0  0
 34 33  2  0  0  0  0
 34 35  1  0  0  0  0
 35 30  1  0  0  0  0
M  END
>  <minimizedAffinity>
-4.72711849

>  <minimizedRMSD>
0.232946992

$$$$
