
 OpenBabel03272503083D

 42 46  0  0  0  0  0  0  0  0999 V2000
   39.2530   31.9220   44.9590 C   0  0  0  0  0  0  0  0  0  0  0  0
   38.1610   32.5580   45.0940 O   0  0  0  0  0  0  0  0  0  0  0  0
   39.9360   31.6710   46.1730 N   0  0  0  0  0  0  0  0  0  0  0  0
   40.8370   31.1510   46.1230 H   0  0  0  0  0  0  0  0  0  0  0  0
   39.1540   32.2480   42.5800 C   0  0  0  0  0  0  0  0  0  0  0  0
   39.6890   31.5260   43.6440 C   0  0  0  0  0  0  0  0  0  0  0  0
   40.5850   30.4920   43.4810 C   0  0  0  0  0  0  0  0  0  0  0  0
   40.9700   30.1560   42.1920 C   0  0  0  0  0  0  0  0  0  0  0  0
   41.8100   29.2140   41.7260 N   0  0  0  0  0  0  0  0  0  0  0  0
   41.8260   29.3130   40.4030 C   0  0  0  0  0  0  0  0  0  0  0  0
   41.0100   30.3000   40.0370 N   0  0  0  0  0  0  0  0  0  0  0  0
   40.4410   30.8690   41.1350 C   0  0  0  0  0  0  0  0  0  0  0  0
   39.5510   31.8960   41.2980 C   0  0  0  0  0  0  0  0  0  0  0  0
   38.4440   33.0600   42.7830 H   0  0  0  0  0  0  0  0  0  0  0  0
   40.9770   29.9570   44.3360 H   0  0  0  0  0  0  0  0  0  0  0  0
   42.3470   28.5320   42.3370 H   0  0  0  0  0  0  0  0  0  0  0  0
   42.3940   28.7120   39.7070 H   0  0  0  0  0  0  0  0  0  0  0  0
   39.0310   32.6050   40.1610 C   0  0  0  0  0  0  0  0  0  0  0  0
   39.2700   32.5170   38.8450 C   0  0  0  0  0  0  0  0  0  0  0  0
   39.9870   31.7810   38.5110 H   0  0  0  0  0  0  0  0  0  0  0  0
   38.6520   33.3020   37.9500 C   0  0  0  0  0  0  0  0  0  0  0  0
   37.6980   34.2610   38.5440 C   0  0  0  0  0  0  0  0  0  0  0  0
   37.8160   33.8950   40.3950 S   0  0  0  0  0  0  0  0  0  0  0  0
   38.0940   30.1600   47.5040 F   0  0  0  0  0  0  0  0  0  0  0  0
   38.3570   31.3950   48.0030 C   0  0  0  0  0  0  0  0  0  0  0  0
   37.7060   31.8230   49.1270 C   0  0  0  0  0  0  0  0  0  0  0  0
   38.0190   33.0750   49.5760 C   0  0  0  0  0  0  0  0  0  0  0  0
   38.9360   33.8940   48.9580 C   0  0  0  0  0  0  0  0  0  0  0  0
   39.5760   33.4310   47.8270 C   0  0  0  0  0  0  0  0  0  0  0  0
   39.2840   32.1760   47.3500 C   0  0  0  0  0  0  0  0  0  0  0  0
   37.5140   33.4410   50.4680 H   0  0  0  0  0  0  0  0  0  0  0  0
   39.1360   34.8720   49.3650 H   0  0  0  0  0  0  0  0  0  0  0  0
   40.2970   34.0680   47.3360 H   0  0  0  0  0  0  0  0  0  0  0  0
   36.0750   29.3410   51.4590 C   0  0  0  0  0  0  0  0  0  0  0  0
   37.0390   30.1990   50.8830 C   0  0  0  0  0  0  0  0  0  0  0  0
   36.7400   30.9270   49.7530 C   0  0  0  0  0  0  0  0  0  0  0  0
   35.4880   30.7800   49.2280 N   0  0  0  0  0  0  0  0  0  0  0  0
   34.5780   29.9620   49.7820 C   0  0  0  0  0  0  0  0  0  0  0  0
   34.8640   29.2590   50.8710 N   0  0  0  0  0  0  0  0  0  0  0  0
   36.4210   28.8200   52.3450 H   0  0  0  0  0  0  0  0  0  0  0  0
   38.0270   30.3150   51.2990 H   0  0  0  0  0  0  0  0  0  0  0  0
   33.5790   29.8190   49.3940 H   0  0  0  0  0  0  0  0  0  0  0  0
  1  2  2  0  0  0  0
  1  3  1  0  0  0  0
  3 30  1  0  0  0  0
  4  3  1  0  0  0  0
  5 14  1  0  0  0  0
  5  6  1  0  0  0  0
  6  1  1  0  0  0  0
  7  6  2  0  0  0  0
  7 15  1  0  0  0  0
  8  7  1  0  0  0  0
  9  8  1  0  0  0  0
  9 16  1  0  0  0  0
 10  9  1  0  0  0  0
 11 10  2  0  0  0  0
 11 12  1  0  0  0  0
 12 13  1  0  0  0  0
 12  8  2  0  0  0  0
 13  5  2  0  0  0  0
 17 10  1  0  0  0  0
 18 23  1  0  0  0  0
 18 13  1  0  0  0  0
 19 18  2  0  0  0  0
 20 19  1  0  0  0  0
 21 22  2  0  0  0  0
 21 19  1  0  0  0  0
 22 23  1  0  0  0  0
 24 25  1  0  0  0  0
 25 26  1  0  0  0  0
 26 27  2  0  0  0  0
 26 36  1  0  0  0  0
 27 31  1  0  0  0  0
 28 32  1  0  0  0  0
 28 27  1  0  0  0  0
 29 28  2  0  0  0  0
 30 29  1  0  0  0  0
 30 25  2  0  0  0  0
 33 29  1  0  0  0  0
 34 40  1  0  0  0  0
 35 41  1  0  0  0  0
 35 34  1  0  0  0  0
 36 35  2  0  0  0  0
 37 36  1  0  0  0  0
 37 38  2  0  0  0  0
 38 39  1  0  0  0  0
 39 34  2  0  0  0  0
 42 38  1  0  0  0  0
M  END
>  <minimizedAffinity>
-7.54570389

>  <minimizedRMSD>
0.0650728866

$$$$
