
 OpenBabel03272502393D

 37 40  0  0  1  0  0  0  0  0999 V2000
   32.4320   27.9480   48.8080 N   0  0  0  0  0  0  0  0  0  0  0  0
   33.2980   27.2840   47.8480 C   0  0  0  0  0  0  0  0  0  0  0  0
   34.5940   28.0260   47.9880 C   0  0  0  0  0  0  0  0  0  0  0  0
   34.2600   29.2540   48.9540 C   0  0  1  0  0  0  0  0  0  0  0  0
   33.2740   28.6080   49.8260 C   0  0  0  0  0  0  0  0  0  0  0  0
   33.4690   26.2370   48.1430 H   0  0  0  0  0  0  0  0  0  0  0  0
   32.9100   27.3850   46.8100 H   0  0  0  0  0  0  0  0  0  0  0  0
   35.3520   27.4800   48.5700 H   0  0  0  0  0  0  0  0  0  0  0  0
   35.0020   28.4330   47.0720 H   0  0  0  0  0  0  0  0  0  0  0  0
   33.8550   29.9250   48.1830 H   0  0  0  0  0  0  0  0  0  0  0  0
   33.7300   27.8060   50.4520 H   0  0  0  0  0  0  0  0  0  0  0  0
   32.6560   29.2790   50.4370 H   0  0  0  0  0  0  0  0  0  0  0  0
   36.0250   31.0640   47.6650 F   0  0  0  0  0  0  0  0  0  0  0  0
   36.2600   30.5980   48.9090 C   0  0  0  0  0  0  0  0  0  0  0  0
   35.5070   29.6800   49.5880 C   0  0  0  0  0  0  0  0  0  0  0  0
   35.9380   29.3000   50.8700 C   0  0  0  0  0  0  0  0  0  0  0  0
   37.0730   29.8160   51.4510 C   0  0  0  0  0  0  0  0  0  0  0  0
   37.8190   30.7470   50.7380 C   0  0  0  0  0  0  0  0  0  0  0  0
   37.3970   31.1340   49.4560 C   0  0  0  0  0  0  0  0  0  0  0  0
   35.3130   28.5710   51.3650 H   0  0  0  0  0  0  0  0  0  0  0  0
   37.3890   29.5160   52.4340 H   0  0  0  0  0  0  0  0  0  0  0  0
   38.7010   31.1250   51.2340 H   0  0  0  0  0  0  0  0  0  0  0  0
   38.2700   32.1060   48.8240 C   0  0  0  0  0  0  0  0  0  0  0  0
   38.6580   33.2590   49.3460 C   0  0  0  0  0  0  0  0  0  0  0  0
   38.4980   33.7940   50.2680 H   0  0  0  0  0  0  0  0  0  0  0  0
   39.4610   34.1680   48.7630 C   0  0  0  0  0  0  0  0  0  0  0  0
   39.8730   33.6980   47.4100 C   0  0  0  0  0  0  0  0  0  0  0  0
   38.9940   31.9960   47.2520 S   0  0  0  0  0  0  0  0  0  0  0  0
   31.0260   27.9840   48.7990 C   0  0  0  0  0  0  0  0  0  0  0  0
   30.4180   28.0840   47.5390 C   0  0  0  0  0  0  0  0  0  0  0  0
   29.0160   28.1340   47.4680 C   0  0  0  0  0  0  0  0  0  0  0  0
   28.3330   28.0790   48.6670 N   0  0  0  0  0  0  0  0  0  0  0  0
   28.9460   27.9840   49.8480 C   0  0  0  0  0  0  0  0  0  0  0  0
   30.2980   27.9360   49.9170 N   0  0  0  0  0  0  0  0  0  0  0  0
   30.9890   28.1240   46.6270 H   0  0  0  0  0  0  0  0  0  0  0  0
   28.4780   28.2110   46.5260 H   0  0  0  0  0  0  0  0  0  0  0  0
   28.3920   27.9410   50.7740 H   0  0  0  0  0  0  0  0  0  0  0  0
  1  5  1  0  0  0  0
  2  3  1  0  0  0  0
  2  6  1  0  0  0  0
  2  1  1  0  0  0  0
  3  8  1  0  0  0  0
  3  4  1  0  0  0  0
  4 10  1  6  0  0  0
  4 15  1  0  0  0  0
  4  5  1  0  0  0  0
  5 12  1  0  0  0  0
  5 11  1  0  0  0  0
  7  2  1  0  0  0  0
  9  3  1  0  0  0  0
 13 14  1  0  0  0  0
 14 19  2  0  0  0  0
 14 15  1  0  0  0  0
 15 16  2  0  0  0  0
 16 20  1  0  0  0  0
 16 17  1  0  0  0  0
 17 21  1  0  0  0  0
 18 22  1  0  0  0  0
 18 17  2  0  0  0  0
 19 18  1  0  0  0  0
 23 24  2  0  0  0  0
 23 19  1  0  0  0  0
 24 25  1  0  0  0  0
 26 24  1  0  0  0  0
 27 26  2  0  0  0  0
 28 27  1  0  0  0  0
 28 23  1  0  0  0  0
 29  1  1  0  0  0  0
 29 34  1  0  0  0  0
 30 29  2  0  0  0  0
 31 30  1  0  0  0  0
 31 32  2  0  0  0  0
 32 33  1  0  0  0  0
 33 34  2  0  0  0  0
 33 37  1  0  0  0  0
 35 30  1  0  0  0  0
 36 31  1  0  0  0  0
M  END
>  <minimizedAffinity>
-6.9708848

>  <minimizedRMSD>
3.03918862

$$$$
