
 OpenBabel03272508273D

 35 38  0  0  1  0  0  0  0  0999 V2000
   32.2370   28.8180   47.0160 C   0  0  2  0  0  0  0  0  0  0  0  0
   33.1060   27.6820   47.5340 C   0  0  2  0  0  0  0  0  0  0  0  0
   32.3730   27.0940   48.5300 O   0  0  0  0  0  0  0  0  0  0  0  0
   31.0500   27.3460   48.3610 C   0  0  0  0  0  0  0  0  0  0  0  0
   30.8790   28.1310   47.0950 C   0  0  1  0  0  0  0  0  0  0  0  0
   32.2190   29.6940   47.6680 H   0  0  0  0  0  0  0  0  0  0  0  0
   33.2680   26.9730   46.7000 H   0  0  0  0  0  0  0  0  0  0  0  0
   30.7270   28.0020   49.2190 H   0  0  0  0  0  0  0  0  0  0  0  0
   30.3950   26.4520   48.4000 H   0  0  0  0  0  0  0  0  0  0  0  0
   30.7420   27.4650   46.2000 H   0  0  0  0  0  0  0  0  0  0  0  0
   34.4610   29.5330   48.7190 C   0  0  1  0  0  0  0  0  0  0  0  0
   34.3840   28.2490   48.0530 C   0  0  1  0  0  0  0  0  0  0  0  0
   34.7260   28.2430   49.5070 C   0  0  0  0  0  0  0  0  0  0  0  0
   33.6220   30.0850   49.2020 H   0  0  0  0  0  0  0  0  0  0  0  0
   35.2650   28.0200   47.3790 H   0  0  0  0  0  0  0  0  0  0  0  0
   35.7430   28.0390   49.8410 H   0  0  0  0  0  0  0  0  0  0  0  0
   33.9350   27.8540   50.1800 H   0  0  0  0  0  0  0  0  0  0  0  0
   35.6820   30.4060   48.6140 C   0  0  0  0  0  0  0  0  0  0  0  0
   36.0650   31.1410   49.7370 C   0  0  0  0  0  0  0  0  0  0  0  0
   37.1710   31.9440   49.5930 C   0  0  0  0  0  0  0  0  0  0  0  0
   37.8450   32.0020   48.3990 N   0  0  0  0  0  0  0  0  0  0  0  0
   37.4420   31.2700   47.3270 C   0  0  0  0  0  0  0  0  0  0  0  0
   36.3540   30.4650   47.4280 N   0  0  0  0  0  0  0  0  0  0  0  0
   35.5420   31.1060   50.6780 H   0  0  0  0  0  0  0  0  0  0  0  0
   37.5470   32.5560   50.4240 H   0  0  0  0  0  0  0  0  0  0  0  0
   37.9560   31.2910   46.3620 H   0  0  0  0  0  0  0  0  0  0  0  0
   32.5340   29.1820   45.7160 O   0  0  0  0  0  0  0  0  0  0  0  0
   33.0330   28.4250   45.2670 H   0  0  0  0  0  0  0  0  0  0  0  0
   29.8460   29.0480   47.1500 O   0  0  0  0  0  0  0  0  0  0  0  0
   28.5110   28.2510   47.6750 C   0  0  0  0  0  0  0  0  0  0  0  0
   27.9130   29.5980   48.1020 C   0  0  0  0  0  0  0  0  0  0  0  0
   28.0720   30.7000   48.1580 H   0  0  0  0  0  0  0  0  0  0  0  0
   26.6840   29.6270   48.6690 C   0  0  0  0  0  3  0  0  0  0  0  0
   25.9820   28.3760   48.8510 C   0  0  0  0  0  3  0  0  0  0  0  0
   27.2370   27.1290   48.1340 S   0  0  0  0  0  0  0  0  0  0  0  0
  1  5  1  0  0  0  0
  1  2  1  0  0  0  0
  1  6  1  1  0  0  0
  2  7  1  6  0  0  0
  2 12  1  0  0  0  0
  2  3  1  0  0  0  0
  4  9  1  0  0  0  0
  4  3  1  0  0  0  0
  4  8  1  0  0  0  0
  5 10  1  6  0  0  0
  5 29  1  0  0  0  0
  5  4  1  0  0  0  0
 11 14  1  1  0  0  0
 11 13  1  0  0  0  0
 12 15  1  6  0  0  0
 12 11  1  0  0  0  0
 12 13  1  0  0  0  0
 13 16  1  0  0  0  0
 13 17  1  0  0  0  0
 18 11  1  0  0  0  0
 18 19  1  0  0  0  0
 19 24  1  0  0  0  0
 20 19  2  0  0  0  0
 20 25  1  0  0  0  0
 21 20  1  0  0  0  0
 22 23  1  0  0  0  0
 22 21  2  0  0  0  0
 23 18  2  0  0  0  0
 26 22  1  0  0  0  0
 27  1  1  0  0  0  0
 28 27  1  0  0  0  0
 29 30  1  0  0  0  0
 30 31  2  0  0  0  0
 30 35  1  0  0  0  0
 31 32  1  0  0  0  0
 31 33  1  0  0  0  0
 33 34  2  0  0  0  0
 35 34  1  0  0  0  0
M  END
>  <minimizedAffinity>
-5.45366764

>  <minimizedRMSD>
2.66057754

$$$$
