
 OpenBabel03272509533D

 40 43  0  0  0  0  0  0  0  0999 V2000
   35.0490   28.3830   49.0740 O   0  0  0  0  0  0  0  0  0  0  0  0
   37.2740   30.1460   51.2970 C   0  0  0  0  0  0  0  0  0  0  0  0
   38.0530   30.8630   50.3560 C   0  0  0  0  0  0  0  0  0  0  0  0
   37.7570   30.6880   49.0150 C   0  0  0  0  0  0  0  0  0  0  0  0
   36.7290   29.8310   48.7190 N   0  0  0  0  0  0  0  0  0  0  0  0
   36.0050   29.1650   49.6260 C   0  0  0  0  0  0  0  0  0  0  0  0
   36.2940   29.3340   50.9300 N   0  0  0  0  0  0  0  0  0  0  0  0
   37.5360   30.3100   52.3370 H   0  0  0  0  0  0  0  0  0  0  0  0
   38.8580   31.5330   50.5850 H   0  0  0  0  0  0  0  0  0  0  0  0
   38.9260   33.3300   48.9320 F   0  0  0  0  0  0  0  0  0  0  0  0
   38.9840   32.5600   47.8620 C   0  0  0  0  0  0  0  0  0  0  0  0
   38.4320   31.3250   47.9130 C   0  0  0  0  0  0  0  0  0  0  0  0
   38.5500   30.6060   46.7340 C   0  0  0  0  0  0  0  0  0  0  0  0
   39.1730   31.0990   45.6080 C   0  0  0  0  0  0  0  0  0  0  0  0
   39.7200   32.3610   45.5980 C   0  0  0  0  0  0  0  0  0  0  0  0
   39.6190   33.0990   46.7530 C   0  0  0  0  0  0  0  0  0  0  0  0
   38.1650   29.6030   46.6090 H   0  0  0  0  0  0  0  0  0  0  0  0
   39.2660   30.5380   44.6870 H   0  0  0  0  0  0  0  0  0  0  0  0
   40.2100   32.7670   44.7310 H   0  0  0  0  0  0  0  0  0  0  0  0
   40.0390   34.0850   46.7660 H   0  0  0  0  0  0  0  0  0  0  0  0
   34.0770   28.9720   48.2240 C   0  0  0  0  0  0  0  0  0  0  0  0
   34.6090   29.6070   47.4790 H   0  0  0  0  0  0  0  0  0  0  0  0
   33.4040   29.6200   48.8170 H   0  0  0  0  0  0  0  0  0  0  0  0
   33.2800   27.9180   47.5280 C   0  0  0  0  0  0  0  0  0  0  0  0
   33.3220   28.0060   46.4140 H   0  0  0  0  0  0  0  0  0  0  0  0
   33.6760   26.9250   47.7720 H   0  0  0  0  0  0  0  0  0  0  0  0
   31.8400   27.9620   47.8800 C   0  0  0  0  0  0  0  0  0  0  0  0
   31.4650   27.7600   49.2090 C   0  0  0  0  0  0  0  0  0  0  0  0
   30.1720   27.7800   49.6300 C   0  0  0  0  0  0  0  0  0  0  0  0
   29.2240   28.0070   48.7200 N   0  0  0  0  0  0  0  0  0  0  0  0
   29.5750   28.2050   47.4220 C   0  0  0  0  0  0  0  0  0  0  0  0
   30.8430   28.1900   46.9770 N   0  0  0  0  0  0  0  0  0  0  0  0
   32.2600   27.5780   49.9240 H   0  0  0  0  0  0  0  0  0  0  0  0
   29.9820   27.6130   50.6790 H   0  0  0  0  0  0  0  0  0  0  0  0
   28.4850   28.4400   46.5160 C   0  0  0  0  0  0  0  0  0  0  0  0
   27.2830   27.7490   46.3250 C   0  0  0  0  0  0  0  0  0  0  0  0
   27.1430   26.8920   46.9660 H   0  0  0  0  0  0  0  0  0  0  0  0
   26.3870   28.1730   45.3830 C   0  0  0  0  0  0  0  0  0  0  0  0
   26.7210   29.3170   44.6240 C   0  0  0  0  0  0  0  0  0  0  0  0
   28.3550   29.8410   45.2370 S   0  0  0  0  0  0  0  0  0  0  0  0
  1  6  1  0  0  0  0
  2  8  1  0  0  0  0
  3  9  1  0  0  0  0
  3  2  2  0  0  0  0
  4  3  1  0  0  0  0
  5  4  2  0  0  0  0
  5  6  1  0  0  0  0
  6  7  2  0  0  0  0
  7  2  1  0  0  0  0
 11 12  1  0  0  0  0
 11 10  1  0  0  0  0
 12  4  1  0  0  0  0
 13 12  2  0  0  0  0
 14 13  1  0  0  0  0
 15 14  2  0  0  0  0
 15 16  1  0  0  0  0
 16 20  1  0  0  0  0
 16 11  2  0  0  0  0
 17 13  1  0  0  0  0
 18 14  1  0  0  0  0
 19 15  1  0  0  0  0
 21 23  1  0  0  0  0
 21  1  1  0  0  0  0
 22 21  1  0  0  0  0
 24 26  1  0  0  0  0
 24 27  1  0  0  0  0
 24 21  1  0  0  0  0
 25 24  1  0  0  0  0
 27 28  1  0  0  0  0
 28 29  2  0  0  0  0
 28 33  1  0  0  0  0
 29 34  1  0  0  0  0
 30 29  1  0  0  0  0
 31 30  2  0  0  0  0
 32 31  1  0  0  0  0
 32 27  2  0  0  0  0
 35 31  1  0  0  0  0
 36 35  2  0  0  0  0
 36 37  1  0  0  0  0
 38 36  1  0  0  0  0
 39 40  1  0  0  0  0
 39 38  2  0  0  0  0
 40 35  1  0  0  0  0
M  END
>  <minimizedAffinity>
-6.7125411

>  <minimizedRMSD>
1.11725283

$$$$
