
 OpenBabel03272509543D

 40 43  0  0  0  0  0  0  0  0999 V2000
   34.9630   28.3770   49.3580 O   0  0  0  0  0  0  0  0  0  0  0  0
   37.2900   30.1500   51.4660 C   0  0  0  0  0  0  0  0  0  0  0  0
   38.0430   30.8380   50.4840 C   0  0  0  0  0  0  0  0  0  0  0  0
   37.6950   30.6430   49.1570 C   0  0  0  0  0  0  0  0  0  0  0  0
   36.6470   29.7950   48.9150 N   0  0  0  0  0  0  0  0  0  0  0  0
   35.9480   29.1550   49.8600 C   0  0  0  0  0  0  0  0  0  0  0  0
   36.2860   29.3440   51.1490 N   0  0  0  0  0  0  0  0  0  0  0  0
   37.5920   30.3290   52.4920 H   0  0  0  0  0  0  0  0  0  0  0  0
   38.8640   31.5020   50.6710 H   0  0  0  0  0  0  0  0  0  0  0  0
   38.9260   33.2540   48.9930 F   0  0  0  0  0  0  0  0  0  0  0  0
   38.9170   32.4720   47.9300 C   0  0  0  0  0  0  0  0  0  0  0  0
   38.3380   31.2510   48.0200 C   0  0  0  0  0  0  0  0  0  0  0  0
   38.3880   30.5160   46.8460 C   0  0  0  0  0  0  0  0  0  0  0  0
   38.9730   30.9810   45.6880 C   0  0  0  0  0  0  0  0  0  0  0  0
   39.5510   32.2290   45.6400 C   0  0  0  0  0  0  0  0  0  0  0  0
   39.5170   32.9810   46.7890 C   0  0  0  0  0  0  0  0  0  0  0  0
   37.9720   29.5220   46.7490 H   0  0  0  0  0  0  0  0  0  0  0  0
   39.0120   30.4080   44.7710 H   0  0  0  0  0  0  0  0  0  0  0  0
   40.0120   32.6120   44.7470 H   0  0  0  0  0  0  0  0  0  0  0  0
   39.9620   33.9570   46.7720 H   0  0  0  0  0  0  0  0  0  0  0  0
   34.3910   28.7050   48.1010 C   0  0  0  0  0  0  0  0  0  0  0  0
   35.2220   28.8990   47.3850 H   0  0  0  0  0  0  0  0  0  0  0  0
   33.7880   29.6290   48.1940 H   0  0  0  0  0  0  0  0  0  0  0  0
   33.5330   27.5890   47.6060 C   0  0  0  0  0  0  0  0  0  0  0  0
   33.6800   27.3760   46.5180 H   0  0  0  0  0  0  0  0  0  0  0  0
   33.7810   26.6600   48.1350 H   0  0  0  0  0  0  0  0  0  0  0  0
   32.0840   27.8620   47.7690 C   0  0  0  0  0  0  0  0  0  0  0  0
   31.4210   27.3410   48.8810 C   0  0  0  0  0  0  0  0  0  0  0  0
   30.0960   27.5360   49.1180 C   0  0  0  0  0  0  0  0  0  0  0  0
   29.4060   28.2630   48.2390 N   0  0  0  0  0  0  0  0  0  0  0  0
   30.0390   28.7760   47.1510 C   0  0  0  0  0  0  0  0  0  0  0  0
   31.3460   28.6000   46.8910 N   0  0  0  0  0  0  0  0  0  0  0  0
   32.0110   26.7540   49.5770 H   0  0  0  0  0  0  0  0  0  0  0  0
   29.6730   27.0920   50.0060 H   0  0  0  0  0  0  0  0  0  0  0  0
   29.2140   29.5440   46.2600 C   0  0  0  0  0  0  0  0  0  0  0  0
   29.5410   30.3090   45.1330 C   0  0  0  0  0  0  0  0  0  0  0  0
   30.5900   30.3300   44.8850 H   0  0  0  0  0  0  0  0  0  0  0  0
   28.5620   30.9590   44.4370 C   0  0  0  0  0  3  0  0  0  0  0  0
   27.2300   30.8300   44.8920 C   0  0  0  0  0  3  0  0  0  0  0  0
   27.3270   29.7550   46.3610 S   0  0  0  0  0  0  0  0  0  0  0  0
  1  6  1  0  0  0  0
  2  8  1  0  0  0  0
  3  9  1  0  0  0  0
  3  2  2  0  0  0  0
  4  3  1  0  0  0  0
  5  4  2  0  0  0  0
  5  6  1  0  0  0  0
  6  7  2  0  0  0  0
  7  2  1  0  0  0  0
 11 12  1  0  0  0  0
 11 10  1  0  0  0  0
 12  4  1  0  0  0  0
 13 12  2  0  0  0  0
 14 13  1  0  0  0  0
 15 14  2  0  0  0  0
 15 16  1  0  0  0  0
 16 11  2  0  0  0  0
 17 13  1  0  0  0  0
 18 14  1  0  0  0  0
 19 15  1  0  0  0  0
 20 16  1  0  0  0  0
 21 23  1  0  0  0  0
 21  1  1  0  0  0  0
 22 21  1  0  0  0  0
 24 27  1  0  0  0  0
 24 21  1  0  0  0  0
 24 26  1  0  0  0  0
 25 24  1  0  0  0  0
 27 28  1  0  0  0  0
 28 29  2  0  0  0  0
 28 33  1  0  0  0  0
 29 34  1  0  0  0  0
 30 29  1  0  0  0  0
 31 30  2  0  0  0  0
 32 31  1  0  0  0  0
 32 27  2  0  0  0  0
 35 40  1  0  0  0  0
 35 31  1  0  0  0  0
 36 35  2  0  0  0  0
 37 36  1  0  0  0  0
 38 39  2  0  0  0  0
 38 36  1  0  0  0  0
 39 40  1  0  0  0  0
M  END
>  <minimizedAffinity>
-6.57827663

>  <minimizedRMSD>
0.375213474

$$$$
