
 OpenBabel03272509423D

 35 37  0  0  1  0  0  0  0  0999 V2000
   37.0640   30.9360   49.0260 C   0  0  0  0  0  0  0  0  0  0  0  0
   36.7910   31.8480   50.0470 C   0  0  0  0  0  0  0  0  0  0  0  0
   37.3890   33.0980   50.0930 C   0  0  0  0  0  0  0  0  0  0  0  0
   38.2940   33.4650   49.0900 C   0  0  0  0  0  0  0  0  0  0  0  0
   38.5520   32.5620   48.0970 C   0  0  0  0  0  0  0  0  0  0  0  0
   37.9350   31.3220   48.0880 C   0  0  0  0  0  0  0  0  0  0  0  0
   36.0900   31.5730   50.8280 H   0  0  0  0  0  0  0  0  0  0  0  0
   37.1260   33.7370   50.9090 H   0  0  0  0  0  0  0  0  0  0  0  0
   38.6970   34.4400   49.2130 H   0  0  0  0  0  0  0  0  0  0  0  0
   39.2710   32.9890   47.3990 H   0  0  0  0  0  0  0  0  0  0  0  0
   36.4660   29.6190   48.9970 C   0  0  2  0  0  0  0  0  0  0  0  0
   36.9670   29.0810   48.1030 H   0  0  0  0  0  0  0  0  0  0  0  0
   33.6150   30.0130   46.7770 C   0  0  0  0  0  0  0  0  0  0  0  0
   32.8640   28.8740   46.9910 C   0  0  0  0  0  0  0  0  0  0  0  0
   33.2960   27.9820   47.9530 C   0  0  0  0  0  0  0  0  0  0  0  0
   34.4500   28.2510   48.6580 N   0  0  0  0  0  0  0  0  0  0  0  0
   35.1250   29.3540   48.4040 C   0  0  0  0  0  0  0  0  0  0  0  0
   34.7150   30.2410   47.4680 N   0  0  0  0  0  0  0  0  0  0  0  0
   33.3050   30.7410   46.0250 H   0  0  0  0  0  0  0  0  0  0  0  0
   31.9800   28.7640   46.3820 H   0  0  0  0  0  0  0  0  0  0  0  0
   32.7070   27.0920   48.1220 H   0  0  0  0  0  0  0  0  0  0  0  0
   36.9270   28.8500   49.9190 O   0  0  0  0  0  0  0  0  0  0  0  0
   36.4890   28.7030   50.7740 H   0  0  0  0  0  0  0  0  0  0  0  0
   38.3290   30.4560   47.0000 C   0  0  0  0  0  3  0  0  0  0  0  0
   38.9070   30.8840   45.8750 C   0  0  0  0  0  3  0  0  0  0  0  0
   39.3930   30.0870   44.7240 C   0  0  0  0  0  0  0  0  0  0  0  0
   38.8470   29.1150   44.6660 H   0  0  0  0  0  0  0  0  0  0  0  0
   40.4900   29.8930   44.8520 H   0  0  0  0  0  0  0  0  0  0  0  0
   39.1950   31.0300   43.2100 S   0  0  0  0  0  0  0  0  0  0  0  0
   37.5070   31.5630   43.0340 C   0  0  0  0  0  0  0  0  0  0  0  0
   37.3190   32.7600   42.2910 C   0  0  0  0  0  0  0  0  0  0  0  0
   37.9890   33.4410   41.7920 H   0  0  0  0  0  0  0  0  0  0  0  0
   36.1110   33.3260   42.0460 C   0  0  0  0  0  3  0  0  0  0  0  0
   34.9770   32.6250   42.6010 C   0  0  0  0  0  3  0  0  0  0  0  0
   35.7340   31.1230   43.4840 S   0  0  0  0  0  0  0  0  0  0  0  0
  1  2  1  0  0  0  0
  2  3  2  0  0  0  0
  2  7  1  0  0  0  0
  3  8  1  0  0  0  0
  4  9  1  0  0  0  0
  4  3  1  0  0  0  0
  5  4  2  0  0  0  0
  6  5  1  0  0  0  0
  6  1  2  0  0  0  0
 10  5  1  0  0  0  0
 11 12  1  6  0  0  0
 11  1  1  0  0  0  0
 11 22  1  0  0  0  0
 13 14  2  0  0  0  0
 13 18  1  0  0  0  0
 14 15  1  0  0  0  0
 15 21  1  0  0  0  0
 15 16  2  0  0  0  0
 17 16  1  0  0  0  0
 17 11  1  0  0  0  0
 18 17  2  0  0  0  0
 19 13  1  0  0  0  0
 20 14  1  0  0  0  0
 22 23  1  0  0  0  0
 24  6  1  0  0  0  0
 25 24  2  0  0  0  0
 26 28  1  0  0  0  0
 26 25  1  0  0  0  0
 27 26  1  0  0  0  0
 29 26  1  0  0  0  0
 30 29  1  0  0  0  0
 30 35  1  0  0  0  0
 31 30  2  0  0  0  0
 32 31  1  0  0  0  0
 33 31  1  0  0  0  0
 33 34  2  0  0  0  0
 34 35  1  0  0  0  0
M  END
>  <minimizedAffinity>
-5.50312519

>  <minimizedRMSD>
0.287060142

$$$$
