
 OpenBabel03272510333D

 25 27  0  0  0  0  0  0  0  0999 V2000
   35.9370   30.0750   47.7490 C   0  0  0  0  0  0  0  0  0  0  0  0
   35.2320   30.0590   46.5640 C   0  0  0  0  0  0  0  0  0  0  0  0
   34.1810   29.1840   46.3750 C   0  0  0  0  0  0  0  0  0  0  0  0
   33.8480   28.3240   47.3940 C   0  0  0  0  0  0  0  0  0  0  0  0
   34.5360   28.3190   48.5890 C   0  0  0  0  0  0  0  0  0  0  0  0
   35.5860   29.2000   48.7670 C   0  0  0  0  0  0  0  0  0  0  0  0
   35.4950   30.7450   45.7460 H   0  0  0  0  0  0  0  0  0  0  0  0
   33.6270   29.1700   45.4430 H   0  0  0  0  0  0  0  0  0  0  0  0
   33.0340   27.6070   47.3250 H   0  0  0  0  0  0  0  0  0  0  0  0
   34.3410   27.6740   49.4450 H   0  0  0  0  0  0  0  0  0  0  0  0
   37.9130   32.8280   49.0540 C   0  0  0  0  0  0  0  0  0  0  0  0
   39.0150   32.9080   48.2030 C   0  0  0  0  0  0  0  0  0  0  0  0
   39.0650   31.9750   47.1510 C   0  0  0  0  0  0  0  0  0  0  0  0
   38.0640   31.0680   47.0190 N   0  0  0  0  0  0  0  0  0  0  0  0
   37.0230   31.0280   47.8610 C   0  0  0  0  0  0  0  0  0  0  0  0
   36.9530   31.9190   48.8860 N   0  0  0  0  0  0  0  0  0  0  0  0
   37.8710   33.5550   49.8770 H   0  0  0  0  0  0  0  0  0  0  0  0
   39.7750   33.6690   48.3830 H   0  0  0  0  0  0  0  0  0  0  0  0
   39.9190   32.0400   46.4970 H   0  0  0  0  0  0  0  0  0  0  0  0
   36.3600   29.2400   50.0210 C   0  0  0  0  0  0  0  0  0  0  0  0
   35.8040   29.6690   51.2670 C   0  0  0  0  0  0  0  0  0  0  0  0
   34.7770   29.9870   51.3340 H   0  0  0  0  0  0  0  0  0  0  0  0
   36.6260   29.6610   52.3610 C   0  0  0  0  0  3  0  0  0  0  0  0
   37.9710   29.2310   52.2040 C   0  0  0  0  0  3  0  0  0  0  0  0
   38.1200   28.8110   50.4460 S   0  0  0  0  0  0  0  0  0  0  0  0
  1 15  1  0  0  0  0
  1  6  1  0  0  0  0
  2  1  2  0  0  0  0
  3  2  1  0  0  0  0
  3  4  2  0  0  0  0
  4  5  1  0  0  0  0
  5  6  2  0  0  0  0
  5 10  1  0  0  0  0
  6 20  1  0  0  0  0
  7  2  1  0  0  0  0
  8  3  1  0  0  0  0
  9  4  1  0  0  0  0
 11 17  1  0  0  0  0
 12 18  1  0  0  0  0
 12 11  2  0  0  0  0
 13 12  1  0  0  0  0
 14 13  2  0  0  0  0
 14 15  1  0  0  0  0
 15 16  2  0  0  0  0
 16 11  1  0  0  0  0
 19 13  1  0  0  0  0
 20 25  1  0  0  0  0
 20 21  2  0  0  0  0
 21 22  1  0  0  0  0
 21 23  1  0  0  0  0
 24 23  2  0  0  0  0
 25 24  1  0  0  0  0
M  END
>  <minimizedAffinity>
-3.59733105

>  <minimizedRMSD>
0.938035607

$$$$
