
 OpenBabel03272507583D

 29 31  0  0  0  0  0  0  0  0999 V2000
   37.0420   31.3460   48.5640 C   0  0  0  0  0  0  0  0  0  0  0  0
   37.2140   32.3010   49.5610 C   0  0  0  0  0  0  0  0  0  0  0  0
   38.1620   33.2930   49.3950 C   0  0  0  0  0  0  0  0  0  0  0  0
   38.9360   33.3530   48.2700 C   0  0  0  0  0  0  0  0  0  0  0  0
   38.7430   32.3970   47.3060 C   0  0  0  0  0  0  0  0  0  0  0  0
   37.8170   31.4180   47.4540 N   0  0  0  0  0  0  0  0  0  0  0  0
   36.6880   32.3950   50.5030 H   0  0  0  0  0  0  0  0  0  0  0  0
   38.3630   34.0720   50.1120 H   0  0  0  0  0  0  0  0  0  0  0  0
   39.7070   34.0400   47.9770 H   0  0  0  0  0  0  0  0  0  0  0  0
   35.1570   28.5770   50.2390 C   0  0  0  0  0  0  0  0  0  0  0  0
   36.1870   29.5220   49.9530 C   0  0  0  0  0  0  0  0  0  0  0  0
   36.0150   30.3750   48.8800 C   0  0  0  0  0  0  0  0  0  0  0  0
   34.8720   30.2710   48.1470 N   0  0  0  0  0  0  0  0  0  0  0  0
   33.9120   29.3530   48.4540 C   0  0  0  0  0  0  0  0  0  0  0  0
   34.0450   28.5190   49.4800 N   0  0  0  0  0  0  0  0  0  0  0  0
   32.8110   29.4420   47.5360 N   0  0  0  0  0  0  0  0  0  0  0  0
   35.2470   27.8910   51.0680 H   0  0  0  0  0  0  0  0  0  0  0  0
   32.9700   29.0080   46.5870 H   0  0  0  0  0  0  0  0  0  0  0  0
   32.0830   29.9480   48.0720 H   0  0  0  0  0  0  0  0  0  0  0  0
   37.3950   29.5390   50.8300 C   0  0  0  0  0  0  0  0  0  0  0  0
   38.5390   29.8230   50.0910 F   0  0  0  0  0  0  0  0  0  0  0  0
   37.2240   30.5100   51.7750 F   0  0  0  0  0  0  0  0  0  0  0  0
   37.6100   28.3400   51.4750 F   0  0  0  0  0  0  0  0  0  0  0  0
   39.4120   32.1870   45.9890 C   0  0  0  0  0  0  0  0  0  0  0  0
   38.8780   32.7680   44.9260 C   0  0  0  0  0  0  0  0  0  0  0  0
   37.9950   33.4140   44.7820 H   0  0  0  0  0  0  0  0  0  0  0  0
   39.3110   32.7160   43.6480 C   0  0  0  0  0  3  0  0  0  0  0  0
   40.5160   31.8840   43.5950 C   0  0  0  0  0  3  0  0  0  0  0  0
   40.7850   31.3380   45.4220 S   0  0  0  0  0  0  0  0  0  0  0  0
  1 12  1  0  0  0  0
  1  2  1  0  0  0  0
  2  7  1  0  0  0  0
  3  2  2  0  0  0  0
  3  8  1  0  0  0  0
  4  3  1  0  0  0  0
  5  6  1  0  0  0  0
  5  4  2  0  0  0  0
  6  1  2  0  0  0  0
  9  4  1  0  0  0  0
 10 17  1  0  0  0  0
 11 10  1  0  0  0  0
 11 20  1  0  0  0  0
 12 11  2  0  0  0  0
 13 14  2  0  0  0  0
 13 12  1  0  0  0  0
 14 15  1  0  0  0  0
 15 10  2  0  0  0  0
 16 19  1  0  0  0  0
 16 14  1  0  0  0  0
 18 16  1  0  0  0  0
 20 23  1  0  0  0  0
 20 22  1  0  0  0  0
 21 20  1  0  0  0  0
 24  5  1  0  0  0  0
 25 24  2  0  0  0  0
 26 25  1  0  0  0  0
 27 25  1  0  0  0  0
 28 27  2  0  0  0  0
 28 29  1  0  0  0  0
 29 24  1  0  0  0  0
M  END
>  <minimizedAffinity>
-7.04046249

>  <minimizedRMSD>
0.659162045

$$$$
