
 OpenBabel03272508273D

 35 38  0  0  1  0  0  0  0  0999 V2000
   33.8740   28.9120   47.2920 C   0  0  2  0  0  0  0  0  0  0  0  0
   34.6050   28.1720   48.4000 C   0  0  2  0  0  0  0  0  0  0  0  0
   33.6730   27.9930   49.3880 O   0  0  0  0  0  0  0  0  0  0  0  0
   32.4180   28.0400   48.8740 C   0  0  0  0  0  0  0  0  0  0  0  0
   32.5250   28.2110   47.3880 C   0  0  1  0  0  0  0  0  0  0  0  0
   33.7250   29.9750   47.4930 H   0  0  0  0  0  0  0  0  0  0  0  0
   34.9350   27.1960   47.9960 H   0  0  0  0  0  0  0  0  0  0  0  0
   31.9250   28.9650   49.2910 H   0  0  0  0  0  0  0  0  0  0  0  0
   31.7620   27.1930   49.1590 H   0  0  0  0  0  0  0  0  0  0  0  0
   32.5760   27.2230   46.8520 H   0  0  0  0  0  0  0  0  0  0  0  0
   35.6620   30.4470   49.0130 C   0  0  1  0  0  0  0  0  0  0  0  0
   35.7480   29.0080   48.8680 C   0  0  1  0  0  0  0  0  0  0  0  0
   35.8170   29.5600   50.2550 C   0  0  0  0  0  0  0  0  0  0  0  0
   34.7320   31.0520   49.1150 H   0  0  0  0  0  0  0  0  0  0  0  0
   36.7440   28.6370   48.4780 H   0  0  0  0  0  0  0  0  0  0  0  0
   36.7610   29.5880   50.7990 H   0  0  0  0  0  0  0  0  0  0  0  0
   34.9280   29.3650   50.8890 H   0  0  0  0  0  0  0  0  0  0  0  0
   36.8550   31.3360   48.7870 C   0  0  0  0  0  0  0  0  0  0  0  0
   37.0800   32.3770   49.6890 C   0  0  0  0  0  0  0  0  0  0  0  0
   38.1660   33.1800   49.4340 C   0  0  0  0  0  0  0  0  0  0  0  0
   38.9680   32.9510   48.3440 N   0  0  0  0  0  0  0  0  0  0  0  0
   38.7160   31.9260   47.4880 C   0  0  0  0  0  0  0  0  0  0  0  0
   37.6540   31.1100   47.7040 N   0  0  0  0  0  0  0  0  0  0  0  0
   36.4560   32.5680   50.5450 H   0  0  0  0  0  0  0  0  0  0  0  0
   38.4230   34.0220   50.0910 H   0  0  0  0  0  0  0  0  0  0  0  0
   39.3350   31.7140   46.6120 H   0  0  0  0  0  0  0  0  0  0  0  0
   34.4430   28.7260   46.0450 O   0  0  0  0  0  0  0  0  0  0  0  0
   35.0190   27.8940   46.0670 H   0  0  0  0  0  0  0  0  0  0  0  0
   31.5110   28.9770   46.8450 O   0  0  0  0  0  0  0  0  0  0  0  0
   30.0970   28.4430   47.4860 C   0  0  0  0  0  0  0  0  0  0  0  0
   29.9320   27.5210   46.2720 C   0  0  0  0  0  0  0  0  0  0  0  0
   30.3730   27.1830   45.3050 H   0  0  0  0  0  0  0  0  0  0  0  0
   28.8420   26.7220   46.1900 C   0  0  0  0  0  3  0  0  0  0  0  0
   27.8710   26.7740   47.2610 C   0  0  0  0  0  3  0  0  0  0  0  0
   28.6500   28.0770   48.4170 S   0  0  0  0  0  0  0  0  0  0  0  0
  1  5  1  0  0  0  0
  1  6  1  1  0  0  0
  1  2  1  0  0  0  0
  2  7  1  6  0  0  0
  2 12  1  0  0  0  0
  2  3  1  0  0  0  0
  4  9  1  0  0  0  0
  4  8  1  0  0  0  0
  4  3  1  0  0  0  0
  5 10  1  6  0  0  0
  5  4  1  0  0  0  0
 11 14  1  6  0  0  0
 11 13  1  0  0  0  0
 12 15  1  6  0  0  0
 12 11  1  0  0  0  0
 12 13  1  0  0  0  0
 13 16  1  0  0  0  0
 13 17  1  0  0  0  0
 18 11  1  0  0  0  0
 18 19  1  0  0  0  0
 19 24  1  0  0  0  0
 20 19  2  0  0  0  0
 20 25  1  0  0  0  0
 21 20  1  0  0  0  0
 22 23  1  0  0  0  0
 22 21  2  0  0  0  0
 23 18  2  0  0  0  0
 26 22  1  0  0  0  0
 27 28  1  0  0  0  0
 27  1  1  0  0  0  0
 29  5  1  0  0  0  0
 29 30  1  0  0  0  0
 30 35  1  0  0  0  0
 31 30  2  0  0  0  0
 32 31  1  0  0  0  0
 33 31  1  0  0  0  0
 33 34  2  0  0  0  0
 34 35  1  0  0  0  0
M  END
>  <minimizedAffinity>
-5.1947217

>  <minimizedRMSD>
2.00720334

$$$$
