
 OpenBabel03272510013D

 18 19  0  0  0  0  0  0  0  0999 V2000
   38.2880   31.2750   50.1160 C   0  0  0  0  0  0  0  0  0  0  0  0
   38.3840   31.4780   48.7230 C   0  0  0  0  0  0  0  0  0  0  0  0
   37.3670   30.9510   47.9440 C   0  0  0  0  0  0  0  0  0  0  0  0
   36.3460   30.2820   48.5300 N   0  0  0  0  0  0  0  0  0  0  0  0
   36.2900   30.1100   49.8700 C   0  0  0  0  0  0  0  0  0  0  0  0
   37.2640   30.6100   50.6400 N   0  0  0  0  0  0  0  0  0  0  0  0
   39.0740   31.6790   50.7510 H   0  0  0  0  0  0  0  0  0  0  0  0
   39.2180   32.0140   48.3460 H   0  0  0  0  0  0  0  0  0  0  0  0
   37.4030   31.1230   46.5100 C   0  0  0  0  0  0  0  0  0  0  0  0
   36.7290   30.5980   45.4660 C   0  0  0  0  0  0  0  0  0  0  0  0
   35.9730   29.8680   45.7640 H   0  0  0  0  0  0  0  0  0  0  0  0
   36.9990   30.9700   44.1990 C   0  0  0  0  0  3  0  0  0  0  0  0
   37.9980   31.9140   44.0340 C   0  0  0  0  0  3  0  0  0  0  0  0
   38.5470   32.2550   45.7840 S   0  0  0  0  0  0  0  0  0  0  0  0
   35.1430   29.3660   50.4370 C   0  0  0  0  0  0  0  0  0  0  0  0
   35.2760   29.1240   51.7940 F   0  0  0  0  0  0  0  0  0  0  0  0
   33.9590   30.0660   50.2790 F   0  0  0  0  0  0  0  0  0  0  0  0
   34.9340   28.1510   49.8160 F   0  0  0  0  0  0  0  0  0  0  0  0
  1  6  1  0  0  0  0
  1  7  1  0  0  0  0
  2  1  2  0  0  0  0
  3  4  2  0  0  0  0
  3  2  1  0  0  0  0
  4  5  1  0  0  0  0
  5 15  1  0  0  0  0
  5  6  2  0  0  0  0
  8  2  1  0  0  0  0
  9  3  1  0  0  0  0
 10 11  1  0  0  0  0
 10  9  2  0  0  0  0
 12 10  1  0  0  0  0
 13 12  2  0  0  0  0
 13 14  1  0  0  0  0
 14  9  1  0  0  0  0
 15 16  1  0  0  0  0
 17 15  1  0  0  0  0
 18 15  1  0  0  0  0
M  END
>  <minimizedAffinity>
-5.12073851

>  <minimizedRMSD>
0.560319543

$$$$
