
 OpenBabel03272510083D

 41 45  0  0  0  0  0  0  0  0999 V2000
   35.1240   28.1450   47.4450 C   0  0  0  0  0  0  0  0  0  0  0  0
   35.2270   29.5270   47.7210 C   0  0  0  0  0  0  0  0  0  0  0  0
   34.0590   30.2550   48.0240 C   0  0  0  0  0  0  0  0  0  0  0  0
   32.8620   29.6040   48.0360 N   0  0  0  0  0  0  0  0  0  0  0  0
   32.8140   28.2810   47.7620 C   0  0  0  0  0  0  0  0  0  0  0  0
   33.9050   27.5650   47.4750 N   0  0  0  0  0  0  0  0  0  0  0  0
   31.5110   27.6540   47.7690 N   0  0  0  0  0  0  0  0  0  0  0  0
   30.6540   27.5790   48.9160 C   0  0  0  0  0  0  0  0  0  0  0  0
   29.3570   27.0630   48.3870 C   0  0  0  0  0  0  0  0  0  0  0  0
   29.4420   27.1330   46.8690 C   0  0  0  0  0  0  0  0  0  0  0  0
   30.8890   27.0120   46.6010 C   0  0  0  0  0  0  0  0  0  0  0  0
   36.0610   27.6550   47.2260 H   0  0  0  0  0  0  0  0  0  0  0  0
   34.0510   31.2990   48.2460 H   0  0  0  0  0  0  0  0  0  0  0  0
   30.5650   28.6150   49.3260 H   0  0  0  0  0  0  0  0  0  0  0  0
   31.1310   26.8810   49.6510 H   0  0  0  0  0  0  0  0  0  0  0  0
   28.4550   27.5570   48.7810 H   0  0  0  0  0  0  0  0  0  0  0  0
   29.3020   25.9800   48.6530 H   0  0  0  0  0  0  0  0  0  0  0  0
   29.0280   28.0970   46.5580 H   0  0  0  0  0  0  0  0  0  0  0  0
   28.8220   26.3100   46.4190 H   0  0  0  0  0  0  0  0  0  0  0  0
   31.1630   27.6310   45.7310 H   0  0  0  0  0  0  0  0  0  0  0  0
   31.2450   25.9670   46.4990 H   0  0  0  0  0  0  0  0  0  0  0  0
   36.4160   30.3210   47.7230 C   0  0  0  0  0  0  0  0  0  0  0  0
   37.0010   30.5130   48.9420 N   0  0  0  0  0  0  0  0  0  0  0  0
   38.1100   31.2560   49.0360 C   0  0  0  0  0  0  0  0  0  0  0  0
   38.7280   31.8640   47.9820 N   0  0  0  0  0  0  0  0  0  0  0  0
   38.1720   31.6950   46.7550 C   0  0  0  0  0  0  0  0  0  0  0  0
   38.6960   32.2850   45.6160 C   0  0  0  0  0  0  0  0  0  0  0  0
   38.1030   32.1260   44.3810 C   0  0  0  0  0  0  0  0  0  0  0  0
   36.9470   31.3480   44.2930 C   0  0  0  0  0  0  0  0  0  0  0  0
   36.4510   30.7700   45.4560 C   0  0  0  0  0  0  0  0  0  0  0  0
   37.0350   30.9290   46.6680 C   0  0  0  0  0  0  0  0  0  0  0  0
   38.5730   31.4060   50.0090 H   0  0  0  0  0  0  0  0  0  0  0  0
   39.5740   32.8470   45.8020 H   0  0  0  0  0  0  0  0  0  0  0  0
   38.6050   32.6340   43.5790 H   0  0  0  0  0  0  0  0  0  0  0  0
   36.6350   31.3440   43.2580 H   0  0  0  0  0  0  0  0  0  0  0  0
   35.2610   30.0820   44.9310 C   0  0  0  0  0  0  0  0  0  0  0  0
   35.4380   28.7220   44.3260 C   0  0  0  0  0  0  0  0  0  0  0  0
   36.4230   28.2650   44.2950 H   0  0  0  0  0  0  0  0  0  0  0  0
   34.3510   28.1090   43.8360 C   0  0  0  0  0  3  0  0  0  0  0  0
   33.1480   28.7020   43.8910 C   0  0  0  0  0  3  0  0  0  0  0  0
   33.4300   30.3600   44.7230 S   0  0  0  0  0  0  0  0  0  0  0  0
  1  6  2  0  0  0  0
  1  2  1  0  0  0  0
  2 22  1  0  0  0  0
  2  3  2  0  0  0  0
  3  4  1  0  0  0  0
  3 13  1  0  0  0  0
  5  7  1  0  0  0  0
  5  4  2  0  0  0  0
  6  5  1  0  0  0  0
  7  8  1  0  0  0  0
  8 14  1  0  0  0  0
  8 15  1  0  0  0  0
  9 17  1  0  0  0  0
  9 16  1  0  0  0  0
  9  8  1  0  0  0  0
 10  9  1  0  0  0  0
 11 10  1  0  0  0  0
 11  7  1  0  0  0  0
 12  1  1  0  0  0  0
 18 10  1  0  0  0  0
 19 10  1  0  0  0  0
 20 11  1  0  0  0  0
 21 11  1  0  0  0  0
 22 23  1  0  0  0  0
 23 24  2  0  0  0  0
 24 32  1  0  0  0  0
 25 24  1  0  0  0  0
 26 25  2  0  0  0  0
 27 33  1  0  0  0  0
 27 26  1  0  0  0  0
 28 27  2  0  0  0  0
 29 28  1  0  0  0  0
 29 30  2  0  0  0  0
 30 31  1  0  0  0  0
 31 26  1  0  0  0  0
 31 22  2  0  0  0  0
 34 28  1  0  0  0  0
 35 29  1  0  0  0  0
 36 30  1  0  0  0  0
 37 36  2  0  0  0  0
 38 37  1  0  0  0  0
 39 40  2  0  0  0  0
 39 37  1  0  0  0  0
 40 41  1  0  0  0  0
 41 36  1  0  0  0  0
M  END
>  <minimizedAffinity>
-3.77546453

>  <minimizedRMSD>
1.99793851

$$$$
