
 OpenBabel03272504213D

 36 38  0  0  1  0  0  0  0  0999 V2000
   36.8340   31.5870   48.6810 O   0  0  0  0  0  0  0  0  0  0  0  0
   38.8530   32.4040   47.8460 C   0  0  2  0  0  0  0  0  0  0  0  0
   38.1960   31.3880   48.7530 C   0  0  1  0  0  0  0  0  0  0  0  0
   38.7220   31.9180   50.0890 C   0  0  0  0  0  0  0  0  0  0  0  0
   38.3890   33.2660   49.9840 O   0  0  0  0  0  0  0  0  0  0  0  0
   38.6560   33.6590   48.6950 C   0  0  0  0  0  0  0  0  0  0  0  0
   39.9110   32.1630   47.7160 H   0  0  0  0  0  0  0  0  0  0  0  0
   38.5220   30.3510   48.5740 H   0  0  0  0  0  0  0  0  0  0  0  0
   39.7980   31.7370   50.1620 H   0  0  0  0  0  0  0  0  0  0  0  0
   38.1190   31.4380   50.8680 H   0  0  0  0  0  0  0  0  0  0  0  0
   39.5880   34.2690   48.6190 H   0  0  0  0  0  0  0  0  0  0  0  0
   37.8480   34.3040   48.2700 H   0  0  0  0  0  0  0  0  0  0  0  0
   38.1290   32.4480   46.6580 O   0  0  0  0  0  0  0  0  0  0  0  0
   38.8580   32.1230   45.4890 C   0  0  0  0  0  0  0  0  0  0  0  0
   40.0510   31.3960   45.4370 C   0  0  0  0  0  0  0  0  0  0  0  0
   40.4820   31.0340   46.3550 H   0  0  0  0  0  0  0  0  0  0  0  0
   40.6350   31.1640   44.2280 C   0  0  0  0  0  3  0  0  0  0  0  0
   39.9970   31.6820   43.0410 C   0  0  0  0  0  3  0  0  0  0  0  0
   38.5570   32.5020   43.6510 S   0  0  0  0  0  0  0  0  0  0  0  0
   35.9190   29.8530   46.9750 O   0  0  0  0  0  0  0  0  0  0  0  0
   35.9700   30.1680   48.4510 P   0  0  1  0  0  0  0  0  0  0  0  0
   36.7530   28.8720   49.2390 O   0  0  0  0  0  0  0  0  0  0  0  0
   37.4450   29.1770   49.8750 H   0  0  0  0  0  0  0  0  0  0  0  0
   34.3950   30.3350   49.0710 O   0  0  0  0  0  0  0  0  0  0  0  0
   34.1260   29.1920   49.7970 C   0  0  0  0  0  0  0  0  0  0  0  0
   33.6130   29.4590   50.7650 H   0  0  0  0  0  0  0  0  0  0  0  0
   35.0370   28.6510   50.1190 H   0  0  0  0  0  0  0  0  0  0  0  0
   33.2660   28.2240   49.0840 C   0  0  0  0  0  0  0  0  0  0  0  0
   33.8980   27.3350   48.2470 C   0  0  0  0  0  0  0  0  0  0  0  0
   33.1410   26.3950   47.5450 C   0  0  0  0  0  0  0  0  0  0  0  0
   31.7920   26.4180   47.7350 N   0  0  0  0  0  0  0  0  0  0  0  0
   31.1960   27.2990   48.5610 C   0  0  0  0  0  0  0  0  0  0  0  0
   31.9300   28.2090   49.2420 N   0  0  0  0  0  0  0  0  0  0  0  0
   34.9480   27.2390   48.0310 H   0  0  0  0  0  0  0  0  0  0  0  0
   33.5370   25.6640   46.8730 H   0  0  0  0  0  0  0  0  0  0  0  0
   30.1230   27.2300   48.6400 H   0  0  0  0  0  0  0  0  0  0  0  0
  1  3  1  0  0  0  0
  2  7  1  6  0  0  0
  2  6  1  0  0  0  0
  2  3  1  0  0  0  0
  3  8  1  6  0  0  0
  3  4  1  0  0  0  0
  4  9  1  0  0  0  0
  4 10  1  0  0  0  0
  5  4  1  0  0  0  0
  6  5  1  0  0  0  0
 11  6  1  0  0  0  0
 12  6  1  0  0  0  0
 13  2  1  0  0  0  0
 14 13  1  0  0  0  0
 15 14  2  0  0  0  0
 15 16  1  0  0  0  0
 17 15  1  0  0  0  0
 18 19  1  0  0  0  0
 18 17  2  0  0  0  0
 19 14  1  0  0  0  0
 21 20  2  6  0  0  0
 21  1  1  0  0  0  0
 21 24  1  0  0  0  0
 21 22  1  0  0  0  0
 22 23  1  0  0  0  0
 24 25  1  0  0  0  0
 25 27  1  0  0  0  0
 25 26  1  0  0  0  0
 28 33  1  0  0  0  0
 28 25  1  0  0  0  0
 29 28  2  0  0  0  0
 30 31  2  0  0  0  0
 30 29  1  0  0  0  0
 31 32  1  0  0  0  0
 32 36  1  0  0  0  0
 32 33  2  0  0  0  0
 34 29  1  0  0  0  0
 35 30  1  0  0  0  0
M  END
>  <minimizedAffinity>
-4.69856167

>  <minimizedRMSD>
0.310857356

$$$$
