
 OpenBabel03262522483D

 22 24  0  0  0  0  0  0  0  0999 V2000
   36.2070   30.2130   48.9090 C   0  0  0  0  0  0  0  0  0  0  0  0
   36.0560   29.3540   49.9220 C   0  0  0  0  0  0  0  0  0  0  0  0
   35.0560   28.4220   49.9280 C   0  0  0  0  0  0  0  0  0  0  0  0
   34.2440   28.4450   48.8350 C   0  0  0  0  0  0  0  0  0  0  0  0
   34.9180   29.7860   47.8280 S   0  0  0  0  0  0  0  0  0  0  0  0
   36.7720   29.4220   50.7630 H   0  0  0  0  0  0  0  0  0  0  0  0
   34.8780   27.7000   50.7110 H   0  0  0  0  0  0  0  0  0  0  0  0
   38.0940   33.2780   49.4380 C   0  0  0  0  0  0  0  0  0  0  0  0
   39.0030   33.2800   48.3470 C   0  0  0  0  0  0  0  0  0  0  0  0
   38.9470   32.2090   47.4340 C   0  0  0  0  0  0  0  0  0  0  0  0
   38.0220   31.2340   47.6550 N   0  0  0  0  0  0  0  0  0  0  0  0
   37.1850   31.2710   48.6980 C   0  0  0  0  0  0  0  0  0  0  0  0
   37.2100   32.2700   49.5800 N   0  0  0  0  0  0  0  0  0  0  0  0
   38.0970   34.0770   50.1660 H   0  0  0  0  0  0  0  0  0  0  0  0
   39.7110   34.0920   48.2360 H   0  0  0  0  0  0  0  0  0  0  0  0
   39.6290   32.1990   46.6030 H   0  0  0  0  0  0  0  0  0  0  0  0
   33.1100   27.6730   48.4400 C   0  0  0  0  0  0  0  0  0  0  0  0
   31.8020   27.7370   48.6910 C   0  0  0  0  0  0  0  0  0  0  0  0
   31.4720   28.5370   49.3340 H   0  0  0  0  0  0  0  0  0  0  0  0
   30.9680   26.8130   48.1380 C   0  0  0  0  0  0  0  0  0  0  0  0
   31.5440   25.8100   47.3070 C   0  0  0  0  0  0  0  0  0  0  0  0
   33.3700   26.2630   47.3570 S   0  0  0  0  0  0  0  0  0  0  0  0
  1  2  2  0  0  0  0
  2  3  1  0  0  0  0
  2  6  1  0  0  0  0
  3  7  1  0  0  0  0
  4  3  2  0  0  0  0
  5  4  1  0  0  0  0
  5  1  1  0  0  0  0
  8 13  1  0  0  0  0
  8 14  1  0  0  0  0
  9  8  2  0  0  0  0
 10 11  2  0  0  0  0
 10  9  1  0  0  0  0
 11 12  1  0  0  0  0
 12  1  1  0  0  0  0
 12 13  2  0  0  0  0
 15  9  1  0  0  0  0
 16 10  1  0  0  0  0
 17 18  2  0  0  0  0
 17  4  1  0  0  0  0
 18 19  1  0  0  0  0
 20 18  1  0  0  0  0
 21 22  1  0  0  0  0
 21 20  2  0  0  0  0
 22 17  1  0  0  0  0
M  END
>  <minimizedAffinity>
-5.10685921

>  <minimizedRMSD>
0.559015095

$$$$
