
 OpenBabel03272509463D

 22 23  0  0  0  0  0  0  0  0999 V2000
   34.1080   28.5060   48.5710 C   0  0  0  0  0  0  0  0  0  0  0  0
   33.1970   29.0800   48.8240 H   0  0  0  0  0  0  0  0  0  0  0  0
   34.7200   29.1490   47.9050 H   0  0  0  0  0  0  0  0  0  0  0  0
   33.7830   27.1780   47.9310 C   0  0  0  0  0  0  0  0  0  0  0  0
   33.3100   26.5720   48.7580 H   0  0  0  0  0  0  0  0  0  0  0  0
   34.6600   26.6290   47.6010 H   0  0  0  0  0  0  0  0  0  0  0  0
   32.8080   27.4160   46.8340 C   0  0  0  0  0  0  0  0  0  0  0  0
   31.5680   27.9630   46.7860 C   0  0  0  0  0  0  0  0  0  0  0  0
   31.1950   28.3070   47.7590 H   0  0  0  0  0  0  0  0  0  0  0  0
   30.8930   28.0550   45.6230 C   0  0  0  0  0  3  0  0  0  0  0  0
   31.5270   27.5670   44.5050 C   0  0  0  0  0  3  0  0  0  0  0  0
   33.1830   26.9490   45.1890 S   0  0  0  0  0  0  0  0  0  0  0  0
   34.7630   28.2840   49.8190 O   0  0  0  0  0  0  0  0  0  0  0  0
   37.3640   30.2500   51.4170 C   0  0  0  0  0  0  0  0  0  0  0  0
   38.0700   30.6860   50.3000 C   0  0  0  0  0  0  0  0  0  0  0  0
   37.6240   30.2870   49.0450 C   0  0  0  0  0  0  0  0  0  0  0  0
   36.5090   29.4850   49.0090 N   0  0  0  0  0  0  0  0  0  0  0  0
   35.8520   29.0850   50.1170 C   0  0  0  0  0  0  0  0  0  0  0  0
   36.2970   29.4790   51.3180 N   0  0  0  0  0  0  0  0  0  0  0  0
   37.7300   30.5760   52.3970 H   0  0  0  0  0  0  0  0  0  0  0  0
   38.9470   31.3160   50.3200 H   0  0  0  0  0  0  0  0  0  0  0  0
   38.1210   30.5840   48.1340 H   0  0  0  0  0  0  0  0  0  0  0  0
  1  2  1  0  0  0  0
  1 13  1  0  0  0  0
  3  1  1  0  0  0  0
  4  1  1  0  0  0  0
  4  5  1  0  0  0  0
  6  4  1  0  0  0  0
  7  4  1  0  0  0  0
  8  7  2  0  0  0  0
  8  9  1  0  0  0  0
 10  8  1  0  0  0  0
 11 12  1  0  0  0  0
 11 10  2  0  0  0  0
 12  7  1  0  0  0  0
 13 18  1  0  0  0  0
 14 20  1  0  0  0  0
 15 21  1  0  0  0  0
 15 14  2  0  0  0  0
 16 15  1  0  0  0  0
 17 16  2  0  0  0  0
 17 18  1  0  0  0  0
 18 19  2  0  0  0  0
 19 14  1  0  0  0  0
 22 16  1  0  0  0  0
M  END
>  <minimizedAffinity>
-3.62388468

>  <minimizedRMSD>
0.642014802

$$$$
