
 OpenBabel03272507153D

 37 41  0  0  0  0  0  0  0  0999 V2000
   37.2230   27.8040   32.4230 C   0  0  0  0  0  0  0  0  0  0  0  0
   36.5220   28.3810   31.4240 C   0  0  0  0  0  0  0  0  0  0  0  0
   35.5760   29.2220   32.0180 C   0  0  0  0  0  0  0  0  0  0  0  0
   35.7770   29.0920   33.4010 C   0  0  0  0  0  0  0  0  0  0  0  0
   36.7520   28.2500   33.5600 O   0  0  0  0  0  0  0  0  0  0  0  0
   36.6370   28.2450   30.3380 H   0  0  0  0  0  0  0  0  0  0  0  0
   34.8800   29.8070   31.4460 H   0  0  0  0  0  0  0  0  0  0  0  0
   33.6250   29.5590   34.5580 C   0  0  0  0  0  0  0  0  0  0  0  0
   34.9720   29.8230   34.3690 C   0  0  0  0  0  0  0  0  0  0  0  0
   35.6270   30.8050   35.1040 C   0  0  0  0  0  0  0  0  0  0  0  0
   34.8850   31.5110   36.0360 C   0  0  0  0  0  0  0  0  0  0  0  0
   35.2530   32.4860   36.8660 N   0  0  0  0  0  0  0  0  0  0  0  0
   34.1790   32.8480   37.5770 N   0  0  0  0  0  0  0  0  0  0  0  0
   33.1310   32.0860   37.1810 C   0  0  0  0  0  0  0  0  0  0  0  0
   33.5480   31.2130   36.1900 C   0  0  0  0  0  0  0  0  0  0  0  0
   32.8840   30.2420   35.4670 C   0  0  0  0  0  0  0  0  0  0  0  0
   33.1940   28.7690   33.9350 H   0  0  0  0  0  0  0  0  0  0  0  0
   36.6790   31.0600   35.0030 H   0  0  0  0  0  0  0  0  0  0  0  0
   36.1900   32.9400   36.9970 H   0  0  0  0  0  0  0  0  0  0  0  0
   32.0980   32.1040   37.5430 H   0  0  0  0  0  0  0  0  0  0  0  0
   31.8350   30.0250   35.6030 H   0  0  0  0  0  0  0  0  0  0  0  0
   38.3000   26.8610   32.1800 C   0  0  0  0  0  0  0  0  0  0  0  0
   39.2980   27.2330   31.5040 O   0  0  0  0  0  0  0  0  0  0  0  0
   38.1660   25.5380   32.7310 C   0  0  0  0  0  0  0  0  0  0  0  0
   37.8780   24.5030   31.8680 C   0  0  0  0  0  0  0  0  0  0  0  0
   37.7400   23.2090   32.3560 C   0  0  0  0  0  0  0  0  0  0  0  0
   37.9020   23.0460   33.6910 N   0  0  0  0  0  0  0  0  0  0  0  0
   38.1810   24.0500   34.5230 C   0  0  0  0  0  0  0  0  0  0  0  0
   38.3100   25.2850   34.0330 N   0  0  0  0  0  0  0  0  0  0  0  0
   37.7530   24.6510   30.8120 H   0  0  0  0  0  0  0  0  0  0  0  0
   37.5190   22.3580   31.7570 H   0  0  0  0  0  0  0  0  0  0  0  0
   38.3570   23.8670   35.9700 C   0  0  0  0  0  0  0  0  0  0  0  0
   37.6610   24.4350   37.0050 C   0  0  0  0  0  0  0  0  0  0  0  0
   36.8630   25.1210   36.7660 H   0  0  0  0  0  0  0  0  0  0  0  0
   38.0250   24.0970   38.2770 C   0  0  0  0  0  3  0  0  0  0  0  0
   39.0520   23.2180   38.4630 C   0  0  0  0  0  3  0  0  0  0  0  0
   39.5600   22.8260   36.6870 S   0  0  0  0  0  0  0  0  0  0  0  0
  1  5  1  0  0  0  0
  2  3  1  0  0  0  0
  2  1  2  0  0  0  0
  3  4  2  0  0  0  0
  4  5  1  0  0  0  0
  4  9  1  0  0  0  0
  6  2  1  0  0  0  0
  7  3  1  0  0  0  0
  8 16  1  0  0  0  0
  9  8  2  0  0  0  0
  9 10  1  0  0  0  0
 10 11  2  0  0  0  0
 11 15  1  0  0  0  0
 11 12  1  0  0  0  0
 12 19  1  0  0  0  0
 12 13  1  0  0  0  0
 14 20  1  0  0  0  0
 14 13  2  0  0  0  0
 15 14  1  0  0  0  0
 16 21  1  0  0  0  0
 16 15  2  0  0  0  0
 17  8  1  0  0  0  0
 18 10  1  0  0  0  0
 22  1  1  0  0  0  0
 22 24  1  0  0  0  0
 23 22  2  0  0  0  0
 24 29  1  0  0  0  0
 25 26  1  0  0  0  0
 25 24  2  0  0  0  0
 26 27  2  0  0  0  0
 27 28  1  0  0  0  0
 28 32  1  0  0  0  0
 29 28  2  0  0  0  0
 30 25  1  0  0  0  0
 31 26  1  0  0  0  0
 32 37  1  0  0  0  0
 32 33  2  0  0  0  0
 33 35  1  0  0  0  0
 34 33  1  0  0  0  0
 35 36  2  0  0  0  0
 37 36  1  0  0  0  0
M  END
>  <minimizedAffinity>
-6.54296684

$$$$

 OpenBabel03272507153D

 37 41  0  0  0  0  0  0  0  0999 V2000
   37.1330   27.8140   32.5140 C   0  0  0  0  0  0  0  0  0  0  0  0
   36.2820   28.3010   31.5890 C   0  0  0  0  0  0  0  0  0  0  0  0
   35.4380   29.2060   32.2420 C   0  0  0  0  0  0  0  0  0  0  0  0
   35.8560   29.2060   33.5820 C   0  0  0  0  0  0  0  0  0  0  0  0
   36.8470   28.3710   33.6640 O   0  0  0  0  0  0  0  0  0  0  0  0
   36.2240   28.0620   30.5160 H   0  0  0  0  0  0  0  0  0  0  0  0
   34.6580   29.7420   31.7340 H   0  0  0  0  0  0  0  0  0  0  0  0
   35.9230   30.9270   35.3760 C   0  0  0  0  0  0  0  0  0  0  0  0
   35.2120   30.0350   34.5900 C   0  0  0  0  0  0  0  0  0  0  0  0
   33.8360   29.8900   34.7240 C   0  0  0  0  0  0  0  0  0  0  0  0
   33.1980   30.6720   35.6720 C   0  0  0  0  0  0  0  0  0  0  0  0
   31.9090   30.7390   36.0030 N   0  0  0  0  0  0  0  0  0  0  0  0
   31.7810   31.6490   36.9760 N   0  0  0  0  0  0  0  0  0  0  0  0
   33.0090   32.1520   37.2510 C   0  0  0  0  0  0  0  0  0  0  0  0
   33.9450   31.5460   36.4310 C   0  0  0  0  0  0  0  0  0  0  0  0
   35.3130   31.7010   36.3090 C   0  0  0  0  0  0  0  0  0  0  0  0
   37.0030   30.9740   35.2010 H   0  0  0  0  0  0  0  0  0  0  0  0
   33.2220   29.2090   34.1410 H   0  0  0  0  0  0  0  0  0  0  0  0
   31.0880   30.2100   35.6200 H   0  0  0  0  0  0  0  0  0  0  0  0
   33.2860   32.9130   37.9870 H   0  0  0  0  0  0  0  0  0  0  0  0
   35.8800   32.3920   36.9140 H   0  0  0  0  0  0  0  0  0  0  0  0
   38.1620   26.8390   32.1960 C   0  0  0  0  0  0  0  0  0  0  0  0
   39.1280   27.1870   31.4640 O   0  0  0  0  0  0  0  0  0  0  0  0
   38.0180   25.5140   32.7400 C   0  0  0  0  0  0  0  0  0  0  0  0
   37.6400   24.5010   31.8860 C   0  0  0  0  0  0  0  0  0  0  0  0
   37.4890   23.2060   32.3680 C   0  0  0  0  0  0  0  0  0  0  0  0
   37.7300   23.0200   33.6880 N   0  0  0  0  0  0  0  0  0  0  0  0
   38.0950   24.0040   34.5120 C   0  0  0  0  0  0  0  0  0  0  0  0
   38.2350   25.2410   34.0280 N   0  0  0  0  0  0  0  0  0  0  0  0
   37.4540   24.6670   30.8410 H   0  0  0  0  0  0  0  0  0  0  0  0
   37.2020   22.3710   31.7750 H   0  0  0  0  0  0  0  0  0  0  0  0
   38.3550   23.7970   35.9430 C   0  0  0  0  0  0  0  0  0  0  0  0
   37.6380   24.2360   37.0250 C   0  0  0  0  0  0  0  0  0  0  0  0
   36.7500   24.8220   36.8440 H   0  0  0  0  0  0  0  0  0  0  0  0
   38.0970   23.9040   38.2680 C   0  0  0  0  0  3  0  0  0  0  0  0
   39.2350   23.1590   38.3790 C   0  0  0  0  0  3  0  0  0  0  0  0
   39.7100   22.8950   36.5710 S   0  0  0  0  0  0  0  0  0  0  0  0
  1  5  1  0  0  0  0
  2  3  1  0  0  0  0
  2  1  2  0  0  0  0
  3  4  2  0  0  0  0
  4  5  1  0  0  0  0
  4  9  1  0  0  0  0
  6  2  1  0  0  0  0
  7  3  1  0  0  0  0
  8 16  1  0  0  0  0
  9 10  1  0  0  0  0
  9  8  2  0  0  0  0
 10 11  2  0  0  0  0
 11 12  1  0  0  0  0
 11 15  1  0  0  0  0
 12 13  1  0  0  0  0
 13 14  2  0  0  0  0
 14 20  1  0  0  0  0
 15 14  1  0  0  0  0
 16 15  2  0  0  0  0
 16 21  1  0  0  0  0
 17  8  1  0  0  0  0
 18 10  1  0  0  0  0
 19 12  1  0  0  0  0
 22  1  1  0  0  0  0
 22 24  1  0  0  0  0
 23 22  2  0  0  0  0
 24 29  1  0  0  0  0
 25 26  1  0  0  0  0
 25 24  2  0  0  0  0
 26 27  2  0  0  0  0
 27 28  1  0  0  0  0
 28 32  1  0  0  0  0
 29 28  2  0  0  0  0
 30 25  1  0  0  0  0
 31 26  1  0  0  0  0
 32 37  1  0  0  0  0
 32 33  2  0  0  0  0
 33 35  1  0  0  0  0
 34 33  1  0  0  0  0
 35 36  2  0  0  0  0
 37 36  1  0  0  0  0
M  END
>  <minimizedAffinity>
-6.46330404

$$$$

 OpenBabel03272507153D

 37 41  0  0  0  0  0  0  0  0999 V2000
   36.7020   27.3620   33.0810 C   0  0  0  0  0  0  0  0  0  0  0  0
   36.1620   28.0270   32.0380 C   0  0  0  0  0  0  0  0  0  0  0  0
   35.5110   29.1500   32.5590 C   0  0  0  0  0  0  0  0  0  0  0  0
   35.7110   29.0870   33.9470 C   0  0  0  0  0  0  0  0  0  0  0  0
   36.4130   28.0190   34.1760 O   0  0  0  0  0  0  0  0  0  0  0  0
   36.1990   27.7720   30.9690 H   0  0  0  0  0  0  0  0  0  0  0  0
   34.9910   29.8580   31.9410 H   0  0  0  0  0  0  0  0  0  0  0  0
   35.9950   30.9630   35.5560 C   0  0  0  0  0  0  0  0  0  0  0  0
   35.1770   30.0970   34.8490 C   0  0  0  0  0  0  0  0  0  0  0  0
   33.7920   30.1540   34.9650 C   0  0  0  0  0  0  0  0  0  0  0  0
   33.2580   31.1110   35.8120 C   0  0  0  0  0  0  0  0  0  0  0  0
   31.9880   31.3860   36.1030 N   0  0  0  0  0  0  0  0  0  0  0  0
   31.9760   32.4020   36.9740 N   0  0  0  0  0  0  0  0  0  0  0  0
   33.2590   32.7610   37.2250 C   0  0  0  0  0  0  0  0  0  0  0  0
   34.1110   31.9510   36.4940 C   0  0  0  0  0  0  0  0  0  0  0  0
   35.4880   31.9050   36.3900 C   0  0  0  0  0  0  0  0  0  0  0  0
   37.0730   30.8450   35.4020 H   0  0  0  0  0  0  0  0  0  0  0  0
   33.0960   29.5050   34.4400 H   0  0  0  0  0  0  0  0  0  0  0  0
   31.1060   30.9360   35.7570 H   0  0  0  0  0  0  0  0  0  0  0  0
   33.6300   33.5510   37.8850 H   0  0  0  0  0  0  0  0  0  0  0  0
   36.1390   32.5730   36.9340 H   0  0  0  0  0  0  0  0  0  0  0  0
   37.4600   26.1340   32.9180 C   0  0  0  0  0  0  0  0  0  0  0  0
   36.9370   25.1700   32.2970 O   0  0  0  0  0  0  0  0  0  0  0  0
   38.7840   26.0880   33.4830 C   0  0  0  0  0  0  0  0  0  0  0  0
   39.6540   27.1120   33.1790 C   0  0  0  0  0  0  0  0  0  0  0  0
   40.9410   27.1090   33.7030 C   0  0  0  0  0  0  0  0  0  0  0  0
   41.2660   26.0640   34.5020 N   0  0  0  0  0  0  0  0  0  0  0  0
   40.4210   25.0740   34.7930 C   0  0  0  0  0  0  0  0  0  0  0  0
   39.1890   25.0970   34.2800 N   0  0  0  0  0  0  0  0  0  0  0  0
   39.3780   27.9330   32.5440 H   0  0  0  0  0  0  0  0  0  0  0  0
   41.6700   27.8610   33.5180 H   0  0  0  0  0  0  0  0  0  0  0  0
   40.7790   23.9430   35.6600 C   0  0  0  0  0  0  0  0  0  0  0  0
   42.0080   23.3780   35.8830 C   0  0  0  0  0  0  0  0  0  0  0  0
   42.8600   23.7930   35.3650 H   0  0  0  0  0  0  0  0  0  0  0  0
   42.0750   22.3230   36.7460 C   0  0  0  0  0  3  0  0  0  0  0  0
   40.9310   21.8800   37.3440 C   0  0  0  0  0  3  0  0  0  0  0  0
   39.6350   23.0530   36.6310 S   0  0  0  0  0  0  0  0  0  0  0  0
  1  5  1  0  0  0  0
  2  3  1  0  0  0  0
  2  1  2  0  0  0  0
  3  4  2  0  0  0  0
  4  5  1  0  0  0  0
  4  9  1  0  0  0  0
  6  2  1  0  0  0  0
  7  3  1  0  0  0  0
  8 16  1  0  0  0  0
  9 10  1  0  0  0  0
  9  8  2  0  0  0  0
 10 11  2  0  0  0  0
 11 12  1  0  0  0  0
 11 15  1  0  0  0  0
 12 13  1  0  0  0  0
 13 14  2  0  0  0  0
 14 20  1  0  0  0  0
 15 14  1  0  0  0  0
 16 15  2  0  0  0  0
 16 21  1  0  0  0  0
 17  8  1  0  0  0  0
 18 10  1  0  0  0  0
 19 12  1  0  0  0  0
 22  1  1  0  0  0  0
 22 24  1  0  0  0  0
 23 22  2  0  0  0  0
 24 29  1  0  0  0  0
 25 24  2  0  0  0  0
 25 26  1  0  0  0  0
 26 27  2  0  0  0  0
 27 28  1  0  0  0  0
 28 32  1  0  0  0  0
 29 28  2  0  0  0  0
 30 25  1  0  0  0  0
 31 26  1  0  0  0  0
 32 33  2  0  0  0  0
 32 37  1  0  0  0  0
 33 35  1  0  0  0  0
 34 33  1  0  0  0  0
 35 36  2  0  0  0  0
 37 36  1  0  0  0  0
M  END
>  <minimizedAffinity>
-6.34412336

$$$$

 OpenBabel03272507153D

 37 41  0  0  0  0  0  0  0  0999 V2000
   35.8550   27.0110   31.3040 C   0  0  0  0  0  0  0  0  0  0  0  0
   36.6820   27.6510   30.4510 C   0  0  0  0  0  0  0  0  0  0  0  0
   36.8110   28.9660   30.9120 C   0  0  0  0  0  0  0  0  0  0  0  0
   36.0170   29.0360   32.0670 C   0  0  0  0  0  0  0  0  0  0  0  0
   35.4930   27.8600   32.2320 O   0  0  0  0  0  0  0  0  0  0  0  0
   37.1800   27.2560   29.5530 H   0  0  0  0  0  0  0  0  0  0  0  0
   37.4180   29.6980   30.4120 H   0  0  0  0  0  0  0  0  0  0  0  0
   35.9640   31.5150   32.2590 C   0  0  0  0  0  0  0  0  0  0  0  0
   35.8940   30.2610   32.8430 C   0  0  0  0  0  0  0  0  0  0  0  0
   35.6950   30.1110   34.2110 C   0  0  0  0  0  0  0  0  0  0  0  0
   35.5680   31.2610   34.9710 C   0  0  0  0  0  0  0  0  0  0  0  0
   35.3700   31.4070   36.2800 N   0  0  0  0  0  0  0  0  0  0  0  0
   35.3110   32.7180   36.5440 N   0  0  0  0  0  0  0  0  0  0  0  0
   35.4750   33.3930   35.3800 C   0  0  0  0  0  0  0  0  0  0  0  0
   35.6430   32.4870   34.3460 C   0  0  0  0  0  0  0  0  0  0  0  0
   35.8410   32.6520   32.9890 C   0  0  0  0  0  0  0  0  0  0  0  0
   36.1220   31.5370   31.1750 H   0  0  0  0  0  0  0  0  0  0  0  0
   35.6320   29.1580   34.7300 H   0  0  0  0  0  0  0  0  0  0  0  0
   35.2680   30.6810   37.0300 H   0  0  0  0  0  0  0  0  0  0  0  0
   35.4840   34.4740   35.2130 H   0  0  0  0  0  0  0  0  0  0  0  0
   35.8970   33.6230   32.5190 H   0  0  0  0  0  0  0  0  0  0  0  0
   35.4880   25.6160   31.1390 C   0  0  0  0  0  0  0  0  0  0  0  0
   34.5370   25.3200   30.3660 O   0  0  0  0  0  0  0  0  0  0  0  0
   36.2410   24.6360   31.8790 C   0  0  0  0  0  0  0  0  0  0  0  0
   37.2690   25.0800   32.6820 C   0  0  0  0  0  0  0  0  0  0  0  0
   38.0210   24.1700   33.4140 C   0  0  0  0  0  0  0  0  0  0  0  0
   37.6850   22.8640   33.2840 N   0  0  0  0  0  0  0  0  0  0  0  0
   36.6890   22.4380   32.5060 C   0  0  0  0  0  0  0  0  0  0  0  0
   35.9780   23.3300   31.8110 N   0  0  0  0  0  0  0  0  0  0  0  0
   37.5210   26.1200   32.7720 H   0  0  0  0  0  0  0  0  0  0  0  0
   38.8280   24.4320   34.0560 H   0  0  0  0  0  0  0  0  0  0  0  0
   36.3280   21.0210   32.3700 C   0  0  0  0  0  0  0  0  0  0  0  0
   35.6320   20.2180   33.2350 C   0  0  0  0  0  0  0  0  0  0  0  0
   35.2820   20.6500   34.1600 H   0  0  0  0  0  0  0  0  0  0  0  0
   35.4260   18.9180   32.8710 C   0  0  0  0  0  3  0  0  0  0  0  0
   35.9160   18.4780   31.6760 C   0  0  0  0  0  3  0  0  0  0  0  0
   36.7440   20.0320   30.9940 S   0  0  0  0  0  0  0  0  0  0  0  0
  1  5  1  0  0  0  0
  2  3  1  0  0  0  0
  2  1  2  0  0  0  0
  3  4  2  0  0  0  0
  4  5  1  0  0  0  0
  4  9  1  0  0  0  0
  6  2  1  0  0  0  0
  7  3  1  0  0  0  0
  8  9  2  0  0  0  0
  8 16  1  0  0  0  0
  9 10  1  0  0  0  0
 10 18  1  0  0  0  0
 10 11  2  0  0  0  0
 11 12  1  0  0  0  0
 12 13  1  0  0  0  0
 12 19  1  0  0  0  0
 14 13  2  0  0  0  0
 15 11  1  0  0  0  0
 15 14  1  0  0  0  0
 16 15  2  0  0  0  0
 17  8  1  0  0  0  0
 20 14  1  0  0  0  0
 21 16  1  0  0  0  0
 22  1  1  0  0  0  0
 22 24  1  0  0  0  0
 23 22  2  0  0  0  0
 24 25  1  0  0  0  0
 25 30  1  0  0  0  0
 25 26  2  0  0  0  0
 26 31  1  0  0  0  0
 27 26  1  0  0  0  0
 28 27  2  0  0  0  0
 29 24  2  0  0  0  0
 29 28  1  0  0  0  0
 32 28  1  0  0  0  0
 32 33  2  0  0  0  0
 33 34  1  0  0  0  0
 35 33  1  0  0  0  0
 36 35  2  0  0  0  0
 37 36  1  0  0  0  0
 37 32  1  0  0  0  0
M  END
>  <minimizedAffinity>
-6.31914282

$$$$

 OpenBabel03272507153D

 37 41  0  0  0  0  0  0  0  0999 V2000
   37.3520   27.6700   32.7080 C   0  0  0  0  0  0  0  0  0  0  0  0
   36.5220   27.9810   31.6920 C   0  0  0  0  0  0  0  0  0  0  0  0
   35.5180   28.8020   32.2170 C   0  0  0  0  0  0  0  0  0  0  0  0
   35.8230   28.9380   33.5810 C   0  0  0  0  0  0  0  0  0  0  0  0
   36.9040   28.2520   33.7920 O   0  0  0  0  0  0  0  0  0  0  0  0
   36.5820   27.6730   30.6370 H   0  0  0  0  0  0  0  0  0  0  0  0
   34.7180   29.1960   31.6180 H   0  0  0  0  0  0  0  0  0  0  0  0
   33.6360   29.5180   34.6120 C   0  0  0  0  0  0  0  0  0  0  0  0
   34.9980   29.7310   34.4790 C   0  0  0  0  0  0  0  0  0  0  0  0
   35.6490   30.7200   35.2080 C   0  0  0  0  0  0  0  0  0  0  0  0
   34.8870   31.4850   36.0750 C   0  0  0  0  0  0  0  0  0  0  0  0
   35.2480   32.4790   36.8850 N   0  0  0  0  0  0  0  0  0  0  0  0
   34.1530   32.9030   37.5290 N   0  0  0  0  0  0  0  0  0  0  0  0
   33.1010   32.1590   37.1110 C   0  0  0  0  0  0  0  0  0  0  0  0
   33.5360   31.2360   36.1750 C   0  0  0  0  0  0  0  0  0  0  0  0
   32.8750   30.2590   35.4570 C   0  0  0  0  0  0  0  0  0  0  0  0
   33.2080   28.7180   33.9980 H   0  0  0  0  0  0  0  0  0  0  0  0
   36.7120   30.9380   35.1500 H   0  0  0  0  0  0  0  0  0  0  0  0
   36.1920   32.9080   37.0450 H   0  0  0  0  0  0  0  0  0  0  0  0
   32.0530   32.2240   37.4210 H   0  0  0  0  0  0  0  0  0  0  0  0
   31.8140   30.0800   35.5490 H   0  0  0  0  0  0  0  0  0  0  0  0
   38.5210   26.8260   32.5330 C   0  0  0  0  0  0  0  0  0  0  0  0
   39.6200   27.1920   33.0310 O   0  0  0  0  0  0  0  0  0  0  0  0
   38.3560   25.6030   31.7910 C   0  0  0  0  0  0  0  0  0  0  0  0
   38.9730   25.5030   30.5620 C   0  0  0  0  0  0  0  0  0  0  0  0
   38.8420   24.3410   29.8120 C   0  0  0  0  0  0  0  0  0  0  0  0
   38.0910   23.3520   30.3540 N   0  0  0  0  0  0  0  0  0  0  0  0
   37.4950   23.4530   31.5430 C   0  0  0  0  0  0  0  0  0  0  0  0
   37.6350   24.5780   32.2480 N   0  0  0  0  0  0  0  0  0  0  0  0
   39.5650   26.2970   30.1490 H   0  0  0  0  0  0  0  0  0  0  0  0
   39.2860   24.1850   28.8580 H   0  0  0  0  0  0  0  0  0  0  0  0
   36.6820   22.3770   32.1270 C   0  0  0  0  0  0  0  0  0  0  0  0
   35.5220   21.8180   31.6580 C   0  0  0  0  0  0  0  0  0  0  0  0
   35.1140   22.1930   30.7310 H   0  0  0  0  0  0  0  0  0  0  0  0
   34.9550   20.8190   32.3960 C   0  0  0  0  0  3  0  0  0  0  0  0
   35.5580   20.4250   33.5550 C   0  0  0  0  0  3  0  0  0  0  0  0
   37.0660   21.5600   33.6200 S   0  0  0  0  0  0  0  0  0  0  0  0
  1  5  1  0  0  0  0
  2  3  1  0  0  0  0
  2  1  2  0  0  0  0
  3  4  2  0  0  0  0
  4  5  1  0  0  0  0
  4  9  1  0  0  0  0
  6  2  1  0  0  0  0
  7  3  1  0  0  0  0
  8 16  1  0  0  0  0
  9  8  2  0  0  0  0
  9 10  1  0  0  0  0
 10 11  2  0  0  0  0
 11 15  1  0  0  0  0
 11 12  1  0  0  0  0
 12 19  1  0  0  0  0
 12 13  1  0  0  0  0
 14 20  1  0  0  0  0
 14 13  2  0  0  0  0
 15 14  1  0  0  0  0
 16 21  1  0  0  0  0
 16 15  2  0  0  0  0
 17  8  1  0  0  0  0
 18 10  1  0  0  0  0
 22  1  1  0  0  0  0
 22 23  2  0  0  0  0
 24 29  1  0  0  0  0
 24 22  1  0  0  0  0
 25 24  2  0  0  0  0
 26 27  2  0  0  0  0
 26 25  1  0  0  0  0
 27 28  1  0  0  0  0
 28 32  1  0  0  0  0
 28 29  2  0  0  0  0
 30 25  1  0  0  0  0
 31 26  1  0  0  0  0
 32 37  1  0  0  0  0
 33 32  2  0  0  0  0
 33 35  1  0  0  0  0
 34 33  1  0  0  0  0
 35 36  2  0  0  0  0
 36 37  1  0  0  0  0
M  END
>  <minimizedAffinity>
-6.27304649

$$$$

 OpenBabel03272507153D

 37 41  0  0  0  0  0  0  0  0999 V2000
   37.1030   27.9990   32.0870 C   0  0  0  0  0  0  0  0  0  0  0  0
   36.4940   28.7390   31.1370 C   0  0  0  0  0  0  0  0  0  0  0  0
   35.5810   29.5750   31.7880 C   0  0  0  0  0  0  0  0  0  0  0  0
   35.7040   29.2700   33.1530 C   0  0  0  0  0  0  0  0  0  0  0  0
   36.6090   28.3450   33.2490 O   0  0  0  0  0  0  0  0  0  0  0  0
   36.6530   28.7220   30.0480 H   0  0  0  0  0  0  0  0  0  0  0  0
   34.9570   30.2730   31.2620 H   0  0  0  0  0  0  0  0  0  0  0  0
   33.5520   29.6950   34.3250 C   0  0  0  0  0  0  0  0  0  0  0  0
   34.9060   29.9430   34.1670 C   0  0  0  0  0  0  0  0  0  0  0  0
   35.5740   30.8520   34.9790 C   0  0  0  0  0  0  0  0  0  0  0  0
   34.8390   31.5010   35.9570 C   0  0  0  0  0  0  0  0  0  0  0  0
   35.2200   32.4020   36.8610 N   0  0  0  0  0  0  0  0  0  0  0  0
   34.1460   32.7320   37.5900 N   0  0  0  0  0  0  0  0  0  0  0  0
   33.0860   32.0250   37.1290 C   0  0  0  0  0  0  0  0  0  0  0  0
   33.4950   31.2210   36.0780 C   0  0  0  0  0  0  0  0  0  0  0  0
   32.8170   30.3220   35.2780 C   0  0  0  0  0  0  0  0  0  0  0  0
   33.1100   28.9630   33.6400 H   0  0  0  0  0  0  0  0  0  0  0  0
   36.6320   31.0920   34.9060 H   0  0  0  0  0  0  0  0  0  0  0  0
   36.1640   32.8240   37.0330 H   0  0  0  0  0  0  0  0  0  0  0  0
   32.0510   32.0370   37.4830 H   0  0  0  0  0  0  0  0  0  0  0  0
   31.7630   30.1180   35.3890 H   0  0  0  0  0  0  0  0  0  0  0  0
   38.1220   27.0120   31.7770 C   0  0  0  0  0  0  0  0  0  0  0  0
   38.1410   26.4920   30.6290 O   0  0  0  0  0  0  0  0  0  0  0  0
   39.0650   26.6790   32.8130 C   0  0  0  0  0  0  0  0  0  0  0  0
   40.3510   27.1610   32.6980 C   0  0  0  0  0  0  0  0  0  0  0  0
   41.2940   26.8650   33.6740 C   0  0  0  0  0  0  0  0  0  0  0  0
   40.8730   26.0960   34.7080 N   0  0  0  0  0  0  0  0  0  0  0  0
   39.6280   25.6310   34.8160 C   0  0  0  0  0  0  0  0  0  0  0  0
   38.7370   25.9280   33.8660 N   0  0  0  0  0  0  0  0  0  0  0  0
   40.6660   27.7700   31.8710 H   0  0  0  0  0  0  0  0  0  0  0  0
   42.3040   27.1980   33.6590 H   0  0  0  0  0  0  0  0  0  0  0  0
   39.1780   24.7980   35.9390 C   0  0  0  0  0  0  0  0  0  0  0  0
   38.1640   25.0260   36.8330 C   0  0  0  0  0  0  0  0  0  0  0  0
   37.5920   25.9350   36.7330 H   0  0  0  0  0  0  0  0  0  0  0  0
   37.9440   24.0840   37.7970 C   0  0  0  0  0  3  0  0  0  0  0  0
   38.7320   22.9710   37.8310 C   0  0  0  0  0  3  0  0  0  0  0  0
   39.8940   23.2670   36.3720 S   0  0  0  0  0  0  0  0  0  0  0  0
  1  5  1  0  0  0  0
  2  3  1  0  0  0  0
  2  1  2  0  0  0  0
  3  4  2  0  0  0  0
  4  5  1  0  0  0  0
  4  9  1  0  0  0  0
  6  2  1  0  0  0  0
  7  3  1  0  0  0  0
  8 16  1  0  0  0  0
  9  8  2  0  0  0  0
  9 10  1  0  0  0  0
 10 11  2  0  0  0  0
 11 15  1  0  0  0  0
 11 12  1  0  0  0  0
 12 19  1  0  0  0  0
 12 13  1  0  0  0  0
 14 20  1  0  0  0  0
 14 13  2  0  0  0  0
 15 14  1  0  0  0  0
 16 21  1  0  0  0  0
 16 15  2  0  0  0  0
 17  8  1  0  0  0  0
 18 10  1  0  0  0  0
 22  1  1  0  0  0  0
 22 24  1  0  0  0  0
 23 22  2  0  0  0  0
 24 29  1  0  0  0  0
 25 24  2  0  0  0  0
 25 26  1  0  0  0  0
 26 27  2  0  0  0  0
 27 28  1  0  0  0  0
 28 32  1  0  0  0  0
 29 28  2  0  0  0  0
 30 25  1  0  0  0  0
 31 26  1  0  0  0  0
 32 37  1  0  0  0  0
 32 33  2  0  0  0  0
 33 35  1  0  0  0  0
 34 33  1  0  0  0  0
 35 36  2  0  0  0  0
 37 36  1  0  0  0  0
M  END
>  <minimizedAffinity>
-6.26155186

$$$$

 OpenBabel03272507153D

 37 41  0  0  0  0  0  0  0  0999 V2000
   37.9560   25.5760   35.7070 C   0  0  0  0  0  0  0  0  0  0  0  0
   38.4830   26.6580   36.3170 C   0  0  0  0  0  0  0  0  0  0  0  0
   38.0270   27.7840   35.6230 C   0  0  0  0  0  0  0  0  0  0  0  0
   37.2170   27.2840   34.5920 C   0  0  0  0  0  0  0  0  0  0  0  0
   37.2230   25.9910   34.7040 O   0  0  0  0  0  0  0  0  0  0  0  0
   39.1470   26.6950   37.1930 H   0  0  0  0  0  0  0  0  0  0  0  0
   38.2990   28.7850   35.9000 H   0  0  0  0  0  0  0  0  0  0  0  0
   36.6760   27.9970   32.2710 C   0  0  0  0  0  0  0  0  0  0  0  0
   36.5510   28.1620   33.6410 C   0  0  0  0  0  0  0  0  0  0  0  0
   35.7730   29.1810   34.1780 C   0  0  0  0  0  0  0  0  0  0  0  0
   35.1230   30.0260   33.2950 C   0  0  0  0  0  0  0  0  0  0  0  0
   34.3240   31.0650   33.5320 N   0  0  0  0  0  0  0  0  0  0  0  0
   33.9370   31.5640   32.3510 N   0  0  0  0  0  0  0  0  0  0  0  0
   34.5050   30.8230   31.3700 C   0  0  0  0  0  0  0  0  0  0  0  0
   35.2760   29.8240   31.9410 C   0  0  0  0  0  0  0  0  0  0  0  0
   36.0460   28.8170   31.3920 C   0  0  0  0  0  0  0  0  0  0  0  0
   37.3090   27.1670   31.9380 H   0  0  0  0  0  0  0  0  0  0  0  0
   35.6340   29.3640   35.2410 H   0  0  0  0  0  0  0  0  0  0  0  0
   34.0090   31.4780   34.4430 H   0  0  0  0  0  0  0  0  0  0  0  0
   34.4130   30.9390   30.2860 H   0  0  0  0  0  0  0  0  0  0  0  0
   36.1530   28.6750   30.3270 H   0  0  0  0  0  0  0  0  0  0  0  0
   38.2140   24.2200   36.1580 C   0  0  0  0  0  0  0  0  0  0  0  0
   38.0740   23.9450   37.3810 O   0  0  0  0  0  0  0  0  0  0  0  0
   38.6200   23.2530   35.1710 C   0  0  0  0  0  0  0  0  0  0  0  0
   39.9700   23.0650   34.9660 C   0  0  0  0  0  0  0  0  0  0  0  0
   40.4070   22.1430   34.0240 C   0  0  0  0  0  0  0  0  0  0  0  0
   39.4470   21.4680   33.3460 N   0  0  0  0  0  0  0  0  0  0  0  0
   38.1410   21.6530   33.5470 C   0  0  0  0  0  0  0  0  0  0  0  0
   37.7420   22.5440   34.4580 N   0  0  0  0  0  0  0  0  0  0  0  0
   40.7170   23.6090   35.5130 H   0  0  0  0  0  0  0  0  0  0  0  0
   41.4280   21.9390   33.8070 H   0  0  0  0  0  0  0  0  0  0  0  0
   37.1040   20.9190   32.8100 C   0  0  0  0  0  0  0  0  0  0  0  0
   37.1100   20.4850   31.5100 C   0  0  0  0  0  0  0  0  0  0  0  0
   37.9810   20.6930   30.9080 H   0  0  0  0  0  0  0  0  0  0  0  0
   36.0080   19.8160   31.0590 C   0  0  0  0  0  3  0  0  0  0  0  0
   34.9610   19.6100   31.9090 C   0  0  0  0  0  3  0  0  0  0  0  0
   35.5760   20.4310   33.4950 S   0  0  0  0  0  0  0  0  0  0  0  0
  1 22  1  0  0  0  0
  1  2  2  0  0  0  0
  2  6  1  0  0  0  0
  3  7  1  0  0  0  0
  3  2  1  0  0  0  0
  4  5  1  0  0  0  0
  4  3  2  0  0  0  0
  5  1  1  0  0  0  0
  8  9  1  0  0  0  0
  9 10  2  0  0  0  0
  9  4  1  0  0  0  0
 10 18  1  0  0  0  0
 11 12  1  0  0  0  0
 11 10  1  0  0  0  0
 12 19  1  0  0  0  0
 13 12  1  0  0  0  0
 14 15  1  0  0  0  0
 14 13  2  0  0  0  0
 15 11  2  0  0  0  0
 16 15  1  0  0  0  0
 16  8  2  0  0  0  0
 17  8  1  0  0  0  0
 20 14  1  0  0  0  0
 21 16  1  0  0  0  0
 22 23  2  0  0  0  0
 24 22  1  0  0  0  0
 25 24  1  0  0  0  0
 25 30  1  0  0  0  0
 26 25  2  0  0  0  0
 27 28  2  0  0  0  0
 27 26  1  0  0  0  0
 28 29  1  0  0  0  0
 29 24  2  0  0  0  0
 31 26  1  0  0  0  0
 32 37  1  0  0  0  0
 32 28  1  0  0  0  0
 33 32  2  0  0  0  0
 34 33  1  0  0  0  0
 35 33  1  0  0  0  0
 35 36  2  0  0  0  0
 36 37  1  0  0  0  0
M  END
>  <minimizedAffinity>
-6.23053503

$$$$

 OpenBabel03272507153D

 37 41  0  0  0  0  0  0  0  0999 V2000
   38.0050   27.3850   34.2220 C   0  0  0  0  0  0  0  0  0  0  0  0
   37.3710   27.3440   33.0310 C   0  0  0  0  0  0  0  0  0  0  0  0
   36.2880   28.2260   33.1110 C   0  0  0  0  0  0  0  0  0  0  0  0
   36.3420   28.7660   34.4060 C   0  0  0  0  0  0  0  0  0  0  0  0
   37.3680   28.2300   34.9930 O   0  0  0  0  0  0  0  0  0  0  0  0
   37.6220   26.7480   32.1420 H   0  0  0  0  0  0  0  0  0  0  0  0
   35.6100   28.3860   32.2940 H   0  0  0  0  0  0  0  0  0  0  0  0
   34.0660   29.7700   34.3980 C   0  0  0  0  0  0  0  0  0  0  0  0
   35.3670   29.7400   34.8750 C   0  0  0  0  0  0  0  0  0  0  0  0
   35.8060   30.6430   35.8360 C   0  0  0  0  0  0  0  0  0  0  0  0
   34.8950   31.5750   36.3040 C   0  0  0  0  0  0  0  0  0  0  0  0
   35.0430   32.5380   37.2120 N   0  0  0  0  0  0  0  0  0  0  0  0
   33.8740   33.1790   37.3270 N   0  0  0  0  0  0  0  0  0  0  0  0
   32.9890   32.6040   36.4770 C   0  0  0  0  0  0  0  0  0  0  0  0
   33.6120   31.5670   35.8020 C   0  0  0  0  0  0  0  0  0  0  0  0
   33.1620   30.6770   34.8460 C   0  0  0  0  0  0  0  0  0  0  0  0
   33.8090   29.0210   33.6420 H   0  0  0  0  0  0  0  0  0  0  0  0
   36.8100   30.6720   36.2500 H   0  0  0  0  0  0  0  0  0  0  0  0
   35.8860   32.8080   37.7750 H   0  0  0  0  0  0  0  0  0  0  0  0
   31.9410   32.8640   36.3020 H   0  0  0  0  0  0  0  0  0  0  0  0
   32.1520   30.6890   34.4650 H   0  0  0  0  0  0  0  0  0  0  0  0
   39.1870   26.5910   34.5070 C   0  0  0  0  0  0  0  0  0  0  0  0
   40.2920   26.9380   34.0090 O   0  0  0  0  0  0  0  0  0  0  0  0
   39.0280   25.4380   35.3540 C   0  0  0  0  0  0  0  0  0  0  0  0
   37.8540   25.3130   36.0650 C   0  0  0  0  0  0  0  0  0  0  0  0
   37.6560   24.2160   36.8940 C   0  0  0  0  0  0  0  0  0  0  0  0
   38.6650   23.3130   36.9520 N   0  0  0  0  0  0  0  0  0  0  0  0
   39.8000   23.4370   36.2630 C   0  0  0  0  0  0  0  0  0  0  0  0
   39.9690   24.4990   35.4720 N   0  0  0  0  0  0  0  0  0  0  0  0
   37.0650   26.0390   36.0060 H   0  0  0  0  0  0  0  0  0  0  0  0
   36.7810   24.0460   37.4740 H   0  0  0  0  0  0  0  0  0  0  0  0
   40.8900   22.4540   36.3300 C   0  0  0  0  0  0  0  0  0  0  0  0
   41.2820   21.6660   37.3810 C   0  0  0  0  0  0  0  0  0  0  0  0
   40.7390   21.7490   38.3090 H   0  0  0  0  0  0  0  0  0  0  0  0
   42.3390   20.8240   37.1840 C   0  0  0  0  0  3  0  0  0  0  0  0
   42.9530   20.8020   35.9660 C   0  0  0  0  0  3  0  0  0  0  0  0
   41.9570   22.0830   35.0000 S   0  0  0  0  0  0  0  0  0  0  0  0
  1 22  1  0  0  0  0
  1  5  1  0  0  0  0
  2  3  1  0  0  0  0
  2  1  2  0  0  0  0
  3  4  2  0  0  0  0
  4  9  1  0  0  0  0
  4  5  1  0  0  0  0
  6  2  1  0  0  0  0
  7  3  1  0  0  0  0
  8 16  2  0  0  0  0
  8  9  1  0  0  0  0
  9 10  2  0  0  0  0
 10 18  1  0  0  0  0
 10 11  1  0  0  0  0
 11 12  1  0  0  0  0
 12 13  1  0  0  0  0
 12 19  1  0  0  0  0
 14 13  2  0  0  0  0
 15 11  2  0  0  0  0
 15 14  1  0  0  0  0
 16 15  1  0  0  0  0
 17  8  1  0  0  0  0
 20 14  1  0  0  0  0
 21 16  1  0  0  0  0
 22 24  1  0  0  0  0
 23 22  2  0  0  0  0
 24 29  2  0  0  0  0
 24 25  1  0  0  0  0
 25 26  2  0  0  0  0
 26 27  1  0  0  0  0
 26 31  1  0  0  0  0
 28 32  1  0  0  0  0
 28 27  2  0  0  0  0
 29 28  1  0  0  0  0
 30 25  1  0  0  0  0
 32 33  2  0  0  0  0
 33 34  1  0  0  0  0
 35 33  1  0  0  0  0
 36 35  2  0  0  0  0
 37 36  1  0  0  0  0
 37 32  1  0  0  0  0
M  END
>  <minimizedAffinity>
-6.2195487

$$$$

 OpenBabel03272507153D

 37 41  0  0  0  0  0  0  0  0999 V2000
   38.1940   24.7490   35.6740 C   0  0  0  0  0  0  0  0  0  0  0  0
   38.3750   25.8230   36.4700 C   0  0  0  0  0  0  0  0  0  0  0  0
   38.1300   26.9590   35.6910 C   0  0  0  0  0  0  0  0  0  0  0  0
   37.8010   26.4730   34.4170 C   0  0  0  0  0  0  0  0  0  0  0  0
   37.8590   25.1780   34.4830 O   0  0  0  0  0  0  0  0  0  0  0  0
   38.6620   25.8490   37.5320 H   0  0  0  0  0  0  0  0  0  0  0  0
   38.2050   27.9560   36.0810 H   0  0  0  0  0  0  0  0  0  0  0  0
   38.2030   27.3770   32.1350 C   0  0  0  0  0  0  0  0  0  0  0  0
   37.4740   27.3640   33.3130 C   0  0  0  0  0  0  0  0  0  0  0  0
   36.3840   28.2060   33.4980 C   0  0  0  0  0  0  0  0  0  0  0  0
   36.0490   29.0600   32.4610 C   0  0  0  0  0  0  0  0  0  0  0  0
   35.0650   29.9540   32.3690 N   0  0  0  0  0  0  0  0  0  0  0  0
   35.1480   30.5340   31.1650 N   0  0  0  0  0  0  0  0  0  0  0  0
   36.1980   29.9900   30.5030 C   0  0  0  0  0  0  0  0  0  0  0  0
   36.8010   29.0370   31.3070 C   0  0  0  0  0  0  0  0  0  0  0  0
   37.8870   28.2070   31.1090 C   0  0  0  0  0  0  0  0  0  0  0  0
   39.0450   26.6800   32.0780 H   0  0  0  0  0  0  0  0  0  0  0  0
   35.7730   28.2450   34.3970 H   0  0  0  0  0  0  0  0  0  0  0  0
   34.3250   30.2140   33.0650 H   0  0  0  0  0  0  0  0  0  0  0  0
   36.5640   30.2190   29.4980 H   0  0  0  0  0  0  0  0  0  0  0  0
   38.4650   28.2060   30.1960 H   0  0  0  0  0  0  0  0  0  0  0  0
   38.3640   23.3860   36.1470 C   0  0  0  0  0  0  0  0  0  0  0  0
   39.3110   23.1260   36.9370 O   0  0  0  0  0  0  0  0  0  0  0  0
   37.4280   22.3970   35.6810 C   0  0  0  0  0  0  0  0  0  0  0  0
   36.4950   21.9150   36.5740 C   0  0  0  0  0  0  0  0  0  0  0  0
   35.5720   20.9600   36.1670 C   0  0  0  0  0  0  0  0  0  0  0  0
   35.6530   20.5510   34.8780 N   0  0  0  0  0  0  0  0  0  0  0  0
   36.5580   21.0190   34.0160 C   0  0  0  0  0  0  0  0  0  0  0  0
   37.4350   21.9370   34.4280 N   0  0  0  0  0  0  0  0  0  0  0  0
   36.4460   22.2520   37.5920 H   0  0  0  0  0  0  0  0  0  0  0  0
   34.8220   20.5390   36.7930 H   0  0  0  0  0  0  0  0  0  0  0  0
   36.6410   20.5720   32.6190 C   0  0  0  0  0  0  0  0  0  0  0  0
   37.5050   20.9710   31.6330 C   0  0  0  0  0  0  0  0  0  0  0  0
   38.2440   21.7180   31.8760 H   0  0  0  0  0  0  0  0  0  0  0  0
   37.3730   20.3950   30.4020 C   0  0  0  0  0  3  0  0  0  0  0  0
   36.3990   19.4600   30.2060 C   0  0  0  0  0  3  0  0  0  0  0  0
   35.5880   19.3750   31.9100 S   0  0  0  0  0  0  0  0  0  0  0  0
  1 22  1  0  0  0  0
  1  2  2  0  0  0  0
  2  6  1  0  0  0  0
  3  7  1  0  0  0  0
  3  2  1  0  0  0  0
  4  5  1  0  0  0  0
  4  3  2  0  0  0  0
  5  1  1  0  0  0  0
  8  9  1  0  0  0  0
  9 10  2  0  0  0  0
  9  4  1  0  0  0  0
 10 18  1  0  0  0  0
 11 10  1  0  0  0  0
 12 11  1  0  0  0  0
 12 19  1  0  0  0  0
 13 12  1  0  0  0  0
 14 13  2  0  0  0  0
 14 15  1  0  0  0  0
 15 11  2  0  0  0  0
 16 15  1  0  0  0  0
 16  8  2  0  0  0  0
 17  8  1  0  0  0  0
 20 14  1  0  0  0  0
 21 16  1  0  0  0  0
 22 23  2  0  0  0  0
 24 22  1  0  0  0  0
 24 25  1  0  0  0  0
 25 30  1  0  0  0  0
 26 25  2  0  0  0  0
 26 31  1  0  0  0  0
 27 26  1  0  0  0  0
 28 29  1  0  0  0  0
 28 27  2  0  0  0  0
 29 24  2  0  0  0  0
 32 28  1  0  0  0  0
 33 34  1  0  0  0  0
 33 32  2  0  0  0  0
 35 33  1  0  0  0  0
 36 35  2  0  0  0  0
 36 37  1  0  0  0  0
 37 32  1  0  0  0  0
M  END
>  <minimizedAffinity>
-6.21624374

$$$$
