
 OpenBabel03262522493D

 22 24  0  0  0  0  0  0  0  0999 V2000
   37.9820   25.2130   34.9150 C   0  0  0  0  0  0  0  0  0  0  0  0
   37.8450   24.8920   33.6250 C   0  0  0  0  0  0  0  0  0  0  0  0
   37.3460   25.7820   32.7150 C   0  0  0  0  0  0  0  0  0  0  0  0
   37.0090   26.9980   33.2280 C   0  0  0  0  0  0  0  0  0  0  0  0
   37.4060   26.8490   34.9850 S   0  0  0  0  0  0  0  0  0  0  0  0
   38.1500   23.8750   33.3130 H   0  0  0  0  0  0  0  0  0  0  0  0
   37.2090   25.5900   31.6620 H   0  0  0  0  0  0  0  0  0  0  0  0
   38.2520   23.8460   38.2760 C   0  0  0  0  0  0  0  0  0  0  0  0
   39.3820   22.9910   38.1780 C   0  0  0  0  0  0  0  0  0  0  0  0
   40.0410   22.9000   36.9370 C   0  0  0  0  0  0  0  0  0  0  0  0
   39.5520   23.6410   35.9020 N   0  0  0  0  0  0  0  0  0  0  0  0
   38.4830   24.4340   36.0390 C   0  0  0  0  0  0  0  0  0  0  0  0
   37.8360   24.5430   37.1990 N   0  0  0  0  0  0  0  0  0  0  0  0
   37.7130   23.9510   39.2070 H   0  0  0  0  0  0  0  0  0  0  0  0
   39.7130   22.4330   39.0450 H   0  0  0  0  0  0  0  0  0  0  0  0
   40.8970   22.2570   36.8490 H   0  0  0  0  0  0  0  0  0  0  0  0
   36.4670   28.1880   32.6530 C   0  0  0  0  0  0  0  0  0  0  0  0
   35.8190   29.2490   33.1360 C   0  0  0  0  0  0  0  0  0  0  0  0
   35.6360   29.2610   34.1980 H   0  0  0  0  0  0  0  0  0  0  0  0
   35.4290   30.2390   32.2860 C   0  0  0  0  0  3  0  0  0  0  0  0
   35.7400   30.0890   30.9040 C   0  0  0  0  0  3  0  0  0  0  0  0
   36.6310   28.4330   30.8810 S   0  0  0  0  0  0  0  0  0  0  0  0
  1  5  1  0  0  0  0
  1 12  1  0  0  0  0
  2  1  2  0  0  0  0
  3  4  2  0  0  0  0
  3  2  1  0  0  0  0
  4  5  1  0  0  0  0
  6  2  1  0  0  0  0
  7  3  1  0  0  0  0
  8 14  1  0  0  0  0
  9  8  1  0  0  0  0
  9 15  1  0  0  0  0
 10  9  2  0  0  0  0
 11 12  2  0  0  0  0
 11 10  1  0  0  0  0
 12 13  1  0  0  0  0
 13  8  2  0  0  0  0
 16 10  1  0  0  0  0
 17 18  2  0  0  0  0
 17  4  1  0  0  0  0
 18 19  1  0  0  0  0
 20 18  1  0  0  0  0
 21 20  2  0  0  0  0
 22 21  1  0  0  0  0
 22 17  1  0  0  0  0
M  END
>  <minimizedAffinity>
-4.45552778

$$$$

 OpenBabel03262522493D

 22 24  0  0  0  0  0  0  0  0999 V2000
   37.9350   25.2680   34.8880 C   0  0  0  0  0  0  0  0  0  0  0  0
   37.7890   24.9430   33.6000 C   0  0  0  0  0  0  0  0  0  0  0  0
   37.3040   25.8360   32.6860 C   0  0  0  0  0  0  0  0  0  0  0  0
   36.9890   27.0610   33.1920 C   0  0  0  0  0  0  0  0  0  0  0  0
   37.3870   26.9140   34.9490 S   0  0  0  0  0  0  0  0  0  0  0  0
   38.0760   23.9180   33.2930 H   0  0  0  0  0  0  0  0  0  0  0  0
   37.1610   25.6400   31.6330 H   0  0  0  0  0  0  0  0  0  0  0  0
   40.0220   23.0120   36.8340 C   0  0  0  0  0  0  0  0  0  0  0  0
   39.3810   23.0070   38.1020 C   0  0  0  0  0  0  0  0  0  0  0  0
   38.2240   23.7910   38.2650 C   0  0  0  0  0  0  0  0  0  0  0  0
   37.7880   24.5110   37.1930 N   0  0  0  0  0  0  0  0  0  0  0  0
   38.4240   24.4870   36.0150 C   0  0  0  0  0  0  0  0  0  0  0  0
   39.5210   23.7560   35.8270 N   0  0  0  0  0  0  0  0  0  0  0  0
   40.9130   22.4260   36.6590 H   0  0  0  0  0  0  0  0  0  0  0  0
   39.7860   22.4080   38.9080 H   0  0  0  0  0  0  0  0  0  0  0  0
   37.7290   23.7950   39.2190 H   0  0  0  0  0  0  0  0  0  0  0  0
   36.4660   28.2560   32.6110 C   0  0  0  0  0  0  0  0  0  0  0  0
   35.8270   29.3250   33.0870 C   0  0  0  0  0  0  0  0  0  0  0  0
   35.6350   29.3400   34.1470 H   0  0  0  0  0  0  0  0  0  0  0  0
   35.4570   30.3190   32.2330 C   0  0  0  0  0  3  0  0  0  0  0  0
   35.7770   30.1640   30.8540 C   0  0  0  0  0  3  0  0  0  0  0  0
   36.6490   28.4970   30.8400 S   0  0  0  0  0  0  0  0  0  0  0  0
  1  5  1  0  0  0  0
  1 12  1  0  0  0  0
  2  1  2  0  0  0  0
  3  4  2  0  0  0  0
  3  2  1  0  0  0  0
  4  5  1  0  0  0  0
  6  2  1  0  0  0  0
  7  3  1  0  0  0  0
  8  9  1  0  0  0  0
  9 10  2  0  0  0  0
  9 15  1  0  0  0  0
 10 16  1  0  0  0  0
 11 10  1  0  0  0  0
 12 11  2  0  0  0  0
 13 12  1  0  0  0  0
 13  8  2  0  0  0  0
 14  8  1  0  0  0  0
 17 18  2  0  0  0  0
 17  4  1  0  0  0  0
 18 19  1  0  0  0  0
 20 18  1  0  0  0  0
 21 20  2  0  0  0  0
 22 21  1  0  0  0  0
 22 17  1  0  0  0  0
M  END
>  <minimizedAffinity>
-4.43491411

$$$$

 OpenBabel03262522493D

 22 24  0  0  0  0  0  0  0  0999 V2000
   37.1100   26.8280   33.3210 C   0  0  0  0  0  0  0  0  0  0  0  0
   37.5110   25.6430   32.8520 C   0  0  0  0  0  0  0  0  0  0  0  0
   37.9990   24.6720   33.6810 C   0  0  0  0  0  0  0  0  0  0  0  0
   38.0390   25.0110   35.0000 C   0  0  0  0  0  0  0  0  0  0  0  0
   37.3870   26.6960   35.0290 S   0  0  0  0  0  0  0  0  0  0  0  0
   37.4360   25.4690   31.7610 H   0  0  0  0  0  0  0  0  0  0  0  0
   38.3390   23.6950   33.3700 H   0  0  0  0  0  0  0  0  0  0  0  0
   35.3730   29.9770   32.7750 C   0  0  0  0  0  0  0  0  0  0  0  0
   35.5310   30.1850   31.3780 C   0  0  0  0  0  0  0  0  0  0  0  0
   36.2430   29.2220   30.6400 C   0  0  0  0  0  0  0  0  0  0  0  0
   36.7400   28.1450   31.3120 N   0  0  0  0  0  0  0  0  0  0  0  0
   36.5670   27.9890   32.6300 C   0  0  0  0  0  0  0  0  0  0  0  0
   35.8980   28.8810   33.3580 N   0  0  0  0  0  0  0  0  0  0  0  0
   34.8340   30.6880   33.3850 H   0  0  0  0  0  0  0  0  0  0  0  0
   35.1070   31.0660   30.9130 H   0  0  0  0  0  0  0  0  0  0  0  0
   36.3700   29.3670   29.5820 H   0  0  0  0  0  0  0  0  0  0  0  0
   38.4630   24.3220   36.1760 C   0  0  0  0  0  0  0  0  0  0  0  0
   38.0010   24.2300   37.4240 C   0  0  0  0  0  0  0  0  0  0  0  0
   37.1050   24.7840   37.6490 H   0  0  0  0  0  0  0  0  0  0  0  0
   38.6670   23.4610   38.3300 C   0  0  0  0  0  3  0  0  0  0  0  0
   39.8410   22.7840   37.8910 C   0  0  0  0  0  3  0  0  0  0  0  0
   39.9460   23.3110   36.0880 S   0  0  0  0  0  0  0  0  0  0  0  0
  1  5  1  0  0  0  0
  2  1  2  0  0  0  0
  2  3  1  0  0  0  0
  3  4  2  0  0  0  0
  4  5  1  0  0  0  0
  4 17  1  0  0  0  0
  6  2  1  0  0  0  0
  7  3  1  0  0  0  0
  8 13  1  0  0  0  0
  8 14  1  0  0  0  0
  9  8  2  0  0  0  0
 10 11  2  0  0  0  0
 10  9  1  0  0  0  0
 11 12  1  0  0  0  0
 12  1  1  0  0  0  0
 12 13  2  0  0  0  0
 15  9  1  0  0  0  0
 16 10  1  0  0  0  0
 17 18  2  0  0  0  0
 18 19  1  0  0  0  0
 18 20  1  0  0  0  0
 21 20  2  0  0  0  0
 22 17  1  0  0  0  0
 22 21  1  0  0  0  0
M  END
>  <minimizedAffinity>
-4.42160225

$$$$

 OpenBabel03262522493D

 22 24  0  0  0  0  0  0  0  0999 V2000
   38.6540   25.4990   35.3440 C   0  0  0  0  0  0  0  0  0  0  0  0
   38.0580   26.6070   35.7950 C   0  0  0  0  0  0  0  0  0  0  0  0
   37.5170   27.5270   34.9410 C   0  0  0  0  0  0  0  0  0  0  0  0
   37.6380   27.2230   33.6180 C   0  0  0  0  0  0  0  0  0  0  0  0
   38.5140   25.6420   33.6200 S   0  0  0  0  0  0  0  0  0  0  0  0
   38.0140   26.7580   36.8910 H   0  0  0  0  0  0  0  0  0  0  0  0
   37.0220   28.4400   35.2360 H   0  0  0  0  0  0  0  0  0  0  0  0
   39.2430   22.9700   37.8910 C   0  0  0  0  0  0  0  0  0  0  0  0
   40.4380   22.3460   37.4450 C   0  0  0  0  0  0  0  0  0  0  0  0
   41.0290   22.8160   36.2570 C   0  0  0  0  0  0  0  0  0  0  0  0
   40.4150   23.8440   35.6050 N   0  0  0  0  0  0  0  0  0  0  0  0
   39.2880   24.4020   36.0620 C   0  0  0  0  0  0  0  0  0  0  0  0
   38.7040   23.9820   37.1830 N   0  0  0  0  0  0  0  0  0  0  0  0
   38.7520   22.6450   38.7980 H   0  0  0  0  0  0  0  0  0  0  0  0
   40.8690   21.5330   38.0170 H   0  0  0  0  0  0  0  0  0  0  0  0
   41.9340   22.3520   35.9080 H   0  0  0  0  0  0  0  0  0  0  0  0
   37.2300   27.8830   32.4200 C   0  0  0  0  0  0  0  0  0  0  0  0
   36.4010   28.8900   32.1420 C   0  0  0  0  0  0  0  0  0  0  0  0
   35.8980   29.3460   32.9800 H   0  0  0  0  0  0  0  0  0  0  0  0
   36.2340   29.2840   30.8490 C   0  0  0  0  0  3  0  0  0  0  0  0
   36.9650   28.5880   29.8430 C   0  0  0  0  0  3  0  0  0  0  0  0
   37.9190   27.3230   30.8580 S   0  0  0  0  0  0  0  0  0  0  0  0
  1  2  2  0  0  0  0
  1 12  1  0  0  0  0
  2  6  1  0  0  0  0
  3  7  1  0  0  0  0
  3  2  1  0  0  0  0
  4  5  1  0  0  0  0
  4  3  2  0  0  0  0
  5  1  1  0  0  0  0
  8 14  1  0  0  0  0
  9  8  1  0  0  0  0
  9 15  1  0  0  0  0
 10  9  2  0  0  0  0
 11 12  2  0  0  0  0
 11 10  1  0  0  0  0
 12 13  1  0  0  0  0
 13  8  2  0  0  0  0
 16 10  1  0  0  0  0
 17  4  1  0  0  0  0
 18 17  2  0  0  0  0
 18 19  1  0  0  0  0
 20 18  1  0  0  0  0
 21 20  2  0  0  0  0
 21 22  1  0  0  0  0
 22 17  1  0  0  0  0
M  END
>  <minimizedAffinity>
-4.41316271

$$$$

 OpenBabel03262522493D

 22 24  0  0  0  0  0  0  0  0999 V2000
   38.1090   25.7660   35.0130 C   0  0  0  0  0  0  0  0  0  0  0  0
   37.1660   26.7120   35.0380 C   0  0  0  0  0  0  0  0  0  0  0  0
   36.9380   27.5250   33.9630 C   0  0  0  0  0  0  0  0  0  0  0  0
   37.7390   27.2910   32.8870 C   0  0  0  0  0  0  0  0  0  0  0  0
   38.7950   25.9270   33.4270 S   0  0  0  0  0  0  0  0  0  0  0  0
   36.5690   26.8180   35.9640 H   0  0  0  0  0  0  0  0  0  0  0  0
   36.1930   28.3060   33.9150 H   0  0  0  0  0  0  0  0  0  0  0  0
   39.9830   23.1120   36.6490 C   0  0  0  0  0  0  0  0  0  0  0  0
   39.3220   22.9850   37.9000 C   0  0  0  0  0  0  0  0  0  0  0  0
   38.2260   23.8290   38.1600 C   0  0  0  0  0  0  0  0  0  0  0  0
   37.8650   24.7190   37.1930 N   0  0  0  0  0  0  0  0  0  0  0  0
   38.5180   24.8040   36.0280 C   0  0  0  0  0  0  0  0  0  0  0  0
   39.5580   24.0210   35.7490 N   0  0  0  0  0  0  0  0  0  0  0  0
   40.8290   22.4860   36.4010 H   0  0  0  0  0  0  0  0  0  0  0  0
   39.6660   22.2530   38.6200 H   0  0  0  0  0  0  0  0  0  0  0  0
   37.7170   23.7430   39.1030 H   0  0  0  0  0  0  0  0  0  0  0  0
   37.8410   27.8860   31.5930 C   0  0  0  0  0  0  0  0  0  0  0  0
   38.7680   27.8870   30.6340 C   0  0  0  0  0  0  0  0  0  0  0  0
   39.6650   27.3230   30.8300 H   0  0  0  0  0  0  0  0  0  0  0  0
   38.5410   28.5810   29.4840 C   0  0  0  0  0  3  0  0  0  0  0  0
   37.3070   29.2810   29.3630 C   0  0  0  0  0  3  0  0  0  0  0  0
   36.4730   28.8900   31.0040 S   0  0  0  0  0  0  0  0  0  0  0  0
  1  2  2  0  0  0  0
  1 12  1  0  0  0  0
  2  6  1  0  0  0  0
  3  2  1  0  0  0  0
  4  5  1  0  0  0  0
  4  3  2  0  0  0  0
  5  1  1  0  0  0  0
  7  3  1  0  0  0  0
  8  9  1  0  0  0  0
  9 10  2  0  0  0  0
  9 15  1  0  0  0  0
 10 16  1  0  0  0  0
 11 10  1  0  0  0  0
 12 11  2  0  0  0  0
 13 12  1  0  0  0  0
 13  8  2  0  0  0  0
 14  8  1  0  0  0  0
 17  4  1  0  0  0  0
 18 19  1  0  0  0  0
 18 17  2  0  0  0  0
 20 18  1  0  0  0  0
 21 20  2  0  0  0  0
 21 22  1  0  0  0  0
 22 17  1  0  0  0  0
M  END
>  <minimizedAffinity>
-4.37639427

$$$$

 OpenBabel03262522493D

 22 24  0  0  0  0  0  0  0  0999 V2000
   36.4660   25.9190   31.6580 C   0  0  0  0  0  0  0  0  0  0  0  0
   37.4300   25.2850   32.3320 C   0  0  0  0  0  0  0  0  0  0  0  0
   37.4200   23.9270   32.4890 C   0  0  0  0  0  0  0  0  0  0  0  0
   36.3650   23.2900   31.9100 C   0  0  0  0  0  0  0  0  0  0  0  0
   35.4140   24.6320   31.1600 S   0  0  0  0  0  0  0  0  0  0  0  0
   38.2440   25.8980   32.7640 H   0  0  0  0  0  0  0  0  0  0  0  0
   38.1650   23.3520   33.0190 H   0  0  0  0  0  0  0  0  0  0  0  0
   36.7990   29.1480   30.0160 C   0  0  0  0  0  0  0  0  0  0  0  0
   35.9610   29.9860   30.7980 C   0  0  0  0  0  0  0  0  0  0  0  0
   35.2870   29.4150   31.8940 C   0  0  0  0  0  0  0  0  0  0  0  0
   35.4800   28.0880   32.1380 N   0  0  0  0  0  0  0  0  0  0  0  0
   36.2800   27.3350   31.3730 C   0  0  0  0  0  0  0  0  0  0  0  0
   36.9330   27.8440   30.3300 N   0  0  0  0  0  0  0  0  0  0  0  0
   37.3390   29.5390   29.1650 H   0  0  0  0  0  0  0  0  0  0  0  0
   35.8570   31.0340   30.5440 H   0  0  0  0  0  0  0  0  0  0  0  0
   34.6500   30.0390   32.4940 H   0  0  0  0  0  0  0  0  0  0  0  0
   35.9700   21.9200   31.8290 C   0  0  0  0  0  0  0  0  0  0  0  0
   34.9480   21.2120   32.3100 C   0  0  0  0  0  0  0  0  0  0  0  0
   34.2240   21.7480   32.9010 H   0  0  0  0  0  0  0  0  0  0  0  0
   34.8690   19.8790   32.0370 C   0  0  0  0  0  3  0  0  0  0  0  0
   35.9000   19.3020   31.2410 C   0  0  0  0  0  3  0  0  0  0  0  0
   37.0040   20.7860   30.8950 S   0  0  0  0  0  0  0  0  0  0  0  0
  1  2  2  0  0  0  0
  2  3  1  0  0  0  0
  2  6  1  0  0  0  0
  3  7  1  0  0  0  0
  4  3  2  0  0  0  0
  5  1  1  0  0  0  0
  5  4  1  0  0  0  0
  8 13  2  0  0  0  0
  8  9  1  0  0  0  0
  9 10  2  0  0  0  0
 10 11  1  0  0  0  0
 10 16  1  0  0  0  0
 12  1  1  0  0  0  0
 12 11  2  0  0  0  0
 13 12  1  0  0  0  0
 14  8  1  0  0  0  0
 15  9  1  0  0  0  0
 17  4  1  0  0  0  0
 17 18  2  0  0  0  0
 18 19  1  0  0  0  0
 20 18  1  0  0  0  0
 21 20  2  0  0  0  0
 22 21  1  0  0  0  0
 22 17  1  0  0  0  0
M  END
>  <minimizedAffinity>
-4.32235003

$$$$

 OpenBabel03262522493D

 22 24  0  0  0  0  0  0  0  0999 V2000
   36.3770   23.5600   31.8710 C   0  0  0  0  0  0  0  0  0  0  0  0
   37.3060   24.1890   32.5970 C   0  0  0  0  0  0  0  0  0  0  0  0
   37.3800   25.5540   32.6380 C   0  0  0  0  0  0  0  0  0  0  0  0
   36.4440   26.2020   31.8890 C   0  0  0  0  0  0  0  0  0  0  0  0
   35.4850   24.8610   31.1480 S   0  0  0  0  0  0  0  0  0  0  0  0
   38.0200   23.5670   33.1700 H   0  0  0  0  0  0  0  0  0  0  0  0
   38.1020   26.1250   33.2020 H   0  0  0  0  0  0  0  0  0  0  0  0
   36.7760   20.1380   30.7040 C   0  0  0  0  0  0  0  0  0  0  0  0
   35.6780   19.4700   31.3080 C   0  0  0  0  0  0  0  0  0  0  0  0
   34.8060   20.2220   32.1170 C   0  0  0  0  0  0  0  0  0  0  0  0
   35.0710   21.5500   32.2730 N   0  0  0  0  0  0  0  0  0  0  0  0
   36.1190   22.1390   31.6850 C   0  0  0  0  0  0  0  0  0  0  0  0
   36.9630   21.4560   30.9130 N   0  0  0  0  0  0  0  0  0  0  0  0
   37.4730   19.6040   30.0730 H   0  0  0  0  0  0  0  0  0  0  0  0
   35.5310   18.4100   31.1370 H   0  0  0  0  0  0  0  0  0  0  0  0
   33.9710   19.7280   32.5800 H   0  0  0  0  0  0  0  0  0  0  0  0
   36.1650   27.5810   31.6490 C   0  0  0  0  0  0  0  0  0  0  0  0
   35.4270   28.5070   32.2640 C   0  0  0  0  0  0  0  0  0  0  0  0
   34.9010   28.1940   33.1510 H   0  0  0  0  0  0  0  0  0  0  0  0
   35.3760   29.7690   31.7550 C   0  0  0  0  0  3  0  0  0  0  0  0
   36.1250   30.0400   30.5730 C   0  0  0  0  0  3  0  0  0  0  0  0
   36.9190   28.3700   30.2220 S   0  0  0  0  0  0  0  0  0  0  0  0
  1  2  2  0  0  0  0
  2  3  1  0  0  0  0
  2  6  1  0  0  0  0
  3  7  1  0  0  0  0
  4  3  2  0  0  0  0
  5  1  1  0  0  0  0
  5  4  1  0  0  0  0
  8 13  2  0  0  0  0
  8  9  1  0  0  0  0
  9 10  2  0  0  0  0
 10 11  1  0  0  0  0
 10 16  1  0  0  0  0
 12  1  1  0  0  0  0
 12 11  2  0  0  0  0
 13 12  1  0  0  0  0
 14  8  1  0  0  0  0
 15  9  1  0  0  0  0
 17  4  1  0  0  0  0
 17 18  2  0  0  0  0
 18 19  1  0  0  0  0
 20 18  1  0  0  0  0
 21 20  2  0  0  0  0
 22 21  1  0  0  0  0
 22 17  1  0  0  0  0
M  END
>  <minimizedAffinity>
-4.19919872

$$$$

 OpenBabel03262522493D

 22 24  0  0  0  0  0  0  0  0999 V2000
   37.6380   27.1030   33.1980 C   0  0  0  0  0  0  0  0  0  0  0  0
   38.6880   26.3700   32.8180 C   0  0  0  0  0  0  0  0  0  0  0  0
   39.2380   25.4270   33.6410 C   0  0  0  0  0  0  0  0  0  0  0  0
   38.6350   25.3040   34.8560 C   0  0  0  0  0  0  0  0  0  0  0  0
   37.3050   26.5270   34.8010 S   0  0  0  0  0  0  0  0  0  0  0  0
   39.1030   26.5500   31.8080 H   0  0  0  0  0  0  0  0  0  0  0  0
   40.0840   24.8010   33.3980 H   0  0  0  0  0  0  0  0  0  0  0  0
   36.6350   29.3820   30.5460 C   0  0  0  0  0  0  0  0  0  0  0  0
   35.5550   30.0930   31.1340 C   0  0  0  0  0  0  0  0  0  0  0  0
   35.1870   29.7700   32.4540 C   0  0  0  0  0  0  0  0  0  0  0  0
   35.8920   28.7920   33.0880 N   0  0  0  0  0  0  0  0  0  0  0  0
   36.9030   28.1460   32.4950 C   0  0  0  0  0  0  0  0  0  0  0  0
   37.2770   28.4270   31.2470 N   0  0  0  0  0  0  0  0  0  0  0  0
   36.9550   29.5940   29.5350 H   0  0  0  0  0  0  0  0  0  0  0  0
   35.0420   30.8610   30.5670 H   0  0  0  0  0  0  0  0  0  0  0  0
   34.3720   30.3020   32.9110 H   0  0  0  0  0  0  0  0  0  0  0  0
   38.8760   24.4700   35.9900 C   0  0  0  0  0  0  0  0  0  0  0  0
   38.2530   24.2670   37.1510 C   0  0  0  0  0  0  0  0  0  0  0  0
   37.3560   24.8390   37.3240 H   0  0  0  0  0  0  0  0  0  0  0  0
   38.7660   23.3710   38.0390 C   0  0  0  0  0  3  0  0  0  0  0  0
   39.9610   22.6850   37.6760 C   0  0  0  0  0  3  0  0  0  0  0  0
   40.3180   23.3990   35.9720 S   0  0  0  0  0  0  0  0  0  0  0  0
  1  5  1  0  0  0  0
  2  1  2  0  0  0  0
  2  3  1  0  0  0  0
  3  4  2  0  0  0  0
  4 17  1  0  0  0  0
  5  4  1  0  0  0  0
  6  2  1  0  0  0  0
  7  3  1  0  0  0  0
  8  9  2  0  0  0  0
  8 13  1  0  0  0  0
  9 10  1  0  0  0  0
 10 16  1  0  0  0  0
 10 11  2  0  0  0  0
 12 11  1  0  0  0  0
 12  1  1  0  0  0  0
 13 12  2  0  0  0  0
 14  8  1  0  0  0  0
 15  9  1  0  0  0  0
 17 18  2  0  0  0  0
 18 19  1  0  0  0  0
 18 20  1  0  0  0  0
 21 20  2  0  0  0  0
 22 17  1  0  0  0  0
 22 21  1  0  0  0  0
M  END
>  <minimizedAffinity>
-4.19108009

$$$$

 OpenBabel03262522493D

 22 24  0  0  0  0  0  0  0  0999 V2000
   37.4920   27.2710   34.0400 C   0  0  0  0  0  0  0  0  0  0  0  0
   37.7830   27.5030   35.3230 C   0  0  0  0  0  0  0  0  0  0  0  0
   38.4260   26.5730   36.0910 C   0  0  0  0  0  0  0  0  0  0  0  0
   38.7380   25.4140   35.4480 C   0  0  0  0  0  0  0  0  0  0  0  0
   38.1120   25.6720   33.7720 S   0  0  0  0  0  0  0  0  0  0  0  0
   37.4840   28.4800   35.7500 H   0  0  0  0  0  0  0  0  0  0  0  0
   38.6910   26.6950   37.1310 H   0  0  0  0  0  0  0  0  0  0  0  0
   35.1040   29.5990   32.5860 C   0  0  0  0  0  0  0  0  0  0  0  0
   35.5340   29.6870   31.2350 C   0  0  0  0  0  0  0  0  0  0  0  0
   36.6550   28.9300   30.8440 C   0  0  0  0  0  0  0  0  0  0  0  0
   37.2610   28.1580   31.7880 N   0  0  0  0  0  0  0  0  0  0  0  0
   36.8230   28.1050   33.0520 C   0  0  0  0  0  0  0  0  0  0  0  0
   35.7650   28.8080   33.4550 N   0  0  0  0  0  0  0  0  0  0  0  0
   34.2490   30.1600   32.9350 H   0  0  0  0  0  0  0  0  0  0  0  0
   35.0000   30.3230   30.5390 H   0  0  0  0  0  0  0  0  0  0  0  0
   36.9900   28.9880   29.8240 H   0  0  0  0  0  0  0  0  0  0  0  0
   39.3910   24.2120   35.8560 C   0  0  0  0  0  0  0  0  0  0  0  0
   39.2250   23.3520   36.8620 C   0  0  0  0  0  0  0  0  0  0  0  0
   38.4280   23.5690   37.5550 H   0  0  0  0  0  0  0  0  0  0  0  0
   40.0470   22.2710   36.9620 C   0  0  0  0  0  3  0  0  0  0  0  0
   41.0590   22.1120   35.9720 C   0  0  0  0  0  3  0  0  0  0  0  0
   40.7680   23.6100   34.8720 S   0  0  0  0  0  0  0  0  0  0  0  0
  1  2  2  0  0  0  0
  2  6  1  0  0  0  0
  2  3  1  0  0  0  0
  3  7  1  0  0  0  0
  4 17  1  0  0  0  0
  4  3  2  0  0  0  0
  5  1  1  0  0  0  0
  5  4  1  0  0  0  0
  8 14  1  0  0  0  0
  8 13  1  0  0  0  0
  9  8  2  0  0  0  0
 10  9  1  0  0  0  0
 10 11  2  0  0  0  0
 11 12  1  0  0  0  0
 12 13  2  0  0  0  0
 12  1  1  0  0  0  0
 15  9  1  0  0  0  0
 16 10  1  0  0  0  0
 17 18  2  0  0  0  0
 18 20  1  0  0  0  0
 18 19  1  0  0  0  0
 21 20  2  0  0  0  0
 22 17  1  0  0  0  0
 22 21  1  0  0  0  0
M  END
>  <minimizedAffinity>
-4.17633152

$$$$
