
 OpenBabel03272510133D

 38 41  0  0  0  0  0  0  0  0999 V2000
   37.8060   30.3080   49.4550 O   0  0  0  0  0  0  0  0  0  0  0  0
   34.0360   28.8330   48.2990 C   0  0  0  0  0  0  0  0  0  0  0  0
   34.6620   28.3750   49.4210 C   0  0  0  0  0  0  0  0  0  0  0  0
   35.8850   28.8080   49.8560 C   0  0  0  0  0  0  0  0  0  0  0  0
   36.5680   29.7610   49.1590 C   0  0  0  0  0  0  0  0  0  0  0  0
   35.9390   30.2400   48.0070 C   0  0  0  0  0  0  0  0  0  0  0  0
   34.7350   29.7910   47.6070 N   0  0  0  0  0  0  0  0  0  0  0  0
   34.1820   27.6200   50.0250 H   0  0  0  0  0  0  0  0  0  0  0  0
   36.3750   28.4380   50.7490 H   0  0  0  0  0  0  0  0  0  0  0  0
   36.4120   30.9980   47.3940 H   0  0  0  0  0  0  0  0  0  0  0  0
   31.9320   27.5270   48.5610 C   0  0  0  0  0  0  0  0  0  0  0  0
   32.7610   28.3920   47.8290 C   0  0  0  0  0  0  0  0  0  0  0  0
   32.2930   28.8130   46.6100 C   0  0  0  0  0  0  0  0  0  0  0  0
   31.0740   28.3880   46.1610 N   0  0  0  0  0  0  0  0  0  0  0  0
   30.3100   27.5440   46.9180 C   0  0  0  0  0  0  0  0  0  0  0  0
   30.7310   27.1080   48.1210 N   0  0  0  0  0  0  0  0  0  0  0  0
   32.2530   27.1690   49.5230 H   0  0  0  0  0  0  0  0  0  0  0  0
   32.9090   29.4830   46.0160 H   0  0  0  0  0  0  0  0  0  0  0  0
   29.3410   27.2000   46.5760 H   0  0  0  0  0  0  0  0  0  0  0  0
   38.3820   31.2950   48.6910 C   0  0  0  0  0  0  0  0  0  0  0  0
   38.4300   32.5280   49.3020 C   0  0  0  0  0  0  0  0  0  0  0  0
   39.0370   33.4160   48.4100 C   0  0  0  0  0  0  0  0  0  0  0  0
   39.3300   32.7190   47.3180 N   0  0  0  0  0  0  0  0  0  0  0  0
   38.9460   31.4920   47.4910 N   0  0  0  0  0  0  0  0  0  0  0  0
   38.1240   32.9510   50.2630 H   0  0  0  0  0  0  0  0  0  0  0  0
   39.2630   34.4730   48.5030 H   0  0  0  0  0  0  0  0  0  0  0  0
   39.9730   33.2120   46.1190 C   0  0  0  0  0  0  0  0  0  0  0  0
   40.0730   34.3100   46.1490 H   0  0  0  0  0  0  0  0  0  0  0  0
   40.9840   32.7340   46.0620 H   0  0  0  0  0  0  0  0  0  0  0  0
   39.1220   32.8800   44.9370 C   0  0  0  0  0  0  0  0  0  0  0  0
   38.1380   32.4920   45.3420 H   0  0  0  0  0  0  0  0  0  0  0  0
   38.8100   33.8550   44.4590 H   0  0  0  0  0  0  0  0  0  0  0  0
   39.6910   31.9620   43.9680 C   0  0  0  0  0  0  0  0  0  0  0  0
   40.5310   30.7400   43.8480 C   0  0  0  0  0  0  0  0  0  0  0  0
   40.8310   30.4200   44.8210 H   0  0  0  0  0  0  0  0  0  0  0  0
   40.7180   30.3190   42.5660 C   0  0  0  0  0  3  0  0  0  0  0  0
   40.1840   30.9550   41.4600 C   0  0  0  0  0  3  0  0  0  0  0  0
   39.2750   32.3440   42.1570 S   0  0  0  0  0  0  0  0  0  0  0  0
  2  3  1  0  0  0  0
  3  4  2  0  0  0  0
  3  8  1  0  0  0  0
  4  9  1  0  0  0  0
  5  1  1  0  0  0  0
  5  4  1  0  0  0  0
  6  5  2  0  0  0  0
  7  6  1  0  0  0  0
  7  2  2  0  0  0  0
 10  6  1  0  0  0  0
 11 17  1  0  0  0  0
 12  2  1  0  0  0  0
 12 11  2  0  0  0  0
 13 12  1  0  0  0  0
 14 13  2  0  0  0  0
 14 15  1  0  0  0  0
 15 16  2  0  0  0  0
 16 11  1  0  0  0  0
 18 13  1  0  0  0  0
 19 15  1  0  0  0  0
 20 21  1  0  0  0  0
 20  1  1  0  0  0  0
 21 25  1  0  0  0  0
 22 26  1  0  0  0  0
 22 21  2  0  0  0  0
 23 24  1  0  0  0  0
 23 22  1  0  0  0  0
 24 20  2  0  0  0  0
 27 28  1  0  0  0  0
 27 23  1  0  0  0  0
 29 27  1  0  0  0  0
 30 31  1  0  0  0  0
 30 27  1  0  0  0  0
 32 30  1  0  0  0  0
 33 30  1  0  0  0  0
 34 33  2  0  0  0  0
 34 35  1  0  0  0  0
 36 34  1  0  0  0  0
 37 38  1  0  0  0  0
 37 36  2  0  0  0  0
 38 33  1  0  0  0  0
M  END
>  <minimizedAffinity>
-5.98840046

>  <minimizedRMSD>
2.32851958

$$$$
