
 OpenBabel03262523233D

 30 32  0  0  1  0  0  0  0  0999 V2000
   39.5690   33.0420   44.5130 C   0  0  0  0  0  0  0  0  0  0  0  0
   40.4610   32.0340   44.1250 C   0  0  0  0  0  0  0  0  0  0  0  0
   40.5560   30.9030   44.9250 C   0  0  0  0  0  0  0  0  0  0  0  0
   39.7790   30.8340   46.0400 N   0  0  0  0  0  0  0  0  0  0  0  0
   38.9240   31.8250   46.3900 C   0  0  0  0  0  0  0  0  0  0  0  0
   38.8210   32.9220   45.6290 N   0  0  0  0  0  0  0  0  0  0  0  0
   38.1310   31.6840   47.5830 N   0  0  0  0  0  0  0  0  0  0  0  0
   37.9990   32.8100   48.4890 C   0  0  0  0  0  0  0  0  0  0  0  0
   37.8060   32.3930   49.9230 C   0  0  0  0  0  0  0  0  0  0  0  0
   38.3240   30.9780   50.0750 C   0  0  0  0  0  0  0  0  0  0  0  0
   37.3720   30.1070   49.3130 C   0  0  0  0  0  0  0  0  0  0  0  0
   37.4840   30.4110   47.8450 C   0  0  1  0  0  0  0  0  0  0  0  0
   39.5140   33.9160   43.8690 H   0  0  0  0  0  0  0  0  0  0  0  0
   41.0860   32.0690   43.2470 H   0  0  0  0  0  0  0  0  0  0  0  0
   41.2150   30.0610   44.7200 H   0  0  0  0  0  0  0  0  0  0  0  0
   39.0010   33.3260   48.4640 H   0  0  0  0  0  0  0  0  0  0  0  0
   37.2490   33.5530   48.1530 H   0  0  0  0  0  0  0  0  0  0  0  0
   36.7470   32.4040   50.1710 H   0  0  0  0  0  0  0  0  0  0  0  0
   38.4360   33.0090   50.6270 H   0  0  0  0  0  0  0  0  0  0  0  0
   39.3730   30.8620   49.7670 H   0  0  0  0  0  0  0  0  0  0  0  0
   38.2640   30.7560   51.1650 H   0  0  0  0  0  0  0  0  0  0  0  0
   36.3400   30.4030   49.6590 H   0  0  0  0  0  0  0  0  0  0  0  0
   37.4970   29.0310   49.5630 H   0  0  0  0  0  0  0  0  0  0  0  0
   38.1560   29.6350   47.4190 H   0  0  0  0  0  0  0  0  0  0  0  0
   36.1950   30.2950   47.1330 C   0  0  0  0  0  0  0  0  0  0  0  0
   34.9140   30.2500   47.7090 C   0  0  0  0  0  0  0  0  0  0  0  0
   34.8100   30.3030   48.7800 H   0  0  0  0  0  0  0  0  0  0  0  0
   33.8340   30.1370   46.8830 C   0  0  0  0  0  0  0  0  0  0  0  0
   34.0900   30.0710   45.4430 C   0  0  0  0  0  0  0  0  0  0  0  0
   35.9860   30.1870   45.4320 S   0  0  0  0  0  0  0  0  0  0  0  0
  1  6  1  0  0  0  0
  2  1  2  0  0  0  0
  2  3  1  0  0  0  0
  3  4  2  0  0  0  0
  4  5  1  0  0  0  0
  5  7  1  0  0  0  0
  6  5  2  0  0  0  0
  7 12  1  0  0  0  0
  7  8  1  0  0  0  0
  8  9  1  0  0  0  0
  9 10  1  0  0  0  0
  9 18  1  0  0  0  0
  9 19  1  0  0  0  0
 10 21  1  0  0  0  0
 11 23  1  0  0  0  0
 11 22  1  0  0  0  0
 11 10  1  0  0  0  0
 12 24  1  6  0  0  0
 12 11  1  0  0  0  0
 13  1  1  0  0  0  0
 14  2  1  0  0  0  0
 15  3  1  0  0  0  0
 16  8  1  0  0  0  0
 17  8  1  0  0  0  0
 20 10  1  0  0  0  0
 25 26  2  0  0  0  0
 25 12  1  0  0  0  0
 26 27  1  0  0  0  0
 28 26  1  0  0  0  0
 29 28  2  0  0  0  0
 30 29  1  0  0  0  0
 30 25  1  0  0  0  0
M  END
>  <minimizedAffinity>
-5.34773445

>  <minimizedRMSD>
3.2846117

$$$$
