
 OpenBabel03272508453D

 24 26  0  0  0  0  0  0  0  0999 V2000
   35.8340   30.1610   49.9550 C   0  0  0  0  0  0  0  0  0  0  0  0
   36.7020   29.8290   50.9650 C   0  0  0  0  0  0  0  0  0  0  0  0
   37.8160   30.6180   50.7120 C   0  0  0  0  0  0  0  0  0  0  0  0
   37.5740   31.3700   49.5900 C   0  0  0  0  0  0  0  0  0  0  0  0
   36.3840   31.0690   49.1690 O   0  0  0  0  0  0  0  0  0  0  0  0
   36.6110   29.1450   51.7750 H   0  0  0  0  0  0  0  0  0  0  0  0
   38.7600   30.7060   51.2370 H   0  0  0  0  0  0  0  0  0  0  0  0
   38.4030   32.3300   48.9260 C   0  0  0  0  0  0  0  0  0  0  0  0
   38.9110   33.5060   49.4150 C   0  0  0  0  0  0  0  0  0  0  0  0
   38.6870   33.7970   50.4310 H   0  0  0  0  0  0  0  0  0  0  0  0
   39.6920   34.3270   48.6600 C   0  0  0  0  0  0  0  0  0  0  0  0
   39.9580   33.8670   47.2820 C   0  0  0  0  0  0  0  0  0  0  0  0
   39.0160   32.2400   47.2190 S   0  0  0  0  0  0  0  0  0  0  0  0
   34.4890   29.5860   49.7790 C   0  0  0  0  0  0  0  0  0  0  0  0
   33.6730   29.7220   50.7190 O   0  0  0  0  0  0  0  0  0  0  0  0
   33.8380   26.8680   47.4680 C   0  0  0  0  0  0  0  0  0  0  0  0
   33.5350   27.5140   46.2680 C   0  0  0  0  0  0  0  0  0  0  0  0
   33.5510   28.8990   46.2460 C   0  0  0  0  0  0  0  0  0  0  0  0
   33.8620   29.5570   47.3930 N   0  0  0  0  0  0  0  0  0  0  0  0
   34.1520   28.8920   48.5400 C   0  0  0  0  0  0  0  0  0  0  0  0
   34.1390   27.5440   48.5750 N   0  0  0  0  0  0  0  0  0  0  0  0
   33.8220   25.7910   47.4710 H   0  0  0  0  0  0  0  0  0  0  0  0
   33.2850   26.9780   45.3510 H   0  0  0  0  0  0  0  0  0  0  0  0
   33.3280   29.4890   45.3580 H   0  0  0  0  0  0  0  0  0  0  0  0
  1  2  2  0  0  0  0
  2  6  1  0  0  0  0
  3  2  1  0  0  0  0
  3  7  1  0  0  0  0
  4  3  2  0  0  0  0
  5  4  1  0  0  0  0
  5  1  1  0  0  0  0
  8  9  2  0  0  0  0
  8  4  1  0  0  0  0
  9 10  1  0  0  0  0
 11  9  1  0  0  0  0
 12 11  2  0  0  0  0
 13 12  1  0  0  0  0
 13  8  1  0  0  0  0
 14  1  1  0  0  0  0
 14 15  2  0  0  0  0
 16 22  1  0  0  0  0
 16 21  1  0  0  0  0
 17 16  2  0  0  0  0
 18 17  1  0  0  0  0
 18 19  2  0  0  0  0
 19 20  1  0  0  0  0
 20 21  2  0  0  0  0
 20 14  1  0  0  0  0
 23 17  1  0  0  0  0
 24 18  1  0  0  0  0
M  END
>  <minimizedAffinity>
-5.36975813

>  <minimizedRMSD>
1.94121456

$$$$
