
 OpenBabel03272504223D

 36 38  0  0  1  0  0  0  0  0999 V2000
   36.8380   31.5870   48.6410 O   0  0  0  0  0  0  0  0  0  0  0  0
   38.8720   32.3930   47.8330 C   0  0  2  0  0  0  0  0  0  0  0  0
   38.1980   31.3850   48.7380 C   0  0  1  0  0  0  0  0  0  0  0  0
   38.7020   31.9260   50.0780 C   0  0  0  0  0  0  0  0  0  0  0  0
   38.3740   33.2730   49.9560 O   0  0  0  0  0  0  0  0  0  0  0  0
   38.6630   33.6550   48.6690 C   0  0  0  0  0  0  0  0  0  0  0  0
   39.9330   32.1480   47.7240 H   0  0  0  0  0  0  0  0  0  0  0  0
   38.5250   30.3460   48.5730 H   0  0  0  0  0  0  0  0  0  0  0  0
   39.7770   31.7430   50.1700 H   0  0  0  0  0  0  0  0  0  0  0  0
   38.0850   31.4530   50.8510 H   0  0  0  0  0  0  0  0  0  0  0  0
   39.5980   34.2620   48.6040 H   0  0  0  0  0  0  0  0  0  0  0  0
   37.8640   34.2990   48.2250 H   0  0  0  0  0  0  0  0  0  0  0  0
   38.1690   32.4280   46.6340 O   0  0  0  0  0  0  0  0  0  0  0  0
   38.7980   31.7860   45.5400 C   0  0  0  0  0  0  0  0  0  0  0  0
   40.1670   31.7970   45.2550 C   0  0  0  0  0  0  0  0  0  0  0  0
   40.8330   32.3350   45.9090 H   0  0  0  0  0  0  0  0  0  0  0  0
   40.6220   31.1290   44.1580 C   0  0  0  0  0  3  0  0  0  0  0  0
   39.6690   30.4310   43.3280 C   0  0  0  0  0  3  0  0  0  0  0  0
   38.1160   30.7300   44.1150 S   0  0  0  0  0  0  0  0  0  0  0  0
   35.9190   29.8380   46.9530 O   0  0  0  0  0  0  0  0  0  0  0  0
   35.9730   30.1660   48.4250 P   0  0  1  0  0  0  0  0  0  0  0  0
   36.7580   28.8770   49.2240 O   0  0  0  0  0  0  0  0  0  0  0  0
   37.4520   29.1870   49.8550 H   0  0  0  0  0  0  0  0  0  0  0  0
   34.4000   30.3380   49.0470 O   0  0  0  0  0  0  0  0  0  0  0  0
   34.1320   29.2010   49.7830 C   0  0  0  0  0  0  0  0  0  0  0  0
   33.6220   29.4760   50.7500 H   0  0  0  0  0  0  0  0  0  0  0  0
   35.0430   28.6610   50.1070 H   0  0  0  0  0  0  0  0  0  0  0  0
   33.2690   28.2280   49.0800 C   0  0  0  0  0  0  0  0  0  0  0  0
   33.8980   27.3330   48.2460 C   0  0  0  0  0  0  0  0  0  0  0  0
   33.1390   26.3890   47.5530 C   0  0  0  0  0  0  0  0  0  0  0  0
   31.7900   26.4130   47.7490 N   0  0  0  0  0  0  0  0  0  0  0  0
   31.1980   27.3000   48.5710 C   0  0  0  0  0  0  0  0  0  0  0  0
   31.9340   28.2150   49.2430 N   0  0  0  0  0  0  0  0  0  0  0  0
   34.9470   27.2360   48.0270 H   0  0  0  0  0  0  0  0  0  0  0  0
   33.5320   25.6540   46.8850 H   0  0  0  0  0  0  0  0  0  0  0  0
   30.1240   27.2310   48.6540 H   0  0  0  0  0  0  0  0  0  0  0  0
  1  3  1  0  0  0  0
  2  7  1  6  0  0  0
  2  6  1  0  0  0  0
  2  3  1  0  0  0  0
  3  8  1  6  0  0  0
  3  4  1  0  0  0  0
  4  9  1  0  0  0  0
  4 10  1  0  0  0  0
  5  4  1  0  0  0  0
  6  5  1  0  0  0  0
 11  6  1  0  0  0  0
 12  6  1  0  0  0  0
 13  2  1  0  0  0  0
 14 13  1  0  0  0  0
 15 14  2  0  0  0  0
 15 16  1  0  0  0  0
 17 15  1  0  0  0  0
 18 19  1  0  0  0  0
 18 17  2  0  0  0  0
 19 14  1  0  0  0  0
 21 20  2  6  0  0  0
 21  1  1  0  0  0  0
 21 24  1  0  0  0  0
 21 22  1  0  0  0  0
 22 23  1  0  0  0  0
 24 25  1  0  0  0  0
 25 27  1  0  0  0  0
 25 26  1  0  0  0  0
 28 33  1  0  0  0  0
 28 25  1  0  0  0  0
 29 28  2  0  0  0  0
 30 31  2  0  0  0  0
 30 29  1  0  0  0  0
 31 32  1  0  0  0  0
 32 36  1  0  0  0  0
 32 33  2  0  0  0  0
 34 29  1  0  0  0  0
 35 30  1  0  0  0  0
M  END
>  <minimizedAffinity>
-4.53298616

>  <minimizedRMSD>
0.430559009

$$$$
