
 OpenBabel03272502483D

 39 42  0  0  0  0  0  0  0  0999 V2000
   36.6110   30.6280   50.5440 C   0  0  0  0  0  0  0  0  0  0  0  0
   37.6190   31.3500   49.9130 C   0  0  0  0  0  0  0  0  0  0  0  0
   37.4860   31.5490   48.5450 C   0  0  0  0  0  0  0  0  0  0  0  0
   36.4030   31.0410   47.8930 N   0  0  0  0  0  0  0  0  0  0  0  0
   35.4520   30.3480   48.5530 C   0  0  0  0  0  0  0  0  0  0  0  0
   35.5700   30.1500   49.8720 N   0  0  0  0  0  0  0  0  0  0  0  0
   36.7280   30.4860   51.5920 H   0  0  0  0  0  0  0  0  0  0  0  0
   38.5000   31.7750   50.3840 H   0  0  0  0  0  0  0  0  0  0  0  0
   38.4820   32.2960   47.7560 C   0  0  0  0  0  0  0  0  0  0  0  0
   39.1810   33.3780   48.2260 C   0  0  0  0  0  0  0  0  0  0  0  0
   40.0230   33.8580   47.2810 N   0  0  0  0  0  0  0  0  0  0  0  0
   39.8580   33.0790   46.2140 C   0  0  0  0  0  0  0  0  0  0  0  0
   38.9320   32.1500   46.5170 N   0  0  0  0  0  0  0  0  0  0  0  0
   40.6020   31.8360   44.2540 C   0  0  0  0  0  0  0  0  0  0  0  0
   40.2010   30.7860   44.7850 O   0  0  0  0  0  0  0  0  0  0  0  0
   40.4640   33.0950   44.9320 N   0  0  0  0  0  0  0  0  0  0  0  0
   39.1110   33.8410   49.2230 H   0  0  0  0  0  0  0  0  0  0  0  0
   40.6850   34.6600   47.3180 H   0  0  0  0  0  0  0  0  0  0  0  0
   41.0720   31.7870   43.2430 H   0  0  0  0  0  0  0  0  0  0  0  0
   40.8110   33.9600   44.4610 H   0  0  0  0  0  0  0  0  0  0  0  0
   34.4800   27.6910   49.4480 Cl  0  0  0  0  0  0  0  0  0  0  0  0
   33.7800   28.5980   48.1380 C   0  0  0  0  0  0  0  0  0  0  0  0
   34.3030   29.8210   47.7990 C   0  0  0  0  0  0  0  0  0  0  0  0
   33.7770   30.5600   46.7750 C   0  0  0  0  0  0  0  0  0  0  0  0
   32.7070   30.1030   46.0510 C   0  0  0  0  0  0  0  0  0  0  0  0
   32.1550   28.8850   46.3580 C   0  0  0  0  0  0  0  0  0  0  0  0
   30.7870   28.2010   45.5010 Cl  0  0  0  0  0  0  0  0  0  0  0  0
   32.7170   28.1700   47.3990 C   0  0  0  0  0  0  0  0  0  0  0  0
   34.2130   31.5280   46.5290 H   0  0  0  0  0  0  0  0  0  0  0  0
   32.1390   30.8590   44.9730 C   0  0  0  0  0  0  0  0  0  0  0  0
   31.2000   31.9060   45.0520 C   0  0  0  0  0  0  0  0  0  0  0  0
   30.8370   32.2100   46.0210 H   0  0  0  0  0  0  0  0  0  0  0  0
   30.8100   32.4730   43.8650 C   0  0  0  0  0  0  0  0  0  0  0  0
   31.3670   31.9730   42.6780 C   0  0  0  0  0  0  0  0  0  0  0  0
   32.4580   30.6810   43.2800 S   0  0  0  0  0  0  0  0  0  0  0  0
   32.1240   26.8410   47.7450 C   0  0  0  0  0  0  0  0  0  0  0  0
   33.1370   25.8770   47.8430 F   0  0  0  0  0  0  0  0  0  0  0  0
   31.3200   26.3800   46.6940 F   0  0  0  0  0  0  0  0  0  0  0  0
   31.3490   26.8760   48.8750 F   0  0  0  0  0  0  0  0  0  0  0  0
  1  7  1  0  0  0  0
  2  8  1  0  0  0  0
  2  1  1  0  0  0  0
  3  2  2  0  0  0  0
  4  3  1  0  0  0  0
  4  5  2  0  0  0  0
  5  6  1  0  0  0  0
  6  1  2  0  0  0  0
  9 10  2  0  0  0  0
  9  3  1  0  0  0  0
 10 17  1  0  0  0  0
 11 18  1  0  0  0  0
 11 10  1  0  0  0  0
 12 13  2  0  0  0  0
 12 11  1  0  0  0  0
 13  9  1  0  0  0  0
 14 15  2  0  0  0  0
 14 16  1  0  0  0  0
 16 12  1  0  0  0  0
 19 14  1  0  0  0  0
 20 16  1  0  0  0  0
 22 21  1  0  0  0  0
 23 22  1  0  0  0  0
 23  5  1  0  0  0  0
 24 23  2  0  0  0  0
 25 26  2  0  0  0  0
 25 24  1  0  0  0  0
 26 28  1  0  0  0  0
 27 26  1  0  0  0  0
 28 36  1  0  0  0  0
 28 22  2  0  0  0  0
 29 24  1  0  0  0  0
 30 31  2  0  0  0  0
 30 25  1  0  0  0  0
 31 32  1  0  0  0  0
 33 31  1  0  0  0  0
 34 35  1  0  0  0  0
 34 33  2  0  0  0  0
 35 30  1  0  0  0  0
 36 37  1  0  0  0  0
 36 39  1  0  0  0  0
 38 36  1  0  0  0  0
M  END
>  <minimizedAffinity>
-6.77446318

>  <minimizedRMSD>
0.274059087

$$$$
