
 OpenBabel03272508053D

 32 35  0  0  0  0  0  0  0  0999 V2000
   38.9040   30.8960   45.7820 C   0  0  0  0  0  0  0  0  0  0  0  0
   40.0870   31.5760   46.0350 C   0  0  0  0  0  0  0  0  0  0  0  0
   40.9170   31.5080   44.9270 C   0  0  0  0  0  0  0  0  0  0  0  0
   40.1910   30.7770   44.0330 N   0  0  0  0  0  0  0  0  0  0  0  0
   39.0150   30.4150   44.5230 N   0  0  0  0  0  0  0  0  0  0  0  0
   40.3500   32.0910   46.9440 H   0  0  0  0  0  0  0  0  0  0  0  0
   41.8990   31.9100   44.7550 H   0  0  0  0  0  0  0  0  0  0  0  0
   37.7850   30.7450   46.6930 C   0  0  0  0  0  0  0  0  0  0  0  0
   38.0020   30.9600   48.0770 C   0  0  0  0  0  0  0  0  0  0  0  0
   36.9100   30.8090   48.9290 C   0  0  0  0  0  0  0  0  0  0  0  0
   35.7080   30.4690   48.3910 N   0  0  0  0  0  0  0  0  0  0  0  0
   35.5250   30.2680   47.0620 C   0  0  0  0  0  0  0  0  0  0  0  0
   36.5720   30.4090   46.2250 N   0  0  0  0  0  0  0  0  0  0  0  0
   38.9820   31.2300   48.4480 H   0  0  0  0  0  0  0  0  0  0  0  0
   34.5300   29.9990   46.7350 H   0  0  0  0  0  0  0  0  0  0  0  0
   37.1220   31.0340   50.3930 C   0  0  0  0  0  0  0  0  0  0  0  0
   36.5980   32.2810   50.6430 F   0  0  0  0  0  0  0  0  0  0  0  0
   36.4390   30.1070   51.1700 F   0  0  0  0  0  0  0  0  0  0  0  0
   38.4620   31.0460   50.7280 F   0  0  0  0  0  0  0  0  0  0  0  0
   40.5720   30.3940   42.6830 C   0  0  0  0  0  0  0  0  0  0  0  0
   40.2200   31.1800   41.5730 C   0  0  0  0  0  0  0  0  0  0  0  0
   40.6050   30.8000   40.3270 C   0  0  0  0  0  0  0  0  0  0  0  0
   41.3570   29.6090   40.1760 C   0  0  0  0  0  0  0  0  0  0  0  0
   41.5040   29.0300   41.9280 S   0  0  0  0  0  0  0  0  0  0  0  0
   39.6340   32.1080   41.6670 H   0  0  0  0  0  0  0  0  0  0  0  0
   40.4120   31.2950   39.3900 H   0  0  0  0  0  0  0  0  0  0  0  0
   41.9030   28.9220   39.1610 C   0  0  0  0  0  0  0  0  0  0  0  0
   41.7440   27.6670   38.6580 C   0  0  0  0  0  0  0  0  0  0  0  0
   41.0280   27.0240   39.1400 H   0  0  0  0  0  0  0  0  0  0  0  0
   42.4880   27.2920   37.5840 C   0  0  0  0  0  3  0  0  0  0  0  0
   43.4280   28.2140   36.9940 C   0  0  0  0  0  3  0  0  0  0  0  0
   43.1820   29.7080   38.1010 S   0  0  0  0  0  0  0  0  0  0  0  0
  1  2  1  0  0  0  0
  1  8  1  0  0  0  0
  2  6  1  0  0  0  0
  3  2  2  0  0  0  0
  4  5  1  0  0  0  0
  4  3  1  0  0  0  0
  5  1  2  0  0  0  0
  7  3  1  0  0  0  0
  8  9  1  0  0  0  0
  9 14  1  0  0  0  0
  9 10  2  0  0  0  0
 10 16  1  0  0  0  0
 11 10  1  0  0  0  0
 12 11  2  0  0  0  0
 13  8  2  0  0  0  0
 13 12  1  0  0  0  0
 15 12  1  0  0  0  0
 16 17  1  0  0  0  0
 16 19  1  0  0  0  0
 16 18  1  0  0  0  0
 20  4  1  0  0  0  0
 21 25  1  0  0  0  0
 21 20  2  0  0  0  0
 22 21  1  0  0  0  0
 23 22  2  0  0  0  0
 23 24  1  0  0  0  0
 24 20  1  0  0  0  0
 26 22  1  0  0  0  0
 27 23  1  0  0  0  0
 28 29  1  0  0  0  0
 28 27  2  0  0  0  0
 30 28  1  0  0  0  0
 31 30  2  0  0  0  0
 31 32  1  0  0  0  0
 32 27  1  0  0  0  0
M  END
>  <minimizedAffinity>
-6.26004028

>  <minimizedRMSD>
0.501114488

$$$$
