
 OpenBabel03272510133D

 38 41  0  0  0  0  0  0  0  0999 V2000
   37.5710   30.7950   49.7730 O   0  0  0  0  0  0  0  0  0  0  0  0
   34.0750   28.8820   48.4170 C   0  0  0  0  0  0  0  0  0  0  0  0
   34.8290   28.3490   49.4200 C   0  0  0  0  0  0  0  0  0  0  0  0
   35.9750   28.9150   49.9110 C   0  0  0  0  0  0  0  0  0  0  0  0
   36.4380   30.0910   49.3970 C   0  0  0  0  0  0  0  0  0  0  0  0
   35.6750   30.6480   48.3690 C   0  0  0  0  0  0  0  0  0  0  0  0
   34.5530   30.0640   47.9100 N   0  0  0  0  0  0  0  0  0  0  0  0
   34.5250   27.4190   49.8770 H   0  0  0  0  0  0  0  0  0  0  0  0
   36.5680   28.4840   50.7090 H   0  0  0  0  0  0  0  0  0  0  0  0
   35.9720   31.5810   47.9050 H   0  0  0  0  0  0  0  0  0  0  0  0
   31.9490   27.6110   48.6850 C   0  0  0  0  0  0  0  0  0  0  0  0
   32.8770   28.3050   47.8910 C   0  0  0  0  0  0  0  0  0  0  0  0
   32.5890   28.4150   46.5560 C   0  0  0  0  0  0  0  0  0  0  0  0
   31.4440   27.8610   46.0550 N   0  0  0  0  0  0  0  0  0  0  0  0
   30.5770   27.1950   46.8760 C   0  0  0  0  0  0  0  0  0  0  0  0
   30.8220   27.0650   48.1940 N   0  0  0  0  0  0  0  0  0  0  0  0
   32.1290   27.4990   49.7390 H   0  0  0  0  0  0  0  0  0  0  0  0
   33.2850   28.9450   45.9110 H   0  0  0  0  0  0  0  0  0  0  0  0
   29.6660   26.7510   46.4930 H   0  0  0  0  0  0  0  0  0  0  0  0
   38.2530   31.6180   48.9080 C   0  0  0  0  0  0  0  0  0  0  0  0
   38.4430   32.8980   49.3770 C   0  0  0  0  0  0  0  0  0  0  0  0
   39.1440   33.6050   48.3960 C   0  0  0  0  0  0  0  0  0  0  0  0
   39.3510   32.7600   47.3920 N   0  0  0  0  0  0  0  0  0  0  0  0
   38.8310   31.6120   47.6990 N   0  0  0  0  0  0  0  0  0  0  0  0
   38.1910   33.4590   50.2800 H   0  0  0  0  0  0  0  0  0  0  0  0
   39.4890   34.6330   48.3710 H   0  0  0  0  0  0  0  0  0  0  0  0
   40.0420   33.0380   46.1510 C   0  0  0  0  0  0  0  0  0  0  0  0
   40.3620   34.0920   46.1060 H   0  0  0  0  0  0  0  0  0  0  0  0
   40.9330   32.3610   46.1060 H   0  0  0  0  0  0  0  0  0  0  0  0
   39.1040   32.8150   45.0100 C   0  0  0  0  0  0  0  0  0  0  0  0
   38.0550   32.9040   45.4280 H   0  0  0  0  0  0  0  0  0  0  0  0
   39.1670   33.7200   44.3370 H   0  0  0  0  0  0  0  0  0  0  0  0
   39.2720   31.5780   44.2670 C   0  0  0  0  0  0  0  0  0  0  0  0
   39.2160   30.0990   44.4070 C   0  0  0  0  0  0  0  0  0  0  0  0
   38.9670   29.8460   45.4130 H   0  0  0  0  0  0  0  0  0  0  0  0
   39.4810   29.4230   43.2520 C   0  0  0  0  0  3  0  0  0  0  0  0
   39.7790   30.0370   42.0510 C   0  0  0  0  0  3  0  0  0  0  0  0
   39.7140   31.7950   42.4360 S   0  0  0  0  0  0  0  0  0  0  0  0
  2  3  1  0  0  0  0
  3  8  1  0  0  0  0
  3  4  2  0  0  0  0
  4  9  1  0  0  0  0
  5  1  1  0  0  0  0
  5  4  1  0  0  0  0
  6  5  2  0  0  0  0
  7  6  1  0  0  0  0
  7  2  2  0  0  0  0
 10  6  1  0  0  0  0
 11 17  1  0  0  0  0
 12  2  1  0  0  0  0
 12 11  2  0  0  0  0
 13 12  1  0  0  0  0
 14 13  2  0  0  0  0
 14 15  1  0  0  0  0
 15 16  2  0  0  0  0
 16 11  1  0  0  0  0
 18 13  1  0  0  0  0
 19 15  1  0  0  0  0
 20 21  1  0  0  0  0
 20  1  1  0  0  0  0
 21 25  1  0  0  0  0
 22 21  2  0  0  0  0
 23 24  1  0  0  0  0
 23 22  1  0  0  0  0
 24 20  2  0  0  0  0
 26 22  1  0  0  0  0
 27 23  1  0  0  0  0
 28 27  1  0  0  0  0
 29 27  1  0  0  0  0
 30 31  1  0  0  0  0
 30 27  1  0  0  0  0
 32 30  1  0  0  0  0
 33 34  2  0  0  0  0
 33 30  1  0  0  0  0
 34 35  1  0  0  0  0
 36 34  1  0  0  0  0
 37 38  1  0  0  0  0
 37 36  2  0  0  0  0
 38 33  1  0  0  0  0
M  END
>  <minimizedAffinity>
-5.88498974

>  <minimizedRMSD>
2.34522557

$$$$
