
 OpenBabel03272508033D

 25 27  0  0  0  0  0  0  0  0999 V2000
   37.4160   26.5450   34.2920 C   0  0  0  0  0  0  0  0  0  0  0  0
   37.4460   26.9080   32.9620 C   0  0  0  0  0  0  0  0  0  0  0  0
   36.7340   28.0840   32.7580 C   0  0  0  0  0  0  0  0  0  0  0  0
   36.2930   28.3940   34.0000 N   0  0  0  0  0  0  0  0  0  0  0  0
   36.6860   27.5030   34.8940 N   0  0  0  0  0  0  0  0  0  0  0  0
   37.9400   26.3820   32.1580 H   0  0  0  0  0  0  0  0  0  0  0  0
   36.5400   28.6620   31.8650 H   0  0  0  0  0  0  0  0  0  0  0  0
   38.0400   25.3830   34.9010 C   0  0  0  0  0  0  0  0  0  0  0  0
   37.8630   25.1840   36.2950 C   0  0  0  0  0  0  0  0  0  0  0  0
   38.4680   24.0660   36.8660 C   0  0  0  0  0  0  0  0  0  0  0  0
   39.1870   23.2350   36.0620 N   0  0  0  0  0  0  0  0  0  0  0  0
   39.3390   23.4500   34.7370 C   0  0  0  0  0  0  0  0  0  0  0  0
   38.7590   24.5290   34.1700 N   0  0  0  0  0  0  0  0  0  0  0  0
   37.2870   25.8540   36.9200 H   0  0  0  0  0  0  0  0  0  0  0  0
   39.9250   22.7500   34.1500 H   0  0  0  0  0  0  0  0  0  0  0  0
   38.2930   23.8380   38.3310 C   0  0  0  0  0  0  0  0  0  0  0  0
   39.4910   23.3580   38.7830 F   0  0  0  0  0  0  0  0  0  0  0  0
   37.9950   25.0180   39.0110 F   0  0  0  0  0  0  0  0  0  0  0  0
   37.3000   22.9000   38.5930 F   0  0  0  0  0  0  0  0  0  0  0  0
   35.4810   29.5390   34.4070 C   0  0  0  0  0  0  0  0  0  0  0  0
   36.0100   30.5470   35.2550 C   0  0  0  0  0  0  0  0  0  0  0  0
   37.0190   30.5220   35.6380 H   0  0  0  0  0  0  0  0  0  0  0  0
   35.2220   31.5870   35.6060 C   0  0  0  0  0  3  0  0  0  0  0  0
   33.8610   31.6520   35.1100 C   0  0  0  0  0  3  0  0  0  0  0  0
   33.7700   30.0900   34.0820 S   0  0  0  0  0  0  0  0  0  0  0  0
  1  5  2  0  0  0  0
  1  8  1  0  0  0  0
  2  1  1  0  0  0  0
  3  2  2  0  0  0  0
  3  4  1  0  0  0  0
  4 20  1  0  0  0  0
  4  5  1  0  0  0  0
  6  2  1  0  0  0  0
  7  3  1  0  0  0  0
  8  9  1  0  0  0  0
  9 10  2  0  0  0  0
  9 14  1  0  0  0  0
 10 16  1  0  0  0  0
 11 10  1  0  0  0  0
 12 11  2  0  0  0  0
 13 12  1  0  0  0  0
 13  8  2  0  0  0  0
 15 12  1  0  0  0  0
 16 19  1  0  0  0  0
 16 17  1  0  0  0  0
 16 18  1  0  0  0  0
 20 21  2  0  0  0  0
 21 23  1  0  0  0  0
 21 22  1  0  0  0  0
 24 23  2  0  0  0  0
 25 20  1  0  0  0  0
 25 24  1  0  0  0  0
M  END
>  <minimizedAffinity>
-5.67677689

$$$$

 OpenBabel03272508033D

 25 27  0  0  0  0  0  0  0  0999 V2000
   37.7150   26.0090   34.1470 C   0  0  0  0  0  0  0  0  0  0  0  0
   37.0000   27.0890   34.6180 C   0  0  0  0  0  0  0  0  0  0  0  0
   36.8440   28.0460   33.6200 C   0  0  0  0  0  0  0  0  0  0  0  0
   37.4840   27.4930   32.5630 N   0  0  0  0  0  0  0  0  0  0  0  0
   37.9910   26.3100   32.8640 N   0  0  0  0  0  0  0  0  0  0  0  0
   36.5990   27.2190   35.6120 H   0  0  0  0  0  0  0  0  0  0  0  0
   36.3500   29.0080   33.6170 H   0  0  0  0  0  0  0  0  0  0  0  0
   38.0840   24.8100   34.8830 C   0  0  0  0  0  0  0  0  0  0  0  0
   37.9830   24.8390   36.2980 C   0  0  0  0  0  0  0  0  0  0  0  0
   38.3410   23.6840   36.9910 C   0  0  0  0  0  0  0  0  0  0  0  0
   38.7610   22.6040   36.2780 N   0  0  0  0  0  0  0  0  0  0  0  0
   38.8470   22.6060   34.9290 C   0  0  0  0  0  0  0  0  0  0  0  0
   38.5040   23.7170   34.2450 N   0  0  0  0  0  0  0  0  0  0  0  0
   37.6460   25.7080   36.8500 H   0  0  0  0  0  0  0  0  0  0  0  0
   39.1900   21.7110   34.4180 H   0  0  0  0  0  0  0  0  0  0  0  0
   38.2420   23.6940   38.4800 C   0  0  0  0  0  0  0  0  0  0  0  0
   39.4890   23.3770   38.9420 F   0  0  0  0  0  0  0  0  0  0  0  0
   37.8840   24.9480   38.9720 F   0  0  0  0  0  0  0  0  0  0  0  0
   37.3320   22.7490   38.9440 F   0  0  0  0  0  0  0  0  0  0  0  0
   37.6490   28.0470   31.2220 C   0  0  0  0  0  0  0  0  0  0  0  0
   36.8710   29.1500   30.7830 C   0  0  0  0  0  0  0  0  0  0  0  0
   36.1300   29.6290   31.4040 H   0  0  0  0  0  0  0  0  0  0  0  0
   37.0590   29.6280   29.5330 C   0  0  0  0  0  3  0  0  0  0  0  0
   38.0470   29.0100   28.6720 C   0  0  0  0  0  3  0  0  0  0  0  0
   38.7120   27.6600   29.7870 S   0  0  0  0  0  0  0  0  0  0  0  0
  1  2  1  0  0  0  0
  1  8  1  0  0  0  0
  2  6  1  0  0  0  0
  3  2  2  0  0  0  0
  4  5  1  0  0  0  0
  4  3  1  0  0  0  0
  5  1  2  0  0  0  0
  7  3  1  0  0  0  0
  8  9  1  0  0  0  0
  9 14  1  0  0  0  0
  9 10  2  0  0  0  0
 10 16  1  0  0  0  0
 11 10  1  0  0  0  0
 12 11  2  0  0  0  0
 13  8  2  0  0  0  0
 13 12  1  0  0  0  0
 15 12  1  0  0  0  0
 16 17  1  0  0  0  0
 16 19  1  0  0  0  0
 16 18  1  0  0  0  0
 20  4  1  0  0  0  0
 21 20  2  0  0  0  0
 21 22  1  0  0  0  0
 23 21  1  0  0  0  0
 24 23  2  0  0  0  0
 24 25  1  0  0  0  0
 25 20  1  0  0  0  0
M  END
>  <minimizedAffinity>
-5.56356382

$$$$

 OpenBabel03272508033D

 25 27  0  0  0  0  0  0  0  0999 V2000
   37.6540   25.1360   33.7760 C   0  0  0  0  0  0  0  0  0  0  0  0
   37.3000   24.8930   32.4660 C   0  0  0  0  0  0  0  0  0  0  0  0
   36.7580   26.0340   31.8850 C   0  0  0  0  0  0  0  0  0  0  0  0
   36.8080   26.9420   32.8880 N   0  0  0  0  0  0  0  0  0  0  0  0
   37.3280   26.4250   33.9880 N   0  0  0  0  0  0  0  0  0  0  0  0
   37.4090   23.9630   31.9260 H   0  0  0  0  0  0  0  0  0  0  0  0
   36.3750   26.2230   30.8910 H   0  0  0  0  0  0  0  0  0  0  0  0
   38.2500   24.1990   34.7140 C   0  0  0  0  0  0  0  0  0  0  0  0
   38.0080   24.3960   36.0980 C   0  0  0  0  0  0  0  0  0  0  0  0
   38.5860   23.4910   36.9860 C   0  0  0  0  0  0  0  0  0  0  0  0
   39.3420   22.4790   36.4810 N   0  0  0  0  0  0  0  0  0  0  0  0
   39.5560   22.3160   35.1560 C   0  0  0  0  0  0  0  0  0  0  0  0
   39.0020   23.1840   34.2850 N   0  0  0  0  0  0  0  0  0  0  0  0
   37.4030   25.2070   36.4840 H   0  0  0  0  0  0  0  0  0  0  0  0
   40.1690   21.4880   34.8160 H   0  0  0  0  0  0  0  0  0  0  0  0
   38.3440   23.6810   38.4470 C   0  0  0  0  0  0  0  0  0  0  0  0
   37.9090   24.9680   38.5920 F   0  0  0  0  0  0  0  0  0  0  0  0
   37.3630   22.8160   38.9300 F   0  0  0  0  0  0  0  0  0  0  0  0
   39.5070   23.5070   39.1910 F   0  0  0  0  0  0  0  0  0  0  0  0
   36.3720   28.3360   32.8630 C   0  0  0  0  0  0  0  0  0  0  0  0
   36.5910   29.1520   31.7220 C   0  0  0  0  0  0  0  0  0  0  0  0
   37.0820   28.7940   30.8300 H   0  0  0  0  0  0  0  0  0  0  0  0
   36.1700   30.4350   31.7450 C   0  0  0  0  0  3  0  0  0  0  0  0
   35.5060   30.9500   32.9260 C   0  0  0  0  0  3  0  0  0  0  0  0
   35.5190   29.4430   34.0390 S   0  0  0  0  0  0  0  0  0  0  0  0
  1  5  2  0  0  0  0
  1  8  1  0  0  0  0
  2  1  1  0  0  0  0
  3  2  2  0  0  0  0
  3  4  1  0  0  0  0
  4  5  1  0  0  0  0
  6  2  1  0  0  0  0
  7  3  1  0  0  0  0
  8  9  1  0  0  0  0
  9 14  1  0  0  0  0
  9 10  2  0  0  0  0
 10 16  1  0  0  0  0
 11 10  1  0  0  0  0
 12 11  2  0  0  0  0
 13  8  2  0  0  0  0
 13 12  1  0  0  0  0
 15 12  1  0  0  0  0
 16 17  1  0  0  0  0
 16 18  1  0  0  0  0
 16 19  1  0  0  0  0
 20  4  1  0  0  0  0
 20 25  1  0  0  0  0
 21 23  1  0  0  0  0
 21 20  2  0  0  0  0
 22 21  1  0  0  0  0
 23 24  2  0  0  0  0
 24 25  1  0  0  0  0
M  END
>  <minimizedAffinity>
-5.42105961

$$$$

 OpenBabel03272508033D

 25 27  0  0  0  0  0  0  0  0999 V2000
   37.9280   25.1490   34.9260 C   0  0  0  0  0  0  0  0  0  0  0  0
   37.9350   24.7420   33.6090 C   0  0  0  0  0  0  0  0  0  0  0  0
   37.3980   25.7280   32.7890 C   0  0  0  0  0  0  0  0  0  0  0  0
   37.0820   26.7130   33.6620 N   0  0  0  0  0  0  0  0  0  0  0  0
   37.3880   26.3810   34.9040 N   0  0  0  0  0  0  0  0  0  0  0  0
   38.2960   23.8000   33.2230 H   0  0  0  0  0  0  0  0  0  0  0  0
   37.2420   25.7680   31.7190 H   0  0  0  0  0  0  0  0  0  0  0  0
   38.4040   24.4030   36.0790 C   0  0  0  0  0  0  0  0  0  0  0  0
   39.6100   23.6670   35.9460 C   0  0  0  0  0  0  0  0  0  0  0  0
   40.0550   22.9550   37.0590 C   0  0  0  0  0  0  0  0  0  0  0  0
   39.3150   23.0060   38.2000 N   0  0  0  0  0  0  0  0  0  0  0  0
   38.1690   23.7160   38.2980 C   0  0  0  0  0  0  0  0  0  0  0  0
   37.7270   24.4100   37.2280 N   0  0  0  0  0  0  0  0  0  0  0  0
   40.1880   23.6370   35.0310 H   0  0  0  0  0  0  0  0  0  0  0  0
   37.6240   23.7170   39.2360 H   0  0  0  0  0  0  0  0  0  0  0  0
   41.3220   22.1740   36.9400 C   0  0  0  0  0  0  0  0  0  0  0  0
   41.3460   21.3310   38.0150 F   0  0  0  0  0  0  0  0  0  0  0  0
   41.3590   21.4160   35.7710 F   0  0  0  0  0  0  0  0  0  0  0  0
   42.4420   22.9980   36.9820 F   0  0  0  0  0  0  0  0  0  0  0  0
   36.4780   28.0120   33.3720 C   0  0  0  0  0  0  0  0  0  0  0  0
   36.0340   28.8630   34.4180 C   0  0  0  0  0  0  0  0  0  0  0  0
   36.1180   28.6020   35.4620 H   0  0  0  0  0  0  0  0  0  0  0  0
   35.4810   30.0550   34.1020 C   0  0  0  0  0  3  0  0  0  0  0  0
   35.3540   30.4380   32.7100 C   0  0  0  0  0  3  0  0  0  0  0  0
   36.0940   28.9470   31.8510 S   0  0  0  0  0  0  0  0  0  0  0  0
  1  8  1  0  0  0  0
  2  1  1  0  0  0  0
  3  2  2  0  0  0  0
  3  4  1  0  0  0  0
  4  5  1  0  0  0  0
  5  1  2  0  0  0  0
  6  2  1  0  0  0  0
  7  3  1  0  0  0  0
  8 13  1  0  0  0  0
  9  8  2  0  0  0  0
  9 10  1  0  0  0  0
 10 11  2  0  0  0  0
 11 12  1  0  0  0  0
 12 15  1  0  0  0  0
 13 12  2  0  0  0  0
 14  9  1  0  0  0  0
 16 19  1  0  0  0  0
 16 10  1  0  0  0  0
 16 17  1  0  0  0  0
 18 16  1  0  0  0  0
 20  4  1  0  0  0  0
 20 21  2  0  0  0  0
 21 22  1  0  0  0  0
 23 21  1  0  0  0  0
 24 23  2  0  0  0  0
 25 24  1  0  0  0  0
 25 20  1  0  0  0  0
M  END
>  <minimizedAffinity>
-5.33469486

$$$$

 OpenBabel03272508033D

 25 27  0  0  0  0  0  0  0  0999 V2000
   37.0020   26.7510   33.6490 C   0  0  0  0  0  0  0  0  0  0  0  0
   37.3560   25.7640   32.7540 C   0  0  0  0  0  0  0  0  0  0  0  0
   37.9600   24.6990   33.4120 C   0  0  0  0  0  0  0  0  0  0  0  0
   37.9460   25.0910   34.7080 N   0  0  0  0  0  0  0  0  0  0  0  0
   37.3900   26.2830   34.8500 N   0  0  0  0  0  0  0  0  0  0  0  0
   37.2060   25.7740   31.6840 H   0  0  0  0  0  0  0  0  0  0  0  0
   38.3620   23.7630   33.0490 H   0  0  0  0  0  0  0  0  0  0  0  0
   36.3500   28.0150   33.3510 C   0  0  0  0  0  0  0  0  0  0  0  0
   36.1340   28.9220   34.4210 C   0  0  0  0  0  0  0  0  0  0  0  0
   35.5070   30.1310   34.1220 C   0  0  0  0  0  0  0  0  0  0  0  0
   35.1430   30.3700   32.8330 N   0  0  0  0  0  0  0  0  0  0  0  0
   35.3620   29.4870   31.8340 C   0  0  0  0  0  0  0  0  0  0  0  0
   35.9670   28.3130   32.1090 N   0  0  0  0  0  0  0  0  0  0  0  0
   36.4310   28.7160   35.4420 H   0  0  0  0  0  0  0  0  0  0  0  0
   35.0470   29.7380   30.8260 H   0  0  0  0  0  0  0  0  0  0  0  0
   35.2700   31.0990   35.2330 C   0  0  0  0  0  0  0  0  0  0  0  0
   35.1840   32.3310   34.6470 F   0  0  0  0  0  0  0  0  0  0  0  0
   34.0790   30.8370   35.9090 F   0  0  0  0  0  0  0  0  0  0  0  0
   36.3190   31.1030   36.1470 F   0  0  0  0  0  0  0  0  0  0  0  0
   38.4520   24.3700   35.8730 C   0  0  0  0  0  0  0  0  0  0  0  0
   37.8200   24.4860   37.1380 C   0  0  0  0  0  0  0  0  0  0  0  0
   36.9490   25.1020   37.3050 H   0  0  0  0  0  0  0  0  0  0  0  0
   38.3240   23.7990   38.1870 C   0  0  0  0  0  3  0  0  0  0  0  0
   39.4920   22.9620   38.0000 C   0  0  0  0  0  3  0  0  0  0  0  0
   39.8400   23.2230   36.1780 S   0  0  0  0  0  0  0  0  0  0  0  0
  1  5  2  0  0  0  0
  2  3  2  0  0  0  0
  2  1  1  0  0  0  0
  3  4  1  0  0  0  0
  4  5  1  0  0  0  0
  4 20  1  0  0  0  0
  6  2  1  0  0  0  0
  7  3  1  0  0  0  0
  8  1  1  0  0  0  0
  8  9  1  0  0  0  0
  9 14  1  0  0  0  0
 10  9  2  0  0  0  0
 10 16  1  0  0  0  0
 11 10  1  0  0  0  0
 12 13  1  0  0  0  0
 12 11  2  0  0  0  0
 13  8  2  0  0  0  0
 15 12  1  0  0  0  0
 16 18  1  0  0  0  0
 16 19  1  0  0  0  0
 17 16  1  0  0  0  0
 20 25  1  0  0  0  0
 20 21  2  0  0  0  0
 21 22  1  0  0  0  0
 21 23  1  0  0  0  0
 24 23  2  0  0  0  0
 25 24  1  0  0  0  0
M  END
>  <minimizedAffinity>
-5.22236347

$$$$

 OpenBabel03272508033D

 25 27  0  0  0  0  0  0  0  0999 V2000
   36.2770   28.5720   33.5370 C   0  0  0  0  0  0  0  0  0  0  0  0
   36.0170   29.2570   32.3690 C   0  0  0  0  0  0  0  0  0  0  0  0
   35.4830   30.5110   32.6450 C   0  0  0  0  0  0  0  0  0  0  0  0
   35.4420   30.5350   33.9980 N   0  0  0  0  0  0  0  0  0  0  0  0
   35.9020   29.4120   34.5210 N   0  0  0  0  0  0  0  0  0  0  0  0
   36.1870   28.9090   31.3610 H   0  0  0  0  0  0  0  0  0  0  0  0
   35.1610   31.3140   31.9970 H   0  0  0  0  0  0  0  0  0  0  0  0
   36.8370   27.2370   33.6670 C   0  0  0  0  0  0  0  0  0  0  0  0
   37.2010   26.7900   34.9640 C   0  0  0  0  0  0  0  0  0  0  0  0
   37.7360   25.5080   35.0740 C   0  0  0  0  0  0  0  0  0  0  0  0
   37.8780   24.7650   33.9430 N   0  0  0  0  0  0  0  0  0  0  0  0
   37.5220   25.2170   32.7200 C   0  0  0  0  0  0  0  0  0  0  0  0
   37.0020   26.4560   32.5990 N   0  0  0  0  0  0  0  0  0  0  0  0
   37.0810   27.3940   35.8540 H   0  0  0  0  0  0  0  0  0  0  0  0
   37.6610   24.5750   31.8560 H   0  0  0  0  0  0  0  0  0  0  0  0
   38.1260   25.0180   36.4300 C   0  0  0  0  0  0  0  0  0  0  0  0
   38.2710   26.1340   37.2060 F   0  0  0  0  0  0  0  0  0  0  0  0
   37.1450   24.2030   36.9920 F   0  0  0  0  0  0  0  0  0  0  0  0
   39.3310   24.3240   36.4010 F   0  0  0  0  0  0  0  0  0  0  0  0
   34.9690   31.6120   34.8650 C   0  0  0  0  0  0  0  0  0  0  0  0
   35.3070   31.6450   36.2430 C   0  0  0  0  0  0  0  0  0  0  0  0
   35.9180   30.8920   36.7160 H   0  0  0  0  0  0  0  0  0  0  0  0
   34.8460   32.6610   37.0060 C   0  0  0  0  0  3  0  0  0  0  0  0
   34.0220   33.6910   36.4040 C   0  0  0  0  0  3  0  0  0  0  0  0
   33.9400   33.1030   34.6280 S   0  0  0  0  0  0  0  0  0  0  0  0
  1  8  1  0  0  0  0
  1  5  2  0  0  0  0
  2  3  2  0  0  0  0
  2  1  1  0  0  0  0
  3  4  1  0  0  0  0
  4  5  1  0  0  0  0
  4 20  1  0  0  0  0
  6  2  1  0  0  0  0
  7  3  1  0  0  0  0
  8  9  1  0  0  0  0
  9 10  2  0  0  0  0
  9 14  1  0  0  0  0
 10 16  1  0  0  0  0
 11 10  1  0  0  0  0
 12 11  2  0  0  0  0
 13 12  1  0  0  0  0
 13  8  2  0  0  0  0
 15 12  1  0  0  0  0
 16 18  1  0  0  0  0
 16 17  1  0  0  0  0
 19 16  1  0  0  0  0
 20 21  2  0  0  0  0
 21 22  1  0  0  0  0
 21 23  1  0  0  0  0
 24 23  2  0  0  0  0
 25 20  1  0  0  0  0
 25 24  1  0  0  0  0
M  END
>  <minimizedAffinity>
-5.04655266

$$$$

 OpenBabel03272508033D

 25 27  0  0  0  0  0  0  0  0999 V2000
   37.8420   25.6160   34.4460 C   0  0  0  0  0  0  0  0  0  0  0  0
   37.3690   26.5910   35.2980 C   0  0  0  0  0  0  0  0  0  0  0  0
   37.0270   27.7370   34.5890 C   0  0  0  0  0  0  0  0  0  0  0  0
   37.3120   27.4020   33.3080 N   0  0  0  0  0  0  0  0  0  0  0  0
   37.7860   26.1710   33.2210 N   0  0  0  0  0  0  0  0  0  0  0  0
   37.2620   26.5190   36.3700 H   0  0  0  0  0  0  0  0  0  0  0  0
   36.6280   28.6900   34.9100 H   0  0  0  0  0  0  0  0  0  0  0  0
   38.2980   24.2830   34.8030 C   0  0  0  0  0  0  0  0  0  0  0  0
   39.1870   24.1530   35.9010 C   0  0  0  0  0  0  0  0  0  0  0  0
   39.6170   22.8700   36.2320 C   0  0  0  0  0  0  0  0  0  0  0  0
   39.1640   21.8230   35.4900 N   0  0  0  0  0  0  0  0  0  0  0  0
   38.3170   21.9760   34.4480 C   0  0  0  0  0  0  0  0  0  0  0  0
   37.8930   23.2130   34.1170 N   0  0  0  0  0  0  0  0  0  0  0  0
   39.5370   24.9980   36.4820 H   0  0  0  0  0  0  0  0  0  0  0  0
   37.9930   21.1010   33.8950 H   0  0  0  0  0  0  0  0  0  0  0  0
   40.5520   22.7120   37.3850 C   0  0  0  0  0  0  0  0  0  0  0  0
   39.9070   23.2410   38.4680 F   0  0  0  0  0  0  0  0  0  0  0  0
   40.8410   21.3730   37.6430 F   0  0  0  0  0  0  0  0  0  0  0  0
   41.7430   23.4020   37.1830 F   0  0  0  0  0  0  0  0  0  0  0  0
   37.1550   28.2190   32.1080 C   0  0  0  0  0  0  0  0  0  0  0  0
   36.2240   29.2910   32.0680 C   0  0  0  0  0  0  0  0  0  0  0  0
   35.5960   29.5530   32.9040 H   0  0  0  0  0  0  0  0  0  0  0  0
   36.1140   30.0190   30.9350 C   0  0  0  0  0  3  0  0  0  0  0  0
   36.9430   29.6940   29.7910 C   0  0  0  0  0  3  0  0  0  0  0  0
   37.9220   28.2390   30.4500 S   0  0  0  0  0  0  0  0  0  0  0  0
  1  8  1  0  0  0  0
  1  2  1  0  0  0  0
  2  6  1  0  0  0  0
  3  7  1  0  0  0  0
  3  2  2  0  0  0  0
  4  3  1  0  0  0  0
  5  4  1  0  0  0  0
  5  1  2  0  0  0  0
  8  9  1  0  0  0  0
  9 10  2  0  0  0  0
  9 14  1  0  0  0  0
 10 16  1  0  0  0  0
 11 10  1  0  0  0  0
 12 11  2  0  0  0  0
 13 12  1  0  0  0  0
 13  8  2  0  0  0  0
 15 12  1  0  0  0  0
 16 18  1  0  0  0  0
 16 17  1  0  0  0  0
 19 16  1  0  0  0  0
 20  4  1  0  0  0  0
 21 20  2  0  0  0  0
 21 22  1  0  0  0  0
 23 21  1  0  0  0  0
 24 25  1  0  0  0  0
 24 23  2  0  0  0  0
 25 20  1  0  0  0  0
M  END
>  <minimizedAffinity>
-4.99676895

$$$$

 OpenBabel03272508033D

 25 27  0  0  0  0  0  0  0  0999 V2000
   37.2770   26.0920   33.1740 C   0  0  0  0  0  0  0  0  0  0  0  0
   37.5320   24.9010   32.5290 C   0  0  0  0  0  0  0  0  0  0  0  0
   37.9890   23.9440   33.4270 C   0  0  0  0  0  0  0  0  0  0  0  0
   37.9930   24.6090   34.6070 N   0  0  0  0  0  0  0  0  0  0  0  0
   37.5800   25.8570   34.4650 N   0  0  0  0  0  0  0  0  0  0  0  0
   37.4080   24.6950   31.4750 H   0  0  0  0  0  0  0  0  0  0  0  0
   38.2860   22.9130   33.2920 H   0  0  0  0  0  0  0  0  0  0  0  0
   36.7870   27.3260   32.5820 C   0  0  0  0  0  0  0  0  0  0  0  0
   36.3470   28.3550   33.4540 C   0  0  0  0  0  0  0  0  0  0  0  0
   35.8790   29.5330   32.8730 C   0  0  0  0  0  0  0  0  0  0  0  0
   35.8720   29.6280   31.5160 N   0  0  0  0  0  0  0  0  0  0  0  0
   36.2980   28.6300   30.7100 C   0  0  0  0  0  0  0  0  0  0  0  0
   36.7530   27.4850   31.2580 N   0  0  0  0  0  0  0  0  0  0  0  0
   36.3600   28.2640   34.5330 H   0  0  0  0  0  0  0  0  0  0  0  0
   36.2660   28.7680   29.6340 H   0  0  0  0  0  0  0  0  0  0  0  0
   35.4120   30.6280   33.7730 C   0  0  0  0  0  0  0  0  0  0  0  0
   36.0660   31.7560   33.3640 F   0  0  0  0  0  0  0  0  0  0  0  0
   34.0380   30.8410   33.6670 F   0  0  0  0  0  0  0  0  0  0  0  0
   35.7300   30.3750   35.1040 F   0  0  0  0  0  0  0  0  0  0  0  0
   38.3830   24.1060   35.9220 C   0  0  0  0  0  0  0  0  0  0  0  0
   37.7460   24.5710   37.1020 C   0  0  0  0  0  0  0  0  0  0  0  0
   36.9560   25.3050   37.0920 H   0  0  0  0  0  0  0  0  0  0  0  0
   38.1420   24.0770   38.2970 C   0  0  0  0  0  3  0  0  0  0  0  0
   39.2010   23.0890   38.3480 C   0  0  0  0  0  3  0  0  0  0  0  0
   39.6130   22.9000   36.5300 S   0  0  0  0  0  0  0  0  0  0  0  0
  1  5  2  0  0  0  0
  2  1  1  0  0  0  0
  2  3  2  0  0  0  0
  3  4  1  0  0  0  0
  4 20  1  0  0  0  0
  5  4  1  0  0  0  0
  6  2  1  0  0  0  0
  7  3  1  0  0  0  0
  8  1  1  0  0  0  0
  8  9  1  0  0  0  0
  9 14  1  0  0  0  0
 10  9  2  0  0  0  0
 10 16  1  0  0  0  0
 11 10  1  0  0  0  0
 12 13  1  0  0  0  0
 12 11  2  0  0  0  0
 13  8  2  0  0  0  0
 15 12  1  0  0  0  0
 16 19  1  0  0  0  0
 17 16  1  0  0  0  0
 18 16  1  0  0  0  0
 20 25  1  0  0  0  0
 20 21  2  0  0  0  0
 21 23  1  0  0  0  0
 22 21  1  0  0  0  0
 23 24  2  0  0  0  0
 25 24  1  0  0  0  0
M  END
>  <minimizedAffinity>
-4.92582369

$$$$

 OpenBabel03272508033D

 25 27  0  0  0  0  0  0  0  0999 V2000
   36.4550   28.1800   33.2300 C   0  0  0  0  0  0  0  0  0  0  0  0
   36.2700   29.1450   32.2630 C   0  0  0  0  0  0  0  0  0  0  0  0
   35.6290   30.2570   32.7960 C   0  0  0  0  0  0  0  0  0  0  0  0
   35.4470   29.9130   34.0930 N   0  0  0  0  0  0  0  0  0  0  0  0
   35.9250   28.7080   34.3500 N   0  0  0  0  0  0  0  0  0  0  0  0
   36.5660   29.0880   31.2250 H   0  0  0  0  0  0  0  0  0  0  0  0
   35.3220   31.1930   32.3500 H   0  0  0  0  0  0  0  0  0  0  0  0
   37.0850   26.8800   33.0670 C   0  0  0  0  0  0  0  0  0  0  0  0
   36.3920   25.8920   32.3210 C   0  0  0  0  0  0  0  0  0  0  0  0
   37.0080   24.6500   32.1730 C   0  0  0  0  0  0  0  0  0  0  0  0
   38.2270   24.4580   32.7460 N   0  0  0  0  0  0  0  0  0  0  0  0
   38.8630   25.4190   33.4520 C   0  0  0  0  0  0  0  0  0  0  0  0
   38.2790   26.6260   33.6030 N   0  0  0  0  0  0  0  0  0  0  0  0
   35.4220   26.0610   31.8700 H   0  0  0  0  0  0  0  0  0  0  0  0
   39.8350   25.2030   33.8850 H   0  0  0  0  0  0  0  0  0  0  0  0
   36.2950   23.5960   31.3910 C   0  0  0  0  0  0  0  0  0  0  0  0
   37.2140   23.0940   30.5130 F   0  0  0  0  0  0  0  0  0  0  0  0
   35.8380   22.5620   32.2050 F   0  0  0  0  0  0  0  0  0  0  0  0
   35.2230   24.1200   30.6760 F   0  0  0  0  0  0  0  0  0  0  0  0
   34.8170   30.6980   35.1520 C   0  0  0  0  0  0  0  0  0  0  0  0
   35.5810   31.5710   35.9700 C   0  0  0  0  0  0  0  0  0  0  0  0
   36.6460   31.7000   35.8560 H   0  0  0  0  0  0  0  0  0  0  0  0
   34.9540   32.2760   36.9380 C   0  0  0  0  0  3  0  0  0  0  0  0
   33.5240   32.1290   37.1190 C   0  0  0  0  0  3  0  0  0  0  0  0
   33.1130   30.8820   35.7830 S   0  0  0  0  0  0  0  0  0  0  0  0
  1  5  2  0  0  0  0
  2  3  2  0  0  0  0
  2  1  1  0  0  0  0
  3  4  1  0  0  0  0
  4  5  1  0  0  0  0
  4 20  1  0  0  0  0
  6  2  1  0  0  0  0
  7  3  1  0  0  0  0
  8  1  1  0  0  0  0
  8 13  1  0  0  0  0
  9  8  2  0  0  0  0
 10  9  1  0  0  0  0
 10 11  2  0  0  0  0
 11 12  1  0  0  0  0
 12 13  2  0  0  0  0
 12 15  1  0  0  0  0
 14  9  1  0  0  0  0
 16 10  1  0  0  0  0
 16 18  1  0  0  0  0
 17 16  1  0  0  0  0
 19 16  1  0  0  0  0
 20 25  1  0  0  0  0
 20 21  2  0  0  0  0
 21 23  1  0  0  0  0
 22 21  1  0  0  0  0
 23 24  2  0  0  0  0
 25 24  1  0  0  0  0
M  END
>  <minimizedAffinity>
-4.92333984

$$$$
