
 OpenBabel03272502573D

 39 42  0  0  0  0  0  0  0  0999 V2000
   37.7010   27.0640   33.6730 C   0  0  0  0  0  0  0  0  0  0  0  0
   38.7910   27.1110   32.8180 C   0  0  0  0  0  0  0  0  0  0  0  0
   39.8600   26.2580   33.0030 C   0  0  0  0  0  0  0  0  0  0  0  0
   39.7770   25.3740   34.0710 C   0  0  0  0  0  0  0  0  0  0  0  0
   38.6980   25.3210   34.9260 C   0  0  0  0  0  0  0  0  0  0  0  0
   37.6770   26.1800   34.6980 N   0  0  0  0  0  0  0  0  0  0  0  0
   38.7150   24.3870   35.9780 N   0  0  0  0  0  0  0  0  0  0  0  0
   39.9720   23.7460   36.3020 C   0  0  0  0  0  0  0  0  0  0  0  0
   39.6770   22.7110   37.3660 C   0  0  0  0  0  0  0  0  0  0  0  0
   39.0740   23.3880   38.5830 C   0  0  0  0  0  0  0  0  0  0  0  0
   37.8970   24.2300   38.2250 C   0  0  0  0  0  0  0  0  0  0  0  0
   37.5480   24.0250   36.7590 C   0  0  0  0  0  0  0  0  0  0  0  0
   38.8210   27.8130   31.9950 H   0  0  0  0  0  0  0  0  0  0  0  0
   40.6940   26.2990   32.3430 H   0  0  0  0  0  0  0  0  0  0  0  0
   40.6530   24.7310   34.1600 H   0  0  0  0  0  0  0  0  0  0  0  0
   40.4020   23.1700   35.4460 H   0  0  0  0  0  0  0  0  0  0  0  0
   40.6990   24.4670   36.7440 H   0  0  0  0  0  0  0  0  0  0  0  0
   39.0730   21.8750   36.9880 H   0  0  0  0  0  0  0  0  0  0  0  0
   40.6890   22.3350   37.6900 H   0  0  0  0  0  0  0  0  0  0  0  0
   38.8460   22.6290   39.3540 H   0  0  0  0  0  0  0  0  0  0  0  0
   39.8750   24.0270   39.0330 H   0  0  0  0  0  0  0  0  0  0  0  0
   37.0010   23.8850   38.7940 H   0  0  0  0  0  0  0  0  0  0  0  0
   38.0300   25.3050   38.3930 H   0  0  0  0  0  0  0  0  0  0  0  0
   36.6420   24.5510   36.4630 H   0  0  0  0  0  0  0  0  0  0  0  0
   37.3590   22.9410   36.5770 H   0  0  0  0  0  0  0  0  0  0  0  0
   34.8620   28.7710   32.1110 C   0  0  0  0  0  0  0  0  0  0  0  0
   34.4720   29.7040   33.0960 C   0  0  0  0  0  0  0  0  0  0  0  0
   35.2000   29.7130   34.2620 C   0  0  0  0  0  0  0  0  0  0  0  0
   36.2400   28.8540   34.4340 N   0  0  0  0  0  0  0  0  0  0  0  0
   36.5870   27.9680   33.4620 C   0  0  0  0  0  0  0  0  0  0  0  0
   35.8890   27.9510   32.3280 N   0  0  0  0  0  0  0  0  0  0  0  0
   34.3160   28.7400   31.1950 H   0  0  0  0  0  0  0  0  0  0  0  0
   33.6430   30.3440   32.8830 H   0  0  0  0  0  0  0  0  0  0  0  0
   34.8290   30.6680   35.3160 C   0  0  0  0  0  0  0  0  0  0  0  0
   35.5550   31.5180   36.0270 C   0  0  0  0  0  0  0  0  0  0  0  0
   36.6220   31.5510   35.8340 H   0  0  0  0  0  0  0  0  0  0  0  0
   34.9740   32.3210   36.9700 C   0  0  0  0  0  3  0  0  0  0  0  0
   33.5710   32.1710   37.1160 C   0  0  0  0  0  3  0  0  0  0  0  0
   33.1930   30.8310   35.8310 S   0  0  0  0  0  0  0  0  0  0  0  0
  1  6  1  0  0  0  0
  2  3  1  0  0  0  0
  2  1  2  0  0  0  0
  3  4  2  0  0  0  0
  4 15  1  0  0  0  0
  4  5  1  0  0  0  0
  5  7  1  0  0  0  0
  6  5  2  0  0  0  0
  7  8  1  0  0  0  0
  7 12  1  0  0  0  0
  8 17  1  0  0  0  0
  8  9  1  0  0  0  0
  9 19  1  0  0  0  0
  9 10  1  0  0  0  0
 10 21  1  0  0  0  0
 10 20  1  0  0  0  0
 11 23  1  0  0  0  0
 11 10  1  0  0  0  0
 11 22  1  0  0  0  0
 12 11  1  0  0  0  0
 13  2  1  0  0  0  0
 14  3  1  0  0  0  0
 16  8  1  0  0  0  0
 18  9  1  0  0  0  0
 24 12  1  0  0  0  0
 25 12  1  0  0  0  0
 26 31  2  0  0  0  0
 26 27  1  0  0  0  0
 27 28  2  0  0  0  0
 28 29  1  0  0  0  0
 28 34  1  0  0  0  0
 30  1  1  0  0  0  0
 30 29  2  0  0  0  0
 31 30  1  0  0  0  0
 32 26  1  0  0  0  0
 33 27  1  0  0  0  0
 34 39  1  0  0  0  0
 34 35  2  0  0  0  0
 35 37  1  0  0  0  0
 36 35  1  0  0  0  0
 37 38  2  0  0  0  0
 39 38  1  0  0  0  0
M  END
>  <minimizedAffinity>
-6.28731537

$$$$

 OpenBabel03272502573D

 39 42  0  0  0  0  0  0  0  0999 V2000
   37.2960   26.8390   33.8400 C   0  0  0  0  0  0  0  0  0  0  0  0
   38.1900   26.7830   34.8980 C   0  0  0  0  0  0  0  0  0  0  0  0
   38.8120   25.5960   35.2260 C   0  0  0  0  0  0  0  0  0  0  0  0
   38.4940   24.4890   34.4480 C   0  0  0  0  0  0  0  0  0  0  0  0
   37.6070   24.5350   33.3950 C   0  0  0  0  0  0  0  0  0  0  0  0
   37.0260   25.7260   33.1180 N   0  0  0  0  0  0  0  0  0  0  0  0
   37.3560   23.3540   32.6710 N   0  0  0  0  0  0  0  0  0  0  0  0
   37.7910   22.0980   33.2440 C   0  0  0  0  0  0  0  0  0  0  0  0
   37.5150   21.0260   32.2110 C   0  0  0  0  0  0  0  0  0  0  0  0
   36.0320   21.0000   31.8870 C   0  0  0  0  0  0  0  0  0  0  0  0
   35.5240   22.3470   31.5010 C   0  0  0  0  0  0  0  0  0  0  0  0
   36.6870   23.3190   31.3860 C   0  0  0  0  0  0  0  0  0  0  0  0
   38.4140   27.6670   35.4820 H   0  0  0  0  0  0  0  0  0  0  0  0
   39.4970   25.5610   36.0390 H   0  0  0  0  0  0  0  0  0  0  0  0
   39.0190   23.5860   34.7600 H   0  0  0  0  0  0  0  0  0  0  0  0
   38.8940   22.0560   33.4190 H   0  0  0  0  0  0  0  0  0  0  0  0
   37.2010   21.8330   34.1520 H   0  0  0  0  0  0  0  0  0  0  0  0
   38.1540   21.1180   31.3230 H   0  0  0  0  0  0  0  0  0  0  0  0
   37.7330   20.0540   32.7400 H   0  0  0  0  0  0  0  0  0  0  0  0
   35.8340   20.2260   31.1230 H   0  0  0  0  0  0  0  0  0  0  0  0
   35.5020   20.6420   32.8060 H   0  0  0  0  0  0  0  0  0  0  0  0
   35.0730   22.3000   30.4810 H   0  0  0  0  0  0  0  0  0  0  0  0
   34.7900   22.7780   32.1920 H   0  0  0  0  0  0  0  0  0  0  0  0
   36.3830   24.2990   31.0220 H   0  0  0  0  0  0  0  0  0  0  0  0
   37.4230   22.9220   30.6480 H   0  0  0  0  0  0  0  0  0  0  0  0
   35.9780   29.6680   31.9250 C   0  0  0  0  0  0  0  0  0  0  0  0
   35.4230   30.4960   32.9240 C   0  0  0  0  0  0  0  0  0  0  0  0
   35.5220   30.0520   34.2210 C   0  0  0  0  0  0  0  0  0  0  0  0
   36.1300   28.8680   34.5020 N   0  0  0  0  0  0  0  0  0  0  0  0
   36.6540   28.0960   33.5120 C   0  0  0  0  0  0  0  0  0  0  0  0
   36.5630   28.5170   32.2520 N   0  0  0  0  0  0  0  0  0  0  0  0
   35.9160   29.9860   30.9080 H   0  0  0  0  0  0  0  0  0  0  0  0
   34.9610   31.4120   32.6210 H   0  0  0  0  0  0  0  0  0  0  0  0
   34.9580   30.8820   35.2950 C   0  0  0  0  0  0  0  0  0  0  0  0
   35.5190   31.7490   36.1240 C   0  0  0  0  0  0  0  0  0  0  0  0
   36.5880   31.9110   36.0330 H   0  0  0  0  0  0  0  0  0  0  0  0
   34.7740   32.4150   37.0580 C   0  0  0  0  0  3  0  0  0  0  0  0
   33.3890   32.1050   37.0630 C   0  0  0  0  0  3  0  0  0  0  0  0
   33.2750   30.8310   35.6650 S   0  0  0  0  0  0  0  0  0  0  0  0
  1  2  1  0  0  0  0
  2  3  2  0  0  0  0
  2 13  1  0  0  0  0
  3 14  1  0  0  0  0
  4 15  1  0  0  0  0
  4  3  1  0  0  0  0
  5  4  2  0  0  0  0
  6  5  1  0  0  0  0
  6  1  2  0  0  0  0
  7  8  1  0  0  0  0
  7  5  1  0  0  0  0
  8 16  1  0  0  0  0
  8 17  1  0  0  0  0
  9 19  1  0  0  0  0
  9  8  1  0  0  0  0
 10  9  1  0  0  0  0
 10 21  1  0  0  0  0
 11 10  1  0  0  0  0
 11 23  1  0  0  0  0
 12 11  1  0  0  0  0
 12  7  1  0  0  0  0
 18  9  1  0  0  0  0
 20 10  1  0  0  0  0
 22 11  1  0  0  0  0
 24 12  1  0  0  0  0
 25 12  1  0  0  0  0
 26 31  2  0  0  0  0
 26 27  1  0  0  0  0
 27 28  2  0  0  0  0
 28 29  1  0  0  0  0
 28 34  1  0  0  0  0
 30  1  1  0  0  0  0
 30 29  2  0  0  0  0
 31 30  1  0  0  0  0
 32 26  1  0  0  0  0
 33 27  1  0  0  0  0
 34 39  1  0  0  0  0
 34 35  2  0  0  0  0
 35 37  1  0  0  0  0
 36 35  1  0  0  0  0
 37 38  2  0  0  0  0
 39 38  1  0  0  0  0
M  END
>  <minimizedAffinity>
-5.94903946

$$$$

 OpenBabel03272502573D

 39 42  0  0  0  0  0  0  0  0999 V2000
   36.2910   26.8740   32.1220 C   0  0  0  0  0  0  0  0  0  0  0  0
   35.6630   26.1680   31.1080 C   0  0  0  0  0  0  0  0  0  0  0  0
   35.8160   24.8000   31.0110 C   0  0  0  0  0  0  0  0  0  0  0  0
   36.6170   24.1910   31.9690 C   0  0  0  0  0  0  0  0  0  0  0  0
   37.2450   24.8840   32.9800 C   0  0  0  0  0  0  0  0  0  0  0  0
   37.0600   26.2250   33.0280 N   0  0  0  0  0  0  0  0  0  0  0  0
   38.0350   24.1700   33.8990 N   0  0  0  0  0  0  0  0  0  0  0  0
   38.4030   22.8090   33.5700 C   0  0  0  0  0  0  0  0  0  0  0  0
   39.1290   22.2460   34.7730 C   0  0  0  0  0  0  0  0  0  0  0  0
   40.3540   23.0910   35.0700 C   0  0  0  0  0  0  0  0  0  0  0  0
   40.0150   24.5370   35.1980 C   0  0  0  0  0  0  0  0  0  0  0  0
   38.5050   24.7140   35.1580 C   0  0  0  0  0  0  0  0  0  0  0  0
   35.0450   26.6770   30.3790 H   0  0  0  0  0  0  0  0  0  0  0  0
   35.3310   24.2650   30.2290 H   0  0  0  0  0  0  0  0  0  0  0  0
   36.6950   23.1120   31.8340 H   0  0  0  0  0  0  0  0  0  0  0  0
   37.5190   22.1410   33.4250 H   0  0  0  0  0  0  0  0  0  0  0  0
   39.1150   22.7700   32.7140 H   0  0  0  0  0  0  0  0  0  0  0  0
   38.4700   22.1130   35.6420 H   0  0  0  0  0  0  0  0  0  0  0  0
   39.5180   21.2450   34.4320 H   0  0  0  0  0  0  0  0  0  0  0  0
   40.8760   22.6870   35.9580 H   0  0  0  0  0  0  0  0  0  0  0  0
   41.0680   22.9420   34.2210 H   0  0  0  0  0  0  0  0  0  0  0  0
   40.3310   24.9090   36.2020 H   0  0  0  0  0  0  0  0  0  0  0  0
   40.4520   25.1830   34.4280 H   0  0  0  0  0  0  0  0  0  0  0  0
   38.1970   25.7430   35.3340 H   0  0  0  0  0  0  0  0  0  0  0  0
   38.0440   24.1020   35.9680 H   0  0  0  0  0  0  0  0  0  0  0  0
   36.2030   30.4210   31.2160 C   0  0  0  0  0  0  0  0  0  0  0  0
   35.7770   31.0420   32.4090 C   0  0  0  0  0  0  0  0  0  0  0  0
   35.5360   30.2200   33.4830 C   0  0  0  0  0  0  0  0  0  0  0  0
   35.7060   28.8750   33.3760 N   0  0  0  0  0  0  0  0  0  0  0  0
   36.1170   28.3100   32.2080 C   0  0  0  0  0  0  0  0  0  0  0  0
   36.3540   29.0980   31.1610 N   0  0  0  0  0  0  0  0  0  0  0  0
   36.3980   31.0330   30.3640 H   0  0  0  0  0  0  0  0  0  0  0  0
   35.6670   32.1060   32.4120 H   0  0  0  0  0  0  0  0  0  0  0  0
   35.0910   30.8240   34.7470 C   0  0  0  0  0  0  0  0  0  0  0  0
   35.7470   31.4990   35.6780 C   0  0  0  0  0  0  0  0  0  0  0  0
   36.8090   31.6620   35.5260 H   0  0  0  0  0  0  0  0  0  0  0  0
   35.1050   31.9730   36.7890 C   0  0  0  0  0  3  0  0  0  0  0  0
   33.7170   31.6870   36.8570 C   0  0  0  0  0  3  0  0  0  0  0  0
   33.4450   30.7210   35.2490 S   0  0  0  0  0  0  0  0  0  0  0  0
  1 30  1  0  0  0  0
  1  6  1  0  0  0  0
  2  1  2  0  0  0  0
  3  2  1  0  0  0  0
  3  4  2  0  0  0  0
  4  5  1  0  0  0  0
  5  6  2  0  0  0  0
  5  7  1  0  0  0  0
  7 12  1  0  0  0  0
  8  7  1  0  0  0  0
  8  9  1  0  0  0  0
  9 10  1  0  0  0  0
  9 18  1  0  0  0  0
 10 11  1  0  0  0  0
 10 20  1  0  0  0  0
 11 22  1  0  0  0  0
 12 11  1  0  0  0  0
 12 24  1  0  0  0  0
 12 25  1  0  0  0  0
 13  2  1  0  0  0  0
 14  3  1  0  0  0  0
 15  4  1  0  0  0  0
 16  8  1  0  0  0  0
 17  8  1  0  0  0  0
 19  9  1  0  0  0  0
 21 10  1  0  0  0  0
 23 11  1  0  0  0  0
 26 27  1  0  0  0  0
 27 33  1  0  0  0  0
 27 28  2  0  0  0  0
 28 34  1  0  0  0  0
 29 28  1  0  0  0  0
 30 29  2  0  0  0  0
 31 26  2  0  0  0  0
 31 30  1  0  0  0  0
 32 26  1  0  0  0  0
 34 39  1  0  0  0  0
 34 35  2  0  0  0  0
 35 37  1  0  0  0  0
 36 35  1  0  0  0  0
 37 38  2  0  0  0  0
 39 38  1  0  0  0  0
M  END
>  <minimizedAffinity>
-5.76663685

$$$$

 OpenBabel03272502573D

 39 42  0  0  0  0  0  0  0  0999 V2000
   38.1760   25.7090   34.1690 C   0  0  0  0  0  0  0  0  0  0  0  0
   38.7980   25.3810   32.9740 C   0  0  0  0  0  0  0  0  0  0  0  0
   38.5830   26.1420   31.8430 C   0  0  0  0  0  0  0  0  0  0  0  0
   37.7270   27.2280   31.9750 C   0  0  0  0  0  0  0  0  0  0  0  0
   37.1040   27.5610   33.1570 C   0  0  0  0  0  0  0  0  0  0  0  0
   37.3510   26.7800   34.2360 N   0  0  0  0  0  0  0  0  0  0  0  0
   36.2550   28.6830   33.1810 N   0  0  0  0  0  0  0  0  0  0  0  0
   35.8330   29.2460   31.9160 C   0  0  0  0  0  0  0  0  0  0  0  0
   35.0470   30.5000   32.2340 C   0  0  0  0  0  0  0  0  0  0  0  0
   33.8550   30.1470   33.1050 C   0  0  0  0  0  0  0  0  0  0  0  0
   34.2580   29.3730   34.3130 C   0  0  0  0  0  0  0  0  0  0  0  0
   35.7760   29.3100   34.3970 C   0  0  0  0  0  0  0  0  0  0  0  0
   39.4600   24.5270   32.9100 H   0  0  0  0  0  0  0  0  0  0  0  0
   39.0640   25.8840   30.9300 H   0  0  0  0  0  0  0  0  0  0  0  0
   37.6010   27.7850   31.0460 H   0  0  0  0  0  0  0  0  0  0  0  0
   36.6880   29.5910   31.2850 H   0  0  0  0  0  0  0  0  0  0  0  0
   35.1430   28.5610   31.3700 H   0  0  0  0  0  0  0  0  0  0  0  0
   35.6730   31.2980   32.6550 H   0  0  0  0  0  0  0  0  0  0  0  0
   34.6200   30.8310   31.2450 H   0  0  0  0  0  0  0  0  0  0  0  0
   33.2890   31.0660   33.3480 H   0  0  0  0  0  0  0  0  0  0  0  0
   33.1590   29.5370   32.4760 H   0  0  0  0  0  0  0  0  0  0  0  0
   33.9320   29.9140   35.2330 H   0  0  0  0  0  0  0  0  0  0  0  0
   33.8750   28.3470   34.3520 H   0  0  0  0  0  0  0  0  0  0  0  0
   36.1280   28.8280   35.3080 H   0  0  0  0  0  0  0  0  0  0  0  0
   36.1840   30.3480   34.4100 H   0  0  0  0  0  0  0  0  0  0  0  0
   37.8340   24.2580   37.5140 C   0  0  0  0  0  0  0  0  0  0  0  0
   38.9010   23.3360   37.5700 C   0  0  0  0  0  0  0  0  0  0  0  0
   39.7010   23.2470   36.4560 C   0  0  0  0  0  0  0  0  0  0  0  0
   39.4540   24.0190   35.3640 N   0  0  0  0  0  0  0  0  0  0  0  0
   38.4150   24.8980   35.3460 C   0  0  0  0  0  0  0  0  0  0  0  0
   37.6340   24.9920   36.4200 N   0  0  0  0  0  0  0  0  0  0  0  0
   37.1950   24.3500   38.3640 H   0  0  0  0  0  0  0  0  0  0  0  0
   39.0280   22.7660   38.4660 H   0  0  0  0  0  0  0  0  0  0  0  0
   40.8250   22.2990   36.4700 C   0  0  0  0  0  0  0  0  0  0  0  0
   41.3530   21.5760   37.4460 C   0  0  0  0  0  0  0  0  0  0  0  0
   40.9110   21.6650   38.4330 H   0  0  0  0  0  0  0  0  0  0  0  0
   42.4180   20.7490   37.2120 C   0  0  0  0  0  3  0  0  0  0  0  0
   42.8930   20.7340   35.8750 C   0  0  0  0  0  3  0  0  0  0  0  0
   41.7180   21.9610   35.0360 S   0  0  0  0  0  0  0  0  0  0  0  0
  1  6  1  0  0  0  0
  1 30  1  0  0  0  0
  2  1  2  0  0  0  0
  3  4  2  0  0  0  0
  3  2  1  0  0  0  0
  4  5  1  0  0  0  0
  5  7  1  0  0  0  0
  5  6  2  0  0  0  0
  7 12  1  0  0  0  0
  8  9  1  0  0  0  0
  8  7  1  0  0  0  0
  9 18  1  0  0  0  0
  9 10  1  0  0  0  0
 10 20  1  0  0  0  0
 10 11  1  0  0  0  0
 11 23  1  0  0  0  0
 11 12  1  0  0  0  0
 11 22  1  0  0  0  0
 12 25  1  0  0  0  0
 12 24  1  0  0  0  0
 13  2  1  0  0  0  0
 14  3  1  0  0  0  0
 15  4  1  0  0  0  0
 16  8  1  0  0  0  0
 17  8  1  0  0  0  0
 19  9  1  0  0  0  0
 21 10  1  0  0  0  0
 26 27  1  0  0  0  0
 26 32  1  0  0  0  0
 27 33  1  0  0  0  0
 28 34  1  0  0  0  0
 28 27  2  0  0  0  0
 29 28  1  0  0  0  0
 30 29  2  0  0  0  0
 30 31  1  0  0  0  0
 31 26  2  0  0  0  0
 34 35  2  0  0  0  0
 35 36  1  0  0  0  0
 37 35  1  0  0  0  0
 38 37  2  0  0  0  0
 39 38  1  0  0  0  0
 39 34  1  0  0  0  0
M  END
>  <minimizedAffinity>
-5.59116316

$$$$

 OpenBabel03272502573D

 39 42  0  0  0  0  0  0  0  0999 V2000
   37.2870   25.1900   31.9550 C   0  0  0  0  0  0  0  0  0  0  0  0
   38.2670   25.3240   30.9840 C   0  0  0  0  0  0  0  0  0  0  0  0
   38.6190   24.2480   30.1950 C   0  0  0  0  0  0  0  0  0  0  0  0
   37.9460   23.0550   30.4280 C   0  0  0  0  0  0  0  0  0  0  0  0
   36.9720   22.9130   31.3910 C   0  0  0  0  0  0  0  0  0  0  0  0
   36.6660   24.0010   32.1370 N   0  0  0  0  0  0  0  0  0  0  0  0
   36.3520   21.6590   31.5450 N   0  0  0  0  0  0  0  0  0  0  0  0
   36.9680   20.5110   30.9140 C   0  0  0  0  0  0  0  0  0  0  0  0
   36.0360   19.3380   31.1290 C   0  0  0  0  0  0  0  0  0  0  0  0
   35.8410   19.1090   32.6170 C   0  0  0  0  0  0  0  0  0  0  0  0
   35.4110   20.3510   33.3190 C   0  0  0  0  0  0  0  0  0  0  0  0
   35.1330   21.4450   32.3000 C   0  0  0  0  0  0  0  0  0  0  0  0
   38.7700   26.2700   30.8310 H   0  0  0  0  0  0  0  0  0  0  0  0
   39.3720   24.3580   29.4520 H   0  0  0  0  0  0  0  0  0  0  0  0
   38.2720   22.2480   29.7710 H   0  0  0  0  0  0  0  0  0  0  0  0
   37.0520   20.6160   29.8040 H   0  0  0  0  0  0  0  0  0  0  0  0
   37.9380   20.2470   31.3950 H   0  0  0  0  0  0  0  0  0  0  0  0
   35.0930   19.4380   30.5770 H   0  0  0  0  0  0  0  0  0  0  0  0
   36.6080   18.4430   30.7510 H   0  0  0  0  0  0  0  0  0  0  0  0
   35.1490   18.2600   32.7730 H   0  0  0  0  0  0  0  0  0  0  0  0
   36.8230   18.7610   33.0270 H   0  0  0  0  0  0  0  0  0  0  0  0
   34.4380   20.1730   33.8360 H   0  0  0  0  0  0  0  0  0  0  0  0
   36.1300   20.7430   34.0470 H   0  0  0  0  0  0  0  0  0  0  0  0
   34.7320   22.3510   32.7520 H   0  0  0  0  0  0  0  0  0  0  0  0
   34.3630   21.0840   31.5770 H   0  0  0  0  0  0  0  0  0  0  0  0
   37.0310   27.4720   34.8080 C   0  0  0  0  0  0  0  0  0  0  0  0
   36.2330   28.5210   34.3040 C   0  0  0  0  0  0  0  0  0  0  0  0
   35.8100   28.4060   33.0010 C   0  0  0  0  0  0  0  0  0  0  0  0
   36.1600   27.3240   32.2550 N   0  0  0  0  0  0  0  0  0  0  0  0
   36.9310   26.3320   32.7750 C   0  0  0  0  0  0  0  0  0  0  0  0
   37.3460   26.4330   34.0360 N   0  0  0  0  0  0  0  0  0  0  0  0
   37.3750   27.5330   35.8170 H   0  0  0  0  0  0  0  0  0  0  0  0
   36.0030   29.3370   34.9560 H   0  0  0  0  0  0  0  0  0  0  0  0
   34.9760   29.4750   32.4350 C   0  0  0  0  0  0  0  0  0  0  0  0
   33.7140   29.8130   32.6490 C   0  0  0  0  0  0  0  0  0  0  0  0
   33.1500   29.2220   33.3640 H   0  0  0  0  0  0  0  0  0  0  0  0
   33.1450   30.8680   31.9900 C   0  0  0  0  0  3  0  0  0  0  0  0
   33.9990   31.5500   31.0840 C   0  0  0  0  0  3  0  0  0  0  0  0
   35.6120   30.5720   31.2670 S   0  0  0  0  0  0  0  0  0  0  0  0
  1  6  1  0  0  0  0
  1 30  1  0  0  0  0
  2  1  2  0  0  0  0
  3  4  2  0  0  0  0
  3  2  1  0  0  0  0
  4  5  1  0  0  0  0
  5  7  1  0  0  0  0
  5  6  2  0  0  0  0
  7 12  1  0  0  0  0
  8  9  1  0  0  0  0
  8 17  1  0  0  0  0
  8  7  1  0  0  0  0
  9 10  1  0  0  0  0
 10 20  1  0  0  0  0
 10 21  1  0  0  0  0
 10 11  1  0  0  0  0
 11 22  1  0  0  0  0
 11 23  1  0  0  0  0
 12 24  1  0  0  0  0
 12 11  1  0  0  0  0
 13  2  1  0  0  0  0
 14  3  1  0  0  0  0
 15  4  1  0  0  0  0
 16  8  1  0  0  0  0
 18  9  1  0  0  0  0
 19  9  1  0  0  0  0
 25 12  1  0  0  0  0
 26 32  1  0  0  0  0
 27 26  1  0  0  0  0
 27 33  1  0  0  0  0
 28 27  2  0  0  0  0
 29 30  2  0  0  0  0
 29 28  1  0  0  0  0
 30 31  1  0  0  0  0
 31 26  2  0  0  0  0
 34 35  2  0  0  0  0
 34 28  1  0  0  0  0
 35 36  1  0  0  0  0
 37 35  1  0  0  0  0
 38 39  1  0  0  0  0
 38 37  2  0  0  0  0
 39 34  1  0  0  0  0
M  END
>  <minimizedAffinity>
-5.58949661

$$$$

 OpenBabel03272502573D

 39 42  0  0  0  0  0  0  0  0999 V2000
   38.3700   24.3820   35.3250 C   0  0  0  0  0  0  0  0  0  0  0  0
   37.7240   24.4670   36.5480 C   0  0  0  0  0  0  0  0  0  0  0  0
   38.2420   23.8290   37.6570 C   0  0  0  0  0  0  0  0  0  0  0  0
   39.4210   23.1160   37.4750 C   0  0  0  0  0  0  0  0  0  0  0  0
   40.0690   23.0260   36.2630 C   0  0  0  0  0  0  0  0  0  0  0  0
   39.5170   23.6710   35.2090 N   0  0  0  0  0  0  0  0  0  0  0  0
   41.2580   22.2770   36.1870 N   0  0  0  0  0  0  0  0  0  0  0  0
   41.5790   21.3920   37.2870 C   0  0  0  0  0  0  0  0  0  0  0  0
   42.9520   20.8210   37.0070 C   0  0  0  0  0  0  0  0  0  0  0  0
   42.9320   20.0730   35.6860 C   0  0  0  0  0  0  0  0  0  0  0  0
   42.3970   20.9140   34.5780 C   0  0  0  0  0  0  0  0  0  0  0  0
   42.1830   22.3360   35.0730 C   0  0  0  0  0  0  0  0  0  0  0  0
   36.8070   25.0320   36.6530 H   0  0  0  0  0  0  0  0  0  0  0  0
   37.7410   23.8980   38.5930 H   0  0  0  0  0  0  0  0  0  0  0  0
   39.7740   22.6380   38.3890 H   0  0  0  0  0  0  0  0  0  0  0  0
   41.6800   21.9280   38.2630 H   0  0  0  0  0  0  0  0  0  0  0  0
   40.8740   20.5300   37.3420 H   0  0  0  0  0  0  0  0  0  0  0  0
   43.7460   21.5770   37.0680 H   0  0  0  0  0  0  0  0  0  0  0  0
   43.1070   20.0390   37.8030 H   0  0  0  0  0  0  0  0  0  0  0  0
   43.9400   19.6680   35.4750 H   0  0  0  0  0  0  0  0  0  0  0  0
   42.2830   19.1730   35.8290 H   0  0  0  0  0  0  0  0  0  0  0  0
   43.1570   20.9930   33.7650 H   0  0  0  0  0  0  0  0  0  0  0  0
   41.4540   20.5610   34.1460 H   0  0  0  0  0  0  0  0  0  0  0  0
   41.8730   23.0160   34.2810 H   0  0  0  0  0  0  0  0  0  0  0  0
   43.1460   22.7330   35.4710 H   0  0  0  0  0  0  0  0  0  0  0  0
   37.2340   25.0610   31.9110 C   0  0  0  0  0  0  0  0  0  0  0  0
   36.7400   26.3800   31.9980 C   0  0  0  0  0  0  0  0  0  0  0  0
   36.8150   26.9900   33.2280 C   0  0  0  0  0  0  0  0  0  0  0  0
   37.3440   26.3310   34.2940 N   0  0  0  0  0  0  0  0  0  0  0  0
   37.8110   25.0590   34.1720 C   0  0  0  0  0  0  0  0  0  0  0  0
   37.7430   24.4600   32.9850 N   0  0  0  0  0  0  0  0  0  0  0  0
   37.1890   24.5620   30.9690 H   0  0  0  0  0  0  0  0  0  0  0  0
   36.3390   26.8280   31.1130 H   0  0  0  0  0  0  0  0  0  0  0  0
   36.3120   28.3640   33.3650 C   0  0  0  0  0  0  0  0  0  0  0  0
   35.9020   29.0490   34.4220 C   0  0  0  0  0  0  0  0  0  0  0  0
   35.9220   28.5470   35.3840 H   0  0  0  0  0  0  0  0  0  0  0  0
   35.4700   30.3410   34.2990 C   0  0  0  0  0  3  0  0  0  0  0  0
   35.4980   30.8680   32.9820 C   0  0  0  0  0  3  0  0  0  0  0  0
   36.1720   29.3980   31.9940 S   0  0  0  0  0  0  0  0  0  0  0  0
  1  2  1  0  0  0  0
  2 13  1  0  0  0  0
  2  3  2  0  0  0  0
  3 14  1  0  0  0  0
  4  3  1  0  0  0  0
  4 15  1  0  0  0  0
  5  4  2  0  0  0  0
  6  1  2  0  0  0  0
  6  5  1  0  0  0  0
  7  5  1  0  0  0  0
  7  8  1  0  0  0  0
  8 17  1  0  0  0  0
  8 16  1  0  0  0  0
  9 18  1  0  0  0  0
  9  8  1  0  0  0  0
  9 19  1  0  0  0  0
 10 21  1  0  0  0  0
 10  9  1  0  0  0  0
 11 12  1  0  0  0  0
 11 10  1  0  0  0  0
 12 25  1  0  0  0  0
 12  7  1  0  0  0  0
 20 10  1  0  0  0  0
 22 11  1  0  0  0  0
 23 11  1  0  0  0  0
 24 12  1  0  0  0  0
 26 27  2  0  0  0  0
 26 31  1  0  0  0  0
 27 28  1  0  0  0  0
 28 34  1  0  0  0  0
 28 29  2  0  0  0  0
 30 29  1  0  0  0  0
 30  1  1  0  0  0  0
 31 30  2  0  0  0  0
 32 26  1  0  0  0  0
 33 27  1  0  0  0  0
 34 35  2  0  0  0  0
 35 36  1  0  0  0  0
 37 35  1  0  0  0  0
 38 37  2  0  0  0  0
 39 38  1  0  0  0  0
 39 34  1  0  0  0  0
M  END
>  <minimizedAffinity>
-5.56442928

$$$$

 OpenBabel03272502573D

 39 42  0  0  0  0  0  0  0  0999 V2000
   37.4290   26.1790   32.1680 C   0  0  0  0  0  0  0  0  0  0  0  0
   37.9890   26.4310   30.9250 C   0  0  0  0  0  0  0  0  0  0  0  0
   37.9030   27.6880   30.3620 C   0  0  0  0  0  0  0  0  0  0  0  0
   37.2390   28.6590   31.1010 C   0  0  0  0  0  0  0  0  0  0  0  0
   36.6800   28.4190   32.3360 C   0  0  0  0  0  0  0  0  0  0  0  0
   36.7940   27.1680   32.8410 N   0  0  0  0  0  0  0  0  0  0  0  0
   36.0290   29.4750   33.0000 N   0  0  0  0  0  0  0  0  0  0  0  0
   35.7070   30.6640   32.2400 C   0  0  0  0  0  0  0  0  0  0  0  0
   35.1400   31.6710   33.2170 C   0  0  0  0  0  0  0  0  0  0  0  0
   33.9050   31.0930   33.8850 C   0  0  0  0  0  0  0  0  0  0  0  0
   34.1740   29.7580   34.4910 C   0  0  0  0  0  0  0  0  0  0  0  0
   35.6600   29.4450   34.4020 C   0  0  0  0  0  0  0  0  0  0  0  0
   38.4990   25.6480   30.3790 H   0  0  0  0  0  0  0  0  0  0  0  0
   38.3350   27.8730   29.4080 H   0  0  0  0  0  0  0  0  0  0  0  0
   37.2090   29.6270   30.5990 H   0  0  0  0  0  0  0  0  0  0  0  0
   36.6070   31.1590   31.8010 H   0  0  0  0  0  0  0  0  0  0  0  0
   34.9140   30.4650   31.4810 H   0  0  0  0  0  0  0  0  0  0  0  0
   35.8890   32.0380   33.9300 H   0  0  0  0  0  0  0  0  0  0  0  0
   34.7740   32.5210   32.5740 H   0  0  0  0  0  0  0  0  0  0  0  0
   33.5000   31.8240   34.6090 H   0  0  0  0  0  0  0  0  0  0  0  0
   33.1180   31.0010   33.0950 H   0  0  0  0  0  0  0  0  0  0  0  0
   33.9420   29.7870   35.5820 H   0  0  0  0  0  0  0  0  0  0  0  0
   33.6260   28.9260   34.0350 H   0  0  0  0  0  0  0  0  0  0  0  0
   35.9270   28.5180   34.9060 H   0  0  0  0  0  0  0  0  0  0  0  0
   36.2350   30.2580   34.9060 H   0  0  0  0  0  0  0  0  0  0  0  0
   37.2500   22.5430   32.5620 C   0  0  0  0  0  0  0  0  0  0  0  0
   37.7350   22.3420   33.8720 C   0  0  0  0  0  0  0  0  0  0  0  0
   38.1060   23.4640   34.5740 C   0  0  0  0  0  0  0  0  0  0  0  0
   38.0020   24.6970   34.0100 N   0  0  0  0  0  0  0  0  0  0  0  0
   37.5300   24.8530   32.7430 C   0  0  0  0  0  0  0  0  0  0  0  0
   37.1670   23.7720   32.0550 N   0  0  0  0  0  0  0  0  0  0  0  0
   36.9540   21.6910   31.9920 H   0  0  0  0  0  0  0  0  0  0  0  0
   37.7860   21.3400   34.2420 H   0  0  0  0  0  0  0  0  0  0  0  0
   38.6170   23.3020   35.9430 C   0  0  0  0  0  0  0  0  0  0  0  0
   39.7010   22.7040   36.4110 C   0  0  0  0  0  0  0  0  0  0  0  0
   40.3660   22.2330   35.6940 H   0  0  0  0  0  0  0  0  0  0  0  0
   39.9700   22.6840   37.7530 C   0  0  0  0  0  3  0  0  0  0  0  0
   39.0160   23.3380   38.5730 C   0  0  0  0  0  3  0  0  0  0  0  0
   37.7620   23.9510   37.2910 S   0  0  0  0  0  0  0  0  0  0  0  0
  1 30  1  0  0  0  0
  1  6  1  0  0  0  0
  2  1  2  0  0  0  0
  3  2  1  0  0  0  0
  3  4  2  0  0  0  0
  4  5  1  0  0  0  0
  5  6  2  0  0  0  0
  5  7  1  0  0  0  0
  7 12  1  0  0  0  0
  8  7  1  0  0  0  0
  8  9  1  0  0  0  0
  9 10  1  0  0  0  0
  9 18  1  0  0  0  0
 10 11  1  0  0  0  0
 10 20  1  0  0  0  0
 11 22  1  0  0  0  0
 12 11  1  0  0  0  0
 12 25  1  0  0  0  0
 12 24  1  0  0  0  0
 13  2  1  0  0  0  0
 14  3  1  0  0  0  0
 15  4  1  0  0  0  0
 16  8  1  0  0  0  0
 17  8  1  0  0  0  0
 19  9  1  0  0  0  0
 21 10  1  0  0  0  0
 23 11  1  0  0  0  0
 26 27  1  0  0  0  0
 27 33  1  0  0  0  0
 27 28  2  0  0  0  0
 28 34  1  0  0  0  0
 29 28  1  0  0  0  0
 30 29  2  0  0  0  0
 31 26  2  0  0  0  0
 31 30  1  0  0  0  0
 32 26  1  0  0  0  0
 34 35  2  0  0  0  0
 34 39  1  0  0  0  0
 35 37  1  0  0  0  0
 36 35  1  0  0  0  0
 37 38  2  0  0  0  0
 39 38  1  0  0  0  0
M  END
>  <minimizedAffinity>
-5.56086779

$$$$

 OpenBabel03272502573D

 39 42  0  0  0  0  0  0  0  0999 V2000
   38.8550   26.3130   32.9130 C   0  0  0  0  0  0  0  0  0  0  0  0
   40.0960   26.2360   32.3010 C   0  0  0  0  0  0  0  0  0  0  0  0
   41.0770   25.4110   32.8120 C   0  0  0  0  0  0  0  0  0  0  0  0
   40.7500   24.6810   33.9480 C   0  0  0  0  0  0  0  0  0  0  0  0
   39.5200   24.7520   34.5640 C   0  0  0  0  0  0  0  0  0  0  0  0
   38.5950   25.5780   34.0200 N   0  0  0  0  0  0  0  0  0  0  0  0
   39.2920   23.9700   35.7120 N   0  0  0  0  0  0  0  0  0  0  0  0
   40.4360   23.3730   36.3680 C   0  0  0  0  0  0  0  0  0  0  0  0
   39.8980   22.4940   37.4770 C   0  0  0  0  0  0  0  0  0  0  0  0
   39.0850   23.3360   38.4440 C   0  0  0  0  0  0  0  0  0  0  0  0
   38.0330   24.1270   37.7440 C   0  0  0  0  0  0  0  0  0  0  0  0
   37.9810   23.7260   36.2780 C   0  0  0  0  0  0  0  0  0  0  0  0
   40.3150   26.8190   31.4150 H   0  0  0  0  0  0  0  0  0  0  0  0
   42.0270   25.3560   32.3370 H   0  0  0  0  0  0  0  0  0  0  0  0
   41.5680   24.0510   34.2990 H   0  0  0  0  0  0  0  0  0  0  0  0
   41.0100   22.6830   35.7030 H   0  0  0  0  0  0  0  0  0  0  0  0
   41.0830   24.1430   36.8490 H   0  0  0  0  0  0  0  0  0  0  0  0
   39.3550   21.6190   37.0980 H   0  0  0  0  0  0  0  0  0  0  0  0
   40.8100   22.1610   38.0480 H   0  0  0  0  0  0  0  0  0  0  0  0
   38.6800   22.6900   39.2460 H   0  0  0  0  0  0  0  0  0  0  0  0
   39.8000   24.0250   38.9600 H   0  0  0  0  0  0  0  0  0  0  0  0
   37.0300   23.8690   38.1590 H   0  0  0  0  0  0  0  0  0  0  0  0
   38.1660   25.2140   37.7920 H   0  0  0  0  0  0  0  0  0  0  0  0
   37.1710   24.2120   35.7370 H   0  0  0  0  0  0  0  0  0  0  0  0
   37.7960   22.6280   36.2070 H   0  0  0  0  0  0  0  0  0  0  0  0
   36.7260   28.0810   30.5150 C   0  0  0  0  0  0  0  0  0  0  0  0
   35.8900   28.8580   31.3460 C   0  0  0  0  0  0  0  0  0  0  0  0
   36.0890   28.7470   32.7010 C   0  0  0  0  0  0  0  0  0  0  0  0
   37.0510   27.9200   33.1930 N   0  0  0  0  0  0  0  0  0  0  0  0
   37.8380   27.1850   32.3610 C   0  0  0  0  0  0  0  0  0  0  0  0
   37.6530   27.2860   31.0460 N   0  0  0  0  0  0  0  0  0  0  0  0
   36.5940   28.1460   29.4580 H   0  0  0  0  0  0  0  0  0  0  0  0
   35.1580   29.4830   30.8810 H   0  0  0  0  0  0  0  0  0  0  0  0
   35.2420   29.5380   33.6050 C   0  0  0  0  0  0  0  0  0  0  0  0
   35.5330   30.2610   34.6750 C   0  0  0  0  0  0  0  0  0  0  0  0
   36.5730   30.3080   34.9820 H   0  0  0  0  0  0  0  0  0  0  0  0
   34.5550   30.9220   35.3660 C   0  0  0  0  0  3  0  0  0  0  0  0
   33.2410   30.7710   34.8530 C   0  0  0  0  0  3  0  0  0  0  0  0
   33.5400   29.6450   33.3580 S   0  0  0  0  0  0  0  0  0  0  0  0
  1  6  1  0  0  0  0
  2  3  1  0  0  0  0
  2  1  2  0  0  0  0
  3  4  2  0  0  0  0
  4 15  1  0  0  0  0
  4  5  1  0  0  0  0
  5  7  1  0  0  0  0
  6  5  2  0  0  0  0
  7 12  1  0  0  0  0
  7  8  1  0  0  0  0
  8 17  1  0  0  0  0
  8  9  1  0  0  0  0
  9 19  1  0  0  0  0
  9 10  1  0  0  0  0
 10 21  1  0  0  0  0
 10 20  1  0  0  0  0
 11 23  1  0  0  0  0
 11 22  1  0  0  0  0
 11 10  1  0  0  0  0
 12 11  1  0  0  0  0
 13  2  1  0  0  0  0
 14  3  1  0  0  0  0
 16  8  1  0  0  0  0
 18  9  1  0  0  0  0
 24 12  1  0  0  0  0
 25 12  1  0  0  0  0
 26 31  2  0  0  0  0
 26 27  1  0  0  0  0
 27 28  2  0  0  0  0
 28 29  1  0  0  0  0
 28 34  1  0  0  0  0
 30  1  1  0  0  0  0
 30 29  2  0  0  0  0
 31 30  1  0  0  0  0
 32 26  1  0  0  0  0
 33 27  1  0  0  0  0
 34 35  2  0  0  0  0
 35 36  1  0  0  0  0
 35 37  1  0  0  0  0
 38 37  2  0  0  0  0
 39 34  1  0  0  0  0
 39 38  1  0  0  0  0
M  END
>  <minimizedAffinity>
-5.5551877

$$$$

 OpenBabel03272502573D

 39 42  0  0  0  0  0  0  0  0999 V2000
   37.0390   27.4060   32.5810 C   0  0  0  0  0  0  0  0  0  0  0  0
   36.2760   28.1390   33.4750 C   0  0  0  0  0  0  0  0  0  0  0  0
   35.8130   29.3940   33.1330 C   0  0  0  0  0  0  0  0  0  0  0  0
   36.1520   29.8620   31.8700 C   0  0  0  0  0  0  0  0  0  0  0  0
   36.9110   29.1400   30.9750 C   0  0  0  0  0  0  0  0  0  0  0  0
   37.3380   27.9150   31.3620 N   0  0  0  0  0  0  0  0  0  0  0  0
   37.1970   29.7090   29.7200 N   0  0  0  0  0  0  0  0  0  0  0  0
   36.9530   31.1240   29.5400 C   0  0  0  0  0  0  0  0  0  0  0  0
   37.2190   31.4350   28.0820 C   0  0  0  0  0  0  0  0  0  0  0  0
   38.6530   31.0750   27.7390 C   0  0  0  0  0  0  0  0  0  0  0  0
   38.9820   29.6720   28.1210 C   0  0  0  0  0  0  0  0  0  0  0  0
   37.7230   28.9620   28.5940 C   0  0  0  0  0  0  0  0  0  0  0  0
   36.0310   27.7410   34.4510 H   0  0  0  0  0  0  0  0  0  0  0  0
   35.2270   29.9510   33.8250 H   0  0  0  0  0  0  0  0  0  0  0  0
   35.7550   30.8570   31.6650 H   0  0  0  0  0  0  0  0  0  0  0  0
   35.8850   31.4080   29.7070 H   0  0  0  0  0  0  0  0  0  0  0  0
   37.6610   31.7440   30.1380 H   0  0  0  0  0  0  0  0  0  0  0  0
   36.4820   30.9770   27.4100 H   0  0  0  0  0  0  0  0  0  0  0  0
   37.1570   32.5580   28.0110 H   0  0  0  0  0  0  0  0  0  0  0  0
   38.8430   31.2890   26.6700 H   0  0  0  0  0  0  0  0  0  0  0  0
   39.3120   31.7860   28.2980 H   0  0  0  0  0  0  0  0  0  0  0  0
   39.3220   29.1070   27.2210 H   0  0  0  0  0  0  0  0  0  0  0  0
   39.7400   29.5740   28.9070 H   0  0  0  0  0  0  0  0  0  0  0  0
   37.8880   27.9070   28.8050 H   0  0  0  0  0  0  0  0  0  0  0  0
   36.9540   29.0070   27.7870 H   0  0  0  0  0  0  0  0  0  0  0  0
   38.2400   23.9530   32.3610 C   0  0  0  0  0  0  0  0  0  0  0  0
   38.4210   23.5940   33.7140 C   0  0  0  0  0  0  0  0  0  0  0  0
   38.1220   24.5520   34.6540 C   0  0  0  0  0  0  0  0  0  0  0  0
   37.6770   25.7790   34.2720 N   0  0  0  0  0  0  0  0  0  0  0  0
   37.5160   26.0900   32.9580 C   0  0  0  0  0  0  0  0  0  0  0  0
   37.8020   25.1690   32.0390 N   0  0  0  0  0  0  0  0  0  0  0  0
   38.4640   23.2310   31.6080 H   0  0  0  0  0  0  0  0  0  0  0  0
   38.7750   22.6080   33.9310 H   0  0  0  0  0  0  0  0  0  0  0  0
   38.2950   24.2210   36.0750 C   0  0  0  0  0  0  0  0  0  0  0  0
   37.7430   24.7250   37.1690 C   0  0  0  0  0  0  0  0  0  0  0  0
   37.0270   25.5300   37.0450 H   0  0  0  0  0  0  0  0  0  0  0  0
   38.0680   24.2430   38.4080 C   0  0  0  0  0  3  0  0  0  0  0  0
   39.0180   23.1890   38.4200 C   0  0  0  0  0  3  0  0  0  0  0  0
   39.3770   22.9740   36.5710 S   0  0  0  0  0  0  0  0  0  0  0  0
  1 30  1  0  0  0  0
  1  2  1  0  0  0  0
  2 13  1  0  0  0  0
  3  2  2  0  0  0  0
  3 14  1  0  0  0  0
  4  3  1  0  0  0  0
  5  6  1  0  0  0  0
  5  4  2  0  0  0  0
  6  1  2  0  0  0  0
  7  5  1  0  0  0  0
  8 16  1  0  0  0  0
  8  7  1  0  0  0  0
  8 17  1  0  0  0  0
  9  8  1  0  0  0  0
 10  9  1  0  0  0  0
 10 11  1  0  0  0  0
 10 21  1  0  0  0  0
 11 12  1  0  0  0  0
 11 23  1  0  0  0  0
 12 24  1  0  0  0  0
 12  7  1  0  0  0  0
 15  4  1  0  0  0  0
 18  9  1  0  0  0  0
 19  9  1  0  0  0  0
 20 10  1  0  0  0  0
 22 11  1  0  0  0  0
 25 12  1  0  0  0  0
 26 27  1  0  0  0  0
 27 33  1  0  0  0  0
 27 28  2  0  0  0  0
 28 34  1  0  0  0  0
 29 28  1  0  0  0  0
 30 29  2  0  0  0  0
 31 26  2  0  0  0  0
 31 30  1  0  0  0  0
 32 26  1  0  0  0  0
 34 39  1  0  0  0  0
 34 35  2  0  0  0  0
 35 37  1  0  0  0  0
 36 35  1  0  0  0  0
 37 38  2  0  0  0  0
 39 38  1  0  0  0  0
M  END
>  <minimizedAffinity>
-5.51552057

$$$$
