
 OpenBabel03272502313D

 24 25  0  0  1  0  0  0  0  0999 V2000
   37.9980   30.8700   47.8870 C   0  0  2  0  0  0  0  0  0  0  0  0
   38.5500   30.0340   48.4590 H   0  0  0  0  0  0  0  0  0  0  0  0
   38.5370   32.1070   48.3250 C   0  0  0  0  0  0  0  0  0  0  0  0
   38.5970   33.0100   49.4120 C   0  0  0  0  0  0  0  0  0  0  0  0
   38.0000   32.6270   50.2100 H   0  0  0  0  0  0  0  0  0  0  0  0
   39.3550   34.1470   49.2820 C   0  0  0  0  0  3  0  0  0  0  0  0
   40.0330   34.3310   48.0480 C   0  0  0  0  0  3  0  0  0  0  0  0
   39.5680   32.8750   47.1000 S   0  0  0  0  0  0  0  0  0  0  0  0
   37.1790   30.5710   45.6650 C   0  0  0  0  0  3  0  0  0  0  0  0
   38.2250   30.6130   46.4290 C   0  0  0  0  0  3  0  0  0  0  0  0
   38.5090   30.5200   42.1780 C   0  0  0  0  0  0  0  0  0  0  0  0
   38.3720   30.7550   43.5490 C   0  0  0  0  0  0  0  0  0  0  0  0
   37.2650   30.3060   44.2580 C   0  0  0  0  0  0  0  0  0  0  0  0
   36.3370   29.6370   43.5560 N   0  0  0  0  0  0  0  0  0  0  0  0
   36.4600   29.4080   42.2480 C   0  0  0  0  0  0  0  0  0  0  0  0
   37.5270   29.8380   41.5480 N   0  0  0  0  0  0  0  0  0  0  0  0
   39.3740   30.8680   41.6400 H   0  0  0  0  0  0  0  0  0  0  0  0
   39.1950   31.2960   43.9840 H   0  0  0  0  0  0  0  0  0  0  0  0
   35.6620   28.8770   41.7720 H   0  0  0  0  0  0  0  0  0  0  0  0
   36.2370   30.6760   48.2290 S   0  0  0  0  0  0  0  0  0  0  0  0
   35.9600   30.0540   49.8870 C   0  0  0  0  0  0  0  0  0  0  0  0
   36.7330   30.7100   50.8370 F   0  0  0  0  0  0  0  0  0  0  0  0
   34.6220   30.0210   50.2270 F   0  0  0  0  0  0  0  0  0  0  0  0
   36.3720   28.6980   49.8880 F   0  0  0  0  0  0  0  0  0  0  0  0
  1 20  1  0  0  0  0
  1  3  1  0  0  0  0
  1  2  1  1  0  0  0
  3  4  2  0  0  0  0
  4  5  1  0  0  0  0
  6  4  1  0  0  0  0
  7  6  2  0  0  0  0
  8  7  1  0  0  0  0
  8  3  1  0  0  0  0
  9 10  2  0  0  0  0
 10  1  1  0  0  0  0
 11 12  1  0  0  0  0
 12 18  1  0  0  0  0
 12 13  2  0  0  0  0
 13  9  1  0  0  0  0
 14 13  1  0  0  0  0
 15 14  2  0  0  0  0
 16 11  2  0  0  0  0
 16 15  1  0  0  0  0
 17 11  1  0  0  0  0
 19 15  1  0  0  0  0
 20 21  1  0  0  0  0
 21 24  1  0  0  0  0
 21 23  1  0  0  0  0
 21 22  1  0  0  0  0
M  END
>  <minimizedAffinity>
-4.7176137

>  <minimizedRMSD>
3.3076334

$$$$
