
 OpenBabel03272501373D

 33 36  0  0  1  0  0  0  0  0999 V2000
   37.4150   26.4170   34.7570 C   0  0  2  0  0  0  0  0  0  0  0  0
   38.9050   26.9070   35.0440 C   0  0  0  0  0  0  0  0  0  0  0  0
   38.4680   25.4700   34.9240 C   0  0  1  0  0  0  0  0  0  0  0  0
   36.7650   26.7730   35.5960 H   0  0  0  0  0  0  0  0  0  0  0  0
   39.0450   27.3060   36.0650 H   0  0  0  0  0  0  0  0  0  0  0  0
   39.4740   27.3090   34.2190 H   0  0  0  0  0  0  0  0  0  0  0  0
   38.8130   24.9390   33.9810 H   0  0  0  0  0  0  0  0  0  0  0  0
   38.6970   24.6430   36.1130 C   0  0  0  0  0  0  0  0  0  0  0  0
   37.8810   24.8520   37.2140 C   0  0  0  0  0  0  0  0  0  0  0  0
   38.1150   24.0670   38.3110 C   0  0  0  0  0  0  0  0  0  0  0  0
   39.0960   23.1090   38.3610 C   0  0  0  0  0  0  0  0  0  0  0  0
   39.8900   22.9300   37.2420 C   0  0  0  0  0  0  0  0  0  0  0  0
   39.6800   23.6920   36.1470 N   0  0  0  0  0  0  0  0  0  0  0  0
   37.0900   25.5880   37.2410 H   0  0  0  0  0  0  0  0  0  0  0  0
   37.5180   24.1730   39.2070 H   0  0  0  0  0  0  0  0  0  0  0  0
   39.2820   22.4880   39.2300 H   0  0  0  0  0  0  0  0  0  0  0  0
   40.6870   22.2040   37.1840 H   0  0  0  0  0  0  0  0  0  0  0  0
   37.0420   26.9210   33.3820 C   0  0  2  0  0  3  0  0  0  0  0  0
   37.2500   26.1490   32.3660 O   0  0  0  0  0  1  0  0  0  0  0  0
   36.0400   30.1800   31.8730 C   0  0  0  0  0  0  0  0  0  0  0  0
   36.5290   28.9050   32.0450 C   0  0  0  0  0  0  0  0  0  0  0  0
   36.4860   28.2360   33.2850 C   0  0  0  0  0  0  0  0  0  0  0  0
   35.9490   28.8990   34.2760 N   0  0  0  0  0  0  0  0  0  0  0  0
   35.4640   30.1720   34.0950 C   0  0  0  0  0  0  0  0  0  0  0  0
   35.5020   30.8050   32.9320 N   0  0  0  0  0  0  0  0  0  0  0  0
   36.1180   30.6100   30.8830 H   0  0  0  0  0  0  0  0  0  0  0  0
   36.9720   28.3730   31.2010 H   0  0  0  0  0  0  0  0  0  0  0  0
   34.8630   30.8940   35.2340 C   0  0  0  0  0  0  0  0  0  0  0  0
   35.4620   31.7530   36.1370 C   0  0  0  0  0  0  0  0  0  0  0  0
   36.5190   31.9370   36.0070 H   0  0  0  0  0  0  0  0  0  0  0  0
   34.7110   32.3080   37.1130 C   0  0  0  0  0  3  0  0  0  0  0  0
   33.3410   31.9550   37.1330 C   0  0  0  0  0  3  0  0  0  0  0  0
   33.1730   30.8100   35.7120 S   0  0  0  0  0  0  0  0  0  0  0  0
  1  3  1  0  0  0  0
  1  2  1  0  0  0  0
  1  4  1  1  0  0  0
  2  5  1  0  0  0  0
  3  7  1  6  0  0  0
  3  2  1  0  0  0  0
  3  8  1  0  0  0  0
  6  2  1  0  0  0  0
  8 13  2  0  0  0  0
  8  9  1  0  0  0  0
  9 14  1  0  0  0  0
  9 10  2  0  0  0  0
 10 11  1  0  0  0  0
 10 15  1  0  0  0  0
 11 16  1  0  0  0  0
 12 11  2  0  0  0  0
 13 12  1  0  0  0  0
 17 12  1  0  0  0  0
 18 19  1  6  0  0  0
 18  1  1  0  0  0  0
 20 21  2  0  0  0  0
 20 25  1  0  0  0  0
 21 22  1  0  0  0  0
 22 18  1  0  0  0  0
 22 23  2  0  0  0  0
 24 23  1  0  0  0  0
 24 28  1  0  0  0  0
 25 24  2  0  0  0  0
 26 20  1  0  0  0  0
 27 21  1  0  0  0  0
 28 33  1  0  0  0  0
 28 29  2  0  0  0  0
 29 31  1  0  0  0  0
 30 29  1  0  0  0  0
 31 32  2  0  0  0  0
 33 32  1  0  0  0  0
M  END
>  <minimizedAffinity>
-6.01601791

$$$$

 OpenBabel03272501373D

 33 36  0  0  1  0  0  0  0  0999 V2000
   37.0440   23.9660   31.2620 C   0  0  2  0  0  0  0  0  0  0  0  0
   35.4910   23.9310   30.9020 C   0  0  0  0  0  0  0  0  0  0  0  0
   36.1380   23.1910   32.0440 C   0  0  1  0  0  0  0  0  0  0  0  0
   37.6110   23.5580   30.3870 H   0  0  0  0  0  0  0  0  0  0  0  0
   35.2660   23.3500   29.9900 H   0  0  0  0  0  0  0  0  0  0  0  0
   34.8910   24.7910   31.1640 H   0  0  0  0  0  0  0  0  0  0  0  0
   35.9010   23.5960   33.0780 H   0  0  0  0  0  0  0  0  0  0  0  0
   36.0020   21.7310   32.0020 C   0  0  0  0  0  0  0  0  0  0  0  0
   35.5630   21.0890   33.1490 C   0  0  0  0  0  0  0  0  0  0  0  0
   35.4450   19.7260   33.0850 C   0  0  0  0  0  0  0  0  0  0  0  0
   35.7340   18.9940   31.9600 C   0  0  0  0  0  0  0  0  0  0  0  0
   36.1690   19.6710   30.8350 C   0  0  0  0  0  0  0  0  0  0  0  0
   36.2950   21.0150   30.8730 N   0  0  0  0  0  0  0  0  0  0  0  0
   35.3180   21.6040   34.0670 H   0  0  0  0  0  0  0  0  0  0  0  0
   35.1080   19.1560   33.9400 H   0  0  0  0  0  0  0  0  0  0  0  0
   35.6410   17.9150   31.9100 H   0  0  0  0  0  0  0  0  0  0  0  0
   36.4220   19.1850   29.9040 H   0  0  0  0  0  0  0  0  0  0  0  0
   37.3750   25.3880   31.6500 C   0  0  2  0  0  3  0  0  0  0  0  0
   37.5410   26.2600   30.7110 O   0  0  0  0  0  1  0  0  0  0  0  0
   37.1420   27.3060   34.8400 C   0  0  0  0  0  0  0  0  0  0  0  0
   37.0400   26.9330   33.5190 C   0  0  0  0  0  0  0  0  0  0  0  0
   37.4950   25.6850   33.0460 C   0  0  0  0  0  0  0  0  0  0  0  0
   38.0250   24.8910   33.9400 N   0  0  0  0  0  0  0  0  0  0  0  0
   38.1220   25.2730   35.2560 C   0  0  0  0  0  0  0  0  0  0  0  0
   37.6970   26.4440   35.7060 N   0  0  0  0  0  0  0  0  0  0  0  0
   36.7650   28.2840   35.1060 H   0  0  0  0  0  0  0  0  0  0  0  0
   36.5930   27.6140   32.7920 H   0  0  0  0  0  0  0  0  0  0  0  0
   38.7250   24.3530   36.2410 C   0  0  0  0  0  0  0  0  0  0  0  0
   38.2980   24.0390   37.5180 C   0  0  0  0  0  0  0  0  0  0  0  0
   37.3970   24.5230   37.8630 H   0  0  0  0  0  0  0  0  0  0  0  0
   39.0150   23.1590   38.2520 C   0  0  0  0  0  3  0  0  0  0  0  0
   40.1710   22.6200   37.6400 C   0  0  0  0  0  3  0  0  0  0  0  0
   40.1900   23.4140   35.9880 S   0  0  0  0  0  0  0  0  0  0  0  0
  1  4  1  6  0  0  0
  1 18  1  0  0  0  0
  1  3  1  0  0  0  0
  2  6  1  0  0  0  0
  2  1  1  0  0  0  0
  2  3  1  0  0  0  0
  3  7  1  1  0  0  0
  5  2  1  0  0  0  0
  8  3  1  0  0  0  0
  8  9  1  0  0  0  0
  9 14  1  0  0  0  0
 10  9  2  0  0  0  0
 10 15  1  0  0  0  0
 11 10  1  0  0  0  0
 12 13  1  0  0  0  0
 12 11  2  0  0  0  0
 13  8  2  0  0  0  0
 16 11  1  0  0  0  0
 17 12  1  0  0  0  0
 18 19  1  6  0  0  0
 18 22  1  0  0  0  0
 20 26  1  0  0  0  0
 20 25  1  0  0  0  0
 21 20  2  0  0  0  0
 22 21  1  0  0  0  0
 22 23  2  0  0  0  0
 23 24  1  0  0  0  0
 24 25  2  0  0  0  0
 24 28  1  0  0  0  0
 27 21  1  0  0  0  0
 28 29  2  0  0  0  0
 29 30  1  0  0  0  0
 29 31  1  0  0  0  0
 32 31  2  0  0  0  0
 33 28  1  0  0  0  0
 33 32  1  0  0  0  0
M  END
>  <minimizedAffinity>
-5.75024557

$$$$

 OpenBabel03272501373D

 33 36  0  0  1  0  0  0  0  0999 V2000
   37.5290   26.0710   34.6630 C   0  0  2  0  0  0  0  0  0  0  0  0
   39.0080   26.5810   34.9690 C   0  0  0  0  0  0  0  0  0  0  0  0
   38.5520   25.1460   35.0220 C   0  0  1  0  0  0  0  0  0  0  0  0
   36.8380   26.5480   35.4030 H   0  0  0  0  0  0  0  0  0  0  0  0
   39.0960   27.1160   35.9310 H   0  0  0  0  0  0  0  0  0  0  0  0
   39.6320   26.8580   34.1310 H   0  0  0  0  0  0  0  0  0  0  0  0
   38.9420   24.4850   34.1840 H   0  0  0  0  0  0  0  0  0  0  0  0
   38.6960   24.4900   36.3250 C   0  0  0  0  0  0  0  0  0  0  0  0
   37.8620   24.9000   37.3530 C   0  0  0  0  0  0  0  0  0  0  0  0
   38.0160   24.2730   38.5600 C   0  0  0  0  0  0  0  0  0  0  0  0
   38.9370   23.2810   38.7840 C   0  0  0  0  0  0  0  0  0  0  0  0
   39.7520   22.8980   37.7340 C   0  0  0  0  0  0  0  0  0  0  0  0
   39.6200   23.5020   36.5330 N   0  0  0  0  0  0  0  0  0  0  0  0
   37.1150   25.6750   37.2440 H   0  0  0  0  0  0  0  0  0  0  0  0
   37.4000   24.5400   39.4080 H   0  0  0  0  0  0  0  0  0  0  0  0
   39.0590   22.7840   39.7400 H   0  0  0  0  0  0  0  0  0  0  0  0
   40.5060   22.1280   37.8110 H   0  0  0  0  0  0  0  0  0  0  0  0
   37.2460   26.3830   33.2110 C   0  0  2  0  0  3  0  0  0  0  0  0
   36.8150   27.5620   32.9080 O   0  0  0  0  0  1  0  0  0  0  0  0
   38.5690   24.6540   30.1830 C   0  0  0  0  0  0  0  0  0  0  0  0
   38.3230   25.5910   31.1610 C   0  0  0  0  0  0  0  0  0  0  0  0
   37.4670   25.3420   32.2530 C   0  0  0  0  0  0  0  0  0  0  0  0
   36.9100   24.1590   32.2880 N   0  0  0  0  0  0  0  0  0  0  0  0
   37.1610   23.2300   31.3070 C   0  0  0  0  0  0  0  0  0  0  0  0
   37.9650   23.4590   30.2790 N   0  0  0  0  0  0  0  0  0  0  0  0
   39.2410   24.9380   29.3850 H   0  0  0  0  0  0  0  0  0  0  0  0
   38.8010   26.5720   31.1090 H   0  0  0  0  0  0  0  0  0  0  0  0
   36.5180   21.9030   31.3750 C   0  0  0  0  0  0  0  0  0  0  0  0
   35.3290   21.5400   31.9810 C   0  0  0  0  0  0  0  0  0  0  0  0
   34.7770   22.3230   32.4790 H   0  0  0  0  0  0  0  0  0  0  0  0
   34.9270   20.2510   31.9180 C   0  0  0  0  0  3  0  0  0  0  0  0
   35.7760   19.3580   31.2220 C   0  0  0  0  0  3  0  0  0  0  0  0
   37.1580   20.4270   30.6670 S   0  0  0  0  0  0  0  0  0  0  0  0
  1  2  1  0  0  0  0
  1  3  1  0  0  0  0
  1  4  1  1  0  0  0
  2  3  1  0  0  0  0
  2  5  1  0  0  0  0
  3  7  1  6  0  0  0
  3  8  1  0  0  0  0
  6  2  1  0  0  0  0
  8 13  2  0  0  0  0
  8  9  1  0  0  0  0
  9 10  2  0  0  0  0
 10 11  1  0  0  0  0
 10 15  1  0  0  0  0
 11 16  1  0  0  0  0
 12 17  1  0  0  0  0
 12 11  2  0  0  0  0
 13 12  1  0  0  0  0
 14  9  1  0  0  0  0
 18 19  1  1  0  0  0
 18  1  1  0  0  0  0
 20 25  2  0  0  0  0
 20 21  1  0  0  0  0
 21 22  2  0  0  0  0
 22 23  1  0  0  0  0
 22 18  1  0  0  0  0
 24 28  1  0  0  0  0
 24 23  2  0  0  0  0
 25 24  1  0  0  0  0
 26 20  1  0  0  0  0
 27 21  1  0  0  0  0
 28 29  2  0  0  0  0
 29 30  1  0  0  0  0
 31 29  1  0  0  0  0
 32 31  2  0  0  0  0
 33 32  1  0  0  0  0
 33 28  1  0  0  0  0
M  END
>  <minimizedAffinity>
-5.58081436

$$$$

 OpenBabel03272501373D

 33 36  0  0  1  0  0  0  0  0999 V2000
   37.2330   26.5410   34.9710 C   0  0  2  0  0  0  0  0  0  0  0  0
   38.5310   27.2490   35.5670 C   0  0  0  0  0  0  0  0  0  0  0  0
   38.3860   25.7720   35.3070 C   0  0  1  0  0  0  0  0  0  0  0  0
   36.3840   26.7230   35.6760 H   0  0  0  0  0  0  0  0  0  0  0  0
   38.4030   27.5910   36.6100 H   0  0  0  0  0  0  0  0  0  0  0  0
   39.1660   27.7990   34.8870 H   0  0  0  0  0  0  0  0  0  0  0  0
   38.9910   25.3750   34.4320 H   0  0  0  0  0  0  0  0  0  0  0  0
   38.5280   24.9110   36.4850 C   0  0  0  0  0  0  0  0  0  0  0  0
   39.3080   23.7720   36.3650 C   0  0  0  0  0  0  0  0  0  0  0  0
   39.4250   22.9840   37.4780 C   0  0  0  0  0  0  0  0  0  0  0  0
   38.8170   23.2720   38.6740 C   0  0  0  0  0  0  0  0  0  0  0  0
   38.0460   24.4170   38.7560 C   0  0  0  0  0  0  0  0  0  0  0  0
   37.9150   25.2110   37.6710 N   0  0  0  0  0  0  0  0  0  0  0  0
   39.8150   23.4870   35.4530 H   0  0  0  0  0  0  0  0  0  0  0  0
   40.0180   22.0800   37.4590 H   0  0  0  0  0  0  0  0  0  0  0  0
   38.9090   22.6470   39.5560 H   0  0  0  0  0  0  0  0  0  0  0  0
   37.5280   24.7280   39.6520 H   0  0  0  0  0  0  0  0  0  0  0  0
   37.0440   27.0750   33.5690 C   0  0  2  0  0  3  0  0  0  0  0  0
   36.5040   28.2390   33.4220 O   0  0  0  0  0  1  0  0  0  0  0  0
   38.7480   26.0820   30.4040 C   0  0  0  0  0  0  0  0  0  0  0  0
   38.3140   26.8000   31.4950 C   0  0  0  0  0  0  0  0  0  0  0  0
   37.4710   26.2480   32.4810 C   0  0  0  0  0  0  0  0  0  0  0  0
   37.1190   25.0010   32.3010 N   0  0  0  0  0  0  0  0  0  0  0  0
   37.5570   24.2920   31.2090 C   0  0  0  0  0  0  0  0  0  0  0  0
   38.3500   24.8060   30.2800 N   0  0  0  0  0  0  0  0  0  0  0  0
   39.3930   26.5930   29.7020 H   0  0  0  0  0  0  0  0  0  0  0  0
   38.6230   27.8400   31.6220 H   0  0  0  0  0  0  0  0  0  0  0  0
   37.1420   22.8860   31.0360 C   0  0  0  0  0  0  0  0  0  0  0  0
   35.9030   22.3100   31.2470 C   0  0  0  0  0  0  0  0  0  0  0  0
   35.1130   22.9640   31.5850 H   0  0  0  0  0  0  0  0  0  0  0  0
   35.7480   20.9860   31.0220 C   0  0  0  0  0  3  0  0  0  0  0  0
   36.8930   20.2820   30.5800 C   0  0  0  0  0  3  0  0  0  0  0  0
   38.1870   21.5780   30.5000 S   0  0  0  0  0  0  0  0  0  0  0  0
  1  3  1  0  0  0  0
  1  2  1  0  0  0  0
  1  4  1  1  0  0  0
  2  5  1  0  0  0  0
  3  7  1  6  0  0  0
  3  2  1  0  0  0  0
  3  8  1  0  0  0  0
  6  2  1  0  0  0  0
  8 13  1  0  0  0  0
  9  8  2  0  0  0  0
  9 10  1  0  0  0  0
 10 11  2  0  0  0  0
 11 12  1  0  0  0  0
 11 16  1  0  0  0  0
 12 17  1  0  0  0  0
 13 12  2  0  0  0  0
 14  9  1  0  0  0  0
 15 10  1  0  0  0  0
 18 19  1  6  0  0  0
 18  1  1  0  0  0  0
 20 21  1  0  0  0  0
 21 27  1  0  0  0  0
 21 22  2  0  0  0  0
 22 18  1  0  0  0  0
 23 22  1  0  0  0  0
 24 23  2  0  0  0  0
 25 20  2  0  0  0  0
 25 24  1  0  0  0  0
 26 20  1  0  0  0  0
 28 24  1  0  0  0  0
 28 29  2  0  0  0  0
 29 30  1  0  0  0  0
 31 29  1  0  0  0  0
 32 31  2  0  0  0  0
 33 32  1  0  0  0  0
 33 28  1  0  0  0  0
M  END
>  <minimizedAffinity>
-5.44726419

$$$$

 OpenBabel03272501373D

 33 36  0  0  1  0  0  0  0  0999 V2000
   39.1910   26.5330   34.2910 C   0  0  2  0  0  0  0  0  0  0  0  0
   38.6990   27.3810   35.5480 C   0  0  0  0  0  0  0  0  0  0  0  0
   37.8030   26.7910   34.4900 C   0  0  1  0  0  0  0  0  0  0  0  0
   39.8590   27.1840   33.6730 H   0  0  0  0  0  0  0  0  0  0  0  0
   38.9310   28.4590   35.4660 H   0  0  0  0  0  0  0  0  0  0  0  0
   38.6890   26.8970   36.5140 H   0  0  0  0  0  0  0  0  0  0  0  0
   37.1760   25.9060   34.8280 H   0  0  0  0  0  0  0  0  0  0  0  0
   36.9950   27.7580   33.7410 C   0  0  0  0  0  0  0  0  0  0  0  0
   37.1590   27.8120   32.3660 C   0  0  0  0  0  0  0  0  0  0  0  0
   36.3940   28.7240   31.6890 C   0  0  0  0  0  0  0  0  0  0  0  0
   35.4960   29.5600   32.3030 C   0  0  0  0  0  0  0  0  0  0  0  0
   35.3590   29.4770   33.6760 C   0  0  0  0  0  0  0  0  0  0  0  0
   36.1040   28.5860   34.3670 N   0  0  0  0  0  0  0  0  0  0  0  0
   37.8480   27.1820   31.8200 H   0  0  0  0  0  0  0  0  0  0  0  0
   36.4680   28.8230   30.6140 H   0  0  0  0  0  0  0  0  0  0  0  0
   34.8900   30.2830   31.7660 H   0  0  0  0  0  0  0  0  0  0  0  0
   34.6810   30.0910   34.2490 H   0  0  0  0  0  0  0  0  0  0  0  0
   39.8260   25.2720   34.8310 C   0  0  2  0  0  3  0  0  0  0  0  0
   41.1120   25.2340   34.9540 O   0  0  0  0  0  1  0  0  0  0  0  0
   37.9000   22.8730   36.9380 C   0  0  0  0  0  0  0  0  0  0  0  0
   38.7000   23.9150   36.5280 C   0  0  0  0  0  0  0  0  0  0  0  0
   38.9590   24.1840   35.1690 C   0  0  0  0  0  0  0  0  0  0  0  0
   38.3900   23.3810   34.3070 N   0  0  0  0  0  0  0  0  0  0  0  0
   37.5930   22.3430   34.7260 C   0  0  0  0  0  0  0  0  0  0  0  0
   37.3460   22.0860   36.0020 N   0  0  0  0  0  0  0  0  0  0  0  0
   37.7610   22.7470   38.0040 H   0  0  0  0  0  0  0  0  0  0  0  0
   39.1630   24.5710   37.2680 H   0  0  0  0  0  0  0  0  0  0  0  0
   36.9650   21.4550   33.7280 C   0  0  0  0  0  0  0  0  0  0  0  0
   35.8200   20.6880   33.8390 C   0  0  0  0  0  0  0  0  0  0  0  0
   35.2950   20.7310   34.7820 H   0  0  0  0  0  0  0  0  0  0  0  0
   35.4250   19.9410   32.7850 C   0  0  0  0  0  3  0  0  0  0  0  0
   36.2350   20.0050   31.6260 C   0  0  0  0  0  3  0  0  0  0  0  0
   37.5700   21.1670   32.1020 S   0  0  0  0  0  0  0  0  0  0  0  0
  1  4  1  6  0  0  0
  1  3  1  0  0  0  0
  1 18  1  0  0  0  0
  1  2  1  0  0  0  0
  2  6  1  0  0  0  0
  3  7  1  1  0  0  0
  3  2  1  0  0  0  0
  5  2  1  0  0  0  0
  8 13  1  0  0  0  0
  8  3  1  0  0  0  0
  9  8  2  0  0  0  0
 10 11  2  0  0  0  0
 10  9  1  0  0  0  0
 11 12  1  0  0  0  0
 12 17  1  0  0  0  0
 12 13  2  0  0  0  0
 14  9  1  0  0  0  0
 15 10  1  0  0  0  0
 16 11  1  0  0  0  0
 18 19  1  6  0  0  0
 18 22  1  0  0  0  0
 20 26  1  0  0  0  0
 21 20  1  0  0  0  0
 21 27  1  0  0  0  0
 22 21  2  0  0  0  0
 23 24  2  0  0  0  0
 23 22  1  0  0  0  0
 24 25  1  0  0  0  0
 25 20  2  0  0  0  0
 28 29  2  0  0  0  0
 28 24  1  0  0  0  0
 29 30  1  0  0  0  0
 31 29  1  0  0  0  0
 32 33  1  0  0  0  0
 32 31  2  0  0  0  0
 33 28  1  0  0  0  0
M  END
>  <minimizedAffinity>
-5.3982048

$$$$

 OpenBabel03272501373D

 33 36  0  0  1  0  0  0  0  0999 V2000
   38.3150   26.1840   34.0810 C   0  0  2  0  0  0  0  0  0  0  0  0
   39.5390   26.8400   34.8630 C   0  0  0  0  0  0  0  0  0  0  0  0
   39.3090   25.3620   34.6860 C   0  0  1  0  0  0  0  0  0  0  0  0
   37.3700   26.4920   34.5950 H   0  0  0  0  0  0  0  0  0  0  0  0
   39.2520   27.2810   35.8350 H   0  0  0  0  0  0  0  0  0  0  0  0
   40.3380   27.2770   34.2800 H   0  0  0  0  0  0  0  0  0  0  0  0
   40.0280   24.8430   33.9750 H   0  0  0  0  0  0  0  0  0  0  0  0
   39.1500   24.5990   35.9280 C   0  0  0  0  0  0  0  0  0  0  0  0
   38.1610   24.9980   36.8120 C   0  0  0  0  0  0  0  0  0  0  0  0
   38.0330   24.2700   37.9650 C   0  0  0  0  0  0  0  0  0  0  0  0
   38.8230   23.1900   38.2680 C   0  0  0  0  0  0  0  0  0  0  0  0
   39.8000   22.8210   37.3610 C   0  0  0  0  0  0  0  0  0  0  0  0
   39.9470   23.5240   36.2170 N   0  0  0  0  0  0  0  0  0  0  0  0
   37.5030   25.8380   36.6350 H   0  0  0  0  0  0  0  0  0  0  0  0
   37.2820   24.5230   38.7010 H   0  0  0  0  0  0  0  0  0  0  0  0
   38.7220   22.6140   39.1810 H   0  0  0  0  0  0  0  0  0  0  0  0
   40.4710   21.9880   37.5100 H   0  0  0  0  0  0  0  0  0  0  0  0
   38.4390   26.6050   32.6340 C   0  0  2  0  0  3  0  0  0  0  0  0
   39.3730   26.0730   31.9160 O   0  0  0  0  0  1  0  0  0  0  0  0
   36.7680   28.9420   30.2570 C   0  0  0  0  0  0  0  0  0  0  0  0
   37.6020   27.9910   30.7990 C   0  0  0  0  0  0  0  0  0  0  0  0
   37.5140   27.5810   32.1450 C   0  0  0  0  0  0  0  0  0  0  0  0
   36.5850   28.1610   32.8610 N   0  0  0  0  0  0  0  0  0  0  0  0
   35.7570   29.1100   32.3110 C   0  0  0  0  0  0  0  0  0  0  0  0
   35.8360   29.4980   31.0470 N   0  0  0  0  0  0  0  0  0  0  0  0
   36.9140   29.1900   29.2140 H   0  0  0  0  0  0  0  0  0  0  0  0
   38.3700   27.5220   30.1800 H   0  0  0  0  0  0  0  0  0  0  0  0
   34.7180   29.7450   33.1460 C   0  0  0  0  0  0  0  0  0  0  0  0
   34.7670   30.0980   34.4820 C   0  0  0  0  0  0  0  0  0  0  0  0
   35.6870   29.8890   35.0080 H   0  0  0  0  0  0  0  0  0  0  0  0
   33.6840   30.6750   35.0490 C   0  0  0  0  0  3  0  0  0  0  0  0
   32.5630   30.8740   34.2090 C   0  0  0  0  0  3  0  0  0  0  0  0
   33.1160   30.2100   32.5930 S   0  0  0  0  0  0  0  0  0  0  0  0
  1  4  1  1  0  0  0
  1  3  1  0  0  0  0
  1  2  1  0  0  0  0
  2  5  1  0  0  0  0
  3  7  1  6  0  0  0
  3  2  1  0  0  0  0
  3  8  1  0  0  0  0
  6  2  1  0  0  0  0
  8 13  2  0  0  0  0
  8  9  1  0  0  0  0
  9 10  2  0  0  0  0
 10 11  1  0  0  0  0
 10 15  1  0  0  0  0
 11 16  1  0  0  0  0
 12 17  1  0  0  0  0
 12 11  2  0  0  0  0
 13 12  1  0  0  0  0
 14  9  1  0  0  0  0
 18 19  1  1  0  0  0
 18  1  1  0  0  0  0
 20 21  2  0  0  0  0
 20 25  1  0  0  0  0
 21 22  1  0  0  0  0
 22 18  1  0  0  0  0
 22 23  2  0  0  0  0
 24 23  1  0  0  0  0
 24 28  1  0  0  0  0
 25 24  2  0  0  0  0
 26 20  1  0  0  0  0
 27 21  1  0  0  0  0
 28 29  2  0  0  0  0
 29 30  1  0  0  0  0
 29 31  1  0  0  0  0
 32 31  2  0  0  0  0
 33 28  1  0  0  0  0
 33 32  1  0  0  0  0
M  END
>  <minimizedAffinity>
-5.31535435

$$$$

 OpenBabel03272501373D

 33 36  0  0  1  0  0  0  0  0999 V2000
   37.5910   26.0150   34.4730 C   0  0  2  0  0  0  0  0  0  0  0  0
   39.1640   25.8240   34.2960 C   0  0  0  0  0  0  0  0  0  0  0  0
   38.2060   24.7680   34.7840 C   0  0  1  0  0  0  0  0  0  0  0  0
   37.4230   26.8270   35.2250 H   0  0  0  0  0  0  0  0  0  0  0  0
   39.7580   26.3560   35.0610 H   0  0  0  0  0  0  0  0  0  0  0  0
   39.5500   25.6990   33.2940 H   0  0  0  0  0  0  0  0  0  0  0  0
   38.0100   23.9200   34.0540 H   0  0  0  0  0  0  0  0  0  0  0  0
   38.4720   24.2560   36.1320 C   0  0  0  0  0  0  0  0  0  0  0  0
   39.5260   23.3710   36.2940 C   0  0  0  0  0  0  0  0  0  0  0  0
   39.7530   22.9070   37.5620 C   0  0  0  0  0  0  0  0  0  0  0  0
   38.9990   23.2760   38.6480 C   0  0  0  0  0  0  0  0  0  0  0  0
   37.9560   24.1610   38.4480 C   0  0  0  0  0  0  0  0  0  0  0  0
   37.7110   24.6330   37.2060 N   0  0  0  0  0  0  0  0  0  0  0  0
   40.1590   23.0400   35.4820 H   0  0  0  0  0  0  0  0  0  0  0  0
   40.5580   22.2140   37.7640 H   0  0  0  0  0  0  0  0  0  0  0  0
   39.1790   22.9080   39.6520 H   0  0  0  0  0  0  0  0  0  0  0  0
   37.3070   24.5100   39.2370 H   0  0  0  0  0  0  0  0  0  0  0  0
   37.0200   26.2710   33.0970 C   0  0  2  0  0  3  0  0  0  0  0  0
   36.8260   25.2610   32.3140 O   0  0  0  0  0  1  0  0  0  0  0  0
   35.7170   29.7530   33.3830 C   0  0  0  0  0  0  0  0  0  0  0  0
   36.0520   28.4470   33.6590 C   0  0  0  0  0  0  0  0  0  0  0  0
   36.7340   27.6270   32.7380 C   0  0  0  0  0  0  0  0  0  0  0  0
   37.0360   28.1800   31.5920 N   0  0  0  0  0  0  0  0  0  0  0  0
   36.6980   29.4840   31.3240 C   0  0  0  0  0  0  0  0  0  0  0  0
   36.0560   30.2600   32.1870 N   0  0  0  0  0  0  0  0  0  0  0  0
   35.1940   30.3020   34.1540 H   0  0  0  0  0  0  0  0  0  0  0  0
   35.7890   28.0090   34.6240 H   0  0  0  0  0  0  0  0  0  0  0  0
   37.0530   30.0790   30.0210 C   0  0  0  0  0  0  0  0  0  0  0  0
   36.8600   31.3720   29.5690 C   0  0  0  0  0  0  0  0  0  0  0  0
   36.3840   32.0600   30.2520 H   0  0  0  0  0  0  0  0  0  0  0  0
   37.2690   31.7010   28.3240 C   0  0  0  0  0  3  0  0  0  0  0  0
   37.8760   30.6710   27.5670 C   0  0  0  0  0  3  0  0  0  0  0  0
   37.8370   29.2290   28.6970 S   0  0  0  0  0  0  0  0  0  0  0  0
  1  3  1  0  0  0  0
  1  4  1  1  0  0  0
  2  1  1  0  0  0  0
  2  3  1  0  0  0  0
  2  5  1  0  0  0  0
  3  7  1  6  0  0  0
  3  8  1  0  0  0  0
  6  2  1  0  0  0  0
  8  9  2  0  0  0  0
  8 13  1  0  0  0  0
  9 10  1  0  0  0  0
 10 15  1  0  0  0  0
 10 11  2  0  0  0  0
 11 16  1  0  0  0  0
 12 11  1  0  0  0  0
 12 17  1  0  0  0  0
 13 12  2  0  0  0  0
 14  9  1  0  0  0  0
 18 19  1  6  0  0  0
 18  1  1  0  0  0  0
 20 21  1  0  0  0  0
 20 26  1  0  0  0  0
 21 27  1  0  0  0  0
 22 18  1  0  0  0  0
 22 21  2  0  0  0  0
 23 22  1  0  0  0  0
 24 23  2  0  0  0  0
 24 25  1  0  0  0  0
 25 20  2  0  0  0  0
 28 24  1  0  0  0  0
 29 28  2  0  0  0  0
 29 30  1  0  0  0  0
 31 29  1  0  0  0  0
 32 31  2  0  0  0  0
 32 33  1  0  0  0  0
 33 28  1  0  0  0  0
M  END
>  <minimizedAffinity>
-5.24343681

$$$$

 OpenBabel03272501373D

 33 36  0  0  1  0  0  0  0  0999 V2000
   35.8100   28.8680   33.5720 C   0  0  2  0  0  0  0  0  0  0  0  0
   34.3960   29.2580   32.9450 C   0  0  0  0  0  0  0  0  0  0  0  0
   35.2940   30.1890   33.7190 C   0  0  1  0  0  0  0  0  0  0  0  0
   35.6440   28.0520   34.3200 H   0  0  0  0  0  0  0  0  0  0  0  0
   33.5410   28.8180   33.4890 H   0  0  0  0  0  0  0  0  0  0  0  0
   34.3410   29.4170   31.8780 H   0  0  0  0  0  0  0  0  0  0  0  0
   35.8030   30.9940   33.0990 H   0  0  0  0  0  0  0  0  0  0  0  0
   34.7110   30.7500   34.9410 C   0  0  0  0  0  0  0  0  0  0  0  0
   35.5150   31.5570   35.7310 C   0  0  0  0  0  0  0  0  0  0  0  0
   34.9480   32.0690   36.8670 C   0  0  0  0  0  0  0  0  0  0  0  0
   33.6510   31.8220   37.2420 C   0  0  0  0  0  0  0  0  0  0  0  0
   32.8790   31.0120   36.4280 C   0  0  0  0  0  0  0  0  0  0  0  0
   33.4160   30.4950   35.3020 N   0  0  0  0  0  0  0  0  0  0  0  0
   36.5430   31.7920   35.4940 H   0  0  0  0  0  0  0  0  0  0  0  0
   35.5140   32.7070   37.5320 H   0  0  0  0  0  0  0  0  0  0  0  0
   33.2020   32.2270   38.1420 H   0  0  0  0  0  0  0  0  0  0  0  0
   31.8500   30.7600   36.6370 H   0  0  0  0  0  0  0  0  0  0  0  0
   36.7230   28.5210   32.4180 C   0  0  2  0  0  3  0  0  0  0  0  0
   36.9100   29.4040   31.4940 O   0  0  0  0  0  1  0  0  0  0  0  0
   38.3800   25.4490   31.1050 C   0  0  0  0  0  0  0  0  0  0  0  0
   37.8120   26.7000   31.2000 C   0  0  0  0  0  0  0  0  0  0  0  0
   37.3230   27.2210   32.4150 C   0  0  0  0  0  0  0  0  0  0  0  0
   37.4380   26.4440   33.4600 N   0  0  0  0  0  0  0  0  0  0  0  0
   38.0060   25.1970   33.3560 C   0  0  0  0  0  0  0  0  0  0  0  0
   38.4670   24.7020   32.2170 N   0  0  0  0  0  0  0  0  0  0  0  0
   38.7260   25.1370   30.1290 H   0  0  0  0  0  0  0  0  0  0  0  0
   37.7280   27.3290   30.3110 H   0  0  0  0  0  0  0  0  0  0  0  0
   38.1220   24.3440   34.5550 C   0  0  0  0  0  0  0  0  0  0  0  0
   38.2390   22.9690   34.6410 C   0  0  0  0  0  0  0  0  0  0  0  0
   38.2520   22.4230   33.7090 H   0  0  0  0  0  0  0  0  0  0  0  0
   38.3330   22.3930   35.8600 C   0  0  0  0  0  3  0  0  0  0  0  0
   38.3010   23.2640   36.9740 C   0  0  0  0  0  3  0  0  0  0  0  0
   38.1340   24.9240   36.2150 S   0  0  0  0  0  0  0  0  0  0  0  0
  1  3  1  0  0  0  0
  1  4  1  1  0  0  0
  2  5  1  0  0  0  0
  2  1  1  0  0  0  0
  2  3  1  0  0  0  0
  3  7  1  6  0  0  0
  3  8  1  0  0  0  0
  6  2  1  0  0  0  0
  8 13  2  0  0  0  0
  8  9  1  0  0  0  0
  9 10  2  0  0  0  0
 10 11  1  0  0  0  0
 10 15  1  0  0  0  0
 11 16  1  0  0  0  0
 12 17  1  0  0  0  0
 12 11  2  0  0  0  0
 13 12  1  0  0  0  0
 14  9  1  0  0  0  0
 18 19  1  6  0  0  0
 18  1  1  0  0  0  0
 20 21  2  0  0  0  0
 20 25  1  0  0  0  0
 21 22  1  0  0  0  0
 22 18  1  0  0  0  0
 22 23  2  0  0  0  0
 24 23  1  0  0  0  0
 24 28  1  0  0  0  0
 25 24  2  0  0  0  0
 26 20  1  0  0  0  0
 27 21  1  0  0  0  0
 28 29  2  0  0  0  0
 28 33  1  0  0  0  0
 29 31  1  0  0  0  0
 30 29  1  0  0  0  0
 31 32  2  0  0  0  0
 33 32  1  0  0  0  0
M  END
>  <minimizedAffinity>
-5.22392511

$$$$

 OpenBabel03272501373D

 33 36  0  0  1  0  0  0  0  0999 V2000
   35.8070   28.7050   34.1350 C   0  0  2  0  0  0  0  0  0  0  0  0
   34.5120   29.1740   33.3300 C   0  0  0  0  0  0  0  0  0  0  0  0
   35.4410   30.0820   34.0940 C   0  0  1  0  0  0  0  0  0  0  0  0
   35.4780   28.0000   34.9400 H   0  0  0  0  0  0  0  0  0  0  0  0
   33.5650   28.8930   33.8250 H   0  0  0  0  0  0  0  0  0  0  0  0
   34.5730   29.2170   32.2520 H   0  0  0  0  0  0  0  0  0  0  0  0
   36.0960   30.7520   33.4520 H   0  0  0  0  0  0  0  0  0  0  0  0
   34.8210   30.8360   35.1880 C   0  0  0  0  0  0  0  0  0  0  0  0
   35.6160   31.7250   35.8940 C   0  0  0  0  0  0  0  0  0  0  0  0
   35.0140   32.4170   36.9110 C   0  0  0  0  0  0  0  0  0  0  0  0
   33.6910   32.2690   37.2460 C   0  0  0  0  0  0  0  0  0  0  0  0
   32.9300   31.3730   36.5180 C   0  0  0  0  0  0  0  0  0  0  0  0
   33.5000   30.6780   35.5110 N   0  0  0  0  0  0  0  0  0  0  0  0
   36.6640   31.8890   35.6820 H   0  0  0  0  0  0  0  0  0  0  0  0
   35.5720   33.1280   37.5060 H   0  0  0  0  0  0  0  0  0  0  0  0
   33.2150   32.8180   38.0510 H   0  0  0  0  0  0  0  0  0  0  0  0
   31.8820   31.1870   36.7050 H   0  0  0  0  0  0  0  0  0  0  0  0
   36.7720   28.1330   33.1220 C   0  0  2  0  0  3  0  0  0  0  0  0
   37.0340   28.8260   32.0630 O   0  0  0  0  0  1  0  0  0  0  0  0
   38.9790   25.5470   34.6530 C   0  0  0  0  0  0  0  0  0  0  0  0
   38.3660   26.7420   34.3510 C   0  0  0  0  0  0  0  0  0  0  0  0
   37.3360   26.8460   33.3940 C   0  0  0  0  0  0  0  0  0  0  0  0
   36.9900   25.7330   32.8010 N   0  0  0  0  0  0  0  0  0  0  0  0
   37.6070   24.5450   33.1090 C   0  0  0  0  0  0  0  0  0  0  0  0
   38.5750   24.4410   34.0080 N   0  0  0  0  0  0  0  0  0  0  0  0
   39.7590   25.5680   35.4020 H   0  0  0  0  0  0  0  0  0  0  0  0
   38.6740   27.6570   34.8610 H   0  0  0  0  0  0  0  0  0  0  0  0
   37.1920   23.3060   32.4220 C   0  0  0  0  0  0  0  0  0  0  0  0
   37.8080   22.0680   32.4070 C   0  0  0  0  0  0  0  0  0  0  0  0
   38.7220   21.9720   32.9730 H   0  0  0  0  0  0  0  0  0  0  0  0
   37.2440   21.0630   31.7010 C   0  0  0  0  0  3  0  0  0  0  0  0
   36.0420   21.3680   31.0190 C   0  0  0  0  0  3  0  0  0  0  0  0
   35.7550   23.1320   31.4240 S   0  0  0  0  0  0  0  0  0  0  0  0
  1  4  1  1  0  0  0
  2  5  1  0  0  0  0
  2  3  1  0  0  0  0
  2  1  1  0  0  0  0
  3  7  1  6  0  0  0
  3  1  1  0  0  0  0
  3  8  1  0  0  0  0
  6  2  1  0  0  0  0
  8 13  2  0  0  0  0
  8  9  1  0  0  0  0
  9 10  2  0  0  0  0
 10 11  1  0  0  0  0
 10 15  1  0  0  0  0
 11 16  1  0  0  0  0
 12 17  1  0  0  0  0
 12 11  2  0  0  0  0
 13 12  1  0  0  0  0
 14  9  1  0  0  0  0
 18 19  1  6  0  0  0
 18 22  1  0  0  0  0
 18  1  1  0  0  0  0
 20 26  1  0  0  0  0
 21 20  1  0  0  0  0
 21 27  1  0  0  0  0
 22 21  2  0  0  0  0
 23 24  2  0  0  0  0
 23 22  1  0  0  0  0
 24 25  1  0  0  0  0
 25 20  2  0  0  0  0
 28 24  1  0  0  0  0
 29 28  2  0  0  0  0
 29 30  1  0  0  0  0
 31 29  1  0  0  0  0
 32 33  1  0  0  0  0
 32 31  2  0  0  0  0
 33 28  1  0  0  0  0
M  END
>  <minimizedAffinity>
-5.14357281

$$$$
