
 OpenBabel03272508273D

 35 38  0  0  1  0  0  0  0  0999 V2000
   33.6440   28.8010   47.1710 C   0  0  2  0  0  0  0  0  0  0  0  0
   34.3770   28.0260   48.2540 C   0  0  2  0  0  0  0  0  0  0  0  0
   33.4450   27.8090   49.2340 O   0  0  0  0  0  0  0  0  0  0  0  0
   32.1900   27.8690   48.7210 C   0  0  0  0  0  0  0  0  0  0  0  0
   32.2980   28.0910   47.2420 C   0  0  1  0  0  0  0  0  0  0  0  0
   33.4900   29.8560   47.4090 H   0  0  0  0  0  0  0  0  0  0  0  0
   34.7120   27.0660   47.8170 H   0  0  0  0  0  0  0  0  0  0  0  0
   31.6940   28.7760   49.1690 H   0  0  0  0  0  0  0  0  0  0  0  0
   31.5380   27.0090   48.9760 H   0  0  0  0  0  0  0  0  0  0  0  0
   32.3540   27.1220   46.6720 H   0  0  0  0  0  0  0  0  0  0  0  0
   35.4260   30.2840   48.9370 C   0  0  1  0  0  0  0  0  0  0  0  0
   35.5160   28.8500   48.7520 C   0  0  1  0  0  0  0  0  0  0  0  0
   35.5780   29.3620   50.1540 C   0  0  0  0  0  0  0  0  0  0  0  0
   34.4950   30.8850   49.0520 H   0  0  0  0  0  0  0  0  0  0  0  0
   36.5150   28.4930   48.3560 H   0  0  0  0  0  0  0  0  0  0  0  0
   36.5180   29.3770   50.7030 H   0  0  0  0  0  0  0  0  0  0  0  0
   34.6860   29.1470   50.7780 H   0  0  0  0  0  0  0  0  0  0  0  0
   36.6180   31.1820   48.7430 C   0  0  0  0  0  0  0  0  0  0  0  0
   36.9060   32.1190   49.7370 C   0  0  0  0  0  0  0  0  0  0  0  0
   37.9890   32.9350   49.5110 C   0  0  0  0  0  0  0  0  0  0  0  0
   38.7290   32.8160   48.3610 N   0  0  0  0  0  0  0  0  0  0  0  0
   38.4180   31.8900   47.4160 C   0  0  0  0  0  0  0  0  0  0  0  0
   37.3560   31.0660   47.6010 N   0  0  0  0  0  0  0  0  0  0  0  0
   36.3300   32.2230   50.6410 H   0  0  0  0  0  0  0  0  0  0  0  0
   38.2920   33.7000   50.2390 H   0  0  0  0  0  0  0  0  0  0  0  0
   38.9870   31.7680   46.4910 H   0  0  0  0  0  0  0  0  0  0  0  0
   34.2150   28.6600   45.9190 O   0  0  0  0  0  0  0  0  0  0  0  0
   34.7950   27.8310   45.9130 H   0  0  0  0  0  0  0  0  0  0  0  0
   31.2810   28.8710   46.7250 O   0  0  0  0  0  0  0  0  0  0  0  0
   29.8880   28.0120   46.8580 C   0  0  0  0  0  0  0  0  0  0  0  0
   29.1250   29.3330   47.0160 C   0  0  0  0  0  0  0  0  0  0  0  0
   29.2080   30.4450   47.0650 H   0  0  0  0  0  0  0  0  0  0  0  0
   27.7830   29.3060   47.1810 C   0  0  0  0  0  3  0  0  0  0  0  0
   27.1180   28.0230   47.2010 C   0  0  0  0  0  3  0  0  0  0  0  0
   28.5890   26.8310   46.9620 S   0  0  0  0  0  0  0  0  0  0  0  0
  1  5  1  0  0  0  0
  1  6  1  1  0  0  0
  1  2  1  0  0  0  0
  2  7  1  6  0  0  0
  2 12  1  0  0  0  0
  2  3  1  0  0  0  0
  4  9  1  0  0  0  0
  4  8  1  0  0  0  0
  4  3  1  0  0  0  0
  5 10  1  6  0  0  0
  5  4  1  0  0  0  0
 11 14  1  6  0  0  0
 11 13  1  0  0  0  0
 12 15  1  6  0  0  0
 12 11  1  0  0  0  0
 12 13  1  0  0  0  0
 13 16  1  0  0  0  0
 13 17  1  0  0  0  0
 18 11  1  0  0  0  0
 18 19  1  0  0  0  0
 19 24  1  0  0  0  0
 20 19  2  0  0  0  0
 20 25  1  0  0  0  0
 21 20  1  0  0  0  0
 22 23  1  0  0  0  0
 22 21  2  0  0  0  0
 23 18  2  0  0  0  0
 26 22  1  0  0  0  0
 27  1  1  0  0  0  0
 28 27  1  0  0  0  0
 29 30  1  0  0  0  0
 29  5  1  0  0  0  0
 30 35  1  0  0  0  0
 30 31  2  0  0  0  0
 31 32  1  0  0  0  0
 31 33  1  0  0  0  0
 33 34  2  0  0  0  0
 35 34  1  0  0  0  0
M  END
>  <minimizedAffinity>
-5.32383776

>  <minimizedRMSD>
1.51625121

$$$$
