
 OpenBabel03272509573D

 43 46  0  0  0  0  0  0  0  0999 V2000
   34.4820   28.2960   48.3560 C   0  0  0  0  0  0  0  0  0  0  0  0
   34.2140   29.1820   47.7140 H   0  0  0  0  0  0  0  0  0  0  0  0
   35.5150   27.9890   48.0540 H   0  0  0  0  0  0  0  0  0  0  0  0
   33.5070   27.1770   48.1930 C   0  0  0  0  0  0  0  0  0  0  0  0
   33.8300   26.5410   47.3320 H   0  0  0  0  0  0  0  0  0  0  0  0
   33.4370   26.5010   49.0510 H   0  0  0  0  0  0  0  0  0  0  0  0
   32.1300   27.6490   47.8480 C   0  0  0  0  0  0  0  0  0  0  0  0
   31.1690   27.6030   48.8420 C   0  0  0  0  0  0  0  0  0  0  0  0
   29.8860   28.0140   48.6140 C   0  0  0  0  0  0  0  0  0  0  0  0
   29.5460   28.4740   47.4020 N   0  0  0  0  0  0  0  0  0  0  0  0
   30.5080   28.5130   46.4340 C   0  0  0  0  0  0  0  0  0  0  0  0
   31.7700   28.1160   46.6330 N   0  0  0  0  0  0  0  0  0  0  0  0
   31.3760   27.2440   49.8400 H   0  0  0  0  0  0  0  0  0  0  0  0
   29.1140   27.9860   49.3820 H   0  0  0  0  0  0  0  0  0  0  0  0
   30.0800   29.0300   45.1110 C   0  0  0  0  0  0  0  0  0  0  0  0
   30.6320   28.4970   44.3100 H   0  0  0  0  0  0  0  0  0  0  0  0
   28.9790   28.9320   44.9910 H   0  0  0  0  0  0  0  0  0  0  0  0
   30.5060   30.4550   44.9770 C   0  0  0  0  0  0  0  0  0  0  0  0
   31.6550   31.0900   45.2600 C   0  0  0  0  0  0  0  0  0  0  0  0
   32.4490   30.4820   45.6670 H   0  0  0  0  0  0  0  0  0  0  0  0
   31.7810   32.4260   45.0370 C   0  0  0  0  0  0  0  0  0  0  0  0
   30.6030   33.0740   44.4860 C   0  0  0  0  0  0  0  0  0  0  0  0
   29.3930   31.6280   44.3440 S   0  0  0  0  0  0  0  0  0  0  0  0
   34.5030   28.7840   49.6850 O   0  0  0  0  0  0  0  0  0  0  0  0
   37.2380   29.9950   51.7100 C   0  0  0  0  0  0  0  0  0  0  0  0
   38.0050   30.6580   50.7300 C   0  0  0  0  0  0  0  0  0  0  0  0
   37.5300   30.6460   49.4280 C   0  0  0  0  0  0  0  0  0  0  0  0
   36.3430   29.9820   49.2120 N   0  0  0  0  0  0  0  0  0  0  0  0
   35.6360   29.3630   50.1560 C   0  0  0  0  0  0  0  0  0  0  0  0
   36.1070   29.3770   51.4270 N   0  0  0  0  0  0  0  0  0  0  0  0
   37.6670   30.0440   52.7010 H   0  0  0  0  0  0  0  0  0  0  0  0
   38.9260   31.1770   50.8800 H   0  0  0  0  0  0  0  0  0  0  0  0
   38.8980   33.1980   49.3230 F   0  0  0  0  0  0  0  0  0  0  0  0
   38.8090   32.4590   48.2220 C   0  0  0  0  0  0  0  0  0  0  0  0
   38.1680   31.2670   48.2800 C   0  0  0  0  0  0  0  0  0  0  0  0
   38.1330   30.5760   47.0770 C   0  0  0  0  0  0  0  0  0  0  0  0
   38.6990   31.0600   45.9280 C   0  0  0  0  0  0  0  0  0  0  0  0
   39.3410   32.2730   45.9070 C   0  0  0  0  0  0  0  0  0  0  0  0
   39.3880   32.9690   47.0780 C   0  0  0  0  0  0  0  0  0  0  0  0
   37.6440   29.6030   46.9940 H   0  0  0  0  0  0  0  0  0  0  0  0
   38.6520   30.4950   45.0040 H   0  0  0  0  0  0  0  0  0  0  0  0
   39.7760   32.6170   44.9720 H   0  0  0  0  0  0  0  0  0  0  0  0
   39.8890   33.9300   47.0900 H   0  0  0  0  0  0  0  0  0  0  0  0
  1 24  1  0  0  0  0
  2  1  1  0  0  0  0
  3  1  1  0  0  0  0
  4  1  1  0  0  0  0
  4  6  1  0  0  0  0
  5  4  1  0  0  0  0
  7  4  1  0  0  0  0
  7  8  1  0  0  0  0
  8 13  1  0  0  0  0
  9  8  2  0  0  0  0
  9 14  1  0  0  0  0
 10  9  1  0  0  0  0
 11 12  1  0  0  0  0
 11 10  2  0  0  0  0
 12  7  2  0  0  0  0
 15 11  1  0  0  0  0
 16 15  1  0  0  0  0
 17 15  1  0  0  0  0
 18 15  1  0  0  0  0
 18 19  2  0  0  0  0
 19 20  1  0  0  0  0
 21 19  1  0  0  0  0
 22 21  2  0  0  0  0
 23 22  1  0  0  0  0
 23 18  1  0  0  0  0
 24 29  1  0  0  0  0
 25 31  1  0  0  0  0
 26 32  1  0  0  0  0
 26 25  2  0  0  0  0
 27 26  1  0  0  0  0
 28 27  2  0  0  0  0
 28 29  1  0  0  0  0
 29 30  2  0  0  0  0
 30 25  1  0  0  0  0
 34 35  1  0  0  0  0
 34 33  1  0  0  0  0
 35 27  1  0  0  0  0
 36 35  2  0  0  0  0
 37 36  1  0  0  0  0
 38 37  2  0  0  0  0
 38 39  1  0  0  0  0
 39 43  1  0  0  0  0
 39 34  2  0  0  0  0
 40 36  1  0  0  0  0
 41 37  1  0  0  0  0
 42 38  1  0  0  0  0
M  END
>  <minimizedAffinity>
-6.35086441

>  <minimizedRMSD>
1.0681076

$$$$
