
 OpenBabel03262520233D

 29 31  0  0  0  0  0  0  0  0999 V2000
   35.7240   29.9940   47.5630 C   0  0  0  0  0  0  0  0  0  0  0  0
   35.8990   29.2790   48.7610 C   0  0  0  0  0  0  0  0  0  0  0  0
   36.8430   29.5000   49.7010 C   0  0  0  0  0  0  0  0  0  0  0  0
   37.7400   30.4930   49.5340 C   0  0  0  0  0  0  0  0  0  0  0  0
   37.5830   31.1900   48.3820 C   0  0  0  0  0  0  0  0  0  0  0  0
   36.6420   30.9230   47.5090 N   0  0  0  0  0  0  0  0  0  0  0  0
   35.1770   28.4230   48.9720 H   0  0  0  0  0  0  0  0  0  0  0  0
   36.8600   28.8410   50.6160 H   0  0  0  0  0  0  0  0  0  0  0  0
   38.5000   30.7090   50.2410 H   0  0  0  0  0  0  0  0  0  0  0  0
   33.4700   29.2770   47.4090 C   0  0  0  0  0  0  0  0  0  0  0  0
   34.6310   29.6540   46.6670 C   0  0  0  0  0  0  0  0  0  0  0  0
   34.5150   29.6540   45.3040 C   0  0  0  0  0  0  0  0  0  0  0  0
   33.3030   29.2960   44.7730 N   0  0  0  0  0  0  0  0  0  0  0  0
   32.2300   28.9490   45.4770 C   0  0  0  0  0  0  0  0  0  0  0  0
   32.3370   28.9450   46.8100 N   0  0  0  0  0  0  0  0  0  0  0  0
   31.0710   28.6280   44.7550 N   0  0  0  0  0  0  0  0  0  0  0  0
   33.4180   29.2330   48.4870 H   0  0  0  0  0  0  0  0  0  0  0  0
   30.0810   28.7040   45.1310 H   0  0  0  0  0  0  0  0  0  0  0  0
   31.0810   28.2900   43.7920 H   0  0  0  0  0  0  0  0  0  0  0  0
   35.6690   30.0300   44.4800 C   0  0  0  0  0  0  0  0  0  0  0  0
   36.7250   29.3560   44.8870 F   0  0  0  0  0  0  0  0  0  0  0  0
   35.4870   29.8240   43.1250 F   0  0  0  0  0  0  0  0  0  0  0  0
   35.9590   31.4180   44.6230 F   0  0  0  0  0  0  0  0  0  0  0  0
   38.5380   32.3160   48.1080 C   0  0  0  0  0  0  0  0  0  0  0  0
   39.2380   32.5470   47.0140 C   0  0  0  0  0  0  0  0  0  0  0  0
   39.1570   31.8630   46.1550 H   0  0  0  0  0  0  0  0  0  0  0  0
   40.0660   33.6350   46.9440 C   0  0  0  0  0  0  0  0  0  0  0  0
   40.1080   34.4500   48.0770 C   0  0  0  0  0  0  0  0  0  0  0  0
   38.8970   33.5600   49.2350 S   0  0  0  0  0  0  0  0  0  0  0  0
  1  2  1  0  0  0  0
  2  7  1  0  0  0  0
  2  3  2  0  0  0  0
  3  8  1  0  0  0  0
  4  3  1  0  0  0  0
  4  9  1  0  0  0  0
  5  4  2  0  0  0  0
  6  1  2  0  0  0  0
  6  5  1  0  0  0  0
 10 17  1  0  0  0  0
 11 10  2  0  0  0  0
 11  1  1  0  0  0  0
 12 11  1  0  0  0  0
 13 12  2  0  0  0  0
 13 14  1  0  0  0  0
 14 15  2  0  0  0  0
 15 10  1  0  0  0  0
 16 18  1  0  0  0  0
 16 14  1  0  0  0  0
 19 16  1  0  0  0  0
 20 23  1  0  0  0  0
 20 21  1  0  0  0  0
 20 12  1  0  0  0  0
 22 20  1  0  0  0  0
 24  5  1  0  0  0  0
 24 29  1  0  0  0  0
 25 24  2  0  0  0  0
 26 25  1  0  0  0  0
 27 25  1  0  0  0  0
 27 28  2  0  0  0  0
 28 29  1  0  0  0  0
M  END
>  <minimizedAffinity>
-4.68524885

>  <minimizedRMSD>
2.92305875

$$$$
