
 OpenBabel03272510343D

 25 27  0  0  0  0  0  0  0  0999 V2000
   35.9470   30.1200   47.2360 C   0  0  0  0  0  0  0  0  0  0  0  0
   35.3780   30.1090   45.9800 C   0  0  0  0  0  0  0  0  0  0  0  0
   34.3020   29.2910   45.6950 C   0  0  0  0  0  0  0  0  0  0  0  0
   33.8070   28.4850   46.6910 C   0  0  0  0  0  0  0  0  0  0  0  0
   34.3560   28.4770   47.9550 C   0  0  0  0  0  0  0  0  0  0  0  0
   35.4320   29.2990   48.2290 C   0  0  0  0  0  0  0  0  0  0  0  0
   35.7720   30.7520   45.1800 H   0  0  0  0  0  0  0  0  0  0  0  0
   33.8560   29.2800   44.7070 H   0  0  0  0  0  0  0  0  0  0  0  0
   32.9620   27.8140   46.5480 H   0  0  0  0  0  0  0  0  0  0  0  0
   34.0280   27.8710   48.8000 H   0  0  0  0  0  0  0  0  0  0  0  0
   37.9560   32.7520   48.7270 C   0  0  0  0  0  0  0  0  0  0  0  0
   39.1270   32.7760   47.9700 C   0  0  0  0  0  0  0  0  0  0  0  0
   39.2120   31.8480   46.9160 C   0  0  0  0  0  0  0  0  0  0  0  0
   38.1780   30.9990   46.6930 N   0  0  0  0  0  0  0  0  0  0  0  0
   37.0710   31.0110   47.4460 C   0  0  0  0  0  0  0  0  0  0  0  0
   36.9650   31.8990   48.4710 N   0  0  0  0  0  0  0  0  0  0  0  0
   37.8860   33.4760   49.5510 H   0  0  0  0  0  0  0  0  0  0  0  0
   39.9100   33.4930   48.2200 H   0  0  0  0  0  0  0  0  0  0  0  0
   40.1190   31.8690   46.3350 H   0  0  0  0  0  0  0  0  0  0  0  0
   36.0620   29.3330   49.5610 C   0  0  0  0  0  0  0  0  0  0  0  0
   37.4650   29.1430   49.7670 C   0  0  0  0  0  0  0  0  0  0  0  0
   38.1260   28.9640   48.9350 H   0  0  0  0  0  0  0  0  0  0  0  0
   37.9270   29.1970   51.0530 C   0  0  0  0  0  3  0  0  0  0  0  0
   37.0030   29.4350   52.1030 C   0  0  0  0  0  3  0  0  0  0  0  0
   35.3960   29.5970   51.2790 S   0  0  0  0  0  0  0  0  0  0  0  0
  1 15  1  0  0  0  0
  1  6  1  0  0  0  0
  2  1  2  0  0  0  0
  3  2  1  0  0  0  0
  3  4  2  0  0  0  0
  4  5  1  0  0  0  0
  5  6  2  0  0  0  0
  5 10  1  0  0  0  0
  6 20  1  0  0  0  0
  7  2  1  0  0  0  0
  8  3  1  0  0  0  0
  9  4  1  0  0  0  0
 11 17  1  0  0  0  0
 12 18  1  0  0  0  0
 12 11  2  0  0  0  0
 13 12  1  0  0  0  0
 14 13  2  0  0  0  0
 14 15  1  0  0  0  0
 15 16  2  0  0  0  0
 16 11  1  0  0  0  0
 19 13  1  0  0  0  0
 20 21  2  0  0  0  0
 20 25  1  0  0  0  0
 21 23  1  0  0  0  0
 22 21  1  0  0  0  0
 23 24  2  0  0  0  0
 25 24  1  0  0  0  0
M  END
>  <minimizedAffinity>
-4.07838202

>  <minimizedRMSD>
1.56607771

$$$$
