
 OpenBabel03272501553D

 21 22  0  0  0  0  0  0  0  0999 V2000
   38.5400   26.9390   35.7500 C   0  0  0  0  0  0  0  0  0  0  0  0
   37.8340   27.7940   35.7940 H   0  0  0  0  0  0  0  0  0  0  0  0
   39.2370   26.9180   36.6070 H   0  0  0  0  0  0  0  0  0  0  0  0
   41.4680   27.0970   33.4990 C   0  0  0  0  0  0  0  0  0  0  0  0
   40.8850   27.1820   32.2320 C   0  0  0  0  0  0  0  0  0  0  0  0
   39.4660   27.1850   32.1510 C   0  0  0  0  0  0  0  0  0  0  0  0
   38.7740   27.1050   33.3130 N   0  0  0  0  0  0  0  0  0  0  0  0
   39.3850   27.0240   34.5240 C   0  0  0  0  0  0  0  0  0  0  0  0
   40.7310   27.0210   34.6000 N   0  0  0  0  0  0  0  0  0  0  0  0
   42.5590   27.0940   33.5790 H   0  0  0  0  0  0  0  0  0  0  0  0
   41.4710   27.2440   31.3270 H   0  0  0  0  0  0  0  0  0  0  0  0
   38.9790   27.2480   31.2080 H   0  0  0  0  0  0  0  0  0  0  0  0
   37.7050   25.6830   35.7030 C   0  0  0  0  0  0  0  0  0  0  0  0
   36.6860   25.9800   36.0850 H   0  0  0  0  0  0  0  0  0  0  0  0
   37.6100   25.2880   34.6710 H   0  0  0  0  0  0  0  0  0  0  0  0
   38.2560   24.7250   36.6210 C   0  0  0  0  0  0  0  0  0  0  0  0
   38.0390   24.3680   37.9010 C   0  0  0  0  0  0  0  0  0  0  0  0
   37.2510   24.9360   38.3820 H   0  0  0  0  0  0  0  0  0  0  0  0
   38.7510   23.3820   38.5230 C   0  0  0  0  0  3  0  0  0  0  0  0
   39.7400   22.7560   37.7200 C   0  0  0  0  0  3  0  0  0  0  0  0
   39.6080   23.6110   36.1050 S   0  0  0  0  0  0  0  0  0  0  0  0
  1  2  1  0  0  0  0
  1  3  1  0  0  0  0
  4 10  1  0  0  0  0
  4  9  1  0  0  0  0
  5  4  2  0  0  0  0
  6  5  1  0  0  0  0
  6  7  2  0  0  0  0
  7  8  1  0  0  0  0
  8  9  2  0  0  0  0
  8  1  1  0  0  0  0
 11  5  1  0  0  0  0
 12  6  1  0  0  0  0
 13  1  1  0  0  0  0
 13 14  1  0  0  0  0
 13 16  1  0  0  0  0
 15 13  1  0  0  0  0
 16 17  2  0  0  0  0
 17 18  1  0  0  0  0
 17 19  1  0  0  0  0
 20 19  2  0  0  0  0
 21 16  1  0  0  0  0
 21 20  1  0  0  0  0
M  END
>  <minimizedAffinity>
-3.95051169

$$$$

 OpenBabel03272501553D

 21 22  0  0  0  0  0  0  0  0999 V2000
   38.3430   25.6420   34.0620 C   0  0  0  0  0  0  0  0  0  0  0  0
   38.9480   26.5600   33.9120 H   0  0  0  0  0  0  0  0  0  0  0  0
   38.9510   24.7200   34.0220 H   0  0  0  0  0  0  0  0  0  0  0  0
   35.7930   26.4680   31.5160 C   0  0  0  0  0  0  0  0  0  0  0  0
   35.4340   25.2140   31.0150 C   0  0  0  0  0  0  0  0  0  0  0  0
   36.0770   24.0700   31.5590 C   0  0  0  0  0  0  0  0  0  0  0  0
   36.9980   24.2740   32.5310 N   0  0  0  0  0  0  0  0  0  0  0  0
   37.3160   25.5140   32.9880 C   0  0  0  0  0  0  0  0  0  0  0  0
   36.7060   26.5990   32.4710 N   0  0  0  0  0  0  0  0  0  0  0  0
   35.3080   27.3590   31.1080 H   0  0  0  0  0  0  0  0  0  0  0  0
   34.6940   25.0910   30.2370 H   0  0  0  0  0  0  0  0  0  0  0  0
   35.8350   23.0960   31.2080 H   0  0  0  0  0  0  0  0  0  0  0  0
   37.6610   25.7810   35.4000 C   0  0  0  0  0  0  0  0  0  0  0  0
   37.9440   26.8040   35.7820 H   0  0  0  0  0  0  0  0  0  0  0  0
   36.5580   25.7130   35.3120 H   0  0  0  0  0  0  0  0  0  0  0  0
   38.2100   24.8080   36.3040 C   0  0  0  0  0  0  0  0  0  0  0  0
   37.9610   24.3990   37.5620 C   0  0  0  0  0  0  0  0  0  0  0  0
   37.1390   24.9240   38.0340 H   0  0  0  0  0  0  0  0  0  0  0  0
   38.6830   23.4140   38.1740 C   0  0  0  0  0  3  0  0  0  0  0  0
   39.7190   22.8490   37.3850 C   0  0  0  0  0  3  0  0  0  0  0  0
   39.6150   23.7570   35.7980 S   0  0  0  0  0  0  0  0  0  0  0  0
  1 13  1  0  0  0  0
  2  1  1  0  0  0  0
  3  1  1  0  0  0  0
  4  9  1  0  0  0  0
  5  4  2  0  0  0  0
  5  6  1  0  0  0  0
  6  7  2  0  0  0  0
  7  8  1  0  0  0  0
  8  1  1  0  0  0  0
  9  8  2  0  0  0  0
 10  4  1  0  0  0  0
 11  5  1  0  0  0  0
 12  6  1  0  0  0  0
 13 14  1  0  0  0  0
 13 16  1  0  0  0  0
 15 13  1  0  0  0  0
 16 17  2  0  0  0  0
 17 18  1  0  0  0  0
 17 19  1  0  0  0  0
 20 19  2  0  0  0  0
 21 16  1  0  0  0  0
 21 20  1  0  0  0  0
M  END
>  <minimizedAffinity>
-3.85525274

$$$$

 OpenBabel03272501553D

 21 22  0  0  0  0  0  0  0  0999 V2000
   38.1460   25.4760   34.9530 C   0  0  0  0  0  0  0  0  0  0  0  0
   37.1910   25.1340   34.5020 H   0  0  0  0  0  0  0  0  0  0  0  0
   39.0000   25.3900   34.2580 H   0  0  0  0  0  0  0  0  0  0  0  0
   38.1210   24.0160   38.3500 C   0  0  0  0  0  0  0  0  0  0  0  0
   39.1610   23.0850   38.2970 C   0  0  0  0  0  0  0  0  0  0  0  0
   39.8800   22.9570   37.0780 C   0  0  0  0  0  0  0  0  0  0  0  0
   39.5070   23.7510   36.0470 N   0  0  0  0  0  0  0  0  0  0  0  0
   38.4870   24.6440   36.1430 C   0  0  0  0  0  0  0  0  0  0  0  0
   37.8040   24.7650   37.3000 N   0  0  0  0  0  0  0  0  0  0  0  0
   37.5570   24.1270   39.2800 H   0  0  0  0  0  0  0  0  0  0  0  0
   39.4300   22.4680   39.1430 H   0  0  0  0  0  0  0  0  0  0  0  0
   40.6800   22.2610   36.9930 H   0  0  0  0  0  0  0  0  0  0  0  0
   37.9390   26.9080   35.3810 C   0  0  0  0  0  0  0  0  0  0  0  0
   37.3910   26.8560   36.3660 H   0  0  0  0  0  0  0  0  0  0  0  0
   38.9010   27.4400   35.5230 H   0  0  0  0  0  0  0  0  0  0  0  0
   37.0760   27.5550   34.4330 C   0  0  0  0  0  0  0  0  0  0  0  0
   36.2150   28.5910   34.4490 C   0  0  0  0  0  0  0  0  0  0  0  0
   36.1370   29.0750   35.4150 H   0  0  0  0  0  0  0  0  0  0  0  0
   35.5130   28.9840   33.3450 C   0  0  0  0  0  3  0  0  0  0  0  0
   35.7570   28.2200   32.1730 C   0  0  0  0  0  3  0  0  0  0  0  0
   36.9830   26.9680   32.7060 S   0  0  0  0  0  0  0  0  0  0  0  0
  1 13  1  0  0  0  0
  1  8  1  0  0  0  0
  2  1  1  0  0  0  0
  3  1  1  0  0  0  0
  4 10  1  0  0  0  0
  5  4  1  0  0  0  0
  5 11  1  0  0  0  0
  6  5  2  0  0  0  0
  7  8  2  0  0  0  0
  7  6  1  0  0  0  0
  8  9  1  0  0  0  0
  9  4  2  0  0  0  0
 12  6  1  0  0  0  0
 13 15  1  0  0  0  0
 13 14  1  0  0  0  0
 16 17  2  0  0  0  0
 16 13  1  0  0  0  0
 17 18  1  0  0  0  0
 19 17  1  0  0  0  0
 20 21  1  0  0  0  0
 20 19  2  0  0  0  0
 21 16  1  0  0  0  0
M  END
>  <minimizedAffinity>
-3.85104561

$$$$

 OpenBabel03272501553D

 21 22  0  0  0  0  0  0  0  0999 V2000
   37.9270   22.0480   34.6110 C   0  0  0  0  0  0  0  0  0  0  0  0
   36.8220   22.1050   34.5270 H   0  0  0  0  0  0  0  0  0  0  0  0
   38.3120   21.0220   34.4710 H   0  0  0  0  0  0  0  0  0  0  0  0
   40.0140   22.6770   37.5970 C   0  0  0  0  0  0  0  0  0  0  0  0
   39.1240   23.2970   38.4760 C   0  0  0  0  0  0  0  0  0  0  0  0
   37.7880   23.5010   38.0370 C   0  0  0  0  0  0  0  0  0  0  0  0
   37.4680   23.0780   36.7910 N   0  0  0  0  0  0  0  0  0  0  0  0
   38.3690   22.4800   35.9680 C   0  0  0  0  0  0  0  0  0  0  0  0
   39.6370   22.2860   36.3850 N   0  0  0  0  0  0  0  0  0  0  0  0
   41.0460   22.5120   37.9190 H   0  0  0  0  0  0  0  0  0  0  0  0
   39.4160   23.6210   39.4640 H   0  0  0  0  0  0  0  0  0  0  0  0
   37.0760   23.9690   38.6730 H   0  0  0  0  0  0  0  0  0  0  0  0
   38.4950   22.9840   33.5730 C   0  0  0  0  0  0  0  0  0  0  0  0
   38.8830   23.8750   34.1470 H   0  0  0  0  0  0  0  0  0  0  0  0
   39.3260   22.5190   33.0070 H   0  0  0  0  0  0  0  0  0  0  0  0
   37.4270   23.4400   32.7260 C   0  0  0  0  0  0  0  0  0  0  0  0
   36.4730   22.8650   31.9690 C   0  0  0  0  0  0  0  0  0  0  0  0
   36.4990   21.7820   31.9880 H   0  0  0  0  0  0  0  0  0  0  0  0
   35.5650   23.5910   31.2510 C   0  0  0  0  0  3  0  0  0  0  0  0
   35.6990   25.0000   31.3610 C   0  0  0  0  0  3  0  0  0  0  0  0
   37.1240   25.2250   32.4890 S   0  0  0  0  0  0  0  0  0  0  0  0
  1  8  1  0  0  0  0
  2  1  1  0  0  0  0
  3  1  1  0  0  0  0
  4 10  1  0  0  0  0
  4  5  1  0  0  0  0
  5 11  1  0  0  0  0
  6  5  2  0  0  0  0
  6 12  1  0  0  0  0
  7  6  1  0  0  0  0
  8  9  1  0  0  0  0
  8  7  2  0  0  0  0
  9  4  2  0  0  0  0
 13 14  1  0  0  0  0
 13  1  1  0  0  0  0
 15 13  1  0  0  0  0
 16 13  1  0  0  0  0
 17 18  1  0  0  0  0
 17 16  2  0  0  0  0
 19 20  2  0  0  0  0
 19 17  1  0  0  0  0
 20 21  1  0  0  0  0
 21 16  1  0  0  0  0
M  END
>  <minimizedAffinity>
-3.84864283

$$$$

 OpenBabel03272501553D

 21 22  0  0  0  0  0  0  0  0999 V2000
   38.0240   25.4080   34.8940 C   0  0  0  0  0  0  0  0  0  0  0  0
   37.0180   25.0910   34.5480 H   0  0  0  0  0  0  0  0  0  0  0  0
   38.8000   25.2880   34.1170 H   0  0  0  0  0  0  0  0  0  0  0  0
   39.8420   22.9590   36.9830 C   0  0  0  0  0  0  0  0  0  0  0  0
   39.2180   23.0850   38.2270 C   0  0  0  0  0  0  0  0  0  0  0  0
   38.1590   24.0240   38.3490 C   0  0  0  0  0  0  0  0  0  0  0  0
   37.8240   24.7360   37.2460 N   0  0  0  0  0  0  0  0  0  0  0  0
   38.4600   24.5800   36.0550 C   0  0  0  0  0  0  0  0  0  0  0  0
   39.4660   23.6890   35.9390 N   0  0  0  0  0  0  0  0  0  0  0  0
   40.6590   22.2410   36.8720 H   0  0  0  0  0  0  0  0  0  0  0  0
   39.5130   22.4990   39.0850 H   0  0  0  0  0  0  0  0  0  0  0  0
   37.6550   24.1530   39.2760 H   0  0  0  0  0  0  0  0  0  0  0  0
   37.9060   26.8520   35.3190 C   0  0  0  0  0  0  0  0  0  0  0  0
   37.3890   26.8320   36.3230 H   0  0  0  0  0  0  0  0  0  0  0  0
   38.8970   27.3340   35.4250 H   0  0  0  0  0  0  0  0  0  0  0  0
   37.0440   27.5370   34.3970 C   0  0  0  0  0  0  0  0  0  0  0  0
   36.2070   28.5910   34.4470 C   0  0  0  0  0  0  0  0  0  0  0  0
   36.1540   29.0570   35.4240 H   0  0  0  0  0  0  0  0  0  0  0  0
   35.4990   29.0230   33.3610 C   0  0  0  0  0  3  0  0  0  0  0  0
   35.7080   28.2770   32.1710 C   0  0  0  0  0  3  0  0  0  0  0  0
   36.9130   26.9880   32.6600 S   0  0  0  0  0  0  0  0  0  0  0  0
  1 13  1  0  0  0  0
  1  8  1  0  0  0  0
  2  1  1  0  0  0  0
  3  1  1  0  0  0  0
  4  5  1  0  0  0  0
  5  6  2  0  0  0  0
  5 11  1  0  0  0  0
  6 12  1  0  0  0  0
  7  6  1  0  0  0  0
  8  7  2  0  0  0  0
  9  8  1  0  0  0  0
  9  4  2  0  0  0  0
 10  4  1  0  0  0  0
 13 15  1  0  0  0  0
 13 14  1  0  0  0  0
 16 17  2  0  0  0  0
 16 13  1  0  0  0  0
 17 18  1  0  0  0  0
 19 17  1  0  0  0  0
 20 21  1  0  0  0  0
 20 19  2  0  0  0  0
 21 16  1  0  0  0  0
M  END
>  <minimizedAffinity>
-3.84796405

$$$$

 OpenBabel03272501553D

 21 22  0  0  0  0  0  0  0  0999 V2000
   38.7920   21.9590   34.2780 C   0  0  0  0  0  0  0  0  0  0  0  0
   38.6970   20.8550   34.2400 H   0  0  0  0  0  0  0  0  0  0  0  0
   39.7270   22.3230   33.8150 H   0  0  0  0  0  0  0  0  0  0  0  0
   37.7590   23.4010   37.5220 C   0  0  0  0  0  0  0  0  0  0  0  0
   38.9130   23.2810   38.2990 C   0  0  0  0  0  0  0  0  0  0  0  0
   40.0620   22.6970   37.7010 C   0  0  0  0  0  0  0  0  0  0  0  0
   39.9580   22.2950   36.4110 N   0  0  0  0  0  0  0  0  0  0  0  0
   38.8130   22.4310   35.6920 C   0  0  0  0  0  0  0  0  0  0  0  0
   37.7230   22.9850   36.2610 N   0  0  0  0  0  0  0  0  0  0  0  0
   36.8650   23.8470   37.9680 H   0  0  0  0  0  0  0  0  0  0  0  0
   38.9570   23.6130   39.3260 H   0  0  0  0  0  0  0  0  0  0  0  0
   40.9620   22.5860   38.2550 H   0  0  0  0  0  0  0  0  0  0  0  0
   37.5840   22.5280   33.5740 C   0  0  0  0  0  0  0  0  0  0  0  0
   36.9950   23.0690   34.3700 H   0  0  0  0  0  0  0  0  0  0  0  0
   37.8690   23.2430   32.7760 H   0  0  0  0  0  0  0  0  0  0  0  0
   36.7760   21.4430   33.0910 C   0  0  0  0  0  0  0  0  0  0  0  0
   35.8930   20.5770   33.6220 C   0  0  0  0  0  0  0  0  0  0  0  0
   35.7360   20.7140   34.6860 H   0  0  0  0  0  0  0  0  0  0  0  0
   35.2610   19.6200   32.8800 C   0  0  0  0  0  3  0  0  0  0  0  0
   35.6020   19.6030   31.5020 C   0  0  0  0  0  3  0  0  0  0  0  0
   36.8170   20.9620   31.3300 S   0  0  0  0  0  0  0  0  0  0  0  0
  1  8  1  0  0  0  0
  2  1  1  0  0  0  0
  3  1  1  0  0  0  0
  4 10  1  0  0  0  0
  4  5  1  0  0  0  0
  5 11  1  0  0  0  0
  6 12  1  0  0  0  0
  6  5  2  0  0  0  0
  7  6  1  0  0  0  0
  8  9  1  0  0  0  0
  8  7  2  0  0  0  0
  9  4  2  0  0  0  0
 13  1  1  0  0  0  0
 13 14  1  0  0  0  0
 15 13  1  0  0  0  0
 16 13  1  0  0  0  0
 16 17  2  0  0  0  0
 17 18  1  0  0  0  0
 19 17  1  0  0  0  0
 20 19  2  0  0  0  0
 21 20  1  0  0  0  0
 21 16  1  0  0  0  0
M  END
>  <minimizedAffinity>
-3.81139135

$$$$

 OpenBabel03272501553D

 21 22  0  0  0  0  0  0  0  0999 V2000
   37.8100   25.9270   35.7290 C   0  0  0  0  0  0  0  0  0  0  0  0
   36.9690   26.3330   36.3290 H   0  0  0  0  0  0  0  0  0  0  0  0
   37.4810   25.5150   34.7590 H   0  0  0  0  0  0  0  0  0  0  0  0
   40.0730   23.1240   36.5600 C   0  0  0  0  0  0  0  0  0  0  0  0
   39.6620   22.7610   37.8440 C   0  0  0  0  0  0  0  0  0  0  0  0
   38.5930   23.4890   38.4330 C   0  0  0  0  0  0  0  0  0  0  0  0
   38.0430   24.4890   37.7050 N   0  0  0  0  0  0  0  0  0  0  0  0
   38.4760   24.8090   36.4570 C   0  0  0  0  0  0  0  0  0  0  0  0
   39.4910   24.1180   35.8990 N   0  0  0  0  0  0  0  0  0  0  0  0
   40.8950   22.5750   36.0930 H   0  0  0  0  0  0  0  0  0  0  0  0
   40.1270   21.9560   38.3950 H   0  0  0  0  0  0  0  0  0  0  0  0
   38.2470   23.2460   39.4090 H   0  0  0  0  0  0  0  0  0  0  0  0
   38.7910   27.0570   35.5320 C   0  0  0  0  0  0  0  0  0  0  0  0
   38.2200   28.0010   35.7690 H   0  0  0  0  0  0  0  0  0  0  0  0
   39.6620   26.9720   36.2120 H   0  0  0  0  0  0  0  0  0  0  0  0
   39.1670   27.1070   34.1460 C   0  0  0  0  0  0  0  0  0  0  0  0
   38.5230   27.1830   32.9660 C   0  0  0  0  0  0  0  0  0  0  0  0
   37.4440   27.2140   33.0620 H   0  0  0  0  0  0  0  0  0  0  0  0
   39.1790   27.2160   31.7680 C   0  0  0  0  0  3  0  0  0  0  0  0
   40.5960   27.1660   31.8570 C   0  0  0  0  0  3  0  0  0  0  0  0
   40.9250   27.0720   33.6560 S   0  0  0  0  0  0  0  0  0  0  0  0
  1  2  1  0  0  0  0
  1  8  1  0  0  0  0
  3  1  1  0  0  0  0
  4  5  1  0  0  0  0
  5 11  1  0  0  0  0
  5  6  2  0  0  0  0
  6 12  1  0  0  0  0
  7  6  1  0  0  0  0
  8  7  2  0  0  0  0
  9  8  1  0  0  0  0
  9  4  2  0  0  0  0
 10  4  1  0  0  0  0
 13  1  1  0  0  0  0
 13 14  1  0  0  0  0
 13 15  1  0  0  0  0
 16 13  1  0  0  0  0
 17 18  1  0  0  0  0
 17 16  2  0  0  0  0
 19 20  2  0  0  0  0
 19 17  1  0  0  0  0
 20 21  1  0  0  0  0
 21 16  1  0  0  0  0
M  END
>  <minimizedAffinity>
-3.78700757

$$$$

 OpenBabel03272501553D

 21 22  0  0  0  0  0  0  0  0999 V2000
   38.4920   23.4220   34.2520 C   0  0  0  0  0  0  0  0  0  0  0  0
   37.5580   22.9000   33.9600 H   0  0  0  0  0  0  0  0  0  0  0  0
   39.3960   22.9490   33.8280 H   0  0  0  0  0  0  0  0  0  0  0  0
   39.8410   22.7500   37.6280 C   0  0  0  0  0  0  0  0  0  0  0  0
   38.9210   23.3840   38.4650 C   0  0  0  0  0  0  0  0  0  0  0  0
   37.8210   24.0530   37.8610 C   0  0  0  0  0  0  0  0  0  0  0  0
   37.7410   24.0270   36.5090 N   0  0  0  0  0  0  0  0  0  0  0  0
   38.6620   23.3970   35.7330 C   0  0  0  0  0  0  0  0  0  0  0  0
   39.7050   22.7630   36.3070 N   0  0  0  0  0  0  0  0  0  0  0  0
   40.6930   22.2310   38.0760 H   0  0  0  0  0  0  0  0  0  0  0  0
   39.0180   23.3830   39.5410 H   0  0  0  0  0  0  0  0  0  0  0  0
   37.0960   24.5490   38.4590 H   0  0  0  0  0  0  0  0  0  0  0  0
   38.3600   24.8510   33.7830 C   0  0  0  0  0  0  0  0  0  0  0  0
   38.0070   25.4350   34.6830 H   0  0  0  0  0  0  0  0  0  0  0  0
   39.3280   25.2630   33.4340 H   0  0  0  0  0  0  0  0  0  0  0  0
   37.3290   24.9170   32.7850 C   0  0  0  0  0  0  0  0  0  0  0  0
   36.6450   24.0350   32.0330 C   0  0  0  0  0  0  0  0  0  0  0  0
   36.9280   23.0040   32.2090 H   0  0  0  0  0  0  0  0  0  0  0  0
   35.6870   24.4160   31.1370 C   0  0  0  0  0  3  0  0  0  0  0  0
   35.4630   25.8160   31.0540 C   0  0  0  0  0  3  0  0  0  0  0  0
   36.6380   26.5260   32.2660 S   0  0  0  0  0  0  0  0  0  0  0  0
  1  8  1  0  0  0  0
  2  1  1  0  0  0  0
  3  1  1  0  0  0  0
  4 10  1  0  0  0  0
  4  5  1  0  0  0  0
  5 11  1  0  0  0  0
  6 12  1  0  0  0  0
  6  5  2  0  0  0  0
  7  6  1  0  0  0  0
  8  9  1  0  0  0  0
  8  7  2  0  0  0  0
  9  4  2  0  0  0  0
 13  1  1  0  0  0  0
 13 14  1  0  0  0  0
 15 13  1  0  0  0  0
 16 13  1  0  0  0  0
 17 18  1  0  0  0  0
 17 16  2  0  0  0  0
 19 17  1  0  0  0  0
 20 19  2  0  0  0  0
 20 21  1  0  0  0  0
 21 16  1  0  0  0  0
M  END
>  <minimizedAffinity>
-3.71601462

$$$$

 OpenBabel03272501553D

 21 22  0  0  0  0  0  0  0  0999 V2000
   35.5320   24.0050   31.2190 C   0  0  0  0  0  0  0  0  0  0  0  0
   35.1620   24.1080   30.1780 H   0  0  0  0  0  0  0  0  0  0  0  0
   34.7440   23.6800   31.9210 H   0  0  0  0  0  0  0  0  0  0  0  0
   37.3580   26.5560   33.1760 C   0  0  0  0  0  0  0  0  0  0  0  0
   36.9130   27.7560   32.6170 C   0  0  0  0  0  0  0  0  0  0  0  0
   35.9740   27.6880   31.5530 C   0  0  0  0  0  0  0  0  0  0  0  0
   35.5710   26.4580   31.1530 N   0  0  0  0  0  0  0  0  0  0  0  0
   36.0310   25.3150   31.7270 C   0  0  0  0  0  0  0  0  0  0  0  0
   36.9230   25.3800   32.7360 N   0  0  0  0  0  0  0  0  0  0  0  0
   38.0810   26.5900   33.9950 H   0  0  0  0  0  0  0  0  0  0  0  0
   37.2580   28.7200   32.9630 H   0  0  0  0  0  0  0  0  0  0  0  0
   35.6080   28.5760   31.0980 H   0  0  0  0  0  0  0  0  0  0  0  0
   36.6670   23.0110   31.1840 C   0  0  0  0  0  0  0  0  0  0  0  0
   37.0550   23.0300   30.1240 H   0  0  0  0  0  0  0  0  0  0  0  0
   37.4840   23.2900   31.8800 H   0  0  0  0  0  0  0  0  0  0  0  0
   36.1420   21.6980   31.4350 C   0  0  0  0  0  0  0  0  0  0  0  0
   35.0770   21.1830   32.0790 C   0  0  0  0  0  0  0  0  0  0  0  0
   34.4400   21.9330   32.5320 H   0  0  0  0  0  0  0  0  0  0  0  0
   34.8350   19.8400   32.1470 C   0  0  0  0  0  3  0  0  0  0  0  0
   35.7900   19.0220   31.4870 C   0  0  0  0  0  3  0  0  0  0  0  0
   36.9960   20.2150   30.7970 S   0  0  0  0  0  0  0  0  0  0  0  0
  1  8  1  0  0  0  0
  1  3  1  0  0  0  0
  2  1  1  0  0  0  0
  4 10  1  0  0  0  0
  5 11  1  0  0  0  0
  5  4  2  0  0  0  0
  6  5  1  0  0  0  0
  7  6  2  0  0  0  0
  7  8  1  0  0  0  0
  8  9  2  0  0  0  0
  9  4  1  0  0  0  0
 12  6  1  0  0  0  0
 13  1  1  0  0  0  0
 13 16  1  0  0  0  0
 13 15  1  0  0  0  0
 14 13  1  0  0  0  0
 16 17  2  0  0  0  0
 17 19  1  0  0  0  0
 17 18  1  0  0  0  0
 20 19  2  0  0  0  0
 21 16  1  0  0  0  0
 21 20  1  0  0  0  0
M  END
>  <minimizedAffinity>
-3.69669175

$$$$
