
 OpenBabel03272508183D

 22 24  0  0  0  0  0  0  0  0999 V2000
   38.9290   32.2780   47.4340 C   0  0  0  0  0  0  0  0  0  0  0  0
   38.3710   32.1950   48.6930 C   0  0  0  0  0  0  0  0  0  0  0  0
   38.7170   33.2680   49.5350 C   0  0  0  0  0  0  0  0  0  0  0  0
   39.5200   34.2690   49.1220 N   0  0  0  0  0  0  0  0  0  0  0  0
   40.0440   34.3070   47.8780 C   0  0  0  0  0  0  0  0  0  0  0  0
   39.7360   33.2980   47.0470 N   0  0  0  0  0  0  0  0  0  0  0  0
   38.3880   33.3960   50.5530 H   0  0  0  0  0  0  0  0  0  0  0  0
   40.6940   35.0460   47.4370 H   0  0  0  0  0  0  0  0  0  0  0  0
   38.5170   31.2430   46.4080 C   0  0  0  0  0  0  0  0  0  0  0  0
   38.6780   31.4640   44.9920 C   0  0  0  0  0  0  0  0  0  0  0  0
   39.7690   30.6930   45.6830 C   0  0  0  0  0  0  0  0  0  0  0  0
   37.9260   30.3890   46.8100 H   0  0  0  0  0  0  0  0  0  0  0  0
   38.0670   30.9390   44.2430 H   0  0  0  0  0  0  0  0  0  0  0  0
   38.9150   32.5220   44.6840 H   0  0  0  0  0  0  0  0  0  0  0  0
   39.8310   29.6360   45.4400 H   0  0  0  0  0  0  0  0  0  0  0  0
   40.6990   31.2390   45.8400 H   0  0  0  0  0  0  0  0  0  0  0  0
   37.5650   31.1730   49.2140 C   0  0  0  0  0  0  0  0  0  0  0  0
   37.9500   30.2560   50.1510 C   0  0  0  0  0  0  0  0  0  0  0  0
   38.9520   30.2050   50.6130 H   0  0  0  0  0  0  0  0  0  0  0  0
   37.1340   29.3120   50.6090 C   0  0  0  0  0  0  0  0  0  0  0  0
   35.8660   29.2930   50.0950 C   0  0  0  0  0  0  0  0  0  0  0  0
   35.9100   30.6810   48.9370 S   0  0  0  0  0  0  0  0  0  0  0  0
  1  2  1  0  0  0  0
  2 17  1  0  0  0  0
  2  3  2  0  0  0  0
  3  7  1  0  0  0  0
  4  3  1  0  0  0  0
  5  4  2  0  0  0  0
  6  1  2  0  0  0  0
  6  5  1  0  0  0  0
  8  5  1  0  0  0  0
  9 12  1  0  0  0  0
  9  1  1  0  0  0  0
 10 11  1  0  0  0  0
 10  9  1  0  0  0  0
 11 16  1  0  0  0  0
 11  9  1  0  0  0  0
 13 10  1  0  0  0  0
 14 10  1  0  0  0  0
 15 11  1  0  0  0  0
 17 18  2  0  0  0  0
 18 20  1  0  0  0  0
 18 19  1  0  0  0  0
 21 20  2  0  0  0  0
 22 17  1  0  0  0  0
 22 21  1  0  0  0  0
M  END
>  <minimizedAffinity>
-4.84750557

>  <minimizedRMSD>
4.10761309

$$$$
