
 OpenBabel03272509423D

 35 37  0  0  1  0  0  0  0  0999 V2000
   37.0420   30.9250   49.0220 C   0  0  0  0  0  0  0  0  0  0  0  0
   36.7740   31.8190   50.0590 C   0  0  0  0  0  0  0  0  0  0  0  0
   37.3700   33.0690   50.1230 C   0  0  0  0  0  0  0  0  0  0  0  0
   38.2690   33.4540   49.1210 C   0  0  0  0  0  0  0  0  0  0  0  0
   38.5220   32.5690   48.1110 C   0  0  0  0  0  0  0  0  0  0  0  0
   37.9070   31.3290   48.0850 C   0  0  0  0  0  0  0  0  0  0  0  0
   36.0780   31.5290   50.8400 H   0  0  0  0  0  0  0  0  0  0  0  0
   37.1110   33.6930   50.9520 H   0  0  0  0  0  0  0  0  0  0  0  0
   38.6710   34.4280   49.2590 H   0  0  0  0  0  0  0  0  0  0  0  0
   39.2360   33.0090   47.4160 H   0  0  0  0  0  0  0  0  0  0  0  0
   36.4470   29.6080   48.9740 C   0  0  2  0  0  0  0  0  0  0  0  0
   36.9690   29.0730   48.0900 H   0  0  0  0  0  0  0  0  0  0  0  0
   33.5740   30.1070   46.8030 C   0  0  0  0  0  0  0  0  0  0  0  0
   32.8840   28.9140   46.8810 C   0  0  0  0  0  0  0  0  0  0  0  0
   33.3640   27.9390   47.7350 C   0  0  0  0  0  0  0  0  0  0  0  0
   34.5040   28.1840   48.4700 N   0  0  0  0  0  0  0  0  0  0  0  0
   35.1200   29.3430   48.3480 C   0  0  0  0  0  0  0  0  0  0  0  0
   34.6620   30.3100   47.5210 N   0  0  0  0  0  0  0  0  0  0  0  0
   33.2240   30.9000   46.1410 H   0  0  0  0  0  0  0  0  0  0  0  0
   32.0050   28.8290   46.2600 H   0  0  0  0  0  0  0  0  0  0  0  0
   32.8220   27.0060   47.7960 H   0  0  0  0  0  0  0  0  0  0  0  0
   36.8870   28.8360   49.9030 O   0  0  0  0  0  0  0  0  0  0  0  0
   36.4290   28.6850   50.7470 H   0  0  0  0  0  0  0  0  0  0  0  0
   38.2960   30.4820   46.9800 C   0  0  0  0  0  3  0  0  0  0  0  0
   38.9890   30.9060   45.9200 C   0  0  0  0  0  3  0  0  0  0  0  0
   39.4800   30.1220   44.7630 C   0  0  0  0  0  0  0  0  0  0  0  0
   39.0560   29.0900   44.7850 H   0  0  0  0  0  0  0  0  0  0  0  0
   40.5990   30.0680   44.8070 H   0  0  0  0  0  0  0  0  0  0  0  0
   39.0510   30.9650   43.2380 S   0  0  0  0  0  0  0  0  0  0  0  0
   37.2940   31.2350   43.1580 C   0  0  0  0  0  0  0  0  0  0  0  0
   36.4880   30.1080   43.4700 C   0  0  0  0  0  0  0  0  0  0  0  0
   36.7060   29.0910   43.7550 H   0  0  0  0  0  0  0  0  0  0  0  0
   35.1320   30.1130   43.4670 C   0  0  0  0  0  3  0  0  0  0  0  0
   34.5200   31.3720   43.1150 C   0  0  0  0  0  3  0  0  0  0  0  0
   35.9860   32.5370   42.7930 S   0  0  0  0  0  0  0  0  0  0  0  0
  1  2  1  0  0  0  0
  2  3  2  0  0  0  0
  2  7  1  0  0  0  0
  3  8  1  0  0  0  0
  4  9  1  0  0  0  0
  4  3  1  0  0  0  0
  5  4  2  0  0  0  0
  6  5  1  0  0  0  0
  6  1  2  0  0  0  0
 10  5  1  0  0  0  0
 11 12  1  6  0  0  0
 11  1  1  0  0  0  0
 11 22  1  0  0  0  0
 13 14  2  0  0  0  0
 13 18  1  0  0  0  0
 14 15  1  0  0  0  0
 15 21  1  0  0  0  0
 15 16  2  0  0  0  0
 17 16  1  0  0  0  0
 17 11  1  0  0  0  0
 18 17  2  0  0  0  0
 19 13  1  0  0  0  0
 20 14  1  0  0  0  0
 22 23  1  0  0  0  0
 24  6  1  0  0  0  0
 25 24  2  0  0  0  0
 26 27  1  0  0  0  0
 26 28  1  0  0  0  0
 26 25  1  0  0  0  0
 29 26  1  0  0  0  0
 30 29  1  0  0  0  0
 30 31  2  0  0  0  0
 31 32  1  0  0  0  0
 33 31  1  0  0  0  0
 34 33  2  0  0  0  0
 35 34  1  0  0  0  0
 35 30  1  0  0  0  0
M  END
>  <minimizedAffinity>
-5.42793322

>  <minimizedRMSD>
0.520477414

$$$$
