
 OpenBabel03272507583D

 29 31  0  0  0  0  0  0  0  0999 V2000
   37.0170   31.2740   48.5770 C   0  0  0  0  0  0  0  0  0  0  0  0
   37.1700   32.2710   49.5340 C   0  0  0  0  0  0  0  0  0  0  0  0
   38.1180   33.2580   49.3420 C   0  0  0  0  0  0  0  0  0  0  0  0
   38.9100   33.2730   48.2280 C   0  0  0  0  0  0  0  0  0  0  0  0
   38.7350   32.2760   47.3020 C   0  0  0  0  0  0  0  0  0  0  0  0
   37.8090   31.3010   47.4770 N   0  0  0  0  0  0  0  0  0  0  0  0
   36.6290   32.4030   50.4630 H   0  0  0  0  0  0  0  0  0  0  0  0
   38.3060   34.0670   50.0280 H   0  0  0  0  0  0  0  0  0  0  0  0
   39.6840   33.9490   47.9180 H   0  0  0  0  0  0  0  0  0  0  0  0
   35.1270   28.5500   50.3180 C   0  0  0  0  0  0  0  0  0  0  0  0
   36.1590   29.4850   50.0090 C   0  0  0  0  0  0  0  0  0  0  0  0
   35.9880   30.3130   48.9160 C   0  0  0  0  0  0  0  0  0  0  0  0
   34.8420   30.1980   48.1890 N   0  0  0  0  0  0  0  0  0  0  0  0
   33.8800   29.2890   48.5190 C   0  0  0  0  0  0  0  0  0  0  0  0
   34.0120   28.4780   49.5630 N   0  0  0  0  0  0  0  0  0  0  0  0
   32.7760   29.3620   47.6030 N   0  0  0  0  0  0  0  0  0  0  0  0
   35.2170   27.8830   51.1620 H   0  0  0  0  0  0  0  0  0  0  0  0
   32.9320   28.9050   46.6630 H   0  0  0  0  0  0  0  0  0  0  0  0
   32.0520   29.8820   48.1290 H   0  0  0  0  0  0  0  0  0  0  0  0
   37.3700   29.5170   50.8810 C   0  0  0  0  0  0  0  0  0  0  0  0
   38.5140   29.7690   50.1320 F   0  0  0  0  0  0  0  0  0  0  0  0
   37.2100   30.5170   51.7980 F   0  0  0  0  0  0  0  0  0  0  0  0
   37.5760   28.3360   51.5620 F   0  0  0  0  0  0  0  0  0  0  0  0
   39.4250   32.0140   46.0060 C   0  0  0  0  0  0  0  0  0  0  0  0
   39.3030   30.8080   45.4740 C   0  0  0  0  0  0  0  0  0  0  0  0
   38.7740   29.8930   45.7920 H   0  0  0  0  0  0  0  0  0  0  0  0
   39.8360   30.3530   44.3200 C   0  0  0  0  0  3  0  0  0  0  0  0
   40.6090   31.4340   43.7030 C   0  0  0  0  0  3  0  0  0  0  0  0
   40.4090   32.9060   44.9270 S   0  0  0  0  0  0  0  0  0  0  0  0
  1 12  1  0  0  0  0
  1  2  1  0  0  0  0
  2  7  1  0  0  0  0
  3  2  2  0  0  0  0
  3  8  1  0  0  0  0
  4  3  1  0  0  0  0
  5  6  1  0  0  0  0
  5  4  2  0  0  0  0
  6  1  2  0  0  0  0
  9  4  1  0  0  0  0
 10 17  1  0  0  0  0
 11 10  1  0  0  0  0
 11 20  1  0  0  0  0
 12 11  2  0  0  0  0
 13 14  2  0  0  0  0
 13 12  1  0  0  0  0
 14 15  1  0  0  0  0
 15 10  2  0  0  0  0
 16 19  1  0  0  0  0
 16 14  1  0  0  0  0
 18 16  1  0  0  0  0
 20 23  1  0  0  0  0
 20 22  1  0  0  0  0
 21 20  1  0  0  0  0
 24  5  1  0  0  0  0
 25 26  1  0  0  0  0
 25 24  2  0  0  0  0
 27 25  1  0  0  0  0
 28 27  2  0  0  0  0
 28 29  1  0  0  0  0
 29 24  1  0  0  0  0
M  END
>  <minimizedAffinity>
-6.97451735

>  <minimizedRMSD>
0.564362407

$$$$
