
 OpenBabel03262522273D

 43 46  0  0  0  0  0  0  0  0999 V2000
   39.0650   32.8190   47.9560 C   0  0  0  0  0  0  0  0  0  0  0  0
   39.3040   32.1440   46.7630 C   0  0  0  0  0  0  0  0  0  0  0  0
   38.7500   30.8910   46.6120 C   0  0  0  0  0  0  0  0  0  0  0  0
   38.0050   30.4040   47.6470 N   0  0  0  0  0  0  0  0  0  0  0  0
   37.8000   31.0580   48.7470 C   0  0  0  0  0  0  0  0  0  0  0  0
   38.3270   32.3120   48.9550 N   0  0  0  0  0  0  0  0  0  0  0  0
   39.4630   33.8020   48.1500 H   0  0  0  0  0  0  0  0  0  0  0  0
   38.9250   30.3490   45.6900 H   0  0  0  0  0  0  0  0  0  0  0  0
   40.0700   32.7600   45.8170 O   0  0  0  0  0  0  0  0  0  0  0  0
   40.0860   32.2680   44.5320 C   0  0  0  0  0  0  0  0  0  0  0  0
   40.6480   31.0980   44.0650 C   0  0  0  0  0  0  0  0  0  0  0  0
   40.5630   30.7820   42.7660 C   0  0  0  0  0  0  0  0  0  0  0  0
   39.9110   31.6340   41.9140 C   0  0  0  0  0  0  0  0  0  0  0  0
   39.3450   32.8090   42.3830 C   0  0  0  0  0  0  0  0  0  0  0  0
   39.4420   33.1100   43.6990 N   0  0  0  0  0  0  0  0  0  0  0  0
   41.1340   30.5130   44.8340 H   0  0  0  0  0  0  0  0  0  0  0  0
   41.0050   29.8670   42.4030 H   0  0  0  0  0  0  0  0  0  0  0  0
   39.8020   31.4480   40.8600 H   0  0  0  0  0  0  0  0  0  0  0  0
   38.6230   33.7500   41.4330 C   0  0  0  0  0  0  0  0  0  0  0  0
   38.0980   33.0650   40.7190 H   0  0  0  0  0  0  0  0  0  0  0  0
   37.8800   34.3470   41.9950 H   0  0  0  0  0  0  0  0  0  0  0  0
   39.3420   34.3410   40.8660 H   0  0  0  0  0  0  0  0  0  0  0  0
   36.7760   30.1450   49.9230 S   0  0  0  0  0  0  0  0  0  0  0  0
   35.0720   30.7290   49.5960 C   0  0  0  0  0  0  0  0  0  0  0  0
   35.0980   31.7480   49.1960 H   0  0  0  0  0  0  0  0  0  0  0  0
   34.5500   30.6510   50.5670 H   0  0  0  0  0  0  0  0  0  0  0  0
   33.1530   28.9420   50.4180 F   0  0  0  0  0  0  0  0  0  0  0  0
   33.5330   28.9450   49.0960 C   0  0  0  0  0  0  0  0  0  0  0  0
   34.4980   29.8030   48.5680 C   0  0  0  0  0  0  0  0  0  0  0  0
   34.8420   29.7630   47.2530 C   0  0  0  0  0  0  0  0  0  0  0  0
   34.2340   28.8490   46.3800 C   0  0  0  0  0  0  0  0  0  0  0  0
   33.2760   27.9910   46.8870 C   0  0  0  0  0  0  0  0  0  0  0  0
   32.9370   28.0430   48.2160 C   0  0  0  0  0  0  0  0  0  0  0  0
   35.6020   30.4800   46.9720 H   0  0  0  0  0  0  0  0  0  0  0  0
   34.5430   28.8600   45.3570 H   0  0  0  0  0  0  0  0  0  0  0  0
   32.7950   27.2750   46.2190 H   0  0  0  0  0  0  0  0  0  0  0  0
   31.9760   27.1580   48.6510 O   0  0  0  0  0  0  0  0  0  0  0  0
   30.7020   27.6480   48.8970 C   0  0  0  0  0  0  0  0  0  0  0  0
   29.9510   27.8670   49.9930 C   0  0  0  0  0  0  0  0  0  0  0  0
   30.4290   27.6100   50.9250 H   0  0  0  0  0  0  0  0  0  0  0  0
   28.6880   28.3790   49.8970 C   0  0  0  0  0  0  0  0  0  0  0  0
   28.2490   28.6530   48.5550 C   0  0  0  0  0  0  0  0  0  0  0  0
   29.7200   28.1420   47.5300 S   0  0  0  0  0  0  0  0  0  0  0  0
  1  7  1  0  0  0  0
  1  6  1  0  0  0  0
  2  1  2  0  0  0  0
  3  2  1  0  0  0  0
  3  4  2  0  0  0  0
  4  5  1  0  0  0  0
  5  6  2  0  0  0  0
  5 23  1  0  0  0  0
  8  3  1  0  0  0  0
  9  2  1  0  0  0  0
 10  9  1  0  0  0  0
 11 10  1  0  0  0  0
 11 16  1  0  0  0  0
 12 11  2  0  0  0  0
 13 14  2  0  0  0  0
 13 12  1  0  0  0  0
 14 15  1  0  0  0  0
 15 10  2  0  0  0  0
 17 12  1  0  0  0  0
 18 13  1  0  0  0  0
 19 21  1  0  0  0  0
 19 14  1  0  0  0  0
 20 19  1  0  0  0  0
 22 19  1  0  0  0  0
 24 23  1  0  0  0  0
 24 26  1  0  0  0  0
 25 24  1  0  0  0  0
 28 27  1  0  0  0  0
 29 28  1  0  0  0  0
 29 24  1  0  0  0  0
 30 29  2  0  0  0  0
 31 32  2  0  0  0  0
 31 30  1  0  0  0  0
 32 33  1  0  0  0  0
 33 37  1  0  0  0  0
 33 28  2  0  0  0  0
 34 30  1  0  0  0  0
 35 31  1  0  0  0  0
 36 32  1  0  0  0  0
 37 38  1  0  0  0  0
 38 39  2  0  0  0  0
 39 40  1  0  0  0  0
 41 39  1  0  0  0  0
 42 41  2  0  0  0  0
 43 42  1  0  0  0  0
 43 38  1  0  0  0  0
M  END
>  <minimizedAffinity>
-6.4052906

>  <minimizedRMSD>
1.71783555

$$$$
