
 OpenBabel03272507133D

 37 41  0  0  0  0  0  0  0  0999 V2000
   35.7040   29.1150   49.8360 C   0  0  0  0  0  0  0  0  0  0  0  0
   34.6700   29.5920   50.5600 C   0  0  0  0  0  0  0  0  0  0  0  0
   33.5060   29.0080   50.0480 C   0  0  0  0  0  0  0  0  0  0  0  0
   33.9340   28.1780   49.0010 C   0  0  0  0  0  0  0  0  0  0  0  0
   35.2260   28.2920   48.9370 O   0  0  0  0  0  0  0  0  0  0  0  0
   34.6900   30.3030   51.3980 H   0  0  0  0  0  0  0  0  0  0  0  0
   32.5300   29.2170   50.4450 H   0  0  0  0  0  0  0  0  0  0  0  0
   33.4230   26.4140   47.3240 C   0  0  0  0  0  0  0  0  0  0  0  0
   33.0000   27.3890   48.2120 C   0  0  0  0  0  0  0  0  0  0  0  0
   31.6490   27.6590   48.3980 C   0  0  0  0  0  0  0  0  0  0  0  0
   30.7390   26.9180   47.6650 C   0  0  0  0  0  0  0  0  0  0  0  0
   29.4070   26.9650   47.6500 N   0  0  0  0  0  0  0  0  0  0  0  0
   28.9730   26.0470   46.7770 N   0  0  0  0  0  0  0  0  0  0  0  0
   30.0520   25.4230   46.2450 C   0  0  0  0  0  0  0  0  0  0  0  0
   31.2060   25.9580   46.7930 C   0  0  0  0  0  0  0  0  0  0  0  0
   32.5440   25.6780   46.5970 C   0  0  0  0  0  0  0  0  0  0  0  0
   34.5060   26.2690   47.2420 H   0  0  0  0  0  0  0  0  0  0  0  0
   31.2520   28.4100   49.0780 H   0  0  0  0  0  0  0  0  0  0  0  0
   28.7500   27.5780   48.1900 H   0  0  0  0  0  0  0  0  0  0  0  0
   30.0790   24.6210   45.5020 H   0  0  0  0  0  0  0  0  0  0  0  0
   32.8900   24.9220   45.9080 H   0  0  0  0  0  0  0  0  0  0  0  0
   37.0800   29.5060   50.0860 C   0  0  0  0  0  0  0  0  0  0  0  0
   37.7920   28.7900   50.8410 O   0  0  0  0  0  0  0  0  0  0  0  0
   37.5600   30.7040   49.4480 C   0  0  0  0  0  0  0  0  0  0  0  0
   37.3530   31.9060   50.0900 C   0  0  0  0  0  0  0  0  0  0  0  0
   37.8000   33.0880   49.5120 C   0  0  0  0  0  0  0  0  0  0  0  0
   38.4290   32.9770   48.3170 N   0  0  0  0  0  0  0  0  0  0  0  0
   38.6270   31.8120   47.6990 C   0  0  0  0  0  0  0  0  0  0  0  0
   38.1900   30.6880   48.2720 N   0  0  0  0  0  0  0  0  0  0  0  0
   36.8530   31.9750   51.0380 H   0  0  0  0  0  0  0  0  0  0  0  0
   37.6810   34.0540   49.9420 H   0  0  0  0  0  0  0  0  0  0  0  0
   39.3100   31.6970   46.4030 C   0  0  0  0  0  0  0  0  0  0  0  0
   40.1970   32.5600   45.8130 C   0  0  0  0  0  0  0  0  0  0  0  0
   40.4560   33.4640   46.3430 H   0  0  0  0  0  0  0  0  0  0  0  0
   40.6960   32.2190   44.5890 C   0  0  0  0  0  0  0  0  0  0  0  0
   40.2960   31.0490   44.0110 C   0  0  0  0  0  0  0  0  0  0  0  0
   39.1080   30.3570   45.3040 S   0  0  0  0  0  0  0  0  0  0  0  0
  1 22  1  0  0  0  0
  1  2  2  0  0  0  0
  2  6  1  0  0  0  0
  3  7  1  0  0  0  0
  3  2  1  0  0  0  0
  4  3  2  0  0  0  0
  5  4  1  0  0  0  0
  5  1  1  0  0  0  0
  8  9  1  0  0  0  0
  9 10  2  0  0  0  0
  9  4  1  0  0  0  0
 10 18  1  0  0  0  0
 11 10  1  0  0  0  0
 12 11  1  0  0  0  0
 12 19  1  0  0  0  0
 13 12  1  0  0  0  0
 14 13  2  0  0  0  0
 14 15  1  0  0  0  0
 15 11  2  0  0  0  0
 16 15  1  0  0  0  0
 16  8  2  0  0  0  0
 17  8  1  0  0  0  0
 20 14  1  0  0  0  0
 21 16  1  0  0  0  0
 22 23  2  0  0  0  0
 24 22  1  0  0  0  0
 24 25  1  0  0  0  0
 25 30  1  0  0  0  0
 26 31  1  0  0  0  0
 26 25  2  0  0  0  0
 27 26  1  0  0  0  0
 28 29  1  0  0  0  0
 28 27  2  0  0  0  0
 29 24  2  0  0  0  0
 32 28  1  0  0  0  0
 33 34  1  0  0  0  0
 33 32  2  0  0  0  0
 35 33  1  0  0  0  0
 36 35  2  0  0  0  0
 36 37  1  0  0  0  0
 37 32  1  0  0  0  0
M  END
>  <minimizedAffinity>
-6.9714818

>  <minimizedRMSD>
0.802057564

$$$$
