
 OpenBabel03272509433D

 35 37  0  0  1  0  0  0  0  0999 V2000
   37.0210   30.9150   49.0360 C   0  0  0  0  0  0  0  0  0  0  0  0
   36.7350   31.7990   50.0770 C   0  0  0  0  0  0  0  0  0  0  0  0
   37.3240   33.0510   50.1600 C   0  0  0  0  0  0  0  0  0  0  0  0
   38.2340   33.4500   49.1730 C   0  0  0  0  0  0  0  0  0  0  0  0
   38.5040   32.5740   48.1580 C   0  0  0  0  0  0  0  0  0  0  0  0
   37.8960   31.3310   48.1130 C   0  0  0  0  0  0  0  0  0  0  0  0
   36.0310   31.4990   50.8470 H   0  0  0  0  0  0  0  0  0  0  0  0
   37.0520   33.6670   50.9900 H   0  0  0  0  0  0  0  0  0  0  0  0
   38.6290   34.4240   49.3240 H   0  0  0  0  0  0  0  0  0  0  0  0
   39.2250   33.0240   47.4770 H   0  0  0  0  0  0  0  0  0  0  0  0
   36.4320   29.5960   48.9690 C   0  0  2  0  0  0  0  0  0  0  0  0
   36.9640   29.0740   48.0830 H   0  0  0  0  0  0  0  0  0  0  0  0
   33.5720   30.1070   46.7850 C   0  0  0  0  0  0  0  0  0  0  0  0
   32.8890   28.9080   46.8410 C   0  0  0  0  0  0  0  0  0  0  0  0
   33.3700   27.9250   47.6850 C   0  0  0  0  0  0  0  0  0  0  0  0
   34.5030   28.1670   48.4310 N   0  0  0  0  0  0  0  0  0  0  0  0
   35.1120   29.3320   48.3300 C   0  0  0  0  0  0  0  0  0  0  0  0
   34.6540   30.3070   47.5130 N   0  0  0  0  0  0  0  0  0  0  0  0
   33.2220   30.9070   46.1310 H   0  0  0  0  0  0  0  0  0  0  0  0
   32.0160   28.8270   46.2120 H   0  0  0  0  0  0  0  0  0  0  0  0
   32.8340   26.9880   47.7290 H   0  0  0  0  0  0  0  0  0  0  0  0
   36.8690   28.8160   49.8930 O   0  0  0  0  0  0  0  0  0  0  0  0
   36.4060   28.6540   50.7320 H   0  0  0  0  0  0  0  0  0  0  0  0
   38.3030   30.4960   47.0070 C   0  0  0  0  0  3  0  0  0  0  0  0
   38.9680   30.9420   45.9380 C   0  0  0  0  0  3  0  0  0  0  0  0
   39.4740   30.1730   44.7770 C   0  0  0  0  0  0  0  0  0  0  0  0
   38.8180   29.2930   44.5770 H   0  0  0  0  0  0  0  0  0  0  0  0
   40.5160   29.8200   44.9990 H   0  0  0  0  0  0  0  0  0  0  0  0
   39.5730   31.2440   43.3410 S   0  0  0  0  0  0  0  0  0  0  0  0
   37.9630   31.4460   42.6120 C   0  0  0  0  0  0  0  0  0  0  0  0
   37.1940   32.5280   43.1200 C   0  0  0  0  0  0  0  0  0  0  0  0
   37.3710   33.2800   43.8720 H   0  0  0  0  0  0  0  0  0  0  0  0
   35.9460   32.8450   42.6950 C   0  0  0  0  0  3  0  0  0  0  0  0
   35.4130   31.9960   41.6570 C   0  0  0  0  0  3  0  0  0  0  0  0
   36.7900   30.7290   41.3280 S   0  0  0  0  0  0  0  0  0  0  0  0
  1  2  1  0  0  0  0
  2  3  2  0  0  0  0
  2  7  1  0  0  0  0
  3  8  1  0  0  0  0
  4  9  1  0  0  0  0
  4  3  1  0  0  0  0
  5  4  2  0  0  0  0
  6  5  1  0  0  0  0
  6  1  2  0  0  0  0
 10  5  1  0  0  0  0
 11 12  1  6  0  0  0
 11  1  1  0  0  0  0
 11 22  1  0  0  0  0
 13 14  2  0  0  0  0
 13 18  1  0  0  0  0
 14 15  1  0  0  0  0
 15 21  1  0  0  0  0
 15 16  2  0  0  0  0
 17 16  1  0  0  0  0
 17 11  1  0  0  0  0
 18 17  2  0  0  0  0
 19 13  1  0  0  0  0
 20 14  1  0  0  0  0
 22 23  1  0  0  0  0
 24  6  1  0  0  0  0
 25 24  2  0  0  0  0
 26 28  1  0  0  0  0
 26 25  1  0  0  0  0
 27 26  1  0  0  0  0
 29 26  1  0  0  0  0
 30 31  2  0  0  0  0
 30 29  1  0  0  0  0
 31 32  1  0  0  0  0
 33 31  1  0  0  0  0
 34 33  2  0  0  0  0
 35 34  1  0  0  0  0
 35 30  1  0  0  0  0
M  END
>  <minimizedAffinity>
-5.48106432

>  <minimizedRMSD>
0.376668721

$$$$
