
 OpenBabel03262520323D

 20 21  0  0  0  0  0  0  0  0999 V2000
   34.8340   28.2830   49.7060 C   0  0  0  0  0  3  0  0  0  0  0  0
   33.9310   28.6700   48.8630 C   0  0  0  0  0  3  0  0  0  0  0  0
   37.4010   30.3020   51.3570 C   0  0  0  0  0  0  0  0  0  0  0  0
   38.1330   30.8100   50.2740 C   0  0  0  0  0  0  0  0  0  0  0  0
   37.7210   30.4410   48.9860 C   0  0  0  0  0  0  0  0  0  0  0  0
   36.6320   29.6100   48.8710 N   0  0  0  0  0  0  0  0  0  0  0  0
   35.9690   29.1550   49.9430 C   0  0  0  0  0  0  0  0  0  0  0  0
   36.3580   29.5030   51.1680 N   0  0  0  0  0  0  0  0  0  0  0  0
   37.7880   30.6370   52.3060 H   0  0  0  0  0  0  0  0  0  0  0  0
   38.9810   31.4520   50.2690 H   0  0  0  0  0  0  0  0  0  0  0  0
   38.1740   30.7430   48.0470 H   0  0  0  0  0  0  0  0  0  0  0  0
   32.6870   27.9430   48.4660 C   0  0  0  0  0  0  0  0  0  0  0  0
   32.2510   27.5240   49.3950 H   0  0  0  0  0  0  0  0  0  0  0  0
   31.9530   28.6940   48.1010 H   0  0  0  0  0  0  0  0  0  0  0  0
   32.9900   26.8860   47.5350 C   0  0  0  0  0  0  0  0  0  0  0  0
   33.9000   26.7090   46.5190 C   0  0  0  0  0  0  0  0  0  0  0  0
   34.5470   27.5610   46.3760 H   0  0  0  0  0  0  0  0  0  0  0  0
   33.9400   25.5600   45.7960 C   0  0  0  0  0  3  0  0  0  0  0  0
   33.0290   24.5590   46.1120 C   0  0  0  0  0  3  0  0  0  0  0  0
   32.0640   25.3470   47.5470 S   0  0  0  0  0  0  0  0  0  0  0  0
  1  7  1  0  0  0  0
  2  1  2  0  0  0  0
  3  9  1  0  0  0  0
  4  3  2  0  0  0  0
  5  4  1  0  0  0  0
  6  5  2  0  0  0  0
  6  7  1  0  0  0  0
  7  8  2  0  0  0  0
  8  3  1  0  0  0  0
 10  4  1  0  0  0  0
 11  5  1  0  0  0  0
 12  2  1  0  0  0  0
 12 13  1  0  0  0  0
 14 12  1  0  0  0  0
 15 20  1  0  0  0  0
 15 12  1  0  0  0  0
 16 15  2  0  0  0  0
 17 16  1  0  0  0  0
 18 19  2  0  0  0  0
 18 16  1  0  0  0  0
 19 20  1  0  0  0  0
M  END
>  <minimizedAffinity>
-4.23070621

>  <minimizedRMSD>
0.948454916

$$$$
