
 OpenBabel03272509533D

 40 43  0  0  0  0  0  0  0  0999 V2000
   34.7780   28.3840   49.3760 O   0  0  0  0  0  0  0  0  0  0  0  0
   37.1170   29.9950   51.5980 C   0  0  0  0  0  0  0  0  0  0  0  0
   37.8980   30.7140   50.6610 C   0  0  0  0  0  0  0  0  0  0  0  0
   37.5630   30.5940   49.3220 C   0  0  0  0  0  0  0  0  0  0  0  0
   36.4990   29.7840   49.0250 N   0  0  0  0  0  0  0  0  0  0  0  0
   35.7740   29.1130   49.9280 C   0  0  0  0  0  0  0  0  0  0  0  0
   36.1000   29.2290   51.2290 N   0  0  0  0  0  0  0  0  0  0  0  0
   37.4100   30.1150   52.6350 H   0  0  0  0  0  0  0  0  0  0  0  0
   38.7310   31.3480   50.8910 H   0  0  0  0  0  0  0  0  0  0  0  0
   38.7830   33.2150   49.2810 F   0  0  0  0  0  0  0  0  0  0  0  0
   38.8090   32.4690   48.1930 C   0  0  0  0  0  0  0  0  0  0  0  0
   38.2330   31.2430   48.2240 C   0  0  0  0  0  0  0  0  0  0  0  0
   38.3190   30.5500   47.0280 C   0  0  0  0  0  0  0  0  0  0  0  0
   38.9340   31.0570   45.9030 C   0  0  0  0  0  0  0  0  0  0  0  0
   39.5060   32.3080   45.9140 C   0  0  0  0  0  0  0  0  0  0  0  0
   39.4370   33.0200   47.0860 C   0  0  0  0  0  0  0  0  0  0  0  0
   37.9120   29.5580   46.8860 H   0  0  0  0  0  0  0  0  0  0  0  0
   39.0010   30.5150   44.9680 H   0  0  0  0  0  0  0  0  0  0  0  0
   39.9900   32.7240   45.0480 H   0  0  0  0  0  0  0  0  0  0  0  0
   39.8770   33.9970   47.1150 H   0  0  0  0  0  0  0  0  0  0  0  0
   34.1750   28.8320   48.1720 C   0  0  0  0  0  0  0  0  0  0  0  0
   34.9870   29.1120   47.4630 H   0  0  0  0  0  0  0  0  0  0  0  0
   33.5620   29.7310   48.3720 H   0  0  0  0  0  0  0  0  0  0  0  0
   33.3210   27.7600   47.5810 C   0  0  0  0  0  0  0  0  0  0  0  0
   33.4570   27.6550   46.4760 H   0  0  0  0  0  0  0  0  0  0  0  0
   33.5850   26.7870   48.0150 H   0  0  0  0  0  0  0  0  0  0  0  0
   31.8720   28.0020   47.7850 C   0  0  0  0  0  0  0  0  0  0  0  0
   31.2780   27.5650   48.9700 C   0  0  0  0  0  0  0  0  0  0  0  0
   29.9580   27.7400   49.2490 C   0  0  0  0  0  0  0  0  0  0  0  0
   29.2040   28.3590   48.3410 N   0  0  0  0  0  0  0  0  0  0  0  0
   29.7710   28.7890   47.1820 C   0  0  0  0  0  0  0  0  0  0  0  0
   31.0700   28.6300   46.8780 N   0  0  0  0  0  0  0  0  0  0  0  0
   31.9180   27.0650   49.6890 H   0  0  0  0  0  0  0  0  0  0  0  0
   29.5900   27.3670   50.1940 H   0  0  0  0  0  0  0  0  0  0  0  0
   28.8800   29.4430   46.2640 C   0  0  0  0  0  0  0  0  0  0  0  0
   29.0060   29.7140   44.8960 C   0  0  0  0  0  0  0  0  0  0  0  0
   29.9260   29.3750   44.4460 H   0  0  0  0  0  0  0  0  0  0  0  0
   28.0050   30.3620   44.2280 C   0  0  0  0  0  3  0  0  0  0  0  0
   26.8590   30.7410   44.9630 C   0  0  0  0  0  3  0  0  0  0  0  0
   27.1730   30.1760   46.6670 S   0  0  0  0  0  0  0  0  0  0  0  0
  1  6  1  0  0  0  0
  2  8  1  0  0  0  0
  3  9  1  0  0  0  0
  3  2  2  0  0  0  0
  4  3  1  0  0  0  0
  5  4  2  0  0  0  0
  5  6  1  0  0  0  0
  6  7  2  0  0  0  0
  7  2  1  0  0  0  0
 11 12  1  0  0  0  0
 11 10  1  0  0  0  0
 12  4  1  0  0  0  0
 13 12  2  0  0  0  0
 14 15  2  0  0  0  0
 14 13  1  0  0  0  0
 15 16  1  0  0  0  0
 16 20  1  0  0  0  0
 16 11  2  0  0  0  0
 17 13  1  0  0  0  0
 18 14  1  0  0  0  0
 19 15  1  0  0  0  0
 21 23  1  0  0  0  0
 21  1  1  0  0  0  0
 22 21  1  0  0  0  0
 24 27  1  0  0  0  0
 24 26  1  0  0  0  0
 24 21  1  0  0  0  0
 25 24  1  0  0  0  0
 27 28  1  0  0  0  0
 28 29  2  0  0  0  0
 28 33  1  0  0  0  0
 29 34  1  0  0  0  0
 30 29  1  0  0  0  0
 31 30  2  0  0  0  0
 32 31  1  0  0  0  0
 32 27  2  0  0  0  0
 35 40  1  0  0  0  0
 35 31  1  0  0  0  0
 36 35  2  0  0  0  0
 37 36  1  0  0  0  0
 38 36  1  0  0  0  0
 38 39  2  0  0  0  0
 39 40  1  0  0  0  0
M  END
>  <minimizedAffinity>
-6.61969757

>  <minimizedRMSD>
0.560293436

$$$$
