
 OpenBabel03272510023D

 18 19  0  0  0  0  0  0  0  0999 V2000
   37.8320   33.0420   49.5500 C   0  0  0  0  0  0  0  0  0  0  0  0
   38.5150   32.8530   48.3300 C   0  0  0  0  0  0  0  0  0  0  0  0
   38.2840   31.6600   47.6640 C   0  0  0  0  0  0  0  0  0  0  0  0
   37.4360   30.7460   48.1910 N   0  0  0  0  0  0  0  0  0  0  0  0
   36.7990   30.9650   49.3640 C   0  0  0  0  0  0  0  0  0  0  0  0
   37.0100   32.1110   50.0240 N   0  0  0  0  0  0  0  0  0  0  0  0
   37.9950   33.9700   50.0940 H   0  0  0  0  0  0  0  0  0  0  0  0
   39.1620   33.6200   47.9880 H   0  0  0  0  0  0  0  0  0  0  0  0
   38.9520   31.4030   46.4090 C   0  0  0  0  0  0  0  0  0  0  0  0
   38.9580   30.3900   45.5190 C   0  0  0  0  0  0  0  0  0  0  0  0
   38.3060   29.5610   45.8040 H   0  0  0  0  0  0  0  0  0  0  0  0
   39.7090   30.4430   44.4020 C   0  0  0  0  0  3  0  0  0  0  0  0
   40.4690   31.5870   44.2230 C   0  0  0  0  0  3  0  0  0  0  0  0
   40.0600   32.6010   45.7360 S   0  0  0  0  0  0  0  0  0  0  0  0
   35.8890   29.9180   49.8770 C   0  0  0  0  0  0  0  0  0  0  0  0
   36.1060   29.6230   51.2130 F   0  0  0  0  0  0  0  0  0  0  0  0
   34.5630   30.3060   49.7730 F   0  0  0  0  0  0  0  0  0  0  0  0
   35.9800   28.7360   49.1700 F   0  0  0  0  0  0  0  0  0  0  0  0
  1  6  1  0  0  0  0
  1  7  1  0  0  0  0
  2  1  2  0  0  0  0
  3  4  2  0  0  0  0
  3  2  1  0  0  0  0
  4  5  1  0  0  0  0
  5 15  1  0  0  0  0
  5  6  2  0  0  0  0
  8  2  1  0  0  0  0
  9  3  1  0  0  0  0
 10 11  1  0  0  0  0
 10  9  2  0  0  0  0
 12 10  1  0  0  0  0
 13 12  2  0  0  0  0
 13 14  1  0  0  0  0
 14  9  1  0  0  0  0
 15 16  1  0  0  0  0
 17 15  1  0  0  0  0
 18 15  1  0  0  0  0
M  END
>  <minimizedAffinity>
-5.31941366

>  <minimizedRMSD>
1.94093621

$$$$
