
 OpenBabel03272508273D

 35 38  0  0  1  0  0  0  0  0999 V2000
   33.8970   28.9600   47.3030 C   0  0  2  0  0  0  0  0  0  0  0  0
   34.6400   28.2050   48.3930 C   0  0  2  0  0  0  0  0  0  0  0  0
   33.7190   28.0100   49.3880 O   0  0  0  0  0  0  0  0  0  0  0  0
   32.4590   28.0640   48.8880 C   0  0  0  0  0  0  0  0  0  0  0  0
   32.5500   28.2560   47.4040 C   0  0  1  0  0  0  0  0  0  0  0  0
   33.7500   30.0200   47.5210 H   0  0  0  0  0  0  0  0  0  0  0  0
   34.9670   27.2350   47.9710 H   0  0  0  0  0  0  0  0  0  0  0  0
   31.9700   28.9820   49.3230 H   0  0  0  0  0  0  0  0  0  0  0  0
   31.8070   27.2120   49.1680 H   0  0  0  0  0  0  0  0  0  0  0  0
   32.5960   27.2760   46.8530 H   0  0  0  0  0  0  0  0  0  0  0  0
   35.7050   30.4720   49.0170 C   0  0  1  0  0  0  0  0  0  0  0  0
   35.7880   29.0350   48.8600 C   0  0  1  0  0  0  0  0  0  0  0  0
   35.8670   29.5750   50.2510 C   0  0  0  0  0  0  0  0  0  0  0  0
   34.7780   31.0780   49.1300 H   0  0  0  0  0  0  0  0  0  0  0  0
   36.7810   28.6650   48.4610 H   0  0  0  0  0  0  0  0  0  0  0  0
   36.8140   29.5970   50.7890 H   0  0  0  0  0  0  0  0  0  0  0  0
   34.9810   29.3760   50.8890 H   0  0  0  0  0  0  0  0  0  0  0  0
   36.8980   31.3610   48.7910 C   0  0  0  0  0  0  0  0  0  0  0  0
   37.1160   32.4110   49.6850 C   0  0  0  0  0  0  0  0  0  0  0  0
   38.2030   33.2130   49.4300 C   0  0  0  0  0  0  0  0  0  0  0  0
   39.0120   32.9750   48.3480 N   0  0  0  0  0  0  0  0  0  0  0  0
   38.7680   31.9420   47.5000 C   0  0  0  0  0  0  0  0  0  0  0  0
   37.7050   31.1270   47.7160 N   0  0  0  0  0  0  0  0  0  0  0  0
   36.4860   32.6090   50.5360 H   0  0  0  0  0  0  0  0  0  0  0  0
   38.4540   34.0620   50.0820 H   0  0  0  0  0  0  0  0  0  0  0  0
   39.3930   31.7230   46.6300 H   0  0  0  0  0  0  0  0  0  0  0  0
   34.4530   28.7920   46.0480 O   0  0  0  0  0  0  0  0  0  0  0  0
   35.0300   27.9610   46.0520 H   0  0  0  0  0  0  0  0  0  0  0  0
   31.5290   29.0300   46.8830 O   0  0  0  0  0  0  0  0  0  0  0  0
   30.7090   28.0990   45.8080 C   0  0  0  0  0  0  0  0  0  0  0  0
   31.1040   29.0850   44.7020 C   0  0  0  0  0  0  0  0  0  0  0  0
   31.6490   30.0280   44.4590 H   0  0  0  0  0  0  0  0  0  0  0  0
   30.6930   28.8550   43.4330 C   0  0  0  0  0  3  0  0  0  0  0  0
   29.8910   27.6820   43.1720 C   0  0  0  0  0  3  0  0  0  0  0  0
   29.7660   26.9130   44.9140 S   0  0  0  0  0  0  0  0  0  0  0  0
  1  5  1  0  0  0  0
  1  6  1  1  0  0  0
  1  2  1  0  0  0  0
  2  7  1  6  0  0  0
  2 12  1  0  0  0  0
  2  3  1  0  0  0  0
  4  9  1  0  0  0  0
  4  8  1  0  0  0  0
  4  3  1  0  0  0  0
  5 10  1  6  0  0  0
  5  4  1  0  0  0  0
 11 14  1  6  0  0  0
 11 13  1  0  0  0  0
 12 15  1  6  0  0  0
 12 11  1  0  0  0  0
 12 13  1  0  0  0  0
 13 16  1  0  0  0  0
 13 17  1  0  0  0  0
 18 11  1  0  0  0  0
 18 19  1  0  0  0  0
 19 24  1  0  0  0  0
 20 19  2  0  0  0  0
 20 25  1  0  0  0  0
 21 20  1  0  0  0  0
 22 23  1  0  0  0  0
 22 21  2  0  0  0  0
 23 18  2  0  0  0  0
 26 22  1  0  0  0  0
 27 28  1  0  0  0  0
 27  1  1  0  0  0  0
 29  5  1  0  0  0  0
 30 29  1  0  0  0  0
 31 30  2  0  0  0  0
 32 31  1  0  0  0  0
 33 31  1  0  0  0  0
 34 33  2  0  0  0  0
 34 35  1  0  0  0  0
 35 30  1  0  0  0  0
M  END
>  <minimizedAffinity>
-4.67073679

>  <minimizedRMSD>
0.503432333

$$$$
