
 OpenBabel03272508193D

 28 30  0  0  0  0  0  0  0  0999 V2000
   33.4030   28.5780   47.3950 C   0  0  0  0  0  0  0  0  0  0  0  0
   34.5420   29.3190   47.7220 C   0  0  0  0  0  0  0  0  0  0  0  0
   35.0970   29.9930   46.6610 C   0  0  0  0  0  0  0  0  0  0  0  0
   34.5720   29.9360   45.4100 N   0  0  0  0  0  0  0  0  0  0  0  0
   33.4750   29.2110   45.1320 C   0  0  0  0  0  0  0  0  0  0  0  0
   32.8810   28.5250   46.1220 N   0  0  0  0  0  0  0  0  0  0  0  0
   35.9820   30.6020   46.6800 H   0  0  0  0  0  0  0  0  0  0  0  0
   33.0710   29.1750   44.1330 H   0  0  0  0  0  0  0  0  0  0  0  0
   32.7060   27.8770   48.5500 C   0  0  0  0  0  0  0  0  0  0  0  0
   31.3210   27.5870   48.5170 C   0  0  0  0  0  0  0  0  0  0  0  0
   32.2290   26.4660   48.0490 C   0  0  0  0  0  0  0  0  0  0  0  0
   33.3920   27.7350   49.4210 H   0  0  0  0  0  0  0  0  0  0  0  0
   30.7980   27.3960   49.4960 H   0  0  0  0  0  0  0  0  0  0  0  0
   30.6230   28.0000   47.7700 H   0  0  0  0  0  0  0  0  0  0  0  0
   32.2940   26.2370   46.9910 H   0  0  0  0  0  0  0  0  0  0  0  0
   32.4990   25.6610   48.7170 H   0  0  0  0  0  0  0  0  0  0  0  0
   35.1410   29.3560   49.0360 C   0  0  0  0  0  0  0  0  0  0  0  0
   34.6390   28.6280   49.7030 H   0  0  0  0  0  0  0  0  0  0  0  0
   34.8070   30.3600   49.4850 H   0  0  0  0  0  0  0  0  0  0  0  0
   36.5950   29.3650   49.2020 C   0  0  0  0  0  0  0  0  0  0  0  0
   37.1660   28.7740   48.4490 H   0  0  0  0  0  0  0  0  0  0  0  0
   36.8510   28.9720   50.1970 H   0  0  0  0  0  0  0  0  0  0  0  0
   37.2300   30.7410   49.1020 C   0  0  0  0  0  0  0  0  0  0  0  0
   36.7980   31.7080   49.9520 C   0  0  0  0  0  0  0  0  0  0  0  0
   36.0240   31.6370   50.7430 H   0  0  0  0  0  0  0  0  0  0  0  0
   37.2070   32.9810   50.0340 C   0  0  0  0  0  0  0  0  0  0  0  0
   38.2090   33.2330   49.0750 C   0  0  0  0  0  0  0  0  0  0  0  0
   38.4350   31.5940   48.1710 S   0  0  0  0  0  0  0  0  0  0  0  0
  1  2  1  0  0  0  0
  1  9  1  0  0  0  0
  2 17  1  0  0  0  0
  3  7  1  0  0  0  0
  3  2  2  0  0  0  0
  4  3  1  0  0  0  0
  5  4  2  0  0  0  0
  5  6  1  0  0  0  0
  6  1  2  0  0  0  0
  8  5  1  0  0  0  0
  9 12  1  0  0  0  0
 10  9  1  0  0  0  0
 10 13  1  0  0  0  0
 11 10  1  0  0  0  0
 11  9  1  0  0  0  0
 11 16  1  0  0  0  0
 14 10  1  0  0  0  0
 15 11  1  0  0  0  0
 17 20  1  0  0  0  0
 17 19  1  0  0  0  0
 17 18  1  0  0  0  0
 20 22  1  0  0  0  0
 21 20  1  0  0  0  0
 23 20  1  0  0  0  0
 23 24  2  0  0  0  0
 24 26  1  0  0  0  0
 24 25  1  0  0  0  0
 27 26  2  0  0  0  0
 28 27  1  0  0  0  0
 28 23  1  0  0  0  0
M  END
>  <minimizedAffinity>
-4.40383196

>  <minimizedRMSD>
4.83165503

$$$$
