
 OpenBabel03272507283D

 38 40  0  0  1  0  0  0  0  0999 V2000
   37.9770   30.4590   48.7470 C   0  0  0  0  0  0  0  0  0  0  0  0
   38.0440   30.8450   47.3920 C   0  0  0  0  0  0  0  0  0  0  0  0
   36.8860   30.6880   46.6300 C   0  0  0  0  0  0  0  0  0  0  0  0
   35.7830   30.1860   47.2130 N   0  0  0  0  0  0  0  0  0  0  0  0
   35.7540   29.8270   48.5120 C   0  0  0  0  0  0  0  0  0  0  0  0
   36.8410   29.9640   49.2700 N   0  0  0  0  0  0  0  0  0  0  0  0
   36.8650   31.0470   45.2870 N   0  0  0  0  0  0  0  0  0  0  0  0
   37.6500   32.1530   44.6750 C   0  0  0  0  0  0  0  0  0  0  0  0
   37.1640   32.3490   43.2990 C   0  0  0  0  0  0  0  0  0  0  0  0
   35.8500   31.6990   43.3040 C   0  0  0  0  0  0  0  0  0  0  0  0
   36.1280   30.5310   44.1800 C   0  0  2  0  0  0  0  0  0  0  0  0
   38.9410   30.6280   49.2410 H   0  0  0  0  0  0  0  0  0  0  0  0
   38.8960   31.2470   46.8880 H   0  0  0  0  0  0  0  0  0  0  0  0
   34.9110   29.4200   49.0470 H   0  0  0  0  0  0  0  0  0  0  0  0
   37.2110   33.0310   45.3290 H   0  0  0  0  0  0  0  0  0  0  0  0
   38.6750   32.2120   44.9360 H   0  0  0  0  0  0  0  0  0  0  0  0
   36.8720   33.4870   43.2690 H   0  0  0  0  0  0  0  0  0  0  0  0
   37.8150   32.3170   42.4610 H   0  0  0  0  0  0  0  0  0  0  0  0
   35.0380   32.2980   43.7230 H   0  0  0  0  0  0  0  0  0  0  0  0
   35.5410   31.3820   42.2720 H   0  0  0  0  0  0  0  0  0  0  0  0
   34.8260   29.8260   44.5550 C   0  0  0  0  0  0  0  0  0  0  0  0
   34.1970   30.5790   45.5290 F   0  0  0  0  0  0  0  0  0  0  0  0
   34.9640   28.5680   45.0640 F   0  0  0  0  0  0  0  0  0  0  0  0
   34.0130   29.8790   43.4450 F   0  0  0  0  0  0  0  0  0  0  0  0
   36.9530   29.5440   43.5310 C   0  0  2  0  0  0  0  0  0  0  0  0
   37.3030   28.7970   44.2330 H   0  0  0  0  0  0  0  0  0  0  0  0
   38.3540   29.9730   43.0160 C   0  0  0  0  0  0  0  0  0  0  0  0
   39.6470   29.8470   43.6270 C   0  0  0  0  0  0  0  0  0  0  0  0
   39.5570   29.4860   44.6320 H   0  0  0  0  0  0  0  0  0  0  0  0
   40.7200   30.1810   42.8870 C   0  0  0  0  0  3  0  0  0  0  0  0
   40.5370   30.6410   41.5440 C   0  0  0  0  0  3  0  0  0  0  0  0
   38.7870   30.6220   41.2530 S   0  0  0  0  0  0  0  0  0  0  0  0
   36.4090   29.2430   42.4390 O   0  0  0  0  0  0  0  0  0  0  0  0
   36.1880   28.1830   41.6470 C   0  0  0  0  0  0  0  0  0  0  0  0
   35.1990   28.3390   40.9250 O   0  0  0  0  0  0  0  0  0  0  0  0
   36.5970   26.8860   41.2260 N   0  0  0  0  0  0  0  0  0  0  0  0
   36.1620   25.9990   41.6050 H   0  0  0  0  0  0  0  0  0  0  0  0
   37.3550   26.9520   40.5210 H   0  0  0  0  0  0  0  0  0  0  0  0
  1 12  1  0  0  0  0
  1  6  1  0  0  0  0
  2  1  2  0  0  0  0
  3  4  2  0  0  0  0
  3  2  1  0  0  0  0
  4  5  1  0  0  0  0
  5 14  1  0  0  0  0
  5  6  2  0  0  0  0
  7  3  1  0  0  0  0
  8 16  1  0  0  0  0
  8  7  1  0  0  0  0
  8 15  1  0  0  0  0
  9 10  1  0  0  0  0
  9  8  1  0  0  0  0
 10 19  1  0  0  0  0
 10 11  1  0  0  0  0
 11 21  1  1  0  0  0
 11  7  1  0  0  0  0
 13  2  1  0  0  0  0
 17  9  1  0  0  0  0
 18  9  1  0  0  0  0
 20 10  1  0  0  0  0
 21 23  1  0  0  0  0
 21 22  1  0  0  0  0
 24 21  1  0  0  0  0
 25 11  1  0  0  0  0
 25 26  1  1  0  0  0
 27 25  1  0  0  0  0
 27 28  2  0  0  0  0
 28 29  1  0  0  0  0
 30 28  1  0  0  0  0
 31 30  2  0  0  0  0
 32 31  1  0  0  0  0
 32 27  1  0  0  0  0
 33 25  1  0  0  0  0
 34 33  1  0  0  0  0
 35 34  2  0  0  0  0
 36 37  1  0  0  0  0
 36 34  1  0  0  0  0
 38 36  1  0  0  0  0
M  END
>  <minimizedAffinity>
-3.98617601

>  <minimizedRMSD>
3.71720815

$$$$
