
 OpenBabel03262521573D

 36 38  0  0  1  0  0  0  0  0999 V2000
   37.1960   26.4160   33.6230 C   0  0  1  0  0  0  0  0  0  0  0  0
   38.2430   25.5820   32.9270 C   0  0  2  0  0  0  0  0  0  0  0  0
   39.5770   26.2090   33.2000 C   0  0  0  0  0  0  0  0  0  0  0  0
   39.5040   27.3630   33.9650 O   0  0  0  0  0  0  0  0  0  0  0  0
   38.9030   27.1230   35.2050 C   0  0  0  0  0  0  0  0  0  0  0  0
   37.5690   26.4480   35.0990 C   0  0  2  0  0  0  0  0  0  0  0  0
   36.1740   26.0440   33.4550 H   0  0  0  0  0  0  0  0  0  0  0  0
   38.2020   24.5750   33.3850 H   0  0  0  0  0  0  0  0  0  0  0  0
   40.0620   26.4850   32.2460 H   0  0  0  0  0  0  0  0  0  0  0  0
   40.2530   25.4680   33.6890 H   0  0  0  0  0  0  0  0  0  0  0  0
   39.6190   26.4860   35.7850 H   0  0  0  0  0  0  0  0  0  0  0  0
   38.8710   28.0960   35.7460 H   0  0  0  0  0  0  0  0  0  0  0  0
   36.8140   27.0630   35.6210 H   0  0  0  0  0  0  0  0  0  0  0  0
   37.2220   27.7430   33.1740 O   0  0  0  0  0  0  0  0  0  0  0  0
   37.2500   28.4000   33.9060 H   0  0  0  0  0  0  0  0  0  0  0  0
   37.9270   25.4290   31.1560 S   0  0  0  0  0  0  0  0  0  0  0  0
   37.3480   23.7530   30.7750 C   0  0  0  0  0  0  0  0  0  0  0  0
   37.2230   23.7150   29.6550 H   0  0  0  0  0  0  0  0  0  0  0  0
   38.1480   23.0070   31.0020 H   0  0  0  0  0  0  0  0  0  0  0  0
   35.7760   23.3450   31.5150 S   0  0  0  0  0  0  0  0  0  0  0  0
   35.7530   21.6070   31.8930 C   0  0  0  0  0  0  0  0  0  0  0  0
   36.0590   20.7680   30.8410 C   0  0  0  0  0  0  0  0  0  0  0  0
   36.0670   19.3840   31.0370 C   0  0  0  0  0  0  0  0  0  0  0  0
   35.7630   18.9320   32.2980 N   0  0  0  0  0  0  0  0  0  0  0  0
   35.4710   19.7890   33.2970 C   0  0  0  0  0  0  0  0  0  0  0  0
   35.4670   21.1000   33.0950 N   0  0  0  0  0  0  0  0  0  0  0  0
   36.2990   21.1200   29.8430 H   0  0  0  0  0  0  0  0  0  0  0  0
   36.3060   18.7430   30.2150 H   0  0  0  0  0  0  0  0  0  0  0  0
   35.2380   19.3740   34.2770 H   0  0  0  0  0  0  0  0  0  0  0  0
   37.6580   25.1230   35.4850 O   0  0  0  0  0  0  0  0  0  0  0  0
   38.1640   24.4700   36.4260 C   0  0  0  0  0  0  0  0  0  0  0  0
   38.0170   24.1850   37.7940 C   0  0  0  0  0  0  0  0  0  0  0  0
   37.1620   24.7210   38.1730 H   0  0  0  0  0  0  0  0  0  0  0  0
   38.8490   23.3570   38.4940 C   0  0  0  0  0  3  0  0  0  0  0  0
   39.9360   22.7500   37.7570 C   0  0  0  0  0  3  0  0  0  0  0  0
   39.6720   23.4510   36.0150 S   0  0  0  0  0  0  0  0  0  0  0  0
  1  7  1  6  0  0  0
  1  6  1  0  0  0  0
  2  3  1  0  0  0  0
  2  8  1  1  0  0  0
  2  1  1  0  0  0  0
  3 10  1  0  0  0  0
  3  4  1  0  0  0  0
  4  5  1  0  0  0  0
  5 12  1  0  0  0  0
  5 11  1  0  0  0  0
  6  5  1  0  0  0  0
  6 30  1  0  0  0  0
  6 13  1  1  0  0  0
  9  3  1  0  0  0  0
 14  1  1  0  0  0  0
 14 15  1  0  0  0  0
 16  2  1  0  0  0  0
 17 19  1  0  0  0  0
 17 16  1  0  0  0  0
 17 20  1  0  0  0  0
 18 17  1  0  0  0  0
 20 21  1  0  0  0  0
 21 26  1  0  0  0  0
 22 23  1  0  0  0  0
 22 21  2  0  0  0  0
 23 24  2  0  0  0  0
 24 25  1  0  0  0  0
 25 29  1  0  0  0  0
 26 25  2  0  0  0  0
 27 22  1  0  0  0  0
 28 23  1  0  0  0  0
 30 31  1  0  0  0  0
 31 32  2  0  0  0  0
 32 33  1  0  0  0  0
 32 34  1  0  0  0  0
 35 34  2  0  0  0  0
 36 31  1  0  0  0  0
 36 35  1  0  0  0  0
M  END
>  <minimizedAffinity>
-5.11161613

$$$$

 OpenBabel03262521573D

 36 38  0  0  1  0  0  0  0  0999 V2000
   37.5350   23.9110   31.0310 C   0  0  1  0  0  0  0  0  0  0  0  0
   37.8740   24.4900   32.3830 C   0  0  2  0  0  0  0  0  0  0  0  0
   36.9240   25.6200   32.6430 C   0  0  0  0  0  0  0  0  0  0  0  0
   36.0360   25.8520   31.6040 O   0  0  0  0  0  0  0  0  0  0  0  0
   35.2600   24.7210   31.3270 C   0  0  0  0  0  0  0  0  0  0  0  0
   36.0750   23.4850   31.0900 C   0  0  2  0  0  0  0  0  0  0  0  0
   38.2040   23.0870   30.7410 H   0  0  0  0  0  0  0  0  0  0  0  0
   37.7090   23.6840   33.1230 H   0  0  0  0  0  0  0  0  0  0  0  0
   37.4910   26.5570   32.7970 H   0  0  0  0  0  0  0  0  0  0  0  0
   36.3650   25.4370   33.5910 H   0  0  0  0  0  0  0  0  0  0  0  0
   34.5820   24.5790   32.2070 H   0  0  0  0  0  0  0  0  0  0  0  0
   34.5890   24.9850   30.4780 H   0  0  0  0  0  0  0  0  0  0  0  0
   35.8090   23.0650   30.1030 H   0  0  0  0  0  0  0  0  0  0  0  0
   37.6300   24.8820   30.0250 O   0  0  0  0  0  0  0  0  0  0  0  0
   36.8340   24.9200   29.4470 H   0  0  0  0  0  0  0  0  0  0  0  0
   39.5950   25.0290   32.4820 S   0  0  0  0  0  0  0  0  0  0  0  0
   40.6200   23.6970   33.1640 C   0  0  0  0  0  0  0  0  0  0  0  0
   41.2230   23.2960   32.2990 H   0  0  0  0  0  0  0  0  0  0  0  0
   41.3750   24.1150   33.8730 H   0  0  0  0  0  0  0  0  0  0  0  0
   39.6830   22.3430   33.8520 S   0  0  0  0  0  0  0  0  0  0  0  0
   39.3960   22.6620   35.5790 C   0  0  0  0  0  0  0  0  0  0  0  0
   38.1370   23.1300   35.8920 C   0  0  0  0  0  0  0  0  0  0  0  0
   37.8130   23.4120   37.2230 C   0  0  0  0  0  0  0  0  0  0  0  0
   38.7940   23.1980   38.1610 N   0  0  0  0  0  0  0  0  0  0  0  0
   40.0110   22.7380   37.8080 C   0  0  0  0  0  0  0  0  0  0  0  0
   40.3030   22.4760   36.5400 N   0  0  0  0  0  0  0  0  0  0  0  0
   37.3580   23.3020   35.1560 H   0  0  0  0  0  0  0  0  0  0  0  0
   36.8340   23.7740   37.4560 H   0  0  0  0  0  0  0  0  0  0  0  0
   40.7500   22.5860   38.5940 H   0  0  0  0  0  0  0  0  0  0  0  0
   35.9850   22.6240   32.1690 O   0  0  0  0  0  0  0  0  0  0  0  0
   35.8300   21.3960   32.3570 C   0  0  0  0  0  0  0  0  0  0  0  0
   35.4710   20.4520   33.3340 C   0  0  0  0  0  0  0  0  0  0  0  0
   35.2510   20.9670   34.2540 H   0  0  0  0  0  0  0  0  0  0  0  0
   35.4240   19.1050   33.1100 C   0  0  0  0  0  3  0  0  0  0  0  0
   35.7680   18.6520   31.7800 C   0  0  0  0  0  3  0  0  0  0  0  0
   36.1560   20.2830   30.8950 S   0  0  0  0  0  0  0  0  0  0  0  0
  1  7  1  6  0  0  0
  1  6  1  0  0  0  0
  1  2  1  0  0  0  0
  2 16  1  0  0  0  0
  2  3  1  0  0  0  0
  2  8  1  1  0  0  0
  3  9  1  0  0  0  0
  3 10  1  0  0  0  0
  4  3  1  0  0  0  0
  5  4  1  0  0  0  0
  5 11  1  0  0  0  0
  6 13  1  6  0  0  0
  6  5  1  0  0  0  0
  6 30  1  0  0  0  0
 12  5  1  0  0  0  0
 14  1  1  0  0  0  0
 15 14  1  0  0  0  0
 16 17  1  0  0  0  0
 17 20  1  0  0  0  0
 17 19  1  0  0  0  0
 18 17  1  0  0  0  0
 20 21  1  0  0  0  0
 21 22  2  0  0  0  0
 21 26  1  0  0  0  0
 22 23  1  0  0  0  0
 23 28  1  0  0  0  0
 23 24  2  0  0  0  0
 25 24  1  0  0  0  0
 25 29  1  0  0  0  0
 26 25  2  0  0  0  0
 27 22  1  0  0  0  0
 30 31  1  0  0  0  0
 31 32  2  0  0  0  0
 32 33  1  0  0  0  0
 34 32  1  0  0  0  0
 35 34  2  0  0  0  0
 36 35  1  0  0  0  0
 36 31  1  0  0  0  0
M  END
>  <minimizedAffinity>
-5.0272069

$$$$

 OpenBabel03262521573D

 36 38  0  0  1  0  0  0  0  0999 V2000
   36.0220   27.1410   31.5590 C   0  0  1  0  0  0  0  0  0  0  0  0
   37.4380   27.0060   32.0620 C   0  0  2  0  0  0  0  0  0  0  0  0
   38.2690   28.0380   31.3590 C   0  0  0  0  0  0  0  0  0  0  0  0
   37.5560   28.7980   30.4450 O   0  0  0  0  0  0  0  0  0  0  0  0
   36.4930   29.4740   31.0530 C   0  0  0  0  0  0  0  0  0  0  0  0
   35.5910   28.5740   31.8420 C   0  0  2  0  0  0  0  0  0  0  0  0
   35.3400   26.4010   32.0040 H   0  0  0  0  0  0  0  0  0  0  0  0
   37.4120   27.2220   33.1470 H   0  0  0  0  0  0  0  0  0  0  0  0
   39.0850   27.5430   30.8010 H   0  0  0  0  0  0  0  0  0  0  0  0
   38.7630   28.7020   32.1070 H   0  0  0  0  0  0  0  0  0  0  0  0
   36.9500   30.2500   31.7180 H   0  0  0  0  0  0  0  0  0  0  0  0
   35.9690   30.0440   30.2530 H   0  0  0  0  0  0  0  0  0  0  0  0
   34.5560   28.6910   31.4720 H   0  0  0  0  0  0  0  0  0  0  0  0
   35.9570   26.9700   30.1700 O   0  0  0  0  0  0  0  0  0  0  0  0
   35.4610   27.6870   29.7140 H   0  0  0  0  0  0  0  0  0  0  0  0
   38.0930   25.3410   31.8160 S   0  0  0  0  0  0  0  0  0  0  0  0
   38.6980   24.6780   33.3910 C   0  0  0  0  0  0  0  0  0  0  0  0
   38.3940   23.5920   33.4080 H   0  0  0  0  0  0  0  0  0  0  0  0
   39.8160   24.6640   33.4010 H   0  0  0  0  0  0  0  0  0  0  0  0
   37.9920   25.4670   34.8270 S   0  0  0  0  0  0  0  0  0  0  0  0
   38.4420   24.5350   36.2750 C   0  0  0  0  0  0  0  0  0  0  0  0
   39.4670   23.6280   36.0990 C   0  0  0  0  0  0  0  0  0  0  0  0
   39.8930   22.8460   37.1770 C   0  0  0  0  0  0  0  0  0  0  0  0
   39.2500   23.0340   38.3760 N   0  0  0  0  0  0  0  0  0  0  0  0
   38.2530   23.9330   38.5010 C   0  0  0  0  0  0  0  0  0  0  0  0
   37.8590   24.6680   37.4680 N   0  0  0  0  0  0  0  0  0  0  0  0
   39.9790   23.4740   35.1550 H   0  0  0  0  0  0  0  0  0  0  0  0
   40.6890   22.1470   37.0310 H   0  0  0  0  0  0  0  0  0  0  0  0
   37.7780   24.0410   39.4760 H   0  0  0  0  0  0  0  0  0  0  0  0
   35.7830   28.7550   33.1990 O   0  0  0  0  0  0  0  0  0  0  0  0
   35.4440   29.5840   34.0750 C   0  0  0  0  0  0  0  0  0  0  0  0
   35.9600   30.5340   34.9740 C   0  0  0  0  0  0  0  0  0  0  0  0
   37.0330   30.5600   34.8770 H   0  0  0  0  0  0  0  0  0  0  0  0
   35.1880   31.2810   35.8180 C   0  0  0  0  0  3  0  0  0  0  0  0
   33.7590   31.0620   35.7620 C   0  0  0  0  0  3  0  0  0  0  0  0
   33.6170   29.7230   34.4260 S   0  0  0  0  0  0  0  0  0  0  0  0
  1  6  1  0  0  0  0
  1  7  1  1  0  0  0
  1  2  1  0  0  0  0
  2  8  1  1  0  0  0
  3  2  1  0  0  0  0
  3 10  1  0  0  0  0
  4  5  1  0  0  0  0
  4  3  1  0  0  0  0
  5 11  1  0  0  0  0
  5  6  1  0  0  0  0
  6 13  1  6  0  0  0
  6 30  1  0  0  0  0
  9  3  1  0  0  0  0
 12  5  1  0  0  0  0
 14  1  1  0  0  0  0
 15 14  1  0  0  0  0
 16  2  1  0  0  0  0
 16 17  1  0  0  0  0
 17 19  1  0  0  0  0
 17 18  1  0  0  0  0
 17 20  1  0  0  0  0
 20 21  1  0  0  0  0
 21 26  1  0  0  0  0
 22 21  2  0  0  0  0
 22 23  1  0  0  0  0
 23 24  2  0  0  0  0
 24 25  1  0  0  0  0
 25 29  1  0  0  0  0
 26 25  2  0  0  0  0
 27 22  1  0  0  0  0
 28 23  1  0  0  0  0
 30 31  1  0  0  0  0
 31 36  1  0  0  0  0
 31 32  2  0  0  0  0
 32 34  1  0  0  0  0
 33 32  1  0  0  0  0
 35 34  2  0  0  0  0
 36 35  1  0  0  0  0
M  END
>  <minimizedAffinity>
-4.89203548

$$$$

 OpenBabel03262521573D

 36 38  0  0  1  0  0  0  0  0999 V2000
   37.9660   23.8540   36.2660 C   0  0  1  0  0  0  0  0  0  0  0  0
   38.7890   24.7060   35.3310 C   0  0  2  0  0  0  0  0  0  0  0  0
   40.2200   24.2840   35.4740 C   0  0  0  0  0  0  0  0  0  0  0  0
   40.4140   23.2820   36.4120 O   0  0  0  0  0  0  0  0  0  0  0  0
   39.6780   22.1330   36.1000 C   0  0  0  0  0  0  0  0  0  0  0  0
   38.2210   22.4040   35.8770 C   0  0  2  0  0  0  0  0  0  0  0  0
   36.8970   24.1140   36.2480 H   0  0  0  0  0  0  0  0  0  0  0  0
   38.4340   24.4850   34.3050 H   0  0  0  0  0  0  0  0  0  0  0  0
   40.8350   25.1460   35.7920 H   0  0  0  0  0  0  0  0  0  0  0  0
   40.6240   23.9650   34.4840 H   0  0  0  0  0  0  0  0  0  0  0  0
   40.1420   21.7020   35.1770 H   0  0  0  0  0  0  0  0  0  0  0  0
   39.8780   21.3900   36.9040 H   0  0  0  0  0  0  0  0  0  0  0  0
   37.6300   21.7670   36.5590 H   0  0  0  0  0  0  0  0  0  0  0  0
   38.3960   23.9960   37.5920 O   0  0  0  0  0  0  0  0  0  0  0  0
   38.5500   23.1350   38.0430 H   0  0  0  0  0  0  0  0  0  0  0  0
   38.5780   26.4710   35.6520 S   0  0  0  0  0  0  0  0  0  0  0  0
   37.1300   27.0920   34.7550 C   0  0  0  0  0  0  0  0  0  0  0  0
   36.2300   26.7090   35.3150 H   0  0  0  0  0  0  0  0  0  0  0  0
   37.0700   28.2050   34.8410 H   0  0  0  0  0  0  0  0  0  0  0  0
   37.0170   26.5100   33.0720 S   0  0  0  0  0  0  0  0  0  0  0  0
   36.8590   27.9120   31.9880 C   0  0  0  0  0  0  0  0  0  0  0  0
   35.7240   28.6740   32.1690 C   0  0  0  0  0  0  0  0  0  0  0  0
   35.5080   29.7980   31.3650 C   0  0  0  0  0  0  0  0  0  0  0  0
   36.4640   30.0810   30.4210 N   0  0  0  0  0  0  0  0  0  0  0  0
   37.5590   29.3070   30.2800 C   0  0  0  0  0  0  0  0  0  0  0  0
   37.7500   28.2440   31.0510 N   0  0  0  0  0  0  0  0  0  0  0  0
   34.9650   28.4550   32.9130 H   0  0  0  0  0  0  0  0  0  0  0  0
   34.6240   30.3830   31.5140 H   0  0  0  0  0  0  0  0  0  0  0  0
   38.2850   29.5800   29.5150 H   0  0  0  0  0  0  0  0  0  0  0  0
   37.9080   22.3230   34.5330 O   0  0  0  0  0  0  0  0  0  0  0  0
   37.0190   21.7960   33.8240 C   0  0  0  0  0  0  0  0  0  0  0  0
   36.0090   20.8190   33.8420 C   0  0  0  0  0  0  0  0  0  0  0  0
   35.9900   20.3530   34.8130 H   0  0  0  0  0  0  0  0  0  0  0  0
   35.2040   20.5370   32.7740 C   0  0  0  0  0  3  0  0  0  0  0  0
   35.4250   21.3060   31.5690 C   0  0  0  0  0  3  0  0  0  0  0  0
   36.8540   22.4420   32.0810 S   0  0  0  0  0  0  0  0  0  0  0  0
  1  7  1  6  0  0  0
  1 14  1  0  0  0  0
  2  8  1  6  0  0  0
  2  3  1  0  0  0  0
  2 16  1  0  0  0  0
  2  1  1  0  0  0  0
  3  9  1  0  0  0  0
  3  4  1  0  0  0  0
  5  4  1  0  0  0  0
  5 12  1  0  0  0  0
  6  5  1  0  0  0  0
  6  1  1  0  0  0  0
  6 13  1  1  0  0  0
 10  3  1  0  0  0  0
 11  5  1  0  0  0  0
 14 15  1  0  0  0  0
 17 19  1  0  0  0  0
 17 18  1  0  0  0  0
 17 16  1  0  0  0  0
 20 17  1  0  0  0  0
 21 22  1  0  0  0  0
 21 20  1  0  0  0  0
 22 27  1  0  0  0  0
 23 28  1  0  0  0  0
 23 22  2  0  0  0  0
 24 23  1  0  0  0  0
 25 24  2  0  0  0  0
 25 26  1  0  0  0  0
 26 21  2  0  0  0  0
 29 25  1  0  0  0  0
 30  6  1  0  0  0  0
 31 32  2  0  0  0  0
 31 30  1  0  0  0  0
 32 33  1  0  0  0  0
 34 32  1  0  0  0  0
 35 36  1  0  0  0  0
 35 34  2  0  0  0  0
 36 31  1  0  0  0  0
M  END
>  <minimizedAffinity>
-4.66560364

$$$$

 OpenBabel03262521573D

 36 38  0  0  1  0  0  0  0  0999 V2000
   37.8860   24.1180   36.1590 C   0  0  1  0  0  0  0  0  0  0  0  0
   38.7690   24.7650   35.1210 C   0  0  2  0  0  0  0  0  0  0  0  0
   40.1590   24.2380   35.3180 C   0  0  0  0  0  0  0  0  0  0  0  0
   40.2750   23.3530   36.3780 O   0  0  0  0  0  0  0  0  0  0  0  0
   39.4360   22.2440   36.2190 C   0  0  0  0  0  0  0  0  0  0  0  0
   38.0060   22.6130   35.9630 C   0  0  2  0  0  0  0  0  0  0  0  0
   36.8430   24.4680   36.1080 H   0  0  0  0  0  0  0  0  0  0  0  0
   38.3840   24.4460   34.1330 H   0  0  0  0  0  0  0  0  0  0  0  0
   40.8510   25.0760   35.5210 H   0  0  0  0  0  0  0  0  0  0  0  0
   40.5210   23.7580   34.3780 H   0  0  0  0  0  0  0  0  0  0  0  0
   39.8480   21.6570   35.3590 H   0  0  0  0  0  0  0  0  0  0  0  0
   39.5780   21.5960   37.1130 H   0  0  0  0  0  0  0  0  0  0  0  0
   37.3690   22.1250   36.7220 H   0  0  0  0  0  0  0  0  0  0  0  0
   38.3420   24.3910   37.4560 O   0  0  0  0  0  0  0  0  0  0  0  0
   38.4240   23.5860   38.0150 H   0  0  0  0  0  0  0  0  0  0  0  0
   38.7200   26.5680   35.2100 S   0  0  0  0  0  0  0  0  0  0  0  0
   37.0480   27.1580   34.8290 C   0  0  0  0  0  0  0  0  0  0  0  0
   36.3570   26.2950   35.0480 H   0  0  0  0  0  0  0  0  0  0  0  0
   36.7470   27.9580   35.5500 H   0  0  0  0  0  0  0  0  0  0  0  0
   36.8180   27.6260   33.1230 S   0  0  0  0  0  0  0  0  0  0  0  0
   37.0560   26.1930   32.0960 C   0  0  0  0  0  0  0  0  0  0  0  0
   38.2330   26.1690   31.3770 C   0  0  0  0  0  0  0  0  0  0  0  0
   38.5130   25.0850   30.5400 C   0  0  0  0  0  0  0  0  0  0  0  0
   37.5750   24.0830   30.4840 N   0  0  0  0  0  0  0  0  0  0  0  0
   36.4380   24.1480   31.2060 C   0  0  0  0  0  0  0  0  0  0  0  0
   36.1860   25.1840   31.9960 N   0  0  0  0  0  0  0  0  0  0  0  0
   38.9770   26.9580   31.4170 H   0  0  0  0  0  0  0  0  0  0  0  0
   39.4280   25.0760   29.9870 H   0  0  0  0  0  0  0  0  0  0  0  0
   35.7300   23.3250   31.1230 H   0  0  0  0  0  0  0  0  0  0  0  0
   37.6710   22.3870   34.6400 O   0  0  0  0  0  0  0  0  0  0  0  0
   37.0470   21.5220   33.9840 C   0  0  0  0  0  0  0  0  0  0  0  0
   35.8430   20.7990   33.9480 C   0  0  0  0  0  0  0  0  0  0  0  0
   35.2340   21.0910   34.7880 H   0  0  0  0  0  0  0  0  0  0  0  0
   35.5340   19.8800   32.9850 C   0  0  0  0  0  3  0  0  0  0  0  0
   36.5230   19.6580   31.9530 C   0  0  0  0  0  3  0  0  0  0  0  0
   37.9040   20.8520   32.4670 S   0  0  0  0  0  0  0  0  0  0  0  0
  1  7  1  6  0  0  0
  1 14  1  0  0  0  0
  2  8  1  6  0  0  0
  2 16  1  0  0  0  0
  2  3  1  0  0  0  0
  2  1  1  0  0  0  0
  3  9  1  0  0  0  0
  3  4  1  0  0  0  0
  5  4  1  0  0  0  0
  5 12  1  0  0  0  0
  6  1  1  0  0  0  0
  6  5  1  0  0  0  0
  6 13  1  1  0  0  0
 10  3  1  0  0  0  0
 11  5  1  0  0  0  0
 14 15  1  0  0  0  0
 17 18  1  0  0  0  0
 17 16  1  0  0  0  0
 17 19  1  0  0  0  0
 20 17  1  0  0  0  0
 21 20  1  0  0  0  0
 22 27  1  0  0  0  0
 22 21  2  0  0  0  0
 23 22  1  0  0  0  0
 24 23  2  0  0  0  0
 24 25  1  0  0  0  0
 25 26  2  0  0  0  0
 26 21  1  0  0  0  0
 28 23  1  0  0  0  0
 29 25  1  0  0  0  0
 30  6  1  0  0  0  0
 31 30  1  0  0  0  0
 32 31  2  0  0  0  0
 32 33  1  0  0  0  0
 34 32  1  0  0  0  0
 35 36  1  0  0  0  0
 35 34  2  0  0  0  0
 36 31  1  0  0  0  0
M  END
>  <minimizedAffinity>
-4.64939165

$$$$

 OpenBabel03262521573D

 36 38  0  0  1  0  0  0  0  0999 V2000
   37.8110   24.3070   31.3200 C   0  0  1  0  0  0  0  0  0  0  0  0
   36.3850   24.3040   31.8140 C   0  0  2  0  0  0  0  0  0  0  0  0
   35.8140   22.9440   31.5430 C   0  0  0  0  0  0  0  0  0  0  0  0
   36.6980   22.0850   30.9080 O   0  0  0  0  0  0  0  0  0  0  0  0
   37.8640   21.8980   31.6580 C   0  0  0  0  0  0  0  0  0  0  0  0
   38.5310   23.1820   32.0510 C   0  0  2  0  0  0  0  0  0  0  0  0
   38.3060   25.2810   31.4530 H   0  0  0  0  0  0  0  0  0  0  0  0
   36.4280   24.4820   32.9060 H   0  0  0  0  0  0  0  0  0  0  0  0
   34.9270   23.0350   30.8910 H   0  0  0  0  0  0  0  0  0  0  0  0
   35.4540   22.4870   32.4950 H   0  0  0  0  0  0  0  0  0  0  0  0
   37.5650   21.3180   32.5680 H   0  0  0  0  0  0  0  0  0  0  0  0
   38.5200   21.2130   31.0750 H   0  0  0  0  0  0  0  0  0  0  0  0
   39.5760   23.1670   31.6930 H   0  0  0  0  0  0  0  0  0  0  0  0
   37.8750   24.0030   29.9530 O   0  0  0  0  0  0  0  0  0  0  0  0
   38.5260   23.2950   29.7440 H   0  0  0  0  0  0  0  0  0  0  0  0
   35.3960   25.6080   31.0490 S   0  0  0  0  0  0  0  0  0  0  0  0
   36.2960   27.1800   31.1090 C   0  0  0  0  0  0  0  0  0  0  0  0
   37.3850   26.9200   30.9750 H   0  0  0  0  0  0  0  0  0  0  0  0
   36.0380   27.8080   30.2210 H   0  0  0  0  0  0  0  0  0  0  0  0
   36.1290   28.0510   32.6570 S   0  0  0  0  0  0  0  0  0  0  0  0
   37.4680   27.5800   33.7300 C   0  0  0  0  0  0  0  0  0  0  0  0
   38.6500   27.2620   33.0950 C   0  0  0  0  0  0  0  0  0  0  0  0
   39.7630   26.8790   33.8500 C   0  0  0  0  0  0  0  0  0  0  0  0
   39.6060   26.8420   35.2140 N   0  0  0  0  0  0  0  0  0  0  0  0
   38.4310   27.1610   35.7920 C   0  0  0  0  0  0  0  0  0  0  0  0
   37.3840   27.5240   35.0610 N   0  0  0  0  0  0  0  0  0  0  0  0
   38.7810   27.2890   32.0170 H   0  0  0  0  0  0  0  0  0  0  0  0
   40.6750   26.6350   33.3480 H   0  0  0  0  0  0  0  0  0  0  0  0
   38.3640   27.1150   36.8780 H   0  0  0  0  0  0  0  0  0  0  0  0
   38.3450   23.4390   33.3970 O   0  0  0  0  0  0  0  0  0  0  0  0
   39.0020   23.3230   34.4560 C   0  0  0  0  0  0  0  0  0  0  0  0
   40.3140   23.2390   34.9530 C   0  0  0  0  0  0  0  0  0  0  0  0
   41.0050   23.2920   34.1290 H   0  0  0  0  0  0  0  0  0  0  0  0
   40.6190   23.1090   36.2790 C   0  0  0  0  0  3  0  0  0  0  0  0
   39.5060   23.0590   37.2030 C   0  0  0  0  0  3  0  0  0  0  0  0
   38.0180   23.2110   36.0370 S   0  0  0  0  0  0  0  0  0  0  0  0
  1  7  1  1  0  0  0
  1  2  1  0  0  0  0
  1  6  1  0  0  0  0
  2  8  1  1  0  0  0
  3  2  1  0  0  0  0
  3 10  1  0  0  0  0
  4  3  1  0  0  0  0
  4  5  1  0  0  0  0
  5  6  1  0  0  0  0
  5 11  1  0  0  0  0
  6 13  1  6  0  0  0
  6 30  1  0  0  0  0
  9  3  1  0  0  0  0
 12  5  1  0  0  0  0
 14  1  1  0  0  0  0
 15 14  1  0  0  0  0
 16 17  1  0  0  0  0
 16  2  1  0  0  0  0
 17 20  1  0  0  0  0
 18 17  1  0  0  0  0
 19 17  1  0  0  0  0
 20 21  1  0  0  0  0
 21 26  1  0  0  0  0
 22 21  2  0  0  0  0
 22 23  1  0  0  0  0
 23 24  2  0  0  0  0
 24 25  1  0  0  0  0
 25 29  1  0  0  0  0
 26 25  2  0  0  0  0
 27 22  1  0  0  0  0
 28 23  1  0  0  0  0
 30 31  1  0  0  0  0
 31 32  2  0  0  0  0
 31 36  1  0  0  0  0
 32 34  1  0  0  0  0
 33 32  1  0  0  0  0
 34 35  2  0  0  0  0
 36 35  1  0  0  0  0
M  END
>  <minimizedAffinity>
-4.51901579

$$$$

 OpenBabel03262521573D

 36 38  0  0  1  0  0  0  0  0999 V2000
   38.7390   22.2380   32.3940 C   0  0  1  0  0  0  0  0  0  0  0  0
   38.0950   23.5720   32.1060 C   0  0  2  0  0  0  0  0  0  0  0  0
   36.6220   23.3380   31.9430 C   0  0  0  0  0  0  0  0  0  0  0  0
   36.2530   22.0070   32.0650 O   0  0  0  0  0  0  0  0  0  0  0  0
   36.6160   21.4820   33.3100 C   0  0  0  0  0  0  0  0  0  0  0  0
   38.0630   21.6840   33.6410 C   0  0  2  0  0  0  0  0  0  0  0  0
   39.8320   22.3080   32.5020 H   0  0  0  0  0  0  0  0  0  0  0  0
   38.2770   24.2100   32.9920 H   0  0  0  0  0  0  0  0  0  0  0  0
   36.3000   23.6720   30.9400 H   0  0  0  0  0  0  0  0  0  0  0  0
   36.0550   23.9610   32.6750 H   0  0  0  0  0  0  0  0  0  0  0  0
   35.9670   21.9900   34.0680 H   0  0  0  0  0  0  0  0  0  0  0  0
   36.2980   20.4150   33.3190 H   0  0  0  0  0  0  0  0  0  0  0  0
   38.5210   20.7020   33.8610 H   0  0  0  0  0  0  0  0  0  0  0  0
   38.4920   21.3210   31.3630 O   0  0  0  0  0  0  0  0  0  0  0  0
   38.1530   20.4560   31.6870 H   0  0  0  0  0  0  0  0  0  0  0  0
   38.8070   24.3740   30.6530 S   0  0  0  0  0  0  0  0  0  0  0  0
   38.2920   26.1120   30.5940 C   0  0  0  0  0  0  0  0  0  0  0  0
   38.3510   26.4160   29.5100 H   0  0  0  0  0  0  0  0  0  0  0  0
   37.2100   26.2030   30.8610 H   0  0  0  0  0  0  0  0  0  0  0  0
   39.3420   27.2100   31.5300 S   0  0  0  0  0  0  0  0  0  0  0  0
   38.8590   27.1480   33.2410 C   0  0  0  0  0  0  0  0  0  0  0  0
   37.5020   27.2290   33.4760 C   0  0  0  0  0  0  0  0  0  0  0  0
   37.0210   27.1900   34.7880 C   0  0  0  0  0  0  0  0  0  0  0  0
   37.9540   27.0700   35.7900 N   0  0  0  0  0  0  0  0  0  0  0  0
   39.2710   26.9940   35.5130 C   0  0  0  0  0  0  0  0  0  0  0  0
   39.7120   27.0320   34.2610 N   0  0  0  0  0  0  0  0  0  0  0  0
   36.7600   27.3240   32.6890 H   0  0  0  0  0  0  0  0  0  0  0  0
   35.9670   27.2520   34.9600 H   0  0  0  0  0  0  0  0  0  0  0  0
   39.9660   26.8990   36.3460 H   0  0  0  0  0  0  0  0  0  0  0  0
   38.2140   22.6620   34.6070 O   0  0  0  0  0  0  0  0  0  0  0  0
   38.7040   22.7550   35.7550 C   0  0  0  0  0  0  0  0  0  0  0  0
   39.8620   22.4790   36.5020 C   0  0  0  0  0  0  0  0  0  0  0  0
   40.5940   22.0230   35.8560 H   0  0  0  0  0  0  0  0  0  0  0  0
   39.9950   22.7600   37.8330 C   0  0  0  0  0  3  0  0  0  0  0  0
   38.8620   23.3790   38.4860 C   0  0  0  0  0  3  0  0  0  0  0  0
   37.6160   23.5210   37.0640 S   0  0  0  0  0  0  0  0  0  0  0  0
  1  7  1  1  0  0  0
  1  6  1  0  0  0  0
  2  1  1  0  0  0  0
  2  8  1  1  0  0  0
  3  4  1  0  0  0  0
  3  2  1  0  0  0  0
  3 10  1  0  0  0  0
  4  5  1  0  0  0  0
  5 12  1  0  0  0  0
  5  6  1  0  0  0  0
  5 11  1  0  0  0  0
  6 13  1  1  0  0  0
  6 30  1  0  0  0  0
  9  3  1  0  0  0  0
 14 15  1  0  0  0  0
 14  1  1  0  0  0  0
 16  2  1  0  0  0  0
 17 16  1  0  0  0  0
 17 19  1  0  0  0  0
 17 20  1  0  0  0  0
 18 17  1  0  0  0  0
 20 21  1  0  0  0  0
 21 22  2  0  0  0  0
 21 26  1  0  0  0  0
 22 23  1  0  0  0  0
 23 28  1  0  0  0  0
 23 24  2  0  0  0  0
 25 24  1  0  0  0  0
 25 29  1  0  0  0  0
 26 25  2  0  0  0  0
 27 22  1  0  0  0  0
 30 31  1  0  0  0  0
 31 32  2  0  0  0  0
 31 36  1  0  0  0  0
 32 34  1  0  0  0  0
 33 32  1  0  0  0  0
 34 35  2  0  0  0  0
 36 35  1  0  0  0  0
M  END
>  <minimizedAffinity>
-4.47020102

$$$$

 OpenBabel03262521573D

 36 38  0  0  1  0  0  0  0  0999 V2000
   37.9030   24.2040   32.8060 C   0  0  1  0  0  0  0  0  0  0  0  0
   39.0840   24.6690   31.9910 C   0  0  2  0  0  0  0  0  0  0  0  0
   38.6980   24.5860   30.5450 C   0  0  0  0  0  0  0  0  0  0  0  0
   37.4180   24.0960   30.3370 O   0  0  0  0  0  0  0  0  0  0  0  0
   36.4540   24.8840   30.9740 C   0  0  0  0  0  0  0  0  0  0  0  0
   36.7300   25.1000   32.4310 C   0  0  2  0  0  0  0  0  0  0  0  0
   38.1050   24.2050   33.8880 H   0  0  0  0  0  0  0  0  0  0  0  0
   39.2660   25.7250   32.2710 H   0  0  0  0  0  0  0  0  0  0  0  0
   39.3930   23.9120   30.0110 H   0  0  0  0  0  0  0  0  0  0  0  0
   38.8070   25.5880   30.0650 H   0  0  0  0  0  0  0  0  0  0  0  0
   36.4350   25.8620   30.4300 H   0  0  0  0  0  0  0  0  0  0  0  0
   35.4640   24.4160   30.7710 H   0  0  0  0  0  0  0  0  0  0  0  0
   35.8540   24.7660   33.0160 H   0  0  0  0  0  0  0  0  0  0  0  0
   37.5330   22.8960   32.4640 O   0  0  0  0  0  0  0  0  0  0  0  0
   36.5720   22.8010   32.2780 H   0  0  0  0  0  0  0  0  0  0  0  0
   40.5740   23.7090   32.3400 S   0  0  0  0  0  0  0  0  0  0  0  0
   41.1340   24.0340   34.0340 C   0  0  0  0  0  0  0  0  0  0  0  0
   42.2530   24.1570   33.9730 H   0  0  0  0  0  0  0  0  0  0  0  0
   40.7540   25.0260   34.3830 H   0  0  0  0  0  0  0  0  0  0  0  0
   40.7900   22.7080   35.1770 S   0  0  0  0  0  0  0  0  0  0  0  0
   39.6990   23.3120   36.4470 C   0  0  0  0  0  0  0  0  0  0  0  0
   38.8700   24.3470   36.0700 C   0  0  0  0  0  0  0  0  0  0  0  0
   37.9760   24.8920   36.9970 C   0  0  0  0  0  0  0  0  0  0  0  0
   37.9770   24.3480   38.2580 N   0  0  0  0  0  0  0  0  0  0  0  0
   38.8060   23.3350   38.5810 C   0  0  0  0  0  0  0  0  0  0  0  0
   39.6490   22.8290   37.6900 N   0  0  0  0  0  0  0  0  0  0  0  0
   38.8640   24.7820   35.0750 H   0  0  0  0  0  0  0  0  0  0  0  0
   37.3360   25.6950   36.6950 H   0  0  0  0  0  0  0  0  0  0  0  0
   38.7640   22.9410   39.5960 H   0  0  0  0  0  0  0  0  0  0  0  0
   37.1670   26.3920   32.6610 O   0  0  0  0  0  0  0  0  0  0  0  0
   36.6920   27.4570   33.1180 C   0  0  0  0  0  0  0  0  0  0  0  0
   36.4160   28.1330   34.3180 C   0  0  0  0  0  0  0  0  0  0  0  0
   36.7210   27.5140   35.1460 H   0  0  0  0  0  0  0  0  0  0  0  0
   35.8500   29.3750   34.3810 C   0  0  0  0  0  3  0  0  0  0  0  0
   35.5260   30.0080   33.1220 C   0  0  0  0  0  3  0  0  0  0  0  0
   36.0890   28.7030   31.8670 S   0  0  0  0  0  0  0  0  0  0  0  0
  1  7  1  1  0  0  0
  2  8  1  1  0  0  0
  2 16  1  0  0  0  0
  2  1  1  0  0  0  0
  3  2  1  0  0  0  0
  4  3  1  0  0  0  0
  4  5  1  0  0  0  0
  5  6  1  0  0  0  0
  6 30  1  0  0  0  0
  6  1  1  0  0  0  0
  6 13  1  1  0  0  0
  9  3  1  0  0  0  0
 10  3  1  0  0  0  0
 11  5  1  0  0  0  0
 12  5  1  0  0  0  0
 14  1  1  0  0  0  0
 15 14  1  0  0  0  0
 16 17  1  0  0  0  0
 17 19  1  0  0  0  0
 17 20  1  0  0  0  0
 18 17  1  0  0  0  0
 20 21  1  0  0  0  0
 21 26  1  0  0  0  0
 22 21  2  0  0  0  0
 22 23  1  0  0  0  0
 23 24  2  0  0  0  0
 24 25  1  0  0  0  0
 25 29  1  0  0  0  0
 26 25  2  0  0  0  0
 27 22  1  0  0  0  0
 28 23  1  0  0  0  0
 30 31  1  0  0  0  0
 31 32  2  0  0  0  0
 32 34  1  0  0  0  0
 32 33  1  0  0  0  0
 35 34  2  0  0  0  0
 36 31  1  0  0  0  0
 36 35  1  0  0  0  0
M  END
>  <minimizedAffinity>
-4.43413877

$$$$

 OpenBabel03262521573D

 36 38  0  0  1  0  0  0  0  0999 V2000
   35.0730   29.2980   33.4440 C   0  0  1  0  0  0  0  0  0  0  0  0
   33.8420   29.6750   32.6570 C   0  0  2  0  0  0  0  0  0  0  0  0
   34.2410   30.7290   31.6680 C   0  0  0  0  0  0  0  0  0  0  0  0
   35.5770   31.0910   31.7490 O   0  0  0  0  0  0  0  0  0  0  0  0
   36.4220   29.9960   31.5430 C   0  0  0  0  0  0  0  0  0  0  0  0
   36.1130   28.8310   32.4350 C   0  0  2  0  0  0  0  0  0  0  0  0
   34.8690   28.5440   34.2190 H   0  0  0  0  0  0  0  0  0  0  0  0
   33.5160   28.7630   32.1210 H   0  0  0  0  0  0  0  0  0  0  0  0
   33.6470   31.6460   31.8380 H   0  0  0  0  0  0  0  0  0  0  0  0
   33.9980   30.3900   30.6330 H   0  0  0  0  0  0  0  0  0  0  0  0
   36.3090   29.7060   30.4680 H   0  0  0  0  0  0  0  0  0  0  0  0
   37.4670   30.3680   31.6390 H   0  0  0  0  0  0  0  0  0  0  0  0
   37.0240   28.5580   32.9970 H   0  0  0  0  0  0  0  0  0  0  0  0
   35.6190   30.4120   34.0970 O   0  0  0  0  0  0  0  0  0  0  0  0
   36.5850   30.5160   33.9420 H   0  0  0  0  0  0  0  0  0  0  0  0
   32.4960   30.2360   33.7230 S   0  0  0  0  0  0  0  0  0  0  0  0
   32.4420   29.2280   35.2290 C   0  0  0  0  0  0  0  0  0  0  0  0
   31.6450   28.4510   35.0540 H   0  0  0  0  0  0  0  0  0  0  0  0
   33.3910   28.6480   35.3400 H   0  0  0  0  0  0  0  0  0  0  0  0
   32.0020   30.1420   36.6970 S   0  0  0  0  0  0  0  0  0  0  0  0
   33.0390   31.5840   36.8090 C   0  0  0  0  0  0  0  0  0  0  0  0
   32.3780   32.7700   37.0510 C   0  0  0  0  0  0  0  0  0  0  0  0
   33.1050   33.9600   37.1560 C   0  0  0  0  0  0  0  0  0  0  0  0
   34.4680   33.8730   37.0080 N   0  0  0  0  0  0  0  0  0  0  0  0
   35.0710   32.6900   36.7720 C   0  0  0  0  0  0  0  0  0  0  0  0
   34.3670   31.5690   36.6750 N   0  0  0  0  0  0  0  0  0  0  0  0
   31.3010   32.8460   37.1690 H   0  0  0  0  0  0  0  0  0  0  0  0
   32.5830   34.8740   37.3450 H   0  0  0  0  0  0  0  0  0  0  0  0
   36.1550   32.6800   36.6640 H   0  0  0  0  0  0  0  0  0  0  0  0
   35.5040   27.8160   31.7210 O   0  0  0  0  0  0  0  0  0  0  0  0
   35.6300   26.5770   31.5910 C   0  0  0  0  0  0  0  0  0  0  0  0
   35.0850   25.4610   30.9330 C   0  0  0  0  0  0  0  0  0  0  0  0
   34.2610   25.7850   30.3190 H   0  0  0  0  0  0  0  0  0  0  0  0
   35.5550   24.1860   31.0790 C   0  0  0  0  0  3  0  0  0  0  0  0
   36.6810   24.0040   31.9690 C   0  0  0  0  0  3  0  0  0  0  0  0
   37.0030   25.7740   32.5660 S   0  0  0  0  0  0  0  0  0  0  0  0
  1 14  1  0  0  0  0
  1  7  1  1  0  0  0
  2  8  1  6  0  0  0
  2  1  1  0  0  0  0
  2 16  1  0  0  0  0
  3  4  1  0  0  0  0
  3  9  1  0  0  0  0
  3  2  1  0  0  0  0
  5 12  1  0  0  0  0
  5  4  1  0  0  0  0
  5  6  1  0  0  0  0
  6 13  1  1  0  0  0
  6  1  1  0  0  0  0
 10  3  1  0  0  0  0
 11  5  1  0  0  0  0
 15 14  1  0  0  0  0
 16 17  1  0  0  0  0
 17 19  1  0  0  0  0
 17 20  1  0  0  0  0
 18 17  1  0  0  0  0
 20 21  1  0  0  0  0
 21 22  1  0  0  0  0
 22 23  2  0  0  0  0
 22 27  1  0  0  0  0
 23 28  1  0  0  0  0
 24 23  1  0  0  0  0
 25 24  2  0  0  0  0
 26 25  1  0  0  0  0
 26 21  2  0  0  0  0
 29 25  1  0  0  0  0
 30  6  1  0  0  0  0
 31 30  1  0  0  0  0
 31 36  1  0  0  0  0
 32 34  1  0  0  0  0
 32 31  2  0  0  0  0
 33 32  1  0  0  0  0
 34 35  2  0  0  0  0
 35 36  1  0  0  0  0
M  END
>  <minimizedAffinity>
-4.39108229

$$$$
