
 OpenBabel03272508273D

 35 38  0  0  1  0  0  0  0  0999 V2000
   33.7490   28.8320   47.2360 C   0  0  2  0  0  0  0  0  0  0  0  0
   34.4840   28.0830   48.3360 C   0  0  2  0  0  0  0  0  0  0  0  0
   33.5480   27.8660   49.3120 O   0  0  0  0  0  0  0  0  0  0  0  0
   32.2960   27.9020   48.7880 C   0  0  0  0  0  0  0  0  0  0  0  0
   32.4120   28.1040   47.3070 C   0  0  1  0  0  0  0  0  0  0  0  0
   33.5790   29.8880   47.4580 H   0  0  0  0  0  0  0  0  0  0  0  0
   34.8350   27.1210   47.9150 H   0  0  0  0  0  0  0  0  0  0  0  0
   31.7840   28.8090   49.2190 H   0  0  0  0  0  0  0  0  0  0  0  0
   31.6540   27.0370   49.0510 H   0  0  0  0  0  0  0  0  0  0  0  0
   32.4850   27.1280   46.7520 H   0  0  0  0  0  0  0  0  0  0  0  0
   35.5210   30.3720   48.9260 C   0  0  1  0  0  0  0  0  0  0  0  0
   35.6080   28.9290   48.8300 C   0  0  1  0  0  0  0  0  0  0  0  0
   35.6160   29.5240   50.2010 C   0  0  0  0  0  0  0  0  0  0  0  0
   34.5910   30.9830   48.9670 H   0  0  0  0  0  0  0  0  0  0  0  0
   36.6200   28.5430   48.4980 H   0  0  0  0  0  0  0  0  0  0  0  0
   36.5330   29.5660   50.7870 H   0  0  0  0  0  0  0  0  0  0  0  0
   34.6970   29.3510   50.7990 H   0  0  0  0  0  0  0  0  0  0  0  0
   36.7270   31.2500   48.7280 C   0  0  0  0  0  0  0  0  0  0  0  0
   37.0000   32.2220   49.6930 C   0  0  0  0  0  0  0  0  0  0  0  0
   38.0960   33.0190   49.4630 C   0  0  0  0  0  0  0  0  0  0  0  0
   38.8640   32.8480   48.3380 N   0  0  0  0  0  0  0  0  0  0  0  0
   38.5670   31.8900   47.4220 C   0  0  0  0  0  0  0  0  0  0  0  0
   37.4930   31.0830   47.6110 N   0  0  0  0  0  0  0  0  0  0  0  0
   36.4020   32.3670   50.5770 H   0  0  0  0  0  0  0  0  0  0  0  0
   38.3880   33.8080   50.1690 H   0  0  0  0  0  0  0  0  0  0  0  0
   39.1580   31.7260   46.5160 H   0  0  0  0  0  0  0  0  0  0  0  0
   34.3310   28.6810   45.9910 O   0  0  0  0  0  0  0  0  0  0  0  0
   34.9220   27.8600   46.0010 H   0  0  0  0  0  0  0  0  0  0  0  0
   31.3880   28.8640   46.7720 O   0  0  0  0  0  0  0  0  0  0  0  0
   30.0060   27.9900   46.9110 C   0  0  0  0  0  0  0  0  0  0  0  0
   29.2200   29.3040   46.9740 C   0  0  0  0  0  0  0  0  0  0  0  0
   29.2840   30.4190   46.9640 H   0  0  0  0  0  0  0  0  0  0  0  0
   27.8720   29.2650   47.1010 C   0  0  0  0  0  3  0  0  0  0  0  0
   27.2270   27.9740   47.1730 C   0  0  0  0  0  3  0  0  0  0  0  0
   28.7210   26.7940   47.0420 S   0  0  0  0  0  0  0  0  0  0  0  0
  1  5  1  0  0  0  0
  1  6  1  1  0  0  0
  1  2  1  0  0  0  0
  2  7  1  6  0  0  0
  2 12  1  0  0  0  0
  2  3  1  0  0  0  0
  4  9  1  0  0  0  0
  4  8  1  0  0  0  0
  4  3  1  0  0  0  0
  5 10  1  6  0  0  0
  5  4  1  0  0  0  0
 11 14  1  6  0  0  0
 11 13  1  0  0  0  0
 12 15  1  6  0  0  0
 12 11  1  0  0  0  0
 12 13  1  0  0  0  0
 13 16  1  0  0  0  0
 13 17  1  0  0  0  0
 18 11  1  0  0  0  0
 18 19  1  0  0  0  0
 19 24  1  0  0  0  0
 20 19  2  0  0  0  0
 20 25  1  0  0  0  0
 21 20  1  0  0  0  0
 22 23  1  0  0  0  0
 22 21  2  0  0  0  0
 23 18  2  0  0  0  0
 26 22  1  0  0  0  0
 27 28  1  0  0  0  0
 27  1  1  0  0  0  0
 29 30  1  0  0  0  0
 29  5  1  0  0  0  0
 30 31  2  0  0  0  0
 30 35  1  0  0  0  0
 31 33  1  0  0  0  0
 32 31  1  0  0  0  0
 33 34  2  0  0  0  0
 35 34  1  0  0  0  0
M  END
>  <minimizedAffinity>
-5.33003712

>  <minimizedRMSD>
1.90729082

$$$$
