
 OpenBabel03272500453D

 22 24  0  0  0  0  0  0  0  0999 V2000
   36.4610   30.4880   47.5050 C   0  0  0  0  0  0  0  0  0  0  0  0
   35.7930   30.0820   46.3440 C   0  0  0  0  0  0  0  0  0  0  0  0
   36.4180   30.6700   45.2500 C   0  0  0  0  0  0  0  0  0  0  0  0
   37.4400   31.4130   45.7610 N   0  0  0  0  0  0  0  0  0  0  0  0
   37.4360   31.2840   47.0810 N   0  0  0  0  0  0  0  0  0  0  0  0
   34.9320   29.4240   46.2460 H   0  0  0  0  0  0  0  0  0  0  0  0
   36.1390   30.5520   44.2170 H   0  0  0  0  0  0  0  0  0  0  0  0
   36.9860   29.7890   49.8460 C   0  0  0  0  0  0  0  0  0  0  0  0
   36.0810   30.0670   48.8260 C   0  0  0  0  0  0  0  0  0  0  0  0
   34.7190   29.9220   49.1260 C   0  0  0  0  0  0  0  0  0  0  0  0
   34.3700   29.5210   50.3850 N   0  0  0  0  0  0  0  0  0  0  0  0
   35.2980   29.2620   51.3480 C   0  0  0  0  0  0  0  0  0  0  0  0
   36.6190   29.4000   51.0680 N   0  0  0  0  0  0  0  0  0  0  0  0
   38.0450   29.8930   49.6450 H   0  0  0  0  0  0  0  0  0  0  0  0
   33.9930   30.1250   48.3690 H   0  0  0  0  0  0  0  0  0  0  0  0
   34.7820   28.9630   52.2550 H   0  0  0  0  0  0  0  0  0  0  0  0
   38.3000   32.1550   44.9620 C   0  0  0  0  0  0  0  0  0  0  0  0
   39.4320   32.8730   45.2310 C   0  0  0  0  0  0  0  0  0  0  0  0
   39.7480   32.8830   46.2620 H   0  0  0  0  0  0  0  0  0  0  0  0
   40.1180   33.5320   44.2500 C   0  0  0  0  0  0  0  0  0  0  0  0
   39.5150   33.3890   42.9040 C   0  0  0  0  0  0  0  0  0  0  0  0
   38.0100   32.2950   43.2620 S   0  0  0  0  0  0  0  0  0  0  0  0
  1  9  1  0  0  0  0
  2  1  1  0  0  0  0
  3  4  1  0  0  0  0
  3  2  2  0  0  0  0
  4  5  1  0  0  0  0
  5  1  2  0  0  0  0
  6  2  1  0  0  0  0
  7  3  1  0  0  0  0
  8 13  1  0  0  0  0
  9 10  1  0  0  0  0
  9  8  2  0  0  0  0
 10 11  2  0  0  0  0
 11 12  1  0  0  0  0
 12 16  1  0  0  0  0
 13 12  2  0  0  0  0
 14  8  1  0  0  0  0
 15 10  1  0  0  0  0
 17 18  2  0  0  0  0
 17  4  1  0  0  0  0
 18 19  1  0  0  0  0
 20 18  1  0  0  0  0
 21 22  1  0  0  0  0
 21 20  2  0  0  0  0
 22 17  1  0  0  0  0
M  END
>  <minimizedAffinity>
-4.43609428

>  <minimizedRMSD>
3.81771493

$$$$
