
 OpenBabel03262520323D

 20 21  0  0  0  0  0  0  0  0999 V2000
   34.8280   28.3800   49.6880 C   0  0  0  0  0  3  0  0  0  0  0  0
   34.2320   28.2730   48.5430 C   0  0  0  0  0  3  0  0  0  0  0  0
   37.5410   30.4320   51.0380 C   0  0  0  0  0  0  0  0  0  0  0  0
   37.7760   31.3470   50.0010 C   0  0  0  0  0  0  0  0  0  0  0  0
   36.9850   31.2350   48.8490 C   0  0  0  0  0  0  0  0  0  0  0  0
   36.0370   30.2410   48.8120 N   0  0  0  0  0  0  0  0  0  0  0  0
   35.8570   29.3930   49.8340 C   0  0  0  0  0  0  0  0  0  0  0  0
   36.6060   29.4950   50.9300 N   0  0  0  0  0  0  0  0  0  0  0  0
   38.1930   30.5920   51.8810 H   0  0  0  0  0  0  0  0  0  0  0  0
   38.4810   32.1410   49.9440 H   0  0  0  0  0  0  0  0  0  0  0  0
   37.0380   31.8580   47.9620 H   0  0  0  0  0  0  0  0  0  0  0  0
   33.1520   27.3110   48.1680 C   0  0  0  0  0  0  0  0  0  0  0  0
   32.9660   26.6750   49.0550 H   0  0  0  0  0  0  0  0  0  0  0  0
   32.2160   27.8910   48.0110 H   0  0  0  0  0  0  0  0  0  0  0  0
   33.5590   26.5010   47.0480 C   0  0  0  0  0  0  0  0  0  0  0  0
   33.8630   26.7380   45.7270 C   0  0  0  0  0  0  0  0  0  0  0  0
   33.7790   27.7790   45.4540 H   0  0  0  0  0  0  0  0  0  0  0  0
   34.2260   25.7320   44.8920 C   0  0  0  0  0  3  0  0  0  0  0  0
   34.2850   24.4430   45.4090 C   0  0  0  0  0  3  0  0  0  0  0  0
   33.7790   24.7270   47.2190 S   0  0  0  0  0  0  0  0  0  0  0  0
  1  7  1  0  0  0  0
  2  1  2  0  0  0  0
  3  9  1  0  0  0  0
  4  3  2  0  0  0  0
  5  4  1  0  0  0  0
  6  5  2  0  0  0  0
  6  7  1  0  0  0  0
  7  8  2  0  0  0  0
  8  3  1  0  0  0  0
 10  4  1  0  0  0  0
 11  5  1  0  0  0  0
 12  2  1  0  0  0  0
 12 13  1  0  0  0  0
 14 12  1  0  0  0  0
 15 20  1  0  0  0  0
 15 12  1  0  0  0  0
 16 15  2  0  0  0  0
 17 16  1  0  0  0  0
 18 19  2  0  0  0  0
 18 16  1  0  0  0  0
 19 20  1  0  0  0  0
M  END
>  <minimizedAffinity>
-3.94099712

>  <minimizedRMSD>
1.13394487

$$$$
