
 OpenBabel03272509473D

 22 23  0  0  0  0  0  0  0  0999 V2000
   34.0670   28.4990   48.6390 C   0  0  0  0  0  0  0  0  0  0  0  0
   33.1240   29.0070   48.9140 H   0  0  0  0  0  0  0  0  0  0  0  0
   34.6300   29.1950   47.9830 H   0  0  0  0  0  0  0  0  0  0  0  0
   33.8200   27.1690   47.9680 C   0  0  0  0  0  0  0  0  0  0  0  0
   32.9510   26.7230   48.5330 H   0  0  0  0  0  0  0  0  0  0  0  0
   34.6500   26.4730   48.0650 H   0  0  0  0  0  0  0  0  0  0  0  0
   33.4480   27.4230   46.5510 C   0  0  0  0  0  0  0  0  0  0  0  0
   33.8400   26.8830   45.3710 C   0  0  0  0  0  0  0  0  0  0  0  0
   34.5920   26.0910   45.4690 H   0  0  0  0  0  0  0  0  0  0  0  0
   33.3220   27.3170   44.2020 C   0  0  0  0  0  3  0  0  0  0  0  0
   32.3880   28.3220   44.2810 C   0  0  0  0  0  3  0  0  0  0  0  0
   32.2630   28.6450   46.1450 S   0  0  0  0  0  0  0  0  0  0  0  0
   34.7480   28.2880   49.8740 O   0  0  0  0  0  0  0  0  0  0  0  0
   37.3860   30.2670   51.3950 C   0  0  0  0  0  0  0  0  0  0  0  0
   38.0690   30.6880   50.2580 C   0  0  0  0  0  0  0  0  0  0  0  0
   37.5970   30.2750   49.0180 C   0  0  0  0  0  0  0  0  0  0  0  0
   36.4800   29.4760   49.0140 N   0  0  0  0  0  0  0  0  0  0  0  0
   35.8450   29.0900   50.1400 C   0  0  0  0  0  0  0  0  0  0  0  0
   36.3160   29.4970   51.3270 N   0  0  0  0  0  0  0  0  0  0  0  0
   37.7730   30.6030   52.3630 H   0  0  0  0  0  0  0  0  0  0  0  0
   38.9480   31.3170   50.2540 H   0  0  0  0  0  0  0  0  0  0  0  0
   38.0750   30.5610   48.0930 H   0  0  0  0  0  0  0  0  0  0  0  0
  1  2  1  0  0  0  0
  1 13  1  0  0  0  0
  3  1  1  0  0  0  0
  4  6  1  0  0  0  0
  4  5  1  0  0  0  0
  4  1  1  0  0  0  0
  7  4  1  0  0  0  0
  8  9  1  0  0  0  0
  8  7  2  0  0  0  0
 10 11  2  0  0  0  0
 10  8  1  0  0  0  0
 11 12  1  0  0  0  0
 12  7  1  0  0  0  0
 13 18  1  0  0  0  0
 14 20  1  0  0  0  0
 15 14  2  0  0  0  0
 16 15  1  0  0  0  0
 17 16  2  0  0  0  0
 17 18  1  0  0  0  0
 18 19  2  0  0  0  0
 19 14  1  0  0  0  0
 21 15  1  0  0  0  0
 22 16  1  0  0  0  0
M  END
>  <minimizedAffinity>
-3.67003918

>  <minimizedRMSD>
0.343752861

$$$$
