
 OpenBabel03272510343D

 25 27  0  0  0  0  0  0  0  0999 V2000
   35.9970   30.2330   47.3540 C   0  0  0  0  0  0  0  0  0  0  0  0
   35.4620   30.2580   46.0840 C   0  0  0  0  0  0  0  0  0  0  0  0
   34.4440   29.3970   45.7240 C   0  0  0  0  0  0  0  0  0  0  0  0
   33.9730   28.5080   46.6600 C   0  0  0  0  0  0  0  0  0  0  0  0
   34.4900   28.4610   47.9370 C   0  0  0  0  0  0  0  0  0  0  0  0
   35.5080   29.3280   48.2860 C   0  0  0  0  0  0  0  0  0  0  0  0
   35.8360   30.9680   45.3310 H   0  0  0  0  0  0  0  0  0  0  0  0
   34.0240   29.4150   44.7250 H   0  0  0  0  0  0  0  0  0  0  0  0
   33.1750   27.7980   46.4570 H   0  0  0  0  0  0  0  0  0  0  0  0
   34.1780   27.7900   48.7380 H   0  0  0  0  0  0  0  0  0  0  0  0
   37.8520   32.8210   49.0990 C   0  0  0  0  0  0  0  0  0  0  0  0
   38.9980   33.0160   48.3290 C   0  0  0  0  0  0  0  0  0  0  0  0
   39.1220   32.2210   47.1740 C   0  0  0  0  0  0  0  0  0  0  0  0
   38.1450   31.3280   46.8750 N   0  0  0  0  0  0  0  0  0  0  0  0
   37.0600   31.1750   47.6440 C   0  0  0  0  0  0  0  0  0  0  0  0
   36.9180   31.9320   48.7650 N   0  0  0  0  0  0  0  0  0  0  0  0
   37.7510   33.4410   50.0010 H   0  0  0  0  0  0  0  0  0  0  0  0
   39.7340   33.7570   48.6450 H   0  0  0  0  0  0  0  0  0  0  0  0
   40.0090   32.3750   46.5840 H   0  0  0  0  0  0  0  0  0  0  0  0
   36.1010   29.3240   49.6350 C   0  0  0  0  0  0  0  0  0  0  0  0
   37.4910   29.0910   49.8770 C   0  0  0  0  0  0  0  0  0  0  0  0
   38.1700   28.9050   49.0610 H   0  0  0  0  0  0  0  0  0  0  0  0
   37.9190   29.1130   51.1760 C   0  0  0  0  0  3  0  0  0  0  0  0
   36.9710   29.3630   52.2050 C   0  0  0  0  0  3  0  0  0  0  0  0
   35.3930   29.5830   51.3370 S   0  0  0  0  0  0  0  0  0  0  0  0
  1 15  1  0  0  0  0
  1  6  1  0  0  0  0
  2  1  2  0  0  0  0
  3  2  1  0  0  0  0
  3  4  2  0  0  0  0
  4  5  1  0  0  0  0
  5  6  2  0  0  0  0
  5 10  1  0  0  0  0
  6 20  1  0  0  0  0
  7  2  1  0  0  0  0
  8  3  1  0  0  0  0
  9  4  1  0  0  0  0
 11 17  1  0  0  0  0
 12 18  1  0  0  0  0
 12 11  2  0  0  0  0
 13 12  1  0  0  0  0
 14 13  2  0  0  0  0
 14 15  1  0  0  0  0
 15 16  2  0  0  0  0
 16 11  1  0  0  0  0
 19 13  1  0  0  0  0
 20 21  2  0  0  0  0
 20 25  1  0  0  0  0
 21 23  1  0  0  0  0
 22 21  1  0  0  0  0
 23 24  2  0  0  0  0
 25 24  1  0  0  0  0
M  END
>  <minimizedAffinity>
-4.03545952

>  <minimizedRMSD>
1.37389231

$$$$
