
 OpenBabel03272510333D

 25 27  0  0  0  0  0  0  0  0999 V2000
   35.9350   30.0730   47.7510 C   0  0  0  0  0  0  0  0  0  0  0  0
   35.2300   30.0560   46.5670 C   0  0  0  0  0  0  0  0  0  0  0  0
   34.1780   29.1810   46.3780 C   0  0  0  0  0  0  0  0  0  0  0  0
   33.8460   28.3220   47.3980 C   0  0  0  0  0  0  0  0  0  0  0  0
   34.5350   28.3180   48.5930 C   0  0  0  0  0  0  0  0  0  0  0  0
   35.5850   29.1980   48.7700 C   0  0  0  0  0  0  0  0  0  0  0  0
   35.4920   30.7410   45.7470 H   0  0  0  0  0  0  0  0  0  0  0  0
   33.6240   29.1670   45.4460 H   0  0  0  0  0  0  0  0  0  0  0  0
   33.0320   27.6050   47.3300 H   0  0  0  0  0  0  0  0  0  0  0  0
   34.3400   27.6730   49.4490 H   0  0  0  0  0  0  0  0  0  0  0  0
   37.9120   32.8270   49.0520 C   0  0  0  0  0  0  0  0  0  0  0  0
   39.0140   32.9060   48.2010 C   0  0  0  0  0  0  0  0  0  0  0  0
   39.0630   31.9710   47.1500 C   0  0  0  0  0  0  0  0  0  0  0  0
   38.0620   31.0650   47.0200 N   0  0  0  0  0  0  0  0  0  0  0  0
   37.0220   31.0260   47.8610 C   0  0  0  0  0  0  0  0  0  0  0  0
   36.9520   31.9180   48.8850 N   0  0  0  0  0  0  0  0  0  0  0  0
   37.8700   33.5550   49.8740 H   0  0  0  0  0  0  0  0  0  0  0  0
   39.7740   33.6670   48.3810 H   0  0  0  0  0  0  0  0  0  0  0  0
   39.9170   32.0360   46.4960 H   0  0  0  0  0  0  0  0  0  0  0  0
   36.3590   29.2390   50.0230 C   0  0  0  0  0  0  0  0  0  0  0  0
   35.8050   29.6690   51.2690 C   0  0  0  0  0  0  0  0  0  0  0  0
   34.7780   29.9870   51.3360 H   0  0  0  0  0  0  0  0  0  0  0  0
   36.6280   29.6610   52.3620 C   0  0  0  0  0  3  0  0  0  0  0  0
   37.9720   29.2310   52.2050 C   0  0  0  0  0  3  0  0  0  0  0  0
   38.1200   28.8100   50.4460 S   0  0  0  0  0  0  0  0  0  0  0  0
  1 15  1  0  0  0  0
  1  6  1  0  0  0  0
  2  1  2  0  0  0  0
  3  2  1  0  0  0  0
  3  4  2  0  0  0  0
  4  5  1  0  0  0  0
  5  6  2  0  0  0  0
  5 10  1  0  0  0  0
  6 20  1  0  0  0  0
  7  2  1  0  0  0  0
  8  3  1  0  0  0  0
  9  4  1  0  0  0  0
 11 17  1  0  0  0  0
 12 18  1  0  0  0  0
 12 11  2  0  0  0  0
 13 12  1  0  0  0  0
 14 13  2  0  0  0  0
 14 15  1  0  0  0  0
 15 16  2  0  0  0  0
 16 11  1  0  0  0  0
 19 13  1  0  0  0  0
 20 25  1  0  0  0  0
 20 21  2  0  0  0  0
 21 22  1  0  0  0  0
 21 23  1  0  0  0  0
 24 23  2  0  0  0  0
 25 24  1  0  0  0  0
M  END
>  <minimizedAffinity>
-3.59635425

>  <minimizedRMSD>
1.0037359

$$$$
