
 OpenBabel03272510123D

 32 35  0  0  0  0  0  0  0  0999 V2000
   33.5240   28.4990   48.3500 C   0  0  0  0  0  0  0  0  0  0  0  0
   34.4030   28.0430   49.2710 C   0  0  0  0  0  0  0  0  0  0  0  0
   35.5970   28.6640   49.5930 C   0  0  0  0  0  0  0  0  0  0  0  0
   35.9520   29.8190   48.9640 C   0  0  0  0  0  0  0  0  0  0  0  0
   35.0450   30.2980   48.0090 C   0  0  0  0  0  0  0  0  0  0  0  0
   33.8950   29.6530   47.7330 N   0  0  0  0  0  0  0  0  0  0  0  0
   34.2070   27.1330   49.8210 H   0  0  0  0  0  0  0  0  0  0  0  0
   36.3000   28.2990   50.3280 H   0  0  0  0  0  0  0  0  0  0  0  0
   35.2130   31.2100   47.4390 H   0  0  0  0  0  0  0  0  0  0  0  0
   31.2400   27.6410   48.9350 C   0  0  0  0  0  0  0  0  0  0  0  0
   32.2860   27.8490   48.0200 C   0  0  0  0  0  0  0  0  0  0  0  0
   32.0800   27.3890   46.7270 C   0  0  0  0  0  0  0  0  0  0  0  0
   30.9180   26.7720   46.4000 N   0  0  0  0  0  0  0  0  0  0  0  0
   29.9430   26.5990   47.3260 C   0  0  0  0  0  0  0  0  0  0  0  0
   30.0980   27.0270   48.5810 N   0  0  0  0  0  0  0  0  0  0  0  0
   31.3660   27.9840   49.9400 H   0  0  0  0  0  0  0  0  0  0  0  0
   32.8640   27.5230   45.9650 H   0  0  0  0  0  0  0  0  0  0  0  0
   29.0330   26.0970   46.9970 H   0  0  0  0  0  0  0  0  0  0  0  0
   37.1080   30.5800   49.1580 O   0  0  0  0  0  0  0  0  0  0  0  0
   37.8090   31.1250   48.0950 C   0  0  0  0  0  0  0  0  0  0  0  0
   38.5710   32.2530   48.4260 C   0  0  0  0  0  0  0  0  0  0  0  0
   39.2240   32.7120   47.3010 C   0  0  0  0  0  0  0  0  0  0  0  0
   38.8460   31.8640   46.3350 N   0  0  0  0  0  0  0  0  0  0  0  0
   38.0270   30.9430   46.7870 N   0  0  0  0  0  0  0  0  0  0  0  0
   38.7410   32.8150   49.3600 H   0  0  0  0  0  0  0  0  0  0  0  0
   39.8990   33.5490   47.1470 H   0  0  0  0  0  0  0  0  0  0  0  0
   39.2030   31.8400   44.9370 C   0  0  0  0  0  0  0  0  0  0  0  0
   38.5210   32.6260   44.0520 C   0  0  0  0  0  0  0  0  0  0  0  0
   37.7050   33.3120   44.2240 H   0  0  0  0  0  0  0  0  0  0  0  0
   38.7500   32.6980   42.7370 C   0  0  0  0  0  3  0  0  0  0  0  0
   39.8320   31.8410   42.2680 C   0  0  0  0  0  3  0  0  0  0  0  0
   40.4400   30.9680   43.8730 S   0  0  0  0  0  0  0  0  0  0  0  0
  1  2  1  0  0  0  0
  2  3  2  0  0  0  0
  2  7  1  0  0  0  0
  3  8  1  0  0  0  0
  4 19  1  0  0  0  0
  4  3  1  0  0  0  0
  5  4  2  0  0  0  0
  6  5  1  0  0  0  0
  6  1  2  0  0  0  0
  9  5  1  0  0  0  0
 10 16  1  0  0  0  0
 11  1  1  0  0  0  0
 11 10  2  0  0  0  0
 12 11  1  0  0  0  0
 13 12  2  0  0  0  0
 13 14  1  0  0  0  0
 14 15  2  0  0  0  0
 15 10  1  0  0  0  0
 17 12  1  0  0  0  0
 18 14  1  0  0  0  0
 20 21  1  0  0  0  0
 20 19  1  0  0  0  0
 21 25  1  0  0  0  0
 22 21  2  0  0  0  0
 23 24  1  0  0  0  0
 23 22  1  0  0  0  0
 24 20  2  0  0  0  0
 26 22  1  0  0  0  0
 27 23  1  0  0  0  0
 28 29  1  0  0  0  0
 28 27  2  0  0  0  0
 30 28  1  0  0  0  0
 31 30  2  0  0  0  0
 31 32  1  0  0  0  0
 32 27  1  0  0  0  0
M  END
>  <minimizedAffinity>
-5.67737246

>  <minimizedRMSD>
2.15279126

$$$$
