
 OpenBabel03272509543D

 40 43  0  0  0  0  0  0  0  0999 V2000
   34.9290   28.4220   49.2680 O   0  0  0  0  0  0  0  0  0  0  0  0
   37.2190   30.0860   51.5010 C   0  0  0  0  0  0  0  0  0  0  0  0
   37.9980   30.8110   50.5670 C   0  0  0  0  0  0  0  0  0  0  0  0
   37.6790   30.6760   49.2260 C   0  0  0  0  0  0  0  0  0  0  0  0
   36.6310   29.8470   48.9240 N   0  0  0  0  0  0  0  0  0  0  0  0
   35.9080   29.1720   49.8250 C   0  0  0  0  0  0  0  0  0  0  0  0
   36.2180   29.3020   51.1280 N   0  0  0  0  0  0  0  0  0  0  0  0
   37.5000   30.2190   52.5400 H   0  0  0  0  0  0  0  0  0  0  0  0
   38.8190   31.4600   50.8000 H   0  0  0  0  0  0  0  0  0  0  0  0
   38.8280   33.3280   49.1670 F   0  0  0  0  0  0  0  0  0  0  0  0
   38.8930   32.5680   48.0900 C   0  0  0  0  0  0  0  0  0  0  0  0
   38.3500   31.3280   48.1300 C   0  0  0  0  0  0  0  0  0  0  0  0
   38.4760   30.6200   46.9460 C   0  0  0  0  0  0  0  0  0  0  0  0
   39.0960   31.1280   45.8240 C   0  0  0  0  0  0  0  0  0  0  0  0
   39.6330   32.3940   45.8260 C   0  0  0  0  0  0  0  0  0  0  0  0
   39.5250   33.1210   46.9870 C   0  0  0  0  0  0  0  0  0  0  0  0
   38.0980   29.6150   46.8110 H   0  0  0  0  0  0  0  0  0  0  0  0
   39.1940   30.5750   44.8980 H   0  0  0  0  0  0  0  0  0  0  0  0
   40.1210   32.8110   44.9620 H   0  0  0  0  0  0  0  0  0  0  0  0
   39.9370   34.1100   47.0090 H   0  0  0  0  0  0  0  0  0  0  0  0
   34.3920   28.8060   48.0120 C   0  0  0  0  0  0  0  0  0  0  0  0
   35.2410   29.0250   47.3260 H   0  0  0  0  0  0  0  0  0  0  0  0
   33.7900   29.7270   48.1270 H   0  0  0  0  0  0  0  0  0  0  0  0
   33.5420   27.7140   47.4480 C   0  0  0  0  0  0  0  0  0  0  0  0
   33.6460   27.6110   46.3400 H   0  0  0  0  0  0  0  0  0  0  0  0
   33.8400   26.7480   47.8750 H   0  0  0  0  0  0  0  0  0  0  0  0
   32.0960   27.9260   47.6980 C   0  0  0  0  0  0  0  0  0  0  0  0
   31.5180   27.3540   48.8320 C   0  0  0  0  0  0  0  0  0  0  0  0
   30.2020   27.4900   49.1470 C   0  0  0  0  0  0  0  0  0  0  0  0
   29.4350   28.2080   48.3260 N   0  0  0  0  0  0  0  0  0  0  0  0
   29.9850   28.7710   47.2170 C   0  0  0  0  0  0  0  0  0  0  0  0
   31.2810   28.6530   46.8810 N   0  0  0  0  0  0  0  0  0  0  0  0
   32.1680   26.7750   49.4800 H   0  0  0  0  0  0  0  0  0  0  0  0
   29.8470   27.0090   50.0460 H   0  0  0  0  0  0  0  0  0  0  0  0
   29.0810   29.5240   46.3930 C   0  0  0  0  0  0  0  0  0  0  0  0
   29.2890   30.2100   45.1900 C   0  0  0  0  0  0  0  0  0  0  0  0
   30.2980   30.1710   44.8100 H   0  0  0  0  0  0  0  0  0  0  0  0
   28.2540   30.8650   44.5850 C   0  0  0  0  0  3  0  0  0  0  0  0
   26.9890   30.8220   45.2110 C   0  0  0  0  0  3  0  0  0  0  0  0
   27.2340   29.8260   46.7180 S   0  0  0  0  0  0  0  0  0  0  0  0
  1  6  1  0  0  0  0
  2  8  1  0  0  0  0
  3  9  1  0  0  0  0
  3  2  2  0  0  0  0
  4  3  1  0  0  0  0
  5  4  2  0  0  0  0
  5  6  1  0  0  0  0
  6  7  2  0  0  0  0
  7  2  1  0  0  0  0
 11 12  1  0  0  0  0
 11 10  1  0  0  0  0
 12  4  1  0  0  0  0
 13 12  2  0  0  0  0
 14 15  2  0  0  0  0
 14 13  1  0  0  0  0
 15 16  1  0  0  0  0
 16 20  1  0  0  0  0
 16 11  2  0  0  0  0
 17 13  1  0  0  0  0
 18 14  1  0  0  0  0
 19 15  1  0  0  0  0
 21 23  1  0  0  0  0
 21  1  1  0  0  0  0
 22 21  1  0  0  0  0
 24 27  1  0  0  0  0
 24 26  1  0  0  0  0
 24 21  1  0  0  0  0
 25 24  1  0  0  0  0
 27 28  1  0  0  0  0
 28 29  2  0  0  0  0
 28 33  1  0  0  0  0
 29 34  1  0  0  0  0
 30 29  1  0  0  0  0
 31 30  2  0  0  0  0
 32 31  1  0  0  0  0
 32 27  2  0  0  0  0
 35 40  1  0  0  0  0
 35 31  1  0  0  0  0
 36 35  2  0  0  0  0
 37 36  1  0  0  0  0
 38 36  1  0  0  0  0
 38 39  2  0  0  0  0
 39 40  1  0  0  0  0
M  END
>  <minimizedAffinity>
-6.60821009

>  <minimizedRMSD>
0.526803911

$$$$
