
 OpenBabel03272508273D

 35 38  0  0  1  0  0  0  0  0999 V2000
   33.8120   28.8360   47.2720 C   0  0  2  0  0  0  0  0  0  0  0  0
   34.5450   28.1070   48.3870 C   0  0  2  0  0  0  0  0  0  0  0  0
   33.6220   27.9600   49.3880 O   0  0  0  0  0  0  0  0  0  0  0  0
   32.3620   28.0160   48.8870 C   0  0  0  0  0  0  0  0  0  0  0  0
   32.4540   28.1560   47.3970 C   0  0  1  0  0  0  0  0  0  0  0  0
   33.6810   29.9050   47.4540 H   0  0  0  0  0  0  0  0  0  0  0  0
   34.8560   27.1180   47.9980 H   0  0  0  0  0  0  0  0  0  0  0  0
   31.8880   28.9560   49.2910 H   0  0  0  0  0  0  0  0  0  0  0  0
   31.6970   27.1850   49.1970 H   0  0  0  0  0  0  0  0  0  0  0  0
   32.4840   27.1570   46.8800 H   0  0  0  0  0  0  0  0  0  0  0  0
   35.6130   30.3640   49.0420 C   0  0  1  0  0  0  0  0  0  0  0  0
   35.7050   28.9350   48.8250 C   0  0  1  0  0  0  0  0  0  0  0  0
   35.8510   29.4230   50.2300 C   0  0  0  0  0  0  0  0  0  0  0  0
   34.6860   30.9520   49.2270 H   0  0  0  0  0  0  0  0  0  0  0  0
   36.6800   28.5950   48.3600 H   0  0  0  0  0  0  0  0  0  0  0  0
   36.8250   29.4380   50.7180 H   0  0  0  0  0  0  0  0  0  0  0  0
   35.0030   29.1870   50.9050 H   0  0  0  0  0  0  0  0  0  0  0  0
   36.7820   31.2780   48.7880 C   0  0  0  0  0  0  0  0  0  0  0  0
   37.0470   32.2820   49.7200 C   0  0  0  0  0  0  0  0  0  0  0  0
   38.1070   33.1100   49.4400 C   0  0  0  0  0  0  0  0  0  0  0  0
   38.8490   32.9380   48.2980 N   0  0  0  0  0  0  0  0  0  0  0  0
   38.5600   31.9470   47.4140 C   0  0  0  0  0  0  0  0  0  0  0  0
   37.5210   31.1090   47.6530 N   0  0  0  0  0  0  0  0  0  0  0  0
   36.4690   32.4290   50.6180 H   0  0  0  0  0  0  0  0  0  0  0  0
   38.3920   33.9270   50.1180 H   0  0  0  0  0  0  0  0  0  0  0  0
   39.1310   31.7810   46.4960 H   0  0  0  0  0  0  0  0  0  0  0  0
   34.3640   28.6160   46.0230 O   0  0  0  0  0  0  0  0  0  0  0  0
   34.9280   27.7770   46.0550 H   0  0  0  0  0  0  0  0  0  0  0  0
   31.4450   28.9270   46.8510 O   0  0  0  0  0  0  0  0  0  0  0  0
   30.0350   28.4500   47.5430 C   0  0  0  0  0  0  0  0  0  0  0  0
   29.8420   27.4580   46.3900 C   0  0  0  0  0  0  0  0  0  0  0  0
   30.2650   27.0560   45.4380 H   0  0  0  0  0  0  0  0  0  0  0  0
   28.7420   26.6690   46.3730 C   0  0  0  0  0  3  0  0  0  0  0  0
   27.7880   26.7970   47.4500 C   0  0  0  0  0  3  0  0  0  0  0  0
   28.5980   28.1580   48.5140 S   0  0  0  0  0  0  0  0  0  0  0  0
  1  5  1  0  0  0  0
  1  6  1  1  0  0  0
  1  2  1  0  0  0  0
  2  7  1  6  0  0  0
  2 12  1  0  0  0  0
  2  3  1  0  0  0  0
  4  9  1  0  0  0  0
  4  8  1  0  0  0  0
  4  3  1  0  0  0  0
  5 10  1  6  0  0  0
  5  4  1  0  0  0  0
 11 14  1  6  0  0  0
 11 13  1  0  0  0  0
 12 15  1  6  0  0  0
 12 11  1  0  0  0  0
 12 13  1  0  0  0  0
 13 16  1  0  0  0  0
 13 17  1  0  0  0  0
 18 11  1  0  0  0  0
 18 19  1  0  0  0  0
 19 24  1  0  0  0  0
 20 19  2  0  0  0  0
 20 25  1  0  0  0  0
 21 20  1  0  0  0  0
 22 23  1  0  0  0  0
 22 21  2  0  0  0  0
 23 18  2  0  0  0  0
 26 22  1  0  0  0  0
 27 28  1  0  0  0  0
 27  1  1  0  0  0  0
 29  5  1  0  0  0  0
 29 30  1  0  0  0  0
 30 35  1  0  0  0  0
 31 30  2  0  0  0  0
 32 31  1  0  0  0  0
 33 31  1  0  0  0  0
 33 34  2  0  0  0  0
 34 35  1  0  0  0  0
M  END
>  <minimizedAffinity>
-5.21671152

>  <minimizedRMSD>
2.0499053

$$$$
