
 OpenBabel03272510133D

 38 41  0  0  0  0  0  0  0  0999 V2000
   37.5550   30.7900   49.7560 O   0  0  0  0  0  0  0  0  0  0  0  0
   34.0680   28.8850   48.3650 C   0  0  0  0  0  0  0  0  0  0  0  0
   34.8100   28.3510   49.3770 C   0  0  0  0  0  0  0  0  0  0  0  0
   35.9520   28.9140   49.8780 C   0  0  0  0  0  0  0  0  0  0  0  0
   36.4230   30.0880   49.3690 C   0  0  0  0  0  0  0  0  0  0  0  0
   35.6730   30.6470   48.3320 C   0  0  0  0  0  0  0  0  0  0  0  0
   34.5540   30.0660   47.8620 N   0  0  0  0  0  0  0  0  0  0  0  0
   34.4980   27.4220   49.8310 H   0  0  0  0  0  0  0  0  0  0  0  0
   36.5360   28.4830   50.6830 H   0  0  0  0  0  0  0  0  0  0  0  0
   35.9770   31.5790   47.8700 H   0  0  0  0  0  0  0  0  0  0  0  0
   32.1550   27.2930   48.4760 C   0  0  0  0  0  0  0  0  0  0  0  0
   32.8740   28.3110   47.8280 C   0  0  0  0  0  0  0  0  0  0  0  0
   32.3790   28.7500   46.6270 C   0  0  0  0  0  0  0  0  0  0  0  0
   31.2380   28.1980   46.1140 N   0  0  0  0  0  0  0  0  0  0  0  0
   30.5810   27.2080   46.7890 C   0  0  0  0  0  0  0  0  0  0  0  0
   31.0320   26.7490   47.9720 N   0  0  0  0  0  0  0  0  0  0  0  0
   32.5010   26.9150   49.4210 H   0  0  0  0  0  0  0  0  0  0  0  0
   32.9100   29.5370   46.0970 H   0  0  0  0  0  0  0  0  0  0  0  0
   29.6750   26.7620   46.3950 H   0  0  0  0  0  0  0  0  0  0  0  0
   38.2440   31.6140   48.8990 C   0  0  0  0  0  0  0  0  0  0  0  0
   38.4380   32.8910   49.3760 C   0  0  0  0  0  0  0  0  0  0  0  0
   39.1470   33.6000   48.4020 C   0  0  0  0  0  0  0  0  0  0  0  0
   39.3550   32.7600   47.3950 N   0  0  0  0  0  0  0  0  0  0  0  0
   38.8290   31.6120   47.6920 N   0  0  0  0  0  0  0  0  0  0  0  0
   38.1840   33.4480   50.2810 H   0  0  0  0  0  0  0  0  0  0  0  0
   39.4970   34.6270   48.3840 H   0  0  0  0  0  0  0  0  0  0  0  0
   40.0540   33.0420   46.1580 C   0  0  0  0  0  0  0  0  0  0  0  0
   40.3770   34.0950   46.1200 H   0  0  0  0  0  0  0  0  0  0  0  0
   40.9430   32.3630   46.1150 H   0  0  0  0  0  0  0  0  0  0  0  0
   39.1210   32.8270   45.0110 C   0  0  0  0  0  0  0  0  0  0  0  0
   38.0700   32.9270   45.4220 H   0  0  0  0  0  0  0  0  0  0  0  0
   39.1970   33.7310   44.3380 H   0  0  0  0  0  0  0  0  0  0  0  0
   39.2810   31.5880   44.2710 C   0  0  0  0  0  0  0  0  0  0  0  0
   39.2200   30.1090   44.4130 C   0  0  0  0  0  0  0  0  0  0  0  0
   38.9750   29.8600   45.4220 H   0  0  0  0  0  0  0  0  0  0  0  0
   39.4780   29.4300   43.2610 C   0  0  0  0  0  3  0  0  0  0  0  0
   39.7730   30.0390   42.0560 C   0  0  0  0  0  3  0  0  0  0  0  0
   39.7160   31.7990   42.4380 S   0  0  0  0  0  0  0  0  0  0  0  0
  2  3  1  0  0  0  0
  3  8  1  0  0  0  0
  3  4  2  0  0  0  0
  4  9  1  0  0  0  0
  5  1  1  0  0  0  0
  5  4  1  0  0  0  0
  6  5  2  0  0  0  0
  7  6  1  0  0  0  0
  7  2  2  0  0  0  0
 10  6  1  0  0  0  0
 11 17  1  0  0  0  0
 12  2  1  0  0  0  0
 12 11  2  0  0  0  0
 13 12  1  0  0  0  0
 14 13  2  0  0  0  0
 14 15  1  0  0  0  0
 15 16  2  0  0  0  0
 16 11  1  0  0  0  0
 18 13  1  0  0  0  0
 19 15  1  0  0  0  0
 20 21  1  0  0  0  0
 20  1  1  0  0  0  0
 21 25  1  0  0  0  0
 22 21  2  0  0  0  0
 23 24  1  0  0  0  0
 23 22  1  0  0  0  0
 24 20  2  0  0  0  0
 26 22  1  0  0  0  0
 27 23  1  0  0  0  0
 28 27  1  0  0  0  0
 29 27  1  0  0  0  0
 30 31  1  0  0  0  0
 30 27  1  0  0  0  0
 32 30  1  0  0  0  0
 33 34  2  0  0  0  0
 33 30  1  0  0  0  0
 34 35  1  0  0  0  0
 36 34  1  0  0  0  0
 37 38  1  0  0  0  0
 37 36  2  0  0  0  0
 38 33  1  0  0  0  0
M  END
>  <minimizedAffinity>
-5.86604404

>  <minimizedRMSD>
2.36457825

$$$$
