
 OpenBabel03272501453D

 31 34  0  0  0  0  0  0  0  0999 V2000
   36.6120   28.0460   34.1750 C   0  0  0  0  0  0  0  0  0  0  0  0
   35.5900   28.8700   33.6080 C   0  0  0  0  0  0  0  0  0  0  0  0
   35.3100   28.7010   32.2460 C   0  0  0  0  0  0  0  0  0  0  0  0
   36.0030   27.7860   31.5440 N   0  0  0  0  0  0  0  0  0  0  0  0
   36.9720   27.0140   32.1110 C   0  0  0  0  0  0  0  0  0  0  0  0
   37.2650   27.1540   33.4200 N   0  0  0  0  0  0  0  0  0  0  0  0
   36.9660   28.0290   35.1850 H   0  0  0  0  0  0  0  0  0  0  0  0
   34.5500   29.3310   31.8820 H   0  0  0  0  0  0  0  0  0  0  0  0
   33.6190   29.6410   34.7830 C   0  0  0  0  0  0  0  0  0  0  0  0
   34.9720   29.7800   34.5380 C   0  0  0  0  0  0  0  0  0  0  0  0
   35.6530   30.7950   35.2100 C   0  0  0  0  0  0  0  0  0  0  0  0
   34.9340   31.6120   36.0900 C   0  0  0  0  0  0  0  0  0  0  0  0
   35.2980   32.6520   36.8660 N   0  0  0  0  0  0  0  0  0  0  0  0
   34.2470   33.1120   37.5350 C   0  0  0  0  0  0  0  0  0  0  0  0
   33.1790   32.3650   37.1920 N   0  0  0  0  0  0  0  0  0  0  0  0
   33.5970   31.4530   36.3140 C   0  0  0  0  0  0  0  0  0  0  0  0
   32.9260   30.4510   35.6510 C   0  0  0  0  0  0  0  0  0  0  0  0
   32.9600   28.8880   34.3220 H   0  0  0  0  0  0  0  0  0  0  0  0
   36.6920   30.9190   35.0360 H   0  0  0  0  0  0  0  0  0  0  0  0
   36.2640   33.0520   36.9450 H   0  0  0  0  0  0  0  0  0  0  0  0
   34.1900   33.9390   38.2450 H   0  0  0  0  0  0  0  0  0  0  0  0
   31.8570   30.3550   35.8550 H   0  0  0  0  0  0  0  0  0  0  0  0
   37.6850   26.0270   31.2530 C   0  0  0  0  0  0  0  0  0  0  0  0
   38.7720   26.0210   31.4740 H   0  0  0  0  0  0  0  0  0  0  0  0
   37.4740   26.1830   30.1840 H   0  0  0  0  0  0  0  0  0  0  0  0
   37.2390   24.6180   31.6420 C   0  0  0  0  0  0  0  0  0  0  0  0
   36.1210   24.0810   31.1390 C   0  0  0  0  0  0  0  0  0  0  0  0
   35.4200   24.5510   30.4270 H   0  0  0  0  0  0  0  0  0  0  0  0
   35.6170   22.8710   31.3890 C   0  0  0  0  0  3  0  0  0  0  0  0
   36.4430   22.1830   32.2930 C   0  0  0  0  0  3  0  0  0  0  0  0
   37.8700   23.4190   32.6640 S   0  0  0  0  0  0  0  0  0  0  0  0
  1  7  1  0  0  0  0
  2  1  1  0  0  0  0
  2 10  1  0  0  0  0
  3  2  2  0  0  0  0
  4  5  2  0  0  0  0
  4  3  1  0  0  0  0
  5  6  1  0  0  0  0
  6  1  2  0  0  0  0
  8  3  1  0  0  0  0
  9 17  1  0  0  0  0
 10  9  2  0  0  0  0
 10 11  1  0  0  0  0
 11 12  2  0  0  0  0
 12 16  1  0  0  0  0
 12 13  1  0  0  0  0
 13 20  1  0  0  0  0
 13 14  1  0  0  0  0
 14 21  1  0  0  0  0
 15 14  2  0  0  0  0
 16 15  1  0  0  0  0
 17 22  1  0  0  0  0
 17 16  2  0  0  0  0
 18  9  1  0  0  0  0
 19 11  1  0  0  0  0
 23 24  1  0  0  0  0
 23 26  1  0  0  0  0
 23  5  1  0  0  0  0
 25 23  1  0  0  0  0
 26 31  1  0  0  0  0
 27 29  1  0  0  0  0
 27 26  2  0  0  0  0
 28 27  1  0  0  0  0
 29 30  2  0  0  0  0
 30 31  1  0  0  0  0
M  END
>  <minimizedAffinity>
-5.31284285

$$$$

 OpenBabel03272501453D

 31 34  0  0  0  0  0  0  0  0999 V2000
   37.7390   26.9560   35.3970 C   0  0  0  0  0  0  0  0  0  0  0  0
   37.9570   25.7210   34.7120 C   0  0  0  0  0  0  0  0  0  0  0  0
   37.4610   25.6130   33.4060 C   0  0  0  0  0  0  0  0  0  0  0  0
   36.8120   26.6600   32.8650 N   0  0  0  0  0  0  0  0  0  0  0  0
   36.6180   27.8270   33.5420 C   0  0  0  0  0  0  0  0  0  0  0  0
   37.0840   27.9600   34.8000 N   0  0  0  0  0  0  0  0  0  0  0  0
   38.0370   27.2260   36.3890 H   0  0  0  0  0  0  0  0  0  0  0  0
   37.6500   24.6850   32.9490 H   0  0  0  0  0  0  0  0  0  0  0  0
   38.2030   24.4090   36.7320 C   0  0  0  0  0  0  0  0  0  0  0  0
   38.6780   24.7340   35.4740 C   0  0  0  0  0  0  0  0  0  0  0  0
   39.8260   24.0820   35.0240 C   0  0  0  0  0  0  0  0  0  0  0  0
   40.4320   23.1410   35.8650 C   0  0  0  0  0  0  0  0  0  0  0  0
   41.5240   22.3650   35.7210 N   0  0  0  0  0  0  0  0  0  0  0  0
   41.7030   21.6220   36.8070 C   0  0  0  0  0  0  0  0  0  0  0  0
   40.7150   21.9160   37.6760 N   0  0  0  0  0  0  0  0  0  0  0  0
   39.9420   22.8390   37.1030 C   0  0  0  0  0  0  0  0  0  0  0  0
   38.8090   23.4820   37.5460 C   0  0  0  0  0  0  0  0  0  0  0  0
   37.3130   24.8460   37.2100 H   0  0  0  0  0  0  0  0  0  0  0  0
   40.2070   24.3170   34.0630 H   0  0  0  0  0  0  0  0  0  0  0  0
   42.1520   22.3370   34.8830 H   0  0  0  0  0  0  0  0  0  0  0  0
   42.4850   20.8910   37.0220 H   0  0  0  0  0  0  0  0  0  0  0  0
   38.4470   23.2150   38.5410 H   0  0  0  0  0  0  0  0  0  0  0  0
   35.8880   28.9310   32.8590 C   0  0  0  0  0  0  0  0  0  0  0  0
   35.0770   28.5320   32.2170 H   0  0  0  0  0  0  0  0  0  0  0  0
   36.5700   29.5970   32.3090 H   0  0  0  0  0  0  0  0  0  0  0  0
   35.1370   29.7510   33.9060 C   0  0  0  0  0  0  0  0  0  0  0  0
   35.6370   30.9000   34.3760 C   0  0  0  0  0  0  0  0  0  0  0  0
   36.5920   31.3750   34.0920 H   0  0  0  0  0  0  0  0  0  0  0  0
   35.0920   31.7130   35.2840 C   0  0  0  0  0  3  0  0  0  0  0  0
   33.8600   31.1940   35.7150 C   0  0  0  0  0  3  0  0  0  0  0  0
   33.6600   29.5610   34.7200 S   0  0  0  0  0  0  0  0  0  0  0  0
  1  7  1  0  0  0  0
  2  1  2  0  0  0  0
  2 10  1  0  0  0  0
  3  2  1  0  0  0  0
  4  3  2  0  0  0  0
  4  5  1  0  0  0  0
  5  6  2  0  0  0  0
  6  1  1  0  0  0  0
  8  3  1  0  0  0  0
  9 18  1  0  0  0  0
  9 17  1  0  0  0  0
 10  9  2  0  0  0  0
 11 10  1  0  0  0  0
 11 12  2  0  0  0  0
 12 16  1  0  0  0  0
 13 12  1  0  0  0  0
 13 14  1  0  0  0  0
 14 21  1  0  0  0  0
 14 15  2  0  0  0  0
 16 17  2  0  0  0  0
 16 15  1  0  0  0  0
 17 22  1  0  0  0  0
 19 11  1  0  0  0  0
 20 13  1  0  0  0  0
 23  5  1  0  0  0  0
 23 26  1  0  0  0  0
 24 23  1  0  0  0  0
 25 23  1  0  0  0  0
 26 27  2  0  0  0  0
 26 31  1  0  0  0  0
 27 29  1  0  0  0  0
 28 27  1  0  0  0  0
 29 30  2  0  0  0  0
 31 30  1  0  0  0  0
M  END
>  <minimizedAffinity>
-5.2794919

$$$$

 OpenBabel03272501453D

 31 34  0  0  0  0  0  0  0  0999 V2000
   37.7590   25.1050   33.9450 C   0  0  0  0  0  0  0  0  0  0  0  0
   37.7080   26.4640   34.3840 C   0  0  0  0  0  0  0  0  0  0  0  0
   38.0360   26.7210   35.7210 C   0  0  0  0  0  0  0  0  0  0  0  0
   38.3790   25.6930   36.5190 N   0  0  0  0  0  0  0  0  0  0  0  0
   38.4190   24.4060   36.0720 C   0  0  0  0  0  0  0  0  0  0  0  0
   38.1090   24.1280   34.7910 N   0  0  0  0  0  0  0  0  0  0  0  0
   37.5430   24.7140   32.9710 H   0  0  0  0  0  0  0  0  0  0  0  0
   37.9830   27.7360   35.9910 H   0  0  0  0  0  0  0  0  0  0  0  0
   38.0190   27.4020   32.1740 C   0  0  0  0  0  0  0  0  0  0  0  0
   37.3200   27.4070   33.3670 C   0  0  0  0  0  0  0  0  0  0  0  0
   36.2800   28.3270   33.5070 C   0  0  0  0  0  0  0  0  0  0  0  0
   36.0030   29.1890   32.4400 C   0  0  0  0  0  0  0  0  0  0  0  0
   35.0880   30.1630   32.2740 N   0  0  0  0  0  0  0  0  0  0  0  0
   35.2170   30.7110   31.0710 C   0  0  0  0  0  0  0  0  0  0  0  0
   36.2320   30.0880   30.4390 N   0  0  0  0  0  0  0  0  0  0  0  0
   36.7100   29.1630   31.2720 C   0  0  0  0  0  0  0  0  0  0  0  0
   37.7350   28.2560   31.1340 C   0  0  0  0  0  0  0  0  0  0  0  0
   38.8600   26.7350   31.9290 H   0  0  0  0  0  0  0  0  0  0  0  0
   35.7320   28.3470   34.4140 H   0  0  0  0  0  0  0  0  0  0  0  0
   34.3700   30.4590   32.9780 H   0  0  0  0  0  0  0  0  0  0  0  0
   34.6410   31.5200   30.6160 H   0  0  0  0  0  0  0  0  0  0  0  0
   38.2780   28.2640   30.1860 H   0  0  0  0  0  0  0  0  0  0  0  0
   38.8120   23.3340   37.0300 C   0  0  0  0  0  0  0  0  0  0  0  0
   38.2320   22.4070   36.8490 H   0  0  0  0  0  0  0  0  0  0  0  0
   38.7470   23.6730   38.0750 H   0  0  0  0  0  0  0  0  0  0  0  0
   40.2510   22.9110   36.7390 C   0  0  0  0  0  0  0  0  0  0  0  0
   40.8040   21.8610   37.3570 C   0  0  0  0  0  0  0  0  0  0  0  0
   40.3280   21.2050   38.1080 H   0  0  0  0  0  0  0  0  0  0  0  0
   42.0400   21.3830   37.1990 C   0  0  0  0  0  3  0  0  0  0  0  0
   42.7370   22.1540   36.2550 C   0  0  0  0  0  3  0  0  0  0  0  0
   41.4710   23.4970   35.7140 S   0  0  0  0  0  0  0  0  0  0  0  0
  1  2  2  0  0  0  0
  1  6  1  0  0  0  0
  2  3  1  0  0  0  0
  3  8  1  0  0  0  0
  3  4  2  0  0  0  0
  5  4  1  0  0  0  0
  5 23  1  0  0  0  0
  6  5  2  0  0  0  0
  7  1  1  0  0  0  0
  9 10  1  0  0  0  0
 10 11  2  0  0  0  0
 10  2  1  0  0  0  0
 11 19  1  0  0  0  0
 12 11  1  0  0  0  0
 13 12  1  0  0  0  0
 13 20  1  0  0  0  0
 14 13  1  0  0  0  0
 15 14  2  0  0  0  0
 15 16  1  0  0  0  0
 16 12  2  0  0  0  0
 17 16  1  0  0  0  0
 17  9  2  0  0  0  0
 18  9  1  0  0  0  0
 21 14  1  0  0  0  0
 22 17  1  0  0  0  0
 23 25  1  0  0  0  0
 24 23  1  0  0  0  0
 26 23  1  0  0  0  0
 26 27  2  0  0  0  0
 27 28  1  0  0  0  0
 29 27  1  0  0  0  0
 30 29  2  0  0  0  0
 31 30  1  0  0  0  0
 31 26  1  0  0  0  0
M  END
>  <minimizedAffinity>
-5.24847364

$$$$

 OpenBabel03272501453D

 31 34  0  0  0  0  0  0  0  0999 V2000
   35.7260   29.1320   32.5110 C   0  0  0  0  0  0  0  0  0  0  0  0
   35.9110   28.9360   33.9150 C   0  0  0  0  0  0  0  0  0  0  0  0
   36.7130   27.8590   34.3140 C   0  0  0  0  0  0  0  0  0  0  0  0
   37.2640   27.0710   33.3730 N   0  0  0  0  0  0  0  0  0  0  0  0
   37.0710   27.2820   32.0400 C   0  0  0  0  0  0  0  0  0  0  0  0
   36.3040   28.3100   31.6260 N   0  0  0  0  0  0  0  0  0  0  0  0
   35.1530   29.8900   32.0170 H   0  0  0  0  0  0  0  0  0  0  0  0
   36.8160   27.7610   35.3560 H   0  0  0  0  0  0  0  0  0  0  0  0
   36.0040   30.7940   35.4640 C   0  0  0  0  0  0  0  0  0  0  0  0
   35.2340   29.8970   34.7470 C   0  0  0  0  0  0  0  0  0  0  0  0
   33.8470   29.9820   34.8760 C   0  0  0  0  0  0  0  0  0  0  0  0
   33.3140   30.9650   35.7190 C   0  0  0  0  0  0  0  0  0  0  0  0
   32.0490   31.2910   36.0450 N   0  0  0  0  0  0  0  0  0  0  0  0
   32.0460   32.3110   36.8960 C   0  0  0  0  0  0  0  0  0  0  0  0
   33.3270   32.6570   37.1320 N   0  0  0  0  0  0  0  0  0  0  0  0
   34.0980   31.8390   36.4160 C   0  0  0  0  0  0  0  0  0  0  0  0
   35.4660   31.7540   36.2880 C   0  0  0  0  0  0  0  0  0  0  0  0
   37.1040   30.8380   35.4590 H   0  0  0  0  0  0  0  0  0  0  0  0
   33.2390   29.3030   34.3340 H   0  0  0  0  0  0  0  0  0  0  0  0
   31.1820   30.8230   35.6890 H   0  0  0  0  0  0  0  0  0  0  0  0
   31.1980   32.8210   37.3590 H   0  0  0  0  0  0  0  0  0  0  0  0
   36.0600   32.4690   36.8620 H   0  0  0  0  0  0  0  0  0  0  0  0
   37.7240   26.3560   31.0730 C   0  0  0  0  0  0  0  0  0  0  0  0
   38.7570   26.1120   31.3930 H   0  0  0  0  0  0  0  0  0  0  0  0
   37.6830   26.7410   30.0430 H   0  0  0  0  0  0  0  0  0  0  0  0
   37.0120   25.0050   31.1220 C   0  0  0  0  0  0  0  0  0  0  0  0
   37.6970   23.8580   31.0600 C   0  0  0  0  0  0  0  0  0  0  0  0
   38.7920   23.7410   30.9700 H   0  0  0  0  0  0  0  0  0  0  0  0
   37.2090   22.6160   31.0920 C   0  0  0  0  0  3  0  0  0  0  0  0
   35.8100   22.6530   31.2070 C   0  0  0  0  0  3  0  0  0  0  0  0
   35.3880   24.5290   31.2520 S   0  0  0  0  0  0  0  0  0  0  0  0
  1  2  1  0  0  0  0
  2  3  2  0  0  0  0
  2 10  1  0  0  0  0
  3  8  1  0  0  0  0
  4  3  1  0  0  0  0
  5  4  2  0  0  0  0
  6  5  1  0  0  0  0
  6  1  2  0  0  0  0
  7  1  1  0  0  0  0
  9 17  1  0  0  0  0
 10 11  1  0  0  0  0
 10  9  2  0  0  0  0
 11 12  2  0  0  0  0
 12 13  1  0  0  0  0
 12 16  1  0  0  0  0
 13 14  1  0  0  0  0
 14 15  2  0  0  0  0
 14 21  1  0  0  0  0
 16 15  1  0  0  0  0
 17 16  2  0  0  0  0
 17 22  1  0  0  0  0
 18  9  1  0  0  0  0
 19 11  1  0  0  0  0
 20 13  1  0  0  0  0
 23 26  1  0  0  0  0
 23 24  1  0  0  0  0
 23  5  1  0  0  0  0
 25 23  1  0  0  0  0
 26 31  1  0  0  0  0
 27 29  1  0  0  0  0
 27 26  2  0  0  0  0
 28 27  1  0  0  0  0
 29 30  2  0  0  0  0
 30 31  1  0  0  0  0
M  END
>  <minimizedAffinity>
-5.22109318

$$$$

 OpenBabel03272501453D

 31 34  0  0  0  0  0  0  0  0999 V2000
   37.8040   25.0980   33.8190 C   0  0  0  0  0  0  0  0  0  0  0  0
   37.7580   26.4620   34.2450 C   0  0  0  0  0  0  0  0  0  0  0  0
   38.0530   26.7270   35.5880 C   0  0  0  0  0  0  0  0  0  0  0  0
   38.3610   25.7030   36.4040 N   0  0  0  0  0  0  0  0  0  0  0  0
   38.3980   24.4110   35.9700 C   0  0  0  0  0  0  0  0  0  0  0  0
   38.1190   24.1250   34.6830 N   0  0  0  0  0  0  0  0  0  0  0  0
   37.6110   24.7010   32.8440 H   0  0  0  0  0  0  0  0  0  0  0  0
   38.0040   27.7450   35.8470 H   0  0  0  0  0  0  0  0  0  0  0  0
   36.3690   28.2790   33.4490 C   0  0  0  0  0  0  0  0  0  0  0  0
   37.4100   27.4000   33.2090 C   0  0  0  0  0  0  0  0  0  0  0  0
   38.0560   27.4800   31.9750 C   0  0  0  0  0  0  0  0  0  0  0  0
   37.6200   28.4390   31.0530 C   0  0  0  0  0  0  0  0  0  0  0  0
   38.0300   28.7550   29.8100 N   0  0  0  0  0  0  0  0  0  0  0  0
   37.2970   29.7520   29.3270 C   0  0  0  0  0  0  0  0  0  0  0  0
   36.3920   30.0930   30.2670 N   0  0  0  0  0  0  0  0  0  0  0  0
   36.5890   29.2950   31.3160 C   0  0  0  0  0  0  0  0  0  0  0  0
   35.9520   29.2150   32.5330 C   0  0  0  0  0  0  0  0  0  0  0  0
   35.7730   28.3240   34.3730 H   0  0  0  0  0  0  0  0  0  0  0  0
   38.8570   26.8150   31.7710 H   0  0  0  0  0  0  0  0  0  0  0  0
   38.8110   28.2950   29.2850 H   0  0  0  0  0  0  0  0  0  0  0  0
   37.3610   30.2480   28.3570 H   0  0  0  0  0  0  0  0  0  0  0  0
   35.1320   29.9160   32.7080 H   0  0  0  0  0  0  0  0  0  0  0  0
   38.7510   23.3440   36.9480 C   0  0  0  0  0  0  0  0  0  0  0  0
   38.1800   22.4150   36.7460 H   0  0  0  0  0  0  0  0  0  0  0  0
   38.6400   23.6860   37.9890 H   0  0  0  0  0  0  0  0  0  0  0  0
   40.2010   22.9220   36.7200 C   0  0  0  0  0  0  0  0  0  0  0  0
   40.7240   21.8650   37.3530 C   0  0  0  0  0  0  0  0  0  0  0  0
   40.2130   21.2030   38.0750 H   0  0  0  0  0  0  0  0  0  0  0  0
   41.9660   21.3880   37.2490 C   0  0  0  0  0  3  0  0  0  0  0  0
   42.7060   22.1670   36.3460 C   0  0  0  0  0  3  0  0  0  0  0  0
   41.4680   23.5170   35.7600 S   0  0  0  0  0  0  0  0  0  0  0  0
  1  2  2  0  0  0  0
  1  6  1  0  0  0  0
  2  3  1  0  0  0  0
  3  8  1  0  0  0  0
  3  4  2  0  0  0  0
  5  4  1  0  0  0  0
  5 23  1  0  0  0  0
  6  5  2  0  0  0  0
  7  1  1  0  0  0  0
  9 18  1  0  0  0  0
 10  9  1  0  0  0  0
 10  2  1  0  0  0  0
 11 10  2  0  0  0  0
 12 16  2  0  0  0  0
 12 11  1  0  0  0  0
 13 12  1  0  0  0  0
 14 13  1  0  0  0  0
 14 15  2  0  0  0  0
 15 16  1  0  0  0  0
 16 17  1  0  0  0  0
 17 22  1  0  0  0  0
 17  9  2  0  0  0  0
 19 11  1  0  0  0  0
 20 13  1  0  0  0  0
 21 14  1  0  0  0  0
 23 25  1  0  0  0  0
 24 23  1  0  0  0  0
 26 23  1  0  0  0  0
 26 27  2  0  0  0  0
 27 28  1  0  0  0  0
 29 27  1  0  0  0  0
 30 29  2  0  0  0  0
 31 30  1  0  0  0  0
 31 26  1  0  0  0  0
M  END
>  <minimizedAffinity>
-5.21577168

$$$$

 OpenBabel03272501453D

 31 34  0  0  0  0  0  0  0  0999 V2000
   37.2600   25.6450   33.2990 C   0  0  0  0  0  0  0  0  0  0  0  0
   37.6460   26.0890   34.6020 C   0  0  0  0  0  0  0  0  0  0  0  0
   37.2850   27.3910   34.9700 C   0  0  0  0  0  0  0  0  0  0  0  0
   36.6010   28.1520   34.0960 N   0  0  0  0  0  0  0  0  0  0  0  0
   36.2460   27.7010   32.8600 C   0  0  0  0  0  0  0  0  0  0  0  0
   36.5800   26.4530   32.4760 N   0  0  0  0  0  0  0  0  0  0  0  0
   37.4440   24.6940   32.8400 H   0  0  0  0  0  0  0  0  0  0  0  0
   37.5930   27.6660   35.9370 H   0  0  0  0  0  0  0  0  0  0  0  0
   37.8010   24.6680   36.5560 C   0  0  0  0  0  0  0  0  0  0  0  0
   38.3680   25.1130   35.3760 C   0  0  0  0  0  0  0  0  0  0  0  0
   39.6070   24.5840   35.0110 C   0  0  0  0  0  0  0  0  0  0  0  0
   40.2040   23.6390   35.8540 C   0  0  0  0  0  0  0  0  0  0  0  0
   41.3670   22.9630   35.7790 N   0  0  0  0  0  0  0  0  0  0  0  0
   41.4990   22.1650   36.8330 C   0  0  0  0  0  0  0  0  0  0  0  0
   40.4080   22.3220   37.6100 N   0  0  0  0  0  0  0  0  0  0  0  0
   39.6210   23.2180   37.0140 C   0  0  0  0  0  0  0  0  0  0  0  0
   38.4000   23.7390   37.3730 C   0  0  0  0  0  0  0  0  0  0  0  0
   36.8340   25.0010   36.9640 H   0  0  0  0  0  0  0  0  0  0  0  0
   40.0590   24.9120   34.1100 H   0  0  0  0  0  0  0  0  0  0  0  0
   42.0750   23.0400   35.0110 H   0  0  0  0  0  0  0  0  0  0  0  0
   42.3150   21.4850   37.0850 H   0  0  0  0  0  0  0  0  0  0  0  0
   37.9650   23.3790   38.3080 H   0  0  0  0  0  0  0  0  0  0  0  0
   35.4890   28.6180   31.9620 C   0  0  0  0  0  0  0  0  0  0  0  0
   35.1200   29.5030   32.5170 H   0  0  0  0  0  0  0  0  0  0  0  0
   34.6840   28.0940   31.4240 H   0  0  0  0  0  0  0  0  0  0  0  0
   36.4530   29.2200   30.9400 C   0  0  0  0  0  0  0  0  0  0  0  0
   36.6800   30.5370   30.8950 C   0  0  0  0  0  0  0  0  0  0  0  0
   36.2330   31.3130   31.5420 H   0  0  0  0  0  0  0  0  0  0  0  0
   37.4910   31.1940   30.0620 C   0  0  0  0  0  3  0  0  0  0  0  0
   38.1160   30.2900   29.1870 C   0  0  0  0  0  3  0  0  0  0  0  0
   37.4230   28.5730   29.7070 S   0  0  0  0  0  0  0  0  0  0  0  0
  1  2  1  0  0  0  0
  2  3  2  0  0  0  0
  2 10  1  0  0  0  0
  3  8  1  0  0  0  0
  4  3  1  0  0  0  0
  5  4  2  0  0  0  0
  6  5  1  0  0  0  0
  6  1  2  0  0  0  0
  7  1  1  0  0  0  0
  9 18  1  0  0  0  0
  9 17  1  0  0  0  0
 10  9  2  0  0  0  0
 11 10  1  0  0  0  0
 11 12  2  0  0  0  0
 12 16  1  0  0  0  0
 13 12  1  0  0  0  0
 13 14  1  0  0  0  0
 14 21  1  0  0  0  0
 14 15  2  0  0  0  0
 16 17  2  0  0  0  0
 16 15  1  0  0  0  0
 17 22  1  0  0  0  0
 19 11  1  0  0  0  0
 20 13  1  0  0  0  0
 23 24  1  0  0  0  0
 23  5  1  0  0  0  0
 25 23  1  0  0  0  0
 26 23  1  0  0  0  0
 27 26  2  0  0  0  0
 27 28  1  0  0  0  0
 29 27  1  0  0  0  0
 30 31  1  0  0  0  0
 30 29  2  0  0  0  0
 31 26  1  0  0  0  0
M  END
>  <minimizedAffinity>
-5.1175971

$$$$

 OpenBabel03272501453D

 31 34  0  0  0  0  0  0  0  0999 V2000
   37.4930   24.5370   31.2800 C   0  0  0  0  0  0  0  0  0  0  0  0
   36.2220   23.8840   31.3130 C   0  0  0  0  0  0  0  0  0  0  0  0
   35.0830   24.6850   31.1590 C   0  0  0  0  0  0  0  0  0  0  0  0
   35.2350   26.0110   30.9890 N   0  0  0  0  0  0  0  0  0  0  0  0
   36.4610   26.6070   30.9610 C   0  0  0  0  0  0  0  0  0  0  0  0
   37.5750   25.8620   31.1070 N   0  0  0  0  0  0  0  0  0  0  0  0
   38.4660   24.1000   31.3800 H   0  0  0  0  0  0  0  0  0  0  0  0
   34.1760   24.1550   31.1910 H   0  0  0  0  0  0  0  0  0  0  0  0
   35.1990   21.8260   32.0750 C   0  0  0  0  0  0  0  0  0  0  0  0
   36.2870   22.4580   31.5020 C   0  0  0  0  0  0  0  0  0  0  0  0
   37.3810   21.6700   31.1430 C   0  0  0  0  0  0  0  0  0  0  0  0
   37.3170   20.2910   31.3800 C   0  0  0  0  0  0  0  0  0  0  0  0
   38.1880   19.2900   31.1510 N   0  0  0  0  0  0  0  0  0  0  0  0
   37.6710   18.1350   31.5530 C   0  0  0  0  0  0  0  0  0  0  0  0
   36.4440   18.3820   32.0530 N   0  0  0  0  0  0  0  0  0  0  0  0
   36.2290   19.6930   31.9470 C   0  0  0  0  0  0  0  0  0  0  0  0
   35.1510   20.4710   32.3010 C   0  0  0  0  0  0  0  0  0  0  0  0
   34.2740   22.3240   32.4070 H   0  0  0  0  0  0  0  0  0  0  0  0
   38.2260   22.1350   30.7020 H   0  0  0  0  0  0  0  0  0  0  0  0
   39.1380   19.3880   30.7200 H   0  0  0  0  0  0  0  0  0  0  0  0
   38.1070   17.1340   31.5150 H   0  0  0  0  0  0  0  0  0  0  0  0
   34.2990   19.9580   32.7530 H   0  0  0  0  0  0  0  0  0  0  0  0
   36.5280   28.0820   30.7660 C   0  0  0  0  0  0  0  0  0  0  0  0
   35.8700   28.4040   29.9340 H   0  0  0  0  0  0  0  0  0  0  0  0
   37.5640   28.4340   30.6430 H   0  0  0  0  0  0  0  0  0  0  0  0
   35.9160   28.7720   31.9850 C   0  0  0  0  0  0  0  0  0  0  0  0
   36.3410   28.4970   33.2240 C   0  0  0  0  0  0  0  0  0  0  0  0
   37.1350   27.7840   33.5120 H   0  0  0  0  0  0  0  0  0  0  0  0
   35.9000   29.0200   34.3700 C   0  0  0  0  0  3  0  0  0  0  0  0
   34.8790   29.9490   34.1120 C   0  0  0  0  0  3  0  0  0  0  0  0
   34.6950   29.9310   32.1980 S   0  0  0  0  0  0  0  0  0  0  0  0
  1  2  1  0  0  0  0
  1  7  1  0  0  0  0
  2 10  1  0  0  0  0
  3  8  1  0  0  0  0
  3  2  2  0  0  0  0
  4  3  1  0  0  0  0
  5  4  2  0  0  0  0
  5  6  1  0  0  0  0
  6  1  2  0  0  0  0
  9 17  1  0  0  0  0
  9 18  1  0  0  0  0
 10  9  2  0  0  0  0
 11 12  2  0  0  0  0
 11 10  1  0  0  0  0
 12 16  1  0  0  0  0
 13 12  1  0  0  0  0
 13 14  1  0  0  0  0
 14 15  2  0  0  0  0
 16 15  1  0  0  0  0
 16 17  2  0  0  0  0
 17 22  1  0  0  0  0
 19 11  1  0  0  0  0
 20 13  1  0  0  0  0
 21 14  1  0  0  0  0
 23  5  1  0  0  0  0
 23 26  1  0  0  0  0
 24 23  1  0  0  0  0
 25 23  1  0  0  0  0
 26 31  1  0  0  0  0
 26 27  2  0  0  0  0
 27 28  1  0  0  0  0
 27 29  1  0  0  0  0
 30 29  2  0  0  0  0
 31 30  1  0  0  0  0
M  END
>  <minimizedAffinity>
-5.08973789

$$$$

 OpenBabel03272501453D

 31 34  0  0  0  0  0  0  0  0999 V2000
   37.3270   26.6450   33.1490 C   0  0  0  0  0  0  0  0  0  0  0  0
   36.3040   27.4070   32.5050 C   0  0  0  0  0  0  0  0  0  0  0  0
   35.6730   26.8280   31.3970 C   0  0  0  0  0  0  0  0  0  0  0  0
   36.0510   25.6010   30.9960 N   0  0  0  0  0  0  0  0  0  0  0  0
   37.0300   24.8960   31.6310 C   0  0  0  0  0  0  0  0  0  0  0  0
   37.6560   25.4270   32.7000 N   0  0  0  0  0  0  0  0  0  0  0  0
   37.9190   26.9150   34.0000 H   0  0  0  0  0  0  0  0  0  0  0  0
   34.9290   27.4310   30.9610 H   0  0  0  0  0  0  0  0  0  0  0  0
   35.5280   29.6910   32.2960 C   0  0  0  0  0  0  0  0  0  0  0  0
   36.0550   28.6950   33.0980 C   0  0  0  0  0  0  0  0  0  0  0  0
   36.3110   29.0050   34.4340 C   0  0  0  0  0  0  0  0  0  0  0  0
   36.0220   30.2970   34.8880 C   0  0  0  0  0  0  0  0  0  0  0  0
   36.1540   30.8880   36.0910 N   0  0  0  0  0  0  0  0  0  0  0  0
   35.7390   32.1480   36.0290 C   0  0  0  0  0  0  0  0  0  0  0  0
   35.3300   32.3870   34.7670 N   0  0  0  0  0  0  0  0  0  0  0  0
   35.5020   31.2620   34.0730 C   0  0  0  0  0  0  0  0  0  0  0  0
   35.2500   30.9560   32.7560 C   0  0  0  0  0  0  0  0  0  0  0  0
   35.2820   29.5870   31.2280 H   0  0  0  0  0  0  0  0  0  0  0  0
   36.7150   28.2550   35.0660 H   0  0  0  0  0  0  0  0  0  0  0  0
   36.5260   30.4360   36.9600 H   0  0  0  0  0  0  0  0  0  0  0  0
   35.7090   32.9040   36.8170 H   0  0  0  0  0  0  0  0  0  0  0  0
   34.8340   31.7530   32.1350 H   0  0  0  0  0  0  0  0  0  0  0  0
   37.3790   23.5430   31.1140 C   0  0  0  0  0  0  0  0  0  0  0  0
   38.4640   23.3450   31.2230 H   0  0  0  0  0  0  0  0  0  0  0  0
   37.0260   23.3930   30.0830 H   0  0  0  0  0  0  0  0  0  0  0  0
   36.7360   22.4880   32.0130 C   0  0  0  0  0  0  0  0  0  0  0  0
   35.5650   21.9250   31.6930 C   0  0  0  0  0  0  0  0  0  0  0  0
   34.9490   22.1330   30.8000 H   0  0  0  0  0  0  0  0  0  0  0  0
   34.8940   20.9980   32.3790 C   0  0  0  0  0  3  0  0  0  0  0  0
   35.6000   20.6590   33.5450 C   0  0  0  0  0  3  0  0  0  0  0  0
   37.1750   21.7600   33.4820 S   0  0  0  0  0  0  0  0  0  0  0  0
  1  7  1  0  0  0  0
  2 10  1  0  0  0  0
  2  1  2  0  0  0  0
  3  2  1  0  0  0  0
  4  3  2  0  0  0  0
  4  5  1  0  0  0  0
  5  6  2  0  0  0  0
  6  1  1  0  0  0  0
  8  3  1  0  0  0  0
  9 17  2  0  0  0  0
  9 10  1  0  0  0  0
 10 11  2  0  0  0  0
 11 12  1  0  0  0  0
 11 19  1  0  0  0  0
 12 13  1  0  0  0  0
 13 20  1  0  0  0  0
 14 13  1  0  0  0  0
 14 21  1  0  0  0  0
 15 14  2  0  0  0  0
 16 15  1  0  0  0  0
 16 12  2  0  0  0  0
 17 16  1  0  0  0  0
 18  9  1  0  0  0  0
 22 17  1  0  0  0  0
 23 24  1  0  0  0  0
 23  5  1  0  0  0  0
 23 26  1  0  0  0  0
 25 23  1  0  0  0  0
 26 31  1  0  0  0  0
 27 26  2  0  0  0  0
 27 29  1  0  0  0  0
 28 27  1  0  0  0  0
 29 30  2  0  0  0  0
 31 30  1  0  0  0  0
M  END
>  <minimizedAffinity>
-5.08213472

$$$$

 OpenBabel03272501453D

 31 34  0  0  0  0  0  0  0  0999 V2000
   37.0350   26.1730   32.8580 C   0  0  0  0  0  0  0  0  0  0  0  0
   36.9360   27.1520   33.8950 C   0  0  0  0  0  0  0  0  0  0  0  0
   37.4230   26.8010   35.1600 C   0  0  0  0  0  0  0  0  0  0  0  0
   37.9540   25.5780   35.3400 N   0  0  0  0  0  0  0  0  0  0  0  0
   38.0360   24.6640   34.3320 C   0  0  0  0  0  0  0  0  0  0  0  0
   37.5760   24.9720   33.1040 N   0  0  0  0  0  0  0  0  0  0  0  0
   36.7200   26.2530   31.8380 H   0  0  0  0  0  0  0  0  0  0  0  0
   37.3250   27.5570   35.8840 H   0  0  0  0  0  0  0  0  0  0  0  0
   35.9450   29.2850   34.4700 C   0  0  0  0  0  0  0  0  0  0  0  0
   36.3370   28.3960   33.4860 C   0  0  0  0  0  0  0  0  0  0  0  0
   36.1270   28.7650   32.1570 C   0  0  0  0  0  0  0  0  0  0  0  0
   35.5350   30.0060   31.8940 C   0  0  0  0  0  0  0  0  0  0  0  0
   35.2090   30.6310   30.7460 N   0  0  0  0  0  0  0  0  0  0  0  0
   34.6600   31.8110   31.0090 C   0  0  0  0  0  0  0  0  0  0  0  0
   34.6250   31.9620   32.3480 N   0  0  0  0  0  0  0  0  0  0  0  0
   35.1570   30.8650   32.8860 C   0  0  0  0  0  0  0  0  0  0  0  0
   35.3640   30.5000   34.1960 C   0  0  0  0  0  0  0  0  0  0  0  0
   36.0470   29.1220   35.5550 H   0  0  0  0  0  0  0  0  0  0  0  0
   36.4210   28.0980   31.3870 H   0  0  0  0  0  0  0  0  0  0  0  0
   35.3590   30.2570   29.7780 H   0  0  0  0  0  0  0  0  0  0  0  0
   34.2840   32.5670   30.3160 H   0  0  0  0  0  0  0  0  0  0  0  0
   35.0480   31.2120   34.9620 H   0  0  0  0  0  0  0  0  0  0  0  0
   38.6420   23.3350   34.6280 C   0  0  0  0  0  0  0  0  0  0  0  0
   38.9740   23.2760   35.6840 H   0  0  0  0  0  0  0  0  0  0  0  0
   39.4460   23.0830   33.9200 H   0  0  0  0  0  0  0  0  0  0  0  0
   37.5550   22.2640   34.5400 C   0  0  0  0  0  0  0  0  0  0  0  0
   36.9600   21.7890   35.6410 C   0  0  0  0  0  0  0  0  0  0  0  0
   37.1610   22.0840   36.6860 H   0  0  0  0  0  0  0  0  0  0  0  0
   36.0040   20.8600   35.7110 C   0  0  0  0  0  3  0  0  0  0  0  0
   35.6710   20.4140   34.4220 C   0  0  0  0  0  3  0  0  0  0  0  0
   36.8220   21.4260   33.2600 S   0  0  0  0  0  0  0  0  0  0  0  0
  1  6  2  0  0  0  0
  1  2  1  0  0  0  0
  2  3  2  0  0  0  0
  3  4  1  0  0  0  0
  3  8  1  0  0  0  0
  5 23  1  0  0  0  0
  5  4  2  0  0  0  0
  6  5  1  0  0  0  0
  7  1  1  0  0  0  0
  9 18  1  0  0  0  0
 10  2  1  0  0  0  0
 10  9  2  0  0  0  0
 11 10  1  0  0  0  0
 12 11  2  0  0  0  0
 12 16  1  0  0  0  0
 13 14  1  0  0  0  0
 13 12  1  0  0  0  0
 14 15  2  0  0  0  0
 15 16  1  0  0  0  0
 16 17  2  0  0  0  0
 17  9  1  0  0  0  0
 17 22  1  0  0  0  0
 19 11  1  0  0  0  0
 20 13  1  0  0  0  0
 21 14  1  0  0  0  0
 23 24  1  0  0  0  0
 25 23  1  0  0  0  0
 26 23  1  0  0  0  0
 26 27  2  0  0  0  0
 27 29  1  0  0  0  0
 27 28  1  0  0  0  0
 30 29  2  0  0  0  0
 31 30  1  0  0  0  0
 31 26  1  0  0  0  0
M  END
>  <minimizedAffinity>
-4.96212339

$$$$
