
 OpenBabel03262523413D

 35 37  0  0  1  0  0  0  0  0999 V2000
   36.2220   29.0450   49.9520 C   0  0  0  0  0  0  0  0  0  0  0  0
   36.3680   29.1930   48.5760 C   0  0  0  0  0  0  0  0  0  0  0  0
   35.5540   30.0180   47.8280 C   0  0  0  0  0  0  0  0  0  0  0  0
   34.6070   30.6650   48.5390 N   0  0  0  0  0  0  0  0  0  0  0  0
   34.4350   30.5480   49.8680 C   0  0  0  0  0  0  0  0  0  0  0  0
   35.2530   29.7310   50.5660 N   0  0  0  0  0  0  0  0  0  0  0  0
   35.7130   30.1600   46.4450 N   0  0  0  0  0  0  0  0  0  0  0  0
   34.7320   29.5100   45.6190 C   0  0  0  0  0  0  0  0  0  0  0  0
   34.8280   29.8120   44.1630 C   0  0  0  0  0  0  0  0  0  0  0  0
   35.8800   30.5830   43.7110 N   0  0  0  0  0  0  0  0  0  0  0  0
   37.0070   30.8320   44.4700 C   0  0  0  0  0  0  0  0  0  0  0  0
   36.8230   30.9350   45.9570 C   0  0  2  0  0  0  0  0  0  0  0  0
   36.8500   28.4040   50.5570 H   0  0  0  0  0  0  0  0  0  0  0  0
   37.1730   28.5930   48.1850 H   0  0  0  0  0  0  0  0  0  0  0  0
   33.6520   31.1000   50.3730 H   0  0  0  0  0  0  0  0  0  0  0  0
   33.7370   29.7570   46.0520 H   0  0  0  0  0  0  0  0  0  0  0  0
   34.8660   28.4100   45.8270 H   0  0  0  0  0  0  0  0  0  0  0  0
   33.8710   30.3310   43.8700 H   0  0  0  0  0  0  0  0  0  0  0  0
   34.7930   28.8480   43.6120 H   0  0  0  0  0  0  0  0  0  0  0  0
   35.6280   31.2800   42.9990 H   0  0  0  0  0  0  0  0  0  0  0  0
   37.7280   29.9780   44.2500 H   0  0  0  0  0  0  0  0  0  0  0  0
   37.4910   31.7430   44.1050 H   0  0  0  0  0  0  0  0  0  0  0  0
   36.6310   31.9880   46.2690 H   0  0  0  0  0  0  0  0  0  0  0  0
   38.1450   30.5440   46.5570 C   0  0  0  0  0  0  0  0  0  0  0  0
   38.1580   30.3910   47.6300 H   0  0  0  0  0  0  0  0  0  0  0  0
   38.4580   29.5670   46.0770 H   0  0  0  0  0  0  0  0  0  0  0  0
   39.1560   31.5760   46.0640 C   0  0  0  0  0  0  0  0  0  0  0  0
   40.1410   31.1670   45.8910 H   0  0  0  0  0  0  0  0  0  0  0  0
   38.7560   32.1850   45.2410 H   0  0  0  0  0  0  0  0  0  0  0  0
   39.3250   32.6170   47.1940 C   0  0  0  0  0  0  0  0  0  0  0  0
   40.0330   33.7670   47.2200 C   0  0  0  0  0  0  0  0  0  0  0  0
   40.5770   34.0190   46.3230 H   0  0  0  0  0  0  0  0  0  0  0  0
   40.0010   34.4940   48.3610 C   0  0  0  0  0  3  0  0  0  0  0  0
   39.2440   34.0230   49.4400 C   0  0  0  0  0  3  0  0  0  0  0  0
   38.5590   32.4170   48.6910 S   0  0  0  0  0  0  0  0  0  0  0  0
  1 13  1  0  0  0  0
  1  6  1  0  0  0  0
  2  1  2  0  0  0  0
  3  4  2  0  0  0  0
  3  2  1  0  0  0  0
  4  5  1  0  0  0  0
  5 15  1  0  0  0  0
  5  6  2  0  0  0  0
  7  3  1  0  0  0  0
  8 17  1  0  0  0  0
  8 16  1  0  0  0  0
  8  7  1  0  0  0  0
  9  8  1  0  0  0  0
 10  9  1  0  0  0  0
 10 11  1  0  0  0  0
 11 12  1  0  0  0  0
 12 23  1  1  0  0  0
 12  7  1  0  0  0  0
 12 24  1  0  0  0  0
 14  2  1  0  0  0  0
 18  9  1  0  0  0  0
 19  9  1  0  0  0  0
 20 10  1  0  0  0  0
 21 11  1  0  0  0  0
 22 11  1  0  0  0  0
 24 25  1  0  0  0  0
 26 24  1  0  0  0  0
 27 24  1  0  0  0  0
 27 30  1  0  0  0  0
 28 27  1  0  0  0  0
 29 27  1  0  0  0  0
 30 31  2  0  0  0  0
 30 35  1  0  0  0  0
 31 33  1  0  0  0  0
 32 31  1  0  0  0  0
 33 34  2  0  0  0  0
 35 34  1  0  0  0  0
M  END
>  <minimizedAffinity>
-4.3302145

>  <minimizedRMSD>
3.58589435

$$$$
