
 OpenBabel03272504223D

 36 38  0  0  1  0  0  0  0  0999 V2000
   36.8280   31.5910   48.6780 O   0  0  0  0  0  0  0  0  0  0  0  0
   38.8370   32.4260   47.8380 C   0  0  2  0  0  0  0  0  0  0  0  0
   38.1910   31.3960   48.7380 C   0  0  1  0  0  0  0  0  0  0  0  0
   38.7250   31.9110   50.0760 C   0  0  0  0  0  0  0  0  0  0  0  0
   38.3860   33.2590   49.9910 O   0  0  0  0  0  0  0  0  0  0  0  0
   38.6420   33.6690   48.7050 C   0  0  0  0  0  0  0  0  0  0  0  0
   39.8950   32.1900   47.6980 H   0  0  0  0  0  0  0  0  0  0  0  0
   38.5190   30.3630   48.5420 H   0  0  0  0  0  0  0  0  0  0  0  0
   39.8020   31.7320   50.1380 H   0  0  0  0  0  0  0  0  0  0  0  0
   38.1290   31.4180   50.8530 H   0  0  0  0  0  0  0  0  0  0  0  0
   39.5710   34.2830   48.6300 H   0  0  0  0  0  0  0  0  0  0  0  0
   37.8290   34.3170   48.2950 H   0  0  0  0  0  0  0  0  0  0  0  0
   38.1040   32.4830   46.6570 O   0  0  0  0  0  0  0  0  0  0  0  0
   38.8210   32.1610   45.4800 C   0  0  0  0  0  0  0  0  0  0  0  0
   38.7680   32.8560   44.2680 C   0  0  0  0  0  0  0  0  0  0  0  0
   38.1320   33.7220   44.1890 H   0  0  0  0  0  0  0  0  0  0  0  0
   39.5220   32.4200   43.2190 C   0  0  0  0  0  3  0  0  0  0  0  0
   40.3510   31.2530   43.4010 C   0  0  0  0  0  3  0  0  0  0  0  0
   40.0550   30.7730   45.0750 S   0  0  0  0  0  0  0  0  0  0  0  0
   35.9090   29.8530   46.9780 O   0  0  0  0  0  0  0  0  0  0  0  0
   35.9650   30.1700   48.4530 P   0  0  1  0  0  0  0  0  0  0  0  0
   36.7540   28.8760   49.2390 O   0  0  0  0  0  0  0  0  0  0  0  0
   37.4490   29.1830   49.8710 H   0  0  0  0  0  0  0  0  0  0  0  0
   34.3930   30.3340   49.0790 O   0  0  0  0  0  0  0  0  0  0  0  0
   34.1270   29.1880   49.8010 C   0  0  0  0  0  0  0  0  0  0  0  0
   33.6150   29.4500   50.7710 H   0  0  0  0  0  0  0  0  0  0  0  0
   35.0380   28.6460   50.1190 H   0  0  0  0  0  0  0  0  0  0  0  0
   33.2660   28.2210   49.0860 C   0  0  0  0  0  0  0  0  0  0  0  0
   33.8970   27.3330   48.2490 C   0  0  0  0  0  0  0  0  0  0  0  0
   33.1410   26.3950   47.5440 C   0  0  0  0  0  0  0  0  0  0  0  0
   31.7910   26.4190   47.7330 N   0  0  0  0  0  0  0  0  0  0  0  0
   31.1960   27.3000   48.5600 C   0  0  0  0  0  0  0  0  0  0  0  0
   31.9300   28.2090   49.2420 N   0  0  0  0  0  0  0  0  0  0  0  0
   34.9480   27.2360   48.0340 H   0  0  0  0  0  0  0  0  0  0  0  0
   33.5360   25.6650   46.8720 H   0  0  0  0  0  0  0  0  0  0  0  0
   30.1220   27.2320   48.6360 H   0  0  0  0  0  0  0  0  0  0  0  0
  1  3  1  0  0  0  0
  2  7  1  6  0  0  0
  2  6  1  0  0  0  0
  2  3  1  0  0  0  0
  3  8  1  6  0  0  0
  3  4  1  0  0  0  0
  4  9  1  0  0  0  0
  4 10  1  0  0  0  0
  5  4  1  0  0  0  0
  6  5  1  0  0  0  0
 11  6  1  0  0  0  0
 12  6  1  0  0  0  0
 13  2  1  0  0  0  0
 14 13  1  0  0  0  0
 15 14  2  0  0  0  0
 16 15  1  0  0  0  0
 17 18  2  0  0  0  0
 17 15  1  0  0  0  0
 18 19  1  0  0  0  0
 19 14  1  0  0  0  0
 21 20  2  6  0  0  0
 21  1  1  0  0  0  0
 21 24  1  0  0  0  0
 21 22  1  0  0  0  0
 22 23  1  0  0  0  0
 24 25  1  0  0  0  0
 25 27  1  0  0  0  0
 25 26  1  0  0  0  0
 28 33  1  0  0  0  0
 28 25  1  0  0  0  0
 29 28  2  0  0  0  0
 30 31  2  0  0  0  0
 30 29  1  0  0  0  0
 31 32  1  0  0  0  0
 32 36  1  0  0  0  0
 32 33  2  0  0  0  0
 34 29  1  0  0  0  0
 35 30  1  0  0  0  0
M  END
>  <minimizedAffinity>
-4.51907063

>  <minimizedRMSD>
0.0994558483

$$$$
