
 OpenBabel03272510123D

 32 35  0  0  0  0  0  0  0  0999 V2000
   32.8950   28.2520   49.0650 C   0  0  0  0  0  0  0  0  0  0  0  0
   33.2080   29.0250   50.1290 C   0  0  0  0  0  0  0  0  0  0  0  0
   34.4840   29.4730   50.4280 C   0  0  0  0  0  0  0  0  0  0  0  0
   35.5260   29.1360   49.6200 C   0  0  0  0  0  0  0  0  0  0  0  0
   35.2090   28.3360   48.5140 C   0  0  0  0  0  0  0  0  0  0  0  0
   33.9500   27.9270   48.2700 N   0  0  0  0  0  0  0  0  0  0  0  0
   32.4460   29.3420   50.8280 H   0  0  0  0  0  0  0  0  0  0  0  0
   34.7340   30.0900   51.2800 H   0  0  0  0  0  0  0  0  0  0  0  0
   35.9530   28.0000   47.7940 H   0  0  0  0  0  0  0  0  0  0  0  0
   30.4870   27.8660   49.6550 C   0  0  0  0  0  0  0  0  0  0  0  0
   31.5700   27.7910   48.7610 C   0  0  0  0  0  0  0  0  0  0  0  0
   31.3090   27.2320   47.5180 C   0  0  0  0  0  0  0  0  0  0  0  0
   30.0630   26.7910   47.2150 N   0  0  0  0  0  0  0  0  0  0  0  0
   29.0570   26.8900   48.1190 C   0  0  0  0  0  0  0  0  0  0  0  0
   29.2620   27.4200   49.3270 N   0  0  0  0  0  0  0  0  0  0  0  0
   30.6540   28.2910   50.6220 H   0  0  0  0  0  0  0  0  0  0  0  0
   32.1170   27.1460   46.7740 H   0  0  0  0  0  0  0  0  0  0  0  0
   28.0790   26.5170   47.8130 H   0  0  0  0  0  0  0  0  0  0  0  0
   36.8700   29.4930   49.7620 O   0  0  0  0  0  0  0  0  0  0  0  0
   37.4640   30.4370   48.9400 C   0  0  0  0  0  0  0  0  0  0  0  0
   38.0090   31.5330   49.6210 C   0  0  0  0  0  0  0  0  0  0  0  0
   38.5720   32.4040   48.7110 C   0  0  0  0  0  0  0  0  0  0  0  0
   38.3560   31.8220   47.5240 N   0  0  0  0  0  0  0  0  0  0  0  0
   37.7150   30.6830   47.6480 N   0  0  0  0  0  0  0  0  0  0  0  0
   38.0730   31.8190   50.6850 H   0  0  0  0  0  0  0  0  0  0  0  0
   39.0850   33.3530   48.8410 H   0  0  0  0  0  0  0  0  0  0  0  0
   38.7160   32.2680   46.1990 C   0  0  0  0  0  0  0  0  0  0  0  0
   39.9290   32.8610   45.9920 C   0  0  0  0  0  0  0  0  0  0  0  0
   40.7240   33.0700   46.6930 H   0  0  0  0  0  0  0  0  0  0  0  0
   40.3830   33.3160   44.8200 C   0  0  0  0  0  3  0  0  0  0  0  0
   39.4600   33.1370   43.7070 C   0  0  0  0  0  3  0  0  0  0  0  0
   37.9410   32.2770   44.5200 S   0  0  0  0  0  0  0  0  0  0  0  0
  1  2  1  0  0  0  0
  2  3  2  0  0  0  0
  2  7  1  0  0  0  0
  3  8  1  0  0  0  0
  4 19  1  0  0  0  0
  4  3  1  0  0  0  0
  5  4  2  0  0  0  0
  6  5  1  0  0  0  0
  6  1  2  0  0  0  0
  9  5  1  0  0  0  0
 10 16  1  0  0  0  0
 11  1  1  0  0  0  0
 11 10  2  0  0  0  0
 12 11  1  0  0  0  0
 13 12  2  0  0  0  0
 13 14  1  0  0  0  0
 14 15  2  0  0  0  0
 15 10  1  0  0  0  0
 17 12  1  0  0  0  0
 18 14  1  0  0  0  0
 20 21  1  0  0  0  0
 20 19  1  0  0  0  0
 21 25  1  0  0  0  0
 22 26  1  0  0  0  0
 22 21  2  0  0  0  0
 23 24  1  0  0  0  0
 23 22  1  0  0  0  0
 24 20  2  0  0  0  0
 27 23  1  0  0  0  0
 28 27  2  0  0  0  0
 28 29  1  0  0  0  0
 30 28  1  0  0  0  0
 31 32  1  0  0  0  0
 31 30  2  0  0  0  0
 32 27  1  0  0  0  0
M  END
>  <minimizedAffinity>
-5.69552422

>  <minimizedRMSD>
1.80532062

$$$$
