
 OpenBabel03272509433D

 35 37  0  0  1  0  0  0  0  0999 V2000
   37.0200   30.9180   49.0330 C   0  0  0  0  0  0  0  0  0  0  0  0
   36.7240   31.8070   50.0680 C   0  0  0  0  0  0  0  0  0  0  0  0
   37.3140   33.0590   50.1500 C   0  0  0  0  0  0  0  0  0  0  0  0
   38.2340   33.4520   49.1710 C   0  0  0  0  0  0  0  0  0  0  0  0
   38.5150   32.5710   48.1640 C   0  0  0  0  0  0  0  0  0  0  0  0
   37.9060   31.3290   48.1180 C   0  0  0  0  0  0  0  0  0  0  0  0
   36.0120   31.5110   50.8310 H   0  0  0  0  0  0  0  0  0  0  0  0
   37.0330   33.6790   50.9750 H   0  0  0  0  0  0  0  0  0  0  0  0
   38.6290   34.4260   49.3220 H   0  0  0  0  0  0  0  0  0  0  0  0
   39.2430   33.0170   47.4880 H   0  0  0  0  0  0  0  0  0  0  0  0
   36.4310   29.5990   48.9660 C   0  0  2  0  0  0  0  0  0  0  0  0
   36.9670   29.0740   48.0850 H   0  0  0  0  0  0  0  0  0  0  0  0
   33.5750   30.1160   46.7780 C   0  0  0  0  0  0  0  0  0  0  0  0
   32.8970   28.9130   46.8230 C   0  0  0  0  0  0  0  0  0  0  0  0
   33.3800   27.9250   47.6590 C   0  0  0  0  0  0  0  0  0  0  0  0
   34.5100   28.1660   48.4110 N   0  0  0  0  0  0  0  0  0  0  0  0
   35.1140   29.3340   48.3220 C   0  0  0  0  0  0  0  0  0  0  0  0
   34.6540   30.3140   47.5110 N   0  0  0  0  0  0  0  0  0  0  0  0
   33.2230   30.9190   46.1300 H   0  0  0  0  0  0  0  0  0  0  0  0
   32.0260   28.8330   46.1900 H   0  0  0  0  0  0  0  0  0  0  0  0
   32.8480   26.9850   47.6950 H   0  0  0  0  0  0  0  0  0  0  0  0
   36.8620   28.8210   49.8940 O   0  0  0  0  0  0  0  0  0  0  0  0
   36.3950   28.6610   50.7320 H   0  0  0  0  0  0  0  0  0  0  0  0
   38.3230   30.4870   47.0200 C   0  0  0  0  0  3  0  0  0  0  0  0
   38.9710   30.9340   45.9410 C   0  0  0  0  0  3  0  0  0  0  0  0
   39.4860   30.1600   44.7870 C   0  0  0  0  0  0  0  0  0  0  0  0
   38.8330   29.2780   44.5870 H   0  0  0  0  0  0  0  0  0  0  0  0
   40.5270   29.8110   45.0170 H   0  0  0  0  0  0  0  0  0  0  0  0
   39.5920   31.2260   43.3460 S   0  0  0  0  0  0  0  0  0  0  0  0
   37.9700   31.5120   42.6730 C   0  0  0  0  0  0  0  0  0  0  0  0
   37.5950   30.6600   41.6000 C   0  0  0  0  0  0  0  0  0  0  0  0
   38.0860   29.8520   41.0840 H   0  0  0  0  0  0  0  0  0  0  0  0
   36.4030   30.7220   40.9570 C   0  0  0  0  0  3  0  0  0  0  0  0
   35.4940   31.7370   41.4350 C   0  0  0  0  0  3  0  0  0  0  0  0
   36.4380   32.5900   42.8440 S   0  0  0  0  0  0  0  0  0  0  0  0
  1  2  1  0  0  0  0
  2  3  2  0  0  0  0
  2  7  1  0  0  0  0
  3  8  1  0  0  0  0
  4  9  1  0  0  0  0
  4  3  1  0  0  0  0
  5  4  2  0  0  0  0
  6  5  1  0  0  0  0
  6  1  2  0  0  0  0
 10  5  1  0  0  0  0
 11 12  1  6  0  0  0
 11  1  1  0  0  0  0
 11 22  1  0  0  0  0
 13 14  2  0  0  0  0
 13 18  1  0  0  0  0
 14 15  1  0  0  0  0
 15 21  1  0  0  0  0
 15 16  2  0  0  0  0
 17 16  1  0  0  0  0
 17 11  1  0  0  0  0
 18 17  2  0  0  0  0
 19 13  1  0  0  0  0
 20 14  1  0  0  0  0
 22 23  1  0  0  0  0
 24  6  1  0  0  0  0
 25 24  2  0  0  0  0
 26 28  1  0  0  0  0
 26 25  1  0  0  0  0
 27 26  1  0  0  0  0
 29 26  1  0  0  0  0
 30 35  1  0  0  0  0
 30 29  1  0  0  0  0
 31 30  2  0  0  0  0
 32 31  1  0  0  0  0
 33 34  2  0  0  0  0
 33 31  1  0  0  0  0
 34 35  1  0  0  0  0
M  END
>  <minimizedAffinity>
-5.37843084

>  <minimizedRMSD>
0.348469943

$$$$
