
 OpenBabel03272510333D

 25 27  0  0  0  0  0  0  0  0999 V2000
   35.9350   30.0730   47.7490 C   0  0  0  0  0  0  0  0  0  0  0  0
   35.2310   30.0570   46.5650 C   0  0  0  0  0  0  0  0  0  0  0  0
   34.1790   29.1820   46.3750 C   0  0  0  0  0  0  0  0  0  0  0  0
   33.8470   28.3230   47.3950 C   0  0  0  0  0  0  0  0  0  0  0  0
   34.5350   28.3180   48.5900 C   0  0  0  0  0  0  0  0  0  0  0  0
   35.5850   29.1990   48.7680 C   0  0  0  0  0  0  0  0  0  0  0  0
   35.4940   30.7430   45.7460 H   0  0  0  0  0  0  0  0  0  0  0  0
   33.6260   29.1680   45.4430 H   0  0  0  0  0  0  0  0  0  0  0  0
   33.0330   27.6060   47.3260 H   0  0  0  0  0  0  0  0  0  0  0  0
   34.3400   27.6740   49.4460 H   0  0  0  0  0  0  0  0  0  0  0  0
   37.9120   32.8270   49.0530 C   0  0  0  0  0  0  0  0  0  0  0  0
   39.0140   32.9060   48.2030 C   0  0  0  0  0  0  0  0  0  0  0  0
   39.0630   31.9730   47.1510 C   0  0  0  0  0  0  0  0  0  0  0  0
   38.0630   31.0660   47.0200 N   0  0  0  0  0  0  0  0  0  0  0  0
   37.0220   31.0270   47.8610 C   0  0  0  0  0  0  0  0  0  0  0  0
   36.9520   31.9180   48.8860 N   0  0  0  0  0  0  0  0  0  0  0  0
   37.8690   33.5540   49.8760 H   0  0  0  0  0  0  0  0  0  0  0  0
   39.7730   33.6680   48.3830 H   0  0  0  0  0  0  0  0  0  0  0  0
   39.9170   32.0380   46.4970 H   0  0  0  0  0  0  0  0  0  0  0  0
   36.3580   29.2390   50.0220 C   0  0  0  0  0  0  0  0  0  0  0  0
   35.8040   29.6690   51.2690 C   0  0  0  0  0  0  0  0  0  0  0  0
   34.7760   29.9870   51.3360 H   0  0  0  0  0  0  0  0  0  0  0  0
   36.6270   29.6610   52.3610 C   0  0  0  0  0  3  0  0  0  0  0  0
   37.9710   29.2310   52.2030 C   0  0  0  0  0  3  0  0  0  0  0  0
   38.1200   28.8110   50.4450 S   0  0  0  0  0  0  0  0  0  0  0  0
  1 15  1  0  0  0  0
  1  6  1  0  0  0  0
  2  1  2  0  0  0  0
  3  2  1  0  0  0  0
  3  4  2  0  0  0  0
  4  5  1  0  0  0  0
  5  6  2  0  0  0  0
  5 10  1  0  0  0  0
  6 20  1  0  0  0  0
  7  2  1  0  0  0  0
  8  3  1  0  0  0  0
  9  4  1  0  0  0  0
 11 17  1  0  0  0  0
 12 18  1  0  0  0  0
 12 11  2  0  0  0  0
 13 12  1  0  0  0  0
 14 13  2  0  0  0  0
 14 15  1  0  0  0  0
 15 16  2  0  0  0  0
 16 11  1  0  0  0  0
 19 13  1  0  0  0  0
 20 25  1  0  0  0  0
 20 21  2  0  0  0  0
 21 22  1  0  0  0  0
 21 23  1  0  0  0  0
 24 23  2  0  0  0  0
 25 24  1  0  0  0  0
M  END
>  <minimizedAffinity>
-3.59648538

>  <minimizedRMSD>
1.22474456

$$$$
