
 OpenBabel03272501553D

 21 22  0  0  0  0  0  0  0  0999 V2000
   34.7970   28.2880   49.5560 C   0  0  0  0  0  0  0  0  0  0  0  0
   33.9100   28.5920   50.1480 H   0  0  0  0  0  0  0  0  0  0  0  0
   35.1160   27.2520   49.7700 H   0  0  0  0  0  0  0  0  0  0  0  0
   37.3300   30.2280   51.4240 C   0  0  0  0  0  0  0  0  0  0  0  0
   38.1190   30.7720   50.4080 C   0  0  0  0  0  0  0  0  0  0  0  0
   37.7770   30.4670   49.0630 C   0  0  0  0  0  0  0  0  0  0  0  0
   36.7030   29.6680   48.8570 N   0  0  0  0  0  0  0  0  0  0  0  0
   35.9630   29.1600   49.8780 C   0  0  0  0  0  0  0  0  0  0  0  0
   36.2890   29.4490   51.1550 N   0  0  0  0  0  0  0  0  0  0  0  0
   37.5800   30.4520   52.4650 H   0  0  0  0  0  0  0  0  0  0  0  0
   38.9700   31.4060   50.6120 H   0  0  0  0  0  0  0  0  0  0  0  0
   38.3490   30.8600   48.2580 H   0  0  0  0  0  0  0  0  0  0  0  0
   34.4310   28.4510   48.1020 C   0  0  0  0  0  0  0  0  0  0  0  0
   34.6560   29.5280   47.8500 H   0  0  0  0  0  0  0  0  0  0  0  0
   35.0300   27.7870   47.4470 H   0  0  0  0  0  0  0  0  0  0  0  0
   33.0150   28.2530   47.9550 C   0  0  0  0  0  0  0  0  0  0  0  0
   32.0330   27.6840   48.6790 C   0  0  0  0  0  0  0  0  0  0  0  0
   32.3740   27.2600   49.6160 H   0  0  0  0  0  0  0  0  0  0  0  0
   30.7330   27.6520   48.2610 C   0  0  0  0  0  0  0  0  0  0  0  0
   30.4900   28.2650   47.0030 C   0  0  0  0  0  0  0  0  0  0  0  0
   32.1380   28.8600   46.4730 S   0  0  0  0  0  0  0  0  0  0  0  0
  1  3  1  0  0  0  0
  1  8  1  0  0  0  0
  1  2  1  0  0  0  0
  4 10  1  0  0  0  0
  5 11  1  0  0  0  0
  5  4  2  0  0  0  0
  6  5  1  0  0  0  0
  7  6  2  0  0  0  0
  7  8  1  0  0  0  0
  8  9  2  0  0  0  0
  9  4  1  0  0  0  0
 12  6  1  0  0  0  0
 13  1  1  0  0  0  0
 14 13  1  0  0  0  0
 15 13  1  0  0  0  0
 16 13  1  0  0  0  0
 16 17  2  0  0  0  0
 17 18  1  0  0  0  0
 19 17  1  0  0  0  0
 20 19  2  0  0  0  0
 21 20  1  0  0  0  0
 21 16  1  0  0  0  0
M  END
>  <minimizedAffinity>
-4.27857733

>  <minimizedRMSD>
2.43810201

$$$$
