
 OpenBabel03272501353D

 33 36  0  0  1  0  0  0  0  0999 V2000
   38.9290   31.6140   46.1160 C   0  0  2  0  0  0  0  0  0  0  0  0
   40.4490   31.1710   45.9260 C   0  0  0  0  0  0  0  0  0  0  0  0
   39.7620   32.2780   45.1690 C   0  0  1  0  0  0  0  0  0  0  0  0
   38.2790   30.7380   45.8610 H   0  0  0  0  0  0  0  0  0  0  0  0
   40.5610   30.2020   45.4070 H   0  0  0  0  0  0  0  0  0  0  0  0
   41.1630   31.4730   46.6800 H   0  0  0  0  0  0  0  0  0  0  0  0
   40.0910   33.3290   45.4470 H   0  0  0  0  0  0  0  0  0  0  0  0
   39.7120   32.1060   43.7140 C   0  0  0  0  0  0  0  0  0  0  0  0
   39.0080   33.0420   42.9740 C   0  0  0  0  0  0  0  0  0  0  0  0
   38.9760   32.8590   41.6170 C   0  0  0  0  0  0  0  0  0  0  0  0
   39.5980   31.8140   40.9810 C   0  0  0  0  0  0  0  0  0  0  0  0
   40.2920   30.8990   41.7530 C   0  0  0  0  0  0  0  0  0  0  0  0
   40.3370   31.0580   43.0930 N   0  0  0  0  0  0  0  0  0  0  0  0
   38.4970   33.8890   43.4110 H   0  0  0  0  0  0  0  0  0  0  0  0
   38.4470   33.5500   40.9750 H   0  0  0  0  0  0  0  0  0  0  0  0
   39.5730   31.6690   39.9070 H   0  0  0  0  0  0  0  0  0  0  0  0
   40.8120   30.0450   41.3460 H   0  0  0  0  0  0  0  0  0  0  0  0
   38.7950   32.1380   47.5270 C   0  0  2  0  0  0  0  0  0  0  0  0
   39.4430   33.2090   47.8490 O   0  0  0  0  0  0  0  0  0  0  0  0
   37.5810   30.6500   50.7230 C   0  0  0  0  0  0  0  0  0  0  0  0
   38.3150   31.3520   49.7940 C   0  0  0  0  0  0  0  0  0  0  0  0
   37.9600   31.4070   48.4310 C   0  0  0  0  0  0  0  0  0  0  0  0
   36.8820   30.7490   48.0920 N   0  0  0  0  0  0  0  0  0  0  0  0
   36.1560   30.0510   49.0260 C   0  0  0  0  0  0  0  0  0  0  0  0
   36.4850   29.9950   50.3090 N   0  0  0  0  0  0  0  0  0  0  0  0
   37.9340   30.6670   51.7460 H   0  0  0  0  0  0  0  0  0  0  0  0
   39.2110   31.8940   50.1030 H   0  0  0  0  0  0  0  0  0  0  0  0
   34.9440   29.3180   48.6110 C   0  0  0  0  0  0  0  0  0  0  0  0
   34.3570   28.2050   49.1850 C   0  0  0  0  0  0  0  0  0  0  0  0
   34.8370   27.7990   50.0630 H   0  0  0  0  0  0  0  0  0  0  0  0
   33.2360   27.6940   48.6300 C   0  0  0  0  0  0  0  0  0  0  0  0
   32.7430   28.3550   47.4800 C   0  0  0  0  0  0  0  0  0  0  0  0
   33.9370   29.7230   47.2280 S   0  0  0  0  0  0  0  0  0  0  0  0
  1  4  1  6  0  0  0
  1 18  1  0  0  0  0
  2  1  1  0  0  0  0
  2  6  1  0  0  0  0
  3  7  1  1  0  0  0
  3  2  1  0  0  0  0
  3  1  1  0  0  0  0
  5  2  1  0  0  0  0
  8  3  1  0  0  0  0
  9 14  1  0  0  0  0
  9  8  2  0  0  0  0
 10  9  1  0  0  0  0
 11 10  2  0  0  0  0
 11 12  1  0  0  0  0
 12 13  2  0  0  0  0
 13  8  1  0  0  0  0
 15 10  1  0  0  0  0
 16 11  1  0  0  0  0
 17 12  1  0  0  0  0
 18 19  1  1  0  0  0
 18 22  1  0  0  0  0
 20 26  1  0  0  0  0
 21 27  1  0  0  0  0
 21 20  2  0  0  0  0
 22 21  1  0  0  0  0
 23 22  2  0  0  0  0
 23 24  1  0  0  0  0
 24 25  2  0  0  0  0
 25 20  1  0  0  0  0
 28 24  1  0  0  0  0
 28 29  2  0  0  0  0
 29 30  1  0  0  0  0
 31 29  1  0  0  0  0
 32 31  2  0  0  0  0
 33 32  1  0  0  0  0
 33 28  1  0  0  0  0
M  END
>  <minimizedAffinity>
-6.07294893

>  <minimizedRMSD>
1.78179538

$$$$
