
 OpenBabel03272510123D

 32 35  0  0  0  0  0  0  0  0999 V2000
   33.2140   28.3480   49.0330 C   0  0  0  0  0  0  0  0  0  0  0  0
   33.5200   28.9830   50.1860 C   0  0  0  0  0  0  0  0  0  0  0  0
   34.7730   29.4810   50.5020 C   0  0  0  0  0  0  0  0  0  0  0  0
   35.7980   29.3440   49.6160 C   0  0  0  0  0  0  0  0  0  0  0  0
   35.4880   28.6870   48.4180 C   0  0  0  0  0  0  0  0  0  0  0  0
   34.2510   28.2210   48.1620 N   0  0  0  0  0  0  0  0  0  0  0  0
   32.7700   29.1380   50.9510 H   0  0  0  0  0  0  0  0  0  0  0  0
   35.0180   29.9880   51.4240 H   0  0  0  0  0  0  0  0  0  0  0  0
   36.2200   28.5160   47.6310 H   0  0  0  0  0  0  0  0  0  0  0  0
   30.7960   27.9350   49.5610 C   0  0  0  0  0  0  0  0  0  0  0  0
   31.9120   27.8330   48.7130 C   0  0  0  0  0  0  0  0  0  0  0  0
   31.7110   27.1910   47.4990 C   0  0  0  0  0  0  0  0  0  0  0  0
   30.4880   26.6990   47.1810 N   0  0  0  0  0  0  0  0  0  0  0  0
   29.4470   26.8270   48.0410 C   0  0  0  0  0  0  0  0  0  0  0  0
   29.5950   27.4370   49.2190 N   0  0  0  0  0  0  0  0  0  0  0  0
   30.9170   28.4240   50.5040 H   0  0  0  0  0  0  0  0  0  0  0  0
   32.5470   27.0800   46.7910 H   0  0  0  0  0  0  0  0  0  0  0  0
   28.4910   26.4100   47.7250 H   0  0  0  0  0  0  0  0  0  0  0  0
   37.1190   29.7800   49.7610 O   0  0  0  0  0  0  0  0  0  0  0  0
   37.6960   30.6650   48.8640 C   0  0  0  0  0  0  0  0  0  0  0  0
   38.1830   31.8410   49.4480 C   0  0  0  0  0  0  0  0  0  0  0  0
   38.7340   32.6440   48.4720 C   0  0  0  0  0  0  0  0  0  0  0  0
   38.5680   31.9450   47.3410 N   0  0  0  0  0  0  0  0  0  0  0  0
   37.9680   30.7980   47.5600 N   0  0  0  0  0  0  0  0  0  0  0  0
   38.2100   32.2290   50.4810 H   0  0  0  0  0  0  0  0  0  0  0  0
   39.2070   33.6210   48.5200 H   0  0  0  0  0  0  0  0  0  0  0  0
   38.9420   32.2770   45.9870 C   0  0  0  0  0  0  0  0  0  0  0  0
   37.9840   32.3220   45.0140 C   0  0  0  0  0  0  0  0  0  0  0  0
   36.9210   32.1400   45.0820 H   0  0  0  0  0  0  0  0  0  0  0  0
   38.1950   32.6150   43.7270 C   0  0  0  0  0  3  0  0  0  0  0  0
   39.5850   32.9020   43.3970 C   0  0  0  0  0  3  0  0  0  0  0  0
   40.4970   32.7070   45.0810 S   0  0  0  0  0  0  0  0  0  0  0  0
  1  2  1  0  0  0  0
  2  3  2  0  0  0  0
  2  7  1  0  0  0  0
  3  8  1  0  0  0  0
  4 19  1  0  0  0  0
  4  3  1  0  0  0  0
  5  4  2  0  0  0  0
  6  5  1  0  0  0  0
  6  1  2  0  0  0  0
  9  5  1  0  0  0  0
 10 16  1  0  0  0  0
 11  1  1  0  0  0  0
 11 10  2  0  0  0  0
 12 11  1  0  0  0  0
 13 12  2  0  0  0  0
 13 14  1  0  0  0  0
 14 15  2  0  0  0  0
 15 10  1  0  0  0  0
 17 12  1  0  0  0  0
 18 14  1  0  0  0  0
 20 21  1  0  0  0  0
 20 19  1  0  0  0  0
 21 25  1  0  0  0  0
 22 26  1  0  0  0  0
 22 21  2  0  0  0  0
 23 24  1  0  0  0  0
 23 22  1  0  0  0  0
 24 20  2  0  0  0  0
 27 23  1  0  0  0  0
 28 29  1  0  0  0  0
 28 27  2  0  0  0  0
 30 28  1  0  0  0  0
 31 30  2  0  0  0  0
 31 32  1  0  0  0  0
 32 27  1  0  0  0  0
M  END
>  <minimizedAffinity>
-5.5937438

>  <minimizedRMSD>
1.71442509

$$$$
