
 OpenBabel03262522173D

 42 45  0  0  1  0  0  0  0  0999 V2000
   37.0780   26.2020   32.0400 S   0  0  0  0  0  0  0  0  0  0  0  0
   38.1150   24.9320   35.6590 C   0  0  0  0  0  0  0  0  0  0  0  0
   38.4020   26.1190   36.3570 C   0  0  0  0  0  0  0  0  0  0  0  0
   38.2910   27.3510   35.7540 C   0  0  0  0  0  0  0  0  0  0  0  0
   37.8870   27.3490   34.4450 C   0  0  0  0  0  0  0  0  0  0  0  0
   37.6140   26.1970   33.7840 C   0  0  0  0  0  0  0  0  0  0  0  0
   37.7190   24.9730   34.3660 N   0  0  0  0  0  0  0  0  0  0  0  0
   38.7200   26.0670   37.4000 H   0  0  0  0  0  0  0  0  0  0  0  0
   38.4990   28.2860   36.2480 H   0  0  0  0  0  0  0  0  0  0  0  0
   37.7730   28.2780   33.8920 H   0  0  0  0  0  0  0  0  0  0  0  0
   38.2580   23.6940   36.3650 C   0  0  0  0  0  0  0  0  0  0  0  0
   37.3200   23.2280   37.0230 O   0  0  0  0  0  0  0  0  0  0  0  0
   40.0500   22.5030   37.5760 C   0  0  0  0  0  0  0  0  0  0  0  0
   39.5080   22.9150   36.3490 C   0  0  0  0  0  0  0  0  0  0  0  0
   40.1650   22.5780   35.1600 C   0  0  0  0  0  0  0  0  0  0  0  0
   41.3210   21.8530   35.2280 N   0  0  0  0  0  0  0  0  0  0  0  0
   41.8210   21.4690   36.4280 C   0  0  0  0  0  0  0  0  0  0  0  0
   41.1990   21.7870   37.5780 N   0  0  0  0  0  0  0  0  0  0  0  0
   39.5880   22.7340   38.5200 H   0  0  0  0  0  0  0  0  0  0  0  0
   39.7390   22.9000   34.2300 H   0  0  0  0  0  0  0  0  0  0  0  0
   42.7380   20.8980   36.4030 H   0  0  0  0  0  0  0  0  0  0  0  0
   37.5460   27.8230   31.3870 C   0  0  0  0  0  0  0  0  0  0  0  0
   37.9980   27.6400   30.3820 H   0  0  0  0  0  0  0  0  0  0  0  0
   38.2510   28.3810   32.0290 H   0  0  0  0  0  0  0  0  0  0  0  0
   35.3120   30.4110   32.2970 C   0  0  1  0  0  0  0  0  0  0  0  0
   36.5000   30.0810   31.4180 C   0  0  0  0  0  0  0  0  0  0  0  0
   36.2760   28.6100   31.1640 C   0  0  2  0  0  0  0  0  0  0  0  0
   35.2460   28.1840   31.9600 O   0  0  0  0  0  0  0  0  0  0  0  0
   35.1070   29.0810   33.0100 C   0  0  0  0  0  0  0  0  0  0  0  0
   34.4260   30.5610   31.6460 H   0  0  0  0  0  0  0  0  0  0  0  0
   37.4380   30.2830   31.9800 H   0  0  0  0  0  0  0  0  0  0  0  0
   36.4540   30.6480   30.4810 H   0  0  0  0  0  0  0  0  0  0  0  0
   35.9620   28.4760   30.1130 H   0  0  0  0  0  0  0  0  0  0  0  0
   34.0690   29.0240   33.3720 H   0  0  0  0  0  0  0  0  0  0  0  0
   35.8520   28.9570   33.8100 H   0  0  0  0  0  0  0  0  0  0  0  0
   35.5720   31.4310   33.1820 O   0  0  0  0  0  0  0  0  0  0  0  0
   35.2690   31.6660   34.4080 C   0  0  0  0  0  0  0  0  0  0  0  0
   35.8460   31.6820   35.7210 C   0  0  0  0  0  0  0  0  0  0  0  0
   36.8830   31.4080   35.7070 H   0  0  0  0  0  0  0  0  0  0  0  0
   35.0840   32.0180   36.8040 C   0  0  0  0  0  3  0  0  0  0  0  0
   33.6920   32.3600   36.6200 C   0  0  0  0  0  3  0  0  0  0  0  0
   33.5130   32.1700   34.7620 S   0  0  0  0  0  0  0  0  0  0  0  0
  1  6  1  0  0  0  0
  2  3  1  0  0  0  0
  2 11  1  0  0  0  0
  3  8  1  0  0  0  0
  4  9  1  0  0  0  0
  4  3  2  0  0  0  0
  5  4  1  0  0  0  0
  6  7  1  0  0  0  0
  6  5  2  0  0  0  0
  7  2  2  0  0  0  0
 10  5  1  0  0  0  0
 11 12  2  0  0  0  0
 13 18  1  0  0  0  0
 13 19  1  0  0  0  0
 14 11  1  0  0  0  0
 14 13  2  0  0  0  0
 15 16  2  0  0  0  0
 15 14  1  0  0  0  0
 16 17  1  0  0  0  0
 17 18  2  0  0  0  0
 20 15  1  0  0  0  0
 21 17  1  0  0  0  0
 22 24  1  0  0  0  0
 22  1  1  0  0  0  0
 23 22  1  0  0  0  0
 25 30  1  6  0  0  0
 25 29  1  0  0  0  0
 25 36  1  0  0  0  0
 26 31  1  0  0  0  0
 26 25  1  0  0  0  0
 27 33  1  6  0  0  0
 27 22  1  0  0  0  0
 27 26  1  0  0  0  0
 27 28  1  0  0  0  0
 28 29  1  0  0  0  0
 29 34  1  0  0  0  0
 29 35  1  0  0  0  0
 32 26  1  0  0  0  0
 36 37  1  0  0  0  0
 37 42  1  0  0  0  0
 37 38  2  0  0  0  0
 38 40  1  0  0  0  0
 39 38  1  0  0  0  0
 41 40  2  0  0  0  0
 42 41  1  0  0  0  0
M  END
>  <minimizedAffinity>
-5.68842077

$$$$

 OpenBabel03262522173D

 42 45  0  0  1  0  0  0  0  0999 V2000
   36.9900   21.3520   31.6350 S   0  0  0  0  0  0  0  0  0  0  0  0
   37.6030   22.2850   35.4480 C   0  0  0  0  0  0  0  0  0  0  0  0
   36.6040   21.5670   36.1290 C   0  0  0  0  0  0  0  0  0  0  0  0
   35.7060   20.7710   35.4560 C   0  0  0  0  0  0  0  0  0  0  0  0
   35.8440   20.7230   34.0940 C   0  0  0  0  0  0  0  0  0  0  0  0
   36.8120   21.4200   33.4490 C   0  0  0  0  0  0  0  0  0  0  0  0
   37.7070   22.2100   34.1010 N   0  0  0  0  0  0  0  0  0  0  0  0
   36.5360   21.6380   37.2170 H   0  0  0  0  0  0  0  0  0  0  0  0
   34.9240   20.2040   35.9350 H   0  0  0  0  0  0  0  0  0  0  0  0
   35.1770   20.1200   33.4840 H   0  0  0  0  0  0  0  0  0  0  0  0
   38.4960   23.0880   36.2290 C   0  0  0  0  0  0  0  0  0  0  0  0
   38.0670   24.0120   36.9300 O   0  0  0  0  0  0  0  0  0  0  0  0
   40.4680   21.8970   37.1180 C   0  0  0  0  0  0  0  0  0  0  0  0
   39.9520   22.8650   36.2430 C   0  0  0  0  0  0  0  0  0  0  0  0
   40.8270   23.5820   35.4200 C   0  0  0  0  0  0  0  0  0  0  0  0
   42.1650   23.3170   35.4910 N   0  0  0  0  0  0  0  0  0  0  0  0
   42.6340   22.3760   36.3460 C   0  0  0  0  0  0  0  0  0  0  0  0
   41.8040   21.6810   37.1430 N   0  0  0  0  0  0  0  0  0  0  0  0
   39.8420   21.3160   37.7740 H   0  0  0  0  0  0  0  0  0  0  0  0
   40.4190   24.3190   34.7550 H   0  0  0  0  0  0  0  0  0  0  0  0
   43.7040   22.2220   36.3470 H   0  0  0  0  0  0  0  0  0  0  0  0
   38.2500   22.5820   31.2190 C   0  0  0  0  0  0  0  0  0  0  0  0
   38.9130   22.1100   30.4540 H   0  0  0  0  0  0  0  0  0  0  0  0
   38.8460   22.9260   32.0830 H   0  0  0  0  0  0  0  0  0  0  0  0
   37.2600   25.9780   31.1480 C   0  0  1  0  0  0  0  0  0  0  0  0
   38.3420   25.0160   30.7070 C   0  0  0  0  0  0  0  0  0  0  0  0
   37.5510   23.7410   30.5460 C   0  0  2  0  0  0  0  0  0  0  0  0
   36.2880   23.9490   31.0310 O   0  0  0  0  0  0  0  0  0  0  0  0
   36.3280   25.0350   31.8960 C   0  0  0  0  0  0  0  0  0  0  0  0
   36.7090   26.3210   30.2490 H   0  0  0  0  0  0  0  0  0  0  0  0
   39.1150   24.9450   31.5020 H   0  0  0  0  0  0  0  0  0  0  0  0
   38.7690   25.3310   29.7480 H   0  0  0  0  0  0  0  0  0  0  0  0
   37.4600   23.5140   29.4670 H   0  0  0  0  0  0  0  0  0  0  0  0
   35.3210   25.4790   31.9310 H   0  0  0  0  0  0  0  0  0  0  0  0
   36.7340   24.8040   32.8910 H   0  0  0  0  0  0  0  0  0  0  0  0
   37.7370   26.9780   31.9640 O   0  0  0  0  0  0  0  0  0  0  0  0
   38.2130   27.0240   33.1560 C   0  0  0  0  0  0  0  0  0  0  0  0
   39.4310   26.8120   33.8840 C   0  0  0  0  0  0  0  0  0  0  0  0
   40.2350   26.5110   33.2420 H   0  0  0  0  0  0  0  0  0  0  0  0
   39.4640   26.9960   35.2370 C   0  0  0  0  0  3  0  0  0  0  0  0
   38.2660   27.4080   35.9330 C   0  0  0  0  0  3  0  0  0  0  0  0
   37.0430   27.5220   34.5150 S   0  0  0  0  0  0  0  0  0  0  0  0
  1  6  1  0  0  0  0
  2  3  1  0  0  0  0
  2 11  1  0  0  0  0
  3  8  1  0  0  0  0
  4  9  1  0  0  0  0
  4  3  2  0  0  0  0
  5  4  1  0  0  0  0
  6  5  2  0  0  0  0
  6  7  1  0  0  0  0
  7  2  2  0  0  0  0
 10  5  1  0  0  0  0
 11 14  1  0  0  0  0
 11 12  2  0  0  0  0
 13 18  1  0  0  0  0
 13 19  1  0  0  0  0
 14 13  2  0  0  0  0
 15 16  2  0  0  0  0
 15 14  1  0  0  0  0
 16 17  1  0  0  0  0
 17 21  1  0  0  0  0
 17 18  2  0  0  0  0
 20 15  1  0  0  0  0
 22  1  1  0  0  0  0
 22 24  1  0  0  0  0
 23 22  1  0  0  0  0
 25 30  1  6  0  0  0
 25 29  1  0  0  0  0
 25 36  1  0  0  0  0
 26 25  1  0  0  0  0
 26 31  1  0  0  0  0
 27 33  1  6  0  0  0
 27 26  1  0  0  0  0
 27 28  1  0  0  0  0
 27 22  1  0  0  0  0
 28 29  1  0  0  0  0
 29 34  1  0  0  0  0
 29 35  1  0  0  0  0
 32 26  1  0  0  0  0
 36 37  1  0  0  0  0
 37 38  2  0  0  0  0
 37 42  1  0  0  0  0
 38 40  1  0  0  0  0
 39 38  1  0  0  0  0
 40 41  2  0  0  0  0
 42 41  1  0  0  0  0
M  END
>  <minimizedAffinity>
-5.56455755

$$$$

 OpenBabel03262522173D

 42 45  0  0  1  0  0  0  0  0999 V2000
   37.2040   21.3920   31.3070 S   0  0  0  0  0  0  0  0  0  0  0  0
   37.7560   22.1860   35.1600 C   0  0  0  0  0  0  0  0  0  0  0  0
   36.7100   21.4940   35.7940 C   0  0  0  0  0  0  0  0  0  0  0  0
   35.7960   20.7580   35.0750 C   0  0  0  0  0  0  0  0  0  0  0  0
   35.9680   20.7430   33.7160 C   0  0  0  0  0  0  0  0  0  0  0  0
   36.9810   21.4160   33.1170 C   0  0  0  0  0  0  0  0  0  0  0  0
   37.8920   22.1470   33.8140 N   0  0  0  0  0  0  0  0  0  0  0  0
   36.6160   21.5370   36.8810 H   0  0  0  0  0  0  0  0  0  0  0  0
   34.9790   20.2120   35.5170 H   0  0  0  0  0  0  0  0  0  0  0  0
   35.2920   20.1880   33.0720 H   0  0  0  0  0  0  0  0  0  0  0  0
   38.6620   22.9270   35.9870 C   0  0  0  0  0  0  0  0  0  0  0  0
   39.3180   22.3630   36.8700 O   0  0  0  0  0  0  0  0  0  0  0  0
   39.9020   24.8240   35.0060 C   0  0  0  0  0  0  0  0  0  0  0  0
   38.8620   24.3790   35.8360 C   0  0  0  0  0  0  0  0  0  0  0  0
   38.0560   25.3170   36.4900 C   0  0  0  0  0  0  0  0  0  0  0  0
   38.3040   26.6460   36.2990 N   0  0  0  0  0  0  0  0  0  0  0  0
   39.3160   27.0470   35.4910 C   0  0  0  0  0  0  0  0  0  0  0  0
   40.0980   26.1560   34.8570 N   0  0  0  0  0  0  0  0  0  0  0  0
   40.5520   24.1480   34.4790 H   0  0  0  0  0  0  0  0  0  0  0  0
   37.2650   24.9620   37.1220 H   0  0  0  0  0  0  0  0  0  0  0  0
   39.4520   28.1140   35.3880 H   0  0  0  0  0  0  0  0  0  0  0  0
   38.4040   22.6960   30.9420 C   0  0  0  0  0  0  0  0  0  0  0  0
   39.0560   22.3060   30.1230 H   0  0  0  0  0  0  0  0  0  0  0  0
   39.0180   22.9980   31.8090 H   0  0  0  0  0  0  0  0  0  0  0  0
   37.0610   25.9520   31.2720 C   0  0  1  0  0  0  0  0  0  0  0  0
   38.2740   25.1770   30.8030 C   0  0  0  0  0  0  0  0  0  0  0  0
   37.6420   23.8740   30.3810 C   0  0  2  0  0  0  0  0  0  0  0  0
   36.3270   23.8830   30.7660 O   0  0  0  0  0  0  0  0  0  0  0  0
   36.1780   24.8200   31.7790 C   0  0  0  0  0  0  0  0  0  0  0  0
   36.5510   26.3770   30.3830 H   0  0  0  0  0  0  0  0  0  0  0  0
   38.9820   25.0570   31.6510 H   0  0  0  0  0  0  0  0  0  0  0  0
   38.7420   25.6770   29.9460 H   0  0  0  0  0  0  0  0  0  0  0  0
   37.6650   23.8090   29.2770 H   0  0  0  0  0  0  0  0  0  0  0  0
   35.1300   25.1560   31.7800 H   0  0  0  0  0  0  0  0  0  0  0  0
   36.5240   24.4770   32.7650 H   0  0  0  0  0  0  0  0  0  0  0  0
   37.3580   26.8540   32.2680 O   0  0  0  0  0  0  0  0  0  0  0  0
   36.7670   27.8790   32.7670 C   0  0  0  0  0  0  0  0  0  0  0  0
   36.2280   28.3700   34.0020 C   0  0  0  0  0  0  0  0  0  0  0  0
   36.3410   27.6620   34.7990 H   0  0  0  0  0  0  0  0  0  0  0  0
   35.6550   29.6090   34.0590 C   0  0  0  0  0  3  0  0  0  0  0  0
   35.5960   30.4250   32.8660 C   0  0  0  0  0  3  0  0  0  0  0  0
   36.4250   29.3000   31.6140 S   0  0  0  0  0  0  0  0  0  0  0  0
  1  6  1  0  0  0  0
  2  3  1  0  0  0  0
  2 11  1  0  0  0  0
  3  8  1  0  0  0  0
  4  9  1  0  0  0  0
  4  3  2  0  0  0  0
  5  4  1  0  0  0  0
  6  5  2  0  0  0  0
  6  7  1  0  0  0  0
  7  2  2  0  0  0  0
 10  5  1  0  0  0  0
 11 12  2  0  0  0  0
 13 14  1  0  0  0  0
 14 11  1  0  0  0  0
 14 15  2  0  0  0  0
 15 20  1  0  0  0  0
 16 15  1  0  0  0  0
 17 16  2  0  0  0  0
 18 13  2  0  0  0  0
 18 17  1  0  0  0  0
 19 13  1  0  0  0  0
 21 17  1  0  0  0  0
 22  1  1  0  0  0  0
 22 24  1  0  0  0  0
 23 22  1  0  0  0  0
 25 30  1  6  0  0  0
 25 29  1  0  0  0  0
 25 36  1  0  0  0  0
 26 25  1  0  0  0  0
 26 31  1  0  0  0  0
 27 33  1  6  0  0  0
 27 28  1  0  0  0  0
 27 26  1  0  0  0  0
 27 22  1  0  0  0  0
 28 29  1  0  0  0  0
 29 34  1  0  0  0  0
 29 35  1  0  0  0  0
 32 26  1  0  0  0  0
 36 37  1  0  0  0  0
 37 38  2  0  0  0  0
 38 40  1  0  0  0  0
 38 39  1  0  0  0  0
 41 40  2  0  0  0  0
 42 37  1  0  0  0  0
 42 41  1  0  0  0  0
M  END
>  <minimizedAffinity>
-5.48188972

$$$$

 OpenBabel03262522173D

 42 45  0  0  1  0  0  0  0  0999 V2000
   36.7450   26.3860   32.2700 S   0  0  0  0  0  0  0  0  0  0  0  0
   38.0340   24.9280   35.7330 C   0  0  0  0  0  0  0  0  0  0  0  0
   38.4190   26.0740   36.4530 C   0  0  0  0  0  0  0  0  0  0  0  0
   38.3010   27.3340   35.9120 C   0  0  0  0  0  0  0  0  0  0  0  0
   37.7900   27.4010   34.6420 C   0  0  0  0  0  0  0  0  0  0  0  0
   37.4230   26.2890   33.9600 C   0  0  0  0  0  0  0  0  0  0  0  0
   37.5340   25.0370   34.4810 N   0  0  0  0  0  0  0  0  0  0  0  0
   38.8210   25.9670   37.4620 H   0  0  0  0  0  0  0  0  0  0  0  0
   38.5830   28.2400   36.4240 H   0  0  0  0  0  0  0  0  0  0  0  0
   37.6640   28.3560   34.1390 H   0  0  0  0  0  0  0  0  0  0  0  0
   38.1920   23.6560   36.3740 C   0  0  0  0  0  0  0  0  0  0  0  0
   37.2510   23.1330   36.9820 O   0  0  0  0  0  0  0  0  0  0  0  0
   40.0430   22.5420   37.5700 C   0  0  0  0  0  0  0  0  0  0  0  0
   39.4620   22.9100   36.3470 C   0  0  0  0  0  0  0  0  0  0  0  0
   40.1000   22.5620   35.1510 C   0  0  0  0  0  0  0  0  0  0  0  0
   41.2760   21.8700   35.2080 N   0  0  0  0  0  0  0  0  0  0  0  0
   41.8130   21.5270   36.4050 C   0  0  0  0  0  0  0  0  0  0  0  0
   41.2100   21.8560   37.5610 N   0  0  0  0  0  0  0  0  0  0  0  0
   39.5970   22.7830   38.5190 H   0  0  0  0  0  0  0  0  0  0  0  0
   39.6440   22.8500   34.2240 H   0  0  0  0  0  0  0  0  0  0  0  0
   42.7440   20.9800   36.3720 H   0  0  0  0  0  0  0  0  0  0  0  0
   38.1710   26.2840   31.1620 C   0  0  0  0  0  0  0  0  0  0  0  0
   39.0790   26.2960   31.8120 H   0  0  0  0  0  0  0  0  0  0  0  0
   38.2220   27.0990   30.4180 H   0  0  0  0  0  0  0  0  0  0  0  0
   37.5530   22.8020   31.2450 C   0  0  1  0  0  0  0  0  0  0  0  0
   36.9240   24.1420   30.9330 C   0  0  0  0  0  0  0  0  0  0  0  0
   38.1280   24.9330   30.4850 C   0  0  2  0  0  0  0  0  0  0  0  0
   39.2520   24.1880   30.7260 O   0  0  0  0  0  0  0  0  0  0  0  0
   38.9440   23.2360   31.6880 C   0  0  0  0  0  0  0  0  0  0  0  0
   37.6830   22.2460   30.2930 H   0  0  0  0  0  0  0  0  0  0  0  0
   36.4590   24.5520   31.8560 H   0  0  0  0  0  0  0  0  0  0  0  0
   36.1980   24.0460   30.1170 H   0  0  0  0  0  0  0  0  0  0  0  0
   38.0620   25.0930   29.3930 H   0  0  0  0  0  0  0  0  0  0  0  0
   39.6390   22.3910   31.5660 H   0  0  0  0  0  0  0  0  0  0  0  0
   38.9140   23.6260   32.7150 H   0  0  0  0  0  0  0  0  0  0  0  0
   36.8900   22.1200   32.2390 O   0  0  0  0  0  0  0  0  0  0  0  0
   36.4580   20.9190   32.3810 C   0  0  0  0  0  0  0  0  0  0  0  0
   35.4150   20.1730   33.0230 C   0  0  0  0  0  0  0  0  0  0  0  0
   34.7550   20.8060   33.5840 H   0  0  0  0  0  0  0  0  0  0  0  0
   35.3510   18.8160   32.8800 C   0  0  0  0  0  3  0  0  0  0  0  0
   36.3400   18.1340   32.0750 C   0  0  0  0  0  3  0  0  0  0  0  0
   37.4060   19.5730   31.5130 S   0  0  0  0  0  0  0  0  0  0  0  0
  1  6  1  0  0  0  0
  2 11  1  0  0  0  0
  2  3  1  0  0  0  0
  3  8  1  0  0  0  0
  4  9  1  0  0  0  0
  4  3  2  0  0  0  0
  5  4  1  0  0  0  0
  6  7  1  0  0  0  0
  6  5  2  0  0  0  0
  7  2  2  0  0  0  0
 10  5  1  0  0  0  0
 11 12  2  0  0  0  0
 13 19  1  0  0  0  0
 14 11  1  0  0  0  0
 14 13  2  0  0  0  0
 15 16  2  0  0  0  0
 15 14  1  0  0  0  0
 16 17  1  0  0  0  0
 17 18  2  0  0  0  0
 18 13  1  0  0  0  0
 20 15  1  0  0  0  0
 21 17  1  0  0  0  0
 22 23  1  0  0  0  0
 22  1  1  0  0  0  0
 24 22  1  0  0  0  0
 25 30  1  6  0  0  0
 25 29  1  0  0  0  0
 25 36  1  0  0  0  0
 26 25  1  0  0  0  0
 26 31  1  0  0  0  0
 27 33  1  6  0  0  0
 27 28  1  0  0  0  0
 27 26  1  0  0  0  0
 27 22  1  0  0  0  0
 28 29  1  0  0  0  0
 29 35  1  0  0  0  0
 32 26  1  0  0  0  0
 34 29  1  0  0  0  0
 36 37  1  0  0  0  0
 37 38  2  0  0  0  0
 38 39  1  0  0  0  0
 40 38  1  0  0  0  0
 41 40  2  0  0  0  0
 42 41  1  0  0  0  0
 42 37  1  0  0  0  0
M  END
>  <minimizedAffinity>
-5.45990038

$$$$

 OpenBabel03262522173D

 42 45  0  0  1  0  0  0  0  0999 V2000
   38.5360   27.0220   30.5040 S   0  0  0  0  0  0  0  0  0  0  0  0
   39.0800   25.0620   33.9170 C   0  0  0  0  0  0  0  0  0  0  0  0
   40.1110   25.7790   34.5500 C   0  0  0  0  0  0  0  0  0  0  0  0
   40.6800   26.8860   33.9630 C   0  0  0  0  0  0  0  0  0  0  0  0
   40.1850   27.2420   32.7360 C   0  0  0  0  0  0  0  0  0  0  0  0
   39.1910   26.5420   32.1370 C   0  0  0  0  0  0  0  0  0  0  0  0
   38.6180   25.4460   32.7050 N   0  0  0  0  0  0  0  0  0  0  0  0
   40.4710   25.4550   35.5280 H   0  0  0  0  0  0  0  0  0  0  0  0
   41.4720   27.4670   34.4100 H   0  0  0  0  0  0  0  0  0  0  0  0
   40.5770   28.1030   32.2020 H   0  0  0  0  0  0  0  0  0  0  0  0
   38.5450   23.9220   34.6000 C   0  0  0  0  0  0  0  0  0  0  0  0
   38.0060   23.0030   33.9730 O   0  0  0  0  0  0  0  0  0  0  0  0
   39.6160   22.9780   36.6150 C   0  0  0  0  0  0  0  0  0  0  0  0
   38.6050   23.7800   36.0650 C   0  0  0  0  0  0  0  0  0  0  0  0
   37.6920   24.4130   36.9160 C   0  0  0  0  0  0  0  0  0  0  0  0
   37.8130   24.2320   38.2650 N   0  0  0  0  0  0  0  0  0  0  0  0
   38.8010   23.4510   38.7670 C   0  0  0  0  0  0  0  0  0  0  0  0
   39.6840   22.8380   37.9600 N   0  0  0  0  0  0  0  0  0  0  0  0
   40.3450   22.4680   36.0090 H   0  0  0  0  0  0  0  0  0  0  0  0
   36.9240   25.0230   36.4820 H   0  0  0  0  0  0  0  0  0  0  0  0
   38.8340   23.3550   39.8430 H   0  0  0  0  0  0  0  0  0  0  0  0
   36.8370   27.5720   30.7980 C   0  0  0  0  0  0  0  0  0  0  0  0
   36.3000   26.7070   31.2580 H   0  0  0  0  0  0  0  0  0  0  0  0
   36.3100   27.9100   29.8880 H   0  0  0  0  0  0  0  0  0  0  0  0
   35.2590   29.6010   33.2280 C   0  0  1  0  0  0  0  0  0  0  0  0
   36.0360   28.3160   33.0330 C   0  0  0  0  0  0  0  0  0  0  0  0
   36.8860   28.6680   31.8370 C   0  0  2  0  0  0  0  0  0  0  0  0
   36.4680   29.8770   31.3470 O   0  0  0  0  0  0  0  0  0  0  0  0
   35.1730   30.1020   31.7930 C   0  0  0  0  0  0  0  0  0  0  0  0
   35.9030   30.3190   33.7770 H   0  0  0  0  0  0  0  0  0  0  0  0
   35.3260   27.4870   32.8280 H   0  0  0  0  0  0  0  0  0  0  0  0
   36.6650   28.1100   33.9080 H   0  0  0  0  0  0  0  0  0  0  0  0
   37.9340   28.7880   32.1690 H   0  0  0  0  0  0  0  0  0  0  0  0
   35.0010   31.1900   31.8030 H   0  0  0  0  0  0  0  0  0  0  0  0
   34.4020   29.5470   31.2400 H   0  0  0  0  0  0  0  0  0  0  0  0
   34.0140   29.3920   33.7730 O   0  0  0  0  0  0  0  0  0  0  0  0
   33.4260   29.7540   34.8560 C   0  0  0  0  0  0  0  0  0  0  0  0
   32.3550   29.3730   35.7300 C   0  0  0  0  0  0  0  0  0  0  0  0
   31.8530   28.4880   35.3890 H   0  0  0  0  0  0  0  0  0  0  0  0
   32.0780   30.1150   36.8440 C   0  0  0  0  0  3  0  0  0  0  0  0
   32.8720   31.2860   37.1390 C   0  0  0  0  0  3  0  0  0  0  0  0
   34.0760   31.2810   35.6990 S   0  0  0  0  0  0  0  0  0  0  0  0
  1 22  1  0  0  0  0
  1  6  1  0  0  0  0
  2  3  1  0  0  0  0
  2 11  1  0  0  0  0
  3  8  1  0  0  0  0
  4  9  1  0  0  0  0
  4  3  2  0  0  0  0
  5  4  1  0  0  0  0
  6  7  1  0  0  0  0
  6  5  2  0  0  0  0
  7  2  2  0  0  0  0
 10  5  1  0  0  0  0
 11 14  1  0  0  0  0
 12 11  2  0  0  0  0
 13 18  1  0  0  0  0
 14 13  2  0  0  0  0
 14 15  1  0  0  0  0
 15 16  2  0  0  0  0
 16 17  1  0  0  0  0
 17 21  1  0  0  0  0
 18 17  2  0  0  0  0
 19 13  1  0  0  0  0
 20 15  1  0  0  0  0
 22 23  1  0  0  0  0
 22 27  1  0  0  0  0
 24 22  1  0  0  0  0
 25 36  1  0  0  0  0
 25 30  1  1  0  0  0
 26 25  1  0  0  0  0
 26 32  1  0  0  0  0
 27 33  1  1  0  0  0
 27 26  1  0  0  0  0
 28 29  1  0  0  0  0
 28 27  1  0  0  0  0
 29 34  1  0  0  0  0
 29 25  1  0  0  0  0
 31 26  1  0  0  0  0
 35 29  1  0  0  0  0
 36 37  1  0  0  0  0
 37 42  1  0  0  0  0
 37 38  2  0  0  0  0
 38 40  1  0  0  0  0
 39 38  1  0  0  0  0
 40 41  2  0  0  0  0
 42 41  1  0  0  0  0
M  END
>  <minimizedAffinity>
-5.456357

$$$$

 OpenBabel03262522173D

 42 45  0  0  1  0  0  0  0  0999 V2000
   38.2450   27.0370   35.6710 S   0  0  0  0  0  0  0  0  0  0  0  0
   35.5390   29.0750   33.5960 C   0  0  0  0  0  0  0  0  0  0  0  0
   35.5090   28.4170   32.3530 C   0  0  0  0  0  0  0  0  0  0  0  0
   36.3110   27.3290   32.0980 C   0  0  0  0  0  0  0  0  0  0  0  0
   37.1320   26.9300   33.1210 C   0  0  0  0  0  0  0  0  0  0  0  0
   37.1500   27.5730   34.3140 C   0  0  0  0  0  0  0  0  0  0  0  0
   36.3630   28.6500   34.5800 N   0  0  0  0  0  0  0  0  0  0  0  0
   34.8370   28.7740   31.5710 H   0  0  0  0  0  0  0  0  0  0  0  0
   36.3230   26.7930   31.1630 H   0  0  0  0  0  0  0  0  0  0  0  0
   37.7980   26.0790   33.0050 H   0  0  0  0  0  0  0  0  0  0  0  0
   34.6700   30.2000   33.7740 C   0  0  0  0  0  0  0  0  0  0  0  0
   34.5220   31.0350   32.8740 O   0  0  0  0  0  0  0  0  0  0  0  0
   34.3540   31.4310   35.8920 C   0  0  0  0  0  0  0  0  0  0  0  0
   33.9140   30.4250   35.0180 C   0  0  0  0  0  0  0  0  0  0  0  0
   32.7820   29.6730   35.3520 C   0  0  0  0  0  0  0  0  0  0  0  0
   32.1340   29.9410   36.5240 N   0  0  0  0  0  0  0  0  0  0  0  0
   32.5830   30.9200   37.3480 C   0  0  0  0  0  0  0  0  0  0  0  0
   33.6690   31.6490   37.0390 N   0  0  0  0  0  0  0  0  0  0  0  0
   35.2170   32.0390   35.6860 H   0  0  0  0  0  0  0  0  0  0  0  0
   32.4560   28.9070   34.6750 H   0  0  0  0  0  0  0  0  0  0  0  0
   32.0190   31.0750   38.2570 H   0  0  0  0  0  0  0  0  0  0  0  0
   37.8000   25.3160   36.0100 C   0  0  0  0  0  0  0  0  0  0  0  0
   37.0240   25.0360   35.2570 H   0  0  0  0  0  0  0  0  0  0  0  0
   37.4210   25.1430   37.0330 H   0  0  0  0  0  0  0  0  0  0  0  0
   39.3100   22.4540   34.5810 C   0  0  1  0  0  0  0  0  0  0  0  0
   38.9760   23.9090   34.3290 C   0  0  0  0  0  0  0  0  0  0  0  0
   39.0170   24.4660   35.7310 C   0  0  2  0  0  0  0  0  0  0  0  0
   39.1430   23.4230   36.6090 O   0  0  0  0  0  0  0  0  0  0  0  0
   38.7200   22.2640   35.9720 C   0  0  0  0  0  0  0  0  0  0  0  0
   40.4100   22.3610   34.6890 H   0  0  0  0  0  0  0  0  0  0  0  0
   37.9670   23.9780   33.8670 H   0  0  0  0  0  0  0  0  0  0  0  0
   39.7450   24.3770   33.7030 H   0  0  0  0  0  0  0  0  0  0  0  0
   39.9170   25.1000   35.8350 H   0  0  0  0  0  0  0  0  0  0  0  0
   39.2140   21.4080   36.4570 H   0  0  0  0  0  0  0  0  0  0  0  0
   37.6270   22.1560   35.9120 H   0  0  0  0  0  0  0  0  0  0  0  0
   38.7340   21.6090   33.6620 O   0  0  0  0  0  0  0  0  0  0  0  0
   37.5660   21.4980   33.1400 C   0  0  0  0  0  0  0  0  0  0  0  0
   36.2250   21.1080   33.4700 C   0  0  0  0  0  0  0  0  0  0  0  0
   36.1370   20.7970   34.4920 H   0  0  0  0  0  0  0  0  0  0  0  0
   35.2410   21.1590   32.5230 C   0  0  0  0  0  3  0  0  0  0  0  0
   35.5580   21.6090   31.1860 C   0  0  0  0  0  3  0  0  0  0  0  0
   37.3920   21.9690   31.3480 S   0  0  0  0  0  0  0  0  0  0  0  0
  1 22  1  0  0  0  0
  2 11  1  0  0  0  0
  2  7  1  0  0  0  0
  3  2  2  0  0  0  0
  4  3  1  0  0  0  0
  4  5  2  0  0  0  0
  5  6  1  0  0  0  0
  6  7  2  0  0  0  0
  6  1  1  0  0  0  0
  8  3  1  0  0  0  0
  9  4  1  0  0  0  0
 10  5  1  0  0  0  0
 11 14  1  0  0  0  0
 12 11  2  0  0  0  0
 13 18  1  0  0  0  0
 14 15  1  0  0  0  0
 14 13  2  0  0  0  0
 15 16  2  0  0  0  0
 16 17  1  0  0  0  0
 17 21  1  0  0  0  0
 18 17  2  0  0  0  0
 19 13  1  0  0  0  0
 20 15  1  0  0  0  0
 22 24  1  0  0  0  0
 23 22  1  0  0  0  0
 25 30  1  1  0  0  0
 25 29  1  0  0  0  0
 26 25  1  0  0  0  0
 26 27  1  0  0  0  0
 27 33  1  1  0  0  0
 27 22  1  0  0  0  0
 27 28  1  0  0  0  0
 29 34  1  0  0  0  0
 29 28  1  0  0  0  0
 31 26  1  0  0  0  0
 32 26  1  0  0  0  0
 35 29  1  0  0  0  0
 36 25  1  0  0  0  0
 37 38  2  0  0  0  0
 37 36  1  0  0  0  0
 38 39  1  0  0  0  0
 40 38  1  0  0  0  0
 41 42  1  0  0  0  0
 41 40  2  0  0  0  0
 42 37  1  0  0  0  0
M  END
>  <minimizedAffinity>
-5.41777325

$$$$

 OpenBabel03262522173D

 42 45  0  0  1  0  0  0  0  0999 V2000
   32.8510   30.3250   33.2040 S   0  0  0  0  0  0  0  0  0  0  0  0
   35.9260   28.0190   32.1960 C   0  0  0  0  0  0  0  0  0  0  0  0
   36.6960   27.9600   33.3720 C   0  0  0  0  0  0  0  0  0  0  0  0
   36.3090   28.6190   34.5160 C   0  0  0  0  0  0  0  0  0  0  0  0
   35.1400   29.3290   34.4390 C   0  0  0  0  0  0  0  0  0  0  0  0
   34.4070   29.3770   33.2990 C   0  0  0  0  0  0  0  0  0  0  0  0
   34.7760   28.7310   32.1600 N   0  0  0  0  0  0  0  0  0  0  0  0
   37.6200   27.3800   33.3810 H   0  0  0  0  0  0  0  0  0  0  0  0
   36.8650   28.6040   35.4390 H   0  0  0  0  0  0  0  0  0  0  0  0
   34.7610   29.8800   35.2960 H   0  0  0  0  0  0  0  0  0  0  0  0
   36.4030   27.3020   31.0510 C   0  0  0  0  0  0  0  0  0  0  0  0
   36.7050   27.8990   30.0100 O   0  0  0  0  0  0  0  0  0  0  0  0
   35.4100   25.0440   31.1570 C   0  0  0  0  0  0  0  0  0  0  0  0
   36.5610   25.8380   31.0460 C   0  0  0  0  0  0  0  0  0  0  0  0
   37.8120   25.2200   30.9350 C   0  0  0  0  0  0  0  0  0  0  0  0
   37.8770   23.8560   30.9380 N   0  0  0  0  0  0  0  0  0  0  0  0
   36.7460   23.1150   31.0460 C   0  0  0  0  0  0  0  0  0  0  0  0
   35.5380   23.6960   31.1530 N   0  0  0  0  0  0  0  0  0  0  0  0
   34.4230   25.4640   31.2440 H   0  0  0  0  0  0  0  0  0  0  0  0
   38.6840   25.8390   30.8510 H   0  0  0  0  0  0  0  0  0  0  0  0
   36.8750   22.0420   31.0400 H   0  0  0  0  0  0  0  0  0  0  0  0
   31.5240   29.1060   33.3620 C   0  0  0  0  0  0  0  0  0  0  0  0
   32.0200   28.1130   33.4940 H   0  0  0  0  0  0  0  0  0  0  0  0
   30.8330   29.0770   32.5010 H   0  0  0  0  0  0  0  0  0  0  0  0
   31.4840   30.1470   36.7430 C   0  0  1  0  0  0  0  0  0  0  0  0
   31.3370   30.6340   35.3170 C   0  0  0  0  0  0  0  0  0  0  0  0
   30.7810   29.4040   34.6440 C   0  0  2  0  0  0  0  0  0  0  0  0
   30.8270   28.3630   35.5330 O   0  0  0  0  0  0  0  0  0  0  0  0
   31.7640   28.6690   36.5120 C   0  0  0  0  0  0  0  0  0  0  0  0
   30.4920   30.2080   37.2370 H   0  0  0  0  0  0  0  0  0  0  0  0
   32.3360   30.9250   34.9250 H   0  0  0  0  0  0  0  0  0  0  0  0
   30.6200   31.4620   35.2650 H   0  0  0  0  0  0  0  0  0  0  0  0
   29.7180   29.5840   34.3970 H   0  0  0  0  0  0  0  0  0  0  0  0
   31.5010   28.1070   37.4210 H   0  0  0  0  0  0  0  0  0  0  0  0
   32.8070   28.5210   36.1980 H   0  0  0  0  0  0  0  0  0  0  0  0
   32.5150   30.7640   37.4130 O   0  0  0  0  0  0  0  0  0  0  0  0
   33.3530   31.6940   37.1260 C   0  0  0  0  0  0  0  0  0  0  0  0
   34.7220   31.8890   36.7450 C   0  0  0  0  0  0  0  0  0  0  0  0
   35.2530   30.9610   36.6660 H   0  0  0  0  0  0  0  0  0  0  0  0
   35.2040   33.1500   36.5320 C   0  0  0  0  0  3  0  0  0  0  0  0
   34.3260   34.2870   36.6910 C   0  0  0  0  0  3  0  0  0  0  0  0
   32.7220   33.4450   37.1770 S   0  0  0  0  0  0  0  0  0  0  0  0
  1  6  1  0  0  0  0
  1 22  1  0  0  0  0
  2  3  1  0  0  0  0
  3  8  1  0  0  0  0
  3  4  2  0  0  0  0
  4  9  1  0  0  0  0
  5  4  1  0  0  0  0
  5 10  1  0  0  0  0
  6  5  2  0  0  0  0
  7  2  2  0  0  0  0
  7  6  1  0  0  0  0
 11  2  1  0  0  0  0
 12 11  2  0  0  0  0
 13 19  1  0  0  0  0
 14 11  1  0  0  0  0
 14 13  2  0  0  0  0
 15 16  2  0  0  0  0
 15 14  1  0  0  0  0
 16 17  1  0  0  0  0
 17 18  2  0  0  0  0
 18 13  1  0  0  0  0
 20 15  1  0  0  0  0
 21 17  1  0  0  0  0
 22 23  1  0  0  0  0
 22 27  1  0  0  0  0
 24 22  1  0  0  0  0
 25 30  1  1  0  0  0
 25 36  1  0  0  0  0
 26 25  1  0  0  0  0
 27 33  1  6  0  0  0
 27 26  1  0  0  0  0
 27 28  1  0  0  0  0
 28 29  1  0  0  0  0
 29 25  1  0  0  0  0
 29 34  1  0  0  0  0
 31 26  1  0  0  0  0
 32 26  1  0  0  0  0
 35 29  1  0  0  0  0
 37 42  1  0  0  0  0
 37 36  1  0  0  0  0
 38 37  2  0  0  0  0
 39 38  1  0  0  0  0
 40 41  2  0  0  0  0
 40 38  1  0  0  0  0
 41 42  1  0  0  0  0
M  END
>  <minimizedAffinity>
-5.34020138

$$$$

 OpenBabel03262522173D

 42 45  0  0  1  0  0  0  0  0999 V2000
   40.7250   27.0940   33.4130 S   0  0  0  0  0  0  0  0  0  0  0  0
   38.9260   24.3120   35.6060 C   0  0  0  0  0  0  0  0  0  0  0  0
   38.1690   25.0560   36.5290 C   0  0  0  0  0  0  0  0  0  0  0  0
   38.1770   26.4320   36.5200 C   0  0  0  0  0  0  0  0  0  0  0  0
   38.9600   27.0260   35.5650 C   0  0  0  0  0  0  0  0  0  0  0  0
   39.6850   26.2970   34.6810 C   0  0  0  0  0  0  0  0  0  0  0  0
   39.6870   24.9360   34.6780 N   0  0  0  0  0  0  0  0  0  0  0  0
   37.5610   24.5350   37.2710 H   0  0  0  0  0  0  0  0  0  0  0  0
   37.6140   27.0440   37.2060 H   0  0  0  0  0  0  0  0  0  0  0  0
   39.0240   28.1070   35.4870 H   0  0  0  0  0  0  0  0  0  0  0  0
   38.8590   22.8830   35.6890 C   0  0  0  0  0  0  0  0  0  0  0  0
   39.7570   22.2380   36.2430 O   0  0  0  0  0  0  0  0  0  0  0  0
   37.6800   21.9350   33.7370 C   0  0  0  0  0  0  0  0  0  0  0  0
   37.7370   22.1120   35.1280 C   0  0  0  0  0  0  0  0  0  0  0  0
   36.7350   21.5570   35.9320 C   0  0  0  0  0  0  0  0  0  0  0  0
   35.7260   20.8540   35.3370 N   0  0  0  0  0  0  0  0  0  0  0  0
   35.6980   20.7000   33.9910 C   0  0  0  0  0  0  0  0  0  0  0  0
   36.6540   21.2290   33.2070 N   0  0  0  0  0  0  0  0  0  0  0  0
   38.4220   22.3400   33.0710 H   0  0  0  0  0  0  0  0  0  0  0  0
   36.7910   21.6990   36.9940 H   0  0  0  0  0  0  0  0  0  0  0  0
   34.8700   20.1310   33.5920 H   0  0  0  0  0  0  0  0  0  0  0  0
   40.8500   25.9000   32.0590 C   0  0  0  0  0  0  0  0  0  0  0  0
   40.6460   24.8950   32.5040 H   0  0  0  0  0  0  0  0  0  0  0  0
   41.8290   25.9000   31.5470 H   0  0  0  0  0  0  0  0  0  0  0  0
   37.4530   26.6160   31.3830 C   0  0  1  0  0  0  0  0  0  0  0  0
   38.8040   27.2500   31.6340 C   0  0  0  0  0  0  0  0  0  0  0  0
   39.7300   26.1910   31.0890 C   0  0  2  0  0  0  0  0  0  0  0  0
   38.9890   25.0780   30.7900 O   0  0  0  0  0  0  0  0  0  0  0  0
   37.8030   25.1390   31.5100 C   0  0  0  0  0  0  0  0  0  0  0  0
   37.1770   26.7860   30.3220 H   0  0  0  0  0  0  0  0  0  0  0  0
   38.9340   27.4150   32.7250 H   0  0  0  0  0  0  0  0  0  0  0  0
   38.9030   28.1820   31.0650 H   0  0  0  0  0  0  0  0  0  0  0  0
   40.1730   26.5580   30.1450 H   0  0  0  0  0  0  0  0  0  0  0  0
   37.0480   24.5440   30.9730 H   0  0  0  0  0  0  0  0  0  0  0  0
   37.9030   24.8590   32.5680 H   0  0  0  0  0  0  0  0  0  0  0  0
   36.5060   26.9970   32.3060 O   0  0  0  0  0  0  0  0  0  0  0  0
   36.2010   28.1020   32.8860 C   0  0  0  0  0  0  0  0  0  0  0  0
   36.0420   28.6740   34.1920 C   0  0  0  0  0  0  0  0  0  0  0  0
   36.2360   27.9610   34.9690 H   0  0  0  0  0  0  0  0  0  0  0  0
   35.6790   29.9840   34.3290 C   0  0  0  0  0  3  0  0  0  0  0  0
   35.4590   30.7930   33.1510 C   0  0  0  0  0  3  0  0  0  0  0  0
   35.8030   29.5510   31.7880 S   0  0  0  0  0  0  0  0  0  0  0  0
  1  6  1  0  0  0  0
  2 11  1  0  0  0  0
  2  3  1  0  0  0  0
  3  8  1  0  0  0  0
  4  3  2  0  0  0  0
  4  9  1  0  0  0  0
  5  4  1  0  0  0  0
  6  5  2  0  0  0  0
  7  6  1  0  0  0  0
  7  2  2  0  0  0  0
 10  5  1  0  0  0  0
 11 12  2  0  0  0  0
 13 14  1  0  0  0  0
 14 11  1  0  0  0  0
 14 15  2  0  0  0  0
 15 20  1  0  0  0  0
 16 15  1  0  0  0  0
 17 16  2  0  0  0  0
 18 13  2  0  0  0  0
 18 17  1  0  0  0  0
 19 13  1  0  0  0  0
 21 17  1  0  0  0  0
 22 23  1  0  0  0  0
 22  1  1  0  0  0  0
 24 22  1  0  0  0  0
 25 30  1  6  0  0  0
 25 29  1  0  0  0  0
 25 26  1  0  0  0  0
 25 36  1  0  0  0  0
 26 31  1  0  0  0  0
 27 33  1  6  0  0  0
 27 26  1  0  0  0  0
 27 22  1  0  0  0  0
 28 27  1  0  0  0  0
 28 29  1  0  0  0  0
 29 35  1  0  0  0  0
 32 26  1  0  0  0  0
 34 29  1  0  0  0  0
 36 37  1  0  0  0  0
 37 38  2  0  0  0  0
 38 40  1  0  0  0  0
 38 39  1  0  0  0  0
 41 40  2  0  0  0  0
 42 37  1  0  0  0  0
 42 41  1  0  0  0  0
M  END
>  <minimizedAffinity>
-5.34016705

$$$$

 OpenBabel03262522173D

 42 45  0  0  1  0  0  0  0  0999 V2000
   39.0450   26.4320   35.2380 S   0  0  0  0  0  0  0  0  0  0  0  0
   36.0270   28.5820   33.8080 C   0  0  0  0  0  0  0  0  0  0  0  0
   35.9110   28.1470   32.4760 C   0  0  0  0  0  0  0  0  0  0  0  0
   36.7470   27.1830   31.9610 C   0  0  0  0  0  0  0  0  0  0  0  0
   37.6890   26.6790   32.8190 C   0  0  0  0  0  0  0  0  0  0  0  0
   37.7890   27.1080   34.1010 C   0  0  0  0  0  0  0  0  0  0  0  0
   36.9700   28.0600   34.6240 N   0  0  0  0  0  0  0  0  0  0  0  0
   35.1440   28.5800   31.8320 H   0  0  0  0  0  0  0  0  0  0  0  0
   36.6970   26.8180   30.9480 H   0  0  0  0  0  0  0  0  0  0  0  0
   38.3900   25.9140   32.4950 H   0  0  0  0  0  0  0  0  0  0  0  0
   35.1140   29.5900   34.2600 C   0  0  0  0  0  0  0  0  0  0  0  0
   33.9320   29.3150   34.4950 O   0  0  0  0  0  0  0  0  0  0  0  0
   35.8820   31.3930   35.7630 C   0  0  0  0  0  0  0  0  0  0  0  0
   35.5230   30.9900   34.4680 C   0  0  0  0  0  0  0  0  0  0  0  0
   35.5630   31.9210   33.4240 C   0  0  0  0  0  0  0  0  0  0  0  0
   35.9530   33.2010   33.6970 N   0  0  0  0  0  0  0  0  0  0  0  0
   36.2950   33.5610   34.9580 C   0  0  0  0  0  0  0  0  0  0  0  0
   36.2610   32.6760   35.9700 N   0  0  0  0  0  0  0  0  0  0  0  0
   35.8700   30.7200   36.6030 H   0  0  0  0  0  0  0  0  0  0  0  0
   35.2860   31.6000   32.4390 H   0  0  0  0  0  0  0  0  0  0  0  0
   36.5940   34.5900   35.0980 H   0  0  0  0  0  0  0  0  0  0  0  0
   38.1500   25.3300   36.3610 C   0  0  0  0  0  0  0  0  0  0  0  0
   37.1520   25.1460   35.8940 H   0  0  0  0  0  0  0  0  0  0  0  0
   38.0270   25.7320   37.3820 H   0  0  0  0  0  0  0  0  0  0  0  0
   38.8880   22.1820   34.9250 C   0  0  1  0  0  0  0  0  0  0  0  0
   39.3430   23.6240   34.9960 C   0  0  0  0  0  0  0  0  0  0  0  0
   38.8810   24.0080   36.3810 C   0  0  2  0  0  0  0  0  0  0  0  0
   38.1130   22.9900   36.8810 O   0  0  0  0  0  0  0  0  0  0  0  0
   37.6530   22.2290   35.8140 C   0  0  0  0  0  0  0  0  0  0  0  0
   39.6340   21.5530   35.4520 H   0  0  0  0  0  0  0  0  0  0  0  0
   38.8370   24.2080   34.1970 H   0  0  0  0  0  0  0  0  0  0  0  0
   40.4350   23.6870   34.9210 H   0  0  0  0  0  0  0  0  0  0  0  0
   39.7670   24.1090   37.0350 H   0  0  0  0  0  0  0  0  0  0  0  0
   37.4410   21.2150   36.1870 H   0  0  0  0  0  0  0  0  0  0  0  0
   36.8080   22.6770   35.2730 H   0  0  0  0  0  0  0  0  0  0  0  0
   38.5810   21.7840   33.6450 O   0  0  0  0  0  0  0  0  0  0  0  0
   37.6090   22.0080   32.8350 C   0  0  0  0  0  0  0  0  0  0  0  0
   36.8900   23.0860   32.2200 C   0  0  0  0  0  0  0  0  0  0  0  0
   37.2680   24.0440   32.5200 H   0  0  0  0  0  0  0  0  0  0  0  0
   35.8550   22.8250   31.3670 C   0  0  0  0  0  3  0  0  0  0  0  0
   35.4890   21.4550   31.0850 C   0  0  0  0  0  3  0  0  0  0  0  0
   36.7340   20.5230   32.1330 S   0  0  0  0  0  0  0  0  0  0  0  0
  1 22  1  0  0  0  0
  2 11  1  0  0  0  0
  2  7  1  0  0  0  0
  3  2  2  0  0  0  0
  4  3  1  0  0  0  0
  4  5  2  0  0  0  0
  5  6  1  0  0  0  0
  6  7  2  0  0  0  0
  6  1  1  0  0  0  0
  8  3  1  0  0  0  0
  9  4  1  0  0  0  0
 10  5  1  0  0  0  0
 11 14  1  0  0  0  0
 11 12  2  0  0  0  0
 13 18  1  0  0  0  0
 13 19  1  0  0  0  0
 14 13  2  0  0  0  0
 15 16  2  0  0  0  0
 15 14  1  0  0  0  0
 16 17  1  0  0  0  0
 17 21  1  0  0  0  0
 17 18  2  0  0  0  0
 20 15  1  0  0  0  0
 22 27  1  0  0  0  0
 22 24  1  0  0  0  0
 23 22  1  0  0  0  0
 25 26  1  0  0  0  0
 25 30  1  1  0  0  0
 25 29  1  0  0  0  0
 26 27  1  0  0  0  0
 27 28  1  0  0  0  0
 27 33  1  1  0  0  0
 29 34  1  0  0  0  0
 29 28  1  0  0  0  0
 31 26  1  0  0  0  0
 32 26  1  0  0  0  0
 35 29  1  0  0  0  0
 36 25  1  0  0  0  0
 37 36  1  0  0  0  0
 38 39  1  0  0  0  0
 38 37  2  0  0  0  0
 40 38  1  0  0  0  0
 41 40  2  0  0  0  0
 41 42  1  0  0  0  0
 42 37  1  0  0  0  0
M  END
>  <minimizedAffinity>
-5.26438141

$$$$
