
 OpenBabel03272510333D

 25 27  0  0  0  0  0  0  0  0999 V2000
   36.9930   30.7510   45.5330 C   0  0  0  0  0  0  0  0  0  0  0  0
   36.3340   30.4740   44.3550 C   0  0  0  0  0  0  0  0  0  0  0  0
   35.0510   29.9620   44.3620 C   0  0  0  0  0  0  0  0  0  0  0  0
   34.4410   29.7330   45.5720 C   0  0  0  0  0  0  0  0  0  0  0  0
   35.0770   30.0020   46.7650 C   0  0  0  0  0  0  0  0  0  0  0  0
   36.3610   30.5140   46.7450 C   0  0  0  0  0  0  0  0  0  0  0  0
   36.8180   30.6540   43.3840 H   0  0  0  0  0  0  0  0  0  0  0  0
   34.5320   29.7420   43.4360 H   0  0  0  0  0  0  0  0  0  0  0  0
   33.4330   29.3350   45.6640 H   0  0  0  0  0  0  0  0  0  0  0  0
   34.6700   29.8510   47.7640 H   0  0  0  0  0  0  0  0  0  0  0  0
   39.6490   33.1530   44.9300 C   0  0  0  0  0  0  0  0  0  0  0  0
   40.8270   32.4520   45.1860 C   0  0  0  0  0  0  0  0  0  0  0  0
   40.6840   31.1080   45.5780 C   0  0  0  0  0  0  0  0  0  0  0  0
   39.4410   30.5760   45.6860 N   0  0  0  0  0  0  0  0  0  0  0  0
   38.3360   31.2880   45.4300 C   0  0  0  0  0  0  0  0  0  0  0  0
   38.4480   32.5890   45.0490 N   0  0  0  0  0  0  0  0  0  0  0  0
   39.7560   34.2030   44.6230 H   0  0  0  0  0  0  0  0  0  0  0  0
   41.7850   32.9590   45.0740 H   0  0  0  0  0  0  0  0  0  0  0  0
   41.5970   30.5700   45.7750 H   0  0  0  0  0  0  0  0  0  0  0  0
   37.0920   30.8200   47.9870 C   0  0  0  0  0  0  0  0  0  0  0  0
   37.2710   29.8710   49.0430 C   0  0  0  0  0  0  0  0  0  0  0  0
   36.8660   28.8750   48.9640 H   0  0  0  0  0  0  0  0  0  0  0  0
   37.9700   30.2770   50.1460 C   0  0  0  0  0  3  0  0  0  0  0  0
   38.4750   31.6040   50.1870 C   0  0  0  0  0  3  0  0  0  0  0  0
   37.9610   32.3430   48.6110 S   0  0  0  0  0  0  0  0  0  0  0  0
  1  6  1  0  0  0  0
  2  3  1  0  0  0  0
  2  1  2  0  0  0  0
  3  4  2  0  0  0  0
  4  9  1  0  0  0  0
  4  5  1  0  0  0  0
  5 10  1  0  0  0  0
  6  5  2  0  0  0  0
  6 20  1  0  0  0  0
  7  2  1  0  0  0  0
  8  3  1  0  0  0  0
 11 16  2  0  0  0  0
 11 12  1  0  0  0  0
 12 13  2  0  0  0  0
 13 14  1  0  0  0  0
 13 19  1  0  0  0  0
 15  1  1  0  0  0  0
 15 14  2  0  0  0  0
 16 15  1  0  0  0  0
 17 11  1  0  0  0  0
 18 12  1  0  0  0  0
 20 25  1  0  0  0  0
 20 21  2  0  0  0  0
 21 23  1  0  0  0  0
 22 21  1  0  0  0  0
 23 24  2  0  0  0  0
 25 24  1  0  0  0  0
M  END
>  <minimizedAffinity>
-5.45110512

>  <minimizedRMSD>
3.43742299

$$$$
