
 OpenBabel03272510023D

 18 19  0  0  0  0  0  0  0  0999 V2000
   38.1210   33.0930   49.5110 C   0  0  0  0  0  0  0  0  0  0  0  0
   38.8330   33.0010   48.2960 C   0  0  0  0  0  0  0  0  0  0  0  0
   38.4870   31.9600   47.4500 C   0  0  0  0  0  0  0  0  0  0  0  0
   37.5090   31.0960   47.8060 N   0  0  0  0  0  0  0  0  0  0  0  0
   36.8490   31.2190   48.9810 C   0  0  0  0  0  0  0  0  0  0  0  0
   37.1690   32.2170   49.8140 N   0  0  0  0  0  0  0  0  0  0  0  0
   38.3720   33.9010   50.1950 H   0  0  0  0  0  0  0  0  0  0  0  0
   39.5850   33.7200   48.0950 H   0  0  0  0  0  0  0  0  0  0  0  0
   39.1760   31.8070   46.1890 C   0  0  0  0  0  0  0  0  0  0  0  0
   40.3270   31.2290   45.7910 C   0  0  0  0  0  0  0  0  0  0  0  0
   40.8800   30.7610   46.6100 H   0  0  0  0  0  0  0  0  0  0  0  0
   40.7150   31.2520   44.5010 C   0  0  0  0  0  3  0  0  0  0  0  0
   39.8690   31.8980   43.6150 C   0  0  0  0  0  3  0  0  0  0  0  0
   38.4780   32.4810   44.7130 S   0  0  0  0  0  0  0  0  0  0  0  0
   35.7920   30.2350   49.3010 C   0  0  0  0  0  0  0  0  0  0  0  0
   36.1360   29.3990   50.3520 F   0  0  0  0  0  0  0  0  0  0  0  0
   34.6130   30.8610   49.6700 F   0  0  0  0  0  0  0  0  0  0  0  0
   35.4610   29.4360   48.2260 F   0  0  0  0  0  0  0  0  0  0  0  0
  1  6  1  0  0  0  0
  1  7  1  0  0  0  0
  2  1  2  0  0  0  0
  3  4  2  0  0  0  0
  3  2  1  0  0  0  0
  4  5  1  0  0  0  0
  5 15  1  0  0  0  0
  5  6  2  0  0  0  0
  8  2  1  0  0  0  0
  9  3  1  0  0  0  0
 10  9  2  0  0  0  0
 10 11  1  0  0  0  0
 12 10  1  0  0  0  0
 13 12  2  0  0  0  0
 13 14  1  0  0  0  0
 14  9  1  0  0  0  0
 15 17  1  0  0  0  0
 15 16  1  0  0  0  0
 18 15  1  0  0  0  0
M  END
>  <minimizedAffinity>
-5.36991119

>  <minimizedRMSD>
2.18202519

$$$$
