
 OpenBabel03272501063D

 27 29  0  0  1  0  0  0  0  0999 V2000
   38.0650   26.2930   34.6360 C   0  0  2  0  0  0  0  0  0  0  0  0
   38.4550   25.7640   33.2250 C   0  0  2  0  0  0  0  0  0  0  0  0
   39.2500   26.9070   32.7470 C   0  0  0  0  0  0  0  0  0  0  0  0
   39.9870   27.3710   33.8350 O   0  0  0  0  0  0  0  0  0  0  0  0
   39.4390   26.8790   34.9860 C   0  0  0  0  0  0  0  0  0  0  0  0
   37.3150   27.0960   34.5330 H   0  0  0  0  0  0  0  0  0  0  0  0
   39.1270   24.9020   33.4610 H   0  0  0  0  0  0  0  0  0  0  0  0
   38.5720   27.7360   32.3880 H   0  0  0  0  0  0  0  0  0  0  0  0
   39.9000   26.6460   31.8970 H   0  0  0  0  0  0  0  0  0  0  0  0
   39.3710   27.6040   35.8140 H   0  0  0  0  0  0  0  0  0  0  0  0
   40.0500   25.9890   35.2810 H   0  0  0  0  0  0  0  0  0  0  0  0
   35.8330   23.7110   31.4480 C   0  0  0  0  0  0  0  0  0  0  0  0
   36.9750   24.0230   32.2330 C   0  0  0  0  0  0  0  0  0  0  0  0
   37.3030   25.3860   32.4500 C   0  0  0  0  0  0  0  0  0  0  0  0
   36.4820   26.3300   31.8780 N   0  0  0  0  0  0  0  0  0  0  0  0
   35.4170   26.0010   31.1450 C   0  0  0  0  0  0  0  0  0  0  0  0
   35.0800   24.7090   30.9220 N   0  0  0  0  0  0  0  0  0  0  0  0
   35.5560   22.6830   31.2640 H   0  0  0  0  0  0  0  0  0  0  0  0
   37.5740   23.2250   32.6500 H   0  0  0  0  0  0  0  0  0  0  0  0
   34.8590   26.8560   30.7530 H   0  0  0  0  0  0  0  0  0  0  0  0
   37.7660   25.2590   35.4830 O   0  0  0  0  0  0  0  0  0  0  0  0
   38.4860   24.4190   36.1660 C   0  0  0  0  0  0  0  0  0  0  0  0
   38.0180   24.3150   37.5600 C   0  0  0  0  0  0  0  0  0  0  0  0
   37.2280   24.7710   38.1250 H   0  0  0  0  0  0  0  0  0  0  0  0
   38.7110   23.4600   38.3470 C   0  0  0  0  0  3  0  0  0  0  0  0
   39.8500   22.6720   37.9020 C   0  0  0  0  0  3  0  0  0  0  0  0
   39.9500   23.2210   36.1140 S   0  0  0  0  0  0  0  0  0  0  0  0
  1  6  1  6  0  0  0
  1  5  1  0  0  0  0
  1 21  1  0  0  0  0
  2  7  1  1  0  0  0
  2  1  1  0  0  0  0
  3  2  1  0  0  0  0
  3  4  1  0  0  0  0
  4  5  1  0  0  0  0
  5 11  1  0  0  0  0
  5 10  1  0  0  0  0
  8  3  1  0  0  0  0
  9  3  1  0  0  0  0
 12 13  1  0  0  0  0
 13 14  2  0  0  0  0
 13 19  1  0  0  0  0
 14  2  1  0  0  0  0
 15 14  1  0  0  0  0
 16 15  2  0  0  0  0
 17 16  1  0  0  0  0
 17 12  2  0  0  0  0
 18 12  1  0  0  0  0
 20 16  1  0  0  0  0
 21 22  1  0  0  0  0
 22 23  2  0  0  0  0
 23 24  1  0  0  0  0
 23 25  1  0  0  0  0
 26 25  2  0  0  0  0
 27 22  1  0  0  0  0
 27 26  1  0  0  0  0
M  END
>  <minimizedAffinity>
-4.59687424

$$$$

 OpenBabel03272501063D

 27 29  0  0  1  0  0  0  0  0999 V2000
   35.8030   29.3400   33.7190 C   0  0  2  0  0  0  0  0  0  0  0  0
   34.3230   29.8030   33.8390 C   0  0  2  0  0  0  0  0  0  0  0  0
   34.2000   30.5600   32.5840 C   0  0  0  0  0  0  0  0  0  0  0  0
   34.9080   29.8530   31.6140 O   0  0  0  0  0  0  0  0  0  0  0  0
   35.7470   28.9690   32.2320 C   0  0  0  0  0  0  0  0  0  0  0  0
   36.4720   30.2020   33.8790 H   0  0  0  0  0  0  0  0  0  0  0  0
   33.7550   28.8420   33.7640 H   0  0  0  0  0  0  0  0  0  0  0  0
   34.6620   31.5850   32.6950 H   0  0  0  0  0  0  0  0  0  0  0  0
   33.1520   30.7210   32.2850 H   0  0  0  0  0  0  0  0  0  0  0  0
   36.7560   28.9030   31.7920 H   0  0  0  0  0  0  0  0  0  0  0  0
   35.2370   27.9730   32.2160 H   0  0  0  0  0  0  0  0  0  0  0  0
   34.7530   32.0250   36.8600 C   0  0  0  0  0  0  0  0  0  0  0  0
   35.0510   31.3640   35.6390 C   0  0  0  0  0  0  0  0  0  0  0  0
   34.0730   30.5100   35.0690 C   0  0  0  0  0  0  0  0  0  0  0  0
   32.8830   30.3740   35.7450 N   0  0  0  0  0  0  0  0  0  0  0  0
   32.6370   31.0110   36.8920 C   0  0  0  0  0  0  0  0  0  0  0  0
   33.5510   31.8320   37.4580 N   0  0  0  0  0  0  0  0  0  0  0  0
   35.4760   32.6830   37.3210 H   0  0  0  0  0  0  0  0  0  0  0  0
   36.0110   31.5200   35.1640 H   0  0  0  0  0  0  0  0  0  0  0  0
   31.6500   30.8060   37.3160 H   0  0  0  0  0  0  0  0  0  0  0  0
   36.0310   28.2190   34.4740 O   0  0  0  0  0  0  0  0  0  0  0  0
   36.9960   27.3510   34.5250 C   0  0  0  0  0  0  0  0  0  0  0  0
   37.9990   27.7160   35.5410 C   0  0  0  0  0  0  0  0  0  0  0  0
   38.1060   28.5260   36.2370 H   0  0  0  0  0  0  0  0  0  0  0  0
   39.0440   26.8650   35.6650 C   0  0  0  0  0  3  0  0  0  0  0  0
   39.2180   25.6570   34.8730 C   0  0  0  0  0  3  0  0  0  0  0  0
   37.6820   25.7400   33.8050 S   0  0  0  0  0  0  0  0  0  0  0  0
  1  2  1  0  0  0  0
  1  6  1  1  0  0  0
  1 21  1  0  0  0  0
  2  7  1  6  0  0  0
  2 14  1  0  0  0  0
  3  8  1  0  0  0  0
  3  2  1  0  0  0  0
  4  5  1  0  0  0  0
  4  3  1  0  0  0  0
  5  1  1  0  0  0  0
  9  3  1  0  0  0  0
 10  5  1  0  0  0  0
 11  5  1  0  0  0  0
 12 18  1  0  0  0  0
 12 17  1  0  0  0  0
 13 12  2  0  0  0  0
 14 13  1  0  0  0  0
 14 15  2  0  0  0  0
 15 16  1  0  0  0  0
 16 20  1  0  0  0  0
 16 17  2  0  0  0  0
 19 13  1  0  0  0  0
 21 22  1  0  0  0  0
 22 23  2  0  0  0  0
 23 25  1  0  0  0  0
 23 24  1  0  0  0  0
 26 25  2  0  0  0  0
 27 22  1  0  0  0  0
 27 26  1  0  0  0  0
M  END
>  <minimizedAffinity>
-4.44162989

$$$$

 OpenBabel03272501063D

 27 29  0  0  1  0  0  0  0  0999 V2000
   38.3830   23.0090   33.6730 C   0  0  2  0  0  0  0  0  0  0  0  0
   38.1740   24.2170   34.6300 C   0  0  2  0  0  0  0  0  0  0  0  0
   39.0360   25.2080   33.9660 C   0  0  0  0  0  0  0  0  0  0  0  0
   38.8700   25.0330   32.5940 O   0  0  0  0  0  0  0  0  0  0  0  0
   38.3050   23.8100   32.3660 C   0  0  0  0  0  0  0  0  0  0  0  0
   39.3970   22.5970   33.8160 H   0  0  0  0  0  0  0  0  0  0  0  0
   37.0980   24.4770   34.4710 H   0  0  0  0  0  0  0  0  0  0  0  0
   40.1200   25.0270   34.2270 H   0  0  0  0  0  0  0  0  0  0  0  0
   38.8100   26.2420   34.2740 H   0  0  0  0  0  0  0  0  0  0  0  0
   38.7370   23.2490   31.5200 H   0  0  0  0  0  0  0  0  0  0  0  0
   37.2100   23.9820   32.2150 H   0  0  0  0  0  0  0  0  0  0  0  0
   38.0630   24.0480   38.4000 C   0  0  0  0  0  0  0  0  0  0  0  0
   37.7080   24.4020   37.0700 C   0  0  0  0  0  0  0  0  0  0  0  0
   38.4780   23.8840   35.9980 C   0  0  0  0  0  0  0  0  0  0  0  0
   39.5330   23.0630   36.3180 N   0  0  0  0  0  0  0  0  0  0  0  0
   39.8390   22.7520   37.5800 C   0  0  0  0  0  0  0  0  0  0  0  0
   39.1220   23.2310   38.6230 N   0  0  0  0  0  0  0  0  0  0  0  0
   37.4970   24.4250   39.2390 H   0  0  0  0  0  0  0  0  0  0  0  0
   36.8630   25.0540   36.8960 H   0  0  0  0  0  0  0  0  0  0  0  0
   40.7040   22.0910   37.6820 H   0  0  0  0  0  0  0  0  0  0  0  0
   37.3330   22.1330   33.7500 O   0  0  0  0  0  0  0  0  0  0  0  0
   37.0200   21.0470   33.1080 C   0  0  0  0  0  0  0  0  0  0  0  0
   35.7310   20.5000   33.5680 C   0  0  0  0  0  0  0  0  0  0  0  0
   35.0070   20.7940   34.3030 H   0  0  0  0  0  0  0  0  0  0  0  0
   35.3230   19.3660   32.9520 C   0  0  0  0  0  3  0  0  0  0  0  0
   36.0660   18.6880   31.9010 C   0  0  0  0  0  3  0  0  0  0  0  0
   37.5520   19.8210   31.7670 S   0  0  0  0  0  0  0  0  0  0  0  0
  1 21  1  0  0  0  0
  1  6  1  1  0  0  0
  1  2  1  0  0  0  0
  2  7  1  6  0  0  0
  2 14  1  0  0  0  0
  3  8  1  0  0  0  0
  3  9  1  0  0  0  0
  3  2  1  0  0  0  0
  4  3  1  0  0  0  0
  5  4  1  0  0  0  0
  5  1  1  0  0  0  0
 10  5  1  0  0  0  0
 11  5  1  0  0  0  0
 12 17  1  0  0  0  0
 12 18  1  0  0  0  0
 13 12  2  0  0  0  0
 14 15  2  0  0  0  0
 14 13  1  0  0  0  0
 15 16  1  0  0  0  0
 16 20  1  0  0  0  0
 16 17  2  0  0  0  0
 19 13  1  0  0  0  0
 22 23  2  0  0  0  0
 22 21  1  0  0  0  0
 23 24  1  0  0  0  0
 25 23  1  0  0  0  0
 26 25  2  0  0  0  0
 27 26  1  0  0  0  0
 27 22  1  0  0  0  0
M  END
>  <minimizedAffinity>
-4.3619113

$$$$

 OpenBabel03272501063D

 27 29  0  0  1  0  0  0  0  0999 V2000
   38.0110   25.7440   35.1950 C   0  0  2  0  0  0  0  0  0  0  0  0
   37.7770   26.4430   33.8250 C   0  0  2  0  0  0  0  0  0  0  0  0
   37.0310   27.6280   34.2780 C   0  0  0  0  0  0  0  0  0  0  0  0
   37.6130   28.0370   35.4770 O   0  0  0  0  0  0  0  0  0  0  0  0
   38.3680   27.0140   35.9770 C   0  0  0  0  0  0  0  0  0  0  0  0
   37.0600   25.3180   35.5580 H   0  0  0  0  0  0  0  0  0  0  0  0
   38.8110   26.7360   33.5160 H   0  0  0  0  0  0  0  0  0  0  0  0
   35.9500   27.3640   34.4720 H   0  0  0  0  0  0  0  0  0  0  0  0
   37.0260   28.4380   33.5320 H   0  0  0  0  0  0  0  0  0  0  0  0
   38.2770   26.8590   37.0650 H   0  0  0  0  0  0  0  0  0  0  0  0
   39.4290   27.2240   35.6900 H   0  0  0  0  0  0  0  0  0  0  0  0
   36.8070   23.3970   31.8160 C   0  0  0  0  0  0  0  0  0  0  0  0
   37.4710   24.2020   32.7810 C   0  0  0  0  0  0  0  0  0  0  0  0
   37.1290   25.5750   32.8760 C   0  0  0  0  0  0  0  0  0  0  0  0
   36.1650   26.0450   32.0160 N   0  0  0  0  0  0  0  0  0  0  0  0
   35.5620   25.2600   31.1200 C   0  0  0  0  0  0  0  0  0  0  0  0
   35.8670   23.9470   31.0080 N   0  0  0  0  0  0  0  0  0  0  0  0
   37.0440   22.3480   31.7180 H   0  0  0  0  0  0  0  0  0  0  0  0
   38.2210   23.7610   33.4240 H   0  0  0  0  0  0  0  0  0  0  0  0
   34.8170   25.7720   30.5040 H   0  0  0  0  0  0  0  0  0  0  0  0
   39.0930   24.9050   35.1410 O   0  0  0  0  0  0  0  0  0  0  0  0
   39.5680   23.9980   35.9410 C   0  0  0  0  0  0  0  0  0  0  0  0
   40.8650   23.4840   35.4660 C   0  0  0  0  0  0  0  0  0  0  0  0
   41.4930   23.6900   34.6210 H   0  0  0  0  0  0  0  0  0  0  0  0
   41.4360   22.5330   36.2410 C   0  0  0  0  0  3  0  0  0  0  0  0
   40.8540   22.0130   37.4690 C   0  0  0  0  0  3  0  0  0  0  0  0
   39.2740   23.0180   37.5340 S   0  0  0  0  0  0  0  0  0  0  0  0
  1  6  1  1  0  0  0
  1  5  1  0  0  0  0
  2  7  1  6  0  0  0
  2  3  1  0  0  0  0
  2  1  1  0  0  0  0
  3  8  1  0  0  0  0
  3  4  1  0  0  0  0
  4  5  1  0  0  0  0
  5 10  1  0  0  0  0
  9  3  1  0  0  0  0
 11  5  1  0  0  0  0
 12 13  1  0  0  0  0
 13 14  2  0  0  0  0
 13 19  1  0  0  0  0
 14  2  1  0  0  0  0
 15 14  1  0  0  0  0
 16 15  2  0  0  0  0
 17 16  1  0  0  0  0
 17 12  2  0  0  0  0
 18 12  1  0  0  0  0
 20 16  1  0  0  0  0
 21  1  1  0  0  0  0
 21 22  1  0  0  0  0
 22 27  1  0  0  0  0
 23 22  2  0  0  0  0
 23 25  1  0  0  0  0
 24 23  1  0  0  0  0
 25 26  2  0  0  0  0
 26 27  1  0  0  0  0
M  END
>  <minimizedAffinity>
-4.32367754

$$$$

 OpenBabel03272501063D

 27 29  0  0  1  0  0  0  0  0999 V2000
   35.2880   29.7420   32.5280 C   0  0  2  0  0  0  0  0  0  0  0  0
   36.5210   29.0940   31.8340 C   0  0  2  0  0  0  0  0  0  0  0  0
   36.3440   29.6270   30.4740 C   0  0  0  0  0  0  0  0  0  0  0  0
   35.9000   30.9410   30.6090 O   0  0  0  0  0  0  0  0  0  0  0  0
   35.4320   31.1250   31.8790 C   0  0  0  0  0  0  0  0  0  0  0  0
   34.3660   29.2440   32.1800 H   0  0  0  0  0  0  0  0  0  0  0  0
   37.3820   29.6010   32.3350 H   0  0  0  0  0  0  0  0  0  0  0  0
   35.5600   29.0350   29.9160 H   0  0  0  0  0  0  0  0  0  0  0  0
   37.2650   29.5700   29.8720 H   0  0  0  0  0  0  0  0  0  0  0  0
   34.4970   31.7050   31.9500 H   0  0  0  0  0  0  0  0  0  0  0  0
   36.2530   31.6150   32.4590 H   0  0  0  0  0  0  0  0  0  0  0  0
   37.3280   25.6230   33.0780 C   0  0  0  0  0  0  0  0  0  0  0  0
   37.3390   27.0400   32.9810 C   0  0  0  0  0  0  0  0  0  0  0  0
   36.5410   27.6630   31.9880 C   0  0  0  0  0  0  0  0  0  0  0  0
   35.7980   26.8430   31.1710 N   0  0  0  0  0  0  0  0  0  0  0  0
   35.8130   25.5140   31.2890 C   0  0  0  0  0  0  0  0  0  0  0  0
   36.5640   24.8930   32.2270 N   0  0  0  0  0  0  0  0  0  0  0  0
   37.9250   25.1170   33.8230 H   0  0  0  0  0  0  0  0  0  0  0  0
   37.9500   27.6200   33.6600 H   0  0  0  0  0  0  0  0  0  0  0  0
   35.1740   24.9920   30.5710 H   0  0  0  0  0  0  0  0  0  0  0  0
   35.4780   29.8360   33.8810 O   0  0  0  0  0  0  0  0  0  0  0  0
   34.8550   30.4600   34.8350 C   0  0  0  0  0  0  0  0  0  0  0  0
   35.7800   31.2750   35.6430 C   0  0  0  0  0  0  0  0  0  0  0  0
   36.8360   31.4640   35.6170 H   0  0  0  0  0  0  0  0  0  0  0  0
   35.2160   31.9640   36.6620 C   0  0  0  0  0  3  0  0  0  0  0  0
   33.7980   31.9380   36.9870 C   0  0  0  0  0  3  0  0  0  0  0  0
   33.1780   30.7740   35.6560 S   0  0  0  0  0  0  0  0  0  0  0  0
  1  6  1  6  0  0  0
  1 21  1  0  0  0  0
  2 14  1  0  0  0  0
  2  7  1  1  0  0  0
  2  1  1  0  0  0  0
  3  4  1  0  0  0  0
  3  2  1  0  0  0  0
  4  5  1  0  0  0  0
  5 10  1  0  0  0  0
  5 11  1  0  0  0  0
  5  1  1  0  0  0  0
  8  3  1  0  0  0  0
  9  3  1  0  0  0  0
 12 18  1  0  0  0  0
 13 12  1  0  0  0  0
 13 19  1  0  0  0  0
 14 13  2  0  0  0  0
 15 16  2  0  0  0  0
 15 14  1  0  0  0  0
 16 17  1  0  0  0  0
 17 12  2  0  0  0  0
 20 16  1  0  0  0  0
 21 22  1  0  0  0  0
 22 23  2  0  0  0  0
 22 27  1  0  0  0  0
 23 25  1  0  0  0  0
 24 23  1  0  0  0  0
 25 26  2  0  0  0  0
 27 26  1  0  0  0  0
M  END
>  <minimizedAffinity>
-4.25603867

$$$$

 OpenBabel03272501063D

 27 29  0  0  1  0  0  0  0  0999 V2000
   34.4190   29.2720   32.8720 C   0  0  2  0  0  0  0  0  0  0  0  0
   35.9700   29.2290   32.7580 C   0  0  2  0  0  0  0  0  0  0  0  0
   36.1190   29.5080   31.3210 C   0  0  0  0  0  0  0  0  0  0  0  0
   35.1590   30.4650   30.9940 O   0  0  0  0  0  0  0  0  0  0  0  0
   34.2160   30.5050   31.9820 C   0  0  0  0  0  0  0  0  0  0  0  0
   33.9900   28.3740   32.3950 H   0  0  0  0  0  0  0  0  0  0  0  0
   36.2870   30.1190   33.3570 H   0  0  0  0  0  0  0  0  0  0  0  0
   35.9220   28.5760   30.7150 H   0  0  0  0  0  0  0  0  0  0  0  0
   37.1340   29.8440   31.0570 H   0  0  0  0  0  0  0  0  0  0  0  0
   33.1740   30.5810   31.6260 H   0  0  0  0  0  0  0  0  0  0  0  0
   34.4760   31.3680   32.6440 H   0  0  0  0  0  0  0  0  0  0  0  0
   37.1940   25.6640   32.9600 C   0  0  0  0  0  0  0  0  0  0  0  0
   36.6610   26.8610   32.4120 C   0  0  0  0  0  0  0  0  0  0  0  0
   36.5160   27.9920   33.2540 C   0  0  0  0  0  0  0  0  0  0  0  0
   36.9060   27.8560   34.5660 N   0  0  0  0  0  0  0  0  0  0  0  0
   37.4020   26.7140   35.0480 C   0  0  0  0  0  0  0  0  0  0  0  0
   37.5520   25.6190   34.2680 N   0  0  0  0  0  0  0  0  0  0  0  0
   37.3180   24.7840   32.3460 H   0  0  0  0  0  0  0  0  0  0  0  0
   36.3760   26.8930   31.3690 H   0  0  0  0  0  0  0  0  0  0  0  0
   37.6670   26.7530   36.1090 H   0  0  0  0  0  0  0  0  0  0  0  0
   34.0260   29.5490   34.1550 O   0  0  0  0  0  0  0  0  0  0  0  0
   34.3770   30.4460   35.0280 C   0  0  0  0  0  0  0  0  0  0  0  0
   33.2360   30.8630   35.8620 C   0  0  0  0  0  0  0  0  0  0  0  0
   32.1980   30.5940   35.9080 H   0  0  0  0  0  0  0  0  0  0  0  0
   33.5100   31.7960   36.8030 C   0  0  0  0  0  3  0  0  0  0  0  0
   34.8230   32.3850   37.0200 C   0  0  0  0  0  3  0  0  0  0  0  0
   35.8070   31.4850   35.7050 S   0  0  0  0  0  0  0  0  0  0  0  0
  1  6  1  6  0  0  0
  1 21  1  0  0  0  0
  2  1  1  0  0  0  0
  2 14  1  0  0  0  0
  2  7  1  1  0  0  0
  3  2  1  0  0  0  0
  4  3  1  0  0  0  0
  4  5  1  0  0  0  0
  5 11  1  0  0  0  0
  5  1  1  0  0  0  0
  8  3  1  0  0  0  0
  9  3  1  0  0  0  0
 10  5  1  0  0  0  0
 12 17  1  0  0  0  0
 13 12  2  0  0  0  0
 13 14  1  0  0  0  0
 14 15  2  0  0  0  0
 15 16  1  0  0  0  0
 16 20  1  0  0  0  0
 17 16  2  0  0  0  0
 18 12  1  0  0  0  0
 19 13  1  0  0  0  0
 21 22  1  0  0  0  0
 22 27  1  0  0  0  0
 22 23  2  0  0  0  0
 23 24  1  0  0  0  0
 23 25  1  0  0  0  0
 25 26  2  0  0  0  0
 27 26  1  0  0  0  0
M  END
>  <minimizedAffinity>
-4.24012184

$$$$

 OpenBabel03272501063D

 27 29  0  0  1  0  0  0  0  0999 V2000
   38.4730   24.7170   33.5070 C   0  0  2  0  0  0  0  0  0  0  0  0
   38.3150   25.4120   34.8900 C   0  0  2  0  0  0  0  0  0  0  0  0
   39.1330   26.6130   34.6560 C   0  0  0  0  0  0  0  0  0  0  0  0
   38.8890   27.0180   33.3450 O   0  0  0  0  0  0  0  0  0  0  0  0
   38.3160   25.9850   32.6580 C   0  0  0  0  0  0  0  0  0  0  0  0
   39.4950   24.3110   33.4150 H   0  0  0  0  0  0  0  0  0  0  0  0
   37.2300   25.6840   34.9080 H   0  0  0  0  0  0  0  0  0  0  0  0
   40.2300   26.3690   34.7620 H   0  0  0  0  0  0  0  0  0  0  0  0
   38.9200   27.4190   35.3760 H   0  0  0  0  0  0  0  0  0  0  0  0
   38.7010   25.8380   31.6350 H   0  0  0  0  0  0  0  0  0  0  0  0
   37.2140   26.1740   32.6480 H   0  0  0  0  0  0  0  0  0  0  0  0
   38.4180   23.6870   38.2470 C   0  0  0  0  0  0  0  0  0  0  0  0
   37.9850   24.5500   37.2040 C   0  0  0  0  0  0  0  0  0  0  0  0
   38.6970   24.5500   35.9780 C   0  0  0  0  0  0  0  0  0  0  0  0
   39.7760   23.7030   35.8760 N   0  0  0  0  0  0  0  0  0  0  0  0
   40.1560   22.9060   36.8770 C   0  0  0  0  0  0  0  0  0  0  0  0
   39.4950   22.8850   38.0570 N   0  0  0  0  0  0  0  0  0  0  0  0
   37.8970   23.6630   39.1930 H   0  0  0  0  0  0  0  0  0  0  0  0
   37.1270   25.1900   37.3580 H   0  0  0  0  0  0  0  0  0  0  0  0
   41.0300   22.2890   36.6520 H   0  0  0  0  0  0  0  0  0  0  0  0
   37.4320   23.8580   33.2660 O   0  0  0  0  0  0  0  0  0  0  0  0
   37.3050   22.7770   32.5570 C   0  0  0  0  0  0  0  0  0  0  0  0
   35.9840   22.7080   31.9080 C   0  0  0  0  0  0  0  0  0  0  0  0
   35.1180   23.3430   31.8920 H   0  0  0  0  0  0  0  0  0  0  0  0
   35.7620   21.6120   31.1460 C   0  0  0  0  0  3  0  0  0  0  0  0
   36.7270   20.5420   30.9450 C   0  0  0  0  0  3  0  0  0  0  0  0
   38.1490   21.1820   31.9830 S   0  0  0  0  0  0  0  0  0  0  0  0
  1  6  1  6  0  0  0
  1  2  1  0  0  0  0
  2  7  1  1  0  0  0
  2 14  1  0  0  0  0
  3  8  1  0  0  0  0
  3  2  1  0  0  0  0
  3  9  1  0  0  0  0
  4  3  1  0  0  0  0
  5  4  1  0  0  0  0
  5  1  1  0  0  0  0
 10  5  1  0  0  0  0
 11  5  1  0  0  0  0
 12 18  1  0  0  0  0
 13 19  1  0  0  0  0
 13 12  2  0  0  0  0
 14 13  1  0  0  0  0
 15 14  2  0  0  0  0
 15 16  1  0  0  0  0
 16 17  2  0  0  0  0
 17 12  1  0  0  0  0
 20 16  1  0  0  0  0
 21  1  1  0  0  0  0
 22 21  1  0  0  0  0
 23 22  2  0  0  0  0
 24 23  1  0  0  0  0
 25 23  1  0  0  0  0
 26 25  2  0  0  0  0
 26 27  1  0  0  0  0
 27 22  1  0  0  0  0
M  END
>  <minimizedAffinity>
-4.19599199

$$$$

 OpenBabel03272501063D

 27 29  0  0  1  0  0  0  0  0999 V2000
   39.0360   26.1370   33.3010 C   0  0  2  0  0  0  0  0  0  0  0  0
   39.5700   26.3230   34.7510 C   0  0  2  0  0  0  0  0  0  0  0  0
   41.0020   26.5060   34.4630 C   0  0  0  0  0  0  0  0  0  0  0  0
   41.0860   27.2740   33.3040 O   0  0  0  0  0  0  0  0  0  0  0  0
   39.8800   27.2480   32.6640 C   0  0  0  0  0  0  0  0  0  0  0  0
   39.3440   25.1480   32.9200 H   0  0  0  0  0  0  0  0  0  0  0  0
   39.1140   27.2970   35.0600 H   0  0  0  0  0  0  0  0  0  0  0  0
   41.4960   25.5080   34.2740 H   0  0  0  0  0  0  0  0  0  0  0  0
   41.5470   26.9710   35.3000 H   0  0  0  0  0  0  0  0  0  0  0  0
   39.9380   27.1350   31.5680 H   0  0  0  0  0  0  0  0  0  0  0  0
   39.3460   28.1920   32.9410 H   0  0  0  0  0  0  0  0  0  0  0  0
   37.7990   24.2270   37.3430 C   0  0  0  0  0  0  0  0  0  0  0  0
   38.1090   25.3350   36.5100 C   0  0  0  0  0  0  0  0  0  0  0  0
   39.2000   25.2290   35.6100 C   0  0  0  0  0  0  0  0  0  0  0  0
   39.8970   24.0430   35.6020 N   0  0  0  0  0  0  0  0  0  0  0  0
   39.5780   23.0220   36.3990 C   0  0  0  0  0  0  0  0  0  0  0  0
   38.5430   23.0950   37.2670 N   0  0  0  0  0  0  0  0  0  0  0  0
   36.9750   24.2750   38.0400 H   0  0  0  0  0  0  0  0  0  0  0  0
   37.5150   26.2370   36.5740 H   0  0  0  0  0  0  0  0  0  0  0  0
   40.2210   22.1440   36.2830 H   0  0  0  0  0  0  0  0  0  0  0  0
   37.7050   26.4540   33.2230 O   0  0  0  0  0  0  0  0  0  0  0  0
   37.0540   27.5670   33.0680 C   0  0  0  0  0  0  0  0  0  0  0  0
   36.4910   28.0470   34.3420 C   0  0  0  0  0  0  0  0  0  0  0  0
   36.5000   27.6850   35.3530 H   0  0  0  0  0  0  0  0  0  0  0  0
   35.7950   29.2050   34.2760 C   0  0  0  0  0  3  0  0  0  0  0  0
   35.5830   29.9680   33.0560 C   0  0  0  0  0  3  0  0  0  0  0  0
   36.5030   28.8910   31.8310 S   0  0  0  0  0  0  0  0  0  0  0  0
  1  6  1  6  0  0  0
  1  2  1  0  0  0  0
  2  7  1  1  0  0  0
  2 14  1  0  0  0  0
  3  2  1  0  0  0  0
  3  9  1  0  0  0  0
  4  3  1  0  0  0  0
  5 11  1  0  0  0  0
  5  1  1  0  0  0  0
  5  4  1  0  0  0  0
  8  3  1  0  0  0  0
 10  5  1  0  0  0  0
 12 18  1  0  0  0  0
 13 19  1  0  0  0  0
 13 12  2  0  0  0  0
 14 13  1  0  0  0  0
 15 14  2  0  0  0  0
 15 16  1  0  0  0  0
 16 17  2  0  0  0  0
 17 12  1  0  0  0  0
 20 16  1  0  0  0  0
 21  1  1  0  0  0  0
 22 21  1  0  0  0  0
 22 23  2  0  0  0  0
 23 24  1  0  0  0  0
 25 23  1  0  0  0  0
 26 25  2  0  0  0  0
 27 26  1  0  0  0  0
 27 22  1  0  0  0  0
M  END
>  <minimizedAffinity>
-4.14839554

$$$$

 OpenBabel03272501063D

 27 29  0  0  1  0  0  0  0  0999 V2000
   39.1900   24.3790   35.7010 C   0  0  2  0  0  0  0  0  0  0  0  0
   39.0960   22.9670   36.3460 C   0  0  2  0  0  0  0  0  0  0  0  0
   38.6400   23.3420   37.6940 C   0  0  0  0  0  0  0  0  0  0  0  0
   37.7310   24.3870   37.5360 O   0  0  0  0  0  0  0  0  0  0  0  0
   37.8810   24.9230   36.2890 C   0  0  0  0  0  0  0  0  0  0  0  0
   40.0570   24.9180   36.1200 H   0  0  0  0  0  0  0  0  0  0  0  0
   38.2600   22.4890   35.7780 H   0  0  0  0  0  0  0  0  0  0  0  0
   39.5080   23.7080   38.3170 H   0  0  0  0  0  0  0  0  0  0  0  0
   38.1960   22.4970   38.2430 H   0  0  0  0  0  0  0  0  0  0  0  0
   37.8470   26.0250   36.2510 H   0  0  0  0  0  0  0  0  0  0  0  0
   37.0840   24.4750   35.6450 H   0  0  0  0  0  0  0  0  0  0  0  0
   42.2440   21.0820   37.2350 C   0  0  0  0  0  0  0  0  0  0  0  0
   41.0190   21.7820   37.3980 C   0  0  0  0  0  0  0  0  0  0  0  0
   40.3350   22.2400   36.2440 C   0  0  0  0  0  0  0  0  0  0  0  0
   40.9110   21.9740   35.0240 N   0  0  0  0  0  0  0  0  0  0  0  0
   42.0650   21.3140   34.9070 C   0  0  0  0  0  0  0  0  0  0  0  0
   42.7390   20.8650   35.9910 N   0  0  0  0  0  0  0  0  0  0  0  0
   42.7900   20.7190   38.0940 H   0  0  0  0  0  0  0  0  0  0  0  0
   40.6270   21.9540   38.3920 H   0  0  0  0  0  0  0  0  0  0  0  0
   42.4020   21.1770   33.8750 H   0  0  0  0  0  0  0  0  0  0  0  0
   39.0960   24.3040   34.3360 O   0  0  0  0  0  0  0  0  0  0  0  0
   38.1290   24.4960   33.4900 C   0  0  0  0  0  0  0  0  0  0  0  0
   37.6630   23.2260   32.9050 C   0  0  0  0  0  0  0  0  0  0  0  0
   37.9400   22.1960   33.0220 H   0  0  0  0  0  0  0  0  0  0  0  0
   36.6530   23.3290   32.0100 C   0  0  0  0  0  3  0  0  0  0  0  0
   36.0320   24.5840   31.6130 C   0  0  0  0  0  3  0  0  0  0  0  0
   37.0190   25.7840   32.6590 S   0  0  0  0  0  0  0  0  0  0  0  0
  1  6  1  1  0  0  0
  1  5  1  0  0  0  0
  1  2  1  0  0  0  0
  2  7  1  6  0  0  0
  2  3  1  0  0  0  0
  3  9  1  0  0  0  0
  3  8  1  0  0  0  0
  4  3  1  0  0  0  0
  5  4  1  0  0  0  0
 10  5  1  0  0  0  0
 11  5  1  0  0  0  0
 12 13  1  0  0  0  0
 12 18  1  0  0  0  0
 13 19  1  0  0  0  0
 14  2  1  0  0  0  0
 14 13  2  0  0  0  0
 15 14  1  0  0  0  0
 16 15  2  0  0  0  0
 16 17  1  0  0  0  0
 17 12  2  0  0  0  0
 20 16  1  0  0  0  0
 21  1  1  0  0  0  0
 22 21  1  0  0  0  0
 23 24  1  0  0  0  0
 23 22  2  0  0  0  0
 25 23  1  0  0  0  0
 26 25  2  0  0  0  0
 26 27  1  0  0  0  0
 27 22  1  0  0  0  0
M  END
>  <minimizedAffinity>
-4.12803268

$$$$
