
 OpenBabel03272507583D

 29 31  0  0  0  0  0  0  0  0999 V2000
   37.0270   31.3500   48.5850 C   0  0  0  0  0  0  0  0  0  0  0  0
   37.1960   32.2900   49.5960 C   0  0  0  0  0  0  0  0  0  0  0  0
   38.1370   33.2900   49.4440 C   0  0  0  0  0  0  0  0  0  0  0  0
   38.9060   33.3750   48.3170 C   0  0  0  0  0  0  0  0  0  0  0  0
   38.7160   32.4340   47.3380 C   0  0  0  0  0  0  0  0  0  0  0  0
   37.7970   31.4460   47.4730 N   0  0  0  0  0  0  0  0  0  0  0  0
   36.6730   32.3640   50.5420 H   0  0  0  0  0  0  0  0  0  0  0  0
   38.3360   34.0580   50.1730 H   0  0  0  0  0  0  0  0  0  0  0  0
   39.6710   34.0720   48.0330 H   0  0  0  0  0  0  0  0  0  0  0  0
   35.1670   28.5410   50.2190 C   0  0  0  0  0  0  0  0  0  0  0  0
   36.1890   29.4980   49.9450 C   0  0  0  0  0  0  0  0  0  0  0  0
   36.0080   30.3670   48.8870 C   0  0  0  0  0  0  0  0  0  0  0  0
   34.8630   30.2680   48.1570 N   0  0  0  0  0  0  0  0  0  0  0  0
   33.9100   29.3380   48.4510 C   0  0  0  0  0  0  0  0  0  0  0  0
   34.0520   28.4880   49.4630 N   0  0  0  0  0  0  0  0  0  0  0  0
   32.8050   29.4350   47.5400 N   0  0  0  0  0  0  0  0  0  0  0  0
   35.2640   27.8420   51.0360 H   0  0  0  0  0  0  0  0  0  0  0  0
   32.9640   29.0180   46.5830 H   0  0  0  0  0  0  0  0  0  0  0  0
   32.0760   29.9270   48.0870 H   0  0  0  0  0  0  0  0  0  0  0  0
   37.4010   29.5080   50.8180 C   0  0  0  0  0  0  0  0  0  0  0  0
   38.5400   29.8140   50.0810 F   0  0  0  0  0  0  0  0  0  0  0  0
   37.2260   30.4600   51.7810 F   0  0  0  0  0  0  0  0  0  0  0  0
   37.6270   28.2990   51.4400 F   0  0  0  0  0  0  0  0  0  0  0  0
   39.3810   32.2520   46.0150 C   0  0  0  0  0  0  0  0  0  0  0  0
   39.6240   31.0150   45.6110 C   0  0  0  0  0  0  0  0  0  0  0  0
   39.4340   30.0240   46.0580 H   0  0  0  0  0  0  0  0  0  0  0  0
   40.2100   30.6180   44.4610 C   0  0  0  0  0  0  0  0  0  0  0  0
   40.5590   31.8070   43.6790 C   0  0  0  0  0  0  0  0  0  0  0  0
   39.9650   33.2750   44.7740 S   0  0  0  0  0  0  0  0  0  0  0  0
  1 12  1  0  0  0  0
  1  2  1  0  0  0  0
  2  7  1  0  0  0  0
  3  2  2  0  0  0  0
  3  8  1  0  0  0  0
  4  3  1  0  0  0  0
  5  6  1  0  0  0  0
  5  4  2  0  0  0  0
  6  1  2  0  0  0  0
  9  4  1  0  0  0  0
 10 17  1  0  0  0  0
 11 10  1  0  0  0  0
 11 20  1  0  0  0  0
 12 11  2  0  0  0  0
 13 14  2  0  0  0  0
 13 12  1  0  0  0  0
 14 15  1  0  0  0  0
 15 10  2  0  0  0  0
 16 19  1  0  0  0  0
 16 14  1  0  0  0  0
 18 16  1  0  0  0  0
 20 23  1  0  0  0  0
 20 22  1  0  0  0  0
 21 20  1  0  0  0  0
 24  5  1  0  0  0  0
 25 24  2  0  0  0  0
 25 26  1  0  0  0  0
 27 25  1  0  0  0  0
 28 27  2  0  0  0  0
 28 29  1  0  0  0  0
 29 24  1  0  0  0  0
M  END
>  <minimizedAffinity>
-7.06746101

>  <minimizedRMSD>
0.613525748

$$$$
