
 OpenBabel03272509473D

 22 23  0  0  0  0  0  0  0  0999 V2000
   33.7610   28.7240   49.5610 C   0  0  0  0  0  0  0  0  0  0  0  0
   33.3630   28.4840   50.5650 H   0  0  0  0  0  0  0  0  0  0  0  0
   33.7430   29.8290   49.4620 H   0  0  0  0  0  0  0  0  0  0  0  0
   32.9770   28.0460   48.4630 C   0  0  0  0  0  0  0  0  0  0  0  0
   31.9130   28.3840   48.6230 H   0  0  0  0  0  0  0  0  0  0  0  0
   32.9780   26.9620   48.5360 H   0  0  0  0  0  0  0  0  0  0  0  0
   33.4900   28.5340   47.1550 C   0  0  0  0  0  0  0  0  0  0  0  0
   33.8790   29.7490   46.6980 C   0  0  0  0  0  0  0  0  0  0  0  0
   33.8040   30.5510   47.4420 H   0  0  0  0  0  0  0  0  0  0  0  0
   34.3120   29.9090   45.4300 C   0  0  0  0  0  3  0  0  0  0  0  0
   34.3350   28.7810   44.6430 C   0  0  0  0  0  3  0  0  0  0  0  0
   33.6940   27.4330   45.8110 S   0  0  0  0  0  0  0  0  0  0  0  0
   35.0980   28.2270   49.5660 O   0  0  0  0  0  0  0  0  0  0  0  0
   37.4570   30.3200   51.3680 C   0  0  0  0  0  0  0  0  0  0  0  0
   38.1580   30.8790   50.3040 C   0  0  0  0  0  0  0  0  0  0  0  0
   37.7920   30.5140   49.0130 C   0  0  0  0  0  0  0  0  0  0  0  0
   36.7560   29.6220   48.8900 N   0  0  0  0  0  0  0  0  0  0  0  0
   36.1010   29.1020   49.9490 C   0  0  0  0  0  0  0  0  0  0  0  0
   36.4680   29.4650   51.1850 N   0  0  0  0  0  0  0  0  0  0  0  0
   37.7590   30.6190   52.3770 H   0  0  0  0  0  0  0  0  0  0  0  0
   38.9730   31.5820   50.3920 H   0  0  0  0  0  0  0  0  0  0  0  0
   38.2910   30.9060   48.1390 H   0  0  0  0  0  0  0  0  0  0  0  0
  1 13  1  0  0  0  0
  1  2  1  0  0  0  0
  3  1  1  0  0  0  0
  4  6  1  0  0  0  0
  4  5  1  0  0  0  0
  4  1  1  0  0  0  0
  7  4  1  0  0  0  0
  8  7  2  0  0  0  0
  8  9  1  0  0  0  0
 10  8  1  0  0  0  0
 11 10  2  0  0  0  0
 11 12  1  0  0  0  0
 12  7  1  0  0  0  0
 13 18  1  0  0  0  0
 14 20  1  0  0  0  0
 15 21  1  0  0  0  0
 15 14  2  0  0  0  0
 16 15  1  0  0  0  0
 17 16  2  0  0  0  0
 17 18  1  0  0  0  0
 18 19  2  0  0  0  0
 19 14  1  0  0  0  0
 22 16  1  0  0  0  0
M  END
>  <minimizedAffinity>
-3.88658381

>  <minimizedRMSD>
1.43661475

$$$$
