
 OpenBabel03272500223D

 34 36  0  0  0  0  0  0  0  0999 V2000
   35.5600   29.1340   50.3820 C   0  0  0  0  0  0  0  0  0  0  0  0
   36.3640   30.1240   49.7400 C   0  0  0  0  0  0  0  0  0  0  0  0
   36.2300   30.3160   48.3670 C   0  0  0  0  0  0  0  0  0  0  0  0
   35.3250   29.5370   47.6950 N   0  0  0  0  0  0  0  0  0  0  0  0
   34.5910   28.6310   48.2970 C   0  0  0  0  0  0  0  0  0  0  0  0
   34.6880   28.4100   49.6250 N   0  0  0  0  0  0  0  0  0  0  0  0
   35.6790   29.0040   51.4370 H   0  0  0  0  0  0  0  0  0  0  0  0
   32.6940   30.2090   46.5440 Cl  0  0  0  0  0  0  0  0  0  0  0  0
   32.7170   28.4480   46.6740 C   0  0  0  0  0  0  0  0  0  0  0  0
   33.6320   27.8200   47.5100 C   0  0  0  0  0  0  0  0  0  0  0  0
   33.6900   26.4360   47.6470 C   0  0  0  0  0  0  0  0  0  0  0  0
   32.7680   25.7110   46.8890 C   0  0  0  0  0  0  0  0  0  0  0  0
   31.8620   26.2900   46.0650 C   0  0  0  0  0  0  0  0  0  0  0  0
   30.7610   25.2740   45.1690 Cl  0  0  0  0  0  0  0  0  0  0  0  0
   31.8330   27.6810   45.9530 C   0  0  0  0  0  0  0  0  0  0  0  0
   34.4020   25.9460   48.2980 H   0  0  0  0  0  0  0  0  0  0  0  0
   32.8060   24.6250   46.9900 H   0  0  0  0  0  0  0  0  0  0  0  0
   30.8570   28.3320   45.0620 C   0  0  0  0  0  0  0  0  0  0  0  0
   29.9740   27.3940   44.5230 F   0  0  0  0  0  0  0  0  0  0  0  0
   31.4550   29.0390   44.0590 F   0  0  0  0  0  0  0  0  0  0  0  0
   30.0830   29.2220   45.7710 F   0  0  0  0  0  0  0  0  0  0  0  0
   37.3050   30.9000   50.5960 C   0  0  0  0  0  0  0  0  0  0  0  0
   38.5970   30.8240   50.1060 F   0  0  0  0  0  0  0  0  0  0  0  0
   36.9240   32.2300   50.5470 F   0  0  0  0  0  0  0  0  0  0  0  0
   37.2990   30.5080   51.9130 F   0  0  0  0  0  0  0  0  0  0  0  0
   37.0590   31.3270   47.7250 C   0  0  0  0  0  0  0  0  0  0  0  0
   37.8940   31.6880   48.3580 H   0  0  0  0  0  0  0  0  0  0  0  0
   36.4150   32.2350   47.5480 H   0  0  0  0  0  0  0  0  0  0  0  0
   37.6390   30.8510   46.4490 C   0  0  0  0  0  0  0  0  0  0  0  0
   38.9890   30.4780   46.1120 C   0  0  0  0  0  0  0  0  0  0  0  0
   39.6760   30.5550   46.9280 H   0  0  0  0  0  0  0  0  0  0  0  0
   39.2030   30.0880   44.8420 C   0  0  0  0  0  0  0  0  0  0  0  0
   38.1820   30.0320   43.8510 C   0  0  0  0  0  0  0  0  0  0  0  0
   36.7020   30.6060   44.8240 S   0  0  0  0  0  0  0  0  0  0  0  0
  1  7  1  0  0  0  0
  2  1  1  0  0  0  0
  2 22  1  0  0  0  0
  3  2  2  0  0  0  0
  4  5  2  0  0  0  0
  4  3  1  0  0  0  0
  5  6  1  0  0  0  0
  6  1  2  0  0  0  0
  8  9  1  0  0  0  0
  9 10  1  0  0  0  0
 10 11  2  0  0  0  0
 10  5  1  0  0  0  0
 11 16  1  0  0  0  0
 12 17  1  0  0  0  0
 12 11  1  0  0  0  0
 13 12  2  0  0  0  0
 14 13  1  0  0  0  0
 15 13  1  0  0  0  0
 15  9  2  0  0  0  0
 18 21  1  0  0  0  0
 18 15  1  0  0  0  0
 19 18  1  0  0  0  0
 20 18  1  0  0  0  0
 22 25  1  0  0  0  0
 23 22  1  0  0  0  0
 24 22  1  0  0  0  0
 26 27  1  0  0  0  0
 26  3  1  0  0  0  0
 28 26  1  0  0  0  0
 29 26  1  0  0  0  0
 30 29  2  0  0  0  0
 30 31  1  0  0  0  0
 32 30  1  0  0  0  0
 33 34  1  0  0  0  0
 33 32  2  0  0  0  0
 34 29  1  0  0  0  0
M  END
>  <minimizedAffinity>
-6.13849735

>  <minimizedRMSD>
0.779524744

$$$$
