
 OpenBabel03272507583D

 29 31  0  0  0  0  0  0  0  0999 V2000
   37.0030   31.3200   48.5670 C   0  0  0  0  0  0  0  0  0  0  0  0
   37.1870   32.2680   49.5690 C   0  0  0  0  0  0  0  0  0  0  0  0
   38.1240   33.2680   49.3940 C   0  0  0  0  0  0  0  0  0  0  0  0
   38.8760   33.3450   48.2550 C   0  0  0  0  0  0  0  0  0  0  0  0
   38.6710   32.3960   47.2860 C   0  0  0  0  0  0  0  0  0  0  0  0
   37.7550   31.4090   47.4420 N   0  0  0  0  0  0  0  0  0  0  0  0
   36.6780   32.3490   50.5220 H   0  0  0  0  0  0  0  0  0  0  0  0
   38.3330   34.0420   50.1140 H   0  0  0  0  0  0  0  0  0  0  0  0
   39.6360   34.0400   47.9540 H   0  0  0  0  0  0  0  0  0  0  0  0
   35.1640   28.5320   50.2610 C   0  0  0  0  0  0  0  0  0  0  0  0
   36.1810   29.4880   49.9640 C   0  0  0  0  0  0  0  0  0  0  0  0
   35.9890   30.3390   48.8930 C   0  0  0  0  0  0  0  0  0  0  0  0
   34.8400   30.2240   48.1720 N   0  0  0  0  0  0  0  0  0  0  0  0
   33.8920   29.2950   48.4880 C   0  0  0  0  0  0  0  0  0  0  0  0
   34.0440   28.4620   49.5130 N   0  0  0  0  0  0  0  0  0  0  0  0
   32.7810   29.3730   47.5820 N   0  0  0  0  0  0  0  0  0  0  0  0
   35.2690   27.8480   51.0890 H   0  0  0  0  0  0  0  0  0  0  0  0
   32.9350   28.9400   46.6320 H   0  0  0  0  0  0  0  0  0  0  0  0
   32.0540   29.8710   48.1260 H   0  0  0  0  0  0  0  0  0  0  0  0
   37.3980   29.5180   50.8280 C   0  0  0  0  0  0  0  0  0  0  0  0
   38.5300   29.8200   50.0790 F   0  0  0  0  0  0  0  0  0  0  0  0
   37.2240   30.4820   51.7790 F   0  0  0  0  0  0  0  0  0  0  0  0
   37.6350   28.3190   51.4660 F   0  0  0  0  0  0  0  0  0  0  0  0
   39.3150   32.2040   45.9550 C   0  0  0  0  0  0  0  0  0  0  0  0
   40.2400   31.2640   45.8450 C   0  0  0  0  0  0  0  0  0  0  0  0
   40.6700   30.5410   46.5600 H   0  0  0  0  0  0  0  0  0  0  0  0
   40.9470   30.9180   44.7470 C   0  0  0  0  0  3  0  0  0  0  0  0
   40.5290   31.7740   43.6340 C   0  0  0  0  0  3  0  0  0  0  0  0
   39.1840   32.9170   44.4040 S   0  0  0  0  0  0  0  0  0  0  0  0
  1 12  1  0  0  0  0
  1  2  1  0  0  0  0
  2  7  1  0  0  0  0
  3  2  2  0  0  0  0
  3  8  1  0  0  0  0
  4  3  1  0  0  0  0
  5  6  1  0  0  0  0
  5  4  2  0  0  0  0
  6  1  2  0  0  0  0
  9  4  1  0  0  0  0
 10 17  1  0  0  0  0
 11 10  1  0  0  0  0
 11 20  1  0  0  0  0
 12 11  2  0  0  0  0
 13 14  2  0  0  0  0
 13 12  1  0  0  0  0
 14 15  1  0  0  0  0
 15 10  2  0  0  0  0
 16 19  1  0  0  0  0
 16 14  1  0  0  0  0
 18 16  1  0  0  0  0
 20 23  1  0  0  0  0
 20 22  1  0  0  0  0
 21 20  1  0  0  0  0
 24  5  1  0  0  0  0
 25 24  2  0  0  0  0
 25 26  1  0  0  0  0
 27 25  1  0  0  0  0
 28 29  1  0  0  0  0
 28 27  2  0  0  0  0
 29 24  1  0  0  0  0
M  END
>  <minimizedAffinity>
-7.01457834

>  <minimizedRMSD>
0.757897973

$$$$
