
 OpenBabel03272509423D

 35 37  0  0  1  0  0  0  0  0999 V2000
   37.0510   30.9300   49.0440 C   0  0  0  0  0  0  0  0  0  0  0  0
   36.7740   31.8400   50.0650 C   0  0  0  0  0  0  0  0  0  0  0  0
   37.3700   33.0910   50.1130 C   0  0  0  0  0  0  0  0  0  0  0  0
   38.2780   33.4600   49.1130 C   0  0  0  0  0  0  0  0  0  0  0  0
   38.5390   32.5570   48.1190 C   0  0  0  0  0  0  0  0  0  0  0  0
   37.9240   31.3170   48.1080 C   0  0  0  0  0  0  0  0  0  0  0  0
   36.0720   31.5640   50.8450 H   0  0  0  0  0  0  0  0  0  0  0  0
   37.1060   33.7290   50.9300 H   0  0  0  0  0  0  0  0  0  0  0  0
   38.6790   34.4350   49.2380 H   0  0  0  0  0  0  0  0  0  0  0  0
   39.2590   32.9860   47.4240 H   0  0  0  0  0  0  0  0  0  0  0  0
   36.4540   29.6120   49.0130 C   0  0  2  0  0  0  0  0  0  0  0  0
   36.9600   29.0740   48.1220 H   0  0  0  0  0  0  0  0  0  0  0  0
   33.6030   30.0170   46.7950 C   0  0  0  0  0  0  0  0  0  0  0  0
   32.8610   28.8690   46.9910 C   0  0  0  0  0  0  0  0  0  0  0  0
   33.2990   27.9650   47.9390 C   0  0  0  0  0  0  0  0  0  0  0  0
   34.4500   28.2330   48.6490 N   0  0  0  0  0  0  0  0  0  0  0  0
   35.1160   29.3450   48.4140 C   0  0  0  0  0  0  0  0  0  0  0  0
   34.7000   30.2430   47.4920 N   0  0  0  0  0  0  0  0  0  0  0  0
   33.2880   30.7540   46.0550 H   0  0  0  0  0  0  0  0  0  0  0  0
   31.9780   28.7620   46.3780 H   0  0  0  0  0  0  0  0  0  0  0  0
   32.7160   27.0680   48.0930 H   0  0  0  0  0  0  0  0  0  0  0  0
   36.9120   28.8440   49.9370 O   0  0  0  0  0  0  0  0  0  0  0  0
   36.4700   28.6970   50.7900 H   0  0  0  0  0  0  0  0  0  0  0  0
   38.3200   30.4520   47.0210 C   0  0  0  0  0  3  0  0  0  0  0  0
   38.8530   30.8870   45.8760 C   0  0  0  0  0  3  0  0  0  0  0  0
   39.3380   30.0930   44.7230 C   0  0  0  0  0  0  0  0  0  0  0  0
   38.9110   29.0630   44.7520 H   0  0  0  0  0  0  0  0  0  0  0  0
   40.4580   30.0360   44.7640 H   0  0  0  0  0  0  0  0  0  0  0  0
   38.9080   30.9280   43.1930 S   0  0  0  0  0  0  0  0  0  0  0  0
   37.1550   31.2250   43.1270 C   0  0  0  0  0  0  0  0  0  0  0  0
   36.7720   32.5300   42.7130 C   0  0  0  0  0  0  0  0  0  0  0  0
   37.3200   33.4090   42.4190 H   0  0  0  0  0  0  0  0  0  0  0  0
   35.4880   32.9480   42.5990 C   0  0  0  0  0  3  0  0  0  0  0  0
   34.4850   31.9650   42.9320 C   0  0  0  0  0  3  0  0  0  0  0  0
   35.4800   30.4210   43.4150 S   0  0  0  0  0  0  0  0  0  0  0  0
  1  2  1  0  0  0  0
  2  3  2  0  0  0  0
  2  7  1  0  0  0  0
  3  8  1  0  0  0  0
  4  9  1  0  0  0  0
  4  3  1  0  0  0  0
  5  4  2  0  0  0  0
  6  5  1  0  0  0  0
  6  1  2  0  0  0  0
 10  5  1  0  0  0  0
 11 12  1  6  0  0  0
 11  1  1  0  0  0  0
 11 22  1  0  0  0  0
 13 14  2  0  0  0  0
 13 18  1  0  0  0  0
 14 15  1  0  0  0  0
 15 21  1  0  0  0  0
 15 16  2  0  0  0  0
 17 16  1  0  0  0  0
 17 11  1  0  0  0  0
 18 17  2  0  0  0  0
 19 13  1  0  0  0  0
 20 14  1  0  0  0  0
 22 23  1  0  0  0  0
 24  6  1  0  0  0  0
 25 24  2  0  0  0  0
 26 27  1  0  0  0  0
 26 28  1  0  0  0  0
 26 25  1  0  0  0  0
 29 26  1  0  0  0  0
 30 29  1  0  0  0  0
 30 35  1  0  0  0  0
 31 30  2  0  0  0  0
 32 31  1  0  0  0  0
 33 31  1  0  0  0  0
 33 34  2  0  0  0  0
 34 35  1  0  0  0  0
M  END
>  <minimizedAffinity>
-5.46339798

>  <minimizedRMSD>
0.369237036

$$$$
