
 OpenBabel03262520233D

 29 31  0  0  0  0  0  0  0  0999 V2000
   39.4090   24.6610   35.0290 C   0  0  0  0  0  0  0  0  0  0  0  0
   39.9580   25.9550   35.0590 C   0  0  0  0  0  0  0  0  0  0  0  0
   39.5800   27.0080   34.3030 C   0  0  0  0  0  0  0  0  0  0  0  0
   38.5800   26.8720   33.4090 C   0  0  0  0  0  0  0  0  0  0  0  0
   38.0420   25.6280   33.3690 C   0  0  0  0  0  0  0  0  0  0  0  0
   38.4560   24.6470   34.1330 N   0  0  0  0  0  0  0  0  0  0  0  0
   40.8100   26.1480   35.7920 H   0  0  0  0  0  0  0  0  0  0  0  0
   40.1170   27.9920   34.4390 H   0  0  0  0  0  0  0  0  0  0  0  0
   38.2450   27.6660   32.7920 H   0  0  0  0  0  0  0  0  0  0  0  0
   41.1080   23.0590   35.4320 C   0  0  0  0  0  0  0  0  0  0  0  0
   39.9040   23.6400   35.9370 C   0  0  0  0  0  0  0  0  0  0  0  0
   39.4560   23.1740   37.1420 C   0  0  0  0  0  0  0  0  0  0  0  0
   40.1980   22.1980   37.7570 N   0  0  0  0  0  0  0  0  0  0  0  0
   41.3170   21.6680   37.2760 C   0  0  0  0  0  0  0  0  0  0  0  0
   41.7610   22.1180   36.0960 N   0  0  0  0  0  0  0  0  0  0  0  0
   41.9460   20.6880   38.0580 N   0  0  0  0  0  0  0  0  0  0  0  0
   41.5750   23.3300   34.4960 H   0  0  0  0  0  0  0  0  0  0  0  0
   42.9810   20.4550   38.0220 H   0  0  0  0  0  0  0  0  0  0  0  0
   41.4540   20.1080   38.7390 H   0  0  0  0  0  0  0  0  0  0  0  0
   38.2260   23.7250   37.7180 C   0  0  0  0  0  0  0  0  0  0  0  0
   38.0240   23.1810   38.9010 F   0  0  0  0  0  0  0  0  0  0  0  0
   38.2260   25.1030   37.8410 F   0  0  0  0  0  0  0  0  0  0  0  0
   37.1020   23.4110   36.8990 F   0  0  0  0  0  0  0  0  0  0  0  0
   36.9220   25.3800   32.4010 C   0  0  0  0  0  0  0  0  0  0  0  0
   36.4460   24.2240   31.9790 C   0  0  0  0  0  0  0  0  0  0  0  0
   36.8840   23.2830   32.3460 H   0  0  0  0  0  0  0  0  0  0  0  0
   35.4090   24.1910   31.0850 C   0  0  0  0  0  3  0  0  0  0  0  0
   34.9140   25.4300   30.6730 C   0  0  0  0  0  3  0  0  0  0  0  0
   36.0220   26.6280   31.6400 S   0  0  0  0  0  0  0  0  0  0  0  0
  1  2  1  0  0  0  0
  1 11  1  0  0  0  0
  2  7  1  0  0  0  0
  3  8  1  0  0  0  0
  3  2  2  0  0  0  0
  4  3  1  0  0  0  0
  5  4  2  0  0  0  0
  5  6  1  0  0  0  0
  6  1  2  0  0  0  0
  9  4  1  0  0  0  0
 10 11  2  0  0  0  0
 10 15  1  0  0  0  0
 11 12  1  0  0  0  0
 12 20  1  0  0  0  0
 12 13  2  0  0  0  0
 14 13  1  0  0  0  0
 14 16  1  0  0  0  0
 15 14  2  0  0  0  0
 16 19  1  0  0  0  0
 17 10  1  0  0  0  0
 18 16  1  0  0  0  0
 20 22  1  0  0  0  0
 20 21  1  0  0  0  0
 23 20  1  0  0  0  0
 24  5  1  0  0  0  0
 25 26  1  0  0  0  0
 25 24  2  0  0  0  0
 27 25  1  0  0  0  0
 28 27  2  0  0  0  0
 28 29  1  0  0  0  0
 29 24  1  0  0  0  0
M  END
>  <minimizedAffinity>
-6.39489985

$$$$

 OpenBabel03262520233D

 29 31  0  0  0  0  0  0  0  0999 V2000
   37.7600   25.3330   32.4260 C   0  0  0  0  0  0  0  0  0  0  0  0
   36.7920   26.1670   31.8390 C   0  0  0  0  0  0  0  0  0  0  0  0
   35.6390   25.7770   31.2550 C   0  0  0  0  0  0  0  0  0  0  0  0
   35.3240   24.4670   31.1960 C   0  0  0  0  0  0  0  0  0  0  0  0
   36.2500   23.6510   31.7570 C   0  0  0  0  0  0  0  0  0  0  0  0
   37.3520   24.0960   32.3100 N   0  0  0  0  0  0  0  0  0  0  0  0
   36.9890   27.2900   31.8510 H   0  0  0  0  0  0  0  0  0  0  0  0
   34.9560   26.5650   30.8250 H   0  0  0  0  0  0  0  0  0  0  0  0
   34.4320   24.1070   30.7500 H   0  0  0  0  0  0  0  0  0  0  0  0
   40.0590   25.8480   32.1650 C   0  0  0  0  0  0  0  0  0  0  0  0
   38.9380   25.9130   33.0490 C   0  0  0  0  0  0  0  0  0  0  0  0
   39.1490   26.5020   34.2650 C   0  0  0  0  0  0  0  0  0  0  0  0
   40.4080   26.9770   34.5270 N   0  0  0  0  0  0  0  0  0  0  0  0
   41.4410   26.9120   33.6940 C   0  0  0  0  0  0  0  0  0  0  0  0
   41.2430   26.3350   32.5030 N   0  0  0  0  0  0  0  0  0  0  0  0
   42.6510   27.4670   34.1340 N   0  0  0  0  0  0  0  0  0  0  0  0
   40.0370   25.4120   31.1770 H   0  0  0  0  0  0  0  0  0  0  0  0
   43.4200   27.8300   33.4980 H   0  0  0  0  0  0  0  0  0  0  0  0
   42.9000   27.5720   35.1190 H   0  0  0  0  0  0  0  0  0  0  0  0
   38.0430   26.6010   35.2220 C   0  0  0  0  0  0  0  0  0  0  0  0
   37.1420   27.4410   34.7530 F   0  0  0  0  0  0  0  0  0  0  0  0
   37.4350   25.3930   35.5130 F   0  0  0  0  0  0  0  0  0  0  0  0
   38.5020   27.1120   36.4710 F   0  0  0  0  0  0  0  0  0  0  0  0
   35.9860   22.1730   31.7380 C   0  0  0  0  0  0  0  0  0  0  0  0
   34.9800   21.5140   32.2790 C   0  0  0  0  0  0  0  0  0  0  0  0
   34.2000   22.0600   32.8310 H   0  0  0  0  0  0  0  0  0  0  0  0
   34.9050   20.1520   32.1580 C   0  0  0  0  0  3  0  0  0  0  0  0
   35.9350   19.5400   31.4420 C   0  0  0  0  0  3  0  0  0  0  0  0
   37.0070   21.0310   30.9630 S   0  0  0  0  0  0  0  0  0  0  0  0
  1 11  1  0  0  0  0
  2  7  1  0  0  0  0
  2  1  2  0  0  0  0
  3  2  1  0  0  0  0
  4  3  2  0  0  0  0
  4  5  1  0  0  0  0
  5  6  2  0  0  0  0
  6  1  1  0  0  0  0
  8  3  1  0  0  0  0
  9  4  1  0  0  0  0
 10 15  2  0  0  0  0
 10 11  1  0  0  0  0
 11 12  2  0  0  0  0
 12 13  1  0  0  0  0
 12 20  1  0  0  0  0
 14 16  1  0  0  0  0
 14 13  2  0  0  0  0
 15 14  1  0  0  0  0
 16 19  1  0  0  0  0
 17 10  1  0  0  0  0
 18 16  1  0  0  0  0
 20 22  1  0  0  0  0
 20 23  1  0  0  0  0
 21 20  1  0  0  0  0
 24  5  1  0  0  0  0
 24 25  2  0  0  0  0
 25 26  1  0  0  0  0
 27 25  1  0  0  0  0
 28 27  2  0  0  0  0
 29 28  1  0  0  0  0
 29 24  1  0  0  0  0
M  END
>  <minimizedAffinity>
-5.72732735

$$$$

 OpenBabel03262520233D

 29 31  0  0  0  0  0  0  0  0999 V2000
   37.7000   24.2990   33.4290 C   0  0  0  0  0  0  0  0  0  0  0  0
   37.2460   23.3560   32.4910 C   0  0  0  0  0  0  0  0  0  0  0  0
   36.6680   23.6180   31.2990 C   0  0  0  0  0  0  0  0  0  0  0  0
   36.4780   24.8940   30.9090 C   0  0  0  0  0  0  0  0  0  0  0  0
   36.9110   25.8150   31.8050 C   0  0  0  0  0  0  0  0  0  0  0  0
   37.4660   25.4930   32.9480 N   0  0  0  0  0  0  0  0  0  0  0  0
   37.3720   22.2530   32.7510 H   0  0  0  0  0  0  0  0  0  0  0  0
   36.3520   22.7520   30.6490 H   0  0  0  0  0  0  0  0  0  0  0  0
   36.0300   25.1550   29.9850 H   0  0  0  0  0  0  0  0  0  0  0  0
   38.7780   22.5010   34.5350 C   0  0  0  0  0  0  0  0  0  0  0  0
   38.3370   23.8550   34.6580 C   0  0  0  0  0  0  0  0  0  0  0  0
   38.5980   24.4790   35.8460 C   0  0  0  0  0  0  0  0  0  0  0  0
   39.2560   23.7580   36.8080 N   0  0  0  0  0  0  0  0  0  0  0  0
   39.6620   22.4990   36.6790 C   0  0  0  0  0  0  0  0  0  0  0  0
   39.4090   21.8810   35.5190 N   0  0  0  0  0  0  0  0  0  0  0  0
   40.3350   21.9310   37.7700 N   0  0  0  0  0  0  0  0  0  0  0  0
   38.6400   21.8880   33.6560 H   0  0  0  0  0  0  0  0  0  0  0  0
   41.0260   21.1280   37.7060 H   0  0  0  0  0  0  0  0  0  0  0  0
   40.2170   22.2470   38.7340 H   0  0  0  0  0  0  0  0  0  0  0  0
   38.1720   25.8690   36.0410 C   0  0  0  0  0  0  0  0  0  0  0  0
   38.9970   26.6660   35.3930 F   0  0  0  0  0  0  0  0  0  0  0  0
   36.8740   26.1250   35.6370 F   0  0  0  0  0  0  0  0  0  0  0  0
   38.2230   26.2220   37.4210 F   0  0  0  0  0  0  0  0  0  0  0  0
   36.7410   27.2660   31.4580 C   0  0  0  0  0  0  0  0  0  0  0  0
   36.9630   27.8630   30.3030 C   0  0  0  0  0  0  0  0  0  0  0  0
   37.3230   27.2780   29.4430 H   0  0  0  0  0  0  0  0  0  0  0  0
   36.7510   29.2090   30.1720 C   0  0  0  0  0  3  0  0  0  0  0  0
   36.2950   29.8740   31.3120 C   0  0  0  0  0  3  0  0  0  0  0  0
   36.1960   28.4570   32.5690 S   0  0  0  0  0  0  0  0  0  0  0  0
  1 11  1  0  0  0  0
  2  7  1  0  0  0  0
  2  1  2  0  0  0  0
  3  2  1  0  0  0  0
  4  3  2  0  0  0  0
  4  5  1  0  0  0  0
  5  6  2  0  0  0  0
  6  1  1  0  0  0  0
  8  3  1  0  0  0  0
  9  4  1  0  0  0  0
 10 11  2  0  0  0  0
 10 15  1  0  0  0  0
 11 12  1  0  0  0  0
 12 20  1  0  0  0  0
 12 13  2  0  0  0  0
 14 13  1  0  0  0  0
 14 16  1  0  0  0  0
 15 14  2  0  0  0  0
 16 19  1  0  0  0  0
 17 10  1  0  0  0  0
 18 16  1  0  0  0  0
 20 23  1  0  0  0  0
 21 20  1  0  0  0  0
 22 20  1  0  0  0  0
 24  5  1  0  0  0  0
 24 29  1  0  0  0  0
 25 24  2  0  0  0  0
 26 25  1  0  0  0  0
 27 25  1  0  0  0  0
 27 28  2  0  0  0  0
 28 29  1  0  0  0  0
M  END
>  <minimizedAffinity>
-5.5952754

$$$$

 OpenBabel03262520233D

 29 31  0  0  0  0  0  0  0  0999 V2000
   38.0060   24.9510   33.9120 C   0  0  0  0  0  0  0  0  0  0  0  0
   37.6520   24.3240   32.7050 C   0  0  0  0  0  0  0  0  0  0  0  0
   36.9290   24.8610   31.6990 C   0  0  0  0  0  0  0  0  0  0  0  0
   36.4710   26.1250   31.7990 C   0  0  0  0  0  0  0  0  0  0  0  0
   36.8050   26.7420   32.9590 C   0  0  0  0  0  0  0  0  0  0  0  0
   37.5120   26.1620   33.8990 N   0  0  0  0  0  0  0  0  0  0  0  0
   38.0040   23.2510   32.5470 H   0  0  0  0  0  0  0  0  0  0  0  0
   36.7220   24.2330   30.7850 H   0  0  0  0  0  0  0  0  0  0  0  0
   35.9000   26.5940   31.0400 H   0  0  0  0  0  0  0  0  0  0  0  0
   38.1000   23.1540   35.4540 C   0  0  0  0  0  0  0  0  0  0  0  0
   38.8240   24.2470   34.8850 C   0  0  0  0  0  0  0  0  0  0  0  0
   40.1100   24.4220   35.3170 C   0  0  0  0  0  0  0  0  0  0  0  0
   40.5890   23.5380   36.2490 N   0  0  0  0  0  0  0  0  0  0  0  0
   39.9040   22.5240   36.7680 C   0  0  0  0  0  0  0  0  0  0  0  0
   38.6450   22.3480   36.3520 N   0  0  0  0  0  0  0  0  0  0  0  0
   40.5700   21.7170   37.7010 N   0  0  0  0  0  0  0  0  0  0  0  0
   37.0800   22.8990   35.2070 H   0  0  0  0  0  0  0  0  0  0  0  0
   40.3290   20.7040   37.9100 H   0  0  0  0  0  0  0  0  0  0  0  0
   41.3560   22.0380   38.2680 H   0  0  0  0  0  0  0  0  0  0  0  0
   40.9100   25.5250   34.7760 C   0  0  0  0  0  0  0  0  0  0  0  0
   42.1430   25.4240   35.2300 F   0  0  0  0  0  0  0  0  0  0  0  0
   40.9340   25.5820   33.3940 F   0  0  0  0  0  0  0  0  0  0  0  0
   40.3910   26.7810   35.2050 F   0  0  0  0  0  0  0  0  0  0  0  0
   36.3370   28.1540   33.1630 C   0  0  0  0  0  0  0  0  0  0  0  0
   35.9690   28.7410   34.2860 C   0  0  0  0  0  0  0  0  0  0  0  0
   35.9840   28.1770   35.2310 H   0  0  0  0  0  0  0  0  0  0  0  0
   35.5680   30.0500   34.2790 C   0  0  0  0  0  3  0  0  0  0  0  0
   35.5790   30.6900   33.0380 C   0  0  0  0  0  3  0  0  0  0  0  0
   36.1950   29.3060   31.8970 S   0  0  0  0  0  0  0  0  0  0  0  0
  1 11  1  0  0  0  0
  2  1  2  0  0  0  0
  3  4  2  0  0  0  0
  3  2  1  0  0  0  0
  4  5  1  0  0  0  0
  5 24  1  0  0  0  0
  5  6  2  0  0  0  0
  6  1  1  0  0  0  0
  7  2  1  0  0  0  0
  8  3  1  0  0  0  0
  9  4  1  0  0  0  0
 10 15  1  0  0  0  0
 11 12  1  0  0  0  0
 11 10  2  0  0  0  0
 12 13  2  0  0  0  0
 13 14  1  0  0  0  0
 14 16  1  0  0  0  0
 15 14  2  0  0  0  0
 16 18  1  0  0  0  0
 16 19  1  0  0  0  0
 17 10  1  0  0  0  0
 20 23  1  0  0  0  0
 20 21  1  0  0  0  0
 20 12  1  0  0  0  0
 22 20  1  0  0  0  0
 24 25  2  0  0  0  0
 25 26  1  0  0  0  0
 27 25  1  0  0  0  0
 28 27  2  0  0  0  0
 29 28  1  0  0  0  0
 29 24  1  0  0  0  0
M  END
>  <minimizedAffinity>
-5.54565811

$$$$

 OpenBabel03262520233D

 29 31  0  0  0  0  0  0  0  0999 V2000
   34.8140   29.5710   32.8950 C   0  0  0  0  0  0  0  0  0  0  0  0
   35.3000   30.4980   31.9580 C   0  0  0  0  0  0  0  0  0  0  0  0
   36.0420   30.2250   30.8630 C   0  0  0  0  0  0  0  0  0  0  0  0
   36.3860   28.9510   30.5840 C   0  0  0  0  0  0  0  0  0  0  0  0
   35.9240   28.0460   31.4810 C   0  0  0  0  0  0  0  0  0  0  0  0
   35.2060   28.3790   32.5260 N   0  0  0  0  0  0  0  0  0  0  0  0
   35.0490   31.5970   32.1270 H   0  0  0  0  0  0  0  0  0  0  0  0
   36.3620   31.0790   30.1990 H   0  0  0  0  0  0  0  0  0  0  0  0
   36.9660   28.6830   29.7390 H   0  0  0  0  0  0  0  0  0  0  0  0
   32.6290   29.6480   33.8090 C   0  0  0  0  0  0  0  0  0  0  0  0
   33.9930   30.0220   34.0070 C   0  0  0  0  0  0  0  0  0  0  0  0
   34.2860   30.6880   35.1650 C   0  0  0  0  0  0  0  0  0  0  0  0
   33.2500   30.9370   36.0290 N   0  0  0  0  0  0  0  0  0  0  0  0
   31.9850   30.5810   35.8330 C   0  0  0  0  0  0  0  0  0  0  0  0
   31.6920   29.9300   34.7010 N   0  0  0  0  0  0  0  0  0  0  0  0
   31.0670   30.9100   36.8400 N   0  0  0  0  0  0  0  0  0  0  0  0
   32.2560   29.1190   32.9440 H   0  0  0  0  0  0  0  0  0  0  0  0
   30.1550   30.3980   37.0220 H   0  0  0  0  0  0  0  0  0  0  0  0
   31.1990   31.6830   37.4950 H   0  0  0  0  0  0  0  0  0  0  0  0
   35.6660   31.1030   35.4310 C   0  0  0  0  0  0  0  0  0  0  0  0
   36.4380   30.0350   35.4620 F   0  0  0  0  0  0  0  0  0  0  0  0
   36.1720   32.0090   34.5170 F   0  0  0  0  0  0  0  0  0  0  0  0
   35.7630   31.7430   36.7010 F   0  0  0  0  0  0  0  0  0  0  0  0
   36.2590   26.6000   31.2530 C   0  0  0  0  0  0  0  0  0  0  0  0
   35.4350   25.5730   31.1670 C   0  0  0  0  0  0  0  0  0  0  0  0
   34.3500   25.7300   31.2670 H   0  0  0  0  0  0  0  0  0  0  0  0
   35.9260   24.3130   30.9550 C   0  0  0  0  0  3  0  0  0  0  0  0
   37.3130   24.2050   30.8400 C   0  0  0  0  0  3  0  0  0  0  0  0
   37.8580   26.0090   31.0550 S   0  0  0  0  0  0  0  0  0  0  0  0
  1 11  1  0  0  0  0
  2  7  1  0  0  0  0
  2  1  2  0  0  0  0
  3  2  1  0  0  0  0
  4  3  2  0  0  0  0
  4  5  1  0  0  0  0
  5  6  2  0  0  0  0
  6  1  1  0  0  0  0
  8  3  1  0  0  0  0
  9  4  1  0  0  0  0
 10 11  2  0  0  0  0
 10 15  1  0  0  0  0
 11 12  1  0  0  0  0
 12 20  1  0  0  0  0
 12 13  2  0  0  0  0
 14 13  1  0  0  0  0
 14 16  1  0  0  0  0
 15 14  2  0  0  0  0
 16 18  1  0  0  0  0
 16 19  1  0  0  0  0
 17 10  1  0  0  0  0
 20 21  1  0  0  0  0
 20 23  1  0  0  0  0
 22 20  1  0  0  0  0
 24  5  1  0  0  0  0
 25 24  2  0  0  0  0
 25 26  1  0  0  0  0
 27 25  1  0  0  0  0
 28 27  2  0  0  0  0
 28 29  1  0  0  0  0
 29 24  1  0  0  0  0
M  END
>  <minimizedAffinity>
-5.54408407

$$$$

 OpenBabel03262520233D

 29 31  0  0  0  0  0  0  0  0999 V2000
   36.0800   28.2220   32.4440 C   0  0  0  0  0  0  0  0  0  0  0  0
   36.4010   29.0980   31.3930 C   0  0  0  0  0  0  0  0  0  0  0  0
   36.2930   30.4440   31.4040 C   0  0  0  0  0  0  0  0  0  0  0  0
   35.8350   31.0740   32.5060 C   0  0  0  0  0  0  0  0  0  0  0  0
   35.5200   30.2390   33.5270 C   0  0  0  0  0  0  0  0  0  0  0  0
   35.6500   28.9370   33.4510 N   0  0  0  0  0  0  0  0  0  0  0  0
   36.7950   28.6380   30.4270 H   0  0  0  0  0  0  0  0  0  0  0  0
   36.5900   31.0190   30.4810 H   0  0  0  0  0  0  0  0  0  0  0  0
   35.7310   32.1260   32.5670 H   0  0  0  0  0  0  0  0  0  0  0  0
   35.4990   26.2820   31.2110 C   0  0  0  0  0  0  0  0  0  0  0  0
   36.2880   26.7910   32.2880 C   0  0  0  0  0  0  0  0  0  0  0  0
   37.0860   25.8940   32.9420 C   0  0  0  0  0  0  0  0  0  0  0  0
   37.0590   24.5920   32.5100 N   0  0  0  0  0  0  0  0  0  0  0  0
   36.3210   24.1340   31.5050 C   0  0  0  0  0  0  0  0  0  0  0  0
   35.5370   25.0060   30.8610 N   0  0  0  0  0  0  0  0  0  0  0  0
   36.4380   22.7700   31.1990 N   0  0  0  0  0  0  0  0  0  0  0  0
   34.8270   26.8750   30.6090 H   0  0  0  0  0  0  0  0  0  0  0  0
   36.2380   22.3420   30.2480 H   0  0  0  0  0  0  0  0  0  0  0  0
   36.7320   22.0620   31.8740 H   0  0  0  0  0  0  0  0  0  0  0  0
   37.9210   26.3480   34.0580 C   0  0  0  0  0  0  0  0  0  0  0  0
   38.6930   27.3330   33.6450 F   0  0  0  0  0  0  0  0  0  0  0  0
   37.2070   26.7590   35.1690 F   0  0  0  0  0  0  0  0  0  0  0  0
   38.7690   25.2960   34.5130 F   0  0  0  0  0  0  0  0  0  0  0  0
   35.0000   30.8500   34.7960 C   0  0  0  0  0  0  0  0  0  0  0  0
   35.6790   31.4630   35.7470 C   0  0  0  0  0  0  0  0  0  0  0  0
   36.7700   31.5730   35.6590 H   0  0  0  0  0  0  0  0  0  0  0  0
   35.0290   31.9610   36.8440 C   0  0  0  0  0  3  0  0  0  0  0  0
   33.6450   31.7770   36.8750 C   0  0  0  0  0  3  0  0  0  0  0  0
   33.3440   30.8530   35.2460 S   0  0  0  0  0  0  0  0  0  0  0  0
  1  6  1  0  0  0  0
  2  3  1  0  0  0  0
  2  1  2  0  0  0  0
  3  4  2  0  0  0  0
  4  9  1  0  0  0  0
  4  5  1  0  0  0  0
  5 24  1  0  0  0  0
  6  5  2  0  0  0  0
  7  2  1  0  0  0  0
  8  3  1  0  0  0  0
 10 11  1  0  0  0  0
 11  1  1  0  0  0  0
 11 12  2  0  0  0  0
 12 20  1  0  0  0  0
 13 12  1  0  0  0  0
 14 13  2  0  0  0  0
 15 10  2  0  0  0  0
 15 14  1  0  0  0  0
 16 14  1  0  0  0  0
 16 19  1  0  0  0  0
 17 10  1  0  0  0  0
 18 16  1  0  0  0  0
 20 23  1  0  0  0  0
 20 22  1  0  0  0  0
 21 20  1  0  0  0  0
 24 29  1  0  0  0  0
 24 25  2  0  0  0  0
 25 27  1  0  0  0  0
 26 25  1  0  0  0  0
 27 28  2  0  0  0  0
 29 28  1  0  0  0  0
M  END
>  <minimizedAffinity>
-5.46703243

$$$$

 OpenBabel03262520233D

 29 31  0  0  0  0  0  0  0  0999 V2000
   35.2950   29.3390   33.8230 C   0  0  0  0  0  0  0  0  0  0  0  0
   35.3040   29.5720   32.4370 C   0  0  0  0  0  0  0  0  0  0  0  0
   36.1080   28.9830   31.5260 C   0  0  0  0  0  0  0  0  0  0  0  0
   37.0150   28.0670   31.9210 C   0  0  0  0  0  0  0  0  0  0  0  0
   37.0170   27.8320   33.2560 C   0  0  0  0  0  0  0  0  0  0  0  0
   36.2080   28.4410   34.0890 N   0  0  0  0  0  0  0  0  0  0  0  0
   34.5630   30.3360   32.0280 H   0  0  0  0  0  0  0  0  0  0  0  0
   36.0010   29.2730   30.4410 H   0  0  0  0  0  0  0  0  0  0  0  0
   37.6690   27.5740   31.2480 H   0  0  0  0  0  0  0  0  0  0  0  0
   33.0530   29.4110   34.5910 C   0  0  0  0  0  0  0  0  0  0  0  0
   34.3380   30.0310   34.6710 C   0  0  0  0  0  0  0  0  0  0  0  0
   34.4490   31.1060   35.5090 C   0  0  0  0  0  0  0  0  0  0  0  0
   33.3270   31.4900   36.1960 N   0  0  0  0  0  0  0  0  0  0  0  0
   32.1380   30.9020   36.1130 C   0  0  0  0  0  0  0  0  0  0  0  0
   32.0210   29.8510   35.2930 N   0  0  0  0  0  0  0  0  0  0  0  0
   31.1090   31.4300   36.9060 N   0  0  0  0  0  0  0  0  0  0  0  0
   32.8220   28.5570   33.9720 H   0  0  0  0  0  0  0  0  0  0  0  0
   30.2610   30.8870   37.2410 H   0  0  0  0  0  0  0  0  0  0  0  0
   31.0870   32.3970   37.2340 H   0  0  0  0  0  0  0  0  0  0  0  0
   35.7390   31.7910   35.6390 C   0  0  0  0  0  0  0  0  0  0  0  0
   36.6340   30.9400   36.0980 F   0  0  0  0  0  0  0  0  0  0  0  0
   36.2020   32.3540   34.4640 F   0  0  0  0  0  0  0  0  0  0  0  0
   35.6460   32.8660   36.5710 F   0  0  0  0  0  0  0  0  0  0  0  0
   37.9960   26.8270   33.7910 C   0  0  0  0  0  0  0  0  0  0  0  0
   38.9770   27.0180   34.6520 C   0  0  0  0  0  0  0  0  0  0  0  0
   39.1540   28.0210   35.0690 H   0  0  0  0  0  0  0  0  0  0  0  0
   39.7770   25.9720   35.0270 C   0  0  0  0  0  3  0  0  0  0  0  0
   39.4830   24.7350   34.4490 C   0  0  0  0  0  3  0  0  0  0  0  0
   38.0020   25.1690   33.3460 S   0  0  0  0  0  0  0  0  0  0  0  0
  1  6  1  0  0  0  0
  1 11  1  0  0  0  0
  2  1  2  0  0  0  0
  3  4  2  0  0  0  0
  3  2  1  0  0  0  0
  4  5  1  0  0  0  0
  5 24  1  0  0  0  0
  5  6  2  0  0  0  0
  7  2  1  0  0  0  0
  8  3  1  0  0  0  0
  9  4  1  0  0  0  0
 10 11  2  0  0  0  0
 10 15  1  0  0  0  0
 11 12  1  0  0  0  0
 12 20  1  0  0  0  0
 12 13  2  0  0  0  0
 14 13  1  0  0  0  0
 14 16  1  0  0  0  0
 15 14  2  0  0  0  0
 16 19  1  0  0  0  0
 16 18  1  0  0  0  0
 17 10  1  0  0  0  0
 20 21  1  0  0  0  0
 20 23  1  0  0  0  0
 22 20  1  0  0  0  0
 24 25  2  0  0  0  0
 25 27  1  0  0  0  0
 25 26  1  0  0  0  0
 28 27  2  0  0  0  0
 29 24  1  0  0  0  0
 29 28  1  0  0  0  0
M  END
>  <minimizedAffinity>
-5.3656621

$$$$

 OpenBabel03262520233D

 29 31  0  0  0  0  0  0  0  0999 V2000
   38.8680   25.0240   33.5070 C   0  0  0  0  0  0  0  0  0  0  0  0
   39.9230   24.3750   32.8420 C   0  0  0  0  0  0  0  0  0  0  0  0
   40.4030   24.6660   31.6150 C   0  0  0  0  0  0  0  0  0  0  0  0
   39.8590   25.6720   30.9000 C   0  0  0  0  0  0  0  0  0  0  0  0
   38.8390   26.3070   31.5290 C   0  0  0  0  0  0  0  0  0  0  0  0
   38.4210   25.9730   32.7260 N   0  0  0  0  0  0  0  0  0  0  0  0
   40.4340   23.5120   33.3850 H   0  0  0  0  0  0  0  0  0  0  0  0
   41.2590   24.0540   31.2090 H   0  0  0  0  0  0  0  0  0  0  0  0
   40.1980   25.9420   29.9330 H   0  0  0  0  0  0  0  0  0  0  0  0
   38.3430   23.1930   34.9180 C   0  0  0  0  0  0  0  0  0  0  0  0
   38.4910   24.6130   34.8490 C   0  0  0  0  0  0  0  0  0  0  0  0
   38.2850   25.3080   36.0080 C   0  0  0  0  0  0  0  0  0  0  0  0
   37.9580   24.5870   37.1280 N   0  0  0  0  0  0  0  0  0  0  0  0
   37.8260   23.2660   37.1770 C   0  0  0  0  0  0  0  0  0  0  0  0
   38.0250   22.5790   36.0460 N   0  0  0  0  0  0  0  0  0  0  0  0
   37.5010   22.7030   38.4200 N   0  0  0  0  0  0  0  0  0  0  0  0
   38.4760   22.5210   34.0820 H   0  0  0  0  0  0  0  0  0  0  0  0
   37.7250   21.7080   38.7140 H   0  0  0  0  0  0  0  0  0  0  0  0
   37.0140   23.2110   39.1600 H   0  0  0  0  0  0  0  0  0  0  0  0
   38.4180   26.7680   36.0100 C   0  0  0  0  0  0  0  0  0  0  0  0
   39.6230   27.0900   35.5820 F   0  0  0  0  0  0  0  0  0  0  0  0
   37.4700   27.4240   35.2460 F   0  0  0  0  0  0  0  0  0  0  0  0
   38.2750   27.2860   37.3300 F   0  0  0  0  0  0  0  0  0  0  0  0
   38.1690   27.4420   30.8100 C   0  0  0  0  0  0  0  0  0  0  0  0
   37.0630   28.0800   31.1390 C   0  0  0  0  0  0  0  0  0  0  0  0
   36.5120   27.7910   32.0470 H   0  0  0  0  0  0  0  0  0  0  0  0
   36.5970   29.1000   30.3540 C   0  0  0  0  0  3  0  0  0  0  0  0
   37.3570   29.4010   29.2220 C   0  0  0  0  0  3  0  0  0  0  0  0
   38.7650   28.1370   29.3570 S   0  0  0  0  0  0  0  0  0  0  0  0
  1 11  1  0  0  0  0
  2  7  1  0  0  0  0
  2  1  1  0  0  0  0
  3  2  2  0  0  0  0
  4  5  2  0  0  0  0
  4  3  1  0  0  0  0
  5  6  1  0  0  0  0
  6  1  2  0  0  0  0
  8  3  1  0  0  0  0
  9  4  1  0  0  0  0
 10 15  1  0  0  0  0
 11 10  2  0  0  0  0
 11 12  1  0  0  0  0
 12 20  1  0  0  0  0
 12 13  2  0  0  0  0
 13 14  1  0  0  0  0
 14 16  1  0  0  0  0
 15 14  2  0  0  0  0
 16 18  1  0  0  0  0
 16 19  1  0  0  0  0
 17 10  1  0  0  0  0
 20 23  1  0  0  0  0
 21 20  1  0  0  0  0
 22 20  1  0  0  0  0
 24 25  2  0  0  0  0
 24  5  1  0  0  0  0
 25 26  1  0  0  0  0
 27 25  1  0  0  0  0
 28 29  1  0  0  0  0
 28 27  2  0  0  0  0
 29 24  1  0  0  0  0
M  END
>  <minimizedAffinity>
-5.33303642

$$$$

 OpenBabel03262520233D

 29 31  0  0  0  0  0  0  0  0999 V2000
   35.5520   29.8970   34.3170 C   0  0  0  0  0  0  0  0  0  0  0  0
   35.5830   30.2140   32.9480 C   0  0  0  0  0  0  0  0  0  0  0  0
   36.0880   29.4500   31.9550 C   0  0  0  0  0  0  0  0  0  0  0  0
   36.6320   28.2490   32.2390 C   0  0  0  0  0  0  0  0  0  0  0  0
   36.6090   27.9320   33.5570 C   0  0  0  0  0  0  0  0  0  0  0  0
   36.1020   28.7210   34.4730 N   0  0  0  0  0  0  0  0  0  0  0  0
   35.1410   31.2150   32.6290 H   0  0  0  0  0  0  0  0  0  0  0  0
   36.0430   29.8380   30.8970 H   0  0  0  0  0  0  0  0  0  0  0  0
   37.0410   27.6110   31.4990 H   0  0  0  0  0  0  0  0  0  0  0  0
   35.8980   31.7560   35.7460 C   0  0  0  0  0  0  0  0  0  0  0  0
   34.9380   30.8150   35.2620 C   0  0  0  0  0  0  0  0  0  0  0  0
   33.6600   30.9460   35.7300 C   0  0  0  0  0  0  0  0  0  0  0  0
   33.4130   31.9640   36.6170 N   0  0  0  0  0  0  0  0  0  0  0  0
   34.3160   32.8330   37.0560 C   0  0  0  0  0  0  0  0  0  0  0  0
   35.5700   32.7100   36.6040 N   0  0  0  0  0  0  0  0  0  0  0  0
   33.8710   33.8160   37.9520 N   0  0  0  0  0  0  0  0  0  0  0  0
   36.9400   31.7710   35.4620 H   0  0  0  0  0  0  0  0  0  0  0  0
   34.3310   34.7630   38.0920 H   0  0  0  0  0  0  0  0  0  0  0  0
   33.0540   33.7040   38.5540 H   0  0  0  0  0  0  0  0  0  0  0  0
   32.6240   30.0140   35.2760 C   0  0  0  0  0  0  0  0  0  0  0  0
   32.4160   30.1960   33.9880 F   0  0  0  0  0  0  0  0  0  0  0  0
   32.9190   28.6830   35.5090 F   0  0  0  0  0  0  0  0  0  0  0  0
   31.3940   30.2600   35.9530 F   0  0  0  0  0  0  0  0  0  0  0  0
   37.1940   26.6120   33.9710 C   0  0  0  0  0  0  0  0  0  0  0  0
   37.5670   26.2240   35.1750 C   0  0  0  0  0  0  0  0  0  0  0  0
   37.4620   26.9090   36.0300 H   0  0  0  0  0  0  0  0  0  0  0  0
   38.0860   24.9710   35.3640 C   0  0  0  0  0  3  0  0  0  0  0  0
   38.1840   24.1680   34.2260 C   0  0  0  0  0  3  0  0  0  0  0  0
   37.4920   25.3170   32.8840 S   0  0  0  0  0  0  0  0  0  0  0  0
  1  6  1  0  0  0  0
  1 11  1  0  0  0  0
  2  1  2  0  0  0  0
  3  4  2  0  0  0  0
  3  2  1  0  0  0  0
  4  5  1  0  0  0  0
  5 24  1  0  0  0  0
  5  6  2  0  0  0  0
  7  2  1  0  0  0  0
  8  3  1  0  0  0  0
  9  4  1  0  0  0  0
 10 15  1  0  0  0  0
 11 12  1  0  0  0  0
 11 10  2  0  0  0  0
 12 13  2  0  0  0  0
 13 14  1  0  0  0  0
 14 16  1  0  0  0  0
 15 14  2  0  0  0  0
 16 18  1  0  0  0  0
 16 19  1  0  0  0  0
 17 10  1  0  0  0  0
 20 22  1  0  0  0  0
 20 12  1  0  0  0  0
 20 23  1  0  0  0  0
 21 20  1  0  0  0  0
 24 25  2  0  0  0  0
 25 27  1  0  0  0  0
 25 26  1  0  0  0  0
 28 27  2  0  0  0  0
 29 24  1  0  0  0  0
 29 28  1  0  0  0  0
M  END
>  <minimizedAffinity>
-5.32201385

$$$$
