
 OpenBabel03272506303D

 31 33  0  0  1  0  0  0  0  0999 V2000
   30.3070   28.1370   46.0630 C   0  0  1  0  0  0  0  0  0  0  0  0
   30.2950   26.9260   45.2470 C   0  0  0  0  0  0  0  0  0  0  0  0
   29.5900   25.7330   45.7940 C   0  0  0  0  0  0  0  0  0  0  0  0
   28.3950   25.9870   46.6270 C   0  0  0  0  0  0  0  0  0  0  0  0
   28.3930   27.2200   47.4370 C   0  0  0  0  0  0  0  0  0  0  0  0
   29.0090   28.3970   46.7720 C   0  0  2  0  0  0  0  0  0  0  0  0
   30.4240   29.0350   45.3770 H   0  0  0  0  0  0  0  0  0  0  0  0
   31.2460   26.5760   44.8470 H   0  0  0  0  0  0  0  0  0  0  0  0
   29.7080   27.1900   44.3090 H   0  0  0  0  0  0  0  0  0  0  0  0
   30.3570   25.1560   46.3820 H   0  0  0  0  0  0  0  0  0  0  0  0
   29.3160   25.0600   44.9530 H   0  0  0  0  0  0  0  0  0  0  0  0
   27.4860   25.9340   45.9980 H   0  0  0  0  0  0  0  0  0  0  0  0
   28.3190   25.1190   47.3510 H   0  0  0  0  0  0  0  0  0  0  0  0
   27.3250   27.4910   47.6480 H   0  0  0  0  0  0  0  0  0  0  0  0
   28.9160   27.0190   48.4110 H   0  0  0  0  0  0  0  0  0  0  0  0
   29.0110   29.2870   47.3930 H   0  0  0  0  0  0  0  0  0  0  0  0
   32.6130   29.0610   46.6000 C   0  0  0  0  0  0  0  0  0  0  0  0
   31.4760   28.2960   46.9620 C   0  0  0  0  0  0  0  0  0  0  0  0
   31.5270   27.7120   48.2130 C   0  0  0  0  0  0  0  0  0  0  0  0
   32.6140   27.8850   49.0110 N   0  0  0  0  0  0  0  0  0  0  0  0
   33.6720   28.6260   48.6180 C   0  0  0  0  0  0  0  0  0  0  0  0
   33.6590   29.2120   47.4040 N   0  0  0  0  0  0  0  0  0  0  0  0
   32.7040   29.5700   45.6560 H   0  0  0  0  0  0  0  0  0  0  0  0
   30.7610   27.1020   48.6570 H   0  0  0  0  0  0  0  0  0  0  0  0
   34.4970   28.7160   49.3110 H   0  0  0  0  0  0  0  0  0  0  0  0
   28.0040   28.7850   45.6580 C   0  0  0  0  0  0  0  0  0  0  0  0
   28.2400   29.6740   44.7510 C   0  0  0  0  0  0  0  0  0  0  0  0
   29.1380   30.2970   44.5790 H   0  0  0  0  0  0  0  0  0  0  0  0
   27.3340   30.0070   43.7780 C   0  0  0  0  0  3  0  0  0  0  0  0
   26.1610   29.3480   43.8160 C   0  0  0  0  0  3  0  0  0  0  0  0
   26.3960   28.2220   45.3040 S   0  0  0  0  0  0  0  0  0  0  0  0
  1  7  1  6  0  0  0
  1  6  1  0  0  0  0
  1 18  1  0  0  0  0
  2  3  1  0  0  0  0
  2  1  1  0  0  0  0
  3 10  1  0  0  0  0
  3  4  1  0  0  0  0
  4 13  1  0  0  0  0
  4  5  1  0  0  0  0
  5 14  1  0  0  0  0
  5 15  1  0  0  0  0
  6 16  1  1  0  0  0
  6  5  1  0  0  0  0
  8  2  1  0  0  0  0
  9  2  1  0  0  0  0
 11  3  1  0  0  0  0
 12  4  1  0  0  0  0
 17 18  2  0  0  0  0
 17 22  1  0  0  0  0
 18 19  1  0  0  0  0
 19 24  1  0  0  0  0
 19 20  2  0  0  0  0
 21 20  1  0  0  0  0
 21 25  1  0  0  0  0
 22 21  2  0  0  0  0
 23 17  1  0  0  0  0
 26  6  1  0  0  0  0
 27 26  2  0  0  0  0
 28 27  1  0  0  0  0
 29 30  2  0  0  0  0
 29 27  1  0  0  0  0
 30 31  1  0  0  0  0
 31 26  1  0  0  0  0
M  END
>  <minimizedAffinity>
-3.02586508

>  <minimizedRMSD>
5.95063543

$$$$
