
 OpenBabel03272507203D

 27 29  0  0  1  0  0  0  0  0999 V2000
   37.3200   31.2700   49.4230 C   0  0  0  0  0  0  0  0  0  0  0  0
   38.3030   32.2500   49.5010 C   0  0  0  0  0  0  0  0  0  0  0  0
   38.8150   32.6770   48.2810 C   0  0  0  0  0  0  0  0  0  0  0  0
   38.3670   32.1570   47.1050 N   0  0  0  0  0  0  0  0  0  0  0  0
   37.4030   31.1990   47.0700 C   0  0  0  0  0  0  0  0  0  0  0  0
   36.8740   30.7500   48.2420 N   0  0  0  0  0  0  0  0  0  0  0  0
   38.6480   32.6520   50.4240 H   0  0  0  0  0  0  0  0  0  0  0  0
   39.5850   33.4370   48.2210 H   0  0  0  0  0  0  0  0  0  0  0  0
   36.7410   30.7970   50.7180 C   0  0  1  0  0  0  0  0  0  0  0  0
   36.0370   29.5210   50.8270 C   0  0  2  0  0  0  0  0  0  0  0  0
   37.4760   29.5450   51.2470 C   0  0  0  0  0  0  0  0  0  0  0  0
   36.6590   31.6230   51.4780 H   0  0  0  0  0  0  0  0  0  0  0  0
   35.1980   29.5490   51.5700 H   0  0  0  0  0  0  0  0  0  0  0  0
   37.6080   29.5020   52.3640 H   0  0  0  0  0  0  0  0  0  0  0  0
   38.2430   29.0740   50.6320 H   0  0  0  0  0  0  0  0  0  0  0  0
   35.6910   28.8850   49.6420 O   0  0  0  0  0  0  0  0  0  0  0  0
   34.4890   28.4280   49.2190 C   0  0  0  0  0  0  0  0  0  0  0  0
   34.3760   27.4620   48.4370 O   0  0  0  0  0  0  0  0  0  0  0  0
   33.4940   29.2150   49.8030 N   0  0  0  0  0  0  0  0  0  0  0  0
   33.2090   30.0860   49.3450 H   0  0  0  0  0  0  0  0  0  0  0  0
   33.2370   28.6720   50.6750 H   0  0  0  0  0  0  0  0  0  0  0  0
   37.0250   30.7420   45.7770 C   0  0  0  0  0  0  0  0  0  0  0  0
   35.9150   30.1680   45.2610 C   0  0  0  0  0  0  0  0  0  0  0  0
   35.1020   30.0070   45.9890 H   0  0  0  0  0  0  0  0  0  0  0  0
   35.8230   29.8240   43.9530 C   0  0  0  0  0  3  0  0  0  0  0  0
   36.9340   30.0940   43.1730 C   0  0  0  0  0  3  0  0  0  0  0  0
   38.1150   30.8730   44.4370 S   0  0  0  0  0  0  0  0  0  0  0  0
  1  2  1  0  0  0  0
  1  9  1  0  0  0  0
  2  7  1  0  0  0  0
  3  2  2  0  0  0  0
  4  3  1  0  0  0  0
  5  4  2  0  0  0  0
  5  6  1  0  0  0  0
  6  1  2  0  0  0  0
  8  3  1  0  0  0  0
  9 10  1  0  0  0  0
  9 11  1  0  0  0  0
  9 12  1  1  0  0  0
 10 11  1  0  0  0  0
 10 13  1  1  0  0  0
 11 14  1  0  0  0  0
 15 11  1  0  0  0  0
 16 10  1  0  0  0  0
 17 16  1  0  0  0  0
 17 19  1  0  0  0  0
 18 17  2  0  0  0  0
 19 21  1  0  0  0  0
 20 19  1  0  0  0  0
 22  5  1  0  0  0  0
 23 22  2  0  0  0  0
 23 24  1  0  0  0  0
 25 23  1  0  0  0  0
 26 25  2  0  0  0  0
 26 27  1  0  0  0  0
 27 22  1  0  0  0  0
M  END
>  <minimizedAffinity>
-5.24141359

>  <minimizedRMSD>
0.163992599

$$$$
