
 OpenBabel03272507103D

 24 26  0  0  0  0  0  0  0  0999 V2000
   35.9570   29.6090   48.7870 C   0  0  0  0  0  0  0  0  0  0  0  0
   35.2430   30.4880   48.0370 C   0  0  0  0  0  0  0  0  0  0  0  0
   34.0900   29.8320   47.6150 C   0  0  0  0  0  0  0  0  0  0  0  0
   34.1830   28.5460   48.1570 C   0  0  0  0  0  0  0  0  0  0  0  0
   35.2980   28.4880   48.8280 O   0  0  0  0  0  0  0  0  0  0  0  0
   35.4040   31.5320   47.7350 H   0  0  0  0  0  0  0  0  0  0  0  0
   33.2490   30.1500   47.0050 H   0  0  0  0  0  0  0  0  0  0  0  0
   33.2430   27.4250   48.0350 C   0  0  0  0  0  0  0  0  0  0  0  0
   31.9660   27.3820   48.4370 C   0  0  0  0  0  0  0  0  0  0  0  0
   31.5100   28.2620   48.9240 H   0  0  0  0  0  0  0  0  0  0  0  0
   31.2230   26.2570   48.2490 C   0  0  0  0  0  0  0  0  0  0  0  0
   31.8760   25.1880   47.6240 C   0  0  0  0  0  0  0  0  0  0  0  0
   33.5850   25.8800   47.3290 S   0  0  0  0  0  0  0  0  0  0  0  0
   37.2270   29.9560   49.3940 C   0  0  0  0  0  0  0  0  0  0  0  0
   37.6320   29.3070   50.3840 O   0  0  0  0  0  0  0  0  0  0  0  0
   37.9720   31.0590   48.8070 C   0  0  0  0  0  0  0  0  0  0  0  0
   38.0620   32.2250   49.5700 C   0  0  0  0  0  0  0  0  0  0  0  0
   38.7720   33.3100   49.0340 C   0  0  0  0  0  0  0  0  0  0  0  0
   39.3310   33.1500   47.7930 N   0  0  0  0  0  0  0  0  0  0  0  0
   39.2210   32.0130   47.0910 C   0  0  0  0  0  0  0  0  0  0  0  0
   38.5440   30.9780   47.6000 N   0  0  0  0  0  0  0  0  0  0  0  0
   37.6160   32.3520   50.5590 H   0  0  0  0  0  0  0  0  0  0  0  0
   38.8670   34.2350   49.5940 H   0  0  0  0  0  0  0  0  0  0  0  0
   39.6710   31.9020   46.1060 H   0  0  0  0  0  0  0  0  0  0  0  0
  1  5  1  0  0  0  0
  1 14  1  0  0  0  0
  2  1  2  0  0  0  0
  3  2  1  0  0  0  0
  3  4  2  0  0  0  0
  4  5  1  0  0  0  0
  6  2  1  0  0  0  0
  7  3  1  0  0  0  0
  8  4  1  0  0  0  0
  8  9  2  0  0  0  0
  9 10  1  0  0  0  0
 11  9  1  0  0  0  0
 12 11  2  0  0  0  0
 13 12  1  0  0  0  0
 13  8  1  0  0  0  0
 14 15  2  0  0  0  0
 16 14  1  0  0  0  0
 16 17  1  0  0  0  0
 17 22  1  0  0  0  0
 18 17  2  0  0  0  0
 18 23  1  0  0  0  0
 19 18  1  0  0  0  0
 20 21  1  0  0  0  0
 20 19  2  0  0  0  0
 21 16  2  0  0  0  0
 24 20  1  0  0  0  0
M  END
>  <minimizedAffinity>
-5.17122555

>  <minimizedRMSD>
1.3759892

$$$$
